data_PCOD8322050
_publ_section_title
;
Structure prediction by ZEFSAII (Michael W. Deem and Ramdas Pophale) SiO2 
 PCOD8322050
Probable space group: P 31 2 1
;
_chemical_formula_sum "Si O2"
_cell_formula_units_Z 36
_cell_length_a 9.240082
_cell_length_b 9.240082
_cell_length_c 23.886083
_cell_angle_alpha 90.000000
_cell_angle_beta 90.000000
_cell_angle_gamma 120.000000
_cell_volume 1766.148511
_symmetry_space_group_name_H-M "P 31 2 1"
_symmetry_group_IT_number 152
_symmetry_cell_setting 'hexagonal'
loop_
_space_group_symop_operation_xyz
x,y,z
-y,x-y,1/3+z
-x+y,-x,2/3+z
x-y,-y,2/3-z
-x,-x+y,1/3-z
y,x,-z
loop_
_atom_site_type_symbol
_atom_site_label
_atom_site_fract_x
_atom_site_fract_y
_atom_site_fract_z
Si Si1 0.289089 0.333888 0.936576
Si Si2 0.737155 0.394483 0.561530
Si Si3 0.594949 0.581640 0.433216
Si Si4 0.268445 0.954105 0.396886
Si Si5 0.912543 0.923448 0.565842
Si Si6 0.410533 0.669565 0.892740
O O1 0.424948 0.334806 0.892485
O O2 0.277928 0.500000 0.924805
O O3 0.112516 0.166251 0.925594
O O4 0.349144 0.349144 0.000000
O O5 0.607275 0.443344 0.591091
O O6 0.661240 0.312284 0.502382
O O7 0.777965 0.265538 0.593762
O O8 0.579517 0.579517 0.500000
O O9 0.775134 0.731963 0.414827
O O10 0.578015 0.410012 0.410578
O O11 0.404286 0.096150 0.438185
O O12 0.320212 0.000000 0.333334
O O13 0.090934 0.934146 0.408469
O O14 0.939324 0.939324 0.500000
#
# Coordination Sequence:
#
# PCOD8322050 Si02
#       6
#     6   6   6   6   6   6
#     4  10  20  37  61  86 117 158 196 241 304 358
#     4   9  18  34  57  81 112 155 191 230 292 355
#     4   8  17  34  56  81 111 146 191 240 286 341
#     4  11  23  39  58  88 124 153 192 251 301 346
#     4  10  20  37  60  87 118 158 199 239 291 361
#     4  10  19  35  59  85 112 150 198 243 288 353
#
# _framework density 20.383337999999998
#
# number of rings (size 3 to 8) (size 9 to 14) (size 15 to 20)
#    0.000    2.333    0.000    4.500    0.000    4.667 
#    0.000    6.667    0.000   16.000    0.000    0.000 
#    0.000    0.000    0.000    0.000    0.000    0.000 
#
# Total GULP energy -445984.825366 kJ/mol
# GULP energy per Si atom -12388.467371 kJ/mol
# Density = 2.033694 g / cm^3
# Si number density = 20.383338 Si / 1000 Ang^3
#
#
#
# Elastic Constant Matrix: (Units=GPa)
#
#
# Indices 1 2 3 4 5 6 
#
# 1 158.6043 74.2483 43.6390 -2.7799 -0.0007 0.0000
# 2 74.2483 158.6043 43.6390 2.7799 0.0007 0.0000
# 3 43.6390 43.6390 88.5070 0.0000 0.0000 0.0000
# 4 -2.7799 2.7799 0.0000 11.8853 0.0000 0.0007
# 5 -0.0007 0.0007 0.0000 0.0000 11.8853 -2.7799
# 6 0.0000 0.0000 0.0000 0.0007 -2.7799 42.1780
#
#
#
# Elastic Compliance Matrix: (Units=1/GPa)
#
#
# Indices 1 2 3 4 5 6 
#
# 1 0.008654 -0.003386 -0.002598 0.002816 0.000001 0.000000
# 2 -0.003386 0.008654 -0.002598 -0.002816 -0.000001 0.000000
# 3 -0.002598 -0.002598 0.013860 0.000000 0.000000 0.000000
# 4 0.002816 -0.002816 0.000000 0.085455 0.000000 -0.000002
# 5 0.000001 -0.000001 0.000000 0.000000 0.085455 0.005632
# 6 0.000000 0.000000 0.000000 -0.000002 0.005632 0.024080
#
#
# Mechanical properties :
#
#
# Convention : Reuss Voigt Hill
#
# Bulk Modulus (GPa) = 71.39649 80.97421 76.18535
# Shear Modulus (GPa) = 20.16220 29.46902 24.81561
#
# Velocity S-wave (km/s) = 3.14849 3.80641 3.49298
# Velocity P-wave (km/s) = 6.95128 7.68962 7.32975
#
# Compressibility (1/GPa) = 0.01400629
#
# Stress axis : x y z
#
# Youngs Moduli (GPa) = 115.55157 115.55157 72.15018
#
# Poissons Ratio (x) = 0.39126 0.18741
# Poissons Ratio (y) = 0.39126 0.18741
# Poissons Ratio (z) = 0.30015 0.30015
#
# Static dielectric constant tensor:
#      x y z
#    x 4.068240 0.000000 0.000000 
#    y 0.000000 4.068240 0.000000 
#    z 0.000000 0.000000 3.570040 
# 
# 
# High freq. dielectric constant tensor:
#      x y z
#    x 1.799030 0.000000 0.000000 
#    y 0.000000 1.799030 0.000000 
#    z 0.000000 0.000000 1.768160 
# 
# From -- ./inp_files/3361.got.cif
#   From: 2010.03.12/outbox.cif.g09.slc.cpg/sg152_2_cif.got.tgz:3361.got - 2010.04.03 13:45:27.
