data_PCOD8322224
_publ_section_title
;
Structure prediction by ZEFSAII (Michael W. Deem and Ramdas Pophale) SiO2 
 PCOD8322224
Probable space group: P 31 2 1
;
_chemical_formula_sum "Si O2"
_cell_formula_units_Z 15
_cell_length_a 7.254284
_cell_length_b 7.254284
_cell_length_c 12.103094
_cell_angle_alpha 90.000000
_cell_angle_beta 90.000000
_cell_angle_gamma 120.000000
_cell_volume 551.589697
_symmetry_space_group_name_H-M "P 31 2 1"
_symmetry_group_IT_number 152
_symmetry_cell_setting 'hexagonal'
loop_
_space_group_symop_operation_xyz
x,y,z
-y,x-y,1/3+z
-x+y,-x,2/3+z
x-y,-y,2/3-z
-x,-x+y,1/3-z
y,x,-z
loop_
_atom_site_type_symbol
_atom_site_label
_atom_site_fract_x
_atom_site_fract_y
_atom_site_fract_z
Si Si1 0.650889 0.104977 0.571519
Si Si2 0.854908 0.790646 0.274180
Si Si3 0.550357 0.000000 0.333334
O O1 0.401556 0.024440 0.577786
O O2 0.800949 0.335886 0.621926
O O3 0.693155 0.940144 0.635331
O O4 0.708300 0.093504 0.441686
O O5 0.000000 0.858037 0.166667
O O6 0.865678 0.000000 0.333334
#
# Coordination Sequence:
#
# PCOD8322224 Si02
#       3
#     6   6   3
#     4  12  25  52  81 120 170 218 283 352 425 512
#     4  12  27  53  80 123 165 218 286 345 428 514
#     4  12  26  52  82 122 170 220 286 356 426 512
#
# _framework density 27.194123999999999
#
# number of rings (size 3 to 8) (size 9 to 14) (size 15 to 20)
#    0.000    0.000    6.000    2.400    0.000    1.600 
#   25.200    0.000    0.000    0.000    0.000    0.000 
#    0.000    0.000    0.000    0.000    0.000    0.000 
#
# Total GULP energy -185941.158032 kJ/mol
# GULP energy per Si atom -12396.077202 kJ/mol
# Density = 2.713223 g / cm^3
# Si number density = 27.194124 Si / 1000 Ang^3
#
#
#
# Elastic Constant Matrix: (Units=GPa)
#
#
# Indices 1 2 3 4 5 6 
#
# 1 179.5519 36.0852 106.7991 -0.0159 0.0007 0.0000
# 2 36.0852 179.5519 106.7991 0.0159 -0.0007 0.0000
# 3 106.7991 106.7991 260.9170 0.0000 0.0000 0.0000
# 4 -0.0159 0.0159 0.0000 65.1437 0.0000 -0.0007
# 5 0.0007 -0.0007 0.0000 0.0000 65.1437 -0.0159
# 6 0.0000 0.0000 0.0000 -0.0007 -0.0159 71.7333
#
#
#
# Elastic Compliance Matrix: (Units=1/GPa)
#
#
# Indices 1 2 3 4 5 6 
#
# 1 0.007385 0.000415 -0.003193 0.000002 0.000000 0.000000
# 2 0.000415 0.007385 -0.003193 -0.000002 0.000000 0.000000
# 3 -0.003193 -0.003193 0.006446 0.000000 0.000000 0.000000
# 4 0.000002 -0.000002 0.000000 0.015351 0.000000 0.000000
# 5 0.000000 0.000000 0.000000 0.000000 0.015351 0.000003
# 6 0.000000 0.000000 0.000000 0.000000 0.000003 0.013941
#
#
# Mechanical properties :
#
#
# Convention : Reuss Voigt Hill
#
# Bulk Modulus (GPa) = 107.81184 124.37639 116.09412
# Shear Modulus (GPa) = 61.81143 65.09332 63.45238
#
# Velocity S-wave (km/s) = 4.77274 4.89781 4.83568
# Velocity P-wave (km/s) = 8.37278 8.82159 8.60011
#
# Compressibility (1/GPa) = 0.00927542
#
# Stress axis : x y z
#
# Youngs Moduli (GPa) = 135.40806 135.40806 155.12773
#
# Poissons Ratio (x) = -0.05617 0.49527
# Poissons Ratio (y) = -0.05617 0.49527
# Poissons Ratio (z) = 0.43231 0.43231
#
# Static dielectric constant tensor:
#      x y z
#    x 5.371960 0.000000 0.000000 
#    y 0.000000 5.371960 0.000000 
#    z 0.000000 0.000000 5.775590 
# 
# 
# High freq. dielectric constant tensor:
#      x y z
#    x 2.131370 0.000000 0.000000 
#    y 0.000000 2.131370 0.000000 
#    z 0.000000 0.000000 2.141320 
# 
# From -- ./inp_files/1379.got.cif
#   From: 2010.03.12/outbox.cif.g09.slc.cpg/sg152_1_cif.got.tgz:1379.got - 2010.04.03 13:45:27.
