data_PCOD8322593
_publ_section_title
;
Structure prediction by ZEFSAII (Michael W. Deem and Ramdas Pophale) SiO2 
 PCOD8322593
Probable space group: R 3 2
;
_chemical_formula_sum "Si O2"
_cell_formula_units_Z 75
_cell_length_a 10.284570
_cell_length_b 10.284570
_cell_length_c 36.870314
_cell_angle_alpha 90.000000
_cell_angle_beta 90.000000
_cell_angle_gamma 120.000000
_cell_volume 3377.378581
_symmetry_space_group_name_H-M "R 3 2"
_symmetry_group_IT_number 155
_symmetry_cell_setting 'hexagonal'
loop_
_space_group_symop_operation_xyz
x,y,z
-y,x-y,z
-x+y,-x,z
x-y,-y,-z
-x,-x+y,-z
y,x,-z
2/3+x,1/3+y,1/3+z
2/3-y,1/3+x-y,1/3+z
2/3-x+y,1/3-x,1/3+z
2/3+x-y,1/3-y,1/3-z
2/3-x,1/3-x+y,1/3-z
2/3+y,1/3+x,1/3-z
1/3+x,2/3+y,2/3+z
1/3-y,2/3+x-y,2/3+z
1/3-x+y,2/3-x,2/3+z
1/3+x-y,2/3-y,2/3-z
1/3-x,2/3-x+y,2/3-z
1/3+y,2/3+x,2/3-z
loop_
_atom_site_type_symbol
_atom_site_label
_atom_site_fract_x
_atom_site_fract_y
_atom_site_fract_z
Si Si1 0.938945 0.280835 0.038832
Si Si2 0.000000 0.000000 0.780653
Si Si3 0.666667 0.333334 0.198547
Si Si4 0.167120 0.500453 0.166667
Si Si5 0.854856 0.164313 0.897889
Si Si6 0.557462 0.934041 0.932038
O O1 0.766417 0.149987 0.041455
O O2 0.967237 0.448759 0.043461
O O3 0.027863 0.249213 0.069651
O O4 0.000000 0.267120 0.000000
O O5 0.000000 0.000000 0.822840
O O6 0.974595 0.840792 0.767697
O O7 0.537824 0.368120 0.211210
O O8 0.333334 0.517659 0.166667
O O9 0.098052 0.403770 0.129903
O O10 0.687735 0.089975 0.914803
#
# Coordination Sequence:
#
# PCOD8322593 Si02
#       6
#    18   6   6   9  18  18
#     4  11  26  46  73  99 132 188 227 285 346 395
#     4   9  24  42  72 100 136 189 213 289 340 405
#     4  12  27  39  73 103 135 189 222 276 349 409
#     4  10  26  44  66 102 134 176 222 286 338 408
#     4  12  25  46  68 103 139 178 233 280 340 406
#     4  10  24  49  66 103 140 170 240 280 338 414
#
# _framework density 22.206571
#
# number of rings (size 3 to 8) (size 9 to 14) (size 15 to 20)
#    0.240    0.960    2.400    1.920   13.440    0.000 
#    1.440    0.000    0.000    0.000    0.000    0.000 
#    0.000    0.000    0.000    0.000    0.000    0.000 
#
# Total GULP energy -310025.860836 kJ/mol
# GULP energy per Si atom -12401.034433 kJ/mol
# Density = 2.215603 g / cm^3
# Si number density = 22.206571 Si / 1000 Ang^3
#
#
#
# Elastic Constant Matrix: (Units=GPa)
#
#
# Indices 1 2 3 4 5 6 
#
# 1 64.9045 -2.3670 16.2783 3.8598 -0.0001 0.0000
# 2 -2.3670 64.9045 16.2783 -3.8598 0.0001 0.0000
# 3 16.2783 16.2783 143.9612 -0.0001 0.0000 0.0000
# 4 3.8598 -3.8598 -0.0001 13.2009 0.0000 0.0001
# 5 -0.0001 0.0001 0.0000 0.0000 13.2009 3.8599
# 6 0.0000 0.0000 0.0000 0.0001 3.8599 33.6357
#
#
#
# Elastic Compliance Matrix: (Units=1/GPa)
#
#
# Indices 1 2 3 4 5 6 
#
# 1 0.016186 0.000805 -0.001921 -0.004497 0.000000 0.000000
# 2 0.000805 0.016186 -0.001921 0.004497 0.000000 0.000000
# 3 -0.001921 -0.001921 0.007381 0.000000 0.000000 0.000000
# 4 -0.004497 0.004497 0.000000 0.078382 0.000000 0.000000
# 5 0.000000 0.000000 0.000000 0.000000 0.078382 -0.008995
# 6 0.000000 0.000000 0.000000 0.000000 -0.008995 0.030763
#
#
# Mechanical properties :
#
#
# Convention : Reuss Voigt Hill
#
# Bulk Modulus (GPa) = 29.69373 37.12772 33.41072
# Shear Modulus (GPa) = 20.44312 28.24621 24.34467
#
# Velocity S-wave (km/s) = 3.03741 3.57035 3.31461
# Velocity P-wave (km/s) = 5.06969 5.80965 5.45224
#
# Compressibility (1/GPa) = 0.03367715
#
# Stress axis : x y z
#
# Youngs Moduli (GPa) = 61.78220 61.78219 135.48685
#
# Poissons Ratio (x) = -0.04971 0.26030
# Poissons Ratio (y) = -0.04971 0.26030
# Poissons Ratio (z) = 0.11870 0.11870
#
# Static dielectric constant tensor:
#      x y z
#    x 4.018510 0.000000 0.000000 
#    y 0.000000 4.018510 0.000000 
#    z 0.000000 0.000000 3.821320 
# 
# 
# High freq. dielectric constant tensor:
#      x y z
#    x 1.873030 0.000000 0.000000 
#    y 0.000000 1.873030 0.000000 
#    z 0.000000 0.000000 1.874500 
# 
# From -- ./inp_files/8319.got.cif
#   From: 2010.03.12/outbox.cif.g09.slc.cpg/sg155_5_cif.got.tgz:8319.got - 2010.04.03 13:54:13.
