data_PCOD8322461
_publ_section_title
;
Structure prediction by ZEFSAII (Michael W. Deem and Ramdas Pophale) SiO2 
 PCOD8322461
Probable space group: R 3 2
;
_chemical_formula_sum "Si O2"
_cell_formula_units_Z 144
_cell_length_a 22.885530
_cell_length_b 22.885530
_cell_length_c 16.506316
_cell_angle_alpha 90.000000
_cell_angle_beta 90.000000
_cell_angle_gamma 120.000000
_cell_volume 7486.912128
_symmetry_space_group_name_H-M "R 3 2"
_symmetry_group_IT_number 155
_symmetry_cell_setting 'hexagonal'
loop_
_space_group_symop_operation_xyz
x,y,z
-y,x-y,z
-x+y,-x,z
x-y,-y,-z
-x,-x+y,-z
y,x,-z
2/3+x,1/3+y,1/3+z
2/3-y,1/3+x-y,1/3+z
2/3-x+y,1/3-x,1/3+z
2/3+x-y,1/3-y,1/3-z
2/3-x,1/3-x+y,1/3-z
2/3+y,1/3+x,1/3-z
1/3+x,2/3+y,2/3+z
1/3-y,2/3+x-y,2/3+z
1/3-x+y,2/3-x,2/3+z
1/3+x-y,2/3-y,2/3-z
1/3-x,2/3-x+y,2/3-z
1/3+y,2/3+x,2/3-z
loop_
_atom_site_type_symbol
_atom_site_label
_atom_site_fract_x
_atom_site_fract_y
_atom_site_fract_z
Si Si1 0.077568 0.287056 0.103568
Si Si2 0.727070 0.141869 0.985767
Si Si3 0.604729 0.526108 0.496815
Si Si4 0.743392 0.621457 0.743029
Si Si5 0.858132 0.272931 0.985767
Si Si6 0.544731 0.954790 0.076362
Si Si7 0.589099 0.046277 0.229765
Si Si8 0.859441 0.588046 0.169852
O O1 0.085306 0.336827 0.177154
O O2 0.092544 0.332684 0.022587
O O3 0.129960 0.259921 0.112499
O O4 0.002906 0.221742 0.104642
O O5 0.783849 0.216152 0.953985
O O6 0.661507 0.114572 0.928881
O O7 0.759860 0.092544 0.977413
O O8 0.707904 0.146598 0.078116
O O9 0.577287 0.577287 0.500000
O O10 0.625431 0.520070 0.588551
O O11 0.547337 0.452663 0.464111
O O12 0.747552 0.666667 0.666667
O O13 0.671827 0.552096 0.737786
O O14 0.800358 0.600715 0.740166
O O15 0.581360 0.996505 0.156179
O O16 0.585781 0.000000 0.000000
O O17 0.663761 0.111591 0.228690
O O18 0.910621 0.666667 0.166667
#
# Coordination Sequence:
#
# PCOD8322461 Si02
#       8
#    18  18  18  18  18  18  18  18
#     4  10  20  32  49  72  96 124 159 197 240 286
#     4  10  20  32  47  70  97 126 158 197 239 281
#     4  10  20  32  47  68  95 126 156 192 240 287
#     4  10  18  29  48  72  94 123 158 193 237 285
#     4  10  20  32  47  70  97 126 158 197 239 281
#     4  10  18  29  48  72  94 123 158 193 237 285
#     4  10  20  32  49  72  96 124 159 197 240 286
#     4  10  20  32  47  68  95 126 156 192 240 287
#
# _framework density 19.233563
#
# number of rings (size 3 to 8) (size 9 to 14) (size 15 to 20)
#    0.000    2.000    2.500    2.250    0.000    0.000 
#    0.000    0.000    0.000    1.000    0.000    0.000 
#    0.000    6.000    0.000   12.500    0.000    3.000 
#
# Total GULP energy -595085.573716 kJ/mol
# GULP energy per Si atom -12397.616119 kJ/mol
# Density = 1.918979 g / cm^3
# Si number density = 19.233563 Si / 1000 Ang^3
#
#
#
# Elastic Constant Matrix: (Units=GPa)
#
#
# Indices 1 2 3 4 5 6 
#
# 1 108.6126 37.2240 -5.1152 -2.0175 -0.0001 0.0000
# 2 37.2240 108.6126 -5.1152 2.0175 0.0001 0.0000
# 3 -5.1152 -5.1152 13.9510 0.0000 0.0000 0.0000
# 4 -2.0175 2.0175 0.0000 20.9489 0.0000 0.0001
# 5 -0.0001 0.0001 0.0000 0.0000 20.9489 -2.0175
# 6 0.0000 0.0000 0.0000 0.0001 -2.0175 35.6943
#
#
#
# Elastic Compliance Matrix: (Units=1/GPa)
#
#
# Indices 1 2 3 4 5 6 
#
# 1 0.010561 -0.003523 0.002581 0.001356 0.000000 0.000000
# 2 -0.003523 0.010561 0.002581 -0.001356 0.000000 0.000000
# 3 0.002581 0.002581 0.073572 0.000000 0.000000 0.000000
# 4 0.001356 -0.001356 0.000000 0.047996 0.000000 0.000000
# 5 0.000000 0.000000 0.000000 0.000000 0.047996 0.002713
# 6 0.000000 0.000000 0.000000 0.000000 0.002713 0.028169
#
#
# Mechanical properties :
#
#
# Convention : Reuss Voigt Hill
#
# Bulk Modulus (GPa) = 10.20718 31.68481 20.94600
# Shear Modulus (GPa) = 20.14199 29.13059 24.63629
#
# Velocity S-wave (km/s) = 3.23961 3.89597 3.58285
# Velocity P-wave (km/s) = 4.39453 6.06198 5.29431
#
# Compressibility (1/GPa) = 0.09797025
#
# Stress axis : x y z
#
# Youngs Moduli (GPa) = 94.68567 94.68567 13.59212
#
# Poissons Ratio (x) = 0.33360 -0.03508
# Poissons Ratio (y) = 0.33360 -0.03508
# Poissons Ratio (z) = -0.24434 -0.24434
#
# Static dielectric constant tensor:
#      x y z
#    x 3.399030 0.000000 0.000000 
#    y 0.000000 3.399030 0.000000 
#    z 0.000000 0.000000 3.709770 
# 
# 
# High freq. dielectric constant tensor:
#      x y z
#    x 1.724390 0.000000 0.000000 
#    y 0.000000 1.724390 0.000000 
#    z 0.000000 0.000000 1.757150 
# 
# From -- ./inp_files/6388.got.cif
#   From: 2010.03.12/outbox.cif.g09.slc.cpg/sg155_4_cif.got.tgz:6388.got - 2010.04.03 13:54:13.
