data_PCOD8322696
_publ_section_title
;
Structure prediction by ZEFSAII (Michael W. Deem and Ramdas Pophale) SiO2 
 PCOD8322696
Probable space group: P 3 M 1
;
_chemical_formula_sum "Si O2"
_cell_formula_units_Z 42
_cell_length_a 12.766911
_cell_length_b 12.766911
_cell_length_c 17.786851
_cell_angle_alpha 90.000000
_cell_angle_beta 90.000000
_cell_angle_gamma 120.000000
_cell_volume 2510.737796
_symmetry_space_group_name_H-M "P 3 M 1"
_symmetry_group_IT_number 156
_symmetry_cell_setting 'hexagonal'
loop_
_space_group_symop_operation_xyz
x,y,z
-y,x-y,z
-x+y,-x,z
-x+y,y,z
x,x-y,z
-y,-x,z
loop_
_atom_site_type_symbol
_atom_site_label
_atom_site_fract_x
_atom_site_fract_y
_atom_site_fract_z
Si Si1 0.088541 0.419827 0.415600
Si Si2 0.575078 0.666503 0.977452
Si Si3 0.424939 0.333597 0.853916
Si Si4 0.000102 0.755214 0.553280
Si Si5 0.244918 0.246439 0.278453
Si Si6 0.333778 0.909478 0.146961
Si Si7 0.666225 0.091423 0.684785
O O1 0.229390 0.458779 0.412725
O O2 0.077309 0.538655 0.416229
O O3 0.024651 0.341912 0.489125
O O4 0.018172 0.339393 0.344000
O O5 0.573898 0.786949 0.963042
O O6 0.440945 0.559056 0.962602
O O7 0.666004 0.665920 0.915776
O O8 0.617075 0.659670 0.062138
O O9 0.425145 0.212573 0.867895
O O10 0.559263 0.440738 0.869039
O O11 0.383138 0.341568 0.769322
O O12 0.878578 0.757155 0.533246
O O13 0.989282 0.687781 0.631435
O O14 0.107847 0.892154 0.560162
O O15 0.254797 0.127399 0.286518
O O16 0.303691 0.311002 0.199730
O O17 0.104549 0.209098 0.283527
O O18 0.459815 0.919630 0.171368
O O19 0.230916 0.769085 0.154274
O O20 0.539649 0.079298 0.659798
O O21 0.767520 0.232481 0.680111
#
# Coordination Sequence:
#
# PCOD8322696 Si02
#       7
#     6   6   6   6   6   6   6
#     4  10  20  34  53  75  97 121 151 190 232 271
#     4   9  17  29  46  68  93 121 153 191 235 281
#     4   9  17  29  46  67  91 121 157 196 235 276
#     4  10  20  33  50  71  96 126 157 189 226 272
#     4  10  20  33  50  71  96 126 157 189 225 269
#     4   9  17  30  49  71  93 119 153 194 237 278
#     4   9  17  30  48  69  92 120 156 197 238 277
#
# _framework density 16.728152000000001
#
# number of rings (size 3 to 8) (size 9 to 14) (size 15 to 20)
#    0.000    2.571    0.000    2.286    0.000    3.429 
#    0.000    2.857    0.000    6.571    0.000    0.000 
#    0.000    0.000    0.000    0.000    0.000    0.000 
#
# Total GULP energy -520789.914427 kJ/mol
# GULP energy per Si atom -12399.759867 kJ/mol
# Density = 1.669008 g / cm^3
# Si number density = 16.728152 Si / 1000 Ang^3
#
#
#
# Elastic Constant Matrix: (Units=GPa)
#
#
# Indices 1 2 3 4 5 6 
#
# 1 101.4713 50.7894 61.6601 2.5038 -0.0003 0.0000
# 2 50.7894 101.4713 61.6601 -2.5038 0.0003 0.0000
# 3 61.6601 61.6601 118.9642 0.0000 0.0000 0.0000
# 4 2.5038 -2.5038 0.0000 27.3279 0.0000 0.0003
# 5 -0.0003 0.0003 0.0000 0.0000 27.3279 2.5038
# 6 0.0000 0.0000 0.0000 0.0003 2.5038 25.3410
#
#
#
# Elastic Compliance Matrix: (Units=1/GPa)
#
#
# Indices 1 2 3 4 5 6 
#
# 1 0.015615 -0.004296 -0.005867 -0.001824 0.000000 0.000000
# 2 -0.004296 0.015615 -0.005867 0.001824 0.000000 0.000000
# 3 -0.005867 -0.005867 0.014488 0.000000 0.000000 0.000000
# 4 -0.001824 0.001824 0.000000 0.036927 0.000000 0.000000
# 5 0.000000 0.000000 0.000000 0.000000 0.036927 -0.003649
# 6 0.000000 0.000000 0.000000 0.000000 -0.003649 0.039822
#
#
# Mechanical properties :
#
#
# Convention : Reuss Voigt Hill
#
# Bulk Modulus (GPa) = 73.21306 74.45847 73.83576
# Shear Modulus (GPa) = 25.50926 25.85249 25.68087
#
# Velocity S-wave (km/s) = 3.90927 3.93548 3.92240
# Velocity P-wave (km/s) = 8.01486 8.07826 8.04662
#
# Compressibility (1/GPa) = 0.01365876
#
# Stress axis : x y z
#
# Youngs Moduli (GPa) = 64.03959 64.03959 69.02391
#
# Poissons Ratio (x) = 0.27510 0.40496
# Poissons Ratio (y) = 0.27510 0.40496
# Poissons Ratio (z) = 0.37572 0.37572
#
# Static dielectric constant tensor:
#      x y z
#    x 3.026280 0.000000 0.000000 
#    y 0.000000 3.026280 0.000000 
#    z 0.000000 0.000000 3.425560 
# 
# 
# High freq. dielectric constant tensor:
#      x y z
#    x 1.636410 0.000000 0.000000 
#    y 0.000000 1.636410 0.000000 
#    z 0.000000 0.000000 1.660420 
# 
# From -- ./inp_files/957.got.cif
#   From: 2010.03.12/outbox.cif.g09.slc.cpg/sg156_cif.got.tgz:957.got - 2010.04.03 13:58:47.
