data_PCOD8322758
_publ_section_title
;
Structure prediction by ZEFSAII (Michael W. Deem and Ramdas Pophale) SiO2 
 PCOD8322758
Probable space group: P 3 C 1
;
_chemical_formula_sum "Si O2"
_cell_formula_units_Z 42
_cell_length_a 14.244548
_cell_length_b 14.244548
_cell_length_c 11.696365
_cell_angle_alpha 90.000000
_cell_angle_beta 90.000000
_cell_angle_gamma 120.000000
_cell_volume 2055.317359
_symmetry_space_group_name_H-M "P 3 C 1"
_symmetry_group_IT_number 158
_symmetry_cell_setting 'hexagonal'
loop_
_space_group_symop_operation_xyz
x,y,z
-y,x-y,z
-x+y,-x,z
-x+y,y,1/2+z
x,x-y,1/2+z
-y,-x,1/2+z
loop_
_atom_site_type_symbol
_atom_site_label
_atom_site_fract_x
_atom_site_fract_y
_atom_site_fract_z
Si Si1 0.236374 0.952570 0.660780
Si Si2 0.298838 0.861742 0.868731
Si Si3 0.825152 0.678751 0.235248
Si Si4 0.112582 0.634061 0.824413
Si Si5 0.761550 0.292865 0.620917
Si Si6 0.380868 0.305677 0.949673
Si Si7 0.059377 0.718164 0.609965
O O1 0.298909 0.925712 0.757075
O O2 0.122558 0.847928 0.630683
O O3 0.224033 0.052499 0.710929
O O4 0.307982 0.994658 0.547975
O O5 0.188515 0.748568 0.886843
O O6 0.394934 0.836156 0.846774
O O7 0.314830 0.933874 0.980623
O O8 0.817702 0.561037 0.218470
O O9 0.793462 0.692080 0.363437
O O10 0.744362 0.679838 0.139349
O O11 0.106869 0.658764 0.690172
O O12 0.991499 0.575139 0.877568
O O13 0.786798 0.417445 0.631344
O O14 0.811882 0.289502 0.497724
#
# Coordination Sequence:
#
# PCOD8322758 Si02
#       7
#     6   6   6   6   6   6   6
#     4  10  23  42  61  91 128 164 217 266 328 389
#     4  11  23  38  67  89 130 172 209 273 324 392
#     4  10  23  40  65  89 128 168 216 272 331 389
#     4  10  23  38  60  94 124 165 216 260 326 390
#     4   9  22  37  57  89 127 161 215 254 320 395
#     4  10  21  39  60  88 126 167 207 270 319 389
#     4  10  23  42  64  94 127 167 220 269 332 398
#
# _framework density 20.434801
#
# number of rings (size 3 to 8) (size 9 to 14) (size 15 to 20)
#    0.286    1.714    1.429    0.286    8.000    4.571 
#    0.857    0.000    0.000    1.714    0.000    0.000 
#    0.000    0.000    0.000    0.000    0.000    0.000 
#
# Total GULP energy -520538.679576 kJ/mol
# GULP energy per Si atom -12393.778085 kJ/mol
# Density = 2.038829 g / cm^3
# Si number density = 20.434801 Si / 1000 Ang^3
#
#
#
# Elastic Constant Matrix: (Units=GPa)
#
#
# Indices 1 2 3 4 5 6 
#
# 1 82.7739 33.9169 35.2340 -1.7082 0.0000 0.0000
# 2 33.9169 82.7739 35.2340 1.7082 0.0000 0.0000
# 3 35.2340 35.2340 123.9569 0.0000 0.0000 0.0000
# 4 -1.7082 1.7082 0.0000 29.8851 0.0000 0.0000
# 5 0.0000 0.0000 0.0000 0.0000 29.8851 -1.7082
# 6 0.0000 0.0000 0.0000 0.0000 -1.7082 24.4285
#
#
#
# Elastic Compliance Matrix: (Units=1/GPa)
#
#
# Indices 1 2 3 4 5 6 
#
# 1 0.015448 -0.005102 -0.002941 0.001175 0.000000 0.000000
# 2 -0.005102 0.015448 -0.002941 -0.001175 0.000000 0.000000
# 3 -0.002941 -0.002941 0.009739 0.000000 0.000000 0.000000
# 4 0.001175 -0.001175 0.000000 0.033596 0.000000 0.000000
# 5 0.000000 0.000000 0.000000 0.000000 0.033596 0.002349
# 6 0.000000 0.000000 0.000000 0.000000 0.002349 0.041100
#
#
# Mechanical properties :
#
#
# Convention : Reuss Voigt Hill
#
# Bulk Modulus (GPa) = 53.56925 55.36384 54.46655
# Shear Modulus (GPa) = 28.23013 29.18105 28.70559
#
# Velocity S-wave (km/s) = 3.72085 3.78300 3.75205
# Velocity P-wave (km/s) = 6.68814 6.79950 6.74405
#
# Compressibility (1/GPa) = 0.01866742
#
# Stress axis : x y z
#
# Youngs Moduli (GPa) = 64.73437 64.73437 102.67950
#
# Poissons Ratio (x) = 0.33029 0.30194
# Poissons Ratio (y) = 0.33029 0.30194
# Poissons Ratio (z) = 0.19036 0.19036
#
# Static dielectric constant tensor:
#      x y z
#    x 3.652190 0.000000 0.000000 
#    y 0.000000 3.652190 0.000000 
#    z 0.000000 0.000000 3.686550 
# 
# 
# High freq. dielectric constant tensor:
#      x y z
#    x 1.789900 0.000000 0.000000 
#    y 0.000000 1.789900 0.000000 
#    z 0.000000 0.000000 1.805030 
# 
# From -- ./inp_files/354.got.cif
#   From: 2010.03.12/outbox.cif.g09.slc.cpg/sg158_cif.got.tgz:354.got - 2010.04.03 13:59:47.
