data_PCOD8322043
_publ_section_title
;
Structure prediction by ZEFSAII (Michael W. Deem and Ramdas Pophale) SiO2 
 PCOD8322043
Probable space group: P 31 2 1
;
_chemical_formula_sum "Si O2"
_cell_formula_units_Z 24
_cell_length_a 12.473876
_cell_length_b 12.473876
_cell_length_c 8.230368
_cell_angle_alpha 90.000000
_cell_angle_beta 90.000000
_cell_angle_gamma 120.000000
_cell_volume 1109.054098
_symmetry_space_group_name_H-M "P 31 2 1"
_symmetry_group_IT_number 152
_symmetry_cell_setting 'hexagonal'
loop_
_space_group_symop_operation_xyz
x,y,z
-y,x-y,1/3+z
-x+y,-x,2/3+z
x-y,-y,2/3-z
-x,-x+y,1/3-z
y,x,-z
loop_
_atom_site_type_symbol
_atom_site_label
_atom_site_fract_x
_atom_site_fract_y
_atom_site_fract_z
Si Si1 0.683280 0.068133 0.674120
Si Si2 0.441937 0.144936 0.168080
Si Si3 0.835863 0.536282 0.519559
Si Si4 0.083507 0.443144 0.315961
O O1 0.813464 0.194791 0.644010
O O2 0.580849 0.107445 0.701998
O O3 0.639794 0.978130 0.515705
O O4 0.696507 0.000000 0.833334
O O5 0.583052 0.183522 0.204115
O O6 0.365622 0.995075 0.144042
O O7 0.435237 0.217878 0.011569
O O8 0.762130 0.543781 0.359660
O O9 0.000000 0.361552 0.166667
#
# Coordination Sequence:
#
# PCOD8322043 Si02
#       4
#     6   6   6   6
#     4  10  20  33  49  77 112 147 189 238 291 353
#     4  10  19  32  52  78 109 148 188 232 294 357
#     4  10  19  33  53  76 109 145 187 237 289 360
#     4   8  17  32  49  73 106 144 182 231 292 348
#
# _framework density 21.640060999999999
#
# number of rings (size 3 to 8) (size 9 to 14) (size 15 to 20)
#    0.000    2.500    0.000    3.750    0.000    2.000 
#    0.000    3.750    0.000    0.000    0.000   15.750 
#    0.000    0.000    0.000    1.250    0.000    0.000 
#
# Total GULP energy -297397.253306 kJ/mol
# GULP energy per Si atom -12391.552221 kJ/mol
# Density = 2.159081 g / cm^3
# Si number density = 21.640061 Si / 1000 Ang^3
#
#
#
# Elastic Constant Matrix: (Units=GPa)
#
#
# Indices 1 2 3 4 5 6 
#
# 1 75.2574 34.9085 12.2898 3.6860 0.0000 0.0000
# 2 34.9085 75.2574 12.2898 -3.6860 0.0000 0.0000
# 3 12.2898 12.2898 42.3190 0.0000 0.0000 0.0000
# 4 3.6860 -3.6860 0.0000 31.0458 0.0000 0.0000
# 5 0.0000 0.0000 0.0000 0.0000 31.0458 3.6860
# 6 0.0000 0.0000 0.0000 0.0000 3.6860 20.1745
#
#
#
# Elastic Compliance Matrix: (Units=1/GPa)
#
#
# Indices 1 2 3 4 5 6 
#
# 1 0.017520 -0.007814 -0.002819 -0.003008 0.000000 0.000000
# 2 -0.007814 0.017520 -0.002819 0.003008 0.000000 0.000000
# 3 -0.002819 -0.002819 0.025267 0.000000 0.000000 0.000000
# 4 -0.003008 0.003008 0.000000 0.032925 0.000000 0.000000
# 5 0.000000 0.000000 0.000000 0.000000 0.032925 -0.006016
# 6 0.000000 0.000000 0.000000 0.000000 -0.006016 0.050667
#
#
# Mechanical properties :
#
#
# Convention : Reuss Voigt Hill
#
# Bulk Modulus (GPa) = 29.93610 34.64557 32.29083
# Shear Modulus (GPa) = 23.27101 25.34295 24.30698
#
# Velocity S-wave (km/s) = 3.28284 3.42586 3.35511
# Velocity P-wave (km/s) = 5.31348 5.62969 5.47387
#
# Compressibility (1/GPa) = 0.03340449
#
# Stress axis : x y z
#
# Youngs Moduli (GPa) = 57.07851 57.07851 39.57701
#
# Poissons Ratio (x) = 0.44599 0.11156
# Poissons Ratio (y) = 0.44599 0.11156
# Poissons Ratio (z) = 0.16089 0.16089
#
# Static dielectric constant tensor:
#      x y z
#    x 3.988810 0.000000 0.000000 
#    y 0.000000 3.988810 0.000000 
#    z 0.000000 0.000000 4.115930 
# 
# 
# High freq. dielectric constant tensor:
#      x y z
#    x 1.831920 0.000000 0.000000 
#    y 0.000000 1.831920 0.000000 
#    z 0.000000 0.000000 1.857590 
# 
# From -- ./inp_files/953.got.cif
#   From: 2010.03.12/outbox.cif.g09.slc.cpg/sg152_1_cif.got.tgz:953.got - 2010.04.03 13:45:27.
