data_PCOD8322462
_publ_section_title
;
Structure prediction by ZEFSAII (Michael W. Deem and Ramdas Pophale) SiO2 
 PCOD8322462
Probable space group: R 3 2
;
_chemical_formula_sum "Si O2"
_cell_formula_units_Z 63
_cell_length_a 23.839000
_cell_length_b 23.839000
_cell_length_c 7.606811
_cell_angle_alpha 90.000000
_cell_angle_beta 90.000000
_cell_angle_gamma 120.000000
_cell_volume 3743.771422
_symmetry_space_group_name_H-M "R 3 2"
_symmetry_group_IT_number 155
_symmetry_cell_setting 'hexagonal'
loop_
_space_group_symop_operation_xyz
x,y,z
-y,x-y,z
-x+y,-x,z
x-y,-y,-z
-x,-x+y,-z
y,x,-z
2/3+x,1/3+y,1/3+z
2/3-y,1/3+x-y,1/3+z
2/3-x+y,1/3-x,1/3+z
2/3+x-y,1/3-y,1/3-z
2/3-x,1/3-x+y,1/3-z
2/3+y,1/3+x,1/3-z
1/3+x,2/3+y,2/3+z
1/3-y,2/3+x-y,2/3+z
1/3-x+y,2/3-x,2/3+z
1/3+x-y,2/3-y,2/3-z
1/3-x,2/3-x+y,2/3-z
1/3+y,2/3+x,2/3-z
loop_
_atom_site_type_symbol
_atom_site_label
_atom_site_fract_x
_atom_site_fract_y
_atom_site_fract_z
Si Si1 0.732059 0.162090 0.759608
Si Si2 0.442808 0.401914 0.264222
Si Si3 0.845620 0.178953 0.166667
Si Si4 0.203380 0.923727 0.488115
O O1 0.666667 0.158236 0.833334
O O2 0.744249 0.110123 0.863431
O O3 0.721890 0.147339 0.554111
O O4 0.794569 0.233215 0.783936
O O5 0.385335 0.333334 0.333334
O O6 0.495899 0.442689 0.415949
O O7 0.898721 0.207825 0.319477
O O8 0.229671 0.896337 0.333334
O O9 0.244173 0.000000 0.500000
#
# Coordination Sequence:
#
# PCOD8322462 Si02
#       4
#    18  18   9  18
#     4  10  20  34  51  79 117 139 185 230 279 347
#     4  10  18  29  50  80 113 147 169 217 286 348
#     4  10  20  36  52  78 114 144 194 226 272 350
#     4  11  23  39  55  82 111 152 198 238 282 333
#
# _framework density 16.827950999999999
#
# number of rings (size 3 to 8) (size 9 to 14) (size 15 to 20)
#    0.000    1.714    5.714    3.429    8.000    0.000 
#    0.000    0.000    0.000    0.571    0.000    0.000 
#    0.000    0.000    0.000    0.000    0.000    0.000 
#
# Total GULP energy -260209.424327 kJ/mol
# GULP energy per Si atom -12390.924968 kJ/mol
# Density = 1.678965 g / cm^3
# Si number density = 16.827951 Si / 1000 Ang^3
#
#
#
# Elastic Constant Matrix: (Units=GPa)
#
#
# Indices 1 2 3 4 5 6 
#
# 1 94.3109 36.0339 39.6973 1.7507 -0.1097 -0.0222
# 2 36.0339 94.3800 39.7715 -1.7627 0.0019 0.0078
# 3 39.6973 39.7715 133.1227 -0.0278 -0.1727 -0.0685
# 4 1.7507 -1.7627 -0.0278 17.0484 -0.0233 -0.0175
# 5 -0.1097 0.0019 -0.1727 -0.0233 16.9011 1.7332
# 6 -0.0222 0.0078 -0.0685 -0.0175 1.7332 29.1677
#
#
#
# Elastic Compliance Matrix: (Units=1/GPa)
#
#
# Indices 1 2 3 4 5 6 
#
# 1 0.013318 -0.003940 -0.002795 -0.001780 0.000056 0.000000
# 2 -0.003940 0.013314 -0.002802 0.001777 -0.000052 -0.000009
# 3 -0.002795 -0.002802 0.009183 0.000012 0.000074 0.000016
# 4 -0.001780 0.001777 0.000012 0.059023 0.000067 0.000030
# 5 0.000056 -0.000052 0.000074 0.000067 0.059532 -0.003537
# 6 0.000000 -0.000009 0.000016 0.000030 -0.003537 0.034495
#
#
# Mechanical properties :
#
#
# Convention : Reuss Voigt Hill
#
# Bulk Modulus (GPa) = 59.73699 61.42435 60.58067
# Shear Modulus (GPa) = 23.41711 26.37748 24.89730
#
# Velocity S-wave (km/s) = 3.73441 3.96344 3.85063
# Velocity P-wave (km/s) = 7.36004 7.58457 7.47315
#
# Compressibility (1/GPa) = 0.01674005
#
# Stress axis : x y z
#
# Youngs Moduli (GPa) = 75.08544 75.10892 108.90250
#
# Poissons Ratio (x) = 0.29596 0.30433
# Poissons Ratio (y) = 0.29587 0.30518
# Poissons Ratio (z) = 0.20983 0.21048
#
# Static dielectric constant tensor:
#      x y z
#    x 2.985940 -0.000010 -0.000090 
#    y -0.000010 2.985980 -0.000040 
#    z -0.000090 -0.000040 3.653190 
# 
# 
# High freq. dielectric constant tensor:
#      x y z
#    x 1.612430 0.000000 -0.000010 
#    y 0.000000 1.612440 0.000000 
#    z -0.000010 0.000000 1.684990 
# 
# From -- ./inp_files/2337.got.cif
#   From: 2010.03.12/outbox.cif.g09.slc.cpg/sg155_2_cif.got.tgz:2337.got - 2010.04.03 13:54:13.
