data_PCOD8322679
_publ_section_title
;
Structure prediction by ZEFSAII (Michael W. Deem and Ramdas Pophale) SiO2 
 PCOD8322679
Probable space group: P 3 M 1
;
_chemical_formula_sum "Si O2"
_cell_formula_units_Z 48
_cell_length_a 12.705778
_cell_length_b 12.705778
_cell_length_c 20.748820
_cell_angle_alpha 90.000000
_cell_angle_beta 90.000000
_cell_angle_gamma 120.000000
_cell_volume 2900.858604
_symmetry_space_group_name_H-M "P 3 M 1"
_symmetry_group_IT_number 156
_symmetry_cell_setting 'hexagonal'
loop_
_space_group_symop_operation_xyz
x,y,z
-y,x-y,z
-x+y,-x,z
-x+y,y,z
x,x-y,z
-y,-x,z
loop_
_atom_site_type_symbol
_atom_site_label
_atom_site_fract_x
_atom_site_fract_y
_atom_site_fract_z
Si Si1 0.422994 0.089747 0.680060
Si Si2 0.754433 0.001444 0.793681
Si Si3 0.088191 0.669416 0.147500
Si Si4 0.999171 0.246947 0.031953
Si Si5 0.095176 0.426366 0.287466
Si Si6 0.088902 0.419230 0.426223
Si Si7 0.910023 0.577162 0.534543
Si Si8 0.418790 0.087352 0.912331
O O1 0.538833 0.077666 0.699398
O O2 0.461990 0.230995 0.687562
O O3 0.310062 0.005875 0.725729
O O4 0.379250 0.043668 0.607278
O O5 0.895714 0.104287 0.797614
O O6 0.678185 0.020377 0.849177
O O7 0.743522 0.871761 0.801879
O O8 0.076695 0.538348 0.139227
O O9 0.228333 0.771668 0.135576
O O10 0.001810 0.685054 0.097070
O O11 0.043922 0.687279 0.219182
O O12 0.122036 0.244071 0.020399
O O13 0.890357 0.109643 0.036561
O O14 0.981456 0.318512 0.973606
O O15 0.239631 0.479262 0.289543
O O16 0.068613 0.534307 0.285410
O O17 0.039887 0.354420 0.355244
O O18 0.221821 0.443642 0.440998
O O19 0.095446 0.547723 0.427052
O O20 0.004376 0.333247 0.483060
O O21 0.785394 0.570787 0.520206
O O22 0.887842 0.443921 0.522759
O O23 0.538403 0.076806 0.913775
O O24 0.457372 0.228686 0.912177
#
# Coordination Sequence:
#
# PCOD8322679 Si02
#       8
#     6   6   6   6   6   6   6   6
#     4   9  17  30  49  70  90 114 148 191 233 269
#     4  10  20  33  50  71  96 125 154 183 215 257
#     4   9  16  27  45  68  92 116 145 185 232 277
#     4  10  20  33  49  68  92 123 156 187 218 259
#     4   8  13  22  38  61  87 114 145 182 225 270
#     4   9  16  26  42  64  89 116 147 185 228 273
#     4   9  17  29  45  65  88 116 150 187 227 269
#     4  10  20  34  53  75  96 118 147 186 228 264
#
# _framework density 16.546825999999999
#
# number of rings (size 3 to 8) (size 9 to 14) (size 15 to 20)
#    0.000    2.750    0.000    2.125    0.000    3.500 
#    0.000    3.125    0.000    5.750    0.000    0.000 
#    0.000    0.000    0.000    0.000    0.000    0.000 
#
# Total GULP energy -594813.786327 kJ/mol
# GULP energy per Si atom -12391.953882 kJ/mol
# Density = 1.650916 g / cm^3
# Si number density = 16.546826 Si / 1000 Ang^3
#
#
#
# Elastic Constant Matrix: (Units=GPa)
#
#
# Indices 1 2 3 4 5 6 
#
# 1 79.9280 40.9897 58.0604 -2.3456 -0.0001 0.0000
# 2 40.9897 79.9280 58.0604 2.3456 0.0001 0.0000
# 3 58.0604 58.0604 147.6835 0.0000 0.0000 0.0000
# 4 -2.3456 2.3456 0.0000 24.1241 0.0000 0.0001
# 5 -0.0001 0.0001 0.0000 0.0000 24.1241 -2.3456
# 6 0.0000 0.0000 0.0000 0.0001 -2.3456 19.4691
#
#
#
# Elastic Compliance Matrix: (Units=1/GPa)
#
#
# Indices 1 2 3 4 5 6 
#
# 1 0.019636 -0.006350 -0.005223 0.002527 0.000000 0.000000
# 2 -0.006350 0.019636 -0.005223 -0.002527 0.000000 0.000000
# 3 -0.005223 -0.005223 0.010878 0.000000 0.000000 0.000000
# 4 0.002527 -0.002527 0.000000 0.041944 0.000000 0.000000
# 5 0.000000 0.000000 0.000000 0.000000 0.041944 0.005053
# 6 0.000000 0.000000 0.000000 0.000000 0.005053 0.051972
#
#
# Mechanical properties :
#
#
# Convention : Reuss Voigt Hill
#
# Bulk Modulus (GPa) = 60.39629 69.08447 64.74038
# Shear Modulus (GPa) = 22.21014 23.57207 22.89110
#
# Velocity S-wave (km/s) = 3.66766 3.77844 3.72346
# Velocity P-wave (km/s) = 7.38344 7.80237 7.59579
#
# Compressibility (1/GPa) = 0.01655731
#
# Stress axis : x y z
#
# Youngs Moduli (GPa) = 50.92646 50.92646 91.92639
#
# Poissons Ratio (x) = 0.32338 0.48016
# Poissons Ratio (y) = 0.32338 0.48016
# Poissons Ratio (z) = 0.26601 0.26601
#
# Static dielectric constant tensor:
#      x y z
#    x 2.911870 0.000000 0.000000 
#    y 0.000000 2.911870 0.000000 
#    z 0.000000 0.000000 3.671710 
# 
# 
# High freq. dielectric constant tensor:
#      x y z
#    x 1.615670 0.000000 0.000000 
#    y 0.000000 1.615670 0.000000 
#    z 0.000000 0.000000 1.663310 
# 
# From -- ./inp_files/1135.got.cif
#   From: 2010.03.12/outbox.cif.g09.slc.cpg/sg156_cif.got.tgz:1135.got - 2010.04.03 13:58:47.
