data_PCOD8322988
_publ_section_title
;
Structure prediction by ZEFSAII (Michael W. Deem and Ramdas Pophale) SiO2 
 PCOD8322988
Probable space group: P -3 1 M 
;
_chemical_formula_sum "Si O2"
_cell_formula_units_Z 96
_cell_length_a 18.266638
_cell_length_b 18.266638
_cell_length_c 20.442100
_cell_angle_alpha 90.000000
_cell_angle_beta 90.000000
_cell_angle_gamma 120.000000
_cell_volume 5907.087236
_symmetry_space_group_name_H-M "P -3 1 M "
_symmetry_group_IT_number 162
_symmetry_cell_setting 'hexagonal'
loop_
_space_group_symop_operation_xyz
x,y,z
-y,x-y,z
-x+y,-x,z
-y,-x,-z
-x+y,y,-z
x,x-y,-z
-x,-y,-z
y,-x+y,-z
x-y,x,-z
y,x,z
x-y,-y,z
-x,-x+y,z
loop_
_atom_site_type_symbol
_atom_site_label
_atom_site_fract_x
_atom_site_fract_y
_atom_site_fract_z
Si Si1 0.163534 0.496802 0.889378
Si Si2 0.531601 0.627494 0.391044
Si Si3 0.372506 0.904107 0.608956
Si Si4 0.734127 0.096351 1.000000
Si Si5 0.333268 0.836466 0.110622
Si Si6 0.899870 0.260063 0.500000
Si Si7 0.666391 0.166261 0.255903
Si Si8 0.333608 0.499870 0.744097
O O1 0.108247 0.419015 0.936752
O O2 0.153922 0.576961 0.909389
O O3 0.262519 0.525038 0.893807
O O4 0.128267 0.463836 0.816020
O O5 0.570824 0.570824 0.411848
O O6 0.429596 0.570404 0.403617
O O7 0.578035 0.709271 0.436774
O O8 0.549218 0.649070 0.313782
O O9 0.290729 0.868764 0.563226
O O10 0.350931 0.900148 0.686218
O O11 0.429176 0.000000 0.588152
O O12 0.717155 0.000000 1.000000
O O13 0.835152 0.164849 0.000000
O O14 0.689232 0.108247 0.936752
O O15 0.335569 0.871733 0.183981
O O16 0.842733 0.157268 0.500000
O O17 0.000000 0.289544 0.500000
O O18 0.598998 0.197996 0.255617
O O19 0.756025 0.243974 0.272997
#
# Coordination Sequence:
#
# PCOD8322988 Si02
#       8
#    12  12  12  12  12  12  12  12
#     4   9  17  28  43  64  92 126 158 184 208 238
#     4   9  17  28  42  61  85 113 143 175 213 255
#     4   9  17  28  42  61  85 113 143 175 213 255
#     4  10  21  35  49  66  87 111 140 178 225 269
#     4   9  17  28  43  64  92 126 158 184 208 238
#     4  10  19  31  47  64  83 109 142 180 221 267
#     4   9  16  26  40  59  85 117 151 181 206 233
#     4   9  16  26  40  59  85 117 151 181 206 233
#
# _framework density 16.251664999999999
#
# number of rings (size 3 to 8) (size 9 to 14) (size 15 to 20)
#    0.000    2.750    0.000    2.000    0.000    5.500 
#    0.000    3.750    0.000    3.750    0.000    0.000 
#    0.000    0.000    0.000    0.000    0.000   32.500 
#
# Total GULP energy -1189315.642062 kJ/mol
# GULP energy per Si atom -12388.704605 kJ/mol
# Density = 1.621468 g / cm^3
# Si number density = 16.251665 Si / 1000 Ang^3
#
#
#
# Elastic Constant Matrix: (Units=GPa)
#
#
# Indices 1 2 3 4 5 6 
#
# 1 68.7514 36.8403 32.5000 0.0000 0.0000 0.0000
# 2 36.8403 68.7514 32.5000 0.0000 0.0000 0.0000
# 3 32.5000 32.5000 107.5734 0.0000 0.0000 0.0000
# 4 0.0000 0.0000 0.0000 19.4098 0.0000 0.0000
# 5 0.0000 0.0000 0.0000 0.0000 19.4098 0.0000
# 6 0.0000 0.0000 0.0000 0.0000 0.0000 15.9555
#
#
#
# Elastic Compliance Matrix: (Units=1/GPa)
#
#
# Indices 1 2 3 4 5 6 
#
# 1 0.021486 -0.009851 -0.003515 0.000000 0.000000 0.000000
# 2 -0.009851 0.021486 -0.003515 0.000000 0.000000 0.000000
# 3 -0.003515 -0.003515 0.011420 0.000000 0.000000 0.000000
# 4 0.000000 0.000000 0.000000 0.051520 0.000000 0.000000
# 5 0.000000 0.000000 0.000000 0.000000 0.051520 0.000000
# 6 0.000000 0.000000 0.000000 0.000000 0.000000 0.062674
#
#
# Mechanical properties :
#
#
# Convention : Reuss Voigt Hill
#
# Bulk Modulus (GPa) = 48.47662 49.86187 49.16925
# Shear Modulus (GPa) = 19.17583 20.50407 19.83995
#
# Velocity S-wave (km/s) = 3.43874 3.55584 3.49778
# Velocity P-wave (km/s) = 6.75722 6.89973 6.82885
#
# Compressibility (1/GPa) = 0.02062850
#
# Stress axis : x y z
#
# Youngs Moduli (GPa) = 46.54276 46.54276 87.56705
#
# Poissons Ratio (x) = 0.45851 0.30779
# Poissons Ratio (y) = 0.45851 0.30779
# Poissons Ratio (z) = 0.16359 0.16359
#
# Static dielectric constant tensor:
#      x y z
#    x 2.820830 0.000000 0.000000 
#    y 0.000000 2.820830 0.000000 
#    z 0.000000 0.000000 3.392310 
# 
# 
# High freq. dielectric constant tensor:
#      x y z
#    x 1.591740 0.000000 0.000000 
#    y 0.000000 1.591740 0.000000 
#    z 0.000000 0.000000 1.648350 
# 
# From -- ./inp_files/3893.got.cif
#   From: 2010.03.12/outbox.cif.g09.slc.cpg/sg162_2_cif.got.tgz:3893.got - 2010.04.02 06:27:41.
