data_PCOD8322973
_publ_section_title
;
Structure prediction by ZEFSAII (Michael W. Deem and Ramdas Pophale) SiO2 
 PCOD8322973
Probable space group: P -3 1 M 
;
_chemical_formula_sum "Si O2"
_cell_formula_units_Z 76
_cell_length_a 17.991070
_cell_length_b 17.991070
_cell_length_c 15.200547
_cell_angle_alpha 90.000000
_cell_angle_beta 90.000000
_cell_angle_gamma 120.000000
_cell_volume 4260.924460
_symmetry_space_group_name_H-M "P -3 1 M "
_symmetry_group_IT_number 162
_symmetry_cell_setting 'hexagonal'
loop_
_space_group_symop_operation_xyz
x,y,z
-y,x-y,z
-x+y,-x,z
-y,-x,-z
-x+y,y,-z
x,x-y,-z
-x,-y,-z
y,-x+y,-z
x-y,x,-z
y,x,z
x-y,-y,z
-x,-x+y,z
loop_
_atom_site_type_symbol
_atom_site_label
_atom_site_fract_x
_atom_site_fract_y
_atom_site_fract_z
Si Si1 0.467546 0.371945 0.000321
Si Si2 0.666668 0.333334 0.104672
Si Si3 0.495590 0.325805 0.341727
Si Si4 0.308154 0.906933 0.191580
Si Si5 0.724078 0.523631 0.842982
Si Si6 0.500178 0.655929 0.362137
Si Si7 0.902890 0.637518 0.486928
O O1 0.425717 0.425717 0.039038
O O2 0.442960 0.348177 0.900841
O O3 0.570813 0.429188 0.000000
O O4 0.441583 0.293598 0.066676
O O5 0.568479 0.281929 0.140838
O O6 0.666668 0.333334 0.000000
O O7 0.485382 0.338931 0.237401
O O8 0.568436 0.413616 0.384786
O O9 0.523588 0.253923 0.350530
O O10 0.406344 0.295654 0.391616
O O11 0.217306 0.818596 0.188872
O O12 0.360423 0.899946 0.273701
O O13 0.311884 0.000000 0.199282
O O14 0.566934 0.678703 0.440661
O O15 0.836325 0.672649 0.500000
O O16 0.000000 0.717189 0.493517
#
# Coordination Sequence:
#
# PCOD8322973 Si02
#       7
#    12   4  12  12  12  12  12
#     4  10  19  30  44  65  92 121 156 199 249 299
#     4  12  21  30  48  69  91 131 181 216 249 294
#     4  10  20  31  48  72  98 132 167 201 240 291
#     4  10  20  31  45  64  87 122 165 205 246 290
#     4  11  20  32  47  66  95 127 162 207 249 287
#     4  10  19  33  50  70 100 130 165 204 241 282
#     4  10  22  38  55  75  98 127 161 200 246 297
#
# _framework density 17.836506
#
# number of rings (size 3 to 8) (size 9 to 14) (size 15 to 20)
#    0.000    1.737    0.000    6.947    0.000    2.526 
#    0.000    1.579    0.000    0.158    0.000    0.000 
#    0.000    0.000    0.000    0.474    0.000    7.105 
#
# Total GULP energy -941618.593496 kJ/mol
# GULP energy per Si atom -12389.718335 kJ/mol
# Density = 1.779591 g / cm^3
# Si number density = 17.836506 Si / 1000 Ang^3
#
#
#
# Elastic Constant Matrix: (Units=GPa)
#
#
# Indices 1 2 3 4 5 6 
#
# 1 70.3003 46.5305 29.4730 0.0000 -5.1217 0.0001
# 2 46.5305 70.3004 29.4728 0.0001 5.1217 -0.0001
# 3 29.4730 29.4728 107.0506 0.0002 0.0000 -0.0003
# 4 0.0000 0.0001 0.0002 6.5190 0.0000 5.1217
# 5 -5.1217 5.1217 0.0000 0.0000 6.5189 0.0001
# 6 0.0001 -0.0001 -0.0003 5.1217 0.0001 11.8849
#
#
#
# Elastic Compliance Matrix: (Units=1/GPa)
#
#
# Indices 1 2 3 4 5 6 
#
# 1 0.036773 -0.026833 -0.002737 0.000002 0.049973 -0.000002
# 2 -0.026833 0.036773 -0.002737 -0.000002 -0.049973 0.000001
# 3 -0.002737 -0.002737 0.010848 -0.000001 0.000000 0.000001
# 4 0.000002 -0.000002 -0.000001 0.231922 0.000005 -0.099946
# 5 0.049973 -0.049973 0.000000 0.000005 0.231925 -0.000005
# 6 -0.000002 0.000001 0.000001 -0.099946 -0.000005 0.127212
#
#
# Mechanical properties :
#
#
# Convention : Reuss Voigt Hill
#
# Bulk Modulus (GPa) = 50.55148 50.95600 50.75374
# Shear Modulus (GPa) = 6.69649 14.46288 10.57969
#
# Velocity S-wave (km/s) = 1.93972 2.85065 2.43811
# Velocity P-wave (km/s) = 5.78099 6.28214 6.03677
#
# Compressibility (1/GPa) = 0.01978181
#
# Stress axis : x y z
#
# Youngs Moduli (GPa) = 27.19397 27.19401 92.18035
#
# Poissons Ratio (x) = 0.72969 0.25228
# Poissons Ratio (y) = 0.72969 0.25226
# Poissons Ratio (z) = 0.07442 0.07442
#
# Static dielectric constant tensor:
#      x y z
#    x 3.373460 0.000000 0.000000 
#    y 0.000000 3.373460 0.000000 
#    z 0.000000 0.000000 3.640670 
# 
# 
# High freq. dielectric constant tensor:
#      x y z
#    x 1.655220 0.000000 0.000000 
#    y 0.000000 1.655220 0.000000 
#    z 0.000000 0.000000 1.720340 
# 
# From -- ./inp_files/3113.got.cif
#   From: 2010.03.12/outbox.cif.g09.slc.cpg/sg162_2_cif.got.tgz:3113.got - 2010.04.02 06:27:41.
