data_PCOD8322193
_publ_section_title
;
Structure prediction by ZEFSAII (Michael W. Deem and Ramdas Pophale) SiO2 
 PCOD8322193
Probable space group: P 31 2 1
;
_chemical_formula_sum "Si O2"
_cell_formula_units_Z 30
_cell_length_a 13.729423
_cell_length_b 13.729423
_cell_length_c 9.512490
_cell_angle_alpha 90.000000
_cell_angle_beta 90.000000
_cell_angle_gamma 120.000000
_cell_volume 1552.849678
_symmetry_space_group_name_H-M "P 31 2 1"
_symmetry_group_IT_number 152
_symmetry_cell_setting 'hexagonal'
loop_
_space_group_symop_operation_xyz
x,y,z
-y,x-y,1/3+z
-x+y,-x,2/3+z
x-y,-y,2/3-z
-x,-x+y,1/3-z
y,x,-z
loop_
_atom_site_type_symbol
_atom_site_label
_atom_site_fract_x
_atom_site_fract_y
_atom_site_fract_z
Si Si1 0.455662 0.844689 0.544797
Si Si2 0.227502 0.703613 0.405518
Si Si3 0.203973 0.477199 0.432189
Si Si4 0.648775 0.624956 0.656428
Si Si5 0.755950 0.122252 0.350544
O O1 0.338988 0.735605 0.498181
O O2 0.509888 0.820468 0.680697
O O3 0.425054 0.939915 0.582425
O O4 0.541144 0.880565 0.416676
O O5 0.175181 0.571946 0.377696
O O6 0.255519 0.775518 0.264099
O O7 0.140069 0.726978 0.490672
O O8 0.089237 0.361886 0.392918
O O9 0.599503 0.599503 0.500000
O O10 0.780085 0.661329 0.646586
O O11 0.746118 0.000000 0.333334
#
# Coordination Sequence:
#
# PCOD8322193 Si02
#       5
#     6   6   6   6   6
#     4  11  21  35  57  86 124 156 192 232 309 375
#     4  11  21  34  58  92 127 162 188 241 307 386
#     4  12  20  36  59  89 126 158 195 246 304 369
#     4  11  23  38  60  90 119 157 208 251 297 368
#     4  11  23  40  56  84 118 167 206 246 303 361
#
# _framework density 19.319320000000001
#
# number of rings (size 3 to 8) (size 9 to 14) (size 15 to 20)
#    0.000    0.800    6.000    3.600    0.000    2.400 
#    0.000    0.000    0.000    0.000    5.200    0.000 
#    0.000    0.000    0.000    0.000    0.000    0.000 
#
# Total GULP energy -372008.229410 kJ/mol
# GULP energy per Si atom -12400.274314 kJ/mol
# Density = 1.927535 g / cm^3
# Si number density = 19.319320 Si / 1000 Ang^3
#
#
#
# Elastic Constant Matrix: (Units=GPa)
#
#
# Indices 1 2 3 4 5 6 
#
# 1 78.7208 41.2424 33.2130 -2.6430 0.0000 0.0000
# 2 41.2424 78.7208 33.2130 2.6430 0.0000 0.0000
# 3 33.2130 33.2130 121.3026 0.0000 0.0000 0.0000
# 4 -2.6430 2.6430 0.0000 24.6413 0.0000 0.0000
# 5 0.0000 0.0000 0.0000 0.0000 24.6413 -2.6430
# 6 0.0000 0.0000 0.0000 0.0000 -2.6430 18.7392
#
#
#
# Elastic Compliance Matrix: (Units=1/GPa)
#
#
# Indices 1 2 3 4 5 6 
#
# 1 0.018459 -0.008633 -0.002690 0.002906 0.000000 0.000000
# 2 -0.008633 0.018459 -0.002690 -0.002906 0.000000 0.000000
# 3 -0.002690 -0.002690 0.009717 0.000000 0.000000 0.000000
# 4 0.002906 -0.002906 0.000000 0.041206 0.000000 0.000000
# 5 0.000000 0.000000 0.000000 0.000000 0.041206 0.005812
# 6 0.000000 0.000000 0.000000 0.000000 0.005812 0.054184
#
#
# Mechanical properties :
#
#
# Convention : Reuss Voigt Hill
#
# Bulk Modulus (GPa) = 53.74297 54.89789 54.32043
# Shear Modulus (GPa) = 22.99282 25.00942 24.00112
#
# Velocity S-wave (km/s) = 3.45359 3.60186 3.52850
# Velocity P-wave (km/s) = 6.61677 6.76577 6.69169
#
# Compressibility (1/GPa) = 0.01860708
#
# Stress axis : x y z
#
# Youngs Moduli (GPa) = 54.17496 54.17496 102.91199
#
# Poissons Ratio (x) = 0.46770 0.27686
# Poissons Ratio (y) = 0.46770 0.27686
# Poissons Ratio (z) = 0.14574 0.14574
#
# Static dielectric constant tensor:
#      x y z
#    x 3.441070 0.000000 0.000000 
#    y 0.000000 3.441070 0.000000 
#    z 0.000000 0.000000 3.646400 
# 
# 
# High freq. dielectric constant tensor:
#      x y z
#    x 1.727160 0.000000 0.000000 
#    y 0.000000 1.727160 0.000000 
#    z 0.000000 0.000000 1.769620 
# 
# From -- ./inp_files/1039.got.cif
#   From: 2010.03.12/outbox.cif.g09.slc.cpg/sg152_1_cif.got.tgz:1039.got - 2010.04.03 13:45:27.
