data_PCOD8322105
_publ_section_title
;
Structure prediction by ZEFSAII (Michael W. Deem and Ramdas Pophale) SiO2 
 PCOD8322105
Probable space group: P 31 2 1
;
_chemical_formula_sum "Si O2"
_cell_formula_units_Z 42
_cell_length_a 8.700498
_cell_length_b 8.700498
_cell_length_c 29.558368
_cell_angle_alpha 90.000000
_cell_angle_beta 90.000000
_cell_angle_gamma 120.000000
_cell_volume 1937.756965
_symmetry_space_group_name_H-M "P 31 2 1"
_symmetry_group_IT_number 152
_symmetry_cell_setting 'hexagonal'
loop_
_space_group_symop_operation_xyz
x,y,z
-y,x-y,1/3+z
-x+y,-x,2/3+z
x-y,-y,2/3-z
-x,-x+y,1/3-z
y,x,-z
loop_
_atom_site_type_symbol
_atom_site_label
_atom_site_fract_x
_atom_site_fract_y
_atom_site_fract_z
Si Si1 0.833272 0.531334 0.390445
Si Si2 0.451366 0.939134 0.699788
Si Si3 0.077398 0.068787 0.712244
Si Si4 0.115909 0.398670 0.501412
Si Si5 0.748722 0.222579 0.457209
Si Si6 0.001211 0.752357 0.237924
Si Si7 0.927929 0.642699 0.620320
O O1 0.656694 0.526830 0.374461
O O2 0.903222 0.444064 0.353736
O O3 0.795176 0.411746 0.435196
O O4 0.981044 0.740934 0.397215
O O5 0.277859 0.768822 0.723071
O O6 0.632875 0.955940 0.717775
O O7 0.000000 0.113298 0.666667
O O8 0.926042 0.988923 0.750644
O O9 0.113230 0.911134 0.700390
O O10 0.157516 0.599517 0.503891
O O11 0.165394 0.366062 0.552003
O O12 0.241110 0.377222 0.465766
O O13 0.918178 0.255332 0.485935
O O14 0.683341 0.062329 0.420927
O O15 0.000000 0.598672 0.666667
#
# Coordination Sequence:
#
# PCOD8322105 Si02
#       7
#     6   6   6   6   6   6   6
#     4  11  24  41  69 100 138 167 222 287 351 409
#     4  11  23  42  68 102 133 172 216 286 353 410
#     4  10  20  39  68 100 128 171 217 268 340 419
#     4  11  28  44  66  86 139 183 226 276 326 418
#     4  12  25  48  62 102 132 178 236 280 346 409
#     4  11  23  48  63  94 132 186 223 272 339 413
#     4  10  21  40  68  97 132 170 213 277 352 410
#
# _framework density 21.674544000000001
#
# number of rings (size 3 to 8) (size 9 to 14) (size 15 to 20)
#    0.000    1.143    5.714    0.000    6.000    0.000 
#    2.571    2.143    0.000    0.000    0.000    0.000 
#    0.000    0.000    0.000    0.000    0.000    0.000 
#
# Total GULP energy -520376.732967 kJ/mol
# GULP energy per Si atom -12389.922213 kJ/mol
# Density = 2.162521 g / cm^3
# Si number density = 21.674544 Si / 1000 Ang^3
#
#
#
# Elastic Constant Matrix: (Units=GPa)
#
#
# Indices 1 2 3 4 5 6 
#
# 1 96.3227 27.3691 24.7512 -1.1628 0.0000 0.0000
# 2 27.3691 96.3227 24.7512 1.1628 0.0000 0.0000
# 3 24.7512 24.7512 69.4793 0.0000 0.0000 0.0000
# 4 -1.1628 1.1628 0.0000 33.0156 0.0000 0.0000
# 5 0.0000 0.0000 0.0000 0.0000 33.0156 -1.1628
# 6 0.0000 0.0000 0.0000 0.0000 -1.1628 34.4768
#
#
#
# Elastic Compliance Matrix: (Units=1/GPa)
#
#
# Indices 1 2 3 4 5 6 
#
# 1 0.011974 -0.002545 -0.003359 0.000511 0.000000 0.000000
# 2 -0.002545 0.011974 -0.003359 -0.000511 0.000000 0.000000
# 3 -0.003359 -0.003359 0.016786 0.000000 0.000000 0.000000
# 4 0.000511 -0.000511 0.000000 0.030325 0.000000 0.000000
# 5 0.000000 0.000000 0.000000 0.000000 0.030325 0.001023
# 6 0.000000 0.000000 0.000000 0.000000 0.001023 0.029039
#
#
# Mechanical properties :
#
#
# Convention : Reuss Voigt Hill
#
# Bulk Modulus (GPa) = 45.02888 46.20754 45.61821
# Shear Modulus (GPa) = 31.97898 32.45183 32.21541
#
# Velocity S-wave (km/s) = 3.84528 3.87361 3.85947
# Velocity P-wave (km/s) = 6.36671 6.43207 6.39948
#
# Compressibility (1/GPa) = 0.02220797
#
# Stress axis : x y z
#
# Youngs Moduli (GPa) = 83.51210 83.51210 59.57372
#
# Poissons Ratio (x) = 0.21257 0.20010
# Poissons Ratio (y) = 0.21257 0.20010
# Poissons Ratio (z) = 0.28051 0.28051
#
# Static dielectric constant tensor:
#      x y z
#    x 4.014710 0.000000 0.000000 
#    y 0.000000 4.014710 0.000000 
#    z 0.000000 0.000000 3.744660 
# 
# 
# High freq. dielectric constant tensor:
#      x y z
#    x 1.852800 0.000000 0.000000 
#    y 0.000000 1.852800 0.000000 
#    z 0.000000 0.000000 1.836760 
# 
# From -- ./inp_files/3717.got.cif
#   From: 2010.03.12/outbox.cif.g09.slc.cpg/sg152_2_cif.got.tgz:3717.got - 2010.04.03 13:45:27.
