data_PCOD8322885
_publ_section_title
;
Structure prediction by ZEFSAII (Michael W. Deem and Ramdas Pophale) SiO2 
 PCOD8322885
Probable space group: R 3 M
;
_chemical_formula_sum "Si O2"
_cell_formula_units_Z 48
_cell_length_a 21.000000
_cell_length_b 21.000000
_cell_length_c 21.000000
_cell_angle_alpha 90.000000
_cell_angle_beta 90.000000
_cell_angle_gamma 120.000000
_cell_volume 8020.261264
_symmetry_space_group_name_H-M "R 3 M"
_symmetry_group_IT_number 160
_symmetry_cell_setting 'hexagonal'
loop_
_space_group_symop_operation_xyz
x,y,z
-y,x-y,z
-x+y,-x,z
-x+y,y,z
x,x-y,z
-y,-x,z
2/3+x,1/3+y,1/3+z
2/3-y,1/3+x-y,1/3+z
2/3-x+y,1/3-x,1/3+z
2/3-x+y,1/3+y,1/3+z
2/3+x,1/3+x-y,1/3+z
2/3-y,1/3-x,1/3+z
1/3+x,2/3+y,2/3+z
1/3-y,2/3+x-y,2/3+z
1/3-x+y,2/3-x,2/3+z
1/3-x+y,2/3+y,2/3+z
1/3+x,2/3+x-y,2/3+z
1/3-y,2/3-x,2/3+z
loop_
_atom_site_type_symbol
_atom_site_label
_atom_site_fract_x
_atom_site_fract_y
_atom_site_fract_z
Si Si1 0.011761 0.257208 0.787080
Si Si2 0.796592 0.050365 0.065219
Si Si3 0.802319 0.048076 0.549802
Si Si4 0.870052 0.591028 0.272205
Si Si5 0.749386 0.799759 0.190053
Si Si6 0.485693 0.667178 0.343278
Si Si7 0.239786 0.193586 0.309019
Si Si8 0.072465 0.460288 0.100918
O O1 0.077486 0.327154 0.750248
O O2 0.026240 0.249175 0.863717
O O3 0.002248 0.187726 0.745823
O O4 0.936925 0.259702 0.780693
O O5 0.881564 0.118437 0.065680
O O6 0.779180 0.992312 0.122813
O O7 0.782414 0.010036 0.994419
O O8 0.881094 0.118907 0.536805
O O9 0.738522 0.070438 0.541835
O O10 0.802497 0.014020 0.619628
O O11 0.788359 0.988119 0.495606
O O12 0.781981 0.563961 0.275962
O O13 0.915861 0.675434 0.290657
O O14 0.754035 0.877018 0.182303
O O15 0.801980 0.804870 0.248201
O O16 0.469222 0.734611 0.343747
O O17 0.409267 0.590734 0.331258
O O18 0.217012 0.108506 0.321448
O O19 0.223605 0.227262 0.371754
O O20 0.074160 0.537080 0.090463
#
# Coordination Sequence:
#
# PCOD8322885 Si02
#       8
#    18  18  18  18  18  18  18  18
#     4  12  24  41  60  94 125 157 207 265 317 366
#     4  12  24  40  64  93 127 165 208 257 308 370
#     4  10  21  39  63  91 125 160 203 258 312 371
#     4  11  23  42  65  91 126 163 203 256 313 371
#     4  11  21  39  64  94 127 161 206 258 312 372
#     4  11  24  42  62  85 119 165 212 258 313 379
#     4  11  21  38  62  90 126 165 207 252 307 375
#     4  12  23  37  60  92 128 164 204 256 312 372
#
# _framework density 5.9848420000000004
#
# number of rings (size 3 to 8) (size 9 to 14) (size 15 to 20)
#    0.000    0.750    3.750    4.250    1.750    4.000 
#    0.000    0.000    0.000   10.250    0.000    0.000 
#    0.000    0.000    0.000    0.000    0.000    0.000 
#
# Total GULP energy -594710.015211 kJ/mol
# GULP energy per Si atom -12389.791984 kJ/mol
# Density = 0.597122 g / cm^3
# Si number density = 5.984842 Si / 1000 Ang^3
#
#
#
# Elastic Constant Matrix: (Units=GPa)
#
#
# Indices 1 2 3 4 5 6 
#
# 1 121.7930 50.9958 60.3460 -1.1173 0.0000 0.0000
# 2 50.9958 121.7930 60.3460 1.1173 0.0000 0.0000
# 3 60.3460 60.3460 194.9057 0.0000 0.0000 0.0000
# 4 -1.1173 1.1173 0.0000 44.7826 0.0000 0.0000
# 5 0.0000 0.0000 0.0000 0.0000 44.7826 -1.1173
# 6 0.0000 0.0000 0.0000 0.0000 -1.1173 35.3986
#
#
#
# Elastic Compliance Matrix: (Units=1/GPa)
#
#
# Indices 1 2 3 4 5 6 
#
# 1 0.010760 -0.003376 -0.002286 0.000353 0.000000 0.000000
# 2 -0.003376 0.010760 -0.002286 -0.000353 0.000000 0.000000
# 3 -0.002286 -0.002286 0.006546 0.000000 0.000000 0.000000
# 4 0.000353 -0.000353 0.000000 0.022348 0.000000 0.000000
# 5 0.000000 0.000000 0.000000 0.000000 0.022348 0.000705
# 6 0.000000 0.000000 0.000000 0.000000 0.000705 0.028272
#
#
# Mechanical properties :
#
#
# Convention : Reuss Voigt Hill
#
# Bulk Modulus (GPa) = 82.16970 86.87415 84.52193
# Shear Modulus (GPa) = 41.32647 42.77967 42.05307
#
# Velocity S-wave (km/s) = 4.80284 4.88655 4.84488
# Velocity P-wave (km/s) = 8.75335 8.96262 8.85860
#
# Compressibility (1/GPa) = 0.01216994
#
# Stress axis : x y z
#
# Youngs Moduli (GPa) = 92.93509 92.93509 152.75424
#
# Poissons Ratio (x) = 0.31373 0.34925
# Poissons Ratio (y) = 0.31373 0.34925
# Poissons Ratio (z) = 0.21248 0.21248
#
# Static dielectric constant tensor:
#      x y z
#    x 3.677810 0.000000 0.000000 
#    y 0.000000 3.677810 0.000000 
#    z 0.000000 0.000000 4.150930 
# 
# 
# High freq. dielectric constant tensor:
#      x y z
#    x 1.714610 0.000000 0.000000 
#    y 0.000000 1.714610 0.000000 
#    z 0.000000 0.000000 1.747020 
# 
# From -- ./inp_files/3436.got.cif
#   From: 2010.03.12/outbox.ucp.g09.slc.cvg/sg160_2_cif.got.tgz:3436.got - 2010.05.04 20:37:23.
