data_PCOD8322085
_publ_section_title
;
Structure prediction by ZEFSAII (Michael W. Deem and Ramdas Pophale) SiO2 
 PCOD8322085
Probable space group: P 31 2 1
;
_chemical_formula_sum "Si O2"
_cell_formula_units_Z 42
_cell_length_a 8.350066
_cell_length_b 8.350066
_cell_length_c 34.182747
_cell_angle_alpha 90.000000
_cell_angle_beta 90.000000
_cell_angle_gamma 120.000000
_cell_volume 2064.036670
_symmetry_space_group_name_H-M "P 31 2 1"
_symmetry_group_IT_number 152
_symmetry_cell_setting 'hexagonal'
loop_
_space_group_symop_operation_xyz
x,y,z
-y,x-y,1/3+z
-x+y,-x,2/3+z
x-y,-y,2/3-z
-x,-x+y,1/3-z
y,x,-z
loop_
_atom_site_type_symbol
_atom_site_label
_atom_site_fract_x
_atom_site_fract_y
_atom_site_fract_z
Si Si1 0.282040 0.820818 0.264710
Si Si2 0.929775 0.504658 0.887181
Si Si3 0.559325 0.652616 0.355538
Si Si4 0.031664 0.386285 0.811405
Si Si5 0.471816 0.471816 0.000000
Si Si6 0.111055 0.689293 0.087288
Si Si7 0.738002 0.000000 0.833334
Si Si8 0.290901 0.459178 0.289496
O O1 0.394647 0.974907 0.297192
O O2 0.299241 0.644995 0.275470
O O3 0.063085 0.764092 0.265226
O O4 0.381733 0.896585 0.222978
O O5 0.757397 0.522406 0.872964
O O6 0.872609 0.314023 0.911392
O O7 0.041827 0.512984 0.848067
O O8 0.044431 0.671247 0.917440
O O9 0.567417 0.835846 0.341315
O O10 0.467819 0.600771 0.398550
O O11 0.437622 0.492621 0.323792
O O12 0.763388 0.676200 0.358994
O O13 0.943759 0.172509 0.825169
O O14 0.048681 0.637060 0.132264
#
# Coordination Sequence:
#
# PCOD8322085 Si02
#       8
#     6   6   6   6   3   6   3   6
#     4   9  19  37  59  83 110 144 183 228 282 340
#     4  11  21  36  58  83 113 148 188 232 278 335
#     4  10  20  37  58  83 112 148 189 235 284 338
#     4  10  20  36  57  82 111 146 185 229 282 332
#     4  10  20  36  60  88 120 146 184 242 288 332
#     4   9  18  34  59  83 110 146 184 222 278 344
#     4   8  18  36  54  80 114 146 182 230 280 336
#     4  10  21  37  56  79 111 149 190 229 280 334
#
# _framework density 20.348474
#
# number of rings (size 3 to 8) (size 9 to 14) (size 15 to 20)
#    0.000    2.286    0.000    2.571    0.000    3.429 
#    0.000   17.143    0.000    1.714    0.000    0.000 
#    0.000    0.000    0.000    0.000    0.000    0.000 
#
# Total GULP energy -520298.927248 kJ/mol
# GULP energy per Si atom -12388.069696 kJ/mol
# Density = 2.030216 g / cm^3
# Si number density = 20.348474 Si / 1000 Ang^3
#
#
#
# Elastic Constant Matrix: (Units=GPa)
#
#
# Indices 1 2 3 4 5 6 
#
# 1 70.0424 31.3952 48.2262 1.4458 0.0000 0.0000
# 2 31.3952 70.0424 48.2262 -1.4458 0.0000 0.0000
# 3 48.2262 48.2262 118.9888 0.0000 0.0000 0.0000
# 4 1.4458 -1.4458 0.0000 37.0029 0.0000 0.0000
# 5 0.0000 0.0000 0.0000 0.0000 37.0029 1.4458
# 6 0.0000 0.0000 0.0000 0.0000 1.4458 19.3236
#
#
#
# Elastic Compliance Matrix: (Units=1/GPa)
#
#
# Indices 1 2 3 4 5 6 
#
# 1 0.020995 -0.004956 -0.006501 -0.001014 0.000000 0.000000
# 2 -0.004956 0.020995 -0.006501 0.001014 0.000000 0.000000
# 3 -0.006501 -0.006501 0.013674 0.000000 0.000000 0.000000
# 4 -0.001014 0.001014 0.000000 0.027104 0.000000 0.000000
# 5 0.000000 0.000000 0.000000 0.000000 0.027104 -0.002028
# 6 0.000000 0.000000 0.000000 0.000000 -0.002028 0.051902
#
#
# Mechanical properties :
#
#
# Convention : Reuss Voigt Hill
#
# Bulk Modulus (GPa) = 50.63397 57.19653 53.91525
# Shear Modulus (GPa) = 24.47707 27.41426 25.94567
#
# Velocity S-wave (km/s) = 3.47204 3.67446 3.57468
# Velocity P-wave (km/s) = 6.40397 6.79498 6.60237
#
# Compressibility (1/GPa) = 0.01974959
#
# Stress axis : x y z
#
# Youngs Moduli (GPa) = 47.62963 47.62963 73.13270
#
# Poissons Ratio (x) = 0.23604 0.47543
# Poissons Ratio (y) = 0.23604 0.47543
# Poissons Ratio (z) = 0.30963 0.30963
#
# Static dielectric constant tensor:
#      x y z
#    x 3.646410 0.000000 0.000000 
#    y 0.000000 3.646410 0.000000 
#    z 0.000000 0.000000 4.148620 
# 
# 
# High freq. dielectric constant tensor:
#      x y z
#    x 1.773280 0.000000 0.000000 
#    y 0.000000 1.773280 0.000000 
#    z 0.000000 0.000000 1.821640 
# 
# From -- ./inp_files/3751.got.cif
#   From: 2010.03.12/outbox.cif.g09.slc.cpg/sg152_2_cif.got.tgz:3751.got - 2010.04.03 13:45:27.
