data_PCOD8322362
_publ_section_title
;
Structure prediction by ZEFSAII (Michael W. Deem and Ramdas Pophale) SiO2 
 PCOD8322362
Probable space group: P 32 2 1
;
_chemical_formula_sum "Si O2"
_cell_formula_units_Z 36
_cell_length_a 8.944002
_cell_length_b 8.944002
_cell_length_c 27.097150
_cell_angle_alpha 90.000000
_cell_angle_beta 90.000000
_cell_angle_gamma 120.000000
_cell_volume 1877.232319
_symmetry_space_group_name_H-M "P 32 2 1"
_symmetry_group_IT_number 154
_symmetry_cell_setting 'hexagonal'
loop_
_space_group_symop_operation_xyz
x,y,z
-y,x-y,2/3+z
-x+y,-x,1/3+z
x-y,-y,1/3-z
-x,-x+y,2/3-z
y,x,-z
loop_
_atom_site_type_symbol
_atom_site_label
_atom_site_fract_x
_atom_site_fract_y
_atom_site_fract_z
Si Si1 0.323518 0.107913 0.766403
Si Si2 0.783937 0.642024 0.214421
Si Si3 0.544594 0.352224 0.377155
Si Si4 0.553942 0.932077 0.611312
Si Si5 0.543226 0.003446 0.942489
Si Si6 0.786596 0.022285 0.111087
O O1 0.387055 0.159496 0.822571
O O2 0.445831 0.062844 0.734822
O O3 0.317313 0.271823 0.744321
O O4 0.139655 0.940018 0.759866
O O5 0.606658 0.486825 0.236092
O O6 0.951501 0.647562 0.237689
O O7 0.798744 0.821143 0.228613
O O8 0.733064 0.510020 0.392297
O O9 0.498596 0.375792 0.322488
O O10 0.539639 0.171423 0.378818
O O11 0.400316 0.350230 0.413138
O O12 0.615914 0.000000 0.666667
O O13 0.719037 0.000000 0.166667
#
# Coordination Sequence:
#
# PCOD8322362 Si02
#       6
#     6   6   6   6   6   6
#     4  10  22  37  62  87 115 152 203 244 295 358
#     4  10  20  41  60  83 119 156 193 244 300 350
#     4  10  22  37  56  83 118 150 193 237 293 348
#     4  11  22  38  59  89 119 156 198 245 297 364
#     4  10  21  37  56  85 115 152 192 236 292 349
#     4   9  21  40  59  83 117 154 193 245 297 354
#
# _framework density 19.177168000000002
#
# number of rings (size 3 to 8) (size 9 to 14) (size 15 to 20)
#    0.000    2.000    1.667    1.000    4.667    2.667 
#    0.000    4.167    0.000    0.000    0.000    0.000 
#    0.000    0.000    0.000    0.000    0.000    0.000 
#
# Total GULP energy -446389.529810 kJ/mol
# GULP energy per Si atom -12399.709161 kJ/mol
# Density = 1.913352 g / cm^3
# Si number density = 19.177168 Si / 1000 Ang^3
#
#
#
# Elastic Constant Matrix: (Units=GPa)
#
#
# Indices 1 2 3 4 5 6 
#
# 1 85.0534 33.2050 24.8233 -1.0544 -0.0008 0.0000
# 2 33.2050 85.0534 24.8233 1.0544 0.0008 0.0000
# 3 24.8233 24.8233 43.3471 0.0000 0.0000 0.0000
# 4 -1.0544 1.0544 0.0000 36.6115 0.0000 0.0008
# 5 -0.0008 0.0008 0.0000 0.0000 36.6115 -1.0544
# 6 0.0000 0.0000 0.0000 0.0008 -1.0544 25.9242
#
#
#
# Elastic Compliance Matrix: (Units=1/GPa)
#
#
# Indices 1 2 3 4 5 6 
#
# 1 0.015221 -0.004089 -0.006375 0.000556 0.000000 0.000000
# 2 -0.004089 0.015221 -0.006375 -0.000556 0.000000 0.000000
# 3 -0.006375 -0.006375 0.030371 0.000000 0.000000 0.000000
# 4 0.000556 -0.000556 0.000000 0.027346 0.000000 -0.000001
# 5 0.000000 0.000000 0.000000 0.000000 0.027346 0.001112
# 6 0.000000 0.000000 0.000000 -0.000001 0.001112 0.038619
#
#
# Mechanical properties :
#
#
# Convention : Reuss Voigt Hill
#
# Bulk Modulus (GPa) = 36.85205 42.12858 39.49031
# Shear Modulus (GPa) = 25.40041 28.53626 26.96833
#
# Velocity S-wave (km/s) = 3.64333 3.86169 3.75410
# Velocity P-wave (km/s) = 6.07922 6.47297 6.27918
#
# Compressibility (1/GPa) = 0.02713553
#
# Stress axis : x y z
#
# Youngs Moduli (GPa) = 65.69858 65.69858 32.92589
#
# Poissons Ratio (x) = 0.26862 0.20991
# Poissons Ratio (y) = 0.26862 0.20991
# Poissons Ratio (z) = 0.41884 0.41884
#
# Static dielectric constant tensor:
#      x y z
#    x 3.758380 0.000000 0.000000 
#    y 0.000000 3.758380 0.000000 
#    z 0.000000 0.000000 3.611130 
# 
# 
# High freq. dielectric constant tensor:
#      x y z
#    x 1.747860 0.000000 0.000000 
#    y 0.000000 1.747860 0.000000 
#    z 0.000000 0.000000 1.756070 
# 
# From -- ./inp_files/3416.got.cif
#   From: 2010.03.12/outbox.cif.g09.slc.cpg/sg154_2_cif.got.tgz:3416.got - 2010.04.03 13:51:21.
