data_PCOD8322767
_publ_section_title
;
Structure prediction by ZEFSAII (Michael W. Deem and Ramdas Pophale) SiO2 
 PCOD8322767
Probable space group: P 3 C 1
;
_chemical_formula_sum "Si O2"
_cell_formula_units_Z 30
_cell_length_a 10.518359
_cell_length_b 10.518359
_cell_length_c 13.492456
_cell_angle_alpha 90.000000
_cell_angle_beta 90.000000
_cell_angle_gamma 120.000000
_cell_volume 1292.759153
_symmetry_space_group_name_H-M "P 3 C 1"
_symmetry_group_IT_number 158
_symmetry_cell_setting 'hexagonal'
loop_
_space_group_symop_operation_xyz
x,y,z
-y,x-y,z
-x+y,-x,z
-x+y,y,1/2+z
x,x-y,1/2+z
-y,-x,1/2+z
loop_
_atom_site_type_symbol
_atom_site_label
_atom_site_fract_x
_atom_site_fract_y
_atom_site_fract_z
Si Si1 0.923185 0.673908 0.214040
Si Si2 0.000001 0.500000 0.078964
Si Si3 0.750723 0.673908 0.943889
Si Si4 0.673908 0.750723 0.214040
Si Si5 0.249277 0.923185 0.443889
O O1 0.911970 0.631722 0.328964
O O2 0.895437 0.533530 0.149435
O O3 0.806578 0.722841 0.185643
O O4 0.083736 0.806579 0.185645
O O5 0.104565 0.466470 0.149434
O O6 0.895437 0.361907 0.008494
O O7 0.104565 0.638095 0.008494
O O8 0.722843 0.806579 0.972284
O O9 0.916264 0.722841 0.972285
O O10 0.631722 0.719750 0.328964
#
# Coordination Sequence:
#
# PCOD8322767 Si02
#       5
#     6   6   6   6   6
#     4  10  22  43  69  95 123 162 215 269 319 372
#     4  12  22  36  58  94 136 164 194 248 320 382
#     4  10  22  43  69  95 123 162 215 269 319 372
#     4  10  22  43  69  95 123 162 215 269 319 372
#     4  10  22  43  69  95 123 162 215 269 319 372
#
# _framework density 23.206177
#
# number of rings (size 3 to 8) (size 9 to 14) (size 15 to 20)
#    0.000    1.600    0.000    4.400    0.000    3.200 
#   19.200    4.000    0.000    0.000    0.000    0.000 
#    0.000    0.000    0.000    0.000    0.000    0.000 
#
# Total GULP energy -372072.142033 kJ/mol
# GULP energy per Si atom -12402.404734 kJ/mol
# Density = 2.315336 g / cm^3
# Si number density = 23.206177 Si / 1000 Ang^3
#
#
#
# Elastic Constant Matrix: (Units=GPa)
#
#
# Indices 1 2 3 4 5 6 
#
# 1 120.6509 61.2722 73.3324 0.0000 0.0000 0.0000
# 2 61.2722 120.6509 73.3324 0.0000 0.0000 0.0000
# 3 73.3324 73.3324 89.3018 0.0000 0.0000 0.0000
# 4 0.0000 0.0000 0.0000 44.9611 0.0000 0.0000
# 5 0.0000 0.0000 0.0000 0.0000 44.9611 0.0000
# 6 0.0000 0.0000 0.0000 0.0000 0.0000 29.6893
#
#
#
# Elastic Compliance Matrix: (Units=1/GPa)
#
#
# Indices 1 2 3 4 5 6 
#
# 1 0.016553 -0.000289 -0.013356 0.000000 0.000000 0.000000
# 2 -0.000289 0.016553 -0.013356 0.000000 0.000000 0.000000
# 3 -0.013356 -0.013356 0.033132 0.000000 0.000000 0.000000
# 4 0.000000 0.000000 0.000000 0.022241 0.000000 0.000000
# 5 0.000000 0.000000 0.000000 0.000000 0.022241 0.000000
# 6 0.000000 0.000000 0.000000 0.000000 0.000000 0.033682
#
#
# Mechanical properties :
#
#
# Convention : Reuss Voigt Hill
#
# Bulk Modulus (GPa) = 81.71153 82.94194 82.32673
# Shear Modulus (GPa) = 24.69367 32.10009 28.39688
#
# Velocity S-wave (km/s) = 3.26559 3.72325 3.50191
# Velocity P-wave (km/s) = 7.03607 7.36901 7.20447
#
# Compressibility (1/GPa) = 0.01223818
#
# Stress axis : x y z
#
# Youngs Moduli (GPa) = 60.41382 60.41382 30.18192
#
# Poissons Ratio (x) = 0.01743 0.40310
# Poissons Ratio (y) = 0.01743 0.40310
# Poissons Ratio (z) = 0.80686 0.80686
#
# Static dielectric constant tensor:
#      x y z
#    x 4.157840 0.000000 0.000000 
#    y 0.000000 4.157840 0.000000 
#    z 0.000000 0.000000 4.606950 
# 
# 
# High freq. dielectric constant tensor:
#      x y z
#    x 1.901640 0.000000 0.000000 
#    y 0.000000 1.901640 0.000000 
#    z 0.000000 0.000000 1.960380 
# 
# From -- ./inp_files/440.got.cif
#   From: 2010.03.12/outbox.cif.g09.slc.cpg/sg158_cif.got.tgz:440.got - 2010.04.03 13:59:47.
