data_PCOD8322195
_publ_section_title
;
Structure prediction by ZEFSAII (Michael W. Deem and Ramdas Pophale) SiO2 
 PCOD8322195
Probable space group: P 31 2 1
;
_chemical_formula_sum "Si O2"
_cell_formula_units_Z 36
_cell_length_a 8.466192
_cell_length_b 8.466192
_cell_length_c 27.684850
_cell_angle_alpha 90.000000
_cell_angle_beta 90.000000
_cell_angle_gamma 120.000000
_cell_volume 1718.498009
_symmetry_space_group_name_H-M "P 31 2 1"
_symmetry_group_IT_number 152
_symmetry_cell_setting 'hexagonal'
loop_
_space_group_symop_operation_xyz
x,y,z
-y,x-y,1/3+z
-x+y,-x,2/3+z
x-y,-y,2/3-z
-x,-x+y,1/3-z
y,x,-z
loop_
_atom_site_type_symbol
_atom_site_label
_atom_site_fract_x
_atom_site_fract_y
_atom_site_fract_z
Si Si1 0.790173 0.470665 0.410145
Si Si2 0.544083 0.342684 0.990046
Si Si3 0.295490 0.657177 0.498268
Si Si4 0.513467 0.068730 0.911480
Si Si5 0.116379 0.836689 0.211669
Si Si6 0.835629 0.629509 0.921156
O O1 0.676416 0.307598 0.372773
O O2 0.812078 0.381469 0.459852
O O3 0.679233 0.568560 0.426840
O O4 0.978924 0.631874 0.389037
O O5 0.501250 0.164076 0.960153
O O6 0.682694 0.521197 0.960645
O O7 0.367113 0.367113 0.000000
O O8 0.455207 0.650306 0.468131
O O9 0.170411 0.463231 0.525001
O O10 0.183042 0.711650 0.462734
O O11 0.671851 0.012318 0.911722
O O12 0.000000 0.844419 0.166667
O O13 0.183409 0.018629 0.243749
#
# Coordination Sequence:
#
# PCOD8322195 Si02
#       6
#     6   6   6   6   6   6
#     4  11  21  36  58  86 114 145 191 244 287 338
#     4  11  23  40  59  78 110 156 199 235 286 353
#     4   9  19  37  59  83 116 153 188 229 285 348
#     4   9  20  39  57  80 116 152 187 234 291 341
#     4   9  18  36  60  86 118 152 188 237 292 350
#     4  11  22  36  60  89 116 152 191 237 294 354
#
# _framework density 20.948526999999999
#
# number of rings (size 3 to 8) (size 9 to 14) (size 15 to 20)
#    0.000    2.000    0.000    5.500    0.000    2.667 
#    0.000    7.500    0.000    0.000    0.000    0.000 
#    0.000    0.000    0.000    0.000    0.000    0.000 
#
# Total GULP energy -446162.408127 kJ/mol
# GULP energy per Si atom -12393.400226 kJ/mol
# Density = 2.090085 g / cm^3
# Si number density = 20.948527 Si / 1000 Ang^3
#
#
#
# Elastic Constant Matrix: (Units=GPa)
#
#
# Indices 1 2 3 4 5 6 
#
# 1 80.1061 31.5401 30.6709 -4.5766 0.0000 0.0000
# 2 31.5401 80.1061 30.6709 4.5766 0.0000 0.0000
# 3 30.6709 30.6709 103.4588 0.0000 0.0000 0.0000
# 4 -4.5766 4.5766 0.0000 27.7456 0.0000 0.0000
# 5 0.0000 0.0000 0.0000 0.0000 27.7456 -4.5766
# 6 0.0000 0.0000 0.0000 0.0000 -4.5766 24.2830
#
#
#
# Elastic Compliance Matrix: (Units=1/GPa)
#
#
# Indices 1 2 3 4 5 6 
#
# 1 0.015975 -0.005276 -0.003172 0.003505 0.000000 0.000000
# 2 -0.005276 0.015975 -0.003172 -0.003505 0.000000 0.000000
# 3 -0.003172 -0.003172 0.011546 0.000000 0.000000 0.000000
# 4 0.003505 -0.003505 0.000000 0.037198 0.000000 0.000000
# 5 0.000000 0.000000 0.000000 0.000000 0.037198 0.007011
# 6 0.000000 0.000000 0.000000 0.000000 0.007011 0.042502
#
#
# Mechanical properties :
#
#
# Convention : Reuss Voigt Hill
#
# Bulk Modulus (GPa) = 49.36373 49.93722 49.65048
# Shear Modulus (GPa) = 26.26218 27.34079 26.80148
#
# Velocity S-wave (km/s) = 3.54454 3.61659 3.58075
# Velocity P-wave (km/s) = 6.35351 6.42880 6.39127
#
# Compressibility (1/GPa) = 0.02025779
#
# Stress axis : x y z
#
# Youngs Moduli (GPa) = 62.59620 62.59620 86.60724
#
# Poissons Ratio (x) = 0.33024 0.27472
# Poissons Ratio (y) = 0.33024 0.27472
# Poissons Ratio (z) = 0.19855 0.19855
#
# Static dielectric constant tensor:
#      x y z
#    x 3.671130 0.000000 0.000000 
#    y 0.000000 3.671130 0.000000 
#    z 0.000000 0.000000 3.937520 
# 
# 
# High freq. dielectric constant tensor:
#      x y z
#    x 1.805460 0.000000 0.000000 
#    y 0.000000 1.805460 0.000000 
#    z 0.000000 0.000000 1.828850 
# 
# From -- ./inp_files/3412.got.cif
#   From: 2010.03.12/outbox.cif.g09.slc.cpg/sg152_2_cif.got.tgz:3412.got - 2010.04.03 13:45:27.
