data_PCOD8322564
_publ_section_title
;
Structure prediction by ZEFSAII (Michael W. Deem and Ramdas Pophale) SiO2 
 PCOD8322564
Probable space group: R 3 2
;
_chemical_formula_sum "Si O2"
_cell_formula_units_Z 144
_cell_length_a 30.180303
_cell_length_b 30.180303
_cell_length_c 9.001067
_cell_angle_alpha 90.000000
_cell_angle_beta 90.000000
_cell_angle_gamma 120.000000
_cell_volume 7100.220194
_symmetry_space_group_name_H-M "R 3 2"
_symmetry_group_IT_number 155
_symmetry_cell_setting 'hexagonal'
loop_
_space_group_symop_operation_xyz
x,y,z
-y,x-y,z
-x+y,-x,z
x-y,-y,-z
-x,-x+y,-z
y,x,-z
2/3+x,1/3+y,1/3+z
2/3-y,1/3+x-y,1/3+z
2/3-x+y,1/3-x,1/3+z
2/3+x-y,1/3-y,1/3-z
2/3-x,1/3-x+y,1/3-z
2/3+y,1/3+x,1/3-z
1/3+x,2/3+y,2/3+z
1/3-y,2/3+x-y,2/3+z
1/3-x+y,2/3-x,2/3+z
1/3+x-y,2/3-y,2/3-z
1/3-x,2/3-x+y,2/3-z
1/3+y,2/3+x,2/3-z
loop_
_atom_site_type_symbol
_atom_site_label
_atom_site_fract_x
_atom_site_fract_y
_atom_site_fract_z
Si Si1 0.035808 0.761014 0.874388
Si Si2 0.815355 0.281246 0.261410
Si Si3 0.483814 0.963954 0.121390
Si Si4 0.719036 0.533671 0.904440
Si Si5 0.805231 0.177576 0.290177
Si Si6 0.280348 0.559971 0.600695
Si Si7 0.044947 0.913949 0.394138
Si Si8 0.526084 0.892212 0.027202
O O1 0.069182 0.735848 0.833334
O O2 0.078332 0.819332 0.915501
O O3 0.994627 0.761629 0.767234
O O4 0.000000 0.724400 0.000000
O O5 0.860232 0.333334 0.333334
O O6 0.827365 0.237645 0.314490
O O7 0.762501 0.268209 0.338252
O O8 0.812193 0.285059 0.082619
O O9 0.430283 0.924045 0.196751
O O10 0.511202 0.935909 0.044706
O O11 0.523537 0.004051 0.237853
O O12 0.477103 0.000000 0.000000
O O13 0.666667 0.526181 0.833334
O O14 0.729779 0.491596 0.829826
O O15 0.840863 0.174197 0.166667
O O16 0.333334 0.568622 0.666667
O O17 0.270672 0.604005 0.666667
O O18 0.279863 0.561432 0.419558
O O19 0.029214 0.857922 0.332400
O O20 0.000000 0.910907 0.500000
O O21 0.556643 0.889976 0.166667
#
# Coordination Sequence:
#
# PCOD8322564 Si02
#       8
#    18  18  18  18  18  18  18  18
#     4  11  25  38  60  89 131 179 225 273 325 378
#     4  11  25  41  69  98 128 167 215 272 328 401
#     4  11  24  40  65  96 132 175 225 278 325 396
#     4  11  23  43  66  96 134 167 215 269 332 394
#     4  11  23  42  65  95 129 174 222 269 336 386
#     4  11  24  41  65  95 131 167 213 262 322 390
#     4  10  23  39  65  96 130 171 214 268 325 387
#     4  10  22  39  60  91 130 173 223 270 320 374
#
# _framework density 20.281061999999999
#
# number of rings (size 3 to 8) (size 9 to 14) (size 15 to 20)
#    0.000    1.250    1.250    4.625   12.250    2.000 
#    0.000    0.000    0.000    1.750    0.000    0.000 
#    0.000    0.000    0.000    0.000    0.000    0.000 
#
# Total GULP energy -594962.739917 kJ/mol
# GULP energy per Si atom -12395.057082 kJ/mol
# Density = 2.023490 g / cm^3
# Si number density = 20.281062 Si / 1000 Ang^3
#
#
#
# Elastic Constant Matrix: (Units=GPa)
#
#
# Indices 1 2 3 4 5 6 
#
# 1 -46.5780 197.3146 47.0996 -24.4241 0.0651 4.7770
# 2 197.3146 -46.2807 46.6759 24.3877 -0.0243 -4.2086
# 3 47.0996 46.6759 142.2527 -0.1069 0.4777 4.5739
# 4 -24.4241 24.3877 -0.1069 35.0443 0.0221 1.0352
# 5 0.0651 -0.0243 0.4777 0.0221 35.6087 -22.8933
# 6 4.7770 -4.2086 4.5739 1.0352 -22.8933 -127.2244
#
#
#
# Elastic Compliance Matrix: (Units=1/GPa)
#
#
# Indices 1 2 3 4 5 6 
#
# 1 0.002353 0.005969 -0.002733 -0.002516 -0.000097 -0.000210
# 2 0.005969 0.002375 -0.002756 0.002498 0.000062 0.000056
# 3 -0.002733 -0.002756 0.008829 0.000032 0.000073 0.000293
# 4 -0.002516 0.002498 0.000032 0.025043 0.000007 0.000026
# 5 -0.000097 0.000062 0.000073 0.000007 0.025169 -0.004532
# 6 -0.000210 0.000056 0.000293 0.000026 -0.004532 -0.007044
#
#
# Mechanical properties :
#
#
# Convention : Reuss Voigt Hill
#
# Bulk Modulus (GPa) = 68.87512 70.17489 69.52501
# Shear Modulus (GPa) = 82.50520 -27.42736 27.53892
#
# Velocity S-wave (km/s) = 6.38508 -3.68144 3.68892
# Velocity P-wave (km/s) = 9.40176 4.07500 7.24564
#
# Compressibility (1/GPa) = 0.01451903
#
# Stress axis : x y z
#
# Youngs Moduli (GPa) = 424.97676 421.09468 113.26209
#
# Poissons Ratio (x) = -2.51370 0.30950
# Poissons Ratio (y) = -2.53687 0.31213
# Poissons Ratio (z) = 1.16129 1.16045
#
# Static dielectric constant tensor:
#      x y z
#    x 3.791840 0.001490 0.000590 
#    y 0.001490 3.795270 -0.001140 
#    z 0.000590 -0.001140 3.382120 
# 
# 
# High freq. dielectric constant tensor:
#      x y z
#    x 1.786030 0.000000 -0.000030 
#    y 0.000000 1.786040 0.000000 
#    z -0.000030 0.000000 1.811350 
# 
# From -- ./inp_files/3075.got.cif
#   From: 2010.03.12/outbox.cif.g09.slc.cpg/sg155_2_cif.got.tgz:3075.got - 2010.04.03 13:54:13.
