data_PCOD8322217
_publ_section_title
;
Structure prediction by ZEFSAII (Michael W. Deem and Ramdas Pophale) SiO2 
 PCOD8322217
Probable space group: P 31 2 1
;
_chemical_formula_sum "Si O2"
_cell_formula_units_Z 24
_cell_length_a 15.698774
_cell_length_b 15.698774
_cell_length_c 4.975335
_cell_angle_alpha 90.000000
_cell_angle_beta 90.000000
_cell_angle_gamma 120.000000
_cell_volume 1061.901990
_symmetry_space_group_name_H-M "P 31 2 1"
_symmetry_group_IT_number 152
_symmetry_cell_setting 'hexagonal'
loop_
_space_group_symop_operation_xyz
x,y,z
-y,x-y,1/3+z
-x+y,-x,2/3+z
x-y,-y,2/3-z
-x,-x+y,1/3-z
y,x,-z
loop_
_atom_site_type_symbol
_atom_site_label
_atom_site_fract_x
_atom_site_fract_y
_atom_site_fract_z
Si Si1 0.167404 0.527385 0.132688
Si Si2 0.000000 0.806584 0.166667
Si Si3 0.691411 0.000000 0.333334
Si Si4 0.687622 0.687622 0.500000
Si Si5 0.805097 0.805097 0.000000
Si Si6 0.474203 0.834351 0.311306
O O1 0.093284 0.417681 0.233165
O O2 0.182496 0.602949 0.364288
O O3 0.124060 0.553505 0.869000
O O4 0.272799 0.541179 0.076450
O O5 0.089806 0.910252 0.255058
O O6 0.967010 0.732123 0.415532
O O7 0.679531 0.091725 0.413683
O O8 0.731014 0.760439 0.248311
#
# Coordination Sequence:
#
# PCOD8322217 Si02
#       6
#     6   3   3   3   3   6
#     4  12  24  42  67  99 137 180 226 276 330 392
#     4  12  26  46  72 102 134 174 220 276 338 402
#     4  12  26  46  70 100 136 178 224 276 334 398
#     4  12  26  46  70 100 136 178 224 276 334 398
#     4  12  26  46  72 102 134 174 220 276 338 402
#     4  12  24  42  67  99 137 180 226 276 330 392
#
# _framework density 22.600959
#
# number of rings (size 3 to 8) (size 9 to 14) (size 15 to 20)
#    0.000    0.000    0.000   12.000    0.000    2.000 
#    0.000    0.000    0.000    0.000    0.000    0.000 
#    0.000    0.000    0.000    0.000    0.000    0.000 
#
# Total GULP energy -297859.423676 kJ/mol
# GULP energy per Si atom -12410.809320 kJ/mol
# Density = 2.254952 g / cm^3
# Si number density = 22.600959 Si / 1000 Ang^3
#
#
#
# Elastic Constant Matrix: (Units=GPa)
#
#
# Indices 1 2 3 4 5 6 
#
# 1 117.0474 78.9201 42.8463 16.6321 0.0003 0.0000
# 2 78.9201 117.0474 42.8463 -16.6321 -0.0003 0.0000
# 3 42.8463 42.8463 129.7059 0.0000 0.0000 0.0000
# 4 16.6321 -16.6321 0.0000 39.2245 0.0000 -0.0003
# 5 0.0003 -0.0003 0.0000 0.0000 39.2245 16.6321
# 6 0.0000 0.0000 0.0000 -0.0003 16.6321 19.0636
#
#
#
# Elastic Compliance Matrix: (Units=1/GPa)
#
#
# Indices 1 2 3 4 5 6 
#
# 1 0.023796 -0.017832 -0.001970 -0.017651 0.000000 0.000000
# 2 -0.017832 0.023796 -0.001970 0.017651 0.000000 0.000000
# 3 -0.001970 -0.001970 0.009011 0.000000 0.000000 0.000000
# 4 -0.017651 0.017651 0.000000 0.040463 0.000000 0.000001
# 5 0.000000 0.000000 0.000000 0.000000 0.040463 -0.035302
# 6 0.000000 0.000000 0.000000 0.000001 -0.035302 0.083255
#
#
# Mechanical properties :
#
#
# Convention : Reuss Voigt Hill
#
# Bulk Modulus (GPa) = 76.57389 77.00291 76.78840
# Shear Modulus (GPa) = 18.60931 32.78173 25.69552
#
# Velocity S-wave (km/s) = 2.87258 3.81262 3.37548
# Velocity P-wave (km/s) = 6.70497 7.31615 7.01722
#
# Compressibility (1/GPa) = 0.01305928
#
# Stress axis : x y z
#
# Youngs Moduli (GPa) = 42.02376 42.02376 110.97011
#
# Poissons Ratio (x) = 0.74935 0.21864
# Poissons Ratio (y) = 0.74935 0.21864
# Poissons Ratio (z) = 0.08280 0.08280
#
# Static dielectric constant tensor:
#      x y z
#    x 4.197910 0.000000 0.000000 
#    y 0.000000 4.197910 0.000000 
#    z 0.000000 0.000000 4.385260 
# 
# 
# High freq. dielectric constant tensor:
#      x y z
#    x 1.906500 0.000000 0.000000 
#    y 0.000000 1.906500 0.000000 
#    z 0.000000 0.000000 1.908040 
# 
# From -- ./inp_files/272.got.cif
#   From: 2010.03.12/outbox.cif.g09.slc.cpg/sg152_1_cif.got.tgz:272.got - 2010.04.03 13:45:27.
