data_PCOD8322178
_publ_section_title
;
Structure prediction by ZEFSAII (Michael W. Deem and Ramdas Pophale) SiO2 
 PCOD8322178
Probable space group: P 31 2 1
;
_chemical_formula_sum "Si O2"
_cell_formula_units_Z 18
_cell_length_a 7.499081
_cell_length_b 7.499081
_cell_length_c 16.914047
_cell_angle_alpha 90.000000
_cell_angle_beta 90.000000
_cell_angle_gamma 120.000000
_cell_volume 823.747774
_symmetry_space_group_name_H-M "P 31 2 1"
_symmetry_group_IT_number 152
_symmetry_cell_setting 'hexagonal'
loop_
_space_group_symop_operation_xyz
x,y,z
-y,x-y,1/3+z
-x+y,-x,2/3+z
x-y,-y,2/3-z
-x,-x+y,1/3-z
y,x,-z
loop_
_atom_site_type_symbol
_atom_site_label
_atom_site_fract_x
_atom_site_fract_y
_atom_site_fract_z
Si Si1 0.889018 0.001448 0.085908
Si Si2 0.990241 0.457936 0.252627
Si Si3 0.215893 0.519255 0.699770
O O1 0.000000 0.987818 0.166667
O O2 0.910537 0.223479 0.079326
O O3 0.650264 0.823922 0.101127
O O4 0.963405 0.963405 0.000000
O O5 0.752180 0.339000 0.274785
O O6 0.000000 0.547691 0.166667
O O7 0.122796 0.658295 0.303951
O O8 0.000000 0.483599 0.666667
#
# Coordination Sequence:
#
# PCOD8322178 Si02
#       3
#     6   6   6
#     4  10  23  45  70 104 141 182 231 290 350 418
#     4  11  24  43  68  99 137 180 229 289 347 415
#     4  11  24  44  68  99 133 180 229 281 348 411
#
# _framework density 21.851348000000002
#
# number of rings (size 3 to 8) (size 9 to 14) (size 15 to 20)
#    0.000    1.333    3.333    1.000    0.000   13.333 
#    0.000    0.000    0.000    0.000    0.000    0.000 
#    0.000    0.000    0.000    0.000    0.000    0.000 
#
# Total GULP energy -223006.744916 kJ/mol
# GULP energy per Si atom -12389.263606 kJ/mol
# Density = 2.180161 g / cm^3
# Si number density = 21.851348 Si / 1000 Ang^3
#
#
#
# Elastic Constant Matrix: (Units=GPa)
#
#
# Indices 1 2 3 4 5 6 
#
# 1 121.8781 47.0839 43.1713 -14.9692 0.0037 0.0000
# 2 47.0839 121.8781 43.1713 14.9692 -0.0037 0.0000
# 3 43.1713 43.1713 125.5910 0.0000 0.0000 0.0000
# 4 -14.9692 14.9692 0.0000 48.3207 0.0000 -0.0037
# 5 0.0037 -0.0037 0.0000 0.0000 48.3207 -14.9692
# 6 0.0000 0.0000 0.0000 -0.0037 -14.9692 37.3971
#
#
#
# Elastic Compliance Matrix: (Units=1/GPa)
#
#
# Indices 1 2 3 4 5 6 
#
# 1 0.011221 -0.004041 -0.002468 0.004728 -0.000001 0.000000
# 2 -0.004041 0.011221 -0.002468 -0.004728 0.000001 0.000000
# 3 -0.002468 -0.002468 0.009659 0.000000 0.000000 0.000000
# 4 0.004728 -0.004728 0.000000 0.023624 0.000000 0.000002
# 5 -0.000001 0.000001 0.000000 0.000000 0.023624 0.009456
# 6 0.000000 0.000000 0.000000 0.000002 0.009456 0.030525
#
#
# Mechanical properties :
#
#
# Convention : Reuss Voigt Hill
#
# Bulk Modulus (GPa) = 70.68889 70.68893 70.68891
# Shear Modulus (GPa) = 37.72280 42.53576 40.12928
#
# Velocity S-wave (km/s) = 4.15943 4.41681 4.29005
# Velocity P-wave (km/s) = 7.44902 7.64402 7.54715
#
# Compressibility (1/GPa) = 0.01414649
#
# Stress axis : x y z
#
# Youngs Moduli (GPa) = 89.11759 89.11759 103.52963
#
# Poissons Ratio (x) = 0.36016 0.25551
# Poissons Ratio (y) = 0.36016 0.25551
# Poissons Ratio (z) = 0.21994 0.21994
#
# Static dielectric constant tensor:
#      x y z
#    x 4.014540 0.000000 0.000000 
#    y 0.000000 4.014540 0.000000 
#    z 0.000000 0.000000 4.200810 
# 
# 
# High freq. dielectric constant tensor:
#      x y z
#    x 1.876230 0.000000 0.000000 
#    y 0.000000 1.876230 0.000000 
#    z 0.000000 0.000000 1.852900 
# 
# From -- ./inp_files/1543.got.cif
#   From: 2010.03.12/outbox.cif.g09.slc.cpg/sg152_1_cif.got.tgz:1543.got - 2010.04.03 13:45:27.
