data_PCOD8322124
_publ_section_title
;
Structure prediction by ZEFSAII (Michael W. Deem and Ramdas Pophale) SiO2 
 PCOD8322124
Probable space group: P 31 2 1
;
_chemical_formula_sum "Si O2"
_cell_formula_units_Z 36
_cell_length_a 13.118404
_cell_length_b 13.118404
_cell_length_c 13.660037
_cell_angle_alpha 90.000000
_cell_angle_beta 90.000000
_cell_angle_gamma 120.000000
_cell_volume 2035.844066
_symmetry_space_group_name_H-M "P 31 2 1"
_symmetry_group_IT_number 152
_symmetry_cell_setting 'hexagonal'
loop_
_space_group_symop_operation_xyz
x,y,z
-y,x-y,1/3+z
-x+y,-x,2/3+z
x-y,-y,2/3-z
-x,-x+y,1/3-z
y,x,-z
loop_
_atom_site_type_symbol
_atom_site_label
_atom_site_fract_x
_atom_site_fract_y
_atom_site_fract_z
Si Si1 0.936082 0.883388 0.393935
Si Si2 0.267434 0.529357 0.452198
Si Si3 0.682044 0.190809 0.663108
Si Si4 0.695344 0.723803 0.727863
Si Si5 0.462136 0.962145 0.725808
Si Si6 0.279343 0.099379 0.255999
O O1 0.899755 0.899755 0.500000
O O2 0.825616 0.771765 0.347936
O O3 0.043093 0.857514 0.397547
O O4 0.970596 0.000000 0.333334
O O5 0.285651 0.546658 0.568214
O O6 0.249024 0.632252 0.411007
O O7 0.154962 0.402575 0.433483
O O8 0.380569 0.542220 0.395565
O O9 0.793164 0.200740 0.608367
O O10 0.589295 0.054798 0.683198
O O11 0.639825 0.596672 0.676231
O O12 0.778553 0.727327 0.814317
O O13 0.443780 0.000000 0.833334
O O14 0.258201 0.000000 0.333334
#
# Coordination Sequence:
#
# PCOD8322124 Si02
#       6
#     6   6   6   6   6   6
#     4  11  22  38  59  91 122 153 189 233 296 357
#     4  10  21  38  60  85 110 161 198 246 287 349
#     4  10  21  37  58  86 117 145 203 244 295 348
#     4  11  21  37  61  86 122 153 195 240 296 349
#     4   9  20  38  59  83 112 154 200 238 286 348
#     4  11  22  36  59  87 117 154 191 245 292 349
#
# _framework density 17.683083
#
# number of rings (size 3 to 8) (size 9 to 14) (size 15 to 20)
#    0.000    1.667    3.333    1.500    2.333    0.000 
#    0.000    0.000    0.000    5.000    0.000    0.000 
#    0.000    0.000    0.000    0.000    0.000    0.000 
#
# Total GULP energy -446512.081869 kJ/mol
# GULP energy per Si atom -12403.113385 kJ/mol
# Density = 1.764284 g / cm^3
# Si number density = 17.683083 Si / 1000 Ang^3
#
#
#
# Elastic Constant Matrix: (Units=GPa)
#
#
# Indices 1 2 3 4 5 6 
#
# 1 103.8772 62.4423 53.7065 2.7182 0.0000 0.0000
# 2 62.4423 103.8772 53.7065 -2.7182 0.0000 0.0000
# 3 53.7065 53.7065 112.7648 0.0000 0.0000 0.0000
# 4 2.7182 -2.7182 0.0000 47.8992 0.0000 0.0000
# 5 0.0000 0.0000 0.0000 0.0000 47.8992 2.7182
# 6 0.0000 0.0000 0.0000 0.0000 2.7182 20.7174
#
#
#
# Elastic Compliance Matrix: (Units=1/GPa)
#
#
# Indices 1 2 3 4 5 6 
#
# 1 0.016499 -0.007816 -0.004136 -0.001380 0.000000 0.000000
# 2 -0.007816 0.016499 -0.004136 0.001380 0.000000 0.000000
# 3 -0.004136 -0.004136 0.012807 0.000000 0.000000 0.000000
# 4 -0.001380 0.001380 0.000000 0.021034 0.000000 0.000000
# 5 0.000000 0.000000 0.000000 0.000000 0.021034 -0.002760
# 6 0.000000 0.000000 0.000000 0.000000 -0.002760 0.048631
#
#
# Mechanical properties :
#
#
# Convention : Reuss Voigt Hill
#
# Bulk Modulus (GPa) = 73.35882 73.35885 73.35884
# Shear Modulus (GPa) = 28.86459 33.34743 31.10601
#
# Velocity S-wave (km/s) = 4.04459 4.34733 4.19869
# Velocity P-wave (km/s) = 7.96159 8.17157 8.06726
#
# Compressibility (1/GPa) = 0.01363163
#
# Stress axis : x y z
#
# Youngs Moduli (GPa) = 60.60841 60.60841 78.07996
#
# Poissons Ratio (x) = 0.47371 0.32291
# Poissons Ratio (y) = 0.47371 0.32291
# Poissons Ratio (z) = 0.25066 0.25066
#
# Static dielectric constant tensor:
#      x y z
#    x 3.251470 0.000000 0.000000 
#    y 0.000000 3.251470 0.000000 
#    z 0.000000 0.000000 3.336880 
# 
# 
# High freq. dielectric constant tensor:
#      x y z
#    x 1.688090 0.000000 0.000000 
#    y 0.000000 1.688090 0.000000 
#    z 0.000000 0.000000 1.695860 
# 
# From -- ./inp_files/2019.got.cif
#   From: 2010.03.12/outbox.cif.g09.slc.cpg/sg152_2_cif.got.tgz:2019.got - 2010.04.03 13:45:27.
