data_PCOD8322699
_publ_section_title
;
Structure prediction by ZEFSAII (Michael W. Deem and Ramdas Pophale) SiO2 
 PCOD8322699
Probable space group: P 3 M 1
;
_chemical_formula_sum "Si O2"
_cell_formula_units_Z 48
_cell_length_a 12.730887
_cell_length_b 12.730887
_cell_length_c 20.222635
_cell_angle_alpha 90.000000
_cell_angle_beta 90.000000
_cell_angle_gamma 120.000000
_cell_volume 2838.479106
_symmetry_space_group_name_H-M "P 3 M 1"
_symmetry_group_IT_number 156
_symmetry_cell_setting 'hexagonal'
loop_
_space_group_symop_operation_xyz
x,y,z
-y,x-y,z
-x+y,-x,z
-x+y,y,z
x,x-y,z
-y,-x,z
loop_
_atom_site_type_symbol
_atom_site_label
_atom_site_fract_x
_atom_site_fract_y
_atom_site_fract_z
Si Si1 0.666852 0.575165 0.988260
Si Si2 0.424835 0.091687 0.837061
Si Si3 0.245450 0.001297 0.102213
Si Si4 0.755848 0.754551 0.723109
Si Si5 0.241834 0.241649 0.488260
Si Si6 0.421216 0.332037 0.602213
Si Si7 0.999815 0.241648 0.337061
Si Si8 0.667964 0.089180 0.223108
O O1 0.768830 0.537659 0.000087
O O2 0.539413 0.460588 0.008253
O O3 0.666817 0.614312 0.912661
O O4 0.692372 0.688182 0.033933
O O5 0.539414 0.078827 0.817068
O O6 0.462338 0.231169 0.825234
O O7 0.311819 0.004187 0.791388
O O8 0.127860 0.872141 0.109562
O O9 0.206367 0.103184 0.102580
O O10 0.333334 0.019199 0.162660
O O11 0.744279 0.872140 0.715758
O O12 0.685872 0.666667 0.662661
O O13 0.896819 0.793637 0.722746
O O14 0.204337 0.102169 0.500088
O O15 0.354848 0.329152 0.533933
O O16 0.280981 0.280831 0.412661
O O17 0.127252 0.254503 0.508252
O O18 0.460299 0.230150 0.602574
O O19 0.538808 0.461193 0.609566
O O20 0.127253 0.254506 0.317068
O O21 0.974299 0.329146 0.291388
O O22 0.897835 0.102166 0.325236
O O23 0.538808 0.077616 0.215759
O O24 0.769851 0.230150 0.222743
#
# Coordination Sequence:
#
# PCOD8322699 Si02
#       8
#     6   6   6   6   6   6   6   6
#     4   9  17  30  50  75 100 126 157 194 235 278
#     4   9  17  30  50  75 100 126 157 194 235 278
#     4  10  20  33  50  72  97 125 157 195 240 287
#     4  10  20  33  50  72  97 125 157 195 240 287
#     4   9  17  30  50  75 100 126 157 194 235 278
#     4  10  20  33  50  72  97 125 157 195 240 287
#     4   9  17  30  50  75 100 126 157 194 235 278
#     4  10  20  33  50  72  97 125 157 195 240 287
#
# _framework density 16.910463
#
# number of rings (size 3 to 8) (size 9 to 14) (size 15 to 20)
#    0.000    2.500    0.000    2.500    0.000    3.000 
#    0.000    5.000    0.000   12.000    0.000    0.000 
#    0.000    0.000    0.000    0.000    0.000    0.000 
#
# Total GULP energy -595299.023227 kJ/mol
# GULP energy per Si atom -12402.062984 kJ/mol
# Density = 1.687197 g / cm^3
# Si number density = 16.910463 Si / 1000 Ang^3
#
#
#
# Elastic Constant Matrix: (Units=GPa)
#
#
# Indices 1 2 3 4 5 6 
#
# 1 113.6960 73.1008 62.7052 0.0004 0.0003 0.0000
# 2 73.1008 113.6960 62.7052 -0.0004 -0.0003 0.0000
# 3 62.7052 62.7052 109.0063 0.0000 0.0000 0.0000
# 4 0.0004 -0.0004 0.0000 22.2748 0.0000 -0.0003
# 5 0.0003 -0.0003 0.0000 0.0000 22.2748 0.0004
# 6 0.0000 0.0000 0.0000 -0.0003 0.0004 20.2976
#
#
#
# Elastic Compliance Matrix: (Units=1/GPa)
#
#
# Indices 1 2 3 4 5 6 
#
# 1 0.016678 -0.007956 -0.005017 0.000000 0.000000 0.000000
# 2 -0.007956 0.016678 -0.005017 0.000000 0.000000 0.000000
# 3 -0.005017 -0.005017 0.014946 0.000000 0.000000 0.000000
# 4 0.000000 0.000000 0.000000 0.044894 0.000000 0.000001
# 5 0.000000 0.000000 0.000000 0.000000 0.044894 -0.000001
# 6 0.000000 0.000000 0.000000 0.000001 -0.000001 0.049267
#
#
# Mechanical properties :
#
#
# Convention : Reuss Voigt Hill
#
# Bulk Modulus (GPa) = 81.16278 81.49119 81.32699
# Shear Modulus (GPa) = 21.98354 22.16192 22.07273
#
# Velocity S-wave (km/s) = 3.60946 3.62407 3.61677
# Velocity P-wave (km/s) = 8.09140 8.11211 8.10176
#
# Compressibility (1/GPa) = 0.01232092
#
# Stress axis : x y z
#
# Youngs Moduli (GPa) = 59.96051 59.96051 66.90767
#
# Poissons Ratio (x) = 0.47704 0.33569
# Poissons Ratio (y) = 0.47704 0.33569
# Poissons Ratio (z) = 0.30083 0.30083
#
# Static dielectric constant tensor:
#      x y z
#    x 2.984180 0.000000 0.000000 
#    y 0.000000 2.984180 0.000000 
#    z 0.000000 0.000000 3.493050 
# 
# 
# High freq. dielectric constant tensor:
#      x y z
#    x 1.637610 0.000000 0.000000 
#    y 0.000000 1.637610 0.000000 
#    z 0.000000 0.000000 1.671870 
# 
# From -- ./inp_files/1137.got.cif
#   From: 2010.03.12/outbox.cif.g09.slc.cpg/sg156_cif.got.tgz:1137.got - 2010.04.03 13:58:47.
