data_PCOD8322273
_publ_section_title
;
Structure prediction by ZEFSAII (Michael W. Deem and Ramdas Pophale) SiO2 
 PCOD8322273
Probable space group: P 32 1 2
;
_chemical_formula_sum "Si O2"
_cell_formula_units_Z 48
_cell_length_a 15.661869
_cell_length_b 15.661869
_cell_length_c 11.091979
_cell_angle_alpha 90.000000
_cell_angle_beta 90.000000
_cell_angle_gamma 120.000000
_cell_volume 2356.279716
_symmetry_space_group_name_H-M "P 32 1 2"
_symmetry_group_IT_number 153
_symmetry_cell_setting 'hexagonal'
loop_
_space_group_symop_operation_xyz
x,y,z
-y,x-y,2/3+z
-x+y,-x,1/3+z
-y,-x,1/3-z
-x+y,y,2/3-z
x,x-y,-z
loop_
_atom_site_type_symbol
_atom_site_label
_atom_site_fract_x
_atom_site_fract_y
_atom_site_fract_z
Si Si1 0.872039 0.564470 0.297085
Si Si2 0.915916 0.898943 0.205118
Si Si3 0.353381 0.519019 0.776337
Si Si4 0.028262 0.678791 0.945074
Si Si5 0.659935 0.026570 0.881024
Si Si6 0.133138 0.288173 0.468267
Si Si7 0.881657 0.173031 0.903301
Si Si8 0.480743 0.473231 0.434120
O O1 0.755252 0.510503 0.333334
O O2 0.938167 0.588141 0.416015
O O3 0.894894 0.660942 0.219731
O O4 0.903029 0.497132 0.219649
O O5 0.934886 0.869772 0.333334
O O6 0.807790 0.883955 0.216830
O O7 0.924531 0.824973 0.111906
O O8 0.989936 0.010065 0.166667
O O9 0.402940 0.597061 0.666667
O O10 0.264634 0.529267 0.833334
O O11 0.314599 0.409109 0.725847
O O12 0.431392 0.533483 0.881636
O O13 0.102308 0.755067 0.846044
O O14 0.974590 0.573194 0.879886
O O15 0.941001 0.697563 0.986199
O O16 0.766164 0.105621 0.937251
O O17 0.644964 0.918011 0.859828
O O18 0.574790 0.015114 0.970464
O O19 0.125037 0.250074 0.333334
#
# Coordination Sequence:
#
# PCOD8322273 Si02
#       8
#     6   6   6   6   6   6   6   6
#     4  10  21  40  67  92 126 162 213 277 320 386
#     4  11  22  37  57  92 131 173 211 257 310 369
#     4  10  24  45  64  96 129 173 224 275 331 394
#     4  11  23  40  69  91 128 176 214 264 330 396
#     4  10  22  40  64  96 125 172 216 264 333 386
#     4  11  22  39  57  92 132 165 216 260 311 392
#     4  10  21  39  64  94 128 169 217 262 315 390
#     4  11  22  43  67  92 129 168 219 268 337 391
#
# _framework density 20.371096000000001
#
# number of rings (size 3 to 8) (size 9 to 14) (size 15 to 20)
#    0.000    1.500    2.500    3.375    1.750    3.000 
#    4.500    0.000   11.000    0.000    0.000    0.000 
#    0.000    0.000    0.000    0.000    0.000    0.000 
#
# Total GULP energy -595117.573863 kJ/mol
# GULP energy per Si atom -12398.282789 kJ/mol
# Density = 2.032473 g / cm^3
# Si number density = 20.371096 Si / 1000 Ang^3
#
#
#
# Elastic Constant Matrix: (Units=GPa)
#
#
# Indices 1 2 3 4 5 6 
#
# 1 90.6180 39.5581 24.2385 0.0002 -3.7483 0.0000
# 2 39.5581 90.6180 24.2385 -0.0002 3.7483 0.0000
# 3 24.2385 24.2385 78.9469 0.0000 0.0000 0.0000
# 4 0.0002 -0.0002 0.0000 35.3619 0.0000 3.7483
# 5 -3.7483 3.7483 0.0000 0.0000 35.3619 0.0002
# 6 0.0000 0.0000 0.0000 3.7483 0.0002 25.5300
#
#
#
# Elastic Compliance Matrix: (Units=1/GPa)
#
#
# Indices 1 2 3 4 5 6 
#
# 1 0.014284 -0.005610 -0.002663 0.000000 0.002109 0.000000
# 2 -0.005610 0.014284 -0.002663 0.000000 -0.002109 0.000000
# 3 -0.002663 -0.002663 0.014302 0.000000 0.000000 0.000000
# 4 0.000000 0.000000 0.000000 0.028726 0.000000 -0.004218
# 5 0.002109 -0.002109 0.000000 0.000000 0.028726 0.000000
# 6 0.000000 0.000000 0.000000 -0.004218 0.000000 0.039789
#
#
# Mechanical properties :
#
#
# Convention : Reuss Voigt Hill
#
# Bulk Modulus (GPa) = 47.62549 48.47257 48.04903
# Shear Modulus (GPa) = 29.58880 30.72727 30.15803
#
# Velocity S-wave (km/s) = 3.81529 3.88799 3.85181
# Velocity P-wave (km/s) = 6.54510 6.63338 6.58939
#
# Compressibility (1/GPa) = 0.02099716
#
# Stress axis : x y z
#
# Youngs Moduli (GPa) = 70.00837 70.00837 69.92065
#
# Poissons Ratio (x) = 0.39278 0.18620
# Poissons Ratio (y) = 0.39278 0.18620
# Poissons Ratio (z) = 0.18643 0.18643
#
# Static dielectric constant tensor:
#      x y z
#    x 3.742540 0.000000 0.000000 
#    y 0.000000 3.742540 0.000000 
#    z 0.000000 0.000000 3.709090 
# 
# 
# High freq. dielectric constant tensor:
#      x y z
#    x 1.791980 0.000000 0.000000 
#    y 0.000000 1.791980 0.000000 
#    z 0.000000 0.000000 1.800330 
# 
# From -- ./inp_files/2698.got.cif
#   From: 2010.03.12/outbox.cif.g09.slc.cpg/sg153_2_cif.got.tgz:2698.got - 2010.04.03 13:48:33.
