data_PCOD8322677
_publ_section_title
;
Structure prediction by ZEFSAII (Michael W. Deem and Ramdas Pophale) SiO2 
 PCOD8322677
Probable space group: P 3 M 1
;
_chemical_formula_sum "Si O2"
_cell_formula_units_Z 48
_cell_length_a 12.754451
_cell_length_b 12.754451
_cell_length_c 20.178604
_cell_angle_alpha 90.000000
_cell_angle_beta 90.000000
_cell_angle_gamma 120.000000
_cell_volume 2842.793335
_symmetry_space_group_name_H-M "P 3 M 1"
_symmetry_group_IT_number 156
_symmetry_cell_setting 'hexagonal'
loop_
_space_group_symop_operation_xyz
x,y,z
-y,x-y,z
-x+y,-x,z
-x+y,y,z
x,x-y,z
-y,-x,z
loop_
_atom_site_type_symbol
_atom_site_label
_atom_site_fract_x
_atom_site_fract_y
_atom_site_fract_z
Si Si1 0.666382 0.577583 0.506570
Si Si2 0.089822 0.421711 0.127126
Si Si3 0.000158 0.240524 0.392226
Si Si4 0.334777 0.423154 0.627125
Si Si5 0.908049 0.333545 0.741307
Si Si6 0.758619 0.758830 0.241306
Si Si7 0.666509 0.573700 0.892226
Si Si8 0.244249 0.244534 0.006570
O O1 0.787083 0.574166 0.522283
O O2 0.558289 0.441712 0.499148
O O3 0.675295 0.646450 0.438380
O O4 0.646003 0.647406 0.566148
O O5 0.230753 0.461505 0.126870
O O6 0.076828 0.538414 0.120529
O O7 0.020669 0.334737 0.066148
O O8 0.026436 0.353924 0.195119
O O9 0.128287 0.256574 0.413460
O O10 0.002100 0.282706 0.316833
O O11 0.900312 0.099688 0.400298
O O12 0.205082 0.410164 0.620529
O O13 0.435917 0.564084 0.626868
O O14 0.339178 0.359769 0.695118
O O15 0.868956 0.434478 0.730111
O O16 0.794739 0.205262 0.721618
O O17 0.949375 0.335434 0.816833
O O18 0.871928 0.743856 0.221617
O O19 0.797712 0.898856 0.230110
O O20 0.766356 0.532711 0.900298
O O21 0.538381 0.461620 0.913460
O O22 0.695511 0.686884 0.938381
O O23 0.108376 0.216752 0.999147
O O24 0.240836 0.120418 0.022284
#
# Coordination Sequence:
#
# PCOD8322677 Si02
#       8
#     6   6   6   6   6   6   6   6
#     4  10  20  33  50  71  95 124 158 197 239 283
#     4  10  20  33  49  68  92 122 155 193 236 283
#     4   9  17  30  49  73  99 127 159 194 233 276
#     4  10  20  33  49  68  92 122 155 193 236 283
#     4   9  17  30  50  74  98 125 158 196 234 274
#     4   9  17  30  50  74  98 125 158 196 234 274
#     4   9  17  30  49  73  99 127 159 194 233 276
#     4  10  20  33  50  71  95 124 158 197 239 283
#
# _framework density 16.884802000000001
#
# number of rings (size 3 to 8) (size 9 to 14) (size 15 to 20)
#    0.000    2.500    0.000    2.500    0.000    3.000 
#    0.000    2.500    0.000    6.000    0.000    0.000 
#    0.000    0.000    0.000    0.000    0.000    0.000 
#
# Total GULP energy -595315.984905 kJ/mol
# GULP energy per Si atom -12402.416352 kJ/mol
# Density = 1.684637 g / cm^3
# Si number density = 16.884802 Si / 1000 Ang^3
#
#
#
# Elastic Constant Matrix: (Units=GPa)
#
#
# Indices 1 2 3 4 5 6 
#
# 1 114.8900 72.1185 64.9244 0.0002 0.0002 0.0000
# 2 72.1185 114.8900 64.9244 -0.0002 -0.0002 0.0000
# 3 64.9244 64.9244 112.0109 0.0000 0.0000 0.0000
# 4 0.0002 -0.0002 0.0000 25.0289 0.0000 -0.0002
# 5 0.0002 -0.0002 0.0000 0.0000 25.0289 0.0002
# 6 0.0000 0.0000 0.0000 -0.0002 0.0002 21.3858
#
#
#
# Elastic Compliance Matrix: (Units=1/GPa)
#
#
# Indices 1 2 3 4 5 6 
#
# 1 0.016165 -0.007216 -0.005187 0.000000 0.000000 0.000000
# 2 -0.007216 0.016165 -0.005187 0.000000 0.000000 0.000000
# 3 -0.005187 -0.005187 0.014941 0.000000 0.000000 0.000000
# 4 0.000000 0.000000 0.000000 0.039954 0.000000 0.000000
# 5 0.000000 0.000000 0.000000 0.000000 0.039954 0.000000
# 6 0.000000 0.000000 0.000000 0.000000 0.000000 0.046760
#
#
# Mechanical properties :
#
#
# Convention : Reuss Voigt Hill
#
# Bulk Modulus (GPa) = 82.70940 82.85841 82.78391
# Shear Modulus (GPa) = 23.45799 23.61028 23.53413
#
# Velocity S-wave (km/s) = 3.73137 3.74346 3.73742
# Velocity P-wave (km/s) = 8.22527 8.23796 8.23162
#
# Compressibility (1/GPa) = 0.01209052
#
# Stress axis : x y z
#
# Youngs Moduli (GPa) = 61.86393 61.86393 66.93077
#
# Poissons Ratio (x) = 0.44638 0.34717
# Poissons Ratio (y) = 0.44638 0.34717
# Poissons Ratio (z) = 0.32089 0.32089
#
# Static dielectric constant tensor:
#      x y z
#    x 3.039230 0.000000 0.000000 
#    y 0.000000 3.039230 0.000000 
#    z 0.000000 0.000000 3.394170 
# 
# 
# High freq. dielectric constant tensor:
#      x y z
#    x 1.645160 0.000000 0.000000 
#    y 0.000000 1.645160 0.000000 
#    z 0.000000 0.000000 1.664780 
# 
# From -- ./inp_files/1092.got.cif
#   From: 2010.03.12/outbox.cif.g09.slc.cpg/sg156_cif.got.tgz:1092.got - 2010.04.03 13:58:47.
