data_PCOD8322882
_publ_section_title
;
Structure prediction by ZEFSAII (Michael W. Deem and Ramdas Pophale) SiO2 
 PCOD8322882
Probable space group: R 3 M
;
_chemical_formula_sum "Si O2"
_cell_formula_units_Z 69
_cell_length_a 18.917079
_cell_length_b 18.917079
_cell_length_c 10.507565
_cell_angle_alpha 90.000000
_cell_angle_beta 90.000000
_cell_angle_gamma 120.000000
_cell_volume 3256.423438
_symmetry_space_group_name_H-M "R 3 M"
_symmetry_group_IT_number 160
_symmetry_cell_setting 'hexagonal'
loop_
_space_group_symop_operation_xyz
x,y,z
-y,x-y,z
-x+y,-x,z
-x+y,y,z
x,x-y,z
-y,-x,z
2/3+x,1/3+y,1/3+z
2/3-y,1/3+x-y,1/3+z
2/3-x+y,1/3-x,1/3+z
2/3-x+y,1/3+y,1/3+z
2/3+x,1/3+x-y,1/3+z
2/3-y,1/3-x,1/3+z
1/3+x,2/3+y,2/3+z
1/3-y,2/3+x-y,2/3+z
1/3-x+y,2/3-x,2/3+z
1/3-x+y,2/3+y,2/3+z
1/3+x,2/3+x-y,2/3+z
1/3-y,2/3-x,2/3+z
loop_
_atom_site_type_symbol
_atom_site_label
_atom_site_fract_x
_atom_site_fract_y
_atom_site_fract_z
Si Si1 0.921804 0.541102 0.156649
Si Si2 0.666668 0.333334 0.132650
Si Si3 0.000000 0.000000 0.484453
Si Si4 0.138268 0.861733 0.149922
Si Si5 0.313886 0.399714 0.208787
Si Si6 0.819510 0.909755 0.900719
Si Si7 0.758541 0.517082 0.751148
O O1 0.912419 0.456210 0.211888
O O2 0.844425 0.552169 0.170616
O O3 0.991668 0.619513 0.228848
O O4 0.938736 0.541882 0.007707
O O5 0.579591 0.289796 0.196458
O O6 0.666667 0.333334 0.975491
O O7 0.043649 0.956352 0.418515
O O8 0.098278 0.763815 0.125701
O O9 0.114112 0.885888 0.282789
O O10 0.100881 0.899120 0.049985
O O11 0.363890 0.490833 0.154943
#
# Coordination Sequence:
#
# PCOD8322882 Si02
#       7
#    18   3   3   9  18   9   9
#     4  12  24  44  72 104 137 185 239 294 354 423
#     4  12  24  52  71 103 150 174 256 302 337 429
#     4  12  27  46  80 109 129 198 244 290 355 429
#     4  12  27  48  68 106 155 186 230 297 370 427
#     4  12  21  47  70 102 144 183 238 298 348 420
#     4  12  28  43  71 106 140 192 226 298 362 425
#     4  12  26  45  76 102 142 190 238 293 352 428
#
# _framework density 21.188890000000001
#
# number of rings (size 3 to 8) (size 9 to 14) (size 15 to 20)
#    0.000    0.000    6.522    4.696    0.000    1.043 
#    0.000    0.000    0.000    0.000    0.000    0.000 
#    0.000    0.000    0.000    0.000    0.000    0.000 
#
# Total GULP energy -285010.569285 kJ/mol
# GULP energy per Si atom -12391.763882 kJ/mol
# Density = 2.114066 g / cm^3
# Si number density = 21.188890 Si / 1000 Ang^3
#
#
#
# Elastic Constant Matrix: (Units=GPa)
#
#
# Indices 1 2 3 4 5 6 
#
# 1 148.7876 88.7892 22.5748 -1.1950 0.0007 0.0004
# 2 88.7892 148.7875 22.5750 1.1954 -0.0003 -0.0003
# 3 22.5748 22.5750 65.4330 -0.0001 0.0000 -0.0001
# 4 -1.1950 1.1954 -0.0001 28.5930 0.0006 0.0004
# 5 0.0007 -0.0003 0.0000 0.0006 28.5943 -1.1943
# 6 0.0004 -0.0003 -0.0001 0.0004 -1.1943 29.9998
#
#
#
# Elastic Compliance Matrix: (Units=1/GPa)
#
#
# Indices 1 2 3 4 5 6 
#
# 1 0.010600 -0.006095 -0.001554 0.000698 0.000000 0.000000
# 2 -0.006095 0.010600 -0.001554 -0.000698 0.000000 0.000000
# 3 -0.001554 -0.001554 0.016355 0.000000 0.000000 0.000000
# 4 0.000698 -0.000698 0.000000 0.035032 -0.000001 -0.000001
# 5 0.000000 0.000000 0.000000 -0.000001 0.035030 0.001395
# 6 0.000000 0.000000 0.000000 -0.000001 0.001395 0.033389
#
#
# Mechanical properties :
#
#
# Convention : Reuss Voigt Hill
#
# Bulk Modulus (GPa) = 52.22529 70.09846 61.16187
# Shear Modulus (GPa) = 30.15766 32.70868 31.43317
#
# Velocity S-wave (km/s) = 3.77673 3.93322 3.85577
# Velocity P-wave (km/s) = 6.61205 7.33358 6.98214
#
# Compressibility (1/GPa) = 0.01914781
#
# Stress axis : x y z
#
# Youngs Moduli (GPa) = 94.34218 94.34201 61.14278
#
# Poissons Ratio (x) = 0.57503 0.09502
# Poissons Ratio (y) = 0.57504 0.09502
# Poissons Ratio (z) = 0.14661 0.14662
#
# Static dielectric constant tensor:
#      x y z
#    x 4.407830 -0.000040 -0.000010 
#    y -0.000040 4.407910 -0.000020 
#    z -0.000010 -0.000020 3.735880 
# 
# 
# High freq. dielectric constant tensor:
#      x y z
#    x 1.853660 0.000000 0.000000 
#    y 0.000000 1.853660 0.000000 
#    z 0.000000 0.000000 1.810040 
# 
# From -- ./inp_files/711.got.cif
#   From: 2010.03.12/outbox.cif.g09.slc.cpg/sg160_1_cif.got.tgz:711.got - 2010.04.02 06:26:15.
