data_PCOD8322928
_publ_section_title
;
Structure prediction by ZEFSAII (Michael W. Deem and Ramdas Pophale) SiO2 
 PCOD8322928
Probable space group: P -3 1 M 
;
_chemical_formula_sum "Si O2"
_cell_formula_units_Z 52
_cell_length_a 18.134886
_cell_length_b 18.134886
_cell_length_c 11.589401
_cell_angle_alpha 90.000000
_cell_angle_beta 90.000000
_cell_angle_gamma 120.000000
_cell_volume 3300.815738
_symmetry_space_group_name_H-M "P -3 1 M "
_symmetry_group_IT_number 162
_symmetry_cell_setting 'hexagonal'
loop_
_space_group_symop_operation_xyz
x,y,z
-y,x-y,z
-x+y,-x,z
-y,-x,-z
-x+y,y,-z
x,x-y,-z
-x,-y,-z
y,-x+y,-z
x-y,x,-z
y,x,z
x-y,-y,z
-x,-x+y,z
loop_
_atom_site_type_symbol
_atom_site_label
_atom_site_fract_x
_atom_site_fract_y
_atom_site_fract_z
Si Si1 0.095270 0.467228 0.977761
Si Si2 0.907486 0.577358 0.766181
Si Si3 0.333334 0.666667 0.138259
Si Si4 0.427785 0.523948 0.374653
Si Si5 0.791277 0.517006 0.225587
O O1 0.147744 0.446392 0.885330
O O2 0.000000 0.431731 0.927660
O O3 0.138247 0.569124 0.000000
O O4 0.093038 0.421893 0.095831
O O5 0.899271 0.490826 0.717771
O O6 0.823316 0.581801 0.731874
O O7 0.000000 0.656688 0.724532
O O8 0.428502 0.708987 0.188798
O O9 0.333334 0.666667 0.000000
O O10 0.435192 0.564809 0.500000
O O11 0.445292 0.445292 0.385480
O O12 0.332017 0.490059 0.333781
#
# Coordination Sequence:
#
# PCOD8322928 Si02
#       5
#    12  12   4  12  12
#     4  10  17  28  47  67  89 115 146 187 237 284
#     4  10  20  32  44  63  89 115 145 188 238 275
#     4  12  21  27  40  71  91 108 144 199 236 271
#     4  10  21  35  47  61  86 119 155 195 238 279
#     4  12  19  31  46  66  88 118 153 190 235 281
#
# _framework density 15.753681
#
# number of rings (size 3 to 8) (size 9 to 14) (size 15 to 20)
#    0.000    1.385    4.615    3.462    0.000    0.923 
#    0.000    0.000    0.000    0.000    0.000    0.000 
#    0.000    0.000    0.000    5.538    0.000   41.538 
#
# Total GULP energy -644557.746777 kJ/mol
# GULP energy per Si atom -12395.341284 kJ/mol
# Density = 1.571783 g / cm^3
# Si number density = 15.753681 Si / 1000 Ang^3
#
#
#
# Elastic Constant Matrix: (Units=GPa)
#
#
# Indices 1 2 3 4 5 6 
#
# 1 83.8157 43.2955 33.5394 0.0002 8.1330 0.0003
# 2 43.2955 83.8161 33.5395 -0.0002 -8.1329 -0.0003
# 3 33.5394 33.5395 77.7605 0.0002 0.0001 0.0001
# 4 0.0002 -0.0002 0.0002 9.9521 -0.0001 -8.1334
# 5 8.1330 -8.1329 0.0001 -0.0001 9.9525 -0.0002
# 6 0.0003 -0.0003 0.0001 -8.1334 -0.0002 20.2595
#
#
#
# Elastic Compliance Matrix: (Units=1/GPa)
#
#
# Indices 1 2 3 4 5 6 
#
# 1 0.023456 -0.013270 -0.004393 -0.000002 -0.030012 -0.000002
# 2 -0.013270 0.023456 -0.004393 0.000002 0.030012 0.000002
# 3 -0.004393 -0.004393 0.016650 -0.000001 0.000000 0.000000
# 4 -0.000002 0.000002 -0.000001 0.149546 0.000006 0.060037
# 5 -0.030012 0.030012 0.000000 0.000006 0.149526 0.000005
# 6 -0.000002 0.000002 0.000000 0.060037 0.000005 0.073462
#
#
# Mechanical properties :
#
#
# Convention : Reuss Voigt Hill
#
# Bulk Modulus (GPa) = 51.41927 51.79346 51.60636
# Shear Modulus (GPa) = 10.27343 17.03402 13.65372
#
# Velocity S-wave (km/s) = 2.55645 3.29184 2.94717
# Velocity P-wave (km/s) = 6.43617 6.88452 6.66412
#
# Compressibility (1/GPa) = 0.01944796
#
# Stress axis : x y z
#
# Youngs Moduli (GPa) = 42.63306 42.63330 60.06115
#
# Poissons Ratio (x) = 0.56576 0.26386
# Poissons Ratio (y) = 0.56576 0.26386
# Poissons Ratio (z) = 0.18729 0.18730
#
# Static dielectric constant tensor:
#      x y z
#    x 3.028350 0.000000 0.000000 
#    y 0.000000 3.028340 0.000000 
#    z 0.000000 0.000000 2.990330 
# 
# 
# High freq. dielectric constant tensor:
#      x y z
#    x 1.575040 0.000000 0.000000 
#    y 0.000000 1.575040 0.000000 
#    z 0.000000 0.000000 1.609940 
# 
# From -- ./inp_files/2215.got.cif
#   From: 2010.03.12/outbox.cif.g09.slc.cpg/sg162_2_cif.got.tgz:2215.got - 2010.04.02 06:27:41.
