data_PCOD8322817
_publ_section_title
;
Structure prediction by ZEFSAII (Michael W. Deem and Ramdas Pophale) SiO2 
 PCOD8322817
Probable space group: P 3 1 C
;
_chemical_formula_sum "Si O2"
_cell_formula_units_Z 28
_cell_length_a 11.566754
_cell_length_b 11.566754
_cell_length_c 13.510000
_cell_angle_alpha 90.000000
_cell_angle_beta 90.000000
_cell_angle_gamma 120.000000
_cell_volume 1565.341067
_symmetry_space_group_name_H-M "P 3 1 C"
_symmetry_group_IT_number 159
_symmetry_cell_setting 'hexagonal'
loop_
_space_group_symop_operation_xyz
x,y,z
-y,x-y,z
-x+y,-x,z
y,x,1/2+z
x-y,-y,1/2+z
-x,-x+y,1/2+z
loop_
_atom_site_type_symbol
_atom_site_label
_atom_site_fract_x
_atom_site_fract_y
_atom_site_fract_z
Si Si1 0.329832 0.401194 0.001620
Si Si2 0.000000 0.000000 0.098906
Si Si3 0.000000 0.000000 0.830096
Si Si4 0.928637 0.329832 0.501620
Si Si5 0.151429 0.848571 0.597407
Si Si6 0.848552 0.151448 0.332395
O O1 0.369531 0.300329 0.053758
O O2 0.451245 0.548755 0.015654
O O3 0.195956 0.391913 0.051104
O O4 0.298788 0.368615 0.883641
O O5 0.924791 0.075208 0.060285
O O6 0.000000 0.000000 0.214350
O O7 0.075085 0.150170 0.868375
O O8 0.930173 0.298788 0.383641
O O9 0.069203 0.369531 0.553758
O O10 0.161487 0.838513 0.715495
#
# Coordination Sequence:
#
# PCOD8322817 Si02
#       6
#     6   2   2   6   6   6
#     4  10  22  38  58  84 122 157 200 243 295 355
#     4   9  15  31  59  94 109 125 184 256 302 343
#     4   9  15  31  59  94 103 137 181 247 302 349
#     4  10  22  38  58  84 122 157 200 243 295 355
#     4  11  19  37  64  90 114 154 199 253 303 359
#     4   9  21  33  62  88 122 146 196 248 307 353
#
# _framework density 17.887477000000001
#
# number of rings (size 3 to 8) (size 9 to 14) (size 15 to 20)
#    1.286    0.857    2.143    1.714    0.000    3.429 
#    1.286    0.000    0.000    0.000    0.000    0.000 
#    0.000    0.000    0.000    0.000    0.000    0.000 
#
# Total GULP energy -346888.200286 kJ/mol
# GULP energy per Si atom -12388.864296 kJ/mol
# Density = 1.784676 g / cm^3
# Si number density = 17.887477 Si / 1000 Ang^3
#
#
#
# Elastic Constant Matrix: (Units=GPa)
#
#
# Indices 1 2 3 4 5 6 
#
# 1 102.6010 35.3279 29.7717 0.0000 0.0001 0.0000
# 2 35.3279 102.6010 29.7717 0.0000 -0.0001 0.0000
# 3 29.7717 29.7717 112.8300 0.0000 0.0000 0.0000
# 4 0.0000 0.0000 0.0000 16.7343 0.0000 -0.0001
# 5 0.0001 -0.0001 0.0000 0.0000 16.7343 0.0000
# 6 0.0000 0.0000 0.0000 -0.0001 0.0000 33.6365
#
#
#
# Elastic Compliance Matrix: (Units=1/GPa)
#
#
# Indices 1 2 3 4 5 6 
#
# 1 0.011523 -0.003341 -0.002159 0.000000 0.000000 0.000000
# 2 -0.003341 0.011523 -0.002159 0.000000 0.000000 0.000000
# 3 -0.002159 -0.002159 0.010002 0.000000 0.000000 0.000000
# 4 0.000000 0.000000 0.000000 0.059757 0.000000 0.000000
# 5 0.000000 0.000000 0.000000 0.000000 0.059757 0.000000
# 6 0.000000 0.000000 0.000000 0.000000 0.000000 0.029730
#
#
# Mechanical properties :
#
#
# Convention : Reuss Voigt Hill
#
# Bulk Modulus (GPa) = 56.39955 56.41940 56.40947
# Shear Modulus (GPa) = 24.56734 28.29843 26.43288
#
# Velocity S-wave (km/s) = 3.71001 3.98178 3.84830
# Velocity P-wave (km/s) = 7.06759 7.26287 7.16590
#
# Compressibility (1/GPa) = 0.01773064
#
# Stress axis : x y z
#
# Youngs Moduli (GPa) = 86.77954 86.77954 99.97773
#
# Poissons Ratio (x) = 0.28996 0.21585
# Poissons Ratio (y) = 0.28996 0.21585
# Poissons Ratio (z) = 0.18735 0.18735
#
# Static dielectric constant tensor:
#      x y z
#    x 3.294390 0.000000 0.000000 
#    y 0.000000 3.294390 0.000000 
#    z 0.000000 0.000000 3.097190 
# 
# 
# High freq. dielectric constant tensor:
#      x y z
#    x 1.681230 0.000000 0.000000 
#    y 0.000000 1.681230 0.000000 
#    z 0.000000 0.000000 1.684630 
# 
# From -- ./inp_files/791.got.cif
#   From: 2010.03.12/outbox.cif.g09.slc.cpg/sg159_cif.got.tgz:791.got - 2010.04.03 14:00:19.
