data_PCOD8322485
_publ_section_title
;
Structure prediction by ZEFSAII (Michael W. Deem and Ramdas Pophale) SiO2 
 PCOD8322485
Probable space group: R 3 2
;
_chemical_formula_sum "Si O2"
_cell_formula_units_Z 84
_cell_length_a 14.739220
_cell_length_b 14.739220
_cell_length_c 23.901485
_cell_angle_alpha 90.000000
_cell_angle_beta 90.000000
_cell_angle_gamma 120.000000
_cell_volume 4496.809800
_symmetry_space_group_name_H-M "R 3 2"
_symmetry_group_IT_number 155
_symmetry_cell_setting 'hexagonal'
loop_
_space_group_symop_operation_xyz
x,y,z
-y,x-y,z
-x+y,-x,z
x-y,-y,-z
-x,-x+y,-z
y,x,-z
2/3+x,1/3+y,1/3+z
2/3-y,1/3+x-y,1/3+z
2/3-x+y,1/3-x,1/3+z
2/3+x-y,1/3-y,1/3-z
2/3-x,1/3-x+y,1/3-z
2/3+y,1/3+x,1/3-z
1/3+x,2/3+y,2/3+z
1/3-y,2/3+x-y,2/3+z
1/3-x+y,2/3-x,2/3+z
1/3+x-y,2/3-y,2/3-z
1/3-x,2/3-x+y,2/3-z
1/3+y,2/3+x,2/3-z
loop_
_atom_site_type_symbol
_atom_site_label
_atom_site_fract_x
_atom_site_fract_y
_atom_site_fract_z
Si Si1 0.000000 0.000000 0.178899
Si Si2 0.666667 0.333334 0.020219
Si Si3 0.358653 0.383486 0.410204
Si Si4 0.638254 0.128762 0.693889
Si Si5 0.220760 0.780842 0.141086
Si Si6 0.502051 0.888000 0.819532
O O1 0.058478 0.115673 0.152453
O O2 0.000000 0.000000 0.246027
O O3 0.782084 0.419453 0.997292
O O4 0.414961 0.463629 0.358519
O O5 0.242512 0.288625 0.391155
O O6 0.346311 0.448979 0.459598
O O7 0.430258 0.334896 0.430446
O O8 0.555452 0.120839 0.740472
O O9 0.142955 0.666667 0.166667
O O10 0.333334 0.824219 0.166667
O O11 0.171756 0.853937 0.156142
#
# Coordination Sequence:
#
# PCOD8322485 Si02
#       6
#     6   6  18  18  18  18
#     4  12  24  39  63  83 122 159 210 264 295 359
#     4  12  21  30  52 100 121 148 201 240 313 371
#     4   9  18  37  60  76 114 161 198 243 303 354
#     4  10  19  32  57  86 121 158 190 244 300 368
#     4  11  20  36  59  91 127 164 193 241 310 380
#     4  10  20  40  57  84 114 160 206 248 306 354
#
# _framework density 18.679911000000001
#
# number of rings (size 3 to 8) (size 9 to 14) (size 15 to 20)
#    0.000    1.714    6.429    1.500    0.000    0.000 
#    3.857    0.000    0.000   25.714    0.000    0.000 
#    0.000    0.000    0.000    0.000    0.000    0.000 
#
# Total GULP energy -346892.031611 kJ/mol
# GULP energy per Si atom -12389.001129 kJ/mol
# Density = 1.863739 g / cm^3
# Si number density = 18.679911 Si / 1000 Ang^3
#
#
#
# Elastic Constant Matrix: (Units=GPa)
#
#
# Indices 1 2 3 4 5 6 
#
# 1 83.7754 34.5744 32.5547 7.4667 -0.0001 0.0000
# 2 34.5744 83.7751 32.5544 -7.4669 0.0001 0.0000
# 3 32.5547 32.5544 125.6629 -0.0001 0.0000 0.0000
# 4 7.4667 -7.4669 -0.0001 31.5964 0.0000 0.0001
# 5 -0.0001 0.0001 0.0000 0.0000 31.5965 7.4668
# 6 0.0000 0.0000 0.0000 0.0001 7.4668 24.6005
#
#
#
# Elastic Compliance Matrix: (Units=1/GPa)
#
#
# Indices 1 2 3 4 5 6 
#
# 1 0.015875 -0.006021 -0.002553 -0.005174 0.000000 0.000000
# 2 -0.006021 0.015875 -0.002553 0.005174 0.000000 0.000000
# 3 -0.002553 -0.002553 0.009280 0.000000 0.000000 0.000000
# 4 -0.005174 0.005174 0.000000 0.034095 0.000000 0.000000
# 5 0.000000 0.000000 0.000000 0.000000 0.034095 -0.010349
# 6 0.000000 0.000000 0.000000 0.000000 -0.010349 0.043791
#
#
# Mechanical properties :
#
#
# Convention : Reuss Voigt Hill
#
# Bulk Modulus (GPa) = 53.25611 54.73116 53.99364
# Shear Modulus (GPa) = 27.54495 30.46065 29.00280
#
# Velocity S-wave (km/s) = 3.84419 4.04253 3.94460
# Velocity P-wave (km/s) = 6.94805 7.15210 7.05081
#
# Compressibility (1/GPa) = 0.01877719
#
# Stress axis : x y z
#
# Youngs Moduli (GPa) = 62.99364 62.99338 107.75327
#
# Poissons Ratio (x) = 0.37927 0.27507
# Poissons Ratio (y) = 0.37927 0.27507
# Poissons Ratio (z) = 0.16081 0.16081
#
# Static dielectric constant tensor:
#      x y z
#    x 3.208280 0.000000 0.000000 
#    y 0.000000 3.208280 0.000000 
#    z 0.000000 0.000000 3.958560 
# 
# 
# High freq. dielectric constant tensor:
#      x y z
#    x 1.694520 0.000000 0.000000 
#    y 0.000000 1.694520 0.000000 
#    z 0.000000 0.000000 1.750740 
# 
# From -- ./inp_files/7391.got.cif
#   From: 2010.03.12/outbox.cif.g09.slc.cpg/sg155_4_cif.got.tgz:7391.got - 2010.04.03 13:54:13.
