data_PCOD8322246
_publ_section_title
;
Structure prediction by ZEFSAII (Michael W. Deem and Ramdas Pophale) SiO2 
 PCOD8322246
Probable space group: P 32 1 2
;
_chemical_formula_sum "Si O2"
_cell_formula_units_Z 30
_cell_length_a 18.846751
_cell_length_b 18.846751
_cell_length_c 5.091715
_cell_angle_alpha 90.000000
_cell_angle_beta 90.000000
_cell_angle_gamma 120.000000
_cell_volume 1566.273875
_symmetry_space_group_name_H-M "P 32 1 2"
_symmetry_group_IT_number 153
_symmetry_cell_setting 'hexagonal'
loop_
_space_group_symop_operation_xyz
x,y,z
-y,x-y,2/3+z
-x+y,-x,1/3+z
-y,-x,1/3-z
-x+y,y,2/3-z
x,x-y,-z
loop_
_atom_site_type_symbol
_atom_site_label
_atom_site_fract_x
_atom_site_fract_y
_atom_site_fract_z
Si Si1 0.571750 0.060394 0.585320
Si Si2 0.909606 0.254930 0.668140
Si Si3 0.133806 0.523602 0.752124
Si Si4 0.960277 0.206288 0.171193
Si Si5 0.719657 0.859829 0.000000
Si Si6 0.199330 0.800671 0.166667
O O1 0.546260 0.092520 0.333334
O O2 0.668020 0.097577 0.582477
O O3 0.527905 0.963198 0.594982
O O4 0.547789 0.095578 0.833334
O O5 0.818966 0.181035 0.666667
O O6 0.942887 0.262093 0.373285
O O7 0.967369 0.242292 0.878579
O O8 0.168547 0.584274 0.500000
O O9 0.162153 0.457480 0.787804
O O10 0.166508 0.583254 0.000000
O O11 0.889514 0.110486 0.166667
O O12 0.044620 0.216508 0.280491
O O13 0.659743 0.829606 0.248347
#
# Coordination Sequence:
#
# PCOD8322246 Si02
#       6
#     6   6   6   6   3   3
#     4  10  19  32  54  79 107 137 176 225 275 327
#     4  10  20  36  57  82 110 146 184 232 280 342
#     4  10  21  37  53  77 110 142 185 232 283 336
#     4  10  21  36  57  83 116 147 189 232 289 342
#     4  12  22  36  62  86 116 148 196 246 286 350
#     4  12  24  38  60  86 110 152 200 242 296 340
#
# _framework density 19.153737
#
# number of rings (size 3 to 8) (size 9 to 14) (size 15 to 20)
#    0.000    1.600    0.000    6.000    0.000    3.200 
#    1.800    0.000    8.800    1.200    0.000    0.000 
#    0.000    0.000    0.000    0.000    0.000    0.000 
#
# Total GULP energy -371813.257214 kJ/mol
# GULP energy per Si atom -12393.775240 kJ/mol
# Density = 1.911014 g / cm^3
# Si number density = 19.153737 Si / 1000 Ang^3
#
#
#
# Elastic Constant Matrix: (Units=GPa)
#
#
# Indices 1 2 3 4 5 6 
#
# 1 84.5277 50.7677 49.7325 -0.0002 -2.3215 0.0000
# 2 50.7677 84.5277 49.7325 0.0002 2.3215 0.0000
# 3 49.7325 49.7325 159.2067 0.0000 0.0000 0.0000
# 4 -0.0002 0.0002 0.0000 30.6273 0.0000 2.3215
# 5 -2.3215 2.3215 0.0000 0.0000 30.6273 -0.0002
# 6 0.0000 0.0000 0.0000 2.3215 -0.0002 16.8800
#
#
#
# Elastic Compliance Matrix: (Units=1/GPa)
#
#
# Indices 1 2 3 4 5 6 
#
# 1 0.019764 -0.010169 -0.002997 0.000000 0.002269 0.000000
# 2 -0.010169 0.019764 -0.002997 0.000000 -0.002269 0.000000
# 3 -0.002997 -0.002997 0.008154 0.000000 0.000000 0.000000
# 4 0.000000 0.000000 0.000000 0.032995 0.000000 -0.004538
# 5 0.002269 -0.002269 0.000000 0.000000 0.032995 0.000000
# 6 0.000000 0.000000 0.000000 -0.004538 0.000000 0.059866
#
#
# Mechanical properties :
#
#
# Convention : Reuss Voigt Hill
#
# Bulk Modulus (GPa) = 65.12826 69.85865 67.49346
# Shear Modulus (GPa) = 23.69882 27.49553 25.59717
#
# Velocity S-wave (km/s) = 3.52134 3.79293 3.65966
# Velocity P-wave (km/s) = 7.11406 7.46549 7.29189
#
# Compressibility (1/GPa) = 0.01535432
#
# Stress axis : x y z
#
# Youngs Moduli (GPa) = 50.59766 50.59766 122.64489
#
# Poissons Ratio (x) = 0.51453 0.36758
# Poissons Ratio (y) = 0.51453 0.36758
# Poissons Ratio (z) = 0.15165 0.15165
#
# Static dielectric constant tensor:
#      x y z
#    x 3.451880 0.000000 0.000000 
#    y 0.000000 3.451880 0.000000 
#    z 0.000000 0.000000 4.166550 
# 
# 
# High freq. dielectric constant tensor:
#      x y z
#    x 1.734550 0.000000 0.000000 
#    y 0.000000 1.734550 0.000000 
#    z 0.000000 0.000000 1.772540 
# 
# From -- ./inp_files/494.got.cif
#   From: 2010.03.12/outbox.cif.g09.slc.cpg/sg153_1_cif.got.tgz:494.got - 2010.04.03 13:48:33.
