data_PCOD8322248
_publ_section_title
;
Structure prediction by ZEFSAII (Michael W. Deem and Ramdas Pophale) SiO2 
 PCOD8322248
Probable space group: P 32 1 2
;
_chemical_formula_sum "Si O2"
_cell_formula_units_Z 33
_cell_length_a 14.242947
_cell_length_b 14.242947
_cell_length_c 10.016180
_cell_angle_alpha 90.000000
_cell_angle_beta 90.000000
_cell_angle_gamma 120.000000
_cell_volume 1759.675019
_symmetry_space_group_name_H-M "P 32 1 2"
_symmetry_group_IT_number 153
_symmetry_cell_setting 'hexagonal'
loop_
_space_group_symop_operation_xyz
x,y,z
-y,x-y,2/3+z
-x+y,-x,1/3+z
-y,-x,1/3-z
-x+y,y,2/3-z
x,x-y,-z
loop_
_atom_site_type_symbol
_atom_site_label
_atom_site_fract_x
_atom_site_fract_y
_atom_site_fract_z
Si Si1 0.148843 0.177746 0.204925
Si Si2 0.406628 0.301300 0.715600
Si Si3 0.690899 0.083693 0.867088
Si Si4 0.729466 0.458932 0.833334
Si Si5 0.162351 0.192874 0.718844
Si Si6 0.536412 0.426620 0.952042
O O1 0.102413 0.204825 0.333334
O O2 0.269083 0.280167 0.187345
O O3 0.150629 0.067358 0.221821
O O4 0.074505 0.164934 0.079421
O O5 0.398006 0.197904 0.789333
O O6 0.469251 0.313209 0.577402
O O7 0.286752 0.280318 0.683623
O O8 0.470651 0.407078 0.812124
O O9 0.640993 0.091148 0.729026
O O10 0.608795 0.057846 0.992983
O O11 0.626602 0.387520 0.929424
O O12 0.122127 0.244253 0.833334
#
# Coordination Sequence:
#
# PCOD8322248 Si02
#       6
#     6   6   6   3   6   6
#     4  11  22  36  56  80 113 148 190 228 276 326
#     4  10  21  33  52  75 115 143 185 228 266 322
#     4   9  21  35  53  77 112 143 186 231 270 326
#     4  10  22  34  50  80 108 152 184 216 268 330
#     4  11  22  35  54  81 113 150 189 224 272 325
#     4  10  19  35  53  76 109 147 183 220 275 324
#
# _framework density 18.753464000000001
#
# number of rings (size 3 to 8) (size 9 to 14) (size 15 to 20)
#    0.000    1.818    0.000    4.364    7.636    8.727 
#    0.000    0.000    0.000    0.000    0.000    0.000 
#   27.273    0.000    0.000    0.000    0.000    0.000 
#
# Total GULP energy -408896.844749 kJ/mol
# GULP energy per Si atom -12390.813477 kJ/mol
# Density = 1.871078 g / cm^3
# Si number density = 18.753464 Si / 1000 Ang^3
#
#
#
# Elastic Constant Matrix: (Units=GPa)
#
#
# Indices 1 2 3 4 5 6 
#
# 1 76.0347 37.3448 32.0897 0.0001 -2.3723 0.0000
# 2 37.3448 76.0347 32.0897 -0.0001 2.3723 0.0000
# 3 32.0897 32.0897 119.6185 0.0000 0.0000 0.0000
# 4 0.0001 -0.0001 0.0000 37.3569 0.0000 2.3723
# 5 -2.3723 2.3723 0.0000 0.0000 37.3569 0.0001
# 6 0.0000 0.0000 0.0000 2.3723 0.0001 19.3450
#
#
#
# Elastic Compliance Matrix: (Units=1/GPa)
#
#
# Indices 1 2 3 4 5 6 
#
# 1 0.018224 -0.007825 -0.002790 0.000000 0.001654 0.000000
# 2 -0.007825 0.018224 -0.002790 0.000000 -0.001654 0.000000
# 3 -0.002790 -0.002790 0.009857 0.000000 0.000000 0.000000
# 4 0.000000 0.000000 0.000000 0.026979 0.000000 -0.003309
# 5 0.001654 -0.001654 0.000000 0.000000 0.026979 0.000000
# 6 0.000000 0.000000 0.000000 -0.003309 0.000000 0.052099
#
#
# Mechanical properties :
#
#
# Convention : Reuss Voigt Hill
#
# Bulk Modulus (GPa) = 51.29276 52.74851 52.02064
# Shear Modulus (GPa) = 26.92953 30.15599 28.54276
#
# Velocity S-wave (km/s) = 3.79354 4.01437 3.90551
# Velocity P-wave (km/s) = 6.82630 7.04807 6.93807
#
# Compressibility (1/GPa) = 0.01949593
#
# Stress axis : x y z
#
# Youngs Moduli (GPa) = 54.87197 54.87197 101.45383
#
# Poissons Ratio (x) = 0.42938 0.28303
# Poissons Ratio (y) = 0.42938 0.28303
# Poissons Ratio (z) = 0.15308 0.15308
#
# Static dielectric constant tensor:
#      x y z
#    x 3.451010 0.000000 0.000000 
#    y 0.000000 3.451010 0.000000 
#    z 0.000000 0.000000 3.574810 
# 
# 
# High freq. dielectric constant tensor:
#      x y z
#    x 1.701920 0.000000 0.000000 
#    y 0.000000 1.701920 0.000000 
#    z 0.000000 0.000000 1.754270 
# 
# From -- ./inp_files/1685.got.cif
#   From: 2010.03.12/outbox.cif.g09.slc.cpg/sg153_1_cif.got.tgz:1685.got - 2010.04.03 13:48:33.
