data_PCOD8322837
_publ_section_title
;
Structure prediction by ZEFSAII (Michael W. Deem and Ramdas Pophale) SiO2 
 PCOD8322837
Probable space group: P 3 1 C
;
_chemical_formula_sum "Si O2"
_cell_formula_units_Z 48
_cell_length_a 16.600134
_cell_length_b 16.600134
_cell_length_c 8.784677
_cell_angle_alpha 90.000000
_cell_angle_beta 90.000000
_cell_angle_gamma 120.000000
_cell_volume 2096.426385
_symmetry_space_group_name_H-M "P 3 1 C"
_symmetry_group_IT_number 159
_symmetry_cell_setting 'hexagonal'
loop_
_space_group_symop_operation_xyz
x,y,z
-y,x-y,z
-x+y,-x,z
y,x,1/2+z
x-y,-y,1/2+z
-x,-x+y,1/2+z
loop_
_atom_site_type_symbol
_atom_site_label
_atom_site_fract_x
_atom_site_fract_y
_atom_site_fract_z
Si Si1 0.383293 0.216798 0.566080
Si Si2 0.687606 0.504555 0.119033
Si Si3 0.919933 0.807974 0.434013
Si Si4 0.868042 0.507818 0.152527
Si Si5 0.113322 0.920246 0.575760
Si Si6 0.415545 0.071043 0.399862
Si Si7 0.356768 0.119664 0.884881
Si Si8 0.955636 0.536376 0.471726
O O1 0.290487 0.200626 0.479455
O O2 0.427777 0.163734 0.478852
O O3 0.355859 0.171985 0.733526
O O4 0.452304 0.329368 0.567367
O O5 0.790382 0.535746 0.180596
O O6 0.602975 0.399466 0.124848
O O7 0.647060 0.555555 0.224037
O O8 0.700321 0.537729 0.943925
O O9 0.844845 0.817374 0.536038
O O10 0.904821 0.812143 0.254733
O O11 0.020632 0.890544 0.479563
O O12 0.937370 0.541893 0.294653
O O13 0.938834 0.556071 0.011018
O O14 0.160040 0.861762 0.513767
O O15 0.485568 0.048442 0.496923
O O16 0.308453 0.991079 0.378612
#
# Coordination Sequence:
#
# PCOD8322837 Si02
#       8
#     6   6   6   6   6   6   6   6
#     4  12  26  45  71 108 146 188 249 301 370 443
#     4  11  24  45  72 104 139 187 240 297 365 445
#     4  12  26  45  70 103 148 193 243 295 358 424
#     4  11  25  46  74 103 146 189 241 303 375 444
#     4  12  26  44  70 104 145 194 243 296 353 430
#     4  11  23  49  74 102 140 197 243 303 369 449
#     4  12  25  43  74 105 140 190 247 297 359 440
#     4  11  27  45  73 105 148 190 242 308 375 435
#
# _framework density 22.896106
#
# number of rings (size 3 to 8) (size 9 to 14) (size 15 to 20)
#    0.000    0.500    3.750    4.250    5.250    0.000 
#    0.750    0.000    0.000    0.000    0.000    0.000 
#    0.000    0.000    0.000    0.000    0.000    0.000 
#
# Total GULP energy -594814.347658 kJ/mol
# GULP energy per Si atom -12391.965576 kJ/mol
# Density = 2.284399 g / cm^3
# Si number density = 22.896106 Si / 1000 Ang^3
#
#
#
# Elastic Constant Matrix: (Units=GPa)
#
#
# Indices 1 2 3 4 5 6 
#
# 1 102.2032 31.1340 43.4783 0.0000 -0.0833 0.0000
# 2 31.1340 102.2032 43.4783 0.0000 0.0833 0.0000
# 3 43.4783 43.4783 137.1188 0.0000 0.0000 0.0000
# 4 0.0000 0.0000 0.0000 33.0340 0.0000 0.0833
# 5 -0.0833 0.0833 0.0000 0.0000 33.0340 0.0000
# 6 0.0000 0.0000 0.0000 0.0833 0.0000 35.5346
#
#
#
# Elastic Compliance Matrix: (Units=1/GPa)
#
#
# Indices 1 2 3 4 5 6 
#
# 1 0.011763 -0.002308 -0.002998 0.000000 0.000035 0.000000
# 2 -0.002308 0.011763 -0.002998 0.000000 -0.000035 0.000000
# 3 -0.002998 -0.002998 0.009194 0.000000 0.000000 0.000000
# 4 0.000000 0.000000 0.000000 0.030272 0.000000 -0.000071
# 5 0.000035 -0.000035 0.000000 0.000000 0.030272 0.000000
# 6 0.000000 0.000000 0.000000 -0.000071 0.000000 0.028142
#
#
# Mechanical properties :
#
#
# Convention : Reuss Voigt Hill
#
# Bulk Modulus (GPa) = 62.06543 64.18959 63.12751
# Shear Modulus (GPa) = 34.87126 35.21616 35.04371
#
# Velocity S-wave (km/s) = 3.90682 3.92610 3.91647
# Velocity P-wave (km/s) = 6.89328 6.97484 6.93418
#
# Compressibility (1/GPa) = 0.01611203
#
# Stress axis : x y z
#
# Youngs Moduli (GPa) = 85.01286 85.01286 108.76414
#
# Poissons Ratio (x) = 0.19621 0.32608
# Poissons Ratio (y) = 0.19621 0.32608
# Poissons Ratio (z) = 0.25487 0.25487
#
# Static dielectric constant tensor:
#      x y z
#    x 4.220420 0.000000 0.000000 
#    y 0.000000 4.220420 0.000000 
#    z 0.000000 0.000000 3.996260 
# 
# 
# High freq. dielectric constant tensor:
#      x y z
#    x 1.907860 0.000000 0.000000 
#    y 0.000000 1.907860 0.000000 
#    z 0.000000 0.000000 1.903590 
# 
# From -- ./inp_files/494.got.cif
#   From: 2010.03.12/outbox.cif.g09.slc.cpg/sg159_cif.got.tgz:494.got - 2010.04.03 14:00:19.
