data_PCOD8322715
_publ_section_title
;
Structure prediction by ZEFSAII (Michael W. Deem and Ramdas Pophale) SiO2 
 PCOD8322715
Probable space group: P 3 1 M
;
_chemical_formula_sum "Si O2"
_cell_formula_units_Z 24
_cell_length_a 16.490319
_cell_length_b 16.490319
_cell_length_c 5.207994
_cell_angle_alpha 90.000000
_cell_angle_beta 90.000000
_cell_angle_gamma 120.000000
_cell_volume 1226.476471
_symmetry_space_group_name_H-M "P 3 1 M"
_symmetry_group_IT_number 157
_symmetry_cell_setting 'hexagonal'
loop_
_space_group_symop_operation_xyz
x,y,z
-y,x-y,z
-x+y,-x,z
y,x,z
x-y,-y,z
-x,-x+y,z
loop_
_atom_site_type_symbol
_atom_site_label
_atom_site_fract_x
_atom_site_fract_y
_atom_site_fract_z
Si Si1 0.213762 0.615293 0.396520
Si Si2 0.221175 0.109702 0.396514
Si Si3 0.203528 0.314645 0.896514
Si Si4 0.388200 0.499268 0.896520
O O1 0.272539 0.560499 0.396520
O O2 0.149103 0.585514 0.646408
O O3 0.149103 0.585514 0.146632
O O4 0.158891 0.158891 0.396512
O O5 0.287925 0.138912 0.644818
O O6 0.150955 0.000000 0.396519
O O7 0.287924 0.138909 0.148207
O O8 0.258479 0.258479 0.896518
O O9 0.277713 0.424645 0.896518
O O10 0.449045 0.449045 0.896520
#
# Coordination Sequence:
#
# PCOD8322715 Si02
#       4
#     6   6   6   6
#     4  10  22  38  62  89 119 150 189 235 298 342
#     4  10  18  30  46  69 101 140 186 235 285 340
#     4   9  19  31  49  75 101 134 183 235 275 324
#     4  11  20  37  63  89 113 150 195 245 288 348
#
# _framework density 19.568252999999999
#
# number of rings (size 3 to 8) (size 9 to 14) (size 15 to 20)
#    0.500    1.500    0.000    4.750    0.000    4.000 
#    0.000    2.500    0.000   30.000    0.000    0.000 
#    0.000    0.000    0.000    0.000    0.000    0.000 
#
# Total GULP energy -297588.516587 kJ/mol
# GULP energy per Si atom -12399.521524 kJ/mol
# Density = 1.952371 g / cm^3
# Si number density = 19.568253 Si / 1000 Ang^3
#
#
#
# Elastic Constant Matrix: (Units=GPa)
#
#
# Indices 1 2 3 4 5 6 
#
# 1 66.7937 1.4764 31.1961 0.0000 0.0005 0.0000
# 2 1.4764 66.7937 31.1961 0.0000 -0.0005 0.0000
# 3 31.1961 31.1961 186.9893 0.0000 0.0000 0.0000
# 4 0.0000 0.0000 0.0000 -19.1772 0.0000 -0.0005
# 5 0.0005 -0.0005 0.0000 0.0000 -19.1772 0.0000
# 6 0.0000 0.0000 0.0000 -0.0005 0.0000 32.6586
#
#
#
# Elastic Compliance Matrix: (Units=1/GPa)
#
#
# Indices 1 2 3 4 5 6 
#
# 1 0.016296 0.000986 -0.002883 0.000000 0.000000 0.000000
# 2 0.000986 0.016296 -0.002883 0.000000 0.000000 0.000000
# 3 -0.002883 -0.002883 0.006310 0.000000 0.000000 0.000000
# 4 0.000000 0.000000 0.000000 -0.052145 0.000000 -0.000001
# 5 0.000000 0.000000 0.000000 0.000000 -0.052145 0.000000
# 6 0.000000 0.000000 0.000000 -0.000001 0.000000 0.030620
#
#
# Mechanical properties :
#
#
# Convention : Reuss Voigt Hill
#
# Bulk Modulus (GPa) = 34.08063 49.81267 41.94665
# Shear Modulus (GPa) = -324.11369 15.97470 -154.06950
#
# Velocity S-wave (km/s) = -12.88379 2.86030 -8.88287
# Velocity P-wave (km/s) = 14.27825 6.03486 9.15011
#
# Compressibility (1/GPa) = 0.02934218
#
# Stress axis : x y z
#
# Youngs Moduli (GPa) = 61.36341 61.36341 158.47906
#
# Poissons Ratio (x) = -0.06053 0.45695
# Poissons Ratio (y) = -0.06053 0.45695
# Poissons Ratio (z) = 0.17693 0.17693
#
# Static dielectric constant tensor:
#      x y z
#    x 3.355810 0.000000 0.000000 
#    y 0.000000 3.355810 0.000000 
#    z 0.000000 0.000000 4.040990 
# 
# 
# High freq. dielectric constant tensor:
#      x y z
#    x 1.744700 0.000000 0.000000 
#    y 0.000000 1.744700 0.000000 
#    z 0.000000 0.000000 1.783920 
# 
# From -- ./inp_files/67.got.cif
#   From: 2010.03.12/outbox.cif.g09.slc.cpg/sg157_cif.got.tgz:67.got - 2010.04.03 13:59:21.
