data_PCOD8322945
_publ_section_title
;
Structure prediction by ZEFSAII (Michael W. Deem and Ramdas Pophale) SiO2 
 PCOD8322945
Probable space group: P -3 1 M 
;
_chemical_formula_sum "Si O2"
_cell_formula_units_Z 84
_cell_length_a 22.248615
_cell_length_b 22.248615
_cell_length_c 12.828864
_cell_angle_alpha 90.000000
_cell_angle_beta 90.000000
_cell_angle_gamma 120.000000
_cell_volume 5499.520112
_symmetry_space_group_name_H-M "P -3 1 M "
_symmetry_group_IT_number 162
_symmetry_cell_setting 'hexagonal'
loop_
_space_group_symop_operation_xyz
x,y,z
-y,x-y,z
-x+y,-x,z
-y,-x,-z
-x+y,y,-z
x,x-y,-z
-x,-y,-z
y,-x+y,-z
x-y,x,-z
y,x,z
x-y,-y,z
-x,-x+y,z
loop_
_atom_site_type_symbol
_atom_site_label
_atom_site_fract_x
_atom_site_fract_y
_atom_site_fract_z
Si Si1 0.684483 0.842242 0.875373
Si Si2 0.686406 0.082520 0.193111
Si Si3 0.525985 0.917578 0.383965
Si Si4 0.917480 0.313593 0.193114
Si Si5 0.077908 0.155816 0.876380
Si Si6 0.608408 0.082422 0.616032
Si Si7 0.607941 0.525614 0.000001
O O1 0.651270 0.767662 0.822723
O O2 0.651270 0.883608 0.822722
O O3 0.764510 0.882255 0.842260
O O4 0.674529 0.837265 0.000000
O O5 0.670831 0.109905 0.300955
O O6 0.655665 0.108583 0.101818
O O7 0.653347 0.000000 0.190987
O O8 0.444942 0.889884 0.357194
O O9 0.532496 0.892746 0.499999
O O10 0.565625 0.000000 0.378686
O O11 0.890095 0.329167 0.300958
O O12 0.000000 0.346652 0.190988
O O13 0.891417 0.344336 0.101822
O O14 0.118123 0.118123 0.830432
O O15 0.000000 0.118123 0.830432
O O16 0.075120 0.150239 0.000000
O O17 0.565625 0.000000 0.621311
O O18 0.562879 0.562879 0.000002
O O19 0.557296 0.442705 0.000000
#
# Coordination Sequence:
#
# PCOD8322945 Si02
#       7
#    12  12  12  12  12  12  12
#     4  11  20  29  39  58  91 127 157 186 236 296
#     4  10  18  28  42  61  89 120 148 181 222 270
#     4   8  14  26  45  67  89 112 139 172 213 260
#     4  10  18  28  42  61  89 120 148 181 222 270
#     4   9  17  28  43  59  79 113 164 215 250 282
#     4   8  14  26  45  67  89 112 139 172 213 260
#     4   9  16  25  40  62  85 108 137 170 206 252
#
# _framework density 15.274061
#
# number of rings (size 3 to 8) (size 9 to 14) (size 15 to 20)
#    0.000    2.714    1.429    2.714    0.000    5.143 
#    0.000    0.714    0.000    0.000    0.000    0.000 
#   20.000    0.000    0.000    0.857    0.000   26.429 
#
# Total GULP energy -1041208.398809 kJ/mol
# GULP energy per Si atom -12395.338081 kJ/mol
# Density = 1.523930 g / cm^3
# Si number density = 15.274061 Si / 1000 Ang^3
#
#
#
# Elastic Constant Matrix: (Units=GPa)
#
#
# Indices 1 2 3 4 5 6 
#
# 1 93.7973 53.7622 49.4009 0.0000 0.0002 0.0000
# 2 53.7622 93.7973 49.4009 0.0000 -0.0002 0.0000
# 3 49.4009 49.4009 108.2172 0.0000 0.0000 0.0000
# 4 0.0000 0.0000 0.0000 15.0614 0.0000 -0.0002
# 5 0.0002 -0.0002 0.0000 0.0000 15.0614 0.0000
# 6 0.0000 0.0000 0.0000 -0.0002 0.0000 20.0176
#
#
#
# Elastic Compliance Matrix: (Units=1/GPa)
#
#
# Indices 1 2 3 4 5 6 
#
# 1 0.017369 -0.007609 -0.004456 0.000000 0.000000 0.000000
# 2 -0.007609 0.017369 -0.004456 0.000000 0.000000 0.000000
# 3 -0.004456 -0.004456 0.013309 0.000000 0.000000 0.000000
# 4 0.000000 0.000000 0.000000 0.066395 0.000000 0.000001
# 5 0.000000 0.000000 0.000000 0.000000 0.066395 0.000000
# 6 0.000000 0.000000 0.000000 0.000001 0.000000 0.049956
#
#
# Mechanical properties :
#
#
# Convention : Reuss Voigt Hill
#
# Bulk Modulus (GPa) = 66.63599 66.77112 66.70356
# Shear Modulus (GPa) = 18.59877 19.57792 19.08835
#
# Velocity S-wave (km/s) = 3.49330 3.58407 3.53898
# Velocity P-wave (km/s) = 7.74548 7.80626 7.77593
#
# Compressibility (1/GPa) = 0.01500690
#
# Stress axis : x y z
#
# Youngs Moduli (GPa) = 57.57333 57.57333 75.13968
#
# Poissons Ratio (x) = 0.43807 0.33479
# Poissons Ratio (y) = 0.43807 0.33479
# Poissons Ratio (z) = 0.25652 0.25652
#
# Static dielectric constant tensor:
#      x y z
#    x 2.821760 0.000000 0.000000 
#    y 0.000000 2.821760 0.000000 
#    z 0.000000 0.000000 3.049460 
# 
# 
# High freq. dielectric constant tensor:
#      x y z
#    x 1.565510 0.000000 0.000000 
#    y 0.000000 1.565510 0.000000 
#    z 0.000000 0.000000 1.573250 
# 
# From -- ./inp_files/2514.got.cif
#   From: 2010.03.12/outbox.cif.g09.slc.cpg/sg162_2_cif.got.tgz:2514.got - 2010.04.02 06:27:41.
