data_PCOD8322488
_publ_section_title
;
Structure prediction by ZEFSAII (Michael W. Deem and Ramdas Pophale) SiO2 
 PCOD8322488
Probable space group: R 3 2
;
_chemical_formula_sum "Si O2"
_cell_formula_units_Z 108
_cell_length_a 23.827009
_cell_length_b 23.827009
_cell_length_c 12.391468
_cell_angle_alpha 90.000000
_cell_angle_beta 90.000000
_cell_angle_gamma 120.000000
_cell_volume 6092.456670
_symmetry_space_group_name_H-M "R 3 2"
_symmetry_group_IT_number 155
_symmetry_cell_setting 'hexagonal'
loop_
_space_group_symop_operation_xyz
x,y,z
-y,x-y,z
-x+y,-x,z
x-y,-y,-z
-x,-x+y,-z
y,x,-z
2/3+x,1/3+y,1/3+z
2/3-y,1/3+x-y,1/3+z
2/3-x+y,1/3-x,1/3+z
2/3+x-y,1/3-y,1/3-z
2/3-x,1/3-x+y,1/3-z
2/3+y,1/3+x,1/3-z
1/3+x,2/3+y,2/3+z
1/3-y,2/3+x-y,2/3+z
1/3-x+y,2/3-x,2/3+z
1/3+x-y,2/3-y,2/3-z
1/3-x,2/3-x+y,2/3-z
1/3+y,2/3+x,2/3-z
loop_
_atom_site_type_symbol
_atom_site_label
_atom_site_fract_x
_atom_site_fract_y
_atom_site_fract_z
Si Si1 0.752895 0.923780 0.614051
Si Si2 0.491656 0.263088 0.320420
Si Si3 0.145992 0.066467 0.237171
Si Si4 0.921053 0.074806 0.775613
Si Si5 0.257686 0.183828 0.633285
Si Si6 0.731820 0.097044 0.281754
O O1 0.794759 0.898971 0.679610
O O2 0.755811 0.911938 0.487940
O O3 0.678100 0.882118 0.647757
O O4 0.771454 0.996826 0.646743
O O5 0.555627 0.333334 0.333334
O O6 0.500812 0.225847 0.219132
O O7 0.484840 0.230839 0.437257
O O8 0.434627 0.274352 0.276787
O O9 0.106804 0.104927 0.232533
O O10 0.105147 0.992490 0.276561
O O11 0.879025 0.098246 0.708030
O O12 0.333334 0.223515 0.666667
O O13 0.738924 0.072257 0.166667
O O14 0.666667 0.038549 0.333334
#
# Coordination Sequence:
#
# PCOD8322488 Si02
#       6
#    18  18  18  18  18  18
#     4  10  21  33  50  75 107 138 172 214 257 316
#     4   9  18  32  48  75 107 134 173 212 259 314
#     4  10  19  34  50  76 103 134 179 221 264 310
#     4  10  20  33  54  74 103 143 177 224 268 319
#     4  10  21  35  51  74 106 140 175 211 262 327
#     4  11  21  31  50  79 110 145 171 209 261 326
#
# _framework density 17.726839999999999
#
# number of rings (size 3 to 8) (size 9 to 14) (size 15 to 20)
#    0.000    2.000    1.667    2.333    7.000    0.667 
#    0.000    1.667    0.000    2.000    0.000    9.333 
#    0.000    0.000    0.000    0.000    0.000    0.000 
#
# Total GULP energy -446027.916173 kJ/mol
# GULP energy per Si atom -12389.664338 kJ/mol
# Density = 1.768649 g / cm^3
# Si number density = 17.726840 Si / 1000 Ang^3
#
#
#
# Elastic Constant Matrix: (Units=GPa)
#
#
# Indices 1 2 3 4 5 6 
#
# 1 72.5880 26.2145 34.1571 -2.9867 -0.0001 0.0000
# 2 26.2145 72.5880 34.1572 2.9867 0.0001 0.0000
# 3 34.1571 34.1572 109.4066 -0.0001 -0.0004 0.0000
# 4 -2.9867 2.9867 -0.0001 20.3046 -0.0001 0.0000
# 5 -0.0001 0.0001 -0.0004 -0.0001 20.3043 -2.9867
# 6 0.0000 0.0000 0.0000 0.0000 -2.9867 23.1868
#
#
#
# Elastic Compliance Matrix: (Units=1/GPa)
#
#
# Indices 1 2 3 4 5 6 
#
# 1 0.017444 -0.004537 -0.004030 0.003233 0.000000 0.000000
# 2 -0.004537 0.017444 -0.004030 -0.003233 0.000000 0.000000
# 3 -0.004030 -0.004030 0.011656 0.000000 0.000000 0.000000
# 4 0.003233 -0.003233 0.000000 0.050201 0.000000 0.000000
# 5 0.000000 0.000000 0.000000 0.000000 0.050202 0.006467
# 6 0.000000 0.000000 0.000000 0.000000 0.006467 0.043961
#
#
# Mechanical properties :
#
#
# Convention : Reuss Voigt Hill
#
# Bulk Modulus (GPa) = 46.83329 49.29336 48.06333
# Shear Modulus (GPa) = 22.39964 23.42940 22.91452
#
# Velocity S-wave (km/s) = 3.55857 3.63945 3.59924
# Velocity P-wave (km/s) = 6.58493 6.74747 6.66670
#
# Compressibility (1/GPa) = 0.02135233
#
# Stress axis : x y z
#
# Youngs Moduli (GPa) = 57.32638 57.32633 85.78959
#
# Poissons Ratio (x) = 0.26006 0.34571
# Poissons Ratio (y) = 0.26006 0.34571
# Poissons Ratio (z) = 0.23101 0.23101
#
# Static dielectric constant tensor:
#      x y z
#    x 3.110690 0.000000 0.000000 
#    y 0.000000 3.110690 0.000000 
#    z 0.000000 0.000000 3.554430 
# 
# 
# High freq. dielectric constant tensor:
#      x y z
#    x 1.660700 0.000000 0.000000 
#    y 0.000000 1.660700 0.000000 
#    z 0.000000 0.000000 1.705630 
# 
# From -- ./inp_files/4078.got.cif
#   From: 2010.03.12/outbox.cif.g09.slc.cpg/sg155_3_cif.got.tgz:4078.got - 2010.04.03 13:54:13.
