data_PCOD8322701
_publ_section_title
;
Structure prediction by ZEFSAII (Michael W. Deem and Ramdas Pophale) SiO2 
 PCOD8322701
Probable space group: P 3 M 1
;
_chemical_formula_sum "Si O2"
_cell_formula_units_Z 48
_cell_length_a 12.361071
_cell_length_b 12.361071
_cell_length_c 20.315880
_cell_angle_alpha 90.000000
_cell_angle_beta 90.000000
_cell_angle_gamma 120.000000
_cell_volume 2688.304584
_symmetry_space_group_name_H-M "P 3 M 1"
_symmetry_group_IT_number 156
_symmetry_cell_setting 'hexagonal'
loop_
_space_group_symop_operation_xyz
x,y,z
-y,x-y,z
-x+y,-x,z
-x+y,y,z
x,x-y,z
-y,-x,z
loop_
_atom_site_type_symbol
_atom_site_label
_atom_site_fract_x
_atom_site_fract_y
_atom_site_fract_z
Si Si1 0.748877 0.748962 0.142760
Si Si2 0.917326 0.583946 0.642592
Si Si3 0.584097 0.917372 0.767375
Si Si4 0.332146 0.415050 0.016775
Si Si5 0.001345 0.252223 0.892438
Si Si6 0.584021 0.666719 0.392858
Si Si7 0.250622 0.000063 0.517737
Si Si8 0.666528 0.082463 0.267822
O O1 0.891361 0.782722 0.138521
O O2 0.684750 0.693168 0.073316
O O3 0.672927 0.646950 0.198150
O O4 0.746995 0.873498 0.161228
O O5 0.794645 0.589290 0.661426
O O6 0.881286 0.440643 0.639383
O O7 0.021409 0.660085 0.697124
O O8 0.972243 0.645945 0.572552
O O9 0.461684 0.923367 0.786206
O O10 0.547247 0.773624 0.765073
O O11 0.689082 0.993333 0.821534
O O12 0.228783 0.457566 0.017683
O O13 0.465450 0.534551 0.028813
O O14 0.332219 0.353639 0.947373
O O15 0.867737 0.132264 0.902491
O O16 0.105866 0.211731 0.899390
O O17 0.548293 0.774147 0.389397
O O18 0.461012 0.538989 0.411497
O O19 0.687116 0.694072 0.447814
O O20 0.639551 0.659651 0.323025
O O21 0.127823 0.872178 0.536484
O O22 0.214593 0.107297 0.514361
O O23 0.559102 0.118203 0.264437
O O24 0.794484 0.205517 0.286023
#
# Coordination Sequence:
#
# PCOD8322701 Si02
#       8
#     6   6   6   6   6   6   6   6
#     4  10  20  34  53  76 102 132 166 205 248 294
#     4  10  20  34  52  74 101 133 168 205 246 293
#     4  10  20  34  53  76 102 132 166 205 248 294
#     4  10  20  34  53  76 102 132 166 205 248 294
#     4  10  20  34  53  76 102 132 166 205 248 294
#     4  10  20  34  52  74 100 130 165 205 250 298
#     4  10  20  34  52  74 100 130 165 205 250 298
#     4  10  20  34  52  74 101 133 168 205 246 293
#
# _framework density 17.855121
#
# number of rings (size 3 to 8) (size 9 to 14) (size 15 to 20)
#    0.000    2.000    0.000    4.000    0.000    0.000 
#    0.000    2.500    0.000   26.000    0.000    0.000 
#    0.000    0.000    0.000    0.000    0.000    0.000 
#
# Total GULP energy -595437.536494 kJ/mol
# GULP energy per Si atom -12404.948677 kJ/mol
# Density = 1.781448 g / cm^3
# Si number density = 17.855121 Si / 1000 Ang^3
#
#
#
# Elastic Constant Matrix: (Units=GPa)
#
#
# Indices 1 2 3 4 5 6 
#
# 1 75.2655 24.9462 20.2903 -3.2768 -0.0001 0.0000
# 2 24.9462 75.2655 20.2903 3.2768 0.0001 0.0000
# 3 20.2903 20.2903 74.8585 0.0000 0.0000 0.0000
# 4 -3.2768 3.2768 0.0000 27.0976 0.0000 0.0001
# 5 -0.0001 0.0001 0.0000 0.0000 27.0976 -3.2768
# 6 0.0000 0.0000 0.0000 0.0001 -3.2768 25.1597
#
#
#
# Elastic Compliance Matrix: (Units=1/GPa)
#
#
# Indices 1 2 3 4 5 6 
#
# 1 0.015700 -0.004491 -0.003038 0.002442 0.000000 0.000000
# 2 -0.004491 0.015700 -0.003038 -0.002442 0.000000 0.000000
# 3 -0.003038 -0.003038 0.015006 0.000000 0.000000 0.000000
# 4 0.002442 -0.002442 0.000000 0.037494 0.000000 0.000000
# 5 0.000000 0.000000 0.000000 0.000000 0.037494 0.004883
# 6 0.000000 0.000000 0.000000 0.000000 0.004883 0.040382
#
#
# Mechanical properties :
#
#
# Convention : Reuss Voigt Hill
#
# Bulk Modulus (GPa) = 39.57102 39.60477 39.58789
# Shear Modulus (GPa) = 26.13218 26.52847 26.33033
#
# Velocity S-wave (km/s) = 3.82981 3.85874 3.84430
# Velocity P-wave (km/s) = 6.46274 6.48710 6.47493
#
# Compressibility (1/GPa) = 0.02527102
#
# Stress axis : x y z
#
# Youngs Moduli (GPa) = 63.69366 63.69366 66.64195
#
# Poissons Ratio (x) = 0.28604 0.20247
# Poissons Ratio (y) = 0.28604 0.20247
# Poissons Ratio (z) = 0.19352 0.19352
#
# Static dielectric constant tensor:
#      x y z
#    x 3.270160 0.000000 0.000000 
#    y 0.000000 3.270160 0.000000 
#    z 0.000000 0.000000 3.387940 
# 
# 
# High freq. dielectric constant tensor:
#      x y z
#    x 1.696650 0.000000 0.000000 
#    y 0.000000 1.696650 0.000000 
#    z 0.000000 0.000000 1.704630 
# 
# From -- ./inp_files/1115.got.cif
#   From: 2010.03.12/outbox.cif.g09.slc.cpg/sg156_cif.got.tgz:1115.got - 2010.04.03 13:58:47.
