data_PCOD8322745
_publ_section_title
;
Structure prediction by ZEFSAII (Michael W. Deem and Ramdas Pophale) SiO2 
 PCOD8322745
Probable space group: P 3 C 1
;
_chemical_formula_sum "Si O2"
_cell_formula_units_Z 48
_cell_length_a 18.704391
_cell_length_b 18.704391
_cell_length_c 8.950943
_cell_angle_alpha 90.000000
_cell_angle_beta 90.000000
_cell_angle_gamma 120.000000
_cell_volume 2711.980536
_symmetry_space_group_name_H-M "P 3 C 1"
_symmetry_group_IT_number 158
_symmetry_cell_setting 'hexagonal'
loop_
_space_group_symop_operation_xyz
x,y,z
-y,x-y,z
-x+y,-x,z
-x+y,y,1/2+z
x,x-y,1/2+z
-y,-x,1/2+z
loop_
_atom_site_type_symbol
_atom_site_label
_atom_site_fract_x
_atom_site_fract_y
_atom_site_fract_z
Si Si1 0.331878 0.519741 0.340550
Si Si2 0.334811 0.240431 0.692221
Si Si3 0.145470 0.998545 0.840550
Si Si4 0.759569 0.094380 0.341675
Si Si5 0.480259 0.812137 0.693345
Si Si6 0.145470 0.146925 0.693346
Si Si7 0.427713 0.426235 0.341675
Si Si8 0.427713 0.001478 0.192220
O O1 0.327663 0.530359 0.516948
O O2 0.391841 0.608159 0.266948
O O3 0.241809 0.483618 0.266948
O O4 0.363294 0.456330 0.299613
O O5 0.344737 0.236030 0.516948
O O6 0.365780 0.182890 0.766948
O O7 0.240297 0.210337 0.734284
O O8 0.390826 0.333333 0.752687
O O9 0.091524 0.908476 0.766948
O O10 0.240297 0.029961 0.799611
O O11 0.117014 0.058507 0.766948
O O12 0.130638 0.994330 0.016948
O O13 0.666667 0.057492 0.281208
O O14 0.543670 0.906964 0.734283
O O15 0.516223 0.483777 0.266947
O O16 0.442042 0.430637 0.516948
#
# Coordination Sequence:
#
# PCOD8322745 Si02
#       8
#     6   6   6   6   6   6   6   6
#     4  10  19  31  47  68  97 132 168 204 240 279
#     4   9  19  35  53  74  99 126 158 197 241 289
#     4  10  19  31  47  68  97 132 168 204 240 279
#     4   9  19  35  53  74  99 126 158 197 241 289
#     4  10  19  31  47  68  97 132 168 204 240 279
#     4  10  19  31  47  68  97 132 168 204 240 279
#     4   9  19  35  53  74  99 126 158 197 241 289
#     4   9  19  35  53  74  99 126 158 197 241 289
#
# _framework density 17.699244
#
# number of rings (size 3 to 8) (size 9 to 14) (size 15 to 20)
#    0.000    2.500    0.000    2.000    0.000    4.000 
#    0.000    0.000    0.000    0.500    0.000    0.000 
#    0.000    0.000    0.000    0.000    0.000    0.000 
#
# Total GULP energy -595303.935752 kJ/mol
# GULP energy per Si atom -12402.165328 kJ/mol
# Density = 1.765896 g / cm^3
# Si number density = 17.699244 Si / 1000 Ang^3
#
#
#
# Elastic Constant Matrix: (Units=GPa)
#
#
# Indices 1 2 3 4 5 6 
#
# 1 121.2863 82.3487 44.3115 0.0000 0.0000 0.0000
# 2 82.3487 121.2863 44.3115 0.0000 0.0000 0.0000
# 3 44.3115 44.3115 61.3450 0.0000 0.0000 0.0000
# 4 0.0000 0.0000 0.0000 27.5369 0.0000 0.0000
# 5 0.0000 0.0000 0.0000 0.0000 27.5369 0.0000
# 6 0.0000 0.0000 0.0000 0.0000 0.0000 19.4688
#
#
#
# Elastic Compliance Matrix: (Units=1/GPa)
#
#
# Indices 1 2 3 4 5 6 
#
# 1 0.016422 -0.009260 -0.005174 0.000000 0.000000 0.000000
# 2 -0.009260 0.016422 -0.005174 0.000000 0.000000 0.000000
# 3 -0.005174 -0.005174 0.023775 0.000000 0.000000 0.000000
# 4 0.000000 0.000000 0.000000 0.036315 0.000000 0.000000
# 5 0.000000 0.000000 0.000000 0.000000 0.036315 0.000000
# 6 0.000000 0.000000 0.000000 0.000000 0.000000 0.051364
#
#
# Mechanical properties :
#
#
# Convention : Reuss Voigt Hill
#
# Bulk Modulus (GPa) = 57.45255 71.76236 64.60745
# Shear Modulus (GPa) = 22.16019 23.77158 22.96589
#
# Velocity S-wave (km/s) = 3.54226 3.66879 3.60608
# Velocity P-wave (km/s) = 7.01862 7.65377 7.34306
#
# Compressibility (1/GPa) = 0.01740567
#
# Stress axis : x y z
#
# Youngs Moduli (GPa) = 60.89313 60.89313 42.06036
#
# Poissons Ratio (x) = 0.56386 0.21760
# Poissons Ratio (y) = 0.56386 0.21760
# Poissons Ratio (z) = 0.31504 0.31504
#
# Static dielectric constant tensor:
#      x y z
#    x 3.288420 0.000000 0.000000 
#    y 0.000000 3.288420 0.000000 
#    z 0.000000 0.000000 3.253220 
# 
# 
# High freq. dielectric constant tensor:
#      x y z
#    x 1.673770 0.000000 0.000000 
#    y 0.000000 1.673770 0.000000 
#    z 0.000000 0.000000 1.688710 
# 
# From -- ./inp_files/224.got.cif
#   From: 2010.03.12/outbox.cif.g09.slc.cpg/sg158_cif.got.tgz:224.got - 2010.04.03 13:59:47.
