data_PCOD8322707
_publ_section_title
;
Structure prediction by ZEFSAII (Michael W. Deem and Ramdas Pophale) SiO2 
 PCOD8322707
Probable space group: P 3 M 1
;
_chemical_formula_sum "Si O2"
_cell_formula_units_Z 23
_cell_length_a 13.201382
_cell_length_b 13.201382
_cell_length_c 7.092912
_cell_angle_alpha 90.000000
_cell_angle_beta 90.000000
_cell_angle_gamma 120.000000
_cell_volume 1070.518063
_symmetry_space_group_name_H-M "P 3 M 1"
_symmetry_group_IT_number 156
_symmetry_cell_setting 'hexagonal'
loop_
_space_group_symop_operation_xyz
x,y,z
-y,x-y,z
-x+y,-x,z
-x+y,y,z
x,x-y,z
-y,-x,z
loop_
_atom_site_type_symbol
_atom_site_label
_atom_site_fract_x
_atom_site_fract_y
_atom_site_fract_z
Si Si1 0.870161 0.435081 0.981490
Si Si2 0.666667 0.333334 0.258183
Si Si3 0.318182 0.043221 0.104190
Si Si4 0.001537 0.227290 0.715848
Si Si5 0.666667 0.333334 0.706590
Si Si6 0.330054 0.428827 0.446542
O O1 0.945512 0.372385 0.985067
O O2 0.797252 0.398626 0.788159
O O3 0.797269 0.398635 0.177442
O O4 0.666667 0.333334 0.482828
O O5 0.336362 0.168181 0.176928
O O6 0.218910 0.989405 0.943784
O O7 0.292991 0.955343 0.274334
O O8 0.097966 0.195931 0.639107
O O9 0.031887 0.353609 0.631304
O O10 0.872675 0.127326 0.648729
O O11 0.237512 0.475024 0.456021
O O12 0.460612 0.539389 0.427264
#
# Coordination Sequence:
#
# PCOD8322707 Si02
#       6
#     3   1   6   6   1   6
#     4  10  20  36  50  86 122 158 210 250 283 382
#     4  10  20  34  52  80 124 172 200 241 301 347
#     4  11  21  39  60  88 125 157 202 254 308 367
#     4  10  23  42  66  93 121 159 206 260 317 371
#     4  10  20  34  52  80 124 172 206 241 298 347
#     4  11  24  41  63  91 124 166 210 255 306 368
#
# _framework density 21.484926999999999
#
# number of rings (size 3 to 8) (size 9 to 14) (size 15 to 20)
#    0.000    1.565    3.913    2.087    1.826    2.087 
#    0.000    0.000    0.000   12.000    0.000    0.000 
#    0.000    0.000    0.000    0.000    0.000    0.000 
#
# Total GULP energy -285061.059008 kJ/mol
# GULP energy per Si atom -12393.959087 kJ/mol
# Density = 2.143603 g / cm^3
# Si number density = 21.484927 Si / 1000 Ang^3
#
#
#
# Elastic Constant Matrix: (Units=GPa)
#
#
# Indices 1 2 3 4 5 6 
#
# 1 95.7335 38.8551 25.4824 0.2452 0.0001 0.0000
# 2 38.8551 95.7332 25.4824 -0.2452 0.0000 0.0000
# 3 25.4824 25.4824 120.4125 0.0001 0.0000 0.0000
# 4 0.2452 -0.2452 0.0001 22.3697 0.0000 0.0000
# 5 0.0001 0.0000 0.0000 0.0000 22.3699 0.2451
# 6 0.0000 0.0000 0.0000 0.0000 0.2451 28.4392
#
#
#
# Elastic Compliance Matrix: (Units=1/GPa)
#
#
# Indices 1 2 3 4 5 6 
#
# 1 0.012830 -0.004753 -0.001709 -0.000193 0.000000 0.000000
# 2 -0.004753 0.012830 -0.001709 0.000193 0.000000 0.000000
# 3 -0.001709 -0.001709 0.009028 0.000000 0.000000 0.000000
# 4 -0.000193 0.000193 0.000000 0.044707 0.000000 0.000000
# 5 0.000000 0.000000 0.000000 0.000000 0.044707 -0.000385
# 6 0.000000 0.000000 0.000000 0.000000 -0.000385 0.035166
#
#
# Mechanical properties :
#
#
# Convention : Reuss Voigt Hill
#
# Bulk Modulus (GPa) = 54.50934 54.61321 54.56128
# Shear Modulus (GPa) = 27.51368 29.43972 28.47670
#
# Velocity S-wave (km/s) = 3.58243 3.70570 3.64459
# Velocity P-wave (km/s) = 6.52210 6.61696 6.56970
#
# Compressibility (1/GPa) = 0.01834548
#
# Stress axis : x y z
#
# Youngs Moduli (GPa) = 77.94111 77.94092 110.76305
#
# Poissons Ratio (x) = 0.37044 0.18934
# Poissons Ratio (y) = 0.37044 0.18934
# Poissons Ratio (z) = 0.13323 0.13323
#
# Static dielectric constant tensor:
#      x y z
#    x 3.776770 0.000000 0.000000 
#    y 0.000000 3.776770 0.000000 
#    z 0.000000 0.000000 3.727990 
# 
# 
# High freq. dielectric constant tensor:
#      x y z
#    x 1.839500 0.000000 0.000000 
#    y 0.000000 1.839500 0.000000 
#    z 0.000000 0.000000 1.839270 
# 
# From -- ./inp_files/65.got.cif
#   From: 2010.03.12/outbox.cif.g09.slc.cpg/sg156_cif.got.tgz:65.got - 2010.04.03 13:58:47.
