data_PCOD8322660
_publ_section_title
;
Structure prediction by ZEFSAII (Michael W. Deem and Ramdas Pophale) SiO2 
 PCOD8322660
Probable space group: P 3 M 1
;
_chemical_formula_sum "Si O2"
_cell_formula_units_Z 48
_cell_length_a 12.776508
_cell_length_b 12.776508
_cell_length_c 20.588400
_cell_angle_alpha 90.000000
_cell_angle_beta 90.000000
_cell_angle_gamma 120.000000
_cell_volume 2910.566802
_symmetry_space_group_name_H-M "P 3 M 1"
_symmetry_group_IT_number 156
_symmetry_cell_setting 'hexagonal'
loop_
_space_group_symop_operation_xyz
x,y,z
-y,x-y,z
-x+y,-x,z
-x+y,y,z
x,x-y,z
-y,-x,z
loop_
_atom_site_type_symbol
_atom_site_label
_atom_site_fract_x
_atom_site_fract_y
_atom_site_fract_z
Si Si1 0.913157 0.576916 0.402920
Si Si2 0.754778 0.756251 0.636489
Si Si3 0.913199 0.577567 0.121336
Si Si4 0.092162 0.425190 0.747885
Si Si5 0.332294 0.420237 0.517495
Si Si6 0.573672 0.906955 0.896253
Si Si7 0.431024 0.095712 0.261922
Si Si8 0.244969 0.999565 0.007792
O O1 0.794039 0.588077 0.410524
O O2 0.875903 0.437952 0.416045
O O3 0.974961 0.618751 0.330505
O O4 0.013867 0.664335 0.453622
O O5 0.794074 0.897037 0.635602
O O6 0.688966 0.693769 0.703823
O O7 0.663330 0.684567 0.578733
O O8 0.872012 0.744024 0.628752
O O9 0.777621 0.555242 0.121132
O O10 0.906608 0.453304 0.101250
O O11 0.974643 0.623123 0.193532
O O12 0.997710 0.678530 0.070201
O O13 0.231303 0.462606 0.736145
O O14 0.079011 0.539506 0.728377
O O15 0.053065 0.386225 0.822174
O O16 0.223429 0.446858 0.510056
O O17 0.453862 0.546139 0.527475
O O18 0.460143 0.920285 0.915653
O O19 0.536063 0.768032 0.906923
O O20 0.684129 0.993987 0.942204
O O21 0.575186 0.150372 0.259086
O O22 0.400945 0.200473 0.265477
O O23 0.113456 0.886545 0.015848
O O24 0.232517 0.116259 0.002889
#
# Coordination Sequence:
#
# PCOD8322660 Si02
#       8
#     6   6   6   6   6   6   6   6
#     4   9  16  27  45  69  95 120 146 179 222 272
#     4  10  20  33  49  69  93 121 152 186 223 261
#     4   9  16  27  45  68  91 114 144 186 233 275
#     4   9  17  30  50  74  97 120 147 181 220 262
#     4  10  20  33  49  68  90 118 152 189 226 264
#     4   9  17  30  49  72  94 116 145 184 228 267
#     4   8  13  22  39  64  91 116 143 178 222 269
#     4  10  20  32  45  62  87 121 157 189 222 264
#
# _framework density 16.491634000000001
#
# number of rings (size 3 to 8) (size 9 to 14) (size 15 to 20)
#    0.000    2.750    0.000    2.125    0.000    3.500 
#    0.000    1.875    0.000    5.000    0.000    0.000 
#    0.000    0.000    0.000    0.000    0.000    0.000 
#
# Total GULP energy -594880.818077 kJ/mol
# GULP energy per Si atom -12393.350377 kJ/mol
# Density = 1.645410 g / cm^3
# Si number density = 16.491634 Si / 1000 Ang^3
#
#
#
# Elastic Constant Matrix: (Units=GPa)
#
#
# Indices 1 2 3 4 5 6 
#
# 1 84.2813 46.6007 60.0496 -0.4525 -0.0002 0.0000
# 2 46.6007 84.2813 60.0496 0.4525 0.0002 0.0000
# 3 60.0496 60.0496 132.3951 0.0000 0.0000 0.0000
# 4 -0.4525 0.4525 0.0000 24.1506 0.0000 0.0002
# 5 -0.0002 0.0002 0.0000 0.0000 24.1506 -0.4525
# 6 0.0000 0.0000 0.0000 0.0002 -0.4525 18.8403
#
#
#
# Elastic Compliance Matrix: (Units=1/GPa)
#
#
# Indices 1 2 3 4 5 6 
#
# 1 0.019819 -0.006732 -0.005936 0.000497 0.000000 0.000000
# 2 -0.006732 0.019819 -0.005936 -0.000497 0.000000 0.000000
# 3 -0.005936 -0.005936 0.012938 0.000000 0.000000 0.000000
# 4 0.000497 -0.000497 0.000000 0.041426 0.000000 -0.000001
# 5 0.000000 0.000000 0.000000 0.000000 0.041426 0.000995
# 6 0.000000 0.000000 0.000000 -0.000001 0.000995 0.053102
#
#
# Mechanical properties :
#
#
# Convention : Reuss Voigt Hill
#
# Bulk Modulus (GPa) = 65.06707 70.48417 67.77562
# Shear Modulus (GPa) = 21.65824 22.37880 22.01852
#
# Velocity S-wave (km/s) = 3.62786 3.68772 3.65791
# Velocity P-wave (km/s) = 7.55571 7.80797 7.68288
#
# Compressibility (1/GPa) = 0.01536876
#
# Stress axis : x y z
#
# Youngs Moduli (GPa) = 50.45633 50.45633 77.29264
#
# Poissons Ratio (x) = 0.33966 0.45881
# Poissons Ratio (y) = 0.33966 0.45881
# Poissons Ratio (z) = 0.29951 0.29951
#
# Static dielectric constant tensor:
#      x y z
#    x 2.911310 0.000000 0.000000 
#    y 0.000000 2.911310 0.000000 
#    z 0.000000 0.000000 3.561330 
# 
# 
# High freq. dielectric constant tensor:
#      x y z
#    x 1.616560 0.000000 0.000000 
#    y 0.000000 1.616560 0.000000 
#    z 0.000000 0.000000 1.657120 
# 
# From -- ./inp_files/1119.got.cif
#   From: 2010.03.12/outbox.cif.g09.slc.cpg/sg156_cif.got.tgz:1119.got - 2010.04.03 13:58:47.
