data_PCOD8322997
_publ_section_title
;
Structure prediction by ZEFSAII (Michael W. Deem and Ramdas Pophale) SiO2 
 PCOD8322997
Probable space group: P -3 1 M 
;
_chemical_formula_sum "Si O2"
_cell_formula_units_Z 54
_cell_length_a 14.256935
_cell_length_b 14.256935
_cell_length_c 18.248489
_cell_angle_alpha 90.000000
_cell_angle_beta 90.000000
_cell_angle_gamma 120.000000
_cell_volume 3212.254018
_symmetry_space_group_name_H-M "P -3 1 M "
_symmetry_group_IT_number 162
_symmetry_cell_setting 'hexagonal'
loop_
_space_group_symop_operation_xyz
x,y,z
-y,x-y,z
-x+y,-x,z
-y,-x,-z
-x+y,y,-z
x,x-y,-z
-x,-y,-z
y,-x+y,-z
x-y,x,-z
y,x,z
x-y,-y,z
-x,-x+y,z
loop_
_atom_site_type_symbol
_atom_site_label
_atom_site_fract_x
_atom_site_fract_y
_atom_site_fract_z
Si Si1 0.433705 0.556517 0.082064
Si Si2 0.256369 0.129657 0.263317
Si Si3 0.250198 0.125846 0.422736
Si Si4 0.126599 0.253197 0.000000
Si Si5 0.585044 0.797735 0.868270
O O1 0.459860 0.459860 0.077770
O O2 0.325194 0.513771 0.129380
O O3 0.533562 0.659427 0.120127
O O4 0.413873 0.586128 0.000000
O O5 0.178521 0.178521 0.244715
O O6 0.310909 0.170738 0.344897
O O7 0.358614 0.177642 0.210190
O O8 0.185198 0.000000 0.255032
O O9 0.320357 0.160179 0.500000
O O10 0.159499 0.159499 0.433103
O O11 0.191765 0.000000 0.411527
O O12 0.183181 0.327458 0.069970
O O13 0.177934 0.177934 0.984299
#
# Coordination Sequence:
#
# PCOD8322997 Si02
#       5
#    12  12  12   6  12
#     4  11  21  36  53  68  87 119 162 209 251 286
#     4  10  19  31  48  75 110 142 167 194 236 297
#     4   8  13  22  39  65  99 138 173 198 223 268
#     4  12  23  36  52  74 104 134 159 184 230 304
#     4  12  23  36  54  72  94 124 165 212 258 295
#
# _framework density 16.810625000000002
#
# number of rings (size 3 to 8) (size 9 to 14) (size 15 to 20)
#    0.000    1.556    2.222    5.000    0.000    2.667 
#    0.000    2.222    0.000    0.000    0.000    1.556 
#    0.000    8.889    0.000    0.000    0.000    0.000 
#
# Total GULP energy -669123.056512 kJ/mol
# GULP energy per Si atom -12391.167713 kJ/mol
# Density = 1.677236 g / cm^3
# Si number density = 16.810625 Si / 1000 Ang^3
#
#
#
# Elastic Constant Matrix: (Units=GPa)
#
#
# Indices 1 2 3 4 5 6 
#
# 1 71.0410 17.0533 38.8136 0.0000 -3.0122 0.0000
# 2 17.0533 71.0410 38.8136 0.0000 3.0122 0.0000
# 3 38.8136 38.8136 149.5135 0.0000 0.0000 0.0000
# 4 0.0000 0.0000 0.0000 13.6359 0.0000 3.0122
# 5 -3.0122 3.0122 0.0000 0.0000 13.6359 0.0000
# 6 0.0000 0.0000 0.0000 3.0122 0.0000 26.9938
#
#
#
# Elastic Compliance Matrix: (Units=1/GPa)
#
#
# Indices 1 2 3 4 5 6 
#
# 1 0.016855 -0.002136 -0.003821 0.000000 0.004195 0.000000
# 2 -0.002136 0.016855 -0.003821 0.000000 -0.004195 0.000000
# 3 -0.003821 -0.003821 0.008672 0.000000 0.000000 0.000000
# 4 0.000000 0.000000 0.000000 0.075189 0.000000 -0.008390
# 5 0.004195 -0.004195 0.000000 0.000000 0.075189 0.000000
# 6 0.000000 0.000000 0.000000 -0.008390 0.000000 0.037982
#
#
# Mechanical properties :
#
#
# Convention : Reuss Voigt Hill
#
# Bulk Modulus (GPa) = 43.81089 53.43961 48.62525
# Shear Modulus (GPa) = 19.38688 23.98079 21.68383
#
# Velocity S-wave (km/s) = 3.39964 3.78103 3.59540
# Velocity P-wave (km/s) = 6.44423 7.13581 6.79882
#
# Compressibility (1/GPa) = 0.02282537
#
# Stress axis : x y z
#
# Youngs Moduli (GPa) = 59.33092 59.33092 115.31169
#
# Poissons Ratio (x) = 0.12675 0.44059
# Poissons Ratio (y) = 0.12675 0.44059
# Poissons Ratio (z) = 0.22670 0.22670
#
# Static dielectric constant tensor:
#      x y z
#    x 2.970210 0.000000 0.000000 
#    y 0.000000 2.970210 0.000000 
#    z 0.000000 0.000000 3.654410 
# 
# 
# High freq. dielectric constant tensor:
#      x y z
#    x 1.629430 0.000000 0.000000 
#    y 0.000000 1.629430 0.000000 
#    z 0.000000 0.000000 1.651460 
# 
# From -- ./inp_files/3425.got.cif
#   From: 2010.03.12/outbox.cif.g09.slc.cpg/sg162_2_cif.got.tgz:3425.got - 2010.04.02 06:27:41.
