data_PCOD8322120
_publ_section_title
;
Structure prediction by ZEFSAII (Michael W. Deem and Ramdas Pophale) SiO2 
 PCOD8322120
Probable space group: P 31 2 1
;
_chemical_formula_sum "Si O2"
_cell_formula_units_Z 45
_cell_length_a 11.366434
_cell_length_b 11.366434
_cell_length_c 17.853079
_cell_angle_alpha 90.000000
_cell_angle_beta 90.000000
_cell_angle_gamma 120.000000
_cell_volume 1997.525019
_symmetry_space_group_name_H-M "P 31 2 1"
_symmetry_group_IT_number 152
_symmetry_cell_setting 'hexagonal'
loop_
_space_group_symop_operation_xyz
x,y,z
-y,x-y,1/3+z
-x+y,-x,2/3+z
x-y,-y,2/3-z
-x,-x+y,1/3-z
y,x,-z
loop_
_atom_site_type_symbol
_atom_site_label
_atom_site_fract_x
_atom_site_fract_y
_atom_site_fract_z
Si Si1 0.823277 0.769705 0.416354
Si Si2 0.480036 0.155522 0.496482
Si Si3 0.657757 0.901499 0.947321
Si Si4 0.519336 0.871145 0.292893
Si Si5 0.939662 0.328278 0.384940
Si Si6 0.859287 0.549838 0.355232
Si Si7 0.071068 0.000000 0.333334
Si Si8 0.328220 0.596030 0.709061
O O1 0.777941 0.777941 0.500000
O O2 0.696814 0.716135 0.358592
O O3 0.876398 0.660643 0.417828
O O4 0.945695 0.915758 0.389967
O O5 0.423618 0.247967 0.460529
O O6 0.521545 0.086975 0.429678
O O7 0.623251 0.249859 0.538330
O O8 0.360037 0.046377 0.548676
O O9 0.794714 0.893733 0.952769
O O10 0.559978 0.831803 0.019807
O O11 0.695712 0.059322 0.947367
O O12 0.587413 0.792790 0.253223
O O13 0.423462 0.780787 0.361100
O O14 0.639261 0.000000 0.333334
O O15 0.930396 0.464554 0.378445
O O16 0.698709 0.462524 0.338925
#
# Coordination Sequence:
#
# PCOD8322120 Si02
#       8
#     6   6   6   6   6   6   3   6
#     4  11  25  48  73 107 152 199 254 322 381 454
#     4  11  23  41  73  99 139 190 237 308 366 438
#     4  10  22  41  70  97 138 191 235 300 371 439
#     4  10  26  43  67 102 139 187 238 299 371 443
#     4  11  24  47  68 106 149 185 252 306 371 461
#     4  10  20  46  68 100 144 188 244 305 369 451
#     4  10  26  46  70 100 150 194 260 300 370 482
#     4  10  21  43  66  99 138 173 250 298 358 451
#
# _framework density 22.527878000000001
#
# number of rings (size 3 to 8) (size 9 to 14) (size 15 to 20)
#    0.000    1.600    2.667    0.000    6.533    2.667 
#   16.800    0.000    0.000    0.000    0.000    0.000 
#    0.000    0.000    0.000    0.000    0.000    0.000 
#
# Total GULP energy -557730.635938 kJ/mol
# GULP energy per Si atom -12394.014132 kJ/mol
# Density = 2.247660 g / cm^3
# Si number density = 22.527878 Si / 1000 Ang^3
#
#
#
# Elastic Constant Matrix: (Units=GPa)
#
#
# Indices 1 2 3 4 5 6 
#
# 1 119.9538 51.9791 49.4424 -3.7057 0.0001 0.0000
# 2 51.9791 119.9538 49.4424 3.7057 -0.0001 0.0000
# 3 49.4424 49.4424 127.5342 0.0000 0.0000 0.0000
# 4 -3.7057 3.7057 0.0000 33.1638 0.0000 -0.0001
# 5 0.0001 -0.0001 0.0000 0.0000 33.1638 -3.7057
# 6 0.0000 0.0000 0.0000 -0.0001 -3.7057 33.9873
#
#
#
# Elastic Compliance Matrix: (Units=1/GPa)
#
#
# Indices 1 2 3 4 5 6 
#
# 1 0.011189 -0.003704 -0.002902 0.001664 0.000000 0.000000
# 2 -0.003704 0.011189 -0.002902 -0.001664 0.000000 0.000000
# 3 -0.002902 -0.002902 0.010091 0.000000 0.000000 0.000000
# 4 0.001664 -0.001664 0.000000 0.030525 0.000000 0.000000
# 5 0.000000 0.000000 0.000000 0.000000 0.030525 0.003328
# 6 0.000000 0.000000 0.000000 0.000000 0.003328 0.029786
#
#
# Mechanical properties :
#
#
# Convention : Reuss Voigt Hill
#
# Bulk Modulus (GPa) = 74.32752 74.35218 74.33985
# Shear Modulus (GPa) = 34.05881 34.50150 34.28015
#
# Velocity S-wave (km/s) = 3.89247 3.91769 3.90510
# Velocity P-wave (km/s) = 7.29842 7.31714 7.30779
#
# Compressibility (1/GPa) = 0.01345397
#
# Stress axis : x y z
#
# Youngs Moduli (GPa) = 89.37351 89.37351 99.09801
#
# Poissons Ratio (x) = 0.33102 0.28757
# Poissons Ratio (y) = 0.33102 0.28757
# Poissons Ratio (z) = 0.25935 0.25935
#
# Static dielectric constant tensor:
#      x y z
#    x 4.262720 0.000000 0.000000 
#    y 0.000000 4.262720 0.000000 
#    z 0.000000 0.000000 3.855210 
# 
# 
# High freq. dielectric constant tensor:
#      x y z
#    x 1.900630 0.000000 0.000000 
#    y 0.000000 1.900630 0.000000 
#    z 0.000000 0.000000 1.858470 
# 
# From -- ./inp_files/2513.got.cif
#   From: 2010.03.12/outbox.cif.g09.slc.cpg/sg152_2_cif.got.tgz:2513.got - 2010.04.03 13:45:27.
