data_PCOD8322073
_publ_section_title
;
Structure prediction by ZEFSAII (Michael W. Deem and Ramdas Pophale) SiO2 
 PCOD8322073
Probable space group: P 31 2 1
;
_chemical_formula_sum "Si O2"
_cell_formula_units_Z 24
_cell_length_a 11.058032
_cell_length_b 11.058032
_cell_length_c 11.564922
_cell_angle_alpha 90.000000
_cell_angle_beta 90.000000
_cell_angle_gamma 120.000000
_cell_volume 1224.698045
_symmetry_space_group_name_H-M "P 31 2 1"
_symmetry_group_IT_number 152
_symmetry_cell_setting 'hexagonal'
loop_
_space_group_symop_operation_xyz
x,y,z
-y,x-y,1/3+z
-x+y,-x,2/3+z
x-y,-y,2/3-z
-x,-x+y,1/3-z
y,x,-z
loop_
_atom_site_type_symbol
_atom_site_label
_atom_site_fract_x
_atom_site_fract_y
_atom_site_fract_z
Si Si1 0.196660 0.196660 0.500000
Si Si2 0.939534 0.222757 0.441338
Si Si3 0.558130 0.476428 0.180085
Si Si4 0.000000 0.662153 0.666667
Si Si5 0.220473 0.420381 0.667381
O O1 0.254309 0.317469 0.595322
O O2 0.054133 0.172973 0.439564
O O3 0.815523 0.133566 0.351983
O O4 0.897073 0.219103 0.574765
O O5 0.001807 0.385207 0.407686
O O6 0.538083 0.355878 0.267110
O O7 0.410615 0.431307 0.114572
O O8 0.667201 0.494996 0.080682
#
# Coordination Sequence:
#
# PCOD8322073 Si02
#       5
#     3   6   6   3   6
#     4  10  20  38  60  90 114 164 198 244 314 338
#     4  10  21  37  64  84 126 154 199 249 294 362
#     4  10  19  42  60  89 118 162 200 240 309 349
#     4  10  20  36  60  92 108 158 204 234 292 358
#     4  10  21  39  65  83 124 160 197 247 296 366
#
# _framework density 19.596667
#
# number of rings (size 3 to 8) (size 9 to 14) (size 15 to 20)
#    0.000    2.000    2.500    2.250    3.500    0.000 
#   18.000    0.000    0.000    0.000    0.000    0.000 
#    0.000    0.000    0.000    0.000    0.000    0.000 
#
# Total GULP energy -297491.755060 kJ/mol
# GULP energy per Si atom -12395.489794 kJ/mol
# Density = 1.955206 g / cm^3
# Si number density = 19.596667 Si / 1000 Ang^3
#
#
#
# Elastic Constant Matrix: (Units=GPa)
#
#
# Indices 1 2 3 4 5 6 
#
# 1 122.4664 72.6334 47.1626 6.1399 0.0000 0.0000
# 2 72.6334 122.4664 47.1626 -6.1399 0.0000 0.0000
# 3 47.1626 47.1626 65.5163 0.0000 0.0000 0.0000
# 4 6.1399 -6.1399 0.0000 32.2907 0.0000 0.0000
# 5 0.0000 0.0000 0.0000 0.0000 32.2907 6.1399
# 6 0.0000 0.0000 0.0000 0.0000 6.1399 24.9165
#
#
#
# Elastic Compliance Matrix: (Units=1/GPa)
#
#
# Indices 1 2 3 4 5 6 
#
# 1 0.014458 -0.006596 -0.005659 -0.004003 0.000000 0.000000
# 2 -0.006596 0.014458 -0.005659 0.004003 0.000000 0.000000
# 3 -0.005659 -0.005659 0.023411 0.000000 0.000000 0.000000
# 4 -0.004003 0.004003 0.000000 0.032491 0.000000 0.000000
# 5 0.000000 0.000000 0.000000 0.000000 0.032491 -0.008006
# 6 0.000000 0.000000 0.000000 0.000000 -0.008006 0.042107
#
#
# Mechanical properties :
#
#
# Convention : Reuss Voigt Hill
#
# Bulk Modulus (GPa) = 60.61590 71.59627 66.10608
# Shear Modulus (GPa) = 24.90739 27.46562 26.18650
#
# Velocity S-wave (km/s) = 3.56898 3.74778 3.65947
# Velocity P-wave (km/s) = 6.92693 7.43923 7.18764
#
# Compressibility (1/GPa) = 0.01649732
#
# Stress axis : x y z
#
# Youngs Moduli (GPa) = 69.16782 69.16782 42.71444
#
# Poissons Ratio (x) = 0.45622 0.24174
# Poissons Ratio (y) = 0.45622 0.24174
# Poissons Ratio (z) = 0.39145 0.39145
#
# Static dielectric constant tensor:
#      x y z
#    x 3.699620 0.000000 0.000000 
#    y 0.000000 3.699620 0.000000 
#    z 0.000000 0.000000 3.430600 
# 
# 
# High freq. dielectric constant tensor:
#      x y z
#    x 1.767680 0.000000 0.000000 
#    y 0.000000 1.767680 0.000000 
#    z 0.000000 0.000000 1.747230 
# 
# From -- ./inp_files/1670.got.cif
#   From: 2010.03.12/outbox.cif.g09.slc.cpg/sg152_1_cif.got.tgz:1670.got - 2010.04.03 13:45:27.
