data_PCOD8322066
_publ_section_title
;
Structure prediction by ZEFSAII (Michael W. Deem and Ramdas Pophale) SiO2 
 PCOD8322066
Probable space group: P 31 2 1
;
_chemical_formula_sum "Si O2"
_cell_formula_units_Z 36
_cell_length_a 8.906256
_cell_length_b 8.906256
_cell_length_c 25.558629
_cell_angle_alpha 90.000000
_cell_angle_beta 90.000000
_cell_angle_gamma 120.000000
_cell_volume 1755.733251
_symmetry_space_group_name_H-M "P 31 2 1"
_symmetry_group_IT_number 152
_symmetry_cell_setting 'hexagonal'
loop_
_space_group_symop_operation_xyz
x,y,z
-y,x-y,1/3+z
-x+y,-x,2/3+z
x-y,-y,2/3-z
-x,-x+y,1/3-z
y,x,-z
loop_
_atom_site_type_symbol
_atom_site_label
_atom_site_fract_x
_atom_site_fract_y
_atom_site_fract_z
Si Si1 0.652310 0.742639 0.390891
Si Si2 0.866250 0.596062 0.440043
Si Si3 0.056183 0.696948 0.546890
Si Si4 0.105936 0.684426 0.093382
Si Si5 0.743013 0.252958 0.795580
Si Si6 0.382069 0.026005 0.058634
O O1 0.815810 0.719627 0.407171
O O2 0.683622 0.927653 0.407810
O O3 0.482758 0.606767 0.421091
O O4 0.611260 0.726697 0.329469
O O5 0.987634 0.703598 0.489022
O O6 0.694689 0.432048 0.462267
O O7 0.971156 0.534597 0.401877
O O8 0.095247 0.536774 0.551898
O O9 0.230845 0.876863 0.558907
O O10 0.194273 0.771826 0.148150
O O11 0.900094 0.622873 0.089454
O O12 0.219884 0.831504 0.051412
#
# Coordination Sequence:
#
# PCOD8322066 Si02
#       6
#     6   6   6   6   6   6
#     4  11  22  39  63  87 125 163 201 252 309 371
#     4  10  20  39  61  89 114 163 210 240 296 375
#     4  11  21  38  61  87 124 159 205 251 299 371
#     4  10  19  38  62  86 120 156 202 254 300 359
#     4   9  19  36  61  87 114 154 209 249 288 360
#     4  11  23  38  60  94 126 155 199 259 319 359
#
# _framework density 20.504252000000001
#
# number of rings (size 3 to 8) (size 9 to 14) (size 15 to 20)
#    0.000    1.667    3.333    2.000    0.000    0.000 
#    6.000    0.000    0.000    6.000    0.000    0.000 
#    0.000    0.000    0.000    0.000    0.000    0.000 
#
# Total GULP energy -446219.931310 kJ/mol
# GULP energy per Si atom -12394.998092 kJ/mol
# Density = 2.045758 g / cm^3
# Si number density = 20.504252 Si / 1000 Ang^3
#
#
#
# Elastic Constant Matrix: (Units=GPa)
#
#
# Indices 1 2 3 4 5 6 
#
# 1 106.4006 43.1632 21.2866 -0.6756 0.0000 0.0000
# 2 43.1632 106.4006 21.2866 0.6756 0.0000 0.0000
# 3 21.2866 21.2866 65.7146 0.0000 0.0000 0.0000
# 4 -0.6756 0.6756 0.0000 25.0171 0.0000 0.0000
# 5 0.0000 0.0000 0.0000 0.0000 25.0171 -0.6756
# 6 0.0000 0.0000 0.0000 0.0000 -0.6756 31.6187
#
#
#
# Elastic Compliance Matrix: (Units=1/GPa)
#
#
# Indices 1 2 3 4 5 6 
#
# 1 0.011594 -0.004229 -0.002386 0.000427 0.000000 0.000000
# 2 -0.004229 0.011594 -0.002386 -0.000427 0.000000 0.000000
# 3 -0.002386 -0.002386 0.016763 0.000000 0.000000 0.000000
# 4 0.000427 -0.000427 0.000000 0.039996 0.000000 0.000000
# 5 0.000000 0.000000 0.000000 0.000000 0.039996 0.000855
# 6 0.000000 0.000000 0.000000 0.000000 0.000855 0.031645
#
#
# Mechanical properties :
#
#
# Convention : Reuss Voigt Hill
#
# Bulk Modulus (GPa) = 45.55752 49.99872 47.77812
# Shear Modulus (GPa) = 28.26383 29.18254 28.72318
#
# Velocity S-wave (km/s) = 3.71676 3.77668 3.74684
# Velocity P-wave (km/s) = 6.37855 6.59206 6.48618
#
# Compressibility (1/GPa) = 0.02195027
#
# Stress axis : x y z
#
# Youngs Moduli (GPa) = 86.25238 86.25238 59.65546
#
# Poissons Ratio (x) = 0.36473 0.14232
# Poissons Ratio (y) = 0.36473 0.14232
# Poissons Ratio (z) = 0.20578 0.20578
#
# Static dielectric constant tensor:
#      x y z
#    x 3.777160 0.000000 0.000000 
#    y 0.000000 3.777160 0.000000 
#    z 0.000000 0.000000 3.533270 
# 
# 
# High freq. dielectric constant tensor:
#      x y z
#    x 1.796170 0.000000 0.000000 
#    y 0.000000 1.796170 0.000000 
#    z 0.000000 0.000000 1.789890 
# 
# From -- ./inp_files/3384.got.cif
#   From: 2010.03.12/outbox.cif.g09.slc.cpg/sg152_2_cif.got.tgz:3384.got - 2010.04.03 13:45:27.
