data_PCOD8322826
_publ_section_title
;
Structure prediction by ZEFSAII (Michael W. Deem and Ramdas Pophale) SiO2 
 PCOD8322826
Probable space group: P 3 1 C
;
_chemical_formula_sum "Si O2"
_cell_formula_units_Z 22
_cell_length_a 10.555934
_cell_length_b 10.555934
_cell_length_c 9.814594
_cell_angle_alpha 90.000000
_cell_angle_beta 90.000000
_cell_angle_gamma 120.000000
_cell_volume 947.101017
_symmetry_space_group_name_H-M "P 3 1 C"
_symmetry_group_IT_number 159
_symmetry_cell_setting 'hexagonal'
loop_
_space_group_symop_operation_xyz
x,y,z
-y,x-y,z
-x+y,-x,z
y,x,1/2+z
x-y,-y,1/2+z
-x,-x+y,1/2+z
loop_
_atom_site_type_symbol
_atom_site_label
_atom_site_fract_x
_atom_site_fract_y
_atom_site_fract_z
Si Si1 0.666668 0.333334 0.181756
Si Si2 0.377235 0.456297 0.179596
Si Si3 0.333332 0.666666 0.003334
Si Si4 0.638956 0.712273 0.309479
Si Si5 0.644224 0.798564 0.605527
O O1 0.666668 0.333334 0.343094
O O2 0.669908 0.476866 0.123989
O O3 0.395372 0.561895 0.052998
O O4 0.514776 0.541733 0.283145
O O5 0.239134 0.427998 0.266546
O O6 0.350128 0.302670 0.119774
O O7 0.694120 0.759887 0.463831
O O8 0.782669 0.743043 0.223115
#
# Coordination Sequence:
#
# PCOD8322826 Si02
#       5
#     2   6   2   6   6
#     4  12  24  37  77 103 141 193 242 304 378 433
#     4  10  24  46  74 102 155 184 246 313 362 441
#     4   9  24  43  71 115 138 187 245 307 372 430
#     4  11  26  45  71 111 142 198 244 303 374 438
#     4  12  26  43  73 107 148 190 249 303 370 440
#
# _framework density 23.228778999999999
#
# number of rings (size 3 to 8) (size 9 to 14) (size 15 to 20)
#    0.000    1.091    2.727    2.182   11.455    0.000 
#    1.636    0.000    0.000    0.000    0.000    0.000 
#    0.000    0.000    0.000    0.000    0.000    0.000 
#
# Total GULP energy -272697.372821 kJ/mol
# GULP energy per Si atom -12395.335128 kJ/mol
# Density = 2.317591 g / cm^3
# Si number density = 23.228779 Si / 1000 Ang^3
#
#
#
# Elastic Constant Matrix: (Units=GPa)
#
#
# Indices 1 2 3 4 5 6 
#
# 1 86.3835 31.3093 44.0730 -0.0001 7.9836 -0.0005
# 2 31.3093 86.3837 44.0730 -0.0002 -7.9837 0.0006
# 3 44.0730 44.0730 174.3506 -0.0002 -0.0001 0.0000
# 4 -0.0001 -0.0002 -0.0002 24.1852 -0.0001 -7.9837
# 5 7.9836 -7.9837 -0.0001 -0.0001 24.1852 -0.0001
# 6 -0.0005 0.0006 0.0000 -7.9837 -0.0001 27.5378
#
#
#
# Elastic Compliance Matrix: (Units=1/GPa)
#
#
# Indices 1 2 3 4 5 6 
#
# 1 0.015280 -0.004799 -0.002649 0.000000 -0.006628 0.000000
# 2 -0.004799 0.015280 -0.002649 0.000000 0.006628 0.000000
# 3 -0.002649 -0.002649 0.007075 0.000000 0.000000 0.000000
# 4 0.000000 0.000000 0.000000 0.045724 0.000000 0.013256
# 5 -0.006628 0.006628 0.000000 0.000000 0.045723 0.000000
# 6 0.000000 0.000000 0.000000 0.013256 0.000000 0.040157
#
#
# Mechanical properties :
#
#
# Convention : Reuss Voigt Hill
#
# Bulk Modulus (GPa) = 57.34177 65.11428 61.22803
# Shear Modulus (GPa) = 25.60848 30.35913 27.98380
#
# Velocity S-wave (km/s) = 3.32391 3.61911 3.47465
# Velocity P-wave (km/s) = 6.28255 6.74956 6.52024
#
# Compressibility (1/GPa) = 0.01743929
#
# Stress axis : x y z
#
# Youngs Moduli (GPa) = 65.44511 65.44522 141.34213
#
# Poissons Ratio (x) = 0.31407 0.37448
# Poissons Ratio (y) = 0.31407 0.37447
# Poissons Ratio (z) = 0.17339 0.17339
#
# Static dielectric constant tensor:
#      x y z
#    x 4.294800 0.000010 0.000000 
#    y 0.000010 4.294810 0.000010 
#    z 0.000000 0.000010 4.132790 
# 
# 
# High freq. dielectric constant tensor:
#      x y z
#    x 1.915670 0.000000 0.000000 
#    y 0.000000 1.915670 0.000000 
#    z 0.000000 0.000000 1.917890 
# 
# From -- ./inp_files/271.got.cif
#   From: 2010.03.12/outbox.cif.g09.slc.cpg/sg159_cif.got.tgz:271.got - 2010.04.03 14:00:19.
