data_PCOD8322008
_publ_section_title
;
Structure prediction by ZEFSAII (Michael W. Deem and Ramdas Pophale) SiO2 
 PCOD8322008
Probable space group: P 31 1 2
;
_chemical_formula_sum "Si O2"
_cell_formula_units_Z 24
_cell_length_a 7.901338
_cell_length_b 7.901338
_cell_length_c 19.937877
_cell_angle_alpha 90.000000
_cell_angle_beta 90.000000
_cell_angle_gamma 120.000000
_cell_volume 1077.980301
_symmetry_space_group_name_H-M "P 31 1 2"
_symmetry_group_IT_number 151
_symmetry_cell_setting 'hexagonal'
loop_
_space_group_symop_operation_xyz
x,y,z
-y,x-y,1/3+z
-x+y,-x,2/3+z
-y,-x,2/3-z
-x+y,y,1/3-z
x,x-y,-z
loop_
_atom_site_type_symbol
_atom_site_label
_atom_site_fract_x
_atom_site_fract_y
_atom_site_fract_z
Si Si1 0.623667 0.005688 0.481521
Si Si2 0.283000 0.336207 0.603339
Si Si3 0.280718 0.947271 0.147505
Si Si4 0.619629 0.007176 0.729178
O O1 0.648002 0.824001 0.500000
O O2 0.477134 0.942885 0.418682
O O3 0.539236 0.075356 0.542462
O O4 0.831546 0.184850 0.460890
O O5 0.193298 0.386595 0.666667
O O6 0.125015 0.252165 0.542728
O O7 0.344877 0.178749 0.623973
O O8 0.458149 0.916297 0.166667
O O9 0.182758 0.816217 0.082005
O O10 0.476344 0.952687 0.666667
#
# Coordination Sequence:
#
# PCOD8322008 Si02
#       4
#     6   6   6   6
#     4  11  23  42  67  96 131 172 216 271 331 388
#     4  11  23  41  65  96 131 171 219 269 324 394
#     4  11  23  42  67  96 131 172 216 271 331 388
#     4  11  23  41  65  96 131 171 219 269 324 394
#
# _framework density 22.263856000000001
#
# number of rings (size 3 to 8) (size 9 to 14) (size 15 to 20)
#    0.000    1.000    0.000   10.500    0.000    4.000 
#    0.000    2.500    0.000    0.000    0.000    0.000 
#    0.000    0.000    0.000    0.000    0.000    0.000 
#
# Total GULP energy -297765.787872 kJ/mol
# GULP energy per Si atom -12406.907828 kJ/mol
# Density = 2.221318 g / cm^3
# Si number density = 22.263856 Si / 1000 Ang^3
#
#
#
# Elastic Constant Matrix: (Units=GPa)
#
#
# Indices 1 2 3 4 5 6 
#
# 1 123.9212 30.8483 53.3509 -0.0001 -1.1721 0.0000
# 2 30.8483 123.9212 53.3509 0.0001 1.1721 0.0000
# 3 53.3509 53.3509 137.5897 0.0000 0.0000 0.0000
# 4 -0.0001 0.0001 0.0000 32.2134 0.0000 1.1721
# 5 -1.1721 1.1721 0.0000 0.0000 32.2134 -0.0001
# 6 0.0000 0.0000 0.0000 1.1721 -0.0001 46.5365
#
#
#
# Elastic Compliance Matrix: (Units=1/GPa)
#
#
# Indices 1 2 3 4 5 6 
#
# 1 0.009786 -0.000968 -0.003419 0.000000 0.000391 0.000000
# 2 -0.000968 0.009786 -0.003419 0.000000 -0.000391 0.000000
# 3 -0.003419 -0.003419 0.009920 0.000000 0.000000 0.000000
# 4 0.000000 0.000000 0.000000 0.031071 0.000000 -0.000783
# 5 0.000391 -0.000391 0.000000 0.000000 0.031071 0.000000
# 6 0.000000 0.000000 0.000000 -0.000783 0.000000 0.021508
#
#
# Mechanical properties :
#
#
# Convention : Reuss Voigt Hill
#
# Bulk Modulus (GPa) = 72.04985 73.39249 72.72117
# Shear Modulus (GPa) = 37.48589 38.71813 38.10201
#
# Velocity S-wave (km/s) = 4.10776 4.17473 4.14138
# Velocity P-wave (km/s) = 7.41150 7.50161 7.45669
#
# Compressibility (1/GPa) = 0.01387928
#
# Stress axis : x y z
#
# Youngs Moduli (GPa) = 102.18257 102.18257 100.80829
#
# Poissons Ratio (x) = 0.09888 0.34471
# Poissons Ratio (y) = 0.09888 0.34471
# Poissons Ratio (z) = 0.34941 0.34941
#
# Static dielectric constant tensor:
#      x y z
#    x 4.214620 0.000000 0.000000 
#    y 0.000000 4.214620 0.000000 
#    z 0.000000 0.000000 3.915010 
# 
# 
# High freq. dielectric constant tensor:
#      x y z
#    x 1.890560 0.000000 0.000000 
#    y 0.000000 1.890560 0.000000 
#    z 0.000000 0.000000 1.862630 
# 
# From -- ./inp_files/3714.got.cif
#   From: 2010.03.12/outbox.cif.g09.slc.cpg/sg151_2_cif.got.tgz:3714.got - 2010.04.03 13:42:29.
