data_PCOD8322915
_publ_section_title
;
Structure prediction by ZEFSAII (Michael W. Deem and Ramdas Pophale) SiO2 
 PCOD8322915
Probable space group: R 3 C
;
_chemical_formula_sum "Si O2"
_cell_formula_units_Z 48
_cell_length_a 9.600261
_cell_length_b 9.600261
_cell_length_c 21.755752
_cell_angle_alpha 90.000000
_cell_angle_beta 90.000000
_cell_angle_gamma 120.000000
_cell_volume 1736.484103
_symmetry_space_group_name_H-M "R 3 C"
_symmetry_group_IT_number 161
_symmetry_cell_setting 'hexagonal'
loop_
_space_group_symop_operation_xyz
x,y,z
-y,x-y,z
-x+y,-x,z
-x+y,y,1/2+z
x,x-y,1/2+z
-y,-x,1/2+z
2/3+x,1/3+y,1/3+z
2/3-y,1/3+x-y,1/3+z
2/3-x+y,1/3-x,1/3+z
2/3-x+y,1/3+y,5/6+z
2/3+x,1/3+x-y,5/6+z
2/3-y,1/3-x,5/6+z
1/3+x,2/3+y,2/3+z
1/3-y,2/3+x-y,2/3+z
1/3-x+y,2/3-x,2/3+z
1/3-x+y,2/3+y,1/6+z
1/3+x,2/3+x-y,1/6+z
1/3-y,2/3-x,1/6+z
loop_
_atom_site_type_symbol
_atom_site_label
_atom_site_fract_x
_atom_site_fract_y
_atom_site_fract_z
Si Si1 0.335308 0.258130 0.170219
Si Si2 0.258129 0.335305 0.039946
Si Si3 0.666668 0.333335 0.511875
Si Si4 0.000000 0.000000 0.031622
O O1 0.336154 0.336151 0.105082
O O2 0.391348 0.125157 0.162084
O O3 0.458485 0.400479 0.214748
O O4 0.156021 0.165250 0.200717
O O5 0.165251 0.156019 0.009447
O O6 0.666668 0.333334 0.438415
#
# Coordination Sequence:
#
# PCOD8322915 Si02
#       4
#    18  18   6   6
#     4  11  25  46  73 109 148 193 244 303 367 438
#     4  11  25  46  73 109 148 193 244 303 367 438
#     4   9  21  42  69 105 145 185 238 303 363 426
#     4   9  21  42  69 105 145 185 238 303 363 426
#
# _framework density 27.642064000000001
#
# number of rings (size 3 to 8) (size 9 to 14) (size 15 to 20)
#    0.000    1.500    0.000    3.000    0.000   15.000 
#    0.000    0.000    0.000    0.000    0.000    0.000 
#    0.000    0.000    0.000    0.000    0.000    0.000 
#
# Total GULP energy -198375.229759 kJ/mol
# GULP energy per Si atom -12398.451860 kJ/mol
# Density = 2.757915 g / cm^3
# Si number density = 27.642064 Si / 1000 Ang^3
#
#
#
# Elastic Constant Matrix: (Units=GPa)
#
#
# Indices 1 2 3 4 5 6 
#
# 1 177.7100 59.4546 69.8128 -13.4805 0.0000 0.0000
# 2 59.4546 177.7127 69.8122 13.4809 0.0000 0.0000
# 3 69.8128 69.8122 72.6321 -0.0001 0.0000 0.0000
# 4 -13.4805 13.4809 -0.0001 17.4151 0.0000 0.0000
# 5 0.0000 0.0000 0.0000 0.0000 17.4154 -13.4804
# 6 0.0000 0.0000 0.0000 0.0000 -13.4804 59.1290
#
#
#
# Elastic Compliance Matrix: (Units=1/GPa)
#
#
# Indices 1 2 3 4 5 6 
#
# 1 0.009991 -0.000278 -0.009336 0.007949 0.000000 0.000000
# 2 -0.000278 0.009990 -0.009335 -0.007949 0.000000 0.000000
# 3 -0.009336 -0.009335 0.031714 0.000000 0.000000 0.000000
# 4 0.007949 -0.007949 0.000000 0.069727 0.000000 0.000000
# 5 0.000000 0.000000 0.000000 0.000000 0.069725 0.015896
# 6 0.000000 0.000000 0.000000 0.000000 0.015896 0.020536
#
#
# Mechanical properties :
#
#
# Convention : Reuss Voigt Hill
#
# Bulk Modulus (GPa) = 72.47798 91.80154 82.13976
# Shear Modulus (GPa) = 19.67116 34.05691 26.86404
#
# Velocity S-wave (km/s) = 2.67055 3.51389 3.12084
# Velocity P-wave (km/s) = 5.98216 7.05310 6.53959
#
# Compressibility (1/GPa) = 0.01379729
#
# Stress axis : x y z
#
# Youngs Moduli (GPa) = 100.09479 100.09765 31.53188
#
# Poissons Ratio (x) = 0.02783 0.29437
# Poissons Ratio (y) = 0.02783 0.29436
# Poissons Ratio (z) = 0.93444 0.93443
#
# Static dielectric constant tensor:
#      x y z
#    x 5.384440 0.000000 0.000000 
#    y 0.000000 5.384430 0.000000 
#    z 0.000000 0.000000 4.175150 
# 
# 
# High freq. dielectric constant tensor:
#      x y z
#    x 2.135030 0.000000 0.000000 
#    y 0.000000 2.135030 0.000000 
#    z 0.000000 0.000000 2.066920 
# 
# From -- ./inp_files/1588.got.cif
#   From: 2010.03.12/outbox.cif.g09.slc.cpg/sg161_cif.got.tgz:1588.got - 2010.04.02 06:27:14.
