data_PCOD8322338
_publ_section_title
;
Structure prediction by ZEFSAII (Michael W. Deem and Ramdas Pophale) SiO2 
 PCOD8322338
Probable space group: P 32 2 1
;
_chemical_formula_sum "Si O2"
_cell_formula_units_Z 39
_cell_length_a 8.156397
_cell_length_b 8.156397
_cell_length_c 31.466266
_cell_angle_alpha 90.000000
_cell_angle_beta 90.000000
_cell_angle_gamma 120.000000
_cell_volume 1812.894594
_symmetry_space_group_name_H-M "P 32 2 1"
_symmetry_group_IT_number 154
_symmetry_cell_setting 'hexagonal'
loop_
_space_group_symop_operation_xyz
x,y,z
-y,x-y,2/3+z
-x+y,-x,1/3+z
x-y,-y,1/3-z
-x,-x+y,2/3-z
y,x,-z
loop_
_atom_site_type_symbol
_atom_site_label
_atom_site_fract_x
_atom_site_fract_y
_atom_site_fract_z
Si Si1 0.506420 0.665382 0.875666
Si Si2 0.113114 0.881253 0.403975
Si Si3 0.727070 0.953120 0.507201
Si Si4 0.575270 0.952310 0.012211
Si Si5 0.960893 0.960893 0.000000
Si Si6 0.418784 0.892326 0.711036
Si Si7 0.795195 0.300725 0.063322
O O1 0.376787 0.503012 0.840241
O O2 0.586386 0.592475 0.913911
O O3 0.365750 0.724697 0.896662
O O4 0.684899 0.853880 0.854633
O O5 0.164135 0.743095 0.378434
O O6 0.000479 0.774670 0.444557
O O7 0.296976 0.079478 0.415886
O O8 0.974043 0.917867 0.375242
O O9 0.799945 0.799945 0.500000
O O10 0.464430 0.774335 0.043865
O O11 0.614140 0.141078 0.037226
O O12 0.766549 0.957672 0.999912
O O13 0.465577 0.930568 0.968845
O O14 0.431333 0.000000 0.666667
#
# Coordination Sequence:
#
# PCOD8322338 Si02
#       7
#     6   6   6   6   3   6   6
#     4  11  25  48  68  99 137 181 241 287 346 428
#     4  10  23  40  66  99 131 176 226 282 349 416
#     4  11  27  48  73  97 138 192 241 291 350 418
#     4  11  22  36  61 100 136 175 213 278 361 415
#     4  10  20  36  64  96 130 176 220 272 356 420
#     4  11  20  40  66  95 135 177 213 284 353 414
#     4  11  23  38  63  99 139 170 227 282 346 427
#
# _framework density 21.512559
#
# number of rings (size 3 to 8) (size 9 to 14) (size 15 to 20)
#    0.000    1.231    3.077    1.846    6.462    1.231 
#    8.308    0.769    0.000    0.000    0.000    0.000 
#    0.000    0.000    0.000    0.000    0.000    0.000 
#
# Total GULP energy -483179.691604 kJ/mol
# GULP energy per Si atom -12389.222862 kJ/mol
# Density = 2.146360 g / cm^3
# Si number density = 21.512559 Si / 1000 Ang^3
#
#
#
# Elastic Constant Matrix: (Units=GPa)
#
#
# Indices 1 2 3 4 5 6 
#
# 1 71.7527 12.7299 17.0852 2.3044 0.0011 0.0000
# 2 12.7299 71.7527 17.0852 -2.3044 -0.0011 0.0000
# 3 17.0852 17.0852 57.3935 0.0000 0.0000 0.0000
# 4 2.3044 -2.3044 0.0000 82.6955 0.0000 -0.0011
# 5 0.0011 -0.0011 0.0000 0.0000 82.6955 2.3044
# 6 0.0000 0.0000 0.0000 -0.0011 2.3044 29.5114
#
#
#
# Elastic Compliance Matrix: (Units=1/GPa)
#
#
# Indices 1 2 3 4 5 6 
#
# 1 0.015218 -0.001761 -0.004006 -0.000473 0.000000 0.000000
# 2 -0.001761 0.015218 -0.004006 0.000473 0.000000 0.000000
# 3 -0.004006 -0.004006 0.019809 0.000000 0.000000 0.000000
# 4 -0.000473 0.000473 0.000000 0.012119 0.000000 0.000000
# 5 0.000000 0.000000 0.000000 0.000000 0.012119 -0.000946
# 6 0.000000 0.000000 0.000000 0.000000 -0.000946 0.033959
#
#
# Mechanical properties :
#
#
# Convention : Reuss Voigt Hill
#
# Bulk Modulus (GPa) = 32.57452 32.74438 32.65945
# Shear Modulus (GPa) = 36.17384 49.24706 42.71045
#
# Velocity S-wave (km/s) = 4.10508 4.78977 4.46059
# Velocity P-wave (km/s) = 6.13547 6.77077 6.46093
#
# Compressibility (1/GPa) = 0.03069884
#
# Stress axis : x y z
#
# Youngs Moduli (GPa) = 65.71040 65.71040 50.48307
#
# Poissons Ratio (x) = 0.11573 0.20223
# Poissons Ratio (y) = 0.11573 0.20223
# Poissons Ratio (z) = 0.26323 0.26323
#
# Static dielectric constant tensor:
#      x y z
#    x 4.356290 0.000000 0.000000 
#    y 0.000000 4.356290 0.000000 
#    z 0.000000 0.000000 4.008090 
# 
# 
# High freq. dielectric constant tensor:
#      x y z
#    x 1.852460 0.000000 0.000000 
#    y 0.000000 1.852460 0.000000 
#    z 0.000000 0.000000 1.833960 
# 
# From -- ./inp_files/3704.got.cif
#   From: 2010.03.12/outbox.cif.g09.slc.cpg/sg154_2_cif.got.tgz:3704.got - 2010.04.03 13:51:21.
