data_PCOD8322326
_publ_section_title
;
Structure prediction by ZEFSAII (Michael W. Deem and Ramdas Pophale) SiO2 
 PCOD8322326
Probable space group: P 32 2 1
;
_chemical_formula_sum "Si O2"
_cell_formula_units_Z 42
_cell_length_a 11.355842
_cell_length_b 11.355842
_cell_length_c 19.803670
_cell_angle_alpha 90.000000
_cell_angle_beta 90.000000
_cell_angle_gamma 120.000000
_cell_volume 2211.642847
_symmetry_space_group_name_H-M "P 32 2 1"
_symmetry_group_IT_number 154
_symmetry_cell_setting 'hexagonal'
loop_
_space_group_symop_operation_xyz
x,y,z
-y,x-y,2/3+z
-x+y,-x,1/3+z
x-y,-y,1/3-z
-x,-x+y,2/3-z
y,x,-z
loop_
_atom_site_type_symbol
_atom_site_label
_atom_site_fract_x
_atom_site_fract_y
_atom_site_fract_z
Si Si1 0.832429 0.398933 0.175570
Si Si2 0.620888 0.183614 0.083405
Si Si3 0.845109 0.234961 0.842552
Si Si4 0.685088 0.944546 0.891522
Si Si5 0.714337 0.329057 0.948063
Si Si6 0.302908 0.025717 0.588364
Si Si7 0.305161 0.374314 0.372934
O O1 0.759584 0.274003 0.123628
O O2 0.886628 0.532648 0.132295
O O3 0.722044 0.393756 0.228513
O O4 0.953115 0.387517 0.212884
O O5 0.497161 0.196586 0.114759
O O6 0.601776 0.032892 0.086325
O O7 0.627941 0.224805 0.005981
O O8 0.813330 0.283746 0.913000
O O9 0.000000 0.280639 0.833334
O O10 0.772695 0.071199 0.841888
O O11 0.731230 0.830946 0.888273
O O12 0.700025 0.996807 0.968937
O O13 0.802573 0.479244 0.978711
O O14 0.291622 0.163208 0.585400
O O15 0.323182 0.000000 0.666667
#
# Coordination Sequence:
#
# PCOD8322326 Si02
#       7
#     6   6   6   6   6   6   6
#     4  10  23  35  63  91 116 154 202 251 308 360
#     4  11  21  37  63  89 118 152 209 253 299 363
#     4  11  23  37  59  88 121 156 200 250 307 361
#     4  11  22  38  60  87 124 157 195 253 315 363
#     4  10  20  37  59  90 118 152 199 252 299 363
#     4   9  22  39  58  86 122 162 209 244 305 375
#     4  10  19  38  62  83 118 165 199 247 298 368
#
# _framework density 18.990407000000001
#
# number of rings (size 3 to 8) (size 9 to 14) (size 15 to 20)
#    0.000    1.714    4.286    0.000    4.000    0.000 
#    2.571    0.000    0.000    0.000    0.000    0.000 
#    0.000    0.000    0.000    0.000    0.000    0.000 
#
# Total GULP energy -520661.332353 kJ/mol
# GULP energy per Si atom -12396.698389 kJ/mol
# Density = 1.894718 g / cm^3
# Si number density = 18.990407 Si / 1000 Ang^3
#
#
#
# Elastic Constant Matrix: (Units=GPa)
#
#
# Indices 1 2 3 4 5 6 
#
# 1 114.6090 61.3723 39.1873 3.4563 0.0001 0.0000
# 2 61.3723 114.6090 39.1873 -3.4563 -0.0001 0.0000
# 3 39.1873 39.1873 86.3466 0.0000 0.0000 0.0000
# 4 3.4563 -3.4563 0.0000 28.1690 0.0000 -0.0001
# 5 0.0001 -0.0001 0.0000 0.0000 28.1690 3.4563
# 6 0.0000 0.0000 0.0000 -0.0001 3.4563 26.6184
#
#
#
# Elastic Compliance Matrix: (Units=1/GPa)
#
#
# Indices 1 2 3 4 5 6 
#
# 1 0.013105 -0.005983 -0.003232 -0.002342 0.000000 0.000000
# 2 -0.005983 0.013105 -0.003232 0.002342 0.000000 0.000000
# 3 -0.003232 -0.003232 0.014515 0.000000 0.000000 0.000000
# 4 -0.002342 0.002342 0.000000 0.036075 0.000000 0.000000
# 5 0.000000 0.000000 0.000000 0.000000 0.036075 -0.004684
# 6 0.000000 0.000000 0.000000 0.000000 -0.004684 0.038176
#
#
# Mechanical properties :
#
#
# Convention : Reuss Voigt Hill
#
# Bulk Modulus (GPa) = 63.17090 66.11759 64.64425
# Shear Modulus (GPa) = 27.59041 28.31247 27.95144
#
# Velocity S-wave (km/s) = 3.81578 3.86538 3.84066
# Velocity P-wave (km/s) = 7.26295 7.40361 7.33362
#
# Compressibility (1/GPa) = 0.01583007
#
# Stress axis : x y z
#
# Youngs Moduli (GPa) = 76.30663 76.30663 68.89423
#
# Poissons Ratio (x) = 0.45655 0.22268
# Poissons Ratio (y) = 0.45655 0.22268
# Poissons Ratio (z) = 0.24664 0.24664
#
# Static dielectric constant tensor:
#      x y z
#    x 3.515730 0.000000 0.000000 
#    y 0.000000 3.515730 0.000000 
#    z 0.000000 0.000000 3.565450 
# 
# 
# High freq. dielectric constant tensor:
#      x y z
#    x 1.731060 0.000000 0.000000 
#    y 0.000000 1.731060 0.000000 
#    z 0.000000 0.000000 1.738740 
# 
# From -- ./inp_files/2839.got.cif
#   From: 2010.03.12/outbox.cif.g09.slc.cpg/sg154_2_cif.got.tgz:2839.got - 2010.04.03 13:51:21.
