data_PCOD8322287
_publ_section_title
;
Structure prediction by ZEFSAII (Michael W. Deem and Ramdas Pophale) SiO2 
 PCOD8322287
Probable space group: P 32 1 2
;
_chemical_formula_sum "Si O2"
_cell_formula_units_Z 48
_cell_length_a 12.517330
_cell_length_b 12.517330
_cell_length_c 19.041069
_cell_angle_alpha 90.000000
_cell_angle_beta 90.000000
_cell_angle_gamma 120.000000
_cell_volume 2583.719496
_symmetry_space_group_name_H-M "P 32 1 2"
_symmetry_group_IT_number 153
_symmetry_cell_setting 'hexagonal'
loop_
_space_group_symop_operation_xyz
x,y,z
-y,x-y,2/3+z
-x+y,-x,1/3+z
-y,-x,1/3-z
-x+y,y,2/3-z
x,x-y,-z
loop_
_atom_site_type_symbol
_atom_site_label
_atom_site_fract_x
_atom_site_fract_y
_atom_site_fract_z
Si Si1 0.203826 0.999502 0.800369
Si Si2 0.472193 0.359236 0.984156
Si Si3 0.643438 0.141825 0.395997
Si Si4 0.477278 0.368350 0.230680
Si Si5 0.787354 0.987395 0.697792
Si Si6 0.956978 0.187108 0.974709
Si Si7 0.962146 0.761862 0.771820
Si Si8 0.506422 0.377074 0.480645
O O1 0.332490 0.015324 0.774726
O O2 0.183961 0.107696 0.764823
O O3 0.203182 0.003076 0.884849
O O4 0.103316 0.868030 0.769914
O O5 0.519784 0.397604 0.905560
O O6 0.491780 0.245890 0.000000
O O7 0.555737 0.477419 0.031286
O O8 0.329070 0.318020 0.998053
O O9 0.597046 0.194092 0.333334
O O10 0.751441 0.256934 0.437142
O O11 0.689122 0.049917 0.369465
O O12 0.527773 0.071079 0.448758
O O13 0.542900 0.457101 0.166667
O O14 0.761602 0.855126 0.671251
O O15 0.919211 0.080790 0.666667
O O16 0.854311 0.101239 0.031027
O O17 0.898922 0.797843 0.833334
O O18 0.954940 0.632442 0.787418
O O19 0.534575 0.267288 0.500000
#
# Coordination Sequence:
#
# PCOD8322287 Si02
#       8
#     6   6   6   6   6   6   6   6
#     4  11  23  39  61  86 118 157 201 248 296 356
#     4  11  22  37  59  88 126 153 193 241 298 364
#     4  11  22  36  57  88 120 152 196 239 299 358
#     4  11  20  35  57  88 118 154 192 239 299 355
#     4  11  24  39  58  87 120 159 195 246 305 351
#     4  11  24  38  60  90 118 158 199 248 297 358
#     4  11  21  38  63  88 120 154 201 247 299 351
#     4  11  22  36  60  90 119 158 191 242 301 356
#
# _framework density 18.577867000000001
#
# number of rings (size 3 to 8) (size 9 to 14) (size 15 to 20)
#    0.000    1.000    2.500    7.125    5.250    0.000 
#    0.000    0.000    0.000    3.000    0.000    0.000 
#    0.000    0.000    0.000    0.000    0.000    0.000 
#
# Total GULP energy -595113.694787 kJ/mol
# GULP energy per Si atom -12398.201975 kJ/mol
# Density = 1.853558 g / cm^3
# Si number density = 18.577867 Si / 1000 Ang^3
#
#
#
# Elastic Constant Matrix: (Units=GPa)
#
#
# Indices 1 2 3 4 5 6 
#
# 1 110.0635 58.5206 46.4102 0.0001 3.1615 0.0000
# 2 58.5206 110.0635 46.4102 -0.0001 -3.1615 0.0000
# 3 46.4102 46.4102 117.1246 0.0000 0.0000 0.0000
# 4 0.0001 -0.0001 0.0000 37.9076 0.0000 -3.1615
# 5 3.1615 -3.1615 0.0000 0.0000 37.9076 0.0001
# 6 0.0000 0.0000 0.0000 -3.1615 0.0001 25.7714
#
#
#
# Elastic Compliance Matrix: (Units=1/GPa)
#
#
# Indices 1 2 3 4 5 6 
#
# 1 0.013594 -0.006007 -0.003006 0.000000 -0.001635 0.000000
# 2 -0.006007 0.013594 -0.003006 0.000000 0.001635 0.000000
# 3 -0.003006 -0.003006 0.010920 0.000000 0.000000 0.000000
# 4 0.000000 0.000000 0.000000 0.026653 0.000000 0.003270
# 5 -0.001635 0.001635 0.000000 0.000000 0.026653 0.000000
# 6 0.000000 0.000000 0.000000 0.003270 0.000000 0.039204
#
#
# Mechanical properties :
#
#
# Convention : Reuss Voigt Hill
#
# Bulk Modulus (GPa) = 71.07766 71.10375 71.09070
# Shear Modulus (GPa) = 31.37785 32.71137 32.04461
#
# Velocity S-wave (km/s) = 4.11419 4.20071 4.15767
# Velocity P-wave (km/s) = 7.80456 7.86666 7.83567
#
# Compressibility (1/GPa) = 0.01406912
#
# Stress axis : x y z
#
# Youngs Moduli (GPa) = 73.55952 73.55952 91.57171
#
# Poissons Ratio (x) = 0.44190 0.27529
# Poissons Ratio (y) = 0.44190 0.27529
# Poissons Ratio (z) = 0.22114 0.22114
#
# Static dielectric constant tensor:
#      x y z
#    x 3.360640 0.000000 0.000000 
#    y 0.000000 3.360640 0.000000 
#    z 0.000000 0.000000 -1.400390 
# 
# 
# High freq. dielectric constant tensor:
#      x y z
#    x 1.706250 0.000000 0.000000 
#    y 0.000000 1.706250 0.000000 
#    z 0.000000 0.000000 1.747320 
# 
# From -- ./inp_files/4056.got.cif
#   From: 2010.03.12/outbox.cif.g09.slc.cpg/sg153_3_cif.got.tgz:4056.got - 2010.04.03 13:48:33.
