data_PCOD8322849
_publ_section_title
;
Structure prediction by ZEFSAII (Michael W. Deem and Ramdas Pophale) SiO2 
 PCOD8322849
Probable space group: R 3 M
;
_chemical_formula_sum "Si O2"
_cell_formula_units_Z 126
_cell_length_a 19.258764
_cell_length_b 19.258764
_cell_length_c 20.570059
_cell_angle_alpha 90.000000
_cell_angle_beta 90.000000
_cell_angle_gamma 120.000000
_cell_volume 6607.284262
_symmetry_space_group_name_H-M "R 3 M"
_symmetry_group_IT_number 160
_symmetry_cell_setting 'hexagonal'
loop_
_space_group_symop_operation_xyz
x,y,z
-y,x-y,z
-x+y,-x,z
-x+y,y,z
x,x-y,z
-y,-x,z
2/3+x,1/3+y,1/3+z
2/3-y,1/3+x-y,1/3+z
2/3-x+y,1/3-x,1/3+z
2/3-x+y,1/3+y,1/3+z
2/3+x,1/3+x-y,1/3+z
2/3-y,1/3-x,1/3+z
1/3+x,2/3+y,2/3+z
1/3-y,2/3+x-y,2/3+z
1/3-x+y,2/3-x,2/3+z
1/3-x+y,2/3+y,2/3+z
1/3+x,2/3+x-y,2/3+z
1/3-y,2/3-x,2/3+z
loop_
_atom_site_type_symbol
_atom_site_label
_atom_site_fract_x
_atom_site_fract_y
_atom_site_fract_z
Si Si1 0.919902 0.243052 0.081975
Si Si2 0.604475 0.053886 0.145964
Si Si3 0.454528 0.304401 0.758830
Si Si4 0.769035 0.964493 0.285035
Si Si5 0.350256 0.047270 0.941924
Si Si6 0.663549 0.175307 0.893487
Si Si7 0.508127 0.174209 0.484711
O O1 0.837196 0.162805 0.073869
O O2 0.898011 0.305939 0.116398
O O3 0.983262 0.226978 0.121594
O O4 0.960892 0.273092 0.012246
O O5 0.547237 0.094473 0.139049
O O6 0.563317 0.973110 0.104661
O O7 0.611677 0.039996 0.222185
O O8 0.489927 0.244964 0.756131
O O9 0.469598 0.345522 0.687325
O O10 0.496160 0.361571 0.820977
O O11 0.740775 0.870388 0.295567
O O12 0.694659 0.972136 0.259801
O O13 0.836640 0.002616 0.229767
O O14 0.436692 0.127241 0.940496
O O15 0.586799 0.173597 0.924976
O O16 0.734259 0.265742 0.888120
O O17 0.596542 0.193083 0.463541
O O18 0.494887 0.247444 0.461302
#
# Coordination Sequence:
#
# PCOD8322849 Si02
#       7
#    18  18  18  18  18  18  18
#     4  11  22  37  57  83 113 146 192 241 285 336
#     4  10  19  34  55  78 109 146 181 226 285 332
#     4   8  16  30  48  74 106 140 178 215 255 315
#     4  10  18  31  55  85 114 143 180 220 271 336
#     4  11  20  35  54  79 107 143 179 236 286 328
#     4  10  20  33  50  75 110 149 186 219 262 323
#     4  10  22  40  60  84 114 149 188 233 286 344
#
# _framework density 19.069861
#
# number of rings (size 3 to 8) (size 9 to 14) (size 15 to 20)
#    0.000    2.000    2.857    2.857    0.000    1.143 
#    0.000    1.429    0.000    2.000    0.000    0.000 
#    0.000    0.000    0.000    0.000    0.000    0.000 
#
# Total GULP energy -520418.576620 kJ/mol
# GULP energy per Si atom -12390.918491 kJ/mol
# Density = 1.902646 g / cm^3
# Si number density = 19.069861 Si / 1000 Ang^3
#
#
#
# Elastic Constant Matrix: (Units=GPa)
#
#
# Indices 1 2 3 4 5 6 
#
# 1 66.9246 19.8531 15.6093 -0.9011 0.0001 0.0000
# 2 19.8531 66.9246 15.6093 0.9011 -0.0001 0.0000
# 3 15.6093 15.6093 96.5951 0.0000 0.0000 0.0000
# 4 -0.9011 0.9011 0.0000 14.1705 0.0000 -0.0001
# 5 0.0001 -0.0001 0.0000 0.0000 14.1705 -0.9011
# 6 0.0000 0.0000 0.0000 -0.0001 -0.9011 23.5358
#
#
#
# Elastic Compliance Matrix: (Units=1/GPa)
#
#
# Indices 1 2 3 4 5 6 
#
# 1 0.016766 -0.004531 -0.001977 0.001354 0.000000 0.000000
# 2 -0.004531 0.016766 -0.001977 -0.001354 0.000000 0.000000
# 3 -0.001977 -0.001977 0.010991 0.000000 0.000000 0.000000
# 4 0.001354 -0.001354 0.000000 0.070741 0.000000 0.000000
# 5 0.000000 0.000000 0.000000 0.000000 0.070741 0.002708
# 6 0.000000 0.000000 0.000000 0.000000 0.002708 0.042592
#
#
# Mechanical properties :
#
#
# Convention : Reuss Voigt Hill
#
# Bulk Modulus (GPa) = 36.29373 36.95419 36.62396
# Shear Modulus (GPa) = 19.62697 22.33352 20.98025
#
# Velocity S-wave (km/s) = 3.21162 3.42591 3.32049
# Velocity P-wave (km/s) = 5.72939 5.92195 5.82647
#
# Compressibility (1/GPa) = 0.02755297
#
# Stress axis : x y z
#
# Youngs Moduli (GPa) = 59.64615 59.64615 90.97960
#
# Poissons Ratio (x) = 0.27023 0.17988
# Poissons Ratio (y) = 0.27023 0.17988
# Poissons Ratio (z) = 0.11793 0.11793
#
# Static dielectric constant tensor:
#      x y z
#    x 3.385010 0.000000 0.000000 
#    y 0.000000 3.385010 0.000000 
#    z 0.000000 0.000000 3.579350 
# 
# 
# High freq. dielectric constant tensor:
#      x y z
#    x 1.720310 0.000000 0.000000 
#    y 0.000000 1.720310 0.000000 
#    z 0.000000 0.000000 1.746610 
# 
# From -- ./inp_files/2897.got.cif
#   From: 2010.03.12/outbox.cif.g09.slc.cpg/sg160_2_cif.got.tgz:2897.got - 2010.04.02 06:26:15.
