data_PCOD8322414
_publ_section_title
;
Structure prediction by ZEFSAII (Michael W. Deem and Ramdas Pophale) SiO2 
 PCOD8322414
Probable space group: P 32 2 1
;
_chemical_formula_sum "Si O2"
_cell_formula_units_Z 42
_cell_length_a 8.671557
_cell_length_b 8.671557
_cell_length_c 30.249306
_cell_angle_alpha 90.000000
_cell_angle_beta 90.000000
_cell_angle_gamma 120.000000
_cell_volume 1969.882006
_symmetry_space_group_name_H-M "P 32 2 1"
_symmetry_group_IT_number 154
_symmetry_cell_setting 'hexagonal'
loop_
_space_group_symop_operation_xyz
x,y,z
-y,x-y,2/3+z
-x+y,-x,1/3+z
x-y,-y,1/3-z
-x,-x+y,2/3-z
y,x,-z
loop_
_atom_site_type_symbol
_atom_site_label
_atom_site_fract_x
_atom_site_fract_y
_atom_site_fract_z
Si Si1 0.751920 0.388586 0.649249
Si Si2 0.385646 0.088282 0.385798
Si Si3 0.487148 0.487148 0.500000
Si Si4 0.401821 0.642797 0.194761
Si Si5 0.008513 0.854232 0.258800
Si Si6 0.339942 0.397907 0.848830
Si Si7 0.602250 0.000000 0.666667
Si Si8 0.230062 0.856008 0.095432
O O1 0.789644 0.522163 0.690152
O O2 0.933505 0.385106 0.643016
O O3 0.707141 0.464353 0.605704
O O4 0.593773 0.182766 0.658889
O O5 0.179590 0.027211 0.398494
O O6 0.509856 0.125074 0.428375
O O7 0.294713 0.462025 0.506521
O O8 0.594558 0.596417 0.456102
O O9 0.209878 0.626732 0.203611
O O10 0.390886 0.519802 0.154151
O O11 0.017238 0.794491 0.209088
O O12 0.034875 0.723312 0.290708
O O13 0.182706 0.051249 0.263614
O O14 0.280459 0.377833 0.797942
#
# Coordination Sequence:
#
# PCOD8322414 Si02
#       8
#     6   6   3   6   6   6   3   6
#     4  11  24  43  68  95 132 176 230 283 335 416
#     4  11  25  43  67  96 135 179 229 282 344 408
#     4  10  24  38  66  96 138 176 214 274 342 404
#     4  11  22  43  61 103 129 180 225 278 338 405
#     4  11  21  42  68  96 130 181 223 274 349 411
#     4  11  22  39  71  95 143 171 227 280 339 413
#     4  10  24  40  68  98 122 186 224 282 338 412
#     4  11  20  42  67  99 131 180 222 275 344 407
#
# _framework density 21.321073999999999
#
# number of rings (size 3 to 8) (size 9 to 14) (size 15 to 20)
#    0.000    1.143    4.286    3.429    8.000    0.000 
#    5.143    1.429    0.000    0.000    0.000    0.000 
#    0.000    0.000    0.000    0.000    0.000    0.000 
#
# Total GULP energy -520499.188173 kJ/mol
# GULP energy per Si atom -12392.837814 kJ/mol
# Density = 2.127255 g / cm^3
# Si number density = 21.321074 Si / 1000 Ang^3
#
#
#
# Elastic Constant Matrix: (Units=GPa)
#
#
# Indices 1 2 3 4 5 6 
#
# 1 110.9112 45.6914 31.9029 3.6499 0.0001 0.0000
# 2 45.6914 110.9112 31.9029 -3.6499 -0.0001 0.0000
# 3 31.9029 31.9029 83.1069 0.0000 0.0000 0.0000
# 4 3.6499 -3.6499 0.0000 38.7967 0.0000 -0.0001
# 5 0.0001 -0.0001 0.0000 0.0000 38.7967 3.6499
# 6 0.0000 0.0000 0.0000 -0.0001 3.6499 32.6099
#
#
#
# Elastic Compliance Matrix: (Units=1/GPa)
#
#
# Indices 1 2 3 4 5 6 
#
# 1 0.011533 -0.003963 -0.002906 -0.001458 0.000000 0.000000
# 2 -0.003963 0.011533 -0.002906 0.001458 0.000000 0.000000
# 3 -0.002906 -0.002906 0.014264 0.000000 0.000000 0.000000
# 4 -0.001458 0.001458 0.000000 0.026050 0.000000 0.000000
# 5 0.000000 0.000000 0.000000 0.000000 0.026050 -0.002916
# 6 0.000000 0.000000 0.000000 0.000000 -0.002916 0.030992
#
#
# Mechanical properties :
#
#
# Convention : Reuss Voigt Hill
#
# Bulk Modulus (GPa) = 56.24434 58.21374 57.22904
# Shear Modulus (GPa) = 34.27091 35.06946 34.67018
#
# Velocity S-wave (km/s) = 4.01355 4.06005 4.03687
# Velocity P-wave (km/s) = 6.92207 7.02433 6.97339
#
# Compressibility (1/GPa) = 0.01777957
#
# Stress axis : x y z
#
# Youngs Moduli (GPa) = 86.70978 86.70978 70.10853
#
# Poissons Ratio (x) = 0.34365 0.20372
# Poissons Ratio (y) = 0.34365 0.20372
# Poissons Ratio (z) = 0.25196 0.25196
#
# Static dielectric constant tensor:
#      x y z
#    x 3.909470 0.000000 0.000000 
#    y 0.000000 3.909470 0.000000 
#    z 0.000000 0.000000 3.957000 
# 
# 
# High freq. dielectric constant tensor:
#      x y z
#    x 1.827180 0.000000 0.000000 
#    y 0.000000 1.827180 0.000000 
#    z 0.000000 0.000000 1.845600 
# 
# From -- ./inp_files/3823.got.cif
#   From: 2010.03.12/outbox.cif.g09.slc.cpg/sg154_2_cif.got.tgz:3823.got - 2010.04.03 13:51:21.
