data_PCOD8322784
_publ_section_title
;
Structure prediction by ZEFSAII (Michael W. Deem and Ramdas Pophale) SiO2 
 PCOD8322784
Probable space group: P 3 1 C
;
_chemical_formula_sum "Si O2"
_cell_formula_units_Z 28
_cell_length_a 14.007915
_cell_length_b 14.007915
_cell_length_c 9.679596
_cell_angle_alpha 90.000000
_cell_angle_beta 90.000000
_cell_angle_gamma 120.000000
_cell_volume 1644.882419
_symmetry_space_group_name_H-M "P 3 1 C"
_symmetry_group_IT_number 159
_symmetry_cell_setting 'hexagonal'
loop_
_space_group_symop_operation_xyz
x,y,z
-y,x-y,z
-x+y,-x,z
y,x,1/2+z
x-y,-y,1/2+z
-x,-x+y,1/2+z
loop_
_atom_site_type_symbol
_atom_site_label
_atom_site_fract_x
_atom_site_fract_y
_atom_site_fract_z
Si Si1 0.521999 0.620406 0.836290
Si Si2 0.478002 0.098408 0.016825
Si Si3 0.666667 0.333334 0.012501
Si Si4 0.245455 1.000000 0.426558
Si Si5 0.666668 0.333334 0.340617
Si Si6 0.900890 0.863232 0.676558
O O1 0.502100 0.584473 0.676557
O O2 0.426806 0.641393 0.895458
O O3 0.523034 0.523034 0.926557
O O4 0.640282 0.732949 0.855340
O O5 0.573197 0.214587 0.957660
O O6 0.359719 0.092667 0.997774
O O7 0.666668 0.333334 0.176559
O O8 0.209855 0.059132 0.540687
O O9 0.150721 0.940867 0.312430
O O10 0.878377 0.967083 0.676557
#
# Coordination Sequence:
#
# PCOD8322784 Si02
#       6
#     6   6   2   6   2   6
#     4   9  18  34  59  76 108 139 172 221 274 305
#     4   9  18  34  59  76 108 139 172 221 274 305
#     4   9  18  36  61  80 100 147 181 209 268 330
#     4  10  16  34  52  70 108 140 168 224 266 302
#     4   9  18  36  61  80 100 147 181 209 268 330
#     4  10  20  30  50  74 104 142 180 216 264 316
#
# _framework density 17.022493000000001
#
# number of rings (size 3 to 8) (size 9 to 14) (size 15 to 20)
#    1.714    0.857    2.143    1.286    0.000    0.000 
#    0.000    6.429    0.000    0.000    0.000    0.000 
#    0.000    0.000    0.000    0.000    0.000    0.000 
#
# Total GULP energy -346925.676526 kJ/mol
# GULP energy per Si atom -12390.202733 kJ/mol
# Density = 1.698375 g / cm^3
# Si number density = 17.022493 Si / 1000 Ang^3
#
#
#
# Elastic Constant Matrix: (Units=GPa)
#
#
# Indices 1 2 3 4 5 6 
#
# 1 95.1611 43.1005 25.1129 0.0000 0.0000 0.0001
# 2 43.1005 95.1603 25.1127 0.0000 0.0001 -0.0008
# 3 25.1129 25.1127 84.3651 0.0000 0.0000 -0.0001
# 4 0.0000 0.0000 0.0000 22.5571 0.0003 0.0000
# 5 0.0000 0.0001 0.0000 0.0003 22.5567 0.0000
# 6 0.0001 -0.0008 -0.0001 0.0000 0.0000 26.0296
#
#
#
# Elastic Compliance Matrix: (Units=1/GPa)
#
#
# Indices 1 2 3 4 5 6 
#
# 1 0.013659 -0.005549 -0.002414 0.000000 0.000000 0.000000
# 2 -0.005549 0.013659 -0.002414 0.000000 0.000000 0.000000
# 3 -0.002414 -0.002414 0.013290 0.000000 0.000000 0.000000
# 4 0.000000 0.000000 0.000000 0.044332 -0.000001 0.000000
# 5 0.000000 0.000000 0.000000 -0.000001 0.044333 0.000000
# 6 0.000000 0.000000 0.000000 0.000000 0.000000 0.038418
#
#
# Mechanical properties :
#
#
# Convention : Reuss Voigt Hill
#
# Bulk Modulus (GPa) = 50.36848 51.25985 50.81416
# Shear Modulus (GPa) = 25.63267 26.31939 25.97603
#
# Velocity S-wave (km/s) = 3.88469 3.93638 3.91062
# Velocity P-wave (km/s) = 7.05512 7.13011 7.09271
#
# Compressibility (1/GPa) = 0.01985369
#
# Stress axis : x y z
#
# Youngs Moduli (GPa) = 73.21178 73.21118 75.24251
#
# Poissons Ratio (x) = 0.40628 0.18163
# Poissons Ratio (y) = 0.40629 0.18163
# Poissons Ratio (z) = 0.17673 0.17673
#
# Static dielectric constant tensor:
#      x y z
#    x 3.030990 0.000010 0.000000 
#    y 0.000010 3.031000 0.000000 
#    z 0.000000 0.000000 3.088770 
# 
# 
# High freq. dielectric constant tensor:
#      x y z
#    x 1.637610 0.000000 0.000000 
#    y 0.000000 1.637610 0.000000 
#    z 0.000000 0.000000 1.655360 
# 
# From -- ./inp_files/377.got.cif
#   From: 2010.03.12/outbox.cif.g09.slc.cpg/sg159_cif.got.tgz:377.got - 2010.04.03 14:00:19.
