data_PCOD8322832
_publ_section_title
;
Structure prediction by ZEFSAII (Michael W. Deem and Ramdas Pophale) SiO2 
 PCOD8322832
Probable space group: P 3 1 C
;
_chemical_formula_sum "Si O2"
_cell_formula_units_Z 28
_cell_length_a 11.025465
_cell_length_b 11.025465
_cell_length_c 12.757699
_cell_angle_alpha 90.000000
_cell_angle_beta 90.000000
_cell_angle_gamma 120.000000
_cell_volume 1343.064324
_symmetry_space_group_name_H-M "P 3 1 C"
_symmetry_group_IT_number 159
_symmetry_cell_setting 'hexagonal'
loop_
_space_group_symop_operation_xyz
x,y,z
-y,x-y,z
-x+y,-x,z
y,x,1/2+z
x-y,-y,1/2+z
-x,-x+y,1/2+z
loop_
_atom_site_type_symbol
_atom_site_label
_atom_site_fract_x
_atom_site_fract_y
_atom_site_fract_z
Si Si1 0.486577 0.022670 0.584870
Si Si2 0.666669 0.333335 0.332054
Si Si3 0.333335 0.666668 0.083078
Si Si4 0.622996 0.769493 0.739929
Si Si5 0.969311 0.235801 0.454827
Si Si6 0.036821 0.761828 0.553143
O O1 0.594655 0.176644 0.628755
O O2 0.409638 0.033424 0.481776
O O3 0.373914 0.937452 0.674590
O O4 0.573856 0.951621 0.542153
O O5 0.666668 0.333334 0.456989
O O6 0.771937 0.489685 0.289525
O O7 0.729613 0.789705 0.832318
O O8 0.720884 0.905442 0.669840
O O9 0.122994 0.257699 0.468938
O O10 0.855782 0.117354 0.533311
#
# Coordination Sequence:
#
# PCOD8322832 Si02
#       6
#     6   2   2   6   6   6
#     4  11  22  40  67  99 133 172 224 281 335 403
#     4  12  18  39  69  91 131 181 219 264 333 421
#     4  12  21  42  69  94 131 175 225 273 339 406
#     4  11  24  41  69 100 133 180 226 274 346 402
#     4  11  25  44  68  99 132 184 225 281 344 398
#     4  11  24  44  68  97 140 172 231 287 331 406
#
# _framework density 20.847847000000002
#
# number of rings (size 3 to 8) (size 9 to 14) (size 15 to 20)
#    0.000    0.857    6.429    0.429    0.000    3.429 
#    5.143    0.000    0.000    0.000    0.000    0.000 
#    0.000    0.000    0.000    0.000    0.000    0.000 
#
# Total GULP energy -347147.908552 kJ/mol
# GULP energy per Si atom -12398.139591 kJ/mol
# Density = 2.080040 g / cm^3
# Si number density = 20.847847 Si / 1000 Ang^3
#
#
#
# Elastic Constant Matrix: (Units=GPa)
#
#
# Indices 1 2 3 4 5 6 
#
# 1 120.1532 43.2720 56.1086 0.0002 0.3195 -0.0001
# 2 43.2720 120.1532 56.1087 -0.0003 -0.3196 0.0001
# 3 56.1086 56.1087 112.3929 -0.0003 -0.0002 0.0000
# 4 0.0002 -0.0003 -0.0003 21.8420 0.0005 -0.3198
# 5 0.3195 -0.3196 -0.0002 0.0005 21.8414 -0.0002
# 6 -0.0001 0.0001 0.0000 -0.3198 -0.0002 38.4407
#
#
#
# Elastic Compliance Matrix: (Units=1/GPa)
#
#
# Indices 1 2 3 4 5 6 
#
# 1 0.011160 -0.001849 -0.004648 0.000000 -0.000190 0.000000
# 2 -0.001849 0.011160 -0.004648 0.000000 0.000190 0.000000
# 3 -0.004648 -0.004648 0.013538 0.000000 0.000000 0.000000
# 4 0.000000 0.000000 0.000000 0.045789 -0.000001 0.000381
# 5 -0.000190 0.000190 0.000000 -0.000001 0.045790 0.000000
# 6 0.000000 0.000000 0.000000 0.000381 0.000000 0.026017
#
#
# Mechanical properties :
#
#
# Convention : Reuss Voigt Hill
#
# Bulk Modulus (GPa) = 73.70701 73.74198 73.72449
# Shear Modulus (GPa) = 27.73672 29.57215 28.65443
#
# Velocity S-wave (km/s) = 3.65147 3.77035 3.71139
# Velocity P-wave (km/s) = 7.29446 7.37580 7.33524
#
# Compressibility (1/GPa) = 0.01356723
#
# Stress axis : x y z
#
# Youngs Moduli (GPa) = 89.60857 89.60856 73.86542
#
# Poissons Ratio (x) = 0.16569 0.34333
# Poissons Ratio (y) = 0.16569 0.34333
# Poissons Ratio (z) = 0.41650 0.41650
#
# Static dielectric constant tensor:
#      x y z
#    x 3.964610 0.000000 0.000000 
#    y 0.000000 3.964610 0.000000 
#    z 0.000000 0.000000 3.613160 
# 
# 
# High freq. dielectric constant tensor:
#      x y z
#    x 1.825530 0.000000 0.000000 
#    y 0.000000 1.825530 0.000000 
#    z 0.000000 0.000000 1.802590 
# 
# From -- ./inp_files/782.got.cif
#   From: 2010.03.12/outbox.cif.g09.slc.cpg/sg159_cif.got.tgz:782.got - 2010.04.03 14:00:19.
