data_PCOD8322572
_publ_section_title
;
Structure prediction by ZEFSAII (Michael W. Deem and Ramdas Pophale) SiO2 
 PCOD8322572
Probable space group: R 3 2
;
_chemical_formula_sum "Si O2"
_cell_formula_units_Z 48
_cell_length_a 12.161284
_cell_length_b 12.161284
_cell_length_c 18.667570
_cell_angle_alpha 90.000000
_cell_angle_beta 90.000000
_cell_angle_gamma 120.000000
_cell_volume 2390.987366
_symmetry_space_group_name_H-M "R 3 2"
_symmetry_group_IT_number 155
_symmetry_cell_setting 'hexagonal'
loop_
_space_group_symop_operation_xyz
x,y,z
-y,x-y,z
-x+y,-x,z
x-y,-y,-z
-x,-x+y,-z
y,x,-z
2/3+x,1/3+y,1/3+z
2/3-y,1/3+x-y,1/3+z
2/3-x+y,1/3-x,1/3+z
2/3+x-y,1/3-y,1/3-z
2/3-x,1/3-x+y,1/3-z
2/3+y,1/3+x,1/3-z
1/3+x,2/3+y,2/3+z
1/3-y,2/3+x-y,2/3+z
1/3-x+y,2/3-x,2/3+z
1/3+x-y,2/3-y,2/3-z
1/3-x,2/3-x+y,2/3-z
1/3+y,2/3+x,2/3-z
loop_
_atom_site_type_symbol
_atom_site_label
_atom_site_fract_x
_atom_site_fract_y
_atom_site_fract_z
Si Si1 0.333335 0.666667 0.066357
Si Si2 0.532874 0.666667 0.166667
Si Si3 0.333334 0.666668 0.895231
Si Si4 0.062001 0.810225 0.149647
Si Si5 0.666667 0.193951 0.333334
O O1 0.448209 0.648712 0.095964
O O2 0.333334 0.666667 0.980827
O O3 0.673392 0.785779 0.156007
O O4 0.338811 0.544731 0.866213
O O5 0.017445 0.666667 0.166667
O O6 0.007672 0.791881 0.069987
O O7 0.792478 0.333334 0.333334
#
# Coordination Sequence:
#
# PCOD8322572 Si02
#       5
#     6   9   6  18   9
#     4  10  22  51  61 100 142 170 238 268 343 396
#     4  10  24  48  68  96 136 184 220 284 336 398
#     4  12  28  41  67 108 133 179 229 279 331 413
#     4  12  25  45  71 101 137 177 231 274 339 402
#     4  10  22  48  64  96 140 180 212 276 340 392
#
# _framework density 20.075389000000001
#
# number of rings (size 3 to 8) (size 9 to 14) (size 15 to 20)
#    0.375    0.750    7.500    0.000    7.875    1.500 
#    0.000    0.000    0.000    0.000    0.000    0.000 
#    0.000    0.000    0.000    0.000    0.000    0.000 
#
# Total GULP energy -198346.216913 kJ/mol
# GULP energy per Si atom -12396.638557 kJ/mol
# Density = 2.002970 g / cm^3
# Si number density = 20.075389 Si / 1000 Ang^3
#
#
#
# Elastic Constant Matrix: (Units=GPa)
#
#
# Indices 1 2 3 4 5 6 
#
# 1 88.0400 34.1558 39.1897 -8.8841 -0.0008 0.0000
# 2 34.1558 88.0383 39.1893 8.8837 0.0008 0.0000
# 3 39.1897 39.1893 194.9023 -0.0001 0.0000 0.0000
# 4 -8.8841 8.8837 -0.0001 -10.5766 0.0000 0.0008
# 5 -0.0008 0.0008 0.0000 0.0000 -10.5778 -8.8843
# 6 0.0000 0.0000 0.0000 0.0008 -8.8843 26.9409
#
#
#
# Elastic Compliance Matrix: (Units=1/GPa)
#
#
# Indices 1 2 3 4 5 6 
#
# 1 0.011964 -0.002569 -0.001889 -0.012207 -0.000001 0.000000
# 2 -0.002569 0.011964 -0.001889 0.012207 0.000001 0.000000
# 3 -0.001889 -0.001889 0.005890 0.000000 0.000000 0.000000
# 4 -0.012207 0.012207 0.000000 -0.074041 0.000000 0.000002
# 5 -0.000001 0.000001 0.000000 0.000000 -0.074033 -0.024414
# 6 0.000000 0.000000 0.000000 0.000002 -0.024414 0.029067
#
#
# Mechanical properties :
#
#
# Convention : Reuss Voigt Hill
#
# Bulk Modulus (GPa) = 58.39531 66.22780 62.31155
# Shear Modulus (GPa) = -70.63722 18.38702 -26.12510
#
# Velocity S-wave (km/s) = -5.93821 3.02966 -3.61134
# Velocity P-wave (km/s) = 4.22674 6.73050 3.70367
#
# Compressibility (1/GPa) = 0.01712466
#
# Stress axis : x y z
#
# Youngs Moduli (GPa) = 83.58270 83.58069 169.76510
#
# Poissons Ratio (x) = 0.21471 0.32071
# Poissons Ratio (y) = 0.21472 0.32072
# Poissons Ratio (z) = 0.15790 0.15790
#
# Static dielectric constant tensor:
#      x y z
#    x 3.571370 0.000000 0.000000 
#    y 0.000000 3.571380 0.000000 
#    z 0.000000 0.000000 3.840410 
# 
# 
# High freq. dielectric constant tensor:
#      x y z
#    x 1.785000 0.000000 0.000000 
#    y 0.000000 1.785000 0.000000 
#    z 0.000000 0.000000 1.784050 
# 
# From -- ./inp_files/6574.got.cif
#   From: 2010.03.12/outbox.cif.g09.slc.cpg/sg155_4_cif.got.tgz:6574.got - 2010.04.03 13:54:13.
