data_PCOD8322374
_publ_section_title
;
Structure prediction by ZEFSAII (Michael W. Deem and Ramdas Pophale) SiO2 
 PCOD8322374
Probable space group: P 32 2 1
;
_chemical_formula_sum "Si O2"
_cell_formula_units_Z 36
_cell_length_a 9.027625
_cell_length_b 9.027625
_cell_length_c 24.212812
_cell_angle_alpha 90.000000
_cell_angle_beta 90.000000
_cell_angle_gamma 120.000000
_cell_volume 1708.924526
_symmetry_space_group_name_H-M "P 32 2 1"
_symmetry_group_IT_number 154
_symmetry_cell_setting 'hexagonal'
loop_
_space_group_symop_operation_xyz
x,y,z
-y,x-y,2/3+z
-x+y,-x,1/3+z
x-y,-y,1/3-z
-x,-x+y,2/3-z
y,x,-z
loop_
_atom_site_type_symbol
_atom_site_label
_atom_site_fract_x
_atom_site_fract_y
_atom_site_fract_z
Si Si1 0.629719 0.883889 0.716312
Si Si2 0.342616 0.022010 0.461092
Si Si3 0.430500 0.810404 0.168896
Si Si4 0.545111 0.922607 0.958356
Si Si5 0.719978 0.290678 0.952270
Si Si6 0.389055 0.860043 0.565794
O O1 0.739699 0.825510 0.755303
O O2 0.464308 0.717515 0.690586
O O3 0.751649 0.000000 0.666667
O O4 0.552578 0.983409 0.749780
O O5 0.386429 0.207849 0.484371
O O6 0.509440 0.057033 0.428126
O O7 0.313703 0.901834 0.512552
O O8 0.346246 0.722362 0.110791
O O9 0.299717 0.715294 0.218691
O O10 0.460914 0.000000 0.166667
O O11 0.568723 0.758990 0.946011
O O12 0.718048 0.109418 0.962340
O O13 0.435528 0.881188 0.014701
#
# Coordination Sequence:
#
# PCOD8322374 Si02
#       6
#     6   6   6   6   6   6
#     4  11  20  36  65  95 125 163 217 259 320 389
#     4  10  21  39  62  89 123 166 210 259 313 378
#     4  11  24  39  64  94 126 165 212 270 325 378
#     4  10  22  35  62  93 125 162 209 265 308 390
#     4  11  22  39  60  97 126 163 208 263 327 382
#     4  11  19  39  66  93 116 167 215 258 305 385
#
# _framework density 21.065882999999999
#
# number of rings (size 3 to 8) (size 9 to 14) (size 15 to 20)
#    0.000    1.333    6.667    1.000    4.667    0.000 
#    0.000    0.833    7.333    1.000    0.000    0.000 
#    0.000    0.000    0.000    0.000    0.000    0.000 
#
# Total GULP energy -446027.857018 kJ/mol
# GULP energy per Si atom -12389.662695 kJ/mol
# Density = 2.101794 g / cm^3
# Si number density = 21.065883 Si / 1000 Ang^3
#
#
#
# Elastic Constant Matrix: (Units=GPa)
#
#
# Indices 1 2 3 4 5 6 
#
# 1 74.1674 21.3001 17.9199 2.1862 0.0000 0.0000
# 2 21.3001 74.1674 17.9199 -2.1862 0.0000 0.0000
# 3 17.9199 17.9199 74.2582 0.0000 0.0000 0.0000
# 4 2.1862 -2.1862 0.0000 25.7718 0.0000 0.0000
# 5 0.0000 0.0000 0.0000 0.0000 25.7718 2.1862
# 6 0.0000 0.0000 0.0000 0.0000 2.1862 26.4337
#
#
#
# Elastic Compliance Matrix: (Units=1/GPa)
#
#
# Indices 1 2 3 4 5 6 
#
# 1 0.015284 -0.003765 -0.002780 -0.001616 0.000000 0.000000
# 2 -0.003765 0.015284 -0.002780 0.001616 0.000000 0.000000
# 3 -0.002780 -0.002780 0.014808 0.000000 0.000000 0.000000
# 4 -0.001616 0.001616 0.000000 0.039076 0.000000 0.000000
# 5 0.000000 0.000000 0.000000 0.000000 0.039076 -0.003232
# 6 0.000000 0.000000 0.000000 0.000000 -0.003232 0.038098
#
#
# Mechanical properties :
#
#
# Convention : Reuss Voigt Hill
#
# Bulk Modulus (GPa) = 37.41639 37.43035 37.42337
# Shear Modulus (GPa) = 26.42939 26.62566 26.52752
#
# Velocity S-wave (km/s) = 3.54588 3.55903 3.55246
# Velocity P-wave (km/s) = 5.87916 5.89031 5.88474
#
# Compressibility (1/GPa) = 0.02672626
#
# Stress axis : x y z
#
# Youngs Moduli (GPa) = 65.42966 65.42966 67.53084
#
# Poissons Ratio (x) = 0.24636 0.18771
# Poissons Ratio (y) = 0.24636 0.18771
# Poissons Ratio (z) = 0.18187 0.18187
#
# Static dielectric constant tensor:
#      x y z
#    x 3.866830 0.000000 0.000000 
#    y 0.000000 3.866830 0.000000 
#    z 0.000000 0.000000 3.891080 
# 
# 
# High freq. dielectric constant tensor:
#      x y z
#    x 1.803380 0.000000 0.000000 
#    y 0.000000 1.803380 0.000000 
#    z 0.000000 0.000000 1.837110 
# 
# From -- ./inp_files/3612.got.cif
#   From: 2010.03.12/outbox.cif.g09.slc.cpg/sg154_2_cif.got.tgz:3612.got - 2010.04.03 13:51:21.
