data_PCOD8322808
_publ_section_title
;
Structure prediction by ZEFSAII (Michael W. Deem and Ramdas Pophale) SiO2 
 PCOD8322808
Probable space group: P 3 1 C
;
_chemical_formula_sum "Si O2"
_cell_formula_units_Z 42
_cell_length_a 8.536148
_cell_length_b 8.536148
_cell_length_c 32.308127
_cell_angle_alpha 90.000000
_cell_angle_beta 90.000000
_cell_angle_gamma 120.000000
_cell_volume 2038.760852
_symmetry_space_group_name_H-M "P 3 1 C"
_symmetry_group_IT_number 159
_symmetry_cell_setting 'hexagonal'
loop_
_space_group_symop_operation_xyz
x,y,z
-y,x-y,z
-x+y,-x,z
y,x,1/2+z
x-y,-y,1/2+z
-x,-x+y,1/2+z
loop_
_atom_site_type_symbol
_atom_site_label
_atom_site_fract_x
_atom_site_fract_y
_atom_site_fract_z
Si Si1 0.688424 0.545404 0.608190
Si Si2 0.334833 0.341313 0.485831
Si Si3 0.001194 0.328099 0.274938
Si Si4 0.984160 0.193245 0.685326
Si Si5 0.667436 0.675919 0.019170
Si Si6 0.340950 0.468968 0.396100
Si Si7 0.340343 0.339574 0.808318
O O1 0.499344 0.352749 0.608672
O O2 0.696971 0.665902 0.646971
O O3 0.701357 0.661355 0.568169
O O4 0.470003 0.533677 0.506187
O O5 0.138065 0.269041 0.505814
O O6 0.334813 0.359774 0.436617
O O7 0.396818 0.196708 0.495624
O O8 0.016331 0.316268 0.225837
O O9 0.197837 0.401072 0.294451
O O10 0.935973 0.469594 0.285847
O O11 0.864500 0.133856 0.294708
O O12 0.170433 0.184746 0.684433
O O13 0.514663 0.673311 0.395198
O O14 0.356518 0.357681 0.357856
#
# Coordination Sequence:
#
# PCOD8322808 Si02
#       7
#     6   6   6   6   6   6   6
#     4  10  23  41  65 100 133 172 227 273 336 408
#     4  12  24  42  72  94 144 180 227 284 339 406
#     4  12  24  45  65 105 133 186 223 276 346 407
#     4  10  23  41  65  98 134 174 219 278 333 403
#     4  12  24  45  65 105 135 188 222 282 342 409
#     4  10  20  42  66 102 130 175 232 278 346 402
#     4  12  24  42  72  94 141 177 226 285 334 407
#
# _framework density 20.600750999999999
#
# number of rings (size 3 to 8) (size 9 to 14) (size 15 to 20)
#    0.857    0.000    5.714    1.714    4.000    2.286 
#    0.000    0.000    0.000    0.571    0.000    0.000 
#    0.000    0.000    0.000    0.000    0.000    0.000 
#
# Total GULP energy -520894.688281 kJ/mol
# GULP energy per Si atom -12402.254483 kJ/mol
# Density = 2.055386 g / cm^3
# Si number density = 20.600751 Si / 1000 Ang^3
#
#
#
# Elastic Constant Matrix: (Units=GPa)
#
#
# Indices 1 2 3 4 5 6 
#
# 1 67.7199 14.9019 47.9831 0.0000 0.7727 0.0000
# 2 14.9019 67.7199 47.9831 0.0000 -0.7727 0.0000
# 3 47.9831 47.9831 219.3120 0.0000 0.0000 0.0000
# 4 0.0000 0.0000 0.0000 29.9344 0.0000 -0.7727
# 5 0.7727 -0.7727 0.0000 0.0000 29.9344 0.0000
# 6 0.0000 0.0000 0.0000 -0.7727 0.0000 26.4090
#
#
#
# Elastic Compliance Matrix: (Units=1/GPa)
#
#
# Indices 1 2 3 4 5 6 
#
# 1 0.017587 -0.001360 -0.003550 0.000000 -0.000489 0.000000
# 2 -0.001360 0.017587 -0.003550 0.000000 0.000489 0.000000
# 3 -0.003550 -0.003550 0.006113 0.000000 0.000000 0.000000
# 4 0.000000 0.000000 0.000000 0.033432 0.000000 0.000978
# 5 -0.000489 0.000489 0.000000 0.000000 0.033432 0.000000
# 6 0.000000 0.000000 0.000000 0.000978 0.000000 0.037895
#
#
# Mechanical properties :
#
#
# Convention : Reuss Voigt Hill
#
# Bulk Modulus (GPa) = 41.04055 64.05423 52.54739
# Shear Modulus (GPa) = 29.22457 33.51445 31.36951
#
# Velocity S-wave (km/s) = 3.77054 4.03781 3.90646
# Velocity P-wave (km/s) = 6.23868 7.27318 6.77570
#
# Compressibility (1/GPa) = 0.02436615
#
# Stress axis : x y z
#
# Youngs Moduli (GPa) = 56.85967 56.85967 163.57911
#
# Poissons Ratio (x) = 0.07733 0.58076
# Poissons Ratio (y) = 0.07733 0.58076
# Poissons Ratio (z) = 0.20187 0.20187
#
# Static dielectric constant tensor:
#      x y z
#    x 3.496880 0.000000 0.000000 
#    y 0.000000 3.496880 0.000000 
#    z 0.000000 0.000000 3.673210 
# 
# 
# High freq. dielectric constant tensor:
#      x y z
#    x 1.794810 0.000000 0.000000 
#    y 0.000000 1.794810 0.000000 
#    z 0.000000 0.000000 1.817860 
# 
# From -- ./inp_files/1315.got.cif
#   From: 2010.03.12/outbox.cif.g09.slc.cpg/sg159_cif.got.tgz:1315.got - 2010.04.03 14:00:19.
