data_PCOD8322785
_publ_section_title
;
Structure prediction by ZEFSAII (Michael W. Deem and Ramdas Pophale) SiO2 
 PCOD8322785
Probable space group: P 3 1 C
;
_chemical_formula_sum "Si O2"
_cell_formula_units_Z 36
_cell_length_a 20.420331
_cell_length_b 20.420331
_cell_length_c 5.347822
_cell_angle_alpha 90.000000
_cell_angle_beta 90.000000
_cell_angle_gamma 120.000000
_cell_volume 1931.226135
_symmetry_space_group_name_H-M "P 3 1 C"
_symmetry_group_IT_number 159
_symmetry_cell_setting 'hexagonal'
loop_
_space_group_symop_operation_xyz
x,y,z
-y,x-y,z
-x+y,-x,z
y,x,1/2+z
x-y,-y,1/2+z
-x,-x+y,1/2+z
loop_
_atom_site_type_symbol
_atom_site_label
_atom_site_fract_x
_atom_site_fract_y
_atom_site_fract_z
Si Si1 0.911467 0.460998 0.581080
Si Si2 0.907592 0.660988 0.081114
Si Si3 0.921922 0.519902 0.081082
Si Si4 0.840806 0.022873 0.581116
Si Si5 0.337715 0.950644 0.080954
Si Si6 0.167426 0.330671 0.081111
O O1 0.875257 0.475692 0.330960
O O2 0.898526 0.376532 0.581126
O O3 0.001197 0.518427 0.581026
O O4 0.875261 0.475707 0.831179
O O5 0.944021 0.607298 0.081129
O O6 0.855321 0.639319 0.327523
O O7 0.855336 0.639321 0.834673
O O8 0.975475 0.747925 0.081132
O O9 0.872662 0.111976 0.581103
O O10 0.869420 0.000003 0.831120
O O11 0.248698 0.897075 0.081191
O O12 0.360269 0.000097 0.330743
#
# Coordination Sequence:
#
# PCOD8322785 Si02
#       6
#     6   6   6   6   6   6
#     4  10  19  29  46  75  94 136 167 212 262 301
#     4  10  19  31  49  78 109 123 156 216 269 345
#     4  10  18  28  49  73 102 122 166 208 277 301
#     4   8  16  27  42  66  97 126 143 190 248 316
#     4  12  21  38  50  68 109 144 184 222 238 305
#     4  10  21  31  48  72 101 141 168 200 274 310
#
# _framework density 18.641006999999998
#
# number of rings (size 3 to 8) (size 9 to 14) (size 15 to 20)
#    0.000    2.000    3.333    2.000   14.000    0.000 
#    0.000    0.000    0.000    0.000    0.000    0.000 
#   33.333    0.000    0.000  270.000    0.000    0.000 
#
# Total GULP energy -446032.862107 kJ/mol
# GULP energy per Si atom -12389.801725 kJ/mol
# Density = 1.859858 g / cm^3
# Si number density = 18.641007 Si / 1000 Ang^3
#
#
#
# Elastic Constant Matrix: (Units=GPa)
#
#
# Indices 1 2 3 4 5 6 
#
# 1 33.6064 -1.1839 11.8618 0.0000 0.0026 0.0000
# 2 -1.1839 33.6064 11.8618 0.0000 -0.0026 0.0000
# 3 11.8618 11.8618 204.0489 0.0000 0.0000 0.0000
# 4 0.0000 0.0000 0.0000 15.8756 0.0000 -0.0026
# 5 0.0026 -0.0026 0.0000 0.0000 15.8756 0.0000
# 6 0.0000 0.0000 0.0000 -0.0026 0.0000 17.3951
#
#
#
# Elastic Compliance Matrix: (Units=1/GPa)
#
#
# Indices 1 2 3 4 5 6 
#
# 1 0.030478 0.001735 -0.001873 0.000000 -0.000005 0.000000
# 2 0.001735 0.030478 -0.001873 0.000000 0.000005 0.000000
# 3 -0.001873 -0.001873 0.005119 0.000000 0.000000 0.000000
# 4 0.000000 0.000000 0.000000 0.062990 0.000000 0.000009
# 5 -0.000005 0.000005 0.000000 0.000000 0.062990 0.000000
# 6 0.000000 0.000000 0.000000 0.000009 0.000000 0.057487
#
#
# Mechanical properties :
#
#
# Convention : Reuss Voigt Hill
#
# Bulk Modulus (GPa) = 16.11500 35.14900 25.63200
# Shear Modulus (GPa) = 18.23171 26.41075 22.32123
#
# Velocity S-wave (km/s) = 3.13076 3.76814 3.46414
# Velocity P-wave (km/s) = 4.66182 6.15049 5.45715
#
# Compressibility (1/GPa) = 0.06205399
#
# Stress axis : x y z
#
# Youngs Moduli (GPa) = 32.81021 32.81021 195.36968
#
# Poissons Ratio (x) = -0.05691 0.36585
# Poissons Ratio (y) = -0.05691 0.36585
# Poissons Ratio (z) = 0.06144 0.06144
#
# Static dielectric constant tensor:
#      x y z
#    x 2.967330 0.000000 0.000000 
#    y 0.000000 2.967330 0.000000 
#    z 0.000000 0.000000 5.717870 
# 
# 
# High freq. dielectric constant tensor:
#      x y z
#    x 1.670660 0.000000 0.000000 
#    y 0.000000 1.670660 0.000000 
#    z 0.000000 0.000000 1.778000 
# 
# From -- ./inp_files/112.got.cif
#   From: 2010.03.12/outbox.cif.g09.slc.cpg/sg159_cif.got.tgz:112.got - 2010.04.03 14:00:19.
