data_PCOD8322411
_publ_section_title
;
Structure prediction by ZEFSAII (Michael W. Deem and Ramdas Pophale) SiO2 
 PCOD8322411
Probable space group: P 32 2 1
;
_chemical_formula_sum "Si O2"
_cell_formula_units_Z 45
_cell_length_a 11.588514
_cell_length_b 11.588514
_cell_length_c 18.206624
_cell_angle_alpha 90.000000
_cell_angle_beta 90.000000
_cell_angle_gamma 120.000000
_cell_volume 2117.461656
_symmetry_space_group_name_H-M "P 32 2 1"
_symmetry_group_IT_number 154
_symmetry_cell_setting 'hexagonal'
loop_
_space_group_symop_operation_xyz
x,y,z
-y,x-y,2/3+z
-x+y,-x,1/3+z
x-y,-y,1/3-z
-x,-x+y,2/3-z
y,x,-z
loop_
_atom_site_type_symbol
_atom_site_label
_atom_site_fract_x
_atom_site_fract_y
_atom_site_fract_z
Si Si1 0.172232 0.265522 0.911627
Si Si2 0.183671 0.937138 0.402487
Si Si3 0.516155 0.976598 0.744448
Si Si4 0.710383 0.405001 0.896341
Si Si5 0.464694 0.493666 0.364806
Si Si6 0.240087 0.363708 0.549862
Si Si7 0.000000 0.345225 0.833334
Si Si8 0.393661 0.881863 0.446984
O O1 0.155455 0.119493 0.895496
O O2 0.326862 0.360765 0.928033
O O3 0.126397 0.322611 0.843888
O O4 0.081366 0.253313 0.981331
O O5 0.241853 0.847012 0.435313
O O6 0.284262 0.090214 0.421908
O O7 0.430958 0.819607 0.753228
O O8 0.464432 0.000000 0.666667
O O9 0.481278 0.046244 0.808708
O O10 0.777305 0.498737 0.825645
O O11 0.660933 0.247689 0.883679
O O12 0.814217 0.462943 0.964877
O O13 0.405180 0.337836 0.380722
O O14 0.567717 0.583647 0.428539
O O15 0.524122 0.513408 0.283954
O O16 0.263792 0.263792 0.500000
#
# Coordination Sequence:
#
# PCOD8322411 Si02
#       8
#     6   6   6   6   6   6   3   6
#     4  11  24  43  69 104 140 186 238 295 356 425
#     4  11  22  44  67  99 139 186 234 288 360 427
#     4  12  25  43  65  98 142 186 232 296 358 416
#     4  11  23  45  70 104 141 187 232 302 353 435
#     4  11  25  45  70 107 138 183 236 298 361 429
#     4  10  23  44  72  99 144 187 233 297 369 429
#     4  12  22  42  74 102 138 176 234 292 354 430
#     4  12  25  39  73 102 142 187 239 293 362 437
#
# _framework density 21.251860000000001
#
# number of rings (size 3 to 8) (size 9 to 14) (size 15 to 20)
#    0.000    0.800    7.333    0.800    2.800    2.133 
#    0.000    0.000   11.733    0.000    0.000    0.000 
#    0.000    0.000    0.000    0.000    0.000    0.000 
#
# Total GULP energy -557555.601941 kJ/mol
# GULP energy per Si atom -12390.124488 kJ/mol
# Density = 2.120349 g / cm^3
# Si number density = 21.251860 Si / 1000 Ang^3
#
#
#
# Elastic Constant Matrix: (Units=GPa)
#
#
# Indices 1 2 3 4 5 6 
#
# 1 121.8502 52.2869 47.8041 -1.7974 0.0004 0.0000
# 2 52.2869 121.8502 47.8041 1.7974 -0.0004 0.0000
# 3 47.8041 47.8041 115.7392 0.0000 0.0000 0.0000
# 4 -1.7974 1.7974 0.0000 22.7230 0.0000 -0.0004
# 5 0.0004 -0.0004 0.0000 0.0000 22.7230 -1.7974
# 6 0.0000 0.0000 0.0000 -0.0004 -1.7974 34.7817
#
#
#
# Elastic Compliance Matrix: (Units=1/GPa)
#
#
# Indices 1 2 3 4 5 6 
#
# 1 0.010931 -0.003504 -0.003068 0.001142 0.000000 0.000000
# 2 -0.003504 0.010931 -0.003068 -0.001142 0.000000 0.000000
# 3 -0.003068 -0.003068 0.011174 0.000000 0.000000 0.000000
# 4 0.001142 -0.001142 0.000000 0.044189 0.000000 0.000000
# 5 0.000000 0.000000 0.000000 0.000000 0.044189 0.002284
# 6 0.000000 0.000000 0.000000 0.000000 0.002284 0.028869
#
#
# Mechanical properties :
#
#
# Convention : Reuss Voigt Hill
#
# Bulk Modulus (GPa) = 72.68700 72.80333 72.74516
# Shear Modulus (GPa) = 28.71167 30.14852 29.43009
#
# Velocity S-wave (km/s) = 3.67961 3.77056 3.72536
# Velocity P-wave (km/s) = 7.23392 7.29986 7.26696
#
# Compressibility (1/GPa) = 0.01375762
#
# Stress axis : x y z
#
# Youngs Moduli (GPa) = 91.48640 91.48640 89.49280
#
# Poissons Ratio (x) = 0.32055 0.27452
# Poissons Ratio (y) = 0.32055 0.27452
# Poissons Ratio (z) = 0.28064 0.28064
#
# Static dielectric constant tensor:
#      x y z
#    x 4.107030 0.000000 0.000000 
#    y 0.000000 4.107030 0.000000 
#    z 0.000000 0.000000 3.841100 
# 
# 
# High freq. dielectric constant tensor:
#      x y z
#    x 1.843240 0.000000 0.000000 
#    y 0.000000 1.843240 0.000000 
#    z 0.000000 0.000000 1.817090 
# 
# From -- ./inp_files/2507.got.cif
#   From: 2010.03.12/outbox.cif.g09.slc.cpg/sg154_2_cif.got.tgz:2507.got - 2010.04.03 13:51:21.
