data_PCOD8322759
_publ_section_title
;
Structure prediction by ZEFSAII (Michael W. Deem and Ramdas Pophale) SiO2 
 PCOD8322759
Probable space group: P 3 C 1
;
_chemical_formula_sum "Si O2"
_cell_formula_units_Z 30
_cell_length_a 9.935536
_cell_length_b 9.935536
_cell_length_c 14.929445
_cell_angle_alpha 90.000000
_cell_angle_beta 90.000000
_cell_angle_gamma 120.000000
_cell_volume 1276.312132
_symmetry_space_group_name_H-M "P 3 C 1"
_symmetry_group_IT_number 158
_symmetry_cell_setting 'hexagonal'
loop_
_space_group_symop_operation_xyz
x,y,z
-y,x-y,z
-x+y,-x,z
-x+y,y,1/2+z
x,x-y,1/2+z
-y,-x,1/2+z
loop_
_atom_site_type_symbol
_atom_site_label
_atom_site_fract_x
_atom_site_fract_y
_atom_site_fract_z
Si Si1 0.717045 0.794860 0.810000
Si Si2 0.717045 0.922185 0.633234
Si Si3 0.916690 0.649526 0.873267
Si Si4 0.512306 0.024611 0.721617
Si Si5 0.350474 0.083310 0.569967
O O1 0.827107 0.744389 0.859233
O O2 0.558759 0.641890 0.778698
O O3 0.674225 0.898728 0.873886
O O4 0.799958 0.899980 0.721617
O O5 0.827107 0.082718 0.584001
O O6 0.558759 0.916870 0.664536
O O7 0.674224 0.775496 0.569348
O O8 0.871817 0.521129 0.794153
O O9 0.874523 0.569217 0.971617
O O10 0.478871 0.128183 0.649081
#
# Coordination Sequence:
#
# PCOD8322759 Si02
#       5
#     6   6   6   6   6
#     4  10  21  42  67  94 128 167 218 274 334 390
#     4  10  21  42  67  94 128 167 218 274 334 390
#     4  11  23  41  69 100 130 168 221 280 330 390
#     4  10  22  40  60  90 138 170 206 254 328 396
#     4  11  23  41  69 100 130 168 221 280 330 390
#
# _framework density 23.505220999999999
#
# number of rings (size 3 to 8) (size 9 to 14) (size 15 to 20)
#    0.000    1.600    0.000    6.800    0.000    6.400 
#   42.000    0.000    0.000    0.000    0.000    0.000 
#    0.000    0.000    0.000    0.000    0.000    0.000 
#
# Total GULP energy -371675.523837 kJ/mol
# GULP energy per Si atom -12389.184128 kJ/mol
# Density = 2.345172 g / cm^3
# Si number density = 23.505221 Si / 1000 Ang^3
#
#
#
# Elastic Constant Matrix: (Units=GPa)
#
#
# Indices 1 2 3 4 5 6 
#
# 1 82.1932 11.7927 40.5157 0.0000 0.0000 0.0000
# 2 11.7927 82.1932 40.5157 0.0000 0.0000 0.0000
# 3 40.5157 40.5157 178.6835 0.0000 0.0000 0.0000
# 4 0.0000 0.0000 0.0000 22.8338 0.0000 0.0000
# 5 0.0000 0.0000 0.0000 0.0000 22.8338 0.0000
# 6 0.0000 0.0000 0.0000 0.0000 0.0000 35.2003
#
#
#
# Elastic Compliance Matrix: (Units=1/GPa)
#
#
# Indices 1 2 3 4 5 6 
#
# 1 0.013715 -0.000490 -0.002999 0.000000 0.000000 0.000000
# 2 -0.000490 0.013715 -0.002999 0.000000 0.000000 0.000000
# 3 -0.002999 -0.002999 0.006956 0.000000 0.000000 0.000000
# 4 0.000000 0.000000 0.000000 0.043795 0.000000 0.000000
# 5 0.000000 0.000000 0.000000 0.000000 0.043795 0.000000
# 6 0.000000 0.000000 0.000000 0.000000 0.000000 0.028409
#
#
# Mechanical properties :
#
#
# Convention : Reuss Voigt Hill
#
# Bulk Modulus (GPa) = 46.70292 58.74645 52.72468
# Shear Modulus (GPa) = 29.32618 32.85662 31.09140
#
# Velocity S-wave (km/s) = 3.53603 3.74283 3.64090
# Velocity P-wave (km/s) = 6.04844 6.61253 6.33677
#
# Compressibility (1/GPa) = 0.02141194
#
# Stress axis : x y z
#
# Youngs Moduli (GPa) = 72.91346 72.91346 143.75229
#
# Poissons Ratio (x) = 0.03570 0.43108
# Poissons Ratio (y) = 0.03570 0.43108
# Poissons Ratio (z) = 0.21865 0.21865
#
# Static dielectric constant tensor:
#      x y z
#    x 4.146610 0.000000 0.000000 
#    y 0.000000 4.146610 0.000000 
#    z 0.000000 0.000000 4.347440 
# 
# 
# High freq. dielectric constant tensor:
#      x y z
#    x 1.911910 0.000000 0.000000 
#    y 0.000000 1.911910 0.000000 
#    z 0.000000 0.000000 1.933190 
# 
# From -- ./inp_files/443.got.cif
#   From: 2010.03.12/outbox.cif.g09.slc.cpg/sg158_cif.got.tgz:443.got - 2010.04.03 13:59:47.
