data_PCOD8322670
_publ_section_title
;
Structure prediction by ZEFSAII (Michael W. Deem and Ramdas Pophale) SiO2 
 PCOD8322670
Probable space group: P 3 M 1
;
_chemical_formula_sum "Si O2"
_cell_formula_units_Z 48
_cell_length_a 12.754768
_cell_length_b 12.754768
_cell_length_c 20.626846
_cell_angle_alpha 90.000000
_cell_angle_beta 90.000000
_cell_angle_gamma 120.000000
_cell_volume 2906.086821
_symmetry_space_group_name_H-M "P 3 M 1"
_symmetry_group_IT_number 156
_symmetry_cell_setting 'hexagonal'
loop_
_space_group_symop_operation_xyz
x,y,z
-y,x-y,z
-x+y,-x,z
-x+y,y,z
x,x-y,z
-y,-x,z
loop_
_atom_site_type_symbol
_atom_site_label
_atom_site_fract_x
_atom_site_fract_y
_atom_site_fract_z
Si Si1 0.087893 0.665085 0.263610
Si Si2 0.666768 0.578497 0.382699
Si Si3 0.335561 0.423143 0.896555
Si Si4 0.095499 0.430722 0.756841
Si Si5 0.423729 0.333303 0.004149
Si Si6 0.755621 0.000674 0.501707
Si Si7 0.087625 0.422875 0.616245
Si Si8 0.666045 0.089891 0.150869
O O1 0.128220 0.564110 0.263099
O O2 0.204959 0.795041 0.272055
O O3 0.996419 0.642916 0.321622
O O4 0.021250 0.662745 0.196923
O O5 0.781404 0.562808 0.368189
O O6 0.552492 0.447509 0.396185
O O7 0.686876 0.661560 0.444467
O O8 0.212750 0.425499 0.896882
O O9 0.442606 0.557395 0.912866
O O10 0.357320 0.379606 0.824962
O O11 0.328455 0.332580 0.952771
O O12 0.199017 0.398033 0.758884
O O13 0.151262 0.575631 0.755969
O O14 0.025548 0.379447 0.688238
O O15 0.431967 0.215984 0.991236
O O16 0.555353 0.444648 0.990106
O O17 0.381352 0.336316 0.077476
O O18 0.755149 0.877575 0.486174
O O19 0.685764 0.992451 0.567826
O O20 0.892922 0.107079 0.509213
O O21 0.226520 0.453039 0.617524
O O22 0.087015 0.543508 0.593622
O O23 0.563625 0.127249 0.161363
O O24 0.793935 0.206066 0.168229
#
# Coordination Sequence:
#
# PCOD8322670 Si02
#       8
#     6   6   6   6   6   6   6   6
#     4  10  20  33  49  70  97 126 151 176 212 261
#     4  10  20  34  53  75  96 118 147 186 228 265
#     4   9  16  26  42  65  91 117 145 180 225 275
#     4   8  13  22  38  61  88 115 143 178 223 273
#     4   9  17  29  45  65  88 116 150 187 226 266
#     4  10  20  33  48  66  91 124 158 188 219 261
#     4   9  16  27  45  68  91 114 144 186 234 277
#     4   9  17  30  49  70  90 114 148 191 233 268
#
# _framework density 16.517057000000001
#
# number of rings (size 3 to 8) (size 9 to 14) (size 15 to 20)
#    0.000    2.750    0.000    2.125    0.000    3.500 
#    0.000    1.875    0.000    8.750    0.000    0.000 
#    0.000    0.000    0.000    0.000    0.000    0.000 
#
# Total GULP energy -594841.423870 kJ/mol
# GULP energy per Si atom -12392.529664 kJ/mol
# Density = 1.647946 g / cm^3
# Si number density = 16.517057 Si / 1000 Ang^3
#
#
#
# Elastic Constant Matrix: (Units=GPa)
#
#
# Indices 1 2 3 4 5 6 
#
# 1 84.6684 45.2635 59.7676 -1.0309 -0.0002 0.0000
# 2 45.2635 84.6684 59.7676 1.0309 0.0002 0.0000
# 3 59.7676 59.7676 132.6394 0.0000 0.0000 0.0000
# 4 -1.0309 1.0309 0.0000 23.9576 0.0000 0.0002
# 5 -0.0002 0.0002 0.0000 0.0000 23.9576 -1.0309
# 6 0.0000 0.0000 0.0000 0.0002 -1.0309 19.7025
#
#
#
# Elastic Compliance Matrix: (Units=1/GPa)
#
#
# Indices 1 2 3 4 5 6 
#
# 1 0.019290 -0.006144 -0.005924 0.001094 0.000000 0.000000
# 2 -0.006144 0.019290 -0.005924 -0.001094 0.000000 0.000000
# 3 -0.005924 -0.005924 0.012878 0.000000 0.000000 0.000000
# 4 0.001094 -0.001094 0.000000 0.041835 0.000000 0.000000
# 5 0.000000 0.000000 0.000000 0.000000 0.041835 0.002189
# 6 0.000000 0.000000 0.000000 0.000000 0.002189 0.050870
#
#
# Mechanical properties :
#
#
# Convention : Reuss Voigt Hill
#
# Bulk Modulus (GPa) = 64.61980 70.17486 67.39733
# Shear Modulus (GPa) = 22.01297 22.66870 22.34083
#
# Velocity S-wave (km/s) = 3.65463 3.70867 3.68175
# Velocity P-wave (km/s) = 7.55092 7.80496 7.67900
#
# Compressibility (1/GPa) = 0.01547513
#
# Stress axis : x y z
#
# Youngs Moduli (GPa) = 51.83928 51.83928 77.65412
#
# Poissons Ratio (x) = 0.31852 0.45999
# Poissons Ratio (y) = 0.31852 0.45999
# Poissons Ratio (z) = 0.30708 0.30708
#
# Static dielectric constant tensor:
#      x y z
#    x 2.921840 0.000000 0.000000 
#    y 0.000000 2.921840 0.000000 
#    z 0.000000 0.000000 3.600460 
# 
# 
# High freq. dielectric constant tensor:
#      x y z
#    x 1.615890 0.000000 0.000000 
#    y 0.000000 1.615890 0.000000 
#    z 0.000000 0.000000 1.659490 
# 
# From -- ./inp_files/1133.got.cif
#   From: 2010.03.12/outbox.cif.g09.slc.cpg/sg156_cif.got.tgz:1133.got - 2010.04.03 13:58:47.
