data_PCOD8322331
_publ_section_title
;
Structure prediction by ZEFSAII (Michael W. Deem and Ramdas Pophale) SiO2 
 PCOD8322331
Probable space group: P 32 2 1
;
_chemical_formula_sum "Si O2"
_cell_formula_units_Z 36
_cell_length_a 16.280549
_cell_length_b 16.280549
_cell_length_c 9.805369
_cell_angle_alpha 90.000000
_cell_angle_beta 90.000000
_cell_angle_gamma 120.000000
_cell_volume 2250.778018
_symmetry_space_group_name_H-M "P 32 2 1"
_symmetry_group_IT_number 154
_symmetry_cell_setting 'hexagonal'
loop_
_space_group_symop_operation_xyz
x,y,z
-y,x-y,2/3+z
-x+y,-x,1/3+z
x-y,-y,1/3-z
-x,-x+y,2/3-z
y,x,-z
loop_
_atom_site_type_symbol
_atom_site_label
_atom_site_fract_x
_atom_site_fract_y
_atom_site_fract_z
Si Si1 0.492552 0.686906 0.600537
Si Si2 0.499274 0.800632 0.845012
Si Si3 0.698643 0.199368 0.988320
Si Si4 0.435629 0.435630 0.750002
Si Si5 0.000000 0.451157 0.333334
Si Si6 0.548842 0.548842 0.500000
Si Si7 0.313093 0.805647 0.767204
O O1 0.535872 0.752657 0.734579
O O2 0.479112 0.748423 0.487361
O O3 0.390587 0.597326 0.628270
O O4 0.563184 0.649756 0.550848
O O5 0.576904 0.912050 0.867151
O O6 0.402672 0.793260 0.794938
O O7 0.479113 0.748425 0.987361
O O8 0.783215 0.247342 0.098754
O O9 0.664855 0.087950 0.966177
O O10 0.474342 0.510954 0.874585
O O11 0.510952 0.474341 0.625416
O O12 0.086572 0.436815 0.384183
#
# Coordination Sequence:
#
# PCOD8322331 Si02
#       7
#     6   6   6   6   3   3   6
#     4  11  20  30  45  64  86 116 154 191 224 264
#     4  11  20  30  45  64  86 116 154 191 224 264
#     4  11  20  30  45  64  86 116 154 191 224 264
#     4  10  20  32  44  62  90 118 148 192 240 268
#     4  10  20  32  44  62  90 118 148 192 240 268
#     4  10  20  32  44  62  90 118 148 192 240 268
#     4  11  20  30  45  64  86 116 154 191 224 264
#
# _framework density 15.994467999999999
#
# number of rings (size 3 to 8) (size 9 to 14) (size 15 to 20)
#    0.000    1.333    0.000   12.000    0.000    0.000 
#    0.000    0.000    0.000    0.000    0.000    0.000 
#    0.000    0.000    0.000    6.000    0.000   27.333 
#
# Total GULP energy -446376.696980 kJ/mol
# GULP energy per Si atom -12399.352694 kJ/mol
# Density = 1.595806 g / cm^3
# Si number density = 15.994468 Si / 1000 Ang^3
#
#
#
# Elastic Constant Matrix: (Units=GPa)
#
#
# Indices 1 2 3 4 5 6 
#
# 1 63.2388 34.0343 12.1491 -1.0885 0.0001 0.0000
# 2 34.0343 63.2388 12.1491 1.0885 -0.0001 0.0000
# 3 12.1491 12.1491 80.2779 0.0000 0.0000 0.0000
# 4 -1.0885 1.0885 0.0000 27.5028 0.0000 -0.0001
# 5 0.0001 -0.0001 0.0000 0.0000 27.5028 -1.0885
# 6 0.0000 0.0000 0.0000 -0.0001 -1.0885 14.6023
#
#
#
# Elastic Compliance Matrix: (Units=1/GPa)
#
#
# Indices 1 2 3 4 5 6 
#
# 1 0.022513 -0.011829 -0.001617 0.001359 0.000000 0.000000
# 2 -0.011829 0.022513 -0.001617 -0.001359 0.000000 0.000000
# 3 -0.001617 -0.001617 0.012946 0.000000 0.000000 0.000000
# 4 0.001359 -0.001359 0.000000 0.036468 0.000000 0.000000
# 5 0.000000 0.000000 0.000000 0.000000 0.036468 0.002718
# 6 0.000000 0.000000 0.000000 0.000000 0.002718 0.068685
#
#
# Mechanical properties :
#
#
# Convention : Reuss Voigt Hill
#
# Bulk Modulus (GPa) = 35.91068 35.93562 35.92315
# Shear Modulus (GPa) = 20.92037 23.81644 22.36840
#
# Velocity S-wave (km/s) = 3.62052 3.86300 3.74372
# Velocity P-wave (km/s) = 6.32283 6.51255 6.41839
#
# Compressibility (1/GPa) = 0.02784687
#
# Stress axis : x y z
#
# Youngs Moduli (GPa) = 44.41797 44.41797 77.24313
#
# Poissons Ratio (x) = 0.52543 0.12490
# Poissons Ratio (y) = 0.52543 0.12490
# Poissons Ratio (z) = 0.07182 0.07182
#
# Static dielectric constant tensor:
#      x y z
#    x 3.032980 0.000000 0.000000 
#    y 0.000000 3.032980 0.000000 
#    z 0.000000 0.000000 3.564930 
# 
# 
# High freq. dielectric constant tensor:
#      x y z
#    x 1.578890 0.000000 0.000000 
#    y 0.000000 1.578890 0.000000 
#    z 0.000000 0.000000 1.652470 
# 
# From -- ./inp_files/1232.got.cif
#   From: 2010.03.12/outbox.cif.g09.slc.cpg/sg154_1_cif.got.tgz:1232.got - 2010.04.03 13:51:21.
