data_PCOD8322850
_publ_section_title
;
Structure prediction by ZEFSAII (Michael W. Deem and Ramdas Pophale) SiO2 
 PCOD8322850
Probable space group: R 3 M
;
_chemical_formula_sum "Si O2"
_cell_formula_units_Z 108
_cell_length_a 21.124188
_cell_length_b 21.124188
_cell_length_c 15.574168
_cell_angle_alpha 90.000000
_cell_angle_beta 90.000000
_cell_angle_gamma 120.000000
_cell_volume 6018.600748
_symmetry_space_group_name_H-M "R 3 M"
_symmetry_group_IT_number 160
_symmetry_cell_setting 'hexagonal'
loop_
_space_group_symop_operation_xyz
x,y,z
-y,x-y,z
-x+y,-x,z
-x+y,y,z
x,x-y,z
-y,-x,z
2/3+x,1/3+y,1/3+z
2/3-y,1/3+x-y,1/3+z
2/3-x+y,1/3-x,1/3+z
2/3-x+y,1/3+y,1/3+z
2/3+x,1/3+x-y,1/3+z
2/3-y,1/3-x,1/3+z
1/3+x,2/3+y,2/3+z
1/3-y,2/3+x-y,2/3+z
1/3-x+y,2/3-x,2/3+z
1/3-x+y,2/3+y,2/3+z
1/3+x,2/3+x-y,2/3+z
1/3-y,2/3-x,2/3+z
loop_
_atom_site_type_symbol
_atom_site_label
_atom_site_fract_x
_atom_site_fract_y
_atom_site_fract_z
Si Si1 0.194348 0.952313 0.012194
Si Si2 0.860989 0.575309 0.845542
Si Si3 0.320848 0.403705 0.506092
Si Si4 0.594518 0.870606 0.327989
Si Si5 0.987508 0.737098 0.339427
Si Si6 0.129423 0.405540 0.827976
O O1 0.111154 0.888847 0.013424
O O2 0.247351 0.919196 0.026087
O O3 0.204513 0.007848 0.088290
O O4 0.210059 0.993903 0.920833
O O5 0.777796 0.555592 0.846896
O O6 0.876633 0.549422 0.754145
O O7 0.914018 0.661428 0.859382
O O8 0.871229 0.529965 0.921612
O O9 0.307353 0.440310 0.421968
O O10 0.385906 0.387804 0.485010
O O11 0.613266 0.806633 0.317186
O O12 0.668618 0.947459 0.318325
O O13 0.974002 0.773693 0.255303
O O14 0.193410 0.386819 0.817096
#
# Coordination Sequence:
#
# PCOD8322850 Si02
#       6
#    18  18  18  18  18  18
#     4  11  21  34  56  82 114 149 181 226 278 331
#     4  11  21  34  56  82 114 149 181 226 278 331
#     4  10  18  36  51  82 113 144 180 224 288 334
#     4  11  21  34  56  82 114 149 181 226 278 331
#     4  10  18  36  51  82 113 144 180 224 288 334
#     4  11  21  34  56  82 114 149 181 226 278 331
#
# _framework density 17.944371
#
# number of rings (size 3 to 8) (size 9 to 14) (size 15 to 20)
#    0.000    1.333    6.667    4.000    0.000    8.000 
#    0.000    0.000    0.000    0.667    0.000    2.333 
#    0.000    0.000    0.000    0.000    0.000    0.000 
#
# Total GULP energy -446407.555038 kJ/mol
# GULP energy per Si atom -12400.209862 kJ/mol
# Density = 1.790353 g / cm^3
# Si number density = 17.944371 Si / 1000 Ang^3
#
#
#
# Elastic Constant Matrix: (Units=GPa)
#
#
# Indices 1 2 3 4 5 6 
#
# 1 46.5115 8.3455 30.1685 -2.6714 0.0003 0.0000
# 2 8.3455 46.5115 30.1685 2.6714 -0.0003 0.0000
# 3 30.1685 30.1685 142.6891 0.0000 0.0000 0.0000
# 4 -2.6714 2.6714 0.0000 11.6634 0.0000 -0.0003
# 5 0.0003 -0.0003 0.0000 0.0000 11.6634 -2.6714
# 6 0.0000 0.0000 0.0000 -0.0003 -2.6714 19.0830
#
#
#
# Elastic Compliance Matrix: (Units=1/GPa)
#
#
# Indices 1 2 3 4 5 6 
#
# 1 0.025411 -0.001658 -0.005022 0.006200 -0.000001 0.000000
# 2 -0.001658 0.025411 -0.005022 -0.006200 0.000001 0.000000
# 3 -0.005022 -0.005022 0.009132 0.000000 0.000000 0.000000
# 4 0.006200 -0.006200 0.000000 0.088578 0.000000 0.000001
# 5 -0.000001 0.000001 0.000000 0.000000 0.088578 0.012400
# 6 0.000000 0.000000 0.000000 0.000001 0.012400 0.054138
#
#
# Mechanical properties :
#
#
# Convention : Reuss Voigt Hill
#
# Bulk Modulus (GPa) = 27.36007 41.45299 34.40653
# Shear Modulus (GPa) = 15.29818 19.61728 17.45773
#
# Velocity S-wave (km/s) = 2.92299 3.30999 3.12249
# Velocity P-wave (km/s) = 5.16450 6.14483 5.67587
#
# Compressibility (1/GPa) = 0.03654962
#
# Stress axis : x y z
#
# Youngs Moduli (GPa) = 39.35287 39.35287 109.50687
#
# Poissons Ratio (x) = 0.06525 0.54995
# Poissons Ratio (y) = 0.06525 0.54995
# Poissons Ratio (z) = 0.19763 0.19763
#
# Static dielectric constant tensor:
#      x y z
#    x 2.993530 0.000000 0.000000 
#    y 0.000000 2.993530 0.000000 
#    z 0.000000 0.000000 3.869530 
# 
# 
# High freq. dielectric constant tensor:
#      x y z
#    x 1.658380 0.000000 0.000000 
#    y 0.000000 1.658380 0.000000 
#    z 0.000000 0.000000 1.725040 
# 
# From -- ./inp_files/2238.got.cif
#   From: 2010.03.12/outbox.cif.g09.slc.cpg/sg160_2_cif.got.tgz:2238.got - 2010.04.02 06:26:15.
