data_PCOD8322279
_publ_section_title
;
Structure prediction by ZEFSAII (Michael W. Deem and Ramdas Pophale) SiO2 
 PCOD8322279
Probable space group: P 32 1 2
;
_chemical_formula_sum "Si O2"
_cell_formula_units_Z 42
_cell_length_a 8.316032
_cell_length_b 8.316032
_cell_length_c 32.904096
_cell_angle_alpha 90.000000
_cell_angle_beta 90.000000
_cell_angle_gamma 120.000000
_cell_volume 1970.665434
_symmetry_space_group_name_H-M "P 32 1 2"
_symmetry_group_IT_number 153
_symmetry_cell_setting 'hexagonal'
loop_
_space_group_symop_operation_xyz
x,y,z
-y,x-y,2/3+z
-x+y,-x,1/3+z
-y,-x,1/3-z
-x+y,y,2/3-z
x,x-y,-z
loop_
_atom_site_type_symbol
_atom_site_label
_atom_site_fract_x
_atom_site_fract_y
_atom_site_fract_z
Si Si1 0.789889 0.854662 0.741606
Si Si2 0.945168 0.796574 0.486364
Si Si3 0.639991 0.360010 0.166667
Si Si4 0.147423 0.073712 0.000000
Si Si5 0.675825 0.534777 0.902291
Si Si6 0.438687 0.967248 0.024447
Si Si7 0.202975 0.595268 0.609590
Si Si8 0.225590 0.479088 0.195792
O O1 0.572505 0.756271 0.730990
O O2 0.847566 0.720352 0.763153
O O3 0.843313 0.029966 0.771094
O O4 0.907331 0.924771 0.700003
O O5 0.830324 0.582507 0.499684
O O6 0.144697 0.862354 0.506543
O O7 0.866330 0.933165 0.500000
O O8 0.684927 0.294036 0.209126
O O9 0.272610 0.262871 0.975713
O O10 0.604804 0.474357 0.948847
O O11 0.519050 0.562933 0.878975
O O12 0.367241 0.766652 0.044051
O O13 0.497611 0.956583 0.977479
O O14 0.136061 0.645003 0.567520
O O15 0.344701 0.655300 0.166667
#
# Coordination Sequence:
#
# PCOD8322279 Si02
#       8
#     6   6   3   3   6   6   6   6
#     4  11  21  40  65  91 125 162 216 271 322 401
#     4  12  23  42  66  99 132 170 219 271 339 408
#     4  12  26  42  62  92 138 170 214 284 338 398
#     4  10  22  40  64  86 122 170 216 270 328 384
#     4  11  24  41  62  94 131 167 223 273 334 403
#     4   9  20  40  61  89 126 170 215 268 326 402
#     4   9  19  36  64  92 127 169 213 260 337 395
#     4  11  20  37  68  95 128 171 211 267 334 401
#
# _framework density 21.312601000000001
#
# number of rings (size 3 to 8) (size 9 to 14) (size 15 to 20)
#    0.000    1.429    3.571    1.714    0.000    4.000 
#    5.143    2.857    0.000    0.000    0.000    0.000 
#    0.000    0.000    0.000    0.000    0.000    0.000 
#
# Total GULP energy -520475.212969 kJ/mol
# GULP energy per Si atom -12392.266975 kJ/mol
# Density = 2.126409 g / cm^3
# Si number density = 21.312601 Si / 1000 Ang^3
#
#
#
# Elastic Constant Matrix: (Units=GPa)
#
#
# Indices 1 2 3 4 5 6 
#
# 1 83.7709 32.4471 35.8834 -0.0002 5.0549 0.0000
# 2 32.4471 83.7709 35.8834 0.0002 -5.0549 0.0000
# 3 35.8834 35.8834 128.0373 0.0000 0.0000 0.0000
# 4 -0.0002 0.0002 0.0000 33.9055 0.0000 -5.0549
# 5 5.0549 -5.0549 0.0000 0.0000 33.9055 -0.0002
# 6 0.0000 0.0000 0.0000 -5.0549 -0.0002 25.6619
#
#
#
# Elastic Compliance Matrix: (Units=1/GPa)
#
#
# Indices 1 2 3 4 5 6 
#
# 1 0.015239 -0.004834 -0.002916 0.000000 -0.002993 0.000000
# 2 -0.004834 0.015239 -0.002916 0.000000 0.002993 0.000000
# 3 -0.002916 -0.002916 0.009445 0.000000 0.000000 0.000000
# 4 0.000000 0.000000 0.000000 0.030386 0.000000 0.005986
# 5 -0.002993 0.002993 0.000000 0.000000 0.030386 0.000000
# 6 0.000000 0.000000 0.000000 0.005986 0.000000 0.040147
#
#
# Mechanical properties :
#
#
# Convention : Reuss Voigt Hill
#
# Bulk Modulus (GPa) = 53.79025 56.00077 54.89551
# Shear Modulus (GPa) = 29.69595 31.45227 30.57411
#
# Velocity S-wave (km/s) = 3.73681 3.84573 3.79166
# Velocity P-wave (km/s) = 6.62660 6.78620 6.70687
#
# Compressibility (1/GPa) = 0.01859073
#
# Stress axis : x y z
#
# Youngs Moduli (GPa) = 65.61909 65.61909 105.87861
#
# Poissons Ratio (x) = 0.31721 0.30876
# Poissons Ratio (y) = 0.31721 0.30876
# Poissons Ratio (z) = 0.19136 0.19136
#
# Static dielectric constant tensor:
#      x y z
#    x 3.681920 0.000000 0.000000 
#    y 0.000000 3.681920 0.000000 
#    z 0.000000 0.000000 4.374250 
# 
# 
# High freq. dielectric constant tensor:
#      x y z
#    x 1.818830 0.000000 0.000000 
#    y 0.000000 1.818830 0.000000 
#    z 0.000000 0.000000 1.863070 
# 
# From -- ./inp_files/5239.got.cif
#   From: 2010.03.12/outbox.cif.g09.slc.cpg/sg153_3_cif.got.tgz:5239.got - 2010.04.03 13:48:33.
