data_PCOD8322329
_publ_section_title
;
Structure prediction by ZEFSAII (Michael W. Deem and Ramdas Pophale) SiO2 
 PCOD8322329
Probable space group: P 32 2 1
;
_chemical_formula_sum "Si O2"
_cell_formula_units_Z 24
_cell_length_a 15.049668
_cell_length_b 15.049668
_cell_length_c 5.098401
_cell_angle_alpha 90.000000
_cell_angle_beta 90.000000
_cell_angle_gamma 120.000000
_cell_volume 1000.042509
_symmetry_space_group_name_H-M "P 32 2 1"
_symmetry_group_IT_number 154
_symmetry_cell_setting 'hexagonal'
loop_
_space_group_symop_operation_xyz
x,y,z
-y,x-y,2/3+z
-x+y,-x,1/3+z
x-y,-y,1/3-z
-x,-x+y,2/3-z
y,x,-z
loop_
_atom_site_type_symbol
_atom_site_label
_atom_site_fract_x
_atom_site_fract_y
_atom_site_fract_z
Si Si1 0.819054 0.724673 0.860447
Si Si2 0.885288 0.661924 0.371262
Si Si3 0.441373 0.712040 0.459395
Si Si4 0.396801 0.941769 0.911553
O O1 0.886693 0.741415 0.595666
O O2 0.701955 0.658220 0.764710
O O3 0.827305 0.827305 0.000000
O O4 0.846752 0.668670 0.084473
O O5 0.811690 0.546407 0.462535
O O6 0.000000 0.683218 0.333334
O O7 0.365320 0.750977 0.364648
O O8 0.462998 0.643443 0.248498
O O9 0.471247 0.000000 0.666667
O O10 0.462603 0.000000 0.166667
#
# Coordination Sequence:
#
# PCOD8322329 Si02
#       4
#     6   6   6   6
#     4  10  19  39  72 102 131 172 225 282 344 414
#     4  11  24  44  69 101 145 186 236 288 352 421
#     4  11  27  45  68  97 142 190 238 301 362 420
#     4  10  21  42  69  97 124 166 228 282 340 414
#
# _framework density 23.998977
#
# number of rings (size 3 to 8) (size 9 to 14) (size 15 to 20)
#    0.000    1.500    0.000    7.500   10.500    0.000 
#    4.500    1.250    0.000    7.500    0.000    0.000 
#    0.000    0.000    0.000    0.000    0.000    0.000 
#
# Total GULP energy -297350.881321 kJ/mol
# GULP energy per Si atom -12389.620055 kJ/mol
# Density = 2.394435 g / cm^3
# Si number density = 23.998977 Si / 1000 Ang^3
#
#
#
# Elastic Constant Matrix: (Units=GPa)
#
#
# Indices 1 2 3 4 5 6 
#
# 1 91.0950 46.6569 27.7678 -9.9942 0.0000 0.0000
# 2 46.6569 91.0950 27.7678 9.9942 0.0000 0.0000
# 3 27.7678 27.7678 151.4225 0.0000 0.0000 0.0000
# 4 -9.9942 9.9942 0.0000 20.9571 0.0000 0.0000
# 5 0.0000 0.0000 0.0000 0.0000 20.9571 -9.9942
# 6 0.0000 0.0000 0.0000 0.0000 -9.9942 22.2191
#
#
#
# Elastic Compliance Matrix: (Units=1/GPa)
#
#
# Indices 1 2 3 4 5 6 
#
# 1 0.018244 -0.010405 -0.001438 0.013662 0.000000 0.000000
# 2 -0.010405 0.018244 -0.001438 -0.013662 0.000000 0.000000
# 3 -0.001438 -0.001438 0.007131 0.000000 0.000000 0.000000
# 4 0.013662 -0.013662 0.000000 0.060747 0.000000 0.000000
# 5 0.000000 0.000000 0.000000 0.000000 0.060747 0.027324
# 6 0.000000 0.000000 0.000000 0.000000 0.027324 0.057297
#
#
# Mechanical properties :
#
#
# Convention : Reuss Voigt Hill
#
# Bulk Modulus (GPa) = 58.61950 59.77748 59.19849
# Shear Modulus (GPa) = 19.63437 28.25468 23.94452
#
# Velocity S-wave (km/s) = 2.86341 3.43494 3.16211
# Velocity P-wave (km/s) = 5.95071 6.37920 6.16868
#
# Compressibility (1/GPa) = 0.01705917
#
# Stress axis : x y z
#
# Youngs Moduli (GPa) = 54.81340 54.81340 140.22777
#
# Poissons Ratio (x) = 0.57032 0.20158
# Poissons Ratio (y) = 0.57032 0.20158
# Poissons Ratio (z) = 0.07879 0.07879
#
# Static dielectric constant tensor:
#      x y z
#    x 4.248160 0.000000 0.000000 
#    y 0.000000 4.248160 0.000000 
#    z 0.000000 0.000000 4.923110 
# 
# 
# High freq. dielectric constant tensor:
#      x y z
#    x 1.928320 0.000000 0.000000 
#    y 0.000000 1.928320 0.000000 
#    z 0.000000 0.000000 1.973970 
# 
# From -- ./inp_files/185.got.cif
#   From: 2010.03.12/outbox.cif.g09.slc.cpg/sg154_1_cif.got.tgz:185.got - 2010.04.03 13:51:21.
