data_PCOD8322710
_publ_section_title
;
Structure prediction by ZEFSAII (Michael W. Deem and Ramdas Pophale) SiO2 
 PCOD8322710
Probable space group: P 3 M 1
;
_chemical_formula_sum "Si O2"
_cell_formula_units_Z 26
_cell_length_a 15.718211
_cell_length_b 15.718211
_cell_length_c 7.537779
_cell_angle_alpha 90.000000
_cell_angle_beta 90.000000
_cell_angle_gamma 120.000000
_cell_volume 1612.799057
_symmetry_space_group_name_H-M "P 3 M 1"
_symmetry_group_IT_number 156
_symmetry_cell_setting 'hexagonal'
loop_
_space_group_symop_operation_xyz
x,y,z
-y,x-y,z
-x+y,-x,z
-x+y,y,z
x,x-y,z
-y,-x,z
loop_
_atom_site_type_symbol
_atom_site_label
_atom_site_fract_x
_atom_site_fract_y
_atom_site_fract_z
Si Si1 0.078035 0.724603 0.947540
Si Si2 0.197882 0.998805 0.651049
Si Si3 0.441618 0.883235 0.941932
Si Si4 0.333334 0.666667 0.937767
Si Si5 0.333334 0.666668 0.364337
Si Si6 0.441618 0.883235 0.360167
Si Si7 0.275398 0.353432 0.354559
O O1 0.192701 0.807300 0.923928
O O2 0.009551 0.748821 0.826491
O O3 0.062077 0.618370 0.885439
O O4 0.045161 0.721270 0.151049
O O5 0.083814 0.916187 0.651044
O O6 0.251182 0.990453 0.475608
O O7 0.207664 0.103832 0.651052
O O8 0.387805 0.775610 0.857299
O O9 0.435452 0.870904 0.151050
O O10 0.333334 0.666667 0.151052
O O11 0.387806 0.775611 0.444803
O O12 0.556293 0.937923 0.416660
O O13 0.192699 0.385397 0.378175
#
# Coordination Sequence:
#
# PCOD8322710 Si02
#       7
#     6   6   3   1   1   3   6
#     4   9  17  29  46  69  96 124 152 181 215 264
#     4  10  21  35  48  62  84 118 160 203 241 270
#     4   9  14  23  43  71 102 133 153 166 201 261
#     4   9  12  18  39  67 101 142 157 155 190 253
#     4   9  12  18  39  67 101 142 157 155 190 253
#     4   9  14  23  43  71 102 133 153 166 201 261
#     4   9  17  29  46  69  96 124 152 181 215 264
#
# _framework density 16.121041000000002
#
# number of rings (size 3 to 8) (size 9 to 14) (size 15 to 20)
#    0.000    2.769    2.308    0.231    0.000    1.846 
#    0.000    0.000    0.000    2.769    0.000    0.000 
#    9.231    0.000    2.769    0.000    0.000    0.000 
#
# Total GULP energy -322232.886948 kJ/mol
# GULP energy per Si atom -12393.572575 kJ/mol
# Density = 1.608435 g / cm^3
# Si number density = 16.121041 Si / 1000 Ang^3
#
#
#
# Elastic Constant Matrix: (Units=GPa)
#
#
# Indices 1 2 3 4 5 6 
#
# 1 115.3601 58.9343 49.2793 0.0003 -0.0001 0.0000
# 2 58.9343 115.3606 49.2793 -0.0002 0.0001 0.0000
# 3 49.2793 49.2793 84.0102 0.0000 0.0000 0.0000
# 4 0.0003 -0.0002 0.0000 14.2484 0.0000 0.0001
# 5 -0.0001 0.0001 0.0000 0.0000 14.2485 0.0003
# 6 0.0000 0.0000 0.0000 0.0001 0.0003 28.2129
#
#
#
# Elastic Compliance Matrix: (Units=1/GPa)
#
#
# Indices 1 2 3 4 5 6 
#
# 1 0.013154 -0.004569 -0.005036 0.000000 0.000000 0.000000
# 2 -0.004569 0.013154 -0.005036 0.000000 0.000000 0.000000
# 3 -0.005036 -0.005036 0.017811 0.000000 0.000000 0.000000
# 4 0.000000 0.000000 0.000000 0.070183 0.000000 0.000000
# 5 0.000000 0.000000 0.000000 0.000000 0.070183 -0.000001
# 6 0.000000 0.000000 0.000000 0.000000 -0.000001 0.035445
#
#
# Mechanical properties :
#
#
# Convention : Reuss Voigt Hill
#
# Bulk Modulus (GPa) = 67.39516 69.96854 68.68185
# Shear Modulus (GPa) = 19.67293 21.82448 20.74870
#
# Velocity S-wave (km/s) = 3.49711 3.68338 3.59145
# Velocity P-wave (km/s) = 7.62908 7.84767 7.73914
#
# Compressibility (1/GPa) = 0.01483786
#
# Stress axis : x y z
#
# Youngs Moduli (GPa) = 76.02408 76.02452 56.14415
#
# Poissons Ratio (x) = 0.34733 0.28274
# Poissons Ratio (y) = 0.34733 0.28273
# Poissons Ratio (z) = 0.38285 0.38285
#
# Static dielectric constant tensor:
#      x y z
#    x 2.857230 0.000000 0.000000 
#    y 0.000000 2.857230 0.000000 
#    z 0.000000 0.000000 3.102990 
# 
# 
# High freq. dielectric constant tensor:
#      x y z
#    x 1.589660 0.000000 0.000000 
#    y 0.000000 1.589660 0.000000 
#    z 0.000000 0.000000 1.624130 
# 
# From -- ./inp_files/343.got.cif
#   From: 2010.03.12/outbox.cif.g09.slc.cpg/sg156_cif.got.tgz:343.got - 2010.04.03 13:58:47.
