data_PCOD8322394
_publ_section_title
;
Structure prediction by ZEFSAII (Michael W. Deem and Ramdas Pophale) SiO2 
 PCOD8322394
Probable space group: P 32 2 1
;
_chemical_formula_sum "Si O2"
_cell_formula_units_Z 27
_cell_length_a 13.851755
_cell_length_b 13.851755
_cell_length_c 8.352079
_cell_angle_alpha 90.000000
_cell_angle_beta 90.000000
_cell_angle_gamma 120.000000
_cell_volume 1387.825389
_symmetry_space_group_name_H-M "P 32 2 1"
_symmetry_group_IT_number 154
_symmetry_cell_setting 'hexagonal'
loop_
_space_group_symop_operation_xyz
x,y,z
-y,x-y,2/3+z
-x+y,-x,1/3+z
x-y,-y,1/3-z
-x,-x+y,2/3-z
y,x,-z
loop_
_atom_site_type_symbol
_atom_site_label
_atom_site_fract_x
_atom_site_fract_y
_atom_site_fract_z
Si Si1 0.199064 0.306619 0.684788
Si Si2 0.000000 0.320119 0.833334
Si Si3 0.483148 0.365303 0.090060
Si Si4 0.873939 0.130644 0.339422
Si Si5 0.450588 0.155505 0.899571
O O1 0.309483 0.417247 0.745690
O O2 0.207618 0.200217 0.744488
O O3 0.183921 0.312381 0.495625
O O4 0.092082 0.295035 0.768260
O O5 0.943261 0.358038 0.697326
O O6 0.610878 0.449248 0.131629
O O7 0.428151 0.428151 0.000000
O O8 0.486790 0.274536 0.975573
O O9 0.877505 0.225409 0.449853
O O10 0.000000 0.154012 0.333334
#
# Coordination Sequence:
#
# PCOD8322394 Si02
#       5
#     6   3   6   6   6
#     4  10  23  39  63  94 134 171 215 266 332 393
#     4  10  22  40  64  94 130 168 214 266 334 398
#     4  11  24  45  66  94 134 176 220 283 332 401
#     4  11  21  40  64  98 131 173 218 269 327 394
#     4  11  24  44  67  96 130 175 224 275 336 396
#
# _framework density 19.454898
#
# number of rings (size 3 to 8) (size 9 to 14) (size 15 to 20)
#    0.000    1.333    4.444    0.667    0.000    5.333 
#    4.000    0.000    0.000    0.000    0.000    0.000 
#    0.000    0.000    0.000    0.000    0.000    0.000 
#
# Total GULP energy -334811.666043 kJ/mol
# GULP energy per Si atom -12400.432076 kJ/mol
# Density = 1.941062 g / cm^3
# Si number density = 19.454898 Si / 1000 Ang^3
#
#
#
# Elastic Constant Matrix: (Units=GPa)
#
#
# Indices 1 2 3 4 5 6 
#
# 1 -593.0950 737.8286 26.9994 542.0848 0.0292 -0.0003
# 2 737.8286 -593.0950 26.9994 -542.0848 -0.0292 0.0003
# 3 26.9994 26.9994 68.7383 0.0000 0.0000 0.0000
# 4 542.0848 -542.0848 0.0000 -398.4281 -0.0002 -0.0288
# 5 0.0292 -0.0292 0.0000 -0.0002 -398.4279 542.0845
# 6 -0.0003 0.0003 0.0000 -0.0288 542.0845 -665.4615
#
#
#
# Elastic Compliance Matrix: (Units=1/GPa)
#
#
# Indices 1 2 3 4 5 6 
#
# 1 0.007516 0.000579 -0.003180 0.009438 0.000001 0.000000
# 2 0.000579 0.007516 -0.003180 -0.009438 -0.000001 0.000000
# 3 -0.003180 -0.003180 0.017046 0.000000 0.000000 0.000000
# 4 0.009438 -0.009438 0.000000 0.023173 0.000000 -0.000001
# 5 0.000001 -0.000001 0.000000 0.000000 0.023173 0.018877
# 6 0.000000 0.000000 0.000000 -0.000001 0.018877 0.013874
#
#
# Mechanical properties :
#
#
# Convention : Reuss Voigt Hill
#
# Bulk Modulus (GPa) = 48.73818 51.80033 50.26926
# Shear Modulus (GPa) = 45.16762 -419.74877 -187.29057
#
# Velocity S-wave (km/s) = 4.82359 -14.70453 -9.82233
# Velocity P-wave (km/s) = 7.49192 16.17448 10.13620
#
# Compressibility (1/GPa) = 0.02051780
#
# Stress axis : x y z
#
# Youngs Moduli (GPa) = 133.04321 133.04321 58.66510
#
# Poissons Ratio (x) = -0.07707 0.18655
# Poissons Ratio (y) = -0.07707 0.18655
# Poissons Ratio (z) = 0.42306 0.42306
#
# Static dielectric constant tensor:
#      x y z
#    x 15.391970 0.000000 0.000000 
#    y 0.000000 15.391960 0.000000 
#    z 0.000000 0.000000 3.944190 
# 
# 
# High freq. dielectric constant tensor:
#      x y z
#    x 1.763100 0.000000 0.000000 
#    y 0.000000 1.763100 0.000000 
#    z 0.000000 0.000000 1.765900 
# 
# From -- ./inp_files/1046.got.cif
#   From: 2010.03.12/outbox.cif.g09.slc.cpg/sg154_1_cif.got.tgz:1046.got - 2010.04.03 13:51:21.
