data_PCOD8322244
_publ_section_title
;
Structure prediction by ZEFSAII (Michael W. Deem and Ramdas Pophale) SiO2 
 PCOD8322244
Probable space group: P 32 1 2
;
_chemical_formula_sum "Si O2"
_cell_formula_units_Z 27
_cell_length_a 11.726943
_cell_length_b 11.726943
_cell_length_c 12.792424
_cell_angle_alpha 90.000000
_cell_angle_beta 90.000000
_cell_angle_gamma 120.000000
_cell_volume 1523.537350
_symmetry_space_group_name_H-M "P 32 1 2"
_symmetry_group_IT_number 153
_symmetry_cell_setting 'hexagonal'
loop_
_space_group_symop_operation_xyz
x,y,z
-y,x-y,2/3+z
-x+y,-x,1/3+z
-y,-x,1/3-z
-x+y,y,2/3-z
x,x-y,-z
loop_
_atom_site_type_symbol
_atom_site_label
_atom_site_fract_x
_atom_site_fract_y
_atom_site_fract_z
Si Si1 0.532155 0.412894 0.348002
Si Si2 0.973588 0.278389 0.616033
Si Si3 0.250259 0.240309 0.295249
Si Si4 0.658188 0.341813 0.166667
Si Si5 0.849737 0.900517 0.620702
O O1 0.587494 0.564434 0.315073
O O2 0.375137 0.342058 0.363548
O O3 0.561269 0.334984 0.257821
O O4 0.595529 0.401887 0.456661
O O5 0.839678 0.160323 0.666667
O O6 0.985822 0.272197 0.492378
O O7 0.103431 0.278549 0.661549
O O8 0.127133 0.254266 0.333334
O O9 0.223597 0.091590 0.314320
O O10 0.845683 0.922842 0.500000
O O11 0.973233 0.026768 0.666667
#
# Coordination Sequence:
#
# PCOD8322244 Si02
#       5
#     6   6   6   3   6
#     4  11  20  37  58  83 112 149 189 233 288 346
#     4  11  18  35  58  81 109 150 187 223 293 359
#     4  11  22  34  55  84 114 147 186 234 283 337
#     4  10  20  32  58  88 106 134 188 236 280 328
#     4  10  19  31  51  80 112 136 178 227 275 335
#
# _framework density 17.721914000000002
#
# number of rings (size 3 to 8) (size 9 to 14) (size 15 to 20)
#    0.000    1.333    8.889    0.000    0.000    1.778 
#    0.000    0.000    0.000    2.667    5.778    0.000 
#    0.000    0.000    0.000    0.000    0.000    0.000 
#
# Total GULP energy -334550.528998 kJ/mol
# GULP energy per Si atom -12390.760333 kJ/mol
# Density = 1.768158 g / cm^3
# Si number density = 17.721914 Si / 1000 Ang^3
#
#
#
# Elastic Constant Matrix: (Units=GPa)
#
#
# Indices 1 2 3 4 5 6 
#
# 1 113.3848 59.3898 21.5362 0.0001 2.4869 0.0000
# 2 59.3898 113.3848 21.5362 -0.0001 -2.4869 0.0000
# 3 21.5362 21.5362 59.1049 0.0000 0.0000 0.0000
# 4 0.0001 -0.0001 0.0000 22.9474 0.0000 -2.4869
# 5 2.4869 -2.4869 0.0000 0.0000 22.9474 0.0001
# 6 0.0000 0.0000 0.0000 -2.4869 0.0001 26.9975
#
#
#
# Elastic Compliance Matrix: (Units=1/GPa)
#
#
# Indices 1 2 3 4 5 6 
#
# 1 0.012537 -0.006170 -0.002320 0.000000 -0.002027 0.000000
# 2 -0.006170 0.012537 -0.002320 0.000000 0.002027 0.000000
# 3 -0.002320 -0.002320 0.018610 0.000000 0.000000 0.000000
# 4 0.000000 0.000000 0.000000 0.044017 0.000000 0.004055
# 5 -0.002027 0.002027 0.000000 0.000000 0.044017 0.000000
# 6 0.000000 0.000000 0.000000 0.004055 0.000000 0.037414
#
#
# Mechanical properties :
#
#
# Convention : Reuss Voigt Hill
#
# Bulk Modulus (GPa) = 45.32432 54.53323 49.92878
# Shear Modulus (GPa) = 25.23911 26.80593 26.02252
#
# Velocity S-wave (km/s) = 3.77792 3.89342 3.83610
# Velocity P-wave (km/s) = 6.68289 7.14493 6.91777
#
# Compressibility (1/GPa) = 0.02206321
#
# Stress axis : x y z
#
# Youngs Moduli (GPa) = 79.76659 79.76659 53.73597
#
# Poissons Ratio (x) = 0.49219 0.12465
# Poissons Ratio (y) = 0.49219 0.12465
# Poissons Ratio (z) = 0.18503 0.18503
#
# Static dielectric constant tensor:
#      x y z
#    x 3.664500 0.000000 0.000000 
#    y 0.000000 3.664500 0.000000 
#    z 0.000000 0.000000 3.326240 
# 
# 
# High freq. dielectric constant tensor:
#      x y z
#    x 1.665300 0.000000 0.000000 
#    y 0.000000 1.665300 0.000000 
#    z 0.000000 0.000000 1.694080 
# 
# From -- ./inp_files/2737.got.cif
#   From: 2010.03.12/outbox.cif.g09.slc.cpg/sg153_2_cif.got.tgz:2737.got - 2010.04.03 13:48:33.
