data_PCOD8322278
_publ_section_title
;
Structure prediction by ZEFSAII (Michael W. Deem and Ramdas Pophale) SiO2 
 PCOD8322278
Probable space group: P 32 1 2
;
_chemical_formula_sum "Si O2"
_cell_formula_units_Z 24
_cell_length_a 10.734968
_cell_length_b 10.734968
_cell_length_c 11.978468
_cell_angle_alpha 90.000000
_cell_angle_beta 90.000000
_cell_angle_gamma 120.000000
_cell_volume 1195.455507
_symmetry_space_group_name_H-M "P 32 1 2"
_symmetry_group_IT_number 153
_symmetry_cell_setting 'hexagonal'
loop_
_space_group_symop_operation_xyz
x,y,z
-y,x-y,2/3+z
-x+y,-x,1/3+z
-y,-x,1/3-z
-x+y,y,2/3-z
x,x-y,-z
loop_
_atom_site_type_symbol
_atom_site_label
_atom_site_fract_x
_atom_site_fract_y
_atom_site_fract_z
Si Si1 0.106531 0.230798 0.091345
Si Si2 0.253392 0.138148 0.256766
Si Si3 0.629742 0.943033 0.560089
Si Si4 0.332938 0.922985 0.609070
O O1 0.130401 0.132352 0.178237
O O2 0.081373 0.348199 0.154796
O O3 0.870640 0.036979 0.308087
O O4 0.245503 0.299928 0.011602
O O5 0.349480 0.297575 0.309169
O O6 0.341352 0.077257 0.186954
O O7 0.585676 0.792838 0.500000
O O8 0.491337 0.954511 0.586314
O O9 0.232105 0.767896 0.666667
#
# Coordination Sequence:
#
# PCOD8322278 Si02
#       4
#     6   6   6   6
#     4  10  22  39  64  90 120 157 206 254 308 361
#     4  10  22  39  62  92 122 157 202 256 302 363
#     4  10  23  38  63  91 125 161 205 255 308 363
#     4  10  23  38  63  91 125 161 205 255 308 363
#
# _framework density 20.076028999999998
#
# number of rings (size 3 to 8) (size 9 to 14) (size 15 to 20)
#    0.000    2.000    0.000    1.500    3.500   26.000 
#    0.000    0.000   27.500    0.000    0.000    0.000 
#    0.000    0.000    0.000    0.000    0.000    0.000 
#
# Total GULP energy -297552.432721 kJ/mol
# GULP energy per Si atom -12398.018030 kJ/mol
# Density = 2.003034 g / cm^3
# Si number density = 20.076029 Si / 1000 Ang^3
#
#
#
# Elastic Constant Matrix: (Units=GPa)
#
#
# Indices 1 2 3 4 5 6 
#
# 1 82.9509 39.8014 0.8529 0.0000 -6.7894 0.0000
# 2 39.8014 82.9509 0.8529 0.0000 6.7894 0.0000
# 3 0.8529 0.8529 50.9261 0.0000 0.0000 0.0000
# 4 0.0000 0.0000 0.0000 28.4884 0.0000 6.7894
# 5 -6.7894 6.7894 0.0000 0.0000 28.4884 0.0000
# 6 0.0000 0.0000 0.0000 6.7894 0.0000 21.5747
#
#
#
# Elastic Compliance Matrix: (Units=1/GPa)
#
#
# Indices 1 2 3 4 5 6 
#
# 1 0.016601 -0.008453 -0.000136 0.000000 0.005971 0.000000
# 2 -0.008453 0.016601 -0.000136 0.000000 -0.005971 0.000000
# 3 -0.000136 -0.000136 0.019641 0.000000 0.000000 0.000000
# 4 0.000000 0.000000 0.000000 0.037948 0.000000 -0.011942
# 5 0.005971 -0.005971 0.000000 0.000000 0.037948 0.000000
# 6 0.000000 0.000000 0.000000 -0.011942 0.000000 0.050109
#
#
# Mechanical properties :
#
#
# Convention : Reuss Voigt Hill
#
# Bulk Modulus (GPa) = 28.25516 33.31582 30.78549
# Shear Modulus (GPa) = 24.02724 27.39837 25.71281
#
# Velocity S-wave (km/s) = 3.46325 3.69823 3.58267
# Velocity P-wave (km/s) = 5.48605 5.90481 5.69928
#
# Compressibility (1/GPa) = 0.03539176
#
# Stress axis : x y z
#
# Youngs Moduli (GPa) = 60.23613 60.23613 50.91421
#
# Poissons Ratio (x) = 0.50917 0.00695
# Poissons Ratio (y) = 0.50917 0.00695
# Poissons Ratio (z) = 0.00822 0.00822
#
# Static dielectric constant tensor:
#      x y z
#    x 3.471900 0.000000 0.000000 
#    y 0.000000 3.471900 0.000000 
#    z 0.000000 0.000000 4.360060 
# 
# 
# High freq. dielectric constant tensor:
#      x y z
#    x 1.769520 0.000000 0.000000 
#    y 0.000000 1.769520 0.000000 
#    z 0.000000 0.000000 1.814960 
# 
# From -- ./inp_files/2342.got.cif
#   From: 2010.03.12/outbox.cif.g09.slc.cpg/sg153_2_cif.got.tgz:2342.got - 2010.04.03 13:48:33.
