data_PCOD8322898
_publ_section_title
;
Structure prediction by ZEFSAII (Michael W. Deem and Ramdas Pophale) SiO2 
 PCOD8322898
Probable space group: R 3 C
;
_chemical_formula_sum "Si O2"
_cell_formula_units_Z 126
_cell_length_a 16.566811
_cell_length_b 16.566811
_cell_length_c 23.405875
_cell_angle_alpha 90.000000
_cell_angle_beta 90.000000
_cell_angle_gamma 120.000000
_cell_volume 5563.311127
_symmetry_space_group_name_H-M "R 3 C"
_symmetry_group_IT_number 161
_symmetry_cell_setting 'hexagonal'
loop_
_space_group_symop_operation_xyz
x,y,z
-y,x-y,z
-x+y,-x,z
-x+y,y,1/2+z
x,x-y,1/2+z
-y,-x,1/2+z
2/3+x,1/3+y,1/3+z
2/3-y,1/3+x-y,1/3+z
2/3-x+y,1/3-x,1/3+z
2/3-x+y,1/3+y,5/6+z
2/3+x,1/3+x-y,5/6+z
2/3-y,1/3-x,5/6+z
1/3+x,2/3+y,2/3+z
1/3-y,2/3+x-y,2/3+z
1/3-x+y,2/3-x,2/3+z
1/3-x+y,2/3+y,1/6+z
1/3+x,2/3+x-y,1/6+z
1/3-y,2/3-x,1/6+z
loop_
_atom_site_type_symbol
_atom_site_label
_atom_site_fract_x
_atom_site_fract_y
_atom_site_fract_z
Si Si1 0.610136 0.121685 0.457188
Si Si2 0.400554 0.043442 0.477469
Si Si3 0.140422 0.624946 0.001104
Si Si4 0.844885 0.803464 0.376289
Si Si5 0.560122 0.487168 0.832480
Si Si6 0.658307 0.009057 0.850655
Si Si7 0.551957 0.299904 0.551288
O O1 0.510896 0.110419 0.473839
O O2 0.617328 0.130036 0.388554
O O3 0.617197 0.034598 0.481624
O O4 0.696970 0.212110 0.487255
O O5 0.358815 0.106719 0.501244
O O6 0.376384 0.954888 0.518462
O O7 0.354370 0.992556 0.417927
O O8 0.143872 0.543861 0.035225
O O9 0.230208 0.722244 0.015100
O O10 0.140451 0.608016 0.932537
O O11 0.850882 0.798324 0.444478
O O12 0.771832 0.703050 0.347406
O O13 0.456414 0.397623 0.827421
O O14 0.592450 0.230271 0.558332
#
# Coordination Sequence:
#
# PCOD8322898 Si02
#       7
#    18  18  18  18  18  18  18
#     4  11  22  41  68  97 134 176 228 294 346 420
#     4  10  23  41  67  99 131 179 237 288 352 415
#     4  12  21  42  72 100 136 181 241 302 345 420
#     4  11  24  46  67 104 143 188 233 294 368 423
#     4  10  26  45  62 101 146 185 227 293 355 437
#     4  10  22  44  67  93 137 181 235 288 351 425
#     4  10  22  39  65 102 125 168 231 297 347 408
#
# _framework density 22.648382999999999
#
# number of rings (size 3 to 8) (size 9 to 14) (size 15 to 20)
#    0.286    1.143    4.286    0.286    4.000    1.143 
#    7.714    0.000    0.000    0.000    0.000    0.000 
#    0.000    0.000    0.000    0.000    0.000    0.000 
#
# Total GULP energy -520401.401274 kJ/mol
# GULP energy per Si atom -12390.509554 kJ/mol
# Density = 2.259683 g / cm^3
# Si number density = 22.648383 Si / 1000 Ang^3
#
#
#
# Elastic Constant Matrix: (Units=GPa)
#
#
# Indices 1 2 3 4 5 6 
#
# 1 94.5908 33.4720 39.3971 -3.6880 0.0000 0.0000
# 2 33.4720 94.5908 39.3971 3.6880 0.0000 0.0000
# 3 39.3971 39.3971 113.1133 0.0000 0.0000 0.0000
# 4 -3.6880 3.6880 0.0000 30.6800 0.0000 0.0000
# 5 0.0000 0.0000 0.0000 0.0000 30.6800 -3.6880
# 6 0.0000 0.0000 0.0000 0.0000 -3.6880 30.5594
#
#
#
# Elastic Compliance Matrix: (Units=1/GPa)
#
#
# Indices 1 2 3 4 5 6 
#
# 1 0.013270 -0.003332 -0.003462 0.001996 0.000000 0.000000
# 2 -0.003332 0.013270 -0.003462 -0.001996 0.000000 0.000000
# 3 -0.003462 -0.003462 0.011252 0.000000 0.000000 0.000000
# 4 0.001996 -0.001996 0.000000 0.033074 0.000000 0.000000
# 5 0.000000 0.000000 0.000000 0.000000 0.033074 0.003991
# 6 0.000000 0.000000 0.000000 0.000000 0.003991 0.033205
#
#
# Mechanical properties :
#
#
# Convention : Reuss Voigt Hill
#
# Bulk Modulus (GPa) = 57.86114 58.53638 58.19876
# Shear Modulus (GPa) = 30.59649 31.05247 30.82448
#
# Velocity S-wave (km/s) = 3.67949 3.70681 3.69318
# Velocity P-wave (km/s) = 6.60716 6.64999 6.62861
#
# Compressibility (1/GPa) = 0.01728276
#
# Stress axis : x y z
#
# Youngs Moduli (GPa) = 75.35533 75.35533 88.87316
#
# Poissons Ratio (x) = 0.25108 0.30764
# Poissons Ratio (y) = 0.25108 0.30764
# Poissons Ratio (z) = 0.26085 0.26085
#
# Static dielectric constant tensor:
#      x y z
#    x 4.022370 0.000000 0.000000 
#    y 0.000000 4.022370 0.000000 
#    z 0.000000 0.000000 3.986490 
# 
# 
# High freq. dielectric constant tensor:
#      x y z
#    x 1.889600 0.000000 0.000000 
#    y 0.000000 1.889600 0.000000 
#    z 0.000000 0.000000 1.887160 
# 
# From -- ./inp_files/1934.got.cif
#   From: 2010.03.12/outbox.cif.g09.slc.cpg/sg161_cif.got.tgz:1934.got - 2010.04.02 06:27:14.
