data_PCOD8322328
_publ_section_title
;
Structure prediction by ZEFSAII (Michael W. Deem and Ramdas Pophale) SiO2 
 PCOD8322328
Probable space group: P 32 2 1
;
_chemical_formula_sum "Si O2"
_cell_formula_units_Z 39
_cell_length_a 9.268864
_cell_length_b 9.268864
_cell_length_c 25.445755
_cell_angle_alpha 90.000000
_cell_angle_beta 90.000000
_cell_angle_gamma 120.000000
_cell_volume 1893.210885
_symmetry_space_group_name_H-M "P 32 2 1"
_symmetry_group_IT_number 154
_symmetry_cell_setting 'hexagonal'
loop_
_space_group_symop_operation_xyz
x,y,z
-y,x-y,2/3+z
-x+y,-x,1/3+z
x-y,-y,1/3-z
-x,-x+y,2/3-z
y,x,-z
loop_
_atom_site_type_symbol
_atom_site_label
_atom_site_fract_x
_atom_site_fract_y
_atom_site_fract_z
Si Si1 0.710396 0.314033 0.281354
Si Si2 0.628523 0.667994 0.717846
Si Si3 0.808562 0.808562 0.500000
Si Si4 0.007649 0.397518 0.933102
Si Si5 0.865630 0.697327 0.188994
Si Si6 0.704296 0.350851 0.063880
Si Si7 0.987713 0.451839 0.455769
O O1 0.653875 0.450279 0.275108
O O2 0.722523 0.279624 0.342304
O O3 0.888053 0.355422 0.257642
O O4 0.563710 0.153870 0.252537
O O5 0.689211 0.685262 0.656983
O O6 0.745735 0.838470 0.751170
O O7 0.615158 0.503245 0.745191
O O8 0.699337 0.736250 0.552528
O O9 0.991587 0.839167 0.510029
O O10 0.153172 0.586647 0.938413
O O11 0.687563 0.649447 0.164045
O O12 0.920757 0.557438 0.186136
O O13 0.614372 0.413774 0.103736
#
# Coordination Sequence:
#
# PCOD8322328 Si02
#       7
#     6   6   3   6   6   6   6
#     4   9  21  38  64  92 122 161 206 254 305 368
#     4   9  21  40  64  89 121 163 207 250 308 377
#     4  12  26  40  58  92 124 164 202 258 320 362
#     4  10  22  39  62  92 125 160 202 255 309 378
#     4  11  25  40  62  89 124 162 208 254 314 366
#     4  10  19  39  64  91 124 163 205 247 312 370
#     4  11  22  38  61  93 120 163 203 260 301 371
#
# _framework density 20.599921999999999
#
# number of rings (size 3 to 8) (size 9 to 14) (size 15 to 20)
#    0.000    1.846    1.538    1.385    6.462    3.077 
#    0.000    0.000    3.385    0.000    0.000    0.000 
#    0.000    0.000    0.000    0.000    0.000    0.000 
#
# Total GULP energy -483162.157080 kJ/mol
# GULP energy per Si atom -12388.773258 kJ/mol
# Density = 2.055304 g / cm^3
# Si number density = 20.599922 Si / 1000 Ang^3
#
#
#
# Elastic Constant Matrix: (Units=GPa)
#
#
# Indices 1 2 3 4 5 6 
#
# 1 89.0831 36.8660 39.5224 0.2830 0.0000 0.0000
# 2 36.8660 89.0831 39.5224 -0.2830 0.0000 0.0000
# 3 39.5224 39.5224 79.1407 0.0000 0.0000 0.0000
# 4 0.2830 -0.2830 0.0000 29.9497 0.0000 0.0000
# 5 0.0000 0.0000 0.0000 0.0000 29.9497 0.2830
# 6 0.0000 0.0000 0.0000 0.0000 0.2830 26.1086
#
#
#
# Elastic Compliance Matrix: (Units=1/GPa)
#
#
# Indices 1 2 3 4 5 6 
#
# 1 0.015358 -0.003794 -0.005775 -0.000181 0.000000 0.000000
# 2 -0.003794 0.015358 -0.005775 0.000181 0.000000 0.000000
# 3 -0.005775 -0.005775 0.018404 0.000000 0.000000 0.000000
# 4 -0.000181 0.000181 0.000000 0.033393 0.000000 0.000000
# 5 0.000000 0.000000 0.000000 0.000000 0.033393 -0.000362
# 6 0.000000 0.000000 0.000000 0.000000 -0.000362 0.038306
#
#
# Mechanical properties :
#
#
# Convention : Reuss Voigt Hill
#
# Bulk Modulus (GPa) = 54.25409 54.34761 54.30085
# Shear Modulus (GPa) = 26.17192 26.62799 26.39995
#
# Velocity S-wave (km/s) = 3.56825 3.59921 3.58377
# Velocity P-wave (km/s) = 6.58565 6.61152 6.59860
#
# Compressibility (1/GPa) = 0.01843179
#
# Stress axis : x y z
#
# Youngs Moduli (GPa) = 65.11083 65.11083 54.33670
#
# Poissons Ratio (x) = 0.24705 0.31380
# Poissons Ratio (y) = 0.24705 0.31380
# Poissons Ratio (z) = 0.37602 0.37602
#
# Static dielectric constant tensor:
#      x y z
#    x 3.723320 0.000000 0.000000 
#    y 0.000000 3.723320 0.000000 
#    z 0.000000 0.000000 3.986200 
# 
# 
# High freq. dielectric constant tensor:
#      x y z
#    x 1.798710 0.000000 0.000000 
#    y 0.000000 1.798710 0.000000 
#    z 0.000000 0.000000 1.812400 
# 
# From -- ./inp_files/3720.got.cif
#   From: 2010.03.12/outbox.cif.g09.slc.cpg/sg154_2_cif.got.tgz:3720.got - 2010.04.03 13:51:21.
