data_PCOD8322799
_publ_section_title
;
Structure prediction by ZEFSAII (Michael W. Deem and Ramdas Pophale) SiO2 
 PCOD8322799
Probable space group: P 3 1 C
;
_chemical_formula_sum "Si O2"
_cell_formula_units_Z 48
_cell_length_a 14.986944
_cell_length_b 14.986944
_cell_length_c 13.486116
_cell_angle_alpha 90.000000
_cell_angle_beta 90.000000
_cell_angle_gamma 120.000000
_cell_volume 2623.274222
_symmetry_space_group_name_H-M "P 3 1 C"
_symmetry_group_IT_number 159
_symmetry_cell_setting 'hexagonal'
loop_
_space_group_symop_operation_xyz
x,y,z
-y,x-y,z
-x+y,-x,z
y,x,1/2+z
x-y,-y,1/2+z
-x,-x+y,1/2+z
loop_
_atom_site_type_symbol
_atom_site_label
_atom_site_fract_x
_atom_site_fract_y
_atom_site_fract_z
Si Si1 0.890735 0.738225 0.485980
Si Si2 0.261775 0.152509 0.042699
Si Si3 0.514499 0.633142 0.648077
Si Si4 0.633142 0.514499 0.380602
Si Si5 0.026910 0.282123 0.149457
Si Si6 0.850422 0.547679 0.146421
Si Si7 0.973090 0.255213 0.879222
Si Si8 0.850422 0.547679 0.382257
O O1 0.816381 0.690054 0.582600
O O2 0.834779 0.772923 0.404688
O O3 0.918020 0.656234 0.437532
O O4 1.000000 0.837268 0.514339
O O5 0.343766 0.261786 0.091147
O O6 0.227077 0.061857 0.123991
O O7 0.309946 0.126328 0.946079
O O8 0.500577 0.625488 0.764339
O O9 0.624097 0.642305 0.620677
O O10 0.508574 0.732759 0.613527
O O11 0.416835 0.530788 0.603933
O O12 0.642305 0.624097 0.408001
O O13 0.732759 0.508574 0.415152
O O14 0.530788 0.416835 0.424745
O O15 0.057367 0.290947 0.264339
O O16 0.865197 0.563922 0.264339
#
# Coordination Sequence:
#
# PCOD8322799 Si02
#       8
#     6   6   6   6   6   6   6   6
#     4  10  20  34  49  77 107 132 173 221 263 315
#     4  10  20  34  49  77 107 132 173 221 263 315
#     4   8  14  27  50  77 101 131 167 206 258 304
#     4   8  14  27  50  77 101 131 167 206 258 304
#     4   9  19  36  55  72 102 141 173 215 266 315
#     4   9  16  29  51  78 105 132 169 217 257 304
#     4   9  19  36  55  72 102 141 173 215 266 315
#     4   9  16  29  51  78 105 132 169 217 257 304
#
# _framework density 18.297744000000002
#
# number of rings (size 3 to 8) (size 9 to 14) (size 15 to 20)
#    0.000    3.000    0.000    2.750    0.000    4.000 
#   15.000    0.000    0.000    0.000    0.000    0.000 
#    0.000    0.000    0.000    0.000    0.000    0.000 
#
# Total GULP energy -594738.326242 kJ/mol
# GULP energy per Si atom -12390.381797 kJ/mol
# Density = 1.825610 g / cm^3
# Si number density = 18.297744 Si / 1000 Ang^3
#
#
#
# Elastic Constant Matrix: (Units=GPa)
#
#
# Indices 1 2 3 4 5 6 
#
# 1 73.1761 32.0393 25.1536 0.0000 0.0000 0.0000
# 2 32.0393 73.1761 25.1536 0.0000 0.0000 0.0000
# 3 25.1536 25.1536 79.7965 0.0000 0.0000 0.0000
# 4 0.0000 0.0000 0.0000 25.1151 0.0000 0.0000
# 5 0.0000 0.0000 0.0000 0.0000 25.1151 0.0000
# 6 0.0000 0.0000 0.0000 0.0000 0.0000 20.5684
#
#
#
# Elastic Compliance Matrix: (Units=1/GPa)
#
#
# Indices 1 2 3 4 5 6 
#
# 1 0.017750 -0.006559 -0.003528 0.000000 0.000000 0.000000
# 2 -0.006559 0.017750 -0.003528 0.000000 0.000000 0.000000
# 3 -0.003528 -0.003528 0.014756 0.000000 0.000000 0.000000
# 4 0.000000 0.000000 0.000000 0.039817 0.000000 0.000000
# 5 0.000000 0.000000 0.000000 0.000000 0.039817 0.000000
# 6 0.000000 0.000000 0.000000 0.000000 0.000000 0.048618
#
#
# Mechanical properties :
#
#
# Convention : Reuss Voigt Hill
#
# Bulk Modulus (GPa) = 43.42679 43.42688 43.42684
# Shear Modulus (GPa) = 23.42884 23.74653 23.58768
#
# Velocity S-wave (km/s) = 3.58218 3.60639 3.59430
# Velocity P-wave (km/s) = 6.39486 6.41298 6.40393
#
# Compressibility (1/GPa) = 0.02302726
#
# Stress axis : x y z
#
# Youngs Moduli (GPa) = 56.33780 56.33780 67.76967
#
# Poissons Ratio (x) = 0.36952 0.23907
# Poissons Ratio (y) = 0.36952 0.23907
# Poissons Ratio (z) = 0.19874 0.19874
#
# Static dielectric constant tensor:
#      x y z
#    x 3.396110 0.000000 0.000000 
#    y 0.000000 3.396110 0.000000 
#    z 0.000000 0.000000 3.253670 
# 
# 
# High freq. dielectric constant tensor:
#      x y z
#    x 1.693850 0.000000 0.000000 
#    y 0.000000 1.693850 0.000000 
#    z 0.000000 0.000000 1.694800 
# 
# From -- ./inp_files/956.got.cif
#   From: 2010.03.12/outbox.cif.g09.slc.cpg/sg159_cif.got.tgz:956.got - 2010.04.03 14:00:19.
