data_PCOD8322019
_publ_section_title
;
Structure prediction by ZEFSAII (Michael W. Deem and Ramdas Pophale) SiO2 
 PCOD8322019
Probable space group: P 31 2 1
;
_chemical_formula_sum "Si O2"
_cell_formula_units_Z 39
_cell_length_a 14.545915
_cell_length_b 14.545915
_cell_length_c 11.558835
_cell_angle_alpha 90.000000
_cell_angle_beta 90.000000
_cell_angle_gamma 120.000000
_cell_volume 2118.004053
_symmetry_space_group_name_H-M "P 31 2 1"
_symmetry_group_IT_number 152
_symmetry_cell_setting 'hexagonal'
loop_
_space_group_symop_operation_xyz
x,y,z
-y,x-y,1/3+z
-x+y,-x,2/3+z
x-y,-y,2/3-z
-x,-x+y,1/3-z
y,x,-z
loop_
_atom_site_type_symbol
_atom_site_label
_atom_site_fract_x
_atom_site_fract_y
_atom_site_fract_z
Si Si1 0.000000 0.322839 0.666667
Si Si2 0.359223 0.047178 0.950527
Si Si3 0.587425 0.317629 0.126834
Si Si4 0.265197 0.514941 0.118342
Si Si5 0.185025 0.835615 0.503347
Si Si6 0.374934 0.357647 0.866908
Si Si7 0.411144 0.924105 0.127399
O O1 0.087348 0.300166 0.726554
O O2 0.052170 0.411250 0.569265
O O3 0.475450 0.142408 0.909349
O O4 0.288440 0.000000 0.833334
O O5 0.311340 0.097495 0.041998
O O6 0.371908 0.953633 0.009982
O O7 0.683795 0.292873 0.121839
O O8 0.477417 0.219004 0.173999
O O9 0.623539 0.423430 0.203071
O O10 0.565559 0.338849 0.995611
O O11 0.271593 0.411312 0.158959
O O12 0.060202 0.748371 0.498867
O O13 0.453448 0.461628 0.794775
O O14 0.389920 0.389920 0.000000
#
# Coordination Sequence:
#
# PCOD8322019 Si02
#       7
#     3   6   6   6   6   6   6
#     4  10  16  32  50  76 102 136 178 240 264 312
#     4  10  21  33  43  72 108 144 169 217 269 329
#     4  10  19  30  48  76  96 145 182 224 261 327
#     4  11  20  32  50  73 105 135 192 217 265 321
#     4   9  19  31  53  76  98 132 180 224 283 311
#     4  11  16  32  52  78  95 131 183 235 259 320
#     4  10  18  31  51  70 106 139 182 225 267 308
#
# _framework density 18.413561999999999
#
# number of rings (size 3 to 8) (size 9 to 14) (size 15 to 20)
#    0.000    1.846    5.385    3.692    2.154    0.000 
#    0.000    0.000    0.000    0.000    0.000    2.154 
#    0.000    0.000    0.000    0.000    0.000    0.000 
#
# Total GULP energy -483289.455383 kJ/mol
# GULP energy per Si atom -12392.037318 kJ/mol
# Density = 1.837165 g / cm^3
# Si number density = 18.413562 Si / 1000 Ang^3
#
#
#
# Elastic Constant Matrix: (Units=GPa)
#
#
# Indices 1 2 3 4 5 6 
#
# 1 80.4505 34.1274 35.3124 0.3184 0.0000 0.0000
# 2 34.1274 80.4505 35.3124 -0.3184 0.0000 0.0000
# 3 35.3124 35.3124 85.5950 0.0000 0.0000 0.0000
# 4 0.3184 -0.3184 0.0000 21.9897 0.0000 0.0000
# 5 0.0000 0.0000 0.0000 0.0000 21.9897 0.3184
# 6 0.0000 0.0000 0.0000 0.0000 0.3184 23.1615
#
#
#
# Elastic Compliance Matrix: (Units=1/GPa)
#
#
# Indices 1 2 3 4 5 6 
#
# 1 0.016648 -0.004944 -0.004828 -0.000313 0.000000 0.000000
# 2 -0.004944 0.016648 -0.004828 0.000313 0.000000 0.000000
# 3 -0.004828 -0.004828 0.015667 0.000000 0.000000 0.000000
# 4 -0.000313 0.000313 0.000000 0.045485 0.000000 0.000000
# 5 0.000000 0.000000 0.000000 0.000000 0.045485 -0.000625
# 6 0.000000 0.000000 0.000000 0.000000 -0.000625 0.043184
#
#
# Mechanical properties :
#
#
# Convention : Reuss Voigt Hill
#
# Bulk Modulus (GPa) = 50.60508 50.66668 50.63588
# Shear Modulus (GPa) = 22.84100 22.87779 22.85940
#
# Velocity S-wave (km/s) = 3.52582 3.52865 3.52723
# Velocity P-wave (km/s) = 6.64209 6.64662 6.64435
#
# Compressibility (1/GPa) = 0.01976086
#
# Stress axis : x y z
#
# Youngs Moduli (GPa) = 60.06778 60.06778 63.82880
#
# Poissons Ratio (x) = 0.29697 0.30820
# Poissons Ratio (y) = 0.29697 0.30820
# Poissons Ratio (z) = 0.29004 0.29004
#
# Static dielectric constant tensor:
#      x y z
#    x 3.404200 0.000000 0.000000 
#    y 0.000000 3.404200 0.000000 
#    z 0.000000 0.000000 3.399970 
# 
# 
# High freq. dielectric constant tensor:
#      x y z
#    x 1.689350 0.000000 0.000000 
#    y 0.000000 1.689350 0.000000 
#    z 0.000000 0.000000 1.705020 
# 
# From -- ./inp_files/1778.got.cif
#   From: 2010.03.12/outbox.cif.g09.slc.cpg/sg152_1_cif.got.tgz:1778.got - 2010.04.03 13:45:27.
