data_PCOD8322257
_publ_section_title
;
Structure prediction by ZEFSAII (Michael W. Deem and Ramdas Pophale) SiO2 
 PCOD8322257
Probable space group: P 32 1 2
;
_chemical_formula_sum "Si O2"
_cell_formula_units_Z 33
_cell_length_a 8.141739
_cell_length_b 8.141739
_cell_length_c 27.205082
_cell_angle_alpha 90.000000
_cell_angle_beta 90.000000
_cell_angle_gamma 120.000000
_cell_volume 1561.762617
_symmetry_space_group_name_H-M "P 32 1 2"
_symmetry_group_IT_number 153
_symmetry_cell_setting 'hexagonal'
loop_
_space_group_symop_operation_xyz
x,y,z
-y,x-y,2/3+z
-x+y,-x,1/3+z
-y,-x,1/3-z
-x+y,y,2/3-z
x,x-y,-z
loop_
_atom_site_type_symbol
_atom_site_label
_atom_site_fract_x
_atom_site_fract_y
_atom_site_fract_z
Si Si1 0.097656 0.195311 0.833334
Si Si2 0.194646 0.493001 0.564924
Si Si3 0.307379 0.326585 0.372566
Si Si4 0.222393 0.914212 0.796822
Si Si5 0.578821 0.713183 0.410032
Si Si6 0.055763 0.719081 0.988603
O O1 0.194041 0.092170 0.805079
O O2 0.046787 0.308929 0.793432
O O3 0.401098 0.669380 0.572927
O O4 0.155240 0.351939 0.610772
O O5 0.194050 0.385592 0.515273
O O6 0.046123 0.573977 0.559873
O O7 0.185376 0.370752 0.333334
O O8 0.510000 0.514879 0.381546
O O9 0.212396 0.269054 0.425877
O O10 0.340168 0.160098 0.353755
O O11 0.717689 0.874703 0.371588
O O12 0.069959 0.534980 0.000000
#
# Coordination Sequence:
#
# PCOD8322257 Si02
#       6
#     3   6   6   6   6   6
#     4  12  22  36  58  92 124 152 198 250 298 346
#     4   9  19  40  62  80 113 159 200 238 295 359
#     4  11  21  39  63  85 112 154 199 237 291 360
#     4  10  20  35  59  86 113 151 197 243 289 347
#     4  10  21  38  59  83 119 161 193 235 297 361
#     4  10  21  38  60  87 117 152 197 247 296 351
#
# _framework density 21.129974000000001
#
# number of rings (size 3 to 8) (size 9 to 14) (size 15 to 20)
#    0.000    1.818    0.000    7.091    0.000    0.000 
#    0.000   17.273    0.000    2.182    0.000    0.000 
#    0.000    0.000    0.000    0.000    0.000    0.000 
#
# Total GULP energy -408831.415335 kJ/mol
# GULP energy per Si atom -12388.830768 kJ/mol
# Density = 2.108188 g / cm^3
# Si number density = 21.129974 Si / 1000 Ang^3
#
#
#
# Elastic Constant Matrix: (Units=GPa)
#
#
# Indices 1 2 3 4 5 6 
#
# 1 82.6617 38.4101 51.6617 -0.0004 8.6449 0.0000
# 2 38.4101 82.6617 51.6617 0.0004 -8.6449 0.0000
# 3 51.6617 51.6617 140.5548 0.0000 0.0000 0.0000
# 4 -0.0004 0.0004 0.0000 35.8484 0.0000 -8.6449
# 5 8.6449 -8.6449 0.0000 0.0000 35.8484 -0.0004
# 6 0.0000 0.0000 0.0000 -8.6449 -0.0004 22.1258
#
#
#
# Elastic Compliance Matrix: (Units=1/GPa)
#
#
# Indices 1 2 3 4 5 6 
#
# 1 0.018492 -0.006457 -0.004423 0.000000 -0.006016 0.000000
# 2 -0.006457 0.018492 -0.004423 0.000000 0.006016 0.000000
# 3 -0.004423 -0.004423 0.010366 0.000000 0.000000 0.000000
# 4 0.000000 0.000000 0.000000 0.030797 0.000000 0.012033
# 5 -0.006016 0.006016 0.000000 0.000000 0.030797 0.000001
# 6 0.000000 0.000000 0.000000 0.012033 0.000001 0.049898
#
#
# Mechanical properties :
#
#
# Convention : Reuss Voigt Hill
#
# Bulk Modulus (GPa) = 59.73039 65.48281 62.60660
# Shear Modulus (GPa) = 25.63718 29.70752 27.67235
#
# Velocity S-wave (km/s) = 3.48704 3.75366 3.62280
# Velocity P-wave (km/s) = 6.67398 7.06005 6.86973
#
# Compressibility (1/GPa) = 0.01674190
#
# Stress axis : x y z
#
# Youngs Moduli (GPa) = 54.07857 54.07857 96.46634
#
# Poissons Ratio (x) = 0.34919 0.42670
# Poissons Ratio (y) = 0.34919 0.42670
# Poissons Ratio (z) = 0.23921 0.23921
#
# Static dielectric constant tensor:
#      x y z
#    x 3.654590 0.000000 0.000000 
#    y 0.000000 3.654590 0.000000 
#    z 0.000000 0.000000 4.404910 
# 
# 
# High freq. dielectric constant tensor:
#      x y z
#    x 1.804970 0.000000 0.000000 
#    y 0.000000 1.804970 0.000000 
#    z 0.000000 0.000000 1.864160 
# 
# From -- ./inp_files/4701.got.cif
#   From: 2010.03.12/outbox.cif.g09.slc.cpg/sg153_3_cif.got.tgz:4701.got - 2010.04.03 13:48:33.
