data_PCOD8322951
_publ_section_title
;
Structure prediction by ZEFSAII (Michael W. Deem and Ramdas Pophale) SiO2 
 PCOD8322951
Probable space group: P -3 1 M 
;
_chemical_formula_sum "Si O2"
_cell_formula_units_Z 42
_cell_length_a 15.930495
_cell_length_b 15.930495
_cell_length_c 12.797081
_cell_angle_alpha 90.000000
_cell_angle_beta 90.000000
_cell_angle_gamma 120.000000
_cell_volume 2812.548963
_symmetry_space_group_name_H-M "P -3 1 M "
_symmetry_group_IT_number 162
_symmetry_cell_setting 'hexagonal'
loop_
_space_group_symop_operation_xyz
x,y,z
-y,x-y,z
-x+y,-x,z
-y,-x,-z
-x+y,y,-z
x,x-y,-z
-x,-y,-z
y,-x+y,-z
x-y,x,-z
y,x,z
x-y,-y,z
-x,-x+y,z
loop_
_atom_site_type_symbol
_atom_site_label
_atom_site_fract_x
_atom_site_fract_y
_atom_site_fract_z
Si Si1 0.657577 0.768318 0.195505
Si Si2 0.111978 0.223956 0.000000
Si Si3 0.110584 0.889630 0.382041
Si Si4 0.455465 0.740590 0.881870
O O1 0.678018 0.678018 0.189592
O O2 0.711055 0.841029 0.101248
O O3 0.692098 0.822077 0.305663
O O4 0.544459 0.735324 0.192028
O O5 0.156318 0.156318 0.025450
O O6 0.131112 0.868889 0.500000
O O7 0.000000 0.820186 0.349236
O O8 0.133731 0.000000 0.372300
O O9 0.376204 0.775481 0.861673
O O10 0.493303 0.746652 0.000000
#
# Coordination Sequence:
#
# PCOD8322951 Si02
#       4
#    12   6  12  12
#     4  10  18  29  46  70  94 118 152 194 233 273
#     4  10  19  28  40  62  96 128 149 176 226 286
#     4   9  17  29  46  67  94 129 164 195 226 268
#     4   8  16  32  52  64  91 123 151 190 232 277
#
# _framework density 14.933074
#
# number of rings (size 3 to 8) (size 9 to 14) (size 15 to 20)
#    0.571    2.286    1.429    1.286    0.000    1.143 
#    0.000    8.571    0.000    1.714    0.000    6.000 
#    0.000    0.000    0.000    0.000    0.000    0.000 
#
# Total GULP energy -520306.865113 kJ/mol
# GULP energy per Si atom -12388.258693 kJ/mol
# Density = 1.489909 g / cm^3
# Si number density = 14.933074 Si / 1000 Ang^3
#
#
#
# Elastic Constant Matrix: (Units=GPa)
#
#
# Indices 1 2 3 4 5 6 
#
# 1 88.4925 55.0277 46.0094 0.0000 4.9206 0.0000
# 2 55.0277 88.4925 46.0094 0.0000 -4.9206 0.0000
# 3 46.0094 46.0094 86.5684 0.0000 0.0000 0.0000
# 4 0.0000 0.0000 0.0000 19.3995 0.0000 -4.9206
# 5 4.9206 -4.9206 0.0000 0.0000 19.3995 0.0000
# 6 0.0000 0.0000 0.0000 -4.9206 0.0000 16.7324
#
#
#
# Elastic Compliance Matrix: (Units=1/GPa)
#
#
# Indices 1 2 3 4 5 6 
#
# 1 0.021430 -0.010861 -0.005617 0.000000 -0.008190 0.000000
# 2 -0.010861 0.021430 -0.005617 0.000000 0.008190 0.000000
# 3 -0.005617 -0.005617 0.017523 0.000000 0.000000 0.000000
# 4 0.000000 0.000000 0.000000 0.055703 0.000000 0.016381
# 5 -0.008190 0.008190 0.000000 0.000000 0.055703 0.000000
# 6 0.000000 0.000000 0.000000 0.016381 0.000000 0.064581
#
#
# Mechanical properties :
#
#
# Convention : Reuss Voigt Hill
#
# Bulk Modulus (GPa) = 61.76006 61.96070 61.86038
# Shear Modulus (GPa) = 17.48512 18.87340 18.17926
#
# Velocity S-wave (km/s) = 3.42555 3.55895 3.49289
# Velocity P-wave (km/s) = 7.55603 7.64660 7.60145
#
# Compressibility (1/GPa) = 0.01619169
#
# Stress axis : x y z
#
# Youngs Moduli (GPa) = 46.66363 46.66363 57.06925
#
# Poissons Ratio (x) = 0.50680 0.32058
# Poissons Ratio (y) = 0.50680 0.32058
# Poissons Ratio (z) = 0.26213 0.26213
#
# Static dielectric constant tensor:
#      x y z
#    x 2.734220 0.000000 0.000000 
#    y 0.000000 2.734220 0.000000 
#    z 0.000000 0.000000 2.900660 
# 
# 
# High freq. dielectric constant tensor:
#      x y z
#    x 1.558740 0.000000 0.000000 
#    y 0.000000 1.558740 0.000000 
#    z 0.000000 0.000000 1.564910 
# 
# From -- ./inp_files/2788.got.cif
#   From: 2010.03.12/outbox.cif.g09.slc.cpg/sg162_2_cif.got.tgz:2788.got - 2010.04.02 06:27:41.
