data_PCOD8322263
_publ_section_title
;
Structure prediction by ZEFSAII (Michael W. Deem and Ramdas Pophale) SiO2 
 PCOD8322263
Probable space group: P 32 1 2
;
_chemical_formula_sum "Si O2"
_cell_formula_units_Z 48
_cell_length_a 11.799308
_cell_length_b 11.799308
_cell_length_c 18.546064
_cell_angle_alpha 90.000000
_cell_angle_beta 90.000000
_cell_angle_gamma 120.000000
_cell_volume 2236.121830
_symmetry_space_group_name_H-M "P 32 1 2"
_symmetry_group_IT_number 153
_symmetry_cell_setting 'hexagonal'
loop_
_space_group_symop_operation_xyz
x,y,z
-y,x-y,2/3+z
-x+y,-x,1/3+z
-y,-x,1/3-z
-x+y,y,2/3-z
x,x-y,-z
loop_
_atom_site_type_symbol
_atom_site_label
_atom_site_fract_x
_atom_site_fract_y
_atom_site_fract_z
Si Si1 0.833924 0.206264 0.974255
Si Si2 0.626275 0.701092 0.043642
Si Si3 0.964652 0.779040 0.153264
Si Si4 0.706132 0.648810 0.793780
Si Si5 0.631252 0.368808 0.076443
Si Si6 0.072691 0.272683 0.533741
Si Si7 0.906672 0.402836 0.795732
Si Si8 0.428884 0.994542 0.967210
O O1 0.928724 0.165490 0.932050
O O2 0.778696 0.282448 0.923133
O O3 0.707637 0.067221 0.995951
O O4 0.901820 0.294396 0.044009
O O5 0.657002 0.727581 0.127525
O O6 0.473875 0.588785 0.037332
O O7 0.657719 0.828860 0.000000
O O8 0.872049 0.816079 0.200078
O O9 0.951107 0.640160 0.167030
O O10 0.112523 0.887478 0.166667
O O11 0.825015 0.650030 0.833334
O O12 0.731556 0.794870 0.795820
O O13 0.569517 0.545385 0.832189
O O14 0.596906 0.252207 0.134364
O O15 0.521489 0.410318 0.088239
O O16 0.605696 0.302848 0.000000
O O17 0.067045 0.348047 0.605248
O O18 0.954451 0.403338 0.714889
#
# Coordination Sequence:
#
# PCOD8322263 Si02
#       8
#     6   6   6   6   6   6   6   6
#     4  10  24  40  64  99 139 180 226 290 355 424
#     4  10  20  40  64  95 138 175 227 285 344 417
#     4  11  26  44  65  99 140 186 235 287 351 426
#     4  12  25  43  67 104 140 183 229 291 364 420
#     4   9  18  37  63 100 130 163 220 283 348 399
#     4  11  23  42  69  97 133 183 236 279 350 428
#     4  11  24  41  69 101 137 177 226 295 354 420
#     4  10  20  39  65 100 127 173 232 282 339 410
#
# _framework density 21.465736
#
# number of rings (size 3 to 8) (size 9 to 14) (size 15 to 20)
#    0.000    1.500    1.250    4.500    5.250    1.000 
#    0.000    2.500    0.000    0.000    0.000    0.000 
#    0.000    0.000    0.000    0.000    0.000    0.000 
#
# Total GULP energy -594880.298219 kJ/mol
# GULP energy per Si atom -12393.339546 kJ/mol
# Density = 2.141688 g / cm^3
# Si number density = 21.465736 Si / 1000 Ang^3
#
#
#
# Elastic Constant Matrix: (Units=GPa)
#
#
# Indices 1 2 3 4 5 6 
#
# 1 113.7261 55.1207 33.9506 0.0001 -4.2658 0.0000
# 2 55.1207 113.7261 33.9506 -0.0001 4.2658 0.0000
# 3 33.9506 33.9506 87.5838 0.0000 0.0000 0.0000
# 4 0.0001 -0.0001 0.0000 28.4643 0.0000 4.2658
# 5 -4.2658 4.2658 0.0000 0.0000 28.4643 0.0001
# 6 0.0000 0.0000 0.0000 4.2658 0.0001 29.3027
#
#
#
# Elastic Compliance Matrix: (Units=1/GPa)
#
#
# Indices 1 2 3 4 5 6 
#
# 1 0.012230 -0.005214 -0.002720 0.000000 0.002614 0.000000
# 2 -0.005214 0.012230 -0.002720 0.000000 -0.002614 0.000000
# 3 -0.002720 -0.002720 0.013526 0.000000 0.000000 0.000000
# 4 0.000000 0.000000 0.000000 0.035915 0.000000 -0.005228
# 5 0.002614 -0.002614 0.000000 0.000000 0.035915 0.000000
# 6 0.000000 0.000000 0.000000 -0.005228 0.000000 0.034888
#
#
# Mechanical properties :
#
#
# Convention : Reuss Voigt Hill
#
# Bulk Modulus (GPa) = 59.95310 62.34220 61.14765
# Shear Modulus (GPa) = 29.14247 30.04722 29.59484
#
# Velocity S-wave (km/s) = 3.68860 3.74542 3.71712
# Velocity P-wave (km/s) = 6.79200 6.91447 6.85351
#
# Compressibility (1/GPa) = 0.01667970
#
# Stress axis : x y z
#
# Youngs Moduli (GPa) = 81.76582 81.76582 73.93066
#
# Poissons Ratio (x) = 0.42631 0.20107
# Poissons Ratio (y) = 0.42631 0.20107
# Poissons Ratio (z) = 0.22238 0.22238
#
# Static dielectric constant tensor:
#      x y z
#    x 3.963930 0.000000 0.000000 
#    y 0.000000 3.963930 0.000000 
#    z 0.000000 0.000000 4.106570 
# 
# 
# High freq. dielectric constant tensor:
#      x y z
#    x 1.832690 0.000000 0.000000 
#    y 0.000000 1.832690 0.000000 
#    z 0.000000 0.000000 1.859060 
# 
# From -- ./inp_files/4067.got.cif
#   From: 2010.03.12/outbox.cif.g09.slc.cpg/sg153_3_cif.got.tgz:4067.got - 2010.04.03 13:48:33.
