data_PCOD8322995
_publ_section_title
;
Structure prediction by ZEFSAII (Michael W. Deem and Ramdas Pophale) SiO2 
 PCOD8322995
Probable space group: P -3 1 M 
;
_chemical_formula_sum "Si O2"
_cell_formula_units_Z 72
_cell_length_a 16.652939
_cell_length_b 16.652939
_cell_length_c 16.776166
_cell_angle_alpha 90.000000
_cell_angle_beta 90.000000
_cell_angle_gamma 120.000000
_cell_volume 4029.072933
_symmetry_space_group_name_H-M "P -3 1 M "
_symmetry_group_IT_number 162
_symmetry_cell_setting 'hexagonal'
loop_
_space_group_symop_operation_xyz
x,y,z
-y,x-y,z
-x+y,-x,z
-y,-x,-z
-x+y,y,-z
x,x-y,-z
-x,-y,-z
y,-x+y,-z
x-y,x,-z
y,x,z
x-y,-y,z
-x,-x+y,z
loop_
_atom_site_type_symbol
_atom_site_label
_atom_site_fract_x
_atom_site_fract_y
_atom_site_fract_z
Si Si1 0.282594 0.383519 1.000000
Si Si2 0.105007 0.390815 0.676254
Si Si3 0.285808 0.390815 0.676254
Si Si4 0.109706 0.554853 0.589310
Si Si5 0.667524 0.515323 0.837349
Si Si6 0.847800 0.515323 0.837349
O O1 0.292446 0.292446 0.000000
O O2 0.333769 0.444669 0.076664
O O3 0.173716 0.347431 0.000000
O O4 0.333769 0.444669 0.923336
O O5 0.177695 0.355391 0.655156
O O6 0.142669 0.490678 0.634013
O O7 0.103332 0.404807 0.771104
O O8 0.000000 0.314670 0.648831
O O9 0.314670 0.314670 0.648831
O O10 0.348008 0.490678 0.634014
O O11 0.301475 0.404807 0.771104
O O12 0.151222 0.575611 0.500000
O O13 0.000000 0.500001 0.587095
O O14 0.737523 0.475046 0.837708
O O15 0.565365 0.434635 0.816062
#
# Coordination Sequence:
#
# PCOD8322995 Si02
#       6
#    12  12  12  12  12  12
#     4  10  21  33  47  68  93 125 162 202 245 289
#     4  10  20  34  53  75 102 136 172 211 254 300
#     4  10  20  34  53  75 102 136 172 211 254 300
#     4   9  18  34  54  75 101 131 163 202 248 300
#     4  10  19  31  48  71 100 132 165 200 240 289
#     4  10  19  31  48  71 100 132 165 200 240 289
#
# _framework density 17.870114999999998
#
# number of rings (size 3 to 8) (size 9 to 14) (size 15 to 20)
#    0.000    2.167    1.667    1.833    0.000    3.333 
#    1.000    1.667    0.000    0.500    0.000    0.000 
#    0.000    8.000    0.000    8.333    0.000    0.667 
#
# Total GULP energy -892620.055046 kJ/mol
# GULP energy per Si atom -12397.500765 kJ/mol
# Density = 1.782944 g / cm^3
# Si number density = 17.870115 Si / 1000 Ang^3
#
#
#
# Elastic Constant Matrix: (Units=GPa)
#
#
# Indices 1 2 3 4 5 6 
#
# 1 94.2066 58.3511 11.4796 0.0000 0.0000 0.0000
# 2 58.3511 94.2066 11.4796 0.0000 0.0000 0.0000
# 3 11.4796 11.4796 91.1343 0.0000 0.0000 0.0000
# 4 0.0000 0.0000 0.0000 15.4850 0.0000 0.0000
# 5 0.0000 0.0000 0.0000 0.0000 15.4850 0.0000
# 6 0.0000 0.0000 0.0000 0.0000 0.0000 17.9277
#
#
#
# Elastic Compliance Matrix: (Units=1/GPa)
#
#
# Indices 1 2 3 4 5 6 
#
# 1 0.017286 -0.010604 -0.000842 0.000000 0.000000 0.000000
# 2 -0.010604 0.017286 -0.000842 0.000000 0.000000 0.000000
# 3 -0.000842 -0.000842 0.011185 0.000000 0.000000 0.000000
# 4 0.000000 0.000000 0.000000 0.064579 0.000000 0.000000
# 5 0.000000 0.000000 0.000000 0.000000 0.064579 0.000000
# 6 0.000000 0.000000 0.000000 0.000000 0.000000 0.055779
#
#
# Mechanical properties :
#
#
# Convention : Reuss Voigt Hill
#
# Bulk Modulus (GPa) = 47.21116 49.12979 48.17048
# Shear Modulus (GPa) = 19.06007 22.99534 21.02771
#
# Velocity S-wave (km/s) = 3.26941 3.59110 3.43402
# Velocity P-wave (km/s) = 6.38189 6.68932 6.53741
#
# Compressibility (1/GPa) = 0.02118143
#
# Stress axis : x y z
#
# Youngs Moduli (GPa) = 57.85145 57.85145 89.40671
#
# Poissons Ratio (x) = 0.61346 0.07525
# Poissons Ratio (y) = 0.61346 0.07525
# Poissons Ratio (z) = 0.04869 0.04869
#
# Static dielectric constant tensor:
#      x y z
#    x 3.178100 0.000000 0.000000 
#    y 0.000000 3.178100 0.000000 
#    z 0.000000 0.000000 3.495380 
# 
# 
# High freq. dielectric constant tensor:
#      x y z
#    x 1.667840 0.000000 0.000000 
#    y 0.000000 1.667840 0.000000 
#    z 0.000000 0.000000 1.703500 
# 
# From -- ./inp_files/3590.got.cif
#   From: 2010.03.12/outbox.cif.g09.slc.cpg/sg162_2_cif.got.tgz:3590.got - 2010.04.02 06:27:41.
