data_PCOD8322647
_publ_section_title
;
Structure prediction by ZEFSAII (Michael W. Deem and Ramdas Pophale) SiO2 
 PCOD8322647
Probable space group: P 3 M 1
;
_chemical_formula_sum "Si O2"
_cell_formula_units_Z 32
_cell_length_a 16.263677
_cell_length_b 16.263677
_cell_length_c 9.508384
_cell_angle_alpha 90.000000
_cell_angle_beta 90.000000
_cell_angle_gamma 120.000000
_cell_volume 2178.085006
_symmetry_space_group_name_H-M "P 3 M 1"
_symmetry_group_IT_number 156
_symmetry_cell_setting 'hexagonal'
loop_
_space_group_symop_operation_xyz
x,y,z
-y,x-y,z
-x+y,-x,z
-x+y,y,z
x,x-y,z
-y,-x,z
loop_
_atom_site_type_symbol
_atom_site_label
_atom_site_fract_x
_atom_site_fract_y
_atom_site_fract_z
Si Si1 0.094629 0.189258 0.618080
Si Si2 0.094629 0.189258 0.940780
Si Si3 0.300879 0.055795 0.939137
Si Si4 0.478794 0.334023 0.444006
Si Si5 0.000000 0.000000 0.448124
Si Si6 0.478794 0.334023 0.114855
Si Si7 0.754915 0.699120 0.619723
Si Si8 0.000000 0.000000 0.110737
O O1 0.074665 0.149329 0.779431
O O2 0.207440 0.253427 0.592799
O O3 0.053172 0.106344 0.504912
O O4 0.207440 0.253427 0.966062
O O5 0.053172 0.106344 0.053949
O O6 0.275216 0.137608 0.974754
O O7 0.335992 0.065037 0.779430
O O8 0.385058 0.064626 0.037408
O O9 0.498291 0.249145 0.484220
O O10 0.568482 0.431519 0.495649
O O11 0.461871 0.335888 0.279431
O O12 0.385059 0.320433 0.521453
O O13 0.000000 0.000000 0.279430
O O14 0.498292 0.249146 0.074641
O O15 0.568482 0.431519 0.063212
O O16 0.862392 0.724783 0.584106
#
# Coordination Sequence:
#
# PCOD8322647 Si02
#       8
#     3   3   6   6   1   6   6   1
#     4  10  18  32  46  58  86 124 150 172 214 261
#     4  10  18  32  46  58  86 124 150 172 214 261
#     4   9  17  28  44  62  82 112 147 178 209 247
#     4   9  17  29  44  61  85 115 144 174 212 255
#     4  12  22  26  40  66  88 116 154 186 208 239
#     4   9  17  29  44  61  85 115 144 174 212 255
#     4   9  17  28  44  62  82 112 147 178 209 247
#     4  12  22  26  40  66  88 116 154 186 208 239
#
# _framework density 14.691806
#
# number of rings (size 3 to 8) (size 9 to 14) (size 15 to 20)
#    0.000    2.625    1.875    0.938    0.000    3.750 
#    0.000    0.000    0.000    2.250    0.000    0.000 
#    1.875    0.000    1.125    0.000    1.500    0.000 
#
# Total GULP energy -396778.686783 kJ/mol
# GULP energy per Si atom -12399.333962 kJ/mol
# Density = 1.465837 g / cm^3
# Si number density = 14.691806 Si / 1000 Ang^3
#
#
#
# Elastic Constant Matrix: (Units=GPa)
#
#
# Indices 1 2 3 4 5 6 
#
# 1 100.0232 50.5434 45.6873 0.0000 0.0000 0.0000
# 2 50.5434 100.0232 45.6873 0.0000 0.0000 0.0000
# 3 45.6873 45.6873 64.0658 0.0000 0.0000 0.0000
# 4 0.0000 0.0000 0.0000 23.6565 0.0000 0.0000
# 5 0.0000 0.0000 0.0000 0.0000 23.6565 0.0000
# 6 0.0000 0.0000 0.0000 0.0000 0.0000 24.7399
#
#
#
# Elastic Compliance Matrix: (Units=1/GPa)
#
#
# Indices 1 2 3 4 5 6 
#
# 1 0.015960 -0.004251 -0.008350 0.000000 0.000000 0.000000
# 2 -0.004251 0.015960 -0.008350 0.000000 0.000000 0.000000
# 3 -0.008350 -0.008350 0.027518 0.000000 0.000000 0.000000
# 4 0.000000 0.000000 0.000000 0.042272 0.000000 0.000000
# 5 0.000000 0.000000 0.000000 0.000000 0.042272 0.000000
# 6 0.000000 0.000000 0.000000 0.000000 0.000000 0.040420
#
#
# Mechanical properties :
#
#
# Convention : Reuss Voigt Hill
#
# Bulk Modulus (GPa) = 57.02523 60.88316 58.95419
# Shear Modulus (GPa) = 21.53796 22.55686 22.04741
#
# Velocity S-wave (km/s) = 3.83297 3.92259 3.87804
# Velocity P-wave (km/s) = 7.64771 7.87691 7.76316
#
# Compressibility (1/GPa) = 0.01753610
#
# Stress axis : x y z
#
# Youngs Moduli (GPa) = 62.65815 62.65815 36.33947
#
# Poissons Ratio (x) = 0.26634 0.30344
# Poissons Ratio (y) = 0.26634 0.30344
# Poissons Ratio (z) = 0.52320 0.52320
#
# Static dielectric constant tensor:
#      x y z
#    x 2.764550 0.000000 0.000000 
#    y 0.000000 2.764550 0.000000 
#    z 0.000000 0.000000 2.850110 
# 
# 
# High freq. dielectric constant tensor:
#      x y z
#    x 1.540540 0.000000 0.000000 
#    y 0.000000 1.540540 0.000000 
#    z 0.000000 0.000000 1.563600 
# 
# From -- ./inp_files/632.got.cif
#   From: 2010.03.12/outbox.cif.g09.slc.cpg/sg156_cif.got.tgz:632.got - 2010.04.03 13:58:47.
