data_PCOD8322312
_publ_section_title
;
Structure prediction by ZEFSAII (Michael W. Deem and Ramdas Pophale) SiO2 
 PCOD8322312
Probable space group: P 32 2 1
;
_chemical_formula_sum "Si O2"
_cell_formula_units_Z 42
_cell_length_a 22.541140
_cell_length_b 22.541140
_cell_length_c 5.125785
_cell_angle_alpha 90.000000
_cell_angle_beta 90.000000
_cell_angle_gamma 120.000000
_cell_volume 2255.499682
_symmetry_space_group_name_H-M "P 32 2 1"
_symmetry_group_IT_number 154
_symmetry_cell_setting 'hexagonal'
loop_
_space_group_symop_operation_xyz
x,y,z
-y,x-y,2/3+z
-x+y,-x,1/3+z
x-y,-y,1/3-z
-x,-x+y,2/3-z
y,x,-z
loop_
_atom_site_type_symbol
_atom_site_label
_atom_site_fract_x
_atom_site_fract_y
_atom_site_fract_z
Si Si1 0.077887 0.339890 0.347695
Si Si2 0.199085 0.242757 0.743516
Si Si3 0.489053 0.292141 0.261409
Si Si4 0.334803 0.379645 0.743910
Si Si5 0.623504 0.260397 0.766224
Si Si6 0.922411 0.187268 0.819170
Si Si7 0.732363 0.524564 0.081125
O O1 0.091786 0.324153 0.639750
O O2 0.128527 0.418524 0.276813
O O3 0.000000 0.324647 0.333334
O O4 0.092416 0.294780 0.139958
O O5 0.197335 0.197335 0.500000
O O6 0.255746 0.322072 0.698368
O O7 0.124791 0.233434 0.776370
O O8 0.215169 0.215169 0.000000
O O9 0.451373 0.336217 0.222254
O O10 0.570913 0.345951 0.289172
O O11 0.462900 0.251825 0.531596
O O12 0.472524 0.237795 0.029500
O O13 0.380599 0.380599 0.500000
O O14 0.366434 0.366434 0.000000
O O15 0.675598 0.291404 0.529368
O O16 0.545576 0.206107 0.690408
O O17 0.000000 0.203047 0.833334
#
# Coordination Sequence:
#
# PCOD8322312 Si02
#       7
#     6   6   6   6   6   6   6
#     4  10  20  34  53  80 109 139 178 224 270 328
#     4  10  19  31  51  76 105 136 174 219 261 314
#     4  11  22  35  58  80 108 144 181 224 274 322
#     4  10  20  34  51  77 109 139 174 216 263 321
#     4  10  20  37  55  80 109 134 182 229 270 312
#     4  10  20  35  55  78 109 141 179 224 270 321
#     4  11  21  34  58  81 107 141 180 225 275 321
#
# _framework density 18.621151000000001
#
# number of rings (size 3 to 8) (size 9 to 14) (size 15 to 20)
#    0.000    1.714    1.429    4.286    0.000    2.286 
#    0.000    0.714    0.000    3.429    0.000    0.000 
#    0.000    0.000    0.000    0.000    0.000    0.000 
#
# Total GULP energy -520759.882773 kJ/mol
# GULP energy per Si atom -12399.044828 kJ/mol
# Density = 1.857877 g / cm^3
# Si number density = 18.621151 Si / 1000 Ang^3
#
#
#
# Elastic Constant Matrix: (Units=GPa)
#
#
# Indices 1 2 3 4 5 6 
#
# 1 106.1075 51.6421 19.1653 1.9986 0.0000 0.0000
# 2 51.6421 106.1075 19.1653 -1.9986 0.0000 0.0000
# 3 19.1653 19.1653 90.6405 0.0000 0.0000 0.0000
# 4 1.9986 -1.9986 0.0000 21.5834 0.0000 0.0000
# 5 0.0000 0.0000 0.0000 0.0000 21.5834 1.9986
# 6 0.0000 0.0000 0.0000 0.0000 1.9986 27.2327
#
#
#
# Elastic Compliance Matrix: (Units=1/GPa)
#
#
# Indices 1 2 3 4 5 6 
#
# 1 0.012584 -0.005902 -0.001413 -0.001712 0.000000 0.000000
# 2 -0.005902 0.012584 -0.001413 0.001712 0.000000 0.000000
# 3 -0.001413 -0.001413 0.011630 0.000000 0.000000 0.000000
# 4 -0.001712 0.001712 0.000000 0.046649 0.000000 0.000000
# 5 0.000000 0.000000 0.000000 0.000000 0.046649 -0.003424
# 6 0.000000 0.000000 0.000000 0.000000 -0.003424 0.036972
#
#
# Mechanical properties :
#
#
# Convention : Reuss Voigt Hill
#
# Bulk Modulus (GPa) = 51.69765 53.64454 52.67109
# Shear Modulus (GPa) = 26.18197 28.27209 27.22703
#
# Velocity S-wave (km/s) = 3.75378 3.90074 3.82796
# Velocity P-wave (km/s) = 6.82722 7.01132 6.91988
#
# Compressibility (1/GPa) = 0.01934324
#
# Stress axis : x y z
#
# Youngs Moduli (GPa) = 79.46477 79.46477 85.98362
#
# Poissons Ratio (x) = 0.46898 0.12149
# Poissons Ratio (y) = 0.46898 0.12149
# Poissons Ratio (z) = 0.11228 0.11228
#
# Static dielectric constant tensor:
#      x y z
#    x 3.423450 0.000000 0.000000 
#    y 0.000000 3.423450 0.000000 
#    z 0.000000 0.000000 3.557680 
# 
# 
# High freq. dielectric constant tensor:
#      x y z
#    x 1.709520 0.000000 0.000000 
#    y 0.000000 1.709520 0.000000 
#    z 0.000000 0.000000 1.739060 
# 
# From -- ./inp_files/526.got.cif
#   From: 2010.03.12/outbox.cif.g09.slc.cpg/sg154_1_cif.got.tgz:526.got - 2010.04.03 13:51:21.
