data_PCOD8322787
_publ_section_title
;
Structure prediction by ZEFSAII (Michael W. Deem and Ramdas Pophale) SiO2 
 PCOD8322787
Probable space group: P 3 1 C
;
_chemical_formula_sum "Si O2"
_cell_formula_units_Z 48
_cell_length_a 14.803603
_cell_length_b 14.803603
_cell_length_c 13.841191
_cell_angle_alpha 90.000000
_cell_angle_beta 90.000000
_cell_angle_gamma 120.000000
_cell_volume 2626.872251
_symmetry_space_group_name_H-M "P 3 1 C"
_symmetry_group_IT_number 159
_symmetry_cell_setting 'hexagonal'
loop_
_space_group_symop_operation_xyz
x,y,z
-y,x-y,z
-x+y,-x,z
y,x,1/2+z
x-y,-y,1/2+z
-x,-x+y,1/2+z
loop_
_atom_site_type_symbol
_atom_site_label
_atom_site_fract_x
_atom_site_fract_y
_atom_site_fract_z
Si Si1 0.903122 0.324609 0.213720
Si Si2 0.541377 0.525928 0.039410
Si Si3 0.381171 0.235929 0.337705
Si Si4 0.188647 0.202210 0.712081
Si Si5 0.204629 0.013946 0.668109
Si Si6 0.467275 0.474418 0.332975
Si Si7 0.614587 0.762199 0.040821
Si Si8 0.917356 0.582413 0.654694
O O1 0.791434 0.230975 0.251162
O O2 0.948898 0.422339 0.282578
O O3 0.896501 0.362279 0.104035
O O4 0.984717 0.282503 0.222468
O O5 0.548987 0.637940 0.042020
O O6 0.430500 0.447993 0.084435
O O7 0.539962 0.481676 0.931624
O O8 0.258780 0.189735 0.312292
O O9 0.440167 0.357985 0.357996
O O10 0.385929 0.180043 0.432526
O O11 0.185270 0.093464 0.733614
O O12 0.292969 0.282654 0.656340
O O13 0.089088 0.182526 0.647014
O O14 0.263716 0.072960 0.569879
O O15 0.377793 0.470399 0.261093
O O16 0.556346 0.804690 0.112840
#
# Coordination Sequence:
#
# PCOD8322787 Si02
#       8
#     6   6   6   6   6   6   6   6
#     4   9  19  33  50  77 111 140 176 226 284 328
#     4  10  18  32  56  77 106 145 184 223 278 338
#     4  10  18  32  52  79 113 139 180 231 281 330
#     4   9  18  33  54  74 107 143 178 222 273 332
#     4   9  18  33  54  74 107 143 178 222 273 332
#     4  10  18  32  56  77 106 145 184 223 278 338
#     4  10  18  32  52  79 113 139 180 231 281 330
#     4   9  19  33  50  77 111 140 176 226 284 328
#
# _framework density 18.272680999999999
#
# number of rings (size 3 to 8) (size 9 to 14) (size 15 to 20)
#    0.000    2.500    2.500    0.250    0.000    0.000 
#    1.500    6.250    5.500    4.500    0.000    0.000 
#    0.000    0.000    0.000    0.000    0.000    0.000 
#
# Total GULP energy -594662.661050 kJ/mol
# GULP energy per Si atom -12388.805439 kJ/mol
# Density = 1.823109 g / cm^3
# Si number density = 18.272681 Si / 1000 Ang^3
#
#
#
# Elastic Constant Matrix: (Units=GPa)
#
#
# Indices 1 2 3 4 5 6 
#
# 1 62.4739 16.4516 15.3568 0.0000 5.0293 0.0000
# 2 16.4516 62.4739 15.3568 0.0000 -5.0293 0.0000
# 3 15.3568 15.3568 93.7369 0.0000 0.0000 0.0000
# 4 0.0000 0.0000 0.0000 21.4971 0.0000 -5.0293
# 5 5.0293 -5.0293 0.0000 0.0000 21.4971 0.0000
# 6 0.0000 0.0000 0.0000 -5.0293 0.0000 23.0111
#
#
#
# Elastic Compliance Matrix: (Units=1/GPa)
#
#
# Indices 1 2 3 4 5 6 
#
# 1 0.018216 -0.004683 -0.002217 0.000000 -0.005357 0.000000
# 2 -0.004683 0.018216 -0.002217 0.000000 0.005357 0.000000
# 3 -0.002217 -0.002217 0.011395 0.000000 0.000000 0.000000
# 4 0.000000 0.000000 0.000000 0.049025 0.000000 0.010715
# 5 -0.005357 0.005357 0.000000 0.000000 0.049025 0.000000
# 6 0.000000 0.000000 0.000000 0.010715 0.000000 0.045799
#
#
# Mechanical properties :
#
#
# Convention : Reuss Voigt Hill
#
# Bulk Modulus (GPa) = 33.79275 34.77946 34.28611
# Shear Modulus (GPa) = 22.75061 24.63570 23.69315
#
# Velocity S-wave (km/s) = 3.53237 3.67580 3.60480
# Velocity P-wave (km/s) = 5.93048 6.09018 6.01086
#
# Compressibility (1/GPa) = 0.02959214
#
# Stress axis : x y z
#
# Youngs Moduli (GPa) = 54.89611 54.89611 87.76081
#
# Poissons Ratio (x) = 0.25709 0.19457
# Poissons Ratio (y) = 0.25709 0.19457
# Poissons Ratio (z) = 0.12171 0.12171
#
# Static dielectric constant tensor:
#      x y z
#    x 3.579690 0.000000 0.000000 
#    y 0.000000 3.579690 0.000000 
#    z 0.000000 0.000000 3.485050 
# 
# 
# High freq. dielectric constant tensor:
#      x y z
#    x 1.703680 0.000000 0.000000 
#    y 0.000000 1.703680 0.000000 
#    z 0.000000 0.000000 1.696270 
# 
# From -- ./inp_files/965.got.cif
#   From: 2010.03.12/outbox.cif.g09.slc.cpg/sg159_cif.got.tgz:965.got - 2010.04.03 14:00:19.
