data_PCOD8322454
_publ_section_title
;
Structure prediction by ZEFSAII (Michael W. Deem and Ramdas Pophale) SiO2 
 PCOD8322454
Probable space group: R 3 2
;
_chemical_formula_sum "Si O2"
_cell_formula_units_Z 105
_cell_length_a 20.274825
_cell_length_b 20.274825
_cell_length_c 19.147237
_cell_angle_alpha 90.000000
_cell_angle_beta 90.000000
_cell_angle_gamma 120.000000
_cell_volume 6816.335736
_symmetry_space_group_name_H-M "R 3 2"
_symmetry_group_IT_number 155
_symmetry_cell_setting 'hexagonal'
loop_
_space_group_symop_operation_xyz
x,y,z
-y,x-y,z
-x+y,-x,z
x-y,-y,-z
-x,-x+y,-z
y,x,-z
2/3+x,1/3+y,1/3+z
2/3-y,1/3+x-y,1/3+z
2/3-x+y,1/3-x,1/3+z
2/3+x-y,1/3-y,1/3-z
2/3-x,1/3-x+y,1/3-z
2/3+y,1/3+x,1/3-z
1/3+x,2/3+y,2/3+z
1/3-y,2/3+x-y,2/3+z
1/3-x+y,2/3-x,2/3+z
1/3+x-y,2/3-y,2/3-z
1/3-x,2/3-x+y,2/3-z
1/3+y,2/3+x,2/3-z
loop_
_atom_site_type_symbol
_atom_site_label
_atom_site_fract_x
_atom_site_fract_y
_atom_site_fract_z
Si Si1 0.152973 0.244500 0.002373
Si Si2 0.085364 0.514319 0.518852
Si Si3 0.032102 0.753011 0.647055
Si Si4 0.000000 0.703999 0.500000
Si Si5 0.166515 0.556140 0.800135
Si Si6 0.875118 0.536103 0.118642
Si Si7 0.000000 0.000000 0.083138
O O1 0.210692 0.334907 0.010410
O O2 0.096107 0.219471 0.067060
O O3 0.192584 0.192584 0.000000
O O4 0.105958 0.233948 0.932761
O O5 0.141235 0.481010 0.501849
O O6 0.107220 0.587731 0.472851
O O7 0.000000 0.449295 0.500000
O O8 0.001841 0.666667 0.666667
O O9 0.010620 0.757627 0.566586
O O10 0.995026 0.786667 0.700652
O O11 0.926316 0.620677 0.508954
O O12 0.150361 0.600663 0.861206
O O13 0.254109 0.600434 0.778193
O O14 0.000000 0.000000 0.000000
#
# Coordination Sequence:
#
# PCOD8322454 Si02
#       7
#    18  18  18   9  18  18   6
#     4  11  17  30  49  74 102 138 167 201 247 307
#     4  12  21  32  47  69 109 145 174 199 248 319
#     4   9  17  27  51  76  97 122 164 214 263 295
#     4  10  16  32  52  76  96 118 162 228 276 292
#     4  12  22  31  47  73 109 140 170 207 249 304
#     4  11  18  31  49  75 102 130 169 215 252 304
#     4  12  21  30  42  72 111 145 167 187 243 312
#
# _framework density 15.404170000000001
#
# number of rings (size 3 to 8) (size 9 to 14) (size 15 to 20)
#    0.000    1.029    7.714    3.086    0.000    0.000 
#    0.000    0.000    0.000    6.171    0.000    1.200 
#    0.000    0.000    0.000    0.000    0.000    0.000 
#
# Total GULP energy -433938.249957 kJ/mol
# GULP energy per Si atom -12398.235713 kJ/mol
# Density = 1.536911 g / cm^3
# Si number density = 15.404170 Si / 1000 Ang^3
#
#
#
# Elastic Constant Matrix: (Units=GPa)
#
#
# Indices 1 2 3 4 5 6 
#
# 1 81.0399 37.7361 34.5857 8.6914 -0.0002 0.0000
# 2 37.7361 81.0399 34.5857 -8.6914 0.0002 0.0000
# 3 34.5857 34.5857 114.5156 0.0000 0.0000 0.0000
# 4 8.6914 -8.6914 0.0000 5.0587 0.0000 0.0002
# 5 -0.0002 0.0002 0.0000 0.0000 5.0587 8.6914
# 6 0.0000 0.0000 0.0000 0.0002 8.6914 21.6519
#
#
#
# Elastic Compliance Matrix: (Units=1/GPa)
#
#
# Indices 1 2 3 4 5 6 
#
# 1 0.042314 -0.032098 -0.003085 -0.127847 0.000002 0.000000
# 2 -0.032098 0.042314 -0.003085 0.127847 -0.000002 0.000000
# 3 -0.003085 -0.003085 0.010596 0.000000 0.000000 0.000000
# 4 -0.127847 0.127847 0.000000 0.636984 0.000000 -0.000005
# 5 0.000002 -0.000002 0.000000 0.000000 0.636984 -0.255695
# 6 0.000000 0.000000 0.000000 -0.000005 -0.255695 0.148825
#
#
# Mechanical properties :
#
#
# Convention : Reuss Voigt Hill
#
# Bulk Modulus (GPa) = 53.51439 54.49003 54.00221
# Shear Modulus (GPa) = 3.12347 17.66640 10.39493
#
# Velocity S-wave (km/s) = 1.42551 3.39020 2.60053
# Velocity P-wave (km/s) = 6.12577 7.12566 6.64455
#
# Compressibility (1/GPa) = 0.01868656
#
# Stress axis : x y z
#
# Youngs Moduli (GPa) = 23.63269 23.63269 94.37390
#
# Poissons Ratio (x) = 0.75857 0.29118
# Poissons Ratio (y) = 0.75857 0.29118
# Poissons Ratio (z) = 0.07292 0.07292
#
# Static dielectric constant tensor:
#      x y z
#    x 2.867720 0.000000 0.000000 
#    y 0.000000 2.867720 0.000000 
#    z 0.000000 0.000000 2.780270 
# 
# 
# High freq. dielectric constant tensor:
#      x y z
#    x 1.568550 0.000000 0.000000 
#    y 0.000000 1.568550 0.000000 
#    z 0.000000 0.000000 1.590900 
# 
# From -- ./inp_files/7012.got.cif
#   From: 2010.03.12/outbox.cif.g09.slc.cpg/sg155_4_cif.got.tgz:7012.got - 2010.04.03 13:54:13.
