data_PCOD8322938
_publ_section_title
;
Structure prediction by ZEFSAII (Michael W. Deem and Ramdas Pophale) SiO2 
 PCOD8322938
Probable space group: P -3 1 M 
;
_chemical_formula_sum "Si O2"
_cell_formula_units_Z 96
_cell_length_a 17.947207
_cell_length_b 17.947207
_cell_length_c 20.611247
_cell_angle_alpha 90.000000
_cell_angle_beta 90.000000
_cell_angle_gamma 120.000000
_cell_volume 5749.481003
_symmetry_space_group_name_H-M "P -3 1 M "
_symmetry_group_IT_number 162
_symmetry_cell_setting 'hexagonal'
loop_
_space_group_symop_operation_xyz
x,y,z
-y,x-y,z
-x+y,-x,z
-y,-x,-z
-x+y,y,-z
x,x-y,-z
-x,-y,-z
y,-x+y,-z
x-y,x,-z
y,x,z
x-y,-y,z
-x,-x+y,z
loop_
_atom_site_type_symbol
_atom_site_label
_atom_site_fract_x
_atom_site_fract_y
_atom_site_fract_z
Si Si1 0.502011 0.832661 0.000000
Si Si2 0.839203 0.507873 0.500000
Si Si3 0.095480 0.635991 0.132747
Si Si4 0.902288 0.269441 0.380800
Si Si5 0.669287 0.503449 0.731086
Si Si6 0.632847 0.902288 0.380800
Si Si7 0.669287 0.165838 0.731086
Si Si8 0.904520 0.364009 0.132747
O O1 0.558872 0.870113 0.934639
O O2 0.428758 0.857516 0.000000
O O3 0.460165 0.730083 0.000000
O O4 0.558872 0.870113 0.065361
O O5 0.737777 0.475554 0.500000
O O6 0.852286 0.426143 0.500000
O O7 0.884635 0.565056 0.562644
O O8 0.884635 0.565056 0.437356
O O9 0.152141 0.687424 0.194502
O O10 0.097210 0.548605 0.125656
O O11 0.000000 0.618449 0.144810
O O12 0.833395 0.166605 0.384322
O O13 0.894835 0.310433 0.313514
O O14 0.000000 0.286714 0.386646
O O15 0.689567 0.584403 0.686486
O O16 0.734398 0.468796 0.713466
O O17 0.571803 0.428197 0.719413
O O18 0.713286 0.000000 0.386646
O O19 0.687424 0.152141 0.805498
O O20 0.000000 0.381550 0.144810
#
# Coordination Sequence:
#
# PCOD8322938 Si02
#       8
#    12  12  12  12  12  12  12  12
#     4  10  18  27  39  55  76 101 132 174 225 276
#     4  10  20  33  50  73 102 134 165 194 224 261
#     4   9  17  28  41  56  76 106 144 183 220 261
#     4  10  21  35  51  71  94 122 155 193 236 279
#     4  10  19  30  45  66  93 123 154 187 223 265
#     4  10  21  35  51  71  94 122 155 193 236 279
#     4  10  19  30  45  66  93 123 154 187 223 265
#     4   9  17  28  41  56  76 106 144 183 220 261
#
# _framework density 16.69716
#
# number of rings (size 3 to 8) (size 9 to 14) (size 15 to 20)
#    0.000    2.250    0.000    3.500    0.000    5.000 
#    0.000    5.000    0.000    0.250    0.000    0.000 
#    0.000    3.000    0.000    0.000    0.000    0.000 
#
# Total GULP energy -1189921.512779 kJ/mol
# GULP energy per Si atom -12395.015758 kJ/mol
# Density = 1.665916 g / cm^3
# Si number density = 16.697160 Si / 1000 Ang^3
#
#
#
# Elastic Constant Matrix: (Units=GPa)
#
#
# Indices 1 2 3 4 5 6 
#
# 1 76.8114 48.7900 29.8674 0.0000 0.0000 0.0000
# 2 48.7900 76.8114 29.8674 0.0000 0.0000 0.0000
# 3 29.8674 29.8674 108.2052 0.0000 0.0000 0.0000
# 4 0.0000 0.0000 0.0000 18.1339 0.0000 0.0000
# 5 0.0000 0.0000 0.0000 0.0000 18.1339 0.0000
# 6 0.0000 0.0000 0.0000 0.0000 0.0000 14.0107
#
#
#
# Elastic Compliance Matrix: (Units=1/GPa)
#
#
# Indices 1 2 3 4 5 6 
#
# 1 0.022426 -0.013261 -0.002530 0.000000 0.000000 0.000000
# 2 -0.013261 0.022426 -0.002530 0.000000 0.000000 0.000000
# 3 -0.002530 -0.002530 0.010638 0.000000 0.000000 0.000000
# 4 0.000000 0.000000 0.000000 0.055145 0.000000 0.000000
# 5 0.000000 0.000000 0.000000 0.000000 0.055145 0.000000
# 6 0.000000 0.000000 0.000000 0.000000 0.000000 0.071374
#
#
# Mechanical properties :
#
#
# Convention : Reuss Voigt Hill
#
# Bulk Modulus (GPa) = 53.05334 53.20865 53.13099
# Shear Modulus (GPa) = 17.85215 20.27594 19.06405
#
# Velocity S-wave (km/s) = 3.27337 3.48851 3.38265
# Velocity P-wave (km/s) = 6.79187 6.93991 6.86629
#
# Compressibility (1/GPa) = 0.01884896
#
# Stress axis : x y z
#
# Youngs Moduli (GPa) = 44.59136 44.59136 94.00057
#
# Poissons Ratio (x) = 0.59133 0.23780
# Poissons Ratio (y) = 0.59133 0.23780
# Poissons Ratio (z) = 0.11280 0.11280
#
# Static dielectric constant tensor:
#      x y z
#    x 2.910110 0.000000 0.000000 
#    y 0.000000 2.910110 0.000000 
#    z 0.000000 0.000000 3.552870 
# 
# 
# High freq. dielectric constant tensor:
#      x y z
#    x 1.610180 0.000000 0.000000 
#    y 0.000000 1.610180 0.000000 
#    z 0.000000 0.000000 1.672100 
# 
# From -- ./inp_files/3915.got.cif
#   From: 2010.03.12/outbox.cif.g09.slc.cpg/sg162_2_cif.got.tgz:3915.got - 2010.04.02 06:27:41.
