data_PCOD8322555
_publ_section_title
;
Structure prediction by ZEFSAII (Michael W. Deem and Ramdas Pophale) SiO2 
 PCOD8322555
Probable space group: R 3 2
;
_chemical_formula_sum "Si O2"
_cell_formula_units_Z 108
_cell_length_a 17.541514
_cell_length_b 17.541514
_cell_length_c 21.302533
_cell_angle_alpha 90.000000
_cell_angle_beta 90.000000
_cell_angle_gamma 120.000000
_cell_volume 5676.701096
_symmetry_space_group_name_H-M "R 3 2"
_symmetry_group_IT_number 155
_symmetry_cell_setting 'hexagonal'
loop_
_space_group_symop_operation_xyz
x,y,z
-y,x-y,z
-x+y,-x,z
x-y,-y,-z
-x,-x+y,-z
y,x,-z
2/3+x,1/3+y,1/3+z
2/3-y,1/3+x-y,1/3+z
2/3-x+y,1/3-x,1/3+z
2/3+x-y,1/3-y,1/3-z
2/3-x,1/3-x+y,1/3-z
2/3+y,1/3+x,1/3-z
1/3+x,2/3+y,2/3+z
1/3-y,2/3+x-y,2/3+z
1/3-x+y,2/3-x,2/3+z
1/3+x-y,2/3-y,2/3-z
1/3-x,2/3-x+y,2/3-z
1/3+y,2/3+x,2/3-z
loop_
_atom_site_type_symbol
_atom_site_label
_atom_site_fract_x
_atom_site_fract_y
_atom_site_fract_z
Si Si1 0.767512 0.537156 0.323246
Si Si2 0.947160 0.767623 0.647291
Si Si3 0.117131 0.780251 0.084444
Si Si4 0.233325 0.766529 0.184299
Si Si5 0.609797 0.089646 0.467871
Si Si6 0.428289 0.768768 0.903277
O O1 0.666667 0.472645 0.333334
O O2 0.817235 0.483902 0.333334
O O3 0.801221 0.617124 0.373203
O O4 0.782957 0.567225 0.251065
O O5 0.887952 0.666667 0.666667
O O6 0.893118 0.783027 0.592233
O O7 0.972237 0.837539 0.702671
O O8 0.040978 0.789028 0.622844
O O9 0.176954 0.801943 0.146580
O O10 0.015991 0.738690 0.103721
O O11 0.203167 0.666667 0.166667
O O12 0.333334 0.828627 0.166667
O O13 0.662919 0.176617 0.510876
O O14 0.539092 0.000000 0.500000
O O15 0.327183 0.749764 0.901870
#
# Coordination Sequence:
#
# PCOD8322555 Si02
#       6
#    18  18  18  18  18  18
#     4  10  22  36  62  89 123 161 207 258 315 385
#     4  11  21  40  66  94 125 169 221 268 331 389
#     4  10  21  38  64  91 124 158 218 270 307 396
#     4  10  22  36  62  89 123 161 207 258 315 385
#     4  11  21  40  66  94 125 169 221 268 331 389
#     4  10  25  38  64  99 140 174 216 290 337 410
#
# _framework density 19.025134000000001
#
# number of rings (size 3 to 8) (size 9 to 14) (size 15 to 20)
#    0.333    1.333    0.000    6.333    9.333    0.000 
#    0.000    1.667    3.667    0.000    0.000    0.000 
#    0.000    0.000    0.000    0.000    0.000    0.000 
#
# Total GULP energy -446177.273155 kJ/mol
# GULP energy per Si atom -12393.813143 kJ/mol
# Density = 1.898183 g / cm^3
# Si number density = 19.025134 Si / 1000 Ang^3
#
#
#
# Elastic Constant Matrix: (Units=GPa)
#
#
# Indices 1 2 3 4 5 6 
#
# 1 68.4765 6.0411 21.3430 -3.9035 -0.0008 0.0000
# 2 6.0411 68.4765 21.3430 3.9035 0.0008 0.0000
# 3 21.3430 21.3430 113.0184 0.0000 0.0000 0.0000
# 4 -3.9035 3.9035 0.0000 23.4065 0.0000 0.0008
# 5 -0.0008 0.0008 0.0000 0.0000 23.4065 -3.9035
# 6 0.0000 0.0000 0.0000 0.0008 -3.9035 31.2177
#
#
#
# Elastic Compliance Matrix: (Units=1/GPa)
#
#
# Indices 1 2 3 4 5 6 
#
# 1 0.015703 -0.000655 -0.002842 0.002728 0.000001 0.000000
# 2 -0.000655 0.015703 -0.002842 -0.002728 -0.000001 0.000000
# 3 -0.002842 -0.002842 0.009921 0.000000 0.000000 0.000000
# 4 0.002728 -0.002728 0.000000 0.043633 0.000000 -0.000001
# 5 0.000001 -0.000001 0.000000 0.000000 0.043633 0.005456
# 6 0.000000 0.000000 0.000000 -0.000001 0.005456 0.032715
#
#
# Mechanical properties :
#
#
# Convention : Reuss Voigt Hill
#
# Bulk Modulus (GPa) = 34.90439 38.60284 36.75362
# Shear Modulus (GPa) = 27.24282 29.02242 28.13262
#
# Velocity S-wave (km/s) = 3.78820 3.90997 3.84957
# Velocity P-wave (km/s) = 6.12538 6.38109 6.25454
#
# Compressibility (1/GPa) = 0.02864969
#
# Stress axis : x y z
#
# Youngs Moduli (GPa) = 63.68389 63.68389 100.79247
#
# Poissons Ratio (x) = 0.04172 0.28642
# Poissons Ratio (y) = 0.04172 0.28642
# Poissons Ratio (z) = 0.18097 0.18097
#
# Static dielectric constant tensor:
#      x y z
#    x 3.410860 0.000000 0.000000 
#    y 0.000000 3.410860 0.000000 
#    z 0.000000 0.000000 4.137840 
# 
# 
# High freq. dielectric constant tensor:
#      x y z
#    x 1.730500 0.000000 0.000000 
#    y 0.000000 1.730500 0.000000 
#    z 0.000000 0.000000 1.761470 
# 
# From -- ./inp_files/6954.got.cif
#   From: 2010.03.12/outbox.cif.g09.slc.cpg/sg155_4_cif.got.tgz:6954.got - 2010.04.03 13:54:13.
