data_PCOD8322512
_publ_section_title
;
Structure prediction by ZEFSAII (Michael W. Deem and Ramdas Pophale) SiO2 
 PCOD8322512
Probable space group: R 3 2
;
_chemical_formula_sum "Si O2"
_cell_formula_units_Z 144
_cell_length_a 22.162884
_cell_length_b 22.162884
_cell_length_c 19.204309
_cell_angle_alpha 90.000000
_cell_angle_beta 90.000000
_cell_angle_gamma 120.000000
_cell_volume 8169.243922
_symmetry_space_group_name_H-M "R 3 2"
_symmetry_group_IT_number 155
_symmetry_cell_setting 'hexagonal'
loop_
_space_group_symop_operation_xyz
x,y,z
-y,x-y,z
-x+y,-x,z
x-y,-y,-z
-x,-x+y,-z
y,x,-z
2/3+x,1/3+y,1/3+z
2/3-y,1/3+x-y,1/3+z
2/3-x+y,1/3-x,1/3+z
2/3+x-y,1/3-y,1/3-z
2/3-x,1/3-x+y,1/3-z
2/3+y,1/3+x,1/3-z
1/3+x,2/3+y,2/3+z
1/3-y,2/3+x-y,2/3+z
1/3-x+y,2/3-x,2/3+z
1/3+x-y,2/3-y,2/3-z
1/3-x,2/3-x+y,2/3-z
1/3+y,2/3+x,2/3-z
loop_
_atom_site_type_symbol
_atom_site_label
_atom_site_fract_x
_atom_site_fract_y
_atom_site_fract_z
Si Si1 0.187206 0.947844 0.679854
Si Si2 0.348038 0.407456 0.855138
Si Si3 0.260514 0.986947 0.191750
Si Si4 0.869422 0.603200 0.374717
Si Si5 0.140416 0.714751 0.987013
Si Si6 0.806139 0.087139 0.605116
Si Si7 0.265938 0.871522 0.623469
Si Si8 0.581438 0.715624 0.230779
O O1 0.106565 0.888058 0.674932
O O2 0.237823 0.921681 0.649490
O O3 0.206221 0.977807 0.758300
O O4 0.201972 0.013302 0.632412
O O5 0.284096 0.333334 0.833334
O O6 0.383415 0.457323 0.789804
O O7 0.313664 0.438019 0.907949
O O8 0.405245 0.393955 0.891226
O O9 0.212066 0.947754 0.125838
O O10 0.275539 0.933666 0.235354
O O11 0.333334 0.051371 0.166667
O O12 0.880971 0.547637 0.333334
O O13 0.922832 0.680054 0.346084
O O14 0.790737 0.583308 0.360481
O O15 0.122180 0.647678 0.034381
O O16 0.801776 0.135109 0.666667
O O17 0.874685 0.131537 0.558260
O O18 0.333334 0.886755 0.666667
O O19 0.538308 0.666667 0.166667
#
# Coordination Sequence:
#
# PCOD8322512 Si02
#       8
#    18  18  18  18  18  18  18  18
#     4  11  21  35  53  78 114 142 179 226 266 332
#     4  11  19  33  54  78 113 142 177 218 268 340
#     4  11  19  32  52  78 111 148 173 210 274 328
#     4  11  21  35  54  81 113 146 178 226 275 323
#     4  10  22  35  53  82 109 143 182 219 280 322
#     4  10  20  35  54  78 109 145 181 222 269 324
#     4  11  21  35  54  83 114 144 183 222 273 330
#     4  11  21  33  54  81 110 143 182 218 267 322
#
# _framework density 17.627091
#
# number of rings (size 3 to 8) (size 9 to 14) (size 15 to 20)
#    0.000    1.250    6.250    2.250    1.750    2.500 
#    0.000    0.000    0.000    0.750    0.000    2.625 
#    0.000    0.000    0.000    0.000    0.000    0.000 
#
# Total GULP energy -595184.406545 kJ/mol
# GULP energy per Si atom -12399.675136 kJ/mol
# Density = 1.758697 g / cm^3
# Si number density = 17.627091 Si / 1000 Ang^3
#
#
#
# Elastic Constant Matrix: (Units=GPa)
#
#
# Indices 1 2 3 4 5 6 
#
# 1 65.8400 25.8092 20.2376 1.2482 0.0001 0.0000
# 2 25.8092 65.8400 20.2376 -1.2482 -0.0001 0.0000
# 3 20.2376 20.2376 90.5515 0.0000 0.0000 0.0000
# 4 1.2482 -1.2482 0.0000 22.7870 0.0000 -0.0001
# 5 0.0001 -0.0001 0.0000 0.0000 22.7870 1.2482
# 6 0.0000 0.0000 0.0000 -0.0001 1.2482 20.0154
#
#
#
# Elastic Compliance Matrix: (Units=1/GPa)
#
#
# Indices 1 2 3 4 5 6 
#
# 1 0.018586 -0.006480 -0.002706 -0.001373 0.000000 0.000000
# 2 -0.006480 0.018586 -0.002706 0.001373 0.000000 0.000000
# 3 -0.002706 -0.002706 0.012253 0.000000 0.000000 0.000000
# 4 -0.001373 0.001373 0.000000 0.044035 0.000000 0.000000
# 5 0.000000 0.000000 0.000000 0.000000 0.044035 -0.002746
# 6 0.000000 0.000000 0.000000 0.000000 -0.002746 0.050133
#
#
# Mechanical properties :
#
#
# Convention : Reuss Voigt Hill
#
# Bulk Modulus (GPa) = 38.99783 39.42226 39.21005
# Shear Modulus (GPa) = 22.73158 23.51437 23.12298
#
# Velocity S-wave (km/s) = 3.59497 3.65635 3.62579
# Velocity P-wave (km/s) = 6.27723 6.34337 6.31038
#
# Compressibility (1/GPa) = 0.02564245
#
# Stress axis : x y z
#
# Youngs Moduli (GPa) = 53.80332 53.80332 81.61395
#
# Poissons Ratio (x) = 0.34865 0.22082
# Poissons Ratio (y) = 0.34865 0.22082
# Poissons Ratio (z) = 0.14557 0.14557
#
# Static dielectric constant tensor:
#      x y z
#    x 3.060150 0.000000 0.000000 
#    y 0.000000 3.060150 0.000000 
#    z 0.000000 0.000000 3.617550 
# 
# 
# High freq. dielectric constant tensor:
#      x y z
#    x 1.655360 0.000000 0.000000 
#    y 0.000000 1.655360 0.000000 
#    z 0.000000 0.000000 1.698830 
# 
# From -- ./inp_files/7047.got.cif
#   From: 2010.03.12/outbox.cif.g09.slc.cpg/sg155_4_cif.got.tgz:7047.got - 2010.04.03 13:54:13.
