data_PCOD8322140
_publ_section_title
;
Structure prediction by ZEFSAII (Michael W. Deem and Ramdas Pophale) SiO2 
 PCOD8322140
Probable space group: P 31 2 1
;
_chemical_formula_sum "Si O2"
_cell_formula_units_Z 42
_cell_length_a 8.779787
_cell_length_b 8.779787
_cell_length_c 29.200340
_cell_angle_alpha 90.000000
_cell_angle_beta 90.000000
_cell_angle_gamma 120.000000
_cell_volume 1949.335087
_symmetry_space_group_name_H-M "P 31 2 1"
_symmetry_group_IT_number 152
_symmetry_cell_setting 'hexagonal'
loop_
_space_group_symop_operation_xyz
x,y,z
-y,x-y,1/3+z
-x+y,-x,2/3+z
x-y,-y,2/3-z
-x,-x+y,1/3-z
y,x,-z
loop_
_atom_site_type_symbol
_atom_site_label
_atom_site_fract_x
_atom_site_fract_y
_atom_site_fract_z
Si Si1 0.021789 0.505343 0.547642
Si Si2 0.303038 0.365645 0.389306
Si Si3 0.853203 0.713982 0.828070
Si Si4 0.750007 0.046771 0.045517
Si Si5 0.634903 0.348608 0.385317
Si Si6 0.712805 0.315101 0.614118
Si Si7 0.028104 0.022825 0.430792
O O1 0.064843 0.653347 0.509554
O O2 0.197075 0.566234 0.577073
O O3 0.967200 0.342619 0.514035
O O4 0.866526 0.468575 0.583679
O O5 0.210784 0.310631 0.340401
O O6 0.507738 0.431174 0.383353
O O7 0.279510 0.527040 0.407513
O O8 0.219717 0.188864 0.419754
O O9 0.968998 0.872371 0.861691
O O10 0.880415 0.798720 0.777114
O O11 0.592810 0.851947 0.057332
O O12 0.936237 0.060858 0.058271
O O13 0.694863 0.180496 0.068395
O O14 0.644520 0.275654 0.334561
#
# Coordination Sequence:
#
# PCOD8322140 Si02
#       7
#     6   6   6   6   6   6   6
#     4  12  25  45  64  91 129 176 225 273 328 392
#     4  10  21  40  69  99 128 168 210 269 335 402
#     4  11  28  42  64  90 125 178 224 266 320 388
#     4  10  21  40  68 100 132 164 211 269 340 397
#     4  10  22  41  69  98 129 168 213 276 340 397
#     4  10  22  41  68 100 129 166 215 276 341 397
#     4  11  23  45  62  91 130 173 217 267 317 399
#
# _framework density 21.545808999999998
#
# number of rings (size 3 to 8) (size 9 to 14) (size 15 to 20)
#    0.000    1.429    2.857    0.857    8.000    2.286 
#    0.000    1.429    0.000    0.000    0.000    0.000 
#    0.000    0.000    0.000    0.000    0.000    0.000 
#
# Total GULP energy -520389.172914 kJ/mol
# GULP energy per Si atom -12390.218403 kJ/mol
# Density = 2.149677 g / cm^3
# Si number density = 21.545809 Si / 1000 Ang^3
#
#
#
# Elastic Constant Matrix: (Units=GPa)
#
#
# Indices 1 2 3 4 5 6 
#
# 1 106.5864 40.2398 45.7669 5.2563 0.0000 0.0000
# 2 40.2398 106.5864 45.7669 -5.2563 0.0000 0.0000
# 3 45.7669 45.7669 65.1284 0.0000 0.0000 0.0000
# 4 5.2563 -5.2563 0.0000 40.6824 0.0000 0.0000
# 5 0.0000 0.0000 0.0000 0.0000 40.6824 5.2563
# 6 0.0000 0.0000 0.0000 0.0000 5.2563 33.1733
#
#
#
# Elastic Compliance Matrix: (Units=1/GPa)
#
#
# Indices 1 2 3 4 5 6 
#
# 1 0.013754 -0.001633 -0.008517 -0.001988 0.000000 0.000000
# 2 -0.001633 0.013754 -0.008517 0.001988 0.000000 0.000000
# 3 -0.008517 -0.008517 0.027325 0.000000 0.000000 0.000000
# 4 -0.001988 0.001988 0.000000 0.025094 0.000000 0.000000
# 5 0.000000 0.000000 0.000000 0.000000 0.025094 -0.003976
# 6 0.000000 0.000000 0.000000 0.000000 -0.003976 0.030775
#
#
# Mechanical properties :
#
#
# Convention : Reuss Voigt Hill
#
# Bulk Modulus (GPa) = 57.15379 60.20537 58.67958
# Shear Modulus (GPa) = 27.93846 32.67616 30.30731
#
# Velocity S-wave (km/s) = 3.60488 3.89857 3.75460
# Velocity P-wave (km/s) = 6.62655 6.94757 6.78896
#
# Compressibility (1/GPa) = 0.01749665
#
# Stress axis : x y z
#
# Youngs Moduli (GPa) = 72.70614 72.70614 36.59668
#
# Poissons Ratio (x) = 0.11876 0.31171
# Poissons Ratio (y) = 0.11876 0.31171
# Poissons Ratio (z) = 0.61927 0.61927
#
# Static dielectric constant tensor:
#      x y z
#    x 4.036530 0.000000 0.000000 
#    y 0.000000 4.036530 0.000000 
#    z 0.000000 0.000000 4.075980 
# 
# 
# High freq. dielectric constant tensor:
#      x y z
#    x 1.845930 0.000000 0.000000 
#    y 0.000000 1.845930 0.000000 
#    z 0.000000 0.000000 1.842490 
# 
# From -- ./inp_files/3732.got.cif
#   From: 2010.03.12/outbox.cif.g09.slc.cpg/sg152_2_cif.got.tgz:3732.got - 2010.04.03 13:45:27.
