data_PCOD8322260
_publ_section_title
;
Structure prediction by ZEFSAII (Michael W. Deem and Ramdas Pophale) SiO2 
 PCOD8322260
Probable space group: P 32 1 2
;
_chemical_formula_sum "Si O2"
_cell_formula_units_Z 33
_cell_length_a 8.218656
_cell_length_b 8.218656
_cell_length_c 27.015675
_cell_angle_alpha 90.000000
_cell_angle_beta 90.000000
_cell_angle_gamma 120.000000
_cell_volume 1580.331005
_symmetry_space_group_name_H-M "P 32 1 2"
_symmetry_group_IT_number 153
_symmetry_cell_setting 'hexagonal'
loop_
_space_group_symop_operation_xyz
x,y,z
-y,x-y,2/3+z
-x+y,-x,1/3+z
-y,-x,1/3-z
-x+y,y,2/3-z
x,x-y,-z
loop_
_atom_site_type_symbol
_atom_site_label
_atom_site_fract_x
_atom_site_fract_y
_atom_site_fract_z
Si Si1 0.126352 0.252703 0.833334
Si Si2 0.129020 0.468300 0.566500
Si Si3 0.018704 0.292708 0.289754
Si Si4 0.245656 0.964878 0.798670
Si Si5 0.516721 0.688596 0.406725
Si Si6 0.097147 0.862922 0.985685
O O1 0.098982 0.371930 0.790909
O O2 0.221840 0.142394 0.809315
O O3 0.146972 0.373818 0.516123
O O4 0.987616 0.552934 0.559478
O O5 0.329920 0.635339 0.582397
O O6 0.060234 0.314650 0.609608
O O7 0.167712 0.335423 0.333334
O O8 0.078571 0.242386 0.237933
O O9 0.013283 0.485135 0.281288
O O10 0.813570 0.112768 0.301989
O O11 0.630361 0.846854 0.365922
O O12 0.072658 0.036329 0.000000
#
# Coordination Sequence:
#
# PCOD8322260 Si02
#       6
#     3   6   6   6   6   6
#     4  12  22  38  64  94 122 158 204 254 308 362
#     4  10  21  40  62  87 118 159 203 250 306 366
#     4  10  20  38  61  85 116 161 202 236 297 372
#     4  10  20  37  62  86 117 158 199 241 298 369
#     4  11  22  38  61  89 121 157 201 251 302 365
#     4  11  22  38  62  89 118 158 205 252 305 365
#
# _framework density 20.881703000000002
#
# number of rings (size 3 to 8) (size 9 to 14) (size 15 to 20)
#    0.000    1.455    0.000    9.273    0.000    0.000 
#    0.000    7.273    0.000    9.818    0.000    0.000 
#    0.000    0.000    0.000    0.000    0.000    0.000 
#
# Total GULP energy -409027.340972 kJ/mol
# GULP energy per Si atom -12394.767908 kJ/mol
# Density = 2.083418 g / cm^3
# Si number density = 20.881703 Si / 1000 Ang^3
#
#
#
# Elastic Constant Matrix: (Units=GPa)
#
#
# Indices 1 2 3 4 5 6 
#
# 1 89.3061 68.7333 45.2790 -0.0014 7.4717 0.0000
# 2 68.7333 89.3061 45.2790 0.0014 -7.4717 0.0000
# 3 45.2790 45.2790 128.5842 0.0000 0.0000 0.0000
# 4 -0.0014 0.0014 0.0000 35.4977 0.0000 -7.4717
# 5 7.4717 -7.4717 0.0000 0.0000 35.4977 -0.0014
# 6 0.0000 0.0000 0.0000 -7.4717 -0.0014 10.2864
#
#
#
# Elastic Compliance Matrix: (Units=1/GPa)
#
#
# Indices 1 2 3 4 5 6 
#
# 1 0.032654 -0.024727 -0.002791 0.000002 -0.012078 0.000000
# 2 -0.024727 0.032654 -0.002791 -0.000002 0.012078 0.000000
# 3 -0.002791 -0.002791 0.009743 0.000000 0.000000 0.000000
# 4 0.000002 -0.000002 0.000000 0.033255 0.000000 0.024155
# 5 -0.012078 0.012078 0.000000 0.000000 0.033255 0.000005
# 6 0.000000 0.000000 0.000000 0.024155 0.000005 0.114761
#
#
# Mechanical properties :
#
#
# Convention : Reuss Voigt Hill
#
# Bulk Modulus (GPa) = 69.29330 69.53100 69.41215
# Shear Modulus (GPa) = 15.53992 26.11669 20.82830
#
# Velocity S-wave (km/s) = 2.73094 3.54036 3.16166
# Velocity P-wave (km/s) = 6.57266 7.07687 6.82942
#
# Compressibility (1/GPa) = 0.01443141
#
# Stress axis : x y z
#
# Youngs Moduli (GPa) = 30.62426 30.62426 102.63890
#
# Poissons Ratio (x) = 0.75724 0.28650
# Poissons Ratio (y) = 0.75724 0.28650
# Poissons Ratio (z) = 0.08548 0.08548
#
# Static dielectric constant tensor:
#      x y z
#    x 3.914240 0.000000 0.000000 
#    y 0.000000 3.914240 0.000000 
#    z 0.000000 0.000000 4.129810 
# 
# 
# High freq. dielectric constant tensor:
#      x y z
#    x 1.800080 0.000000 0.000000 
#    y 0.000000 1.800080 0.000000 
#    z 0.000000 0.000000 1.850530 
# 
# From -- ./inp_files/4702.got.cif
#   From: 2010.03.12/outbox.cif.g09.slc.cpg/sg153_3_cif.got.tgz:4702.got - 2010.04.03 13:48:33.
