data_PCOD8322756
_publ_section_title
;
Structure prediction by ZEFSAII (Michael W. Deem and Ramdas Pophale) SiO2 
 PCOD8322756
Probable space group: P 3 C 1
;
_chemical_formula_sum "Si O2"
_cell_formula_units_Z 48
_cell_length_a 14.399458
_cell_length_b 14.399458
_cell_length_c 13.016257
_cell_angle_alpha 90.000000
_cell_angle_beta 90.000000
_cell_angle_gamma 120.000000
_cell_volume 2337.270822
_symmetry_space_group_name_H-M "P 3 C 1"
_symmetry_group_IT_number 158
_symmetry_cell_setting 'hexagonal'
loop_
_space_group_symop_operation_xyz
x,y,z
-y,x-y,z
-x+y,-x,z
-x+y,y,1/2+z
x,x-y,1/2+z
-y,-x,1/2+z
loop_
_atom_site_type_symbol
_atom_site_label
_atom_site_fract_x
_atom_site_fract_y
_atom_site_fract_z
Si Si1 0.416925 0.208206 0.355790
Si Si2 0.542052 0.083591 0.855790
Si Si3 0.217126 0.761244 0.390999
Si Si4 0.894666 0.776281 0.990522
Si Si5 0.370573 0.456168 0.207477
Si Si6 0.962760 0.752262 0.207477
Si Si7 0.109615 0.548282 0.490522
Si Si8 0.116207 0.210784 0.390999
O O1 0.483527 0.150194 0.326664
O O2 0.499054 0.333333 0.373620
O O3 0.348977 0.158188 0.460269
O O4 0.333528 0.188161 0.264882
O O5 0.478700 0.000194 0.764882
O O6 0.524122 0.015643 0.960269
O O7 0.186823 0.703110 0.280130
O O8 0.147920 0.673436 0.478054
O O9 0.342831 0.815922 0.412099
O O10 0.187621 0.854287 0.397037
O O11 0.807818 0.814587 0.978054
O O12 0.990502 0.850745 0.912099
O O13 0.933374 0.795801 0.107264
O O14 0.304191 0.333333 0.172259
O O15 0.399960 0.529094 0.107264
O O16 0.036443 0.853490 0.280130
#
# Coordination Sequence:
#
# PCOD8322756 Si02
#       8
#     6   6   6   6   6   6   6   6
#     4  10  21  37  58  85 117 153 194 240 290 346
#     4  10  21  37  58  85 117 153 194 240 290 346
#     4  10  22  38  56  83 115 145 185 236 285 336
#     4  11  21  38  60  82 113 152 192 234 287 347
#     4   9  20  37  56  82 115 148 187 236 286 341
#     4   9  20  37  56  82 115 148 187 236 286 341
#     4  11  21  38  60  82 113 152 192 234 287 347
#     4  10  22  38  56  83 115 145 185 236 285 336
#
# _framework density 20.536771000000002
#
# number of rings (size 3 to 8) (size 9 to 14) (size 15 to 20)
#    0.000    2.000    0.000    5.250    0.000    6.000 
#    0.000    0.000    0.000    3.000    0.000    0.000 
#    0.000    0.000    0.000    0.000    0.000    0.000 
#
# Total GULP energy -595280.067204 kJ/mol
# GULP energy per Si atom -12401.668067 kJ/mol
# Density = 2.049003 g / cm^3
# Si number density = 20.536771 Si / 1000 Ang^3
#
#
#
# Elastic Constant Matrix: (Units=GPa)
#
#
# Indices 1 2 3 4 5 6 
#
# 1 83.7177 14.4442 19.3218 0.0000 0.0000 0.0000
# 2 14.4442 83.7177 19.3218 0.0000 0.0000 0.0000
# 3 19.3218 19.3218 101.4500 0.0000 0.0000 0.0000
# 4 0.0000 0.0000 0.0000 19.1338 0.0000 0.0000
# 5 0.0000 0.0000 0.0000 0.0000 19.1338 0.0000
# 6 0.0000 0.0000 0.0000 0.0000 0.0000 34.6367
#
#
#
# Elastic Compliance Matrix: (Units=1/GPa)
#
#
# Indices 1 2 3 4 5 6 
#
# 1 0.012724 -0.001711 -0.002097 0.000000 0.000000 0.000000
# 2 -0.001711 0.012724 -0.002097 0.000000 0.000000 0.000000
# 3 -0.002097 -0.002097 0.010656 0.000000 0.000000 0.000000
# 4 0.000000 0.000000 0.000000 0.052264 0.000000 0.000000
# 5 0.000000 0.000000 0.000000 0.000000 0.052264 0.000000
# 6 0.000000 0.000000 0.000000 0.000000 0.000000 0.028871
#
#
# Mechanical properties :
#
#
# Convention : Reuss Voigt Hill
#
# Bulk Modulus (GPa) = 41.16578 41.67344 41.41961
# Shear Modulus (GPa) = 26.39740 28.96736 27.68238
#
# Velocity S-wave (km/s) = 3.58910 3.75975 3.67542
# Velocity P-wave (km/s) = 6.10442 6.25970 6.18255
#
# Compressibility (1/GPa) = 0.02429202
#
# Stress axis : x y z
#
# Youngs Moduli (GPa) = 78.59001 78.59001 93.84355
#
# Poissons Ratio (x) = 0.13449 0.19684
# Poissons Ratio (y) = 0.13449 0.19684
# Poissons Ratio (z) = 0.16484 0.16484
#
# Static dielectric constant tensor:
#      x y z
#    x 3.719950 0.000000 0.000000 
#    y 0.000000 3.719950 0.000000 
#    z 0.000000 0.000000 3.480670 
# 
# 
# High freq. dielectric constant tensor:
#      x y z
#    x 1.808890 0.000000 0.000000 
#    y 0.000000 1.808890 0.000000 
#    z 0.000000 0.000000 1.787600 
# 
# From -- ./inp_files/382.got.cif
#   From: 2010.03.12/outbox.cif.g09.slc.cpg/sg158_cif.got.tgz:382.got - 2010.04.03 13:59:47.
