data_PCOD8322731
_publ_section_title
;
Structure prediction by ZEFSAII (Michael W. Deem and Ramdas Pophale) SiO2 
 PCOD8322731
Probable space group: P 3 1 M
;
_chemical_formula_sum "Si O2"
_cell_formula_units_Z 42
_cell_length_a 22.723449
_cell_length_b 22.723449
_cell_length_c 4.886564
_cell_angle_alpha 90.000000
_cell_angle_beta 90.000000
_cell_angle_gamma 120.000000
_cell_volume 2185.157387
_symmetry_space_group_name_H-M "P 3 1 M"
_symmetry_group_IT_number 157
_symmetry_cell_setting 'hexagonal'
loop_
_space_group_symop_operation_xyz
x,y,z
-y,x-y,z
-x+y,-x,z
y,x,z
x-y,-y,z
-x,-x+y,z
loop_
_atom_site_type_symbol
_atom_site_label
_atom_site_fract_x
_atom_site_fract_y
_atom_site_fract_z
Si Si1 0.512005 0.256003 0.247810
Si Si2 0.819939 0.409969 0.247810
Si Si3 0.613437 0.075346 0.997585
Si Si4 0.925051 0.307818 0.995008
Si Si5 0.382767 0.307818 0.500612
Si Si6 0.208899 0.417798 0.747810
Si Si7 0.386563 0.924654 0.498035
O O1 0.559688 0.333015 0.354462
O O2 0.559688 0.226672 0.141157
O O3 0.466570 0.210775 0.502726
O O4 0.466570 0.255795 0.992895
O O5 0.870054 0.458465 0.010636
O O6 0.870054 0.411590 0.484983
O O7 0.678044 0.093684 0.199069
O O8 0.552637 0.000000 0.075704
O O9 0.634564 0.075451 0.686874
O O10 0.866630 0.235520 0.873325
O O11 0.924549 0.365436 0.808746
O O12 0.000000 0.314445 0.988528
O O13 0.906316 0.321955 0.296551
O O14 0.314445 0.314445 0.507092
O O15 0.368890 0.235520 0.622294
O O16 0.447363 0.000000 0.419916
#
# Coordination Sequence:
#
# PCOD8322731 Si02
#       7
#     6   6   6   6   6   6   6
#     4  12  27  34  58  65 102 132 167 204 261 302
#     4  12  22  42  48  77  94 136 166 212 250 310
#     4  10  21  35  57  77  96 122 163 212 250 293
#     4  10  20  36  57  78  96 126 161 196 249 297
#     4  10  20  36  57  78  96 126 161 196 249 297
#     4  12  20  42  52  78  98 132 151 208 247 294
#     4  10  21  35  57  77  96 122 163 212 250 293
#
# _framework density 19.220583999999999
#
# number of rings (size 3 to 8) (size 9 to 14) (size 15 to 20)
#    0.000    1.143    5.714    0.714    0.000    4.571 
#    0.000    4.286    0.000    0.000    0.000    0.000 
#    0.000    0.000    0.000    0.429    0.000    0.000 
#
# Total GULP energy -520451.063034 kJ/mol
# GULP energy per Si atom -12391.691977 kJ/mol
# Density = 1.917684 g / cm^3
# Si number density = 19.220584 Si / 1000 Ang^3
#
#
#
# Elastic Constant Matrix: (Units=GPa)
#
#
# Indices 1 2 3 4 5 6 
#
# 1 105.3040 37.3922 2.0090 0.0000 -0.0976 0.0000
# 2 37.3922 105.3040 2.0090 0.0000 0.0976 0.0000
# 3 2.0090 2.0090 50.7135 0.0000 0.0000 0.0000
# 4 0.0000 0.0000 0.0000 18.6150 0.0000 0.0976
# 5 -0.0976 0.0976 0.0000 0.0000 18.6150 0.0000
# 6 0.0000 0.0000 0.0000 0.0976 0.0000 33.9559
#
#
#
# Elastic Compliance Matrix: (Units=1/GPa)
#
#
# Indices 1 2 3 4 5 6 
#
# 1 0.010870 -0.003855 -0.000278 0.000000 0.000077 0.000000
# 2 -0.003855 0.010870 -0.000278 0.000000 -0.000077 0.000000
# 3 -0.000278 -0.000278 0.019741 0.000000 0.000000 0.000000
# 4 0.000000 0.000000 0.000000 0.053721 0.000000 -0.000154
# 5 0.000077 -0.000077 0.000000 0.000000 0.053721 0.000000
# 6 0.000000 0.000000 0.000000 -0.000154 0.000000 0.029450
#
#
# Mechanical properties :
#
#
# Convention : Reuss Voigt Hill
#
# Bulk Modulus (GPa) = 30.61815 38.23800 34.42808
# Shear Modulus (GPa) = 25.24209 28.89792 27.07001
#
# Velocity S-wave (km/s) = 3.62786 3.88169 3.75692
# Velocity P-wave (km/s) = 5.78903 6.32673 6.06385
#
# Compressibility (1/GPa) = 0.03266037
#
# Stress axis : x y z
#
# Youngs Moduli (GPa) = 91.99239 91.99239 50.65693
#
# Poissons Ratio (x) = 0.35461 0.01408
# Poissons Ratio (y) = 0.35461 0.01408
# Poissons Ratio (z) = 0.02557 0.02557
#
# Static dielectric constant tensor:
#      x y z
#    x 3.544540 0.000000 0.000000 
#    y 0.000000 3.544540 0.000000 
#    z 0.000000 0.000000 3.549320 
# 
# 
# High freq. dielectric constant tensor:
#      x y z
#    x 1.718710 0.000000 0.000000 
#    y 0.000000 1.718710 0.000000 
#    z 0.000000 0.000000 1.764040 
# 
# From -- ./inp_files/231.got.cif
#   From: 2010.03.12/outbox.cif.g09.slc.cpg/sg157_cif.got.tgz:231.got - 2010.04.03 13:59:21.
