data_PCOD8322433
_publ_section_title
;
Structure prediction by ZEFSAII (Michael W. Deem and Ramdas Pophale) SiO2 
 PCOD8322433
Probable space group: P 32 2 1
;
_chemical_formula_sum "Si O2"
_cell_formula_units_Z 36
_cell_length_a 11.299709
_cell_length_b 11.299709
_cell_length_c 14.556748
_cell_angle_alpha 90.000000
_cell_angle_beta 90.000000
_cell_angle_gamma 120.000000
_cell_volume 1609.642810
_symmetry_space_group_name_H-M "P 32 2 1"
_symmetry_group_IT_number 154
_symmetry_cell_setting 'hexagonal'
loop_
_space_group_symop_operation_xyz
x,y,z
-y,x-y,2/3+z
-x+y,-x,1/3+z
x-y,-y,1/3-z
-x,-x+y,2/3-z
y,x,-z
loop_
_atom_site_type_symbol
_atom_site_label
_atom_site_fract_x
_atom_site_fract_y
_atom_site_fract_z
Si Si1 0.259625 0.259625 0.500000
Si Si2 0.360171 0.429850 0.685652
Si Si3 0.421113 0.726792 0.702941
Si Si4 0.814882 0.785049 0.101388
Si Si5 0.496559 0.280159 0.769543
Si Si6 0.904953 0.759044 0.518736
Si Si7 0.000000 0.698621 0.333334
O O1 0.330383 0.352553 0.588629
O O2 0.110093 0.245802 0.492293
O O3 0.425345 0.591479 0.671095
O O4 0.457952 0.396097 0.747304
O O5 0.224811 0.373812 0.749623
O O6 0.298302 0.734374 0.655729
O O7 0.397249 0.726275 0.812492
O O8 0.555104 0.862850 0.673038
O O9 0.771010 0.633235 0.138669
O O10 0.980139 0.873126 0.093852
O O11 0.755679 0.755679 0.000000
O O12 0.772201 0.772201 0.500000
O O13 0.982208 0.766075 0.424483
#
# Coordination Sequence:
#
# PCOD8322433 Si02
#       7
#     3   6   6   6   6   6   3
#     4  12  24  42  76 108 156 198 254 320 390 448
#     4  11  27  49  68 115 145 195 256 310 391 448
#     4  12  28  50  76 103 152 196 255 309 372 459
#     4  11  22  42  72 108 147 197 250 312 373 451
#     4  11  27  48  75 109 146 203 255 309 387 457
#     4  11  24  42  71 113 146 184 253 308 383 446
#     4  12  26  48  72 104 142 200 248 306 372 446
#
# _framework density 22.365209
#
# number of rings (size 3 to 8) (size 9 to 14) (size 15 to 20)
#    0.000    0.667    7.500    1.000    7.000    2.667 
#    1.500    0.000    0.000    0.000    0.000    0.000 
#    0.000    0.000    0.000    0.000    0.000    0.000 
#
# Total GULP energy -446294.301688 kJ/mol
# GULP energy per Si atom -12397.063936 kJ/mol
# Density = 2.231431 g / cm^3
# Si number density = 22.365209 Si / 1000 Ang^3
#
#
#
# Elastic Constant Matrix: (Units=GPa)
#
#
# Indices 1 2 3 4 5 6 
#
# 1 124.5206 59.7319 36.3756 -2.0246 0.0001 0.0000
# 2 59.7319 124.5206 36.3756 2.0246 -0.0001 0.0000
# 3 36.3756 36.3756 118.5919 0.0000 0.0000 0.0000
# 4 -2.0246 2.0246 0.0000 38.7736 0.0000 -0.0001
# 5 0.0001 -0.0001 0.0000 0.0000 38.7736 -2.0246
# 6 0.0000 0.0000 0.0000 -0.0001 -2.0246 32.3943
#
#
#
# Elastic Compliance Matrix: (Units=1/GPa)
#
#
# Indices 1 2 3 4 5 6 
#
# 1 0.010830 -0.004655 -0.001894 0.000809 0.000000 0.000000
# 2 -0.004655 0.010830 -0.001894 -0.000809 0.000000 0.000000
# 3 -0.001894 -0.001894 0.009594 0.000000 0.000000 0.000000
# 4 0.000809 -0.000809 0.000000 0.025875 0.000000 0.000000
# 5 0.000000 0.000000 0.000000 0.000000 0.025875 0.001617
# 6 0.000000 0.000000 0.000000 0.000000 0.001617 0.030971
#
#
# Mechanical properties :
#
#
# Convention : Reuss Voigt Hill
#
# Bulk Modulus (GPa) = 69.59813 70.28881 69.94347
# Shear Modulus (GPa) = 36.85905 37.66495 37.26200
#
# Velocity S-wave (km/s) = 4.06403 4.10821 4.08618
# Velocity P-wave (km/s) = 7.29440 7.34842 7.32146
#
# Compressibility (1/GPa) = 0.01436820
#
# Stress axis : x y z
#
# Youngs Moduli (GPa) = 92.33372 92.33372 104.22916
#
# Poissons Ratio (x) = 0.42982 0.19742
# Poissons Ratio (y) = 0.42982 0.19742
# Poissons Ratio (z) = 0.17489 0.17489
#
# Static dielectric constant tensor:
#      x y z
#    x 4.022120 0.000000 0.000000 
#    y 0.000000 4.022120 0.000000 
#    z 0.000000 0.000000 4.388490 
# 
# 
# High freq. dielectric constant tensor:
#      x y z
#    x 1.874390 0.000000 0.000000 
#    y 0.000000 1.874390 0.000000 
#    z 0.000000 0.000000 1.896190 
# 
# From -- ./inp_files/2007.got.cif
#   From: 2010.03.12/outbox.cif.g09.slc.cpg/sg154_2_cif.got.tgz:2007.got - 2010.04.03 13:51:21.
