data_PCOD8322016
_publ_section_title
;
Structure prediction by ZEFSAII (Michael W. Deem and Ramdas Pophale) SiO2 
 PCOD8322016
Probable space group: P 31 2 1
;
_chemical_formula_sum "Si O2"
_cell_formula_units_Z 30
_cell_length_a 12.636719
_cell_length_b 12.636719
_cell_length_c 12.636285
_cell_angle_alpha 90.000000
_cell_angle_beta 90.000000
_cell_angle_gamma 120.000000
_cell_volume 1747.506101
_symmetry_space_group_name_H-M "P 31 2 1"
_symmetry_group_IT_number 152
_symmetry_cell_setting 'hexagonal'
loop_
_space_group_symop_operation_xyz
x,y,z
-y,x-y,1/3+z
-x+y,-x,2/3+z
x-y,-y,2/3-z
-x,-x+y,1/3-z
y,x,-z
loop_
_atom_site_type_symbol
_atom_site_label
_atom_site_fract_x
_atom_site_fract_y
_atom_site_fract_z
Si Si1 0.741744 0.052231 0.450562
Si Si2 0.896856 0.902695 0.243317
Si Si3 0.707516 0.509474 0.688533
Si Si4 0.520052 0.814535 0.530599
Si Si5 0.042559 0.308664 0.279806
O O1 0.872577 0.071732 0.489548
O O2 0.750798 0.184317 0.443299
O O3 0.726460 0.000000 0.333334
O O4 0.629914 0.956596 0.523393
O O5 0.831115 0.770537 0.297839
O O6 0.962095 0.000000 0.333334
O O7 0.000000 0.907452 0.166667
O O8 0.592909 0.394300 0.737954
O O9 0.757982 0.473142 0.585601
O O10 0.661301 0.601685 0.653345
O O11 0.567122 0.736754 0.596213
O O12 0.000000 0.236666 0.166667
#
# Coordination Sequence:
#
# PCOD8322016 Si02
#       5
#     6   6   6   6   6
#     4   8  16  30  48  70  94 125 163 197 238 296
#     4  10  16  26  48  74  97 124 158 198 241 288
#     4   9  19  32  52  75  97 130 170 206 245 296
#     4  10  18  33  53  73  98 130 168 208 249 294
#     4   9  18  33  50  72  98 129 167 201 240 300
#
# _framework density 17.167324000000001
#
# number of rings (size 3 to 8) (size 9 to 14) (size 15 to 20)
#    0.000    2.800    0.000    5.400    0.000    1.600 
#    0.000    3.000    0.000   33.600    0.000    0.000 
#    0.000    0.000    0.000    0.000    0.000    0.000 
#
# Total GULP energy -371814.134557 kJ/mol
# GULP energy per Si atom -12393.804485 kJ/mol
# Density = 1.712825 g / cm^3
# Si number density = 17.167324 Si / 1000 Ang^3
#
#
#
# Elastic Constant Matrix: (Units=GPa)
#
#
# Indices 1 2 3 4 5 6 
#
# 1 101.5097 54.7703 51.3448 -2.4445 0.0002 0.0000
# 2 54.7703 101.5097 51.3448 2.4445 -0.0002 0.0000
# 3 51.3448 51.3448 66.0571 0.0000 0.0000 0.0000
# 4 -2.4445 2.4445 0.0000 25.9054 0.0000 -0.0002
# 5 0.0002 -0.0002 0.0000 0.0000 25.9054 -2.4445
# 6 0.0000 0.0000 0.0000 -0.0002 -2.4445 23.3697
#
#
#
# Elastic Compliance Matrix: (Units=1/GPa)
#
#
# Indices 1 2 3 4 5 6 
#
# 1 0.017344 -0.004265 -0.010166 0.002039 0.000000 0.000000
# 2 -0.004265 0.017344 -0.010166 -0.002039 0.000000 0.000000
# 3 -0.010166 -0.010166 0.030941 0.000000 0.000000 0.000000
# 4 0.002039 -0.002039 0.000000 0.038987 0.000000 0.000000
# 5 0.000000 0.000000 0.000000 0.000000 0.038987 0.004078
# 6 0.000000 0.000000 0.000000 0.000000 0.004078 0.043217
#
#
# Mechanical properties :
#
#
# Convention : Reuss Voigt Hill
#
# Bulk Modulus (GPa) = 60.84236 64.88849 62.86542
# Shear Modulus (GPa) = 20.70477 22.47720 21.59098
#
# Velocity S-wave (km/s) = 3.47660 3.62235 3.55022
# Velocity P-wave (km/s) = 7.18564 7.44144 7.31466
#
# Compressibility (1/GPa) = 0.01643592
#
# Stress axis : x y z
#
# Youngs Moduli (GPa) = 57.65849 57.65849 32.31911
#
# Poissons Ratio (x) = 0.24592 0.32854
# Poissons Ratio (y) = 0.24592 0.32854
# Poissons Ratio (z) = 0.58613 0.58613
#
# Static dielectric constant tensor:
#      x y z
#    x 3.245910 0.000000 0.000000 
#    y 0.000000 3.245910 0.000000 
#    z 0.000000 0.000000 2.856740 
# 
# 
# High freq. dielectric constant tensor:
#      x y z
#    x 1.653770 0.000000 0.000000 
#    y 0.000000 1.653770 0.000000 
#    z 0.000000 0.000000 1.637670 
# 
# From -- ./inp_files/1956.got.cif
#   From: 2010.03.12/outbox.cif.g09.slc.cpg/sg152_1_cif.got.tgz:1956.got - 2010.04.03 13:45:27.
