data_PCOD8322084
_publ_section_title
;
Structure prediction by ZEFSAII (Michael W. Deem and Ramdas Pophale) SiO2 
 PCOD8322084
Probable space group: P 31 2 1
;
_chemical_formula_sum "Si O2"
_cell_formula_units_Z 33
_cell_length_a 19.449679
_cell_length_b 19.449679
_cell_length_c 5.406442
_cell_angle_alpha 90.000000
_cell_angle_beta 90.000000
_cell_angle_gamma 120.000000
_cell_volume 1771.197767
_symmetry_space_group_name_H-M "P 31 2 1"
_symmetry_group_IT_number 152
_symmetry_cell_setting 'hexagonal'
loop_
_space_group_symop_operation_xyz
x,y,z
-y,x-y,1/3+z
-x+y,-x,2/3+z
x-y,-y,2/3-z
-x,-x+y,1/3-z
y,x,-z
loop_
_atom_site_type_symbol
_atom_site_label
_atom_site_fract_x
_atom_site_fract_y
_atom_site_fract_z
Si Si1 0.537763 0.000000 0.833334
Si Si2 0.593024 0.265747 0.832264
Si Si3 0.566133 0.436508 0.152944
Si Si4 0.590480 0.766747 0.490336
Si Si5 0.670315 0.080816 0.209870
Si Si6 0.691036 0.597816 0.993434
O O1 0.513795 0.052573 0.663619
O O2 0.557013 0.937670 0.703240
O O3 0.644442 0.268634 0.069618
O O4 0.603904 0.214344 0.619161
O O5 0.502307 0.227713 0.901482
O O6 0.624229 0.504363 0.959116
O O7 0.487144 0.362550 0.050773
O O8 0.624995 0.861516 0.509739
O O9 0.608975 0.738003 0.748344
O O10 0.626836 0.748213 0.247496
O O11 0.658330 0.000000 0.333334
O O12 0.653593 0.653593 0.000000
#
# Coordination Sequence:
#
# PCOD8322084 Si02
#       6
#     3   6   6   6   6   6
#     4  10  20  36  56  78 108 150 198 238 288 350
#     4  11  24  34  52  73 115 146 198 253 307 334
#     4  10  23  33  57  75 107 151 196 247 290 346
#     4  11  26  38  61  84 110 151 195 240 293 350
#     4  10  22  37  58  80 116 144 196 234 298 344
#     4  11  25  42  60  81 110 149 196 241 287 347
#
# _framework density 18.631460000000001
#
# number of rings (size 3 to 8) (size 9 to 14) (size 15 to 20)
#    0.000    1.455    0.000    4.364   28.000    0.000 
#    0.000    0.000    0.000    0.000    0.000    0.000 
#    0.000    0.000    0.000    8.182    0.727    0.000 
#
# Total GULP energy -409163.663336 kJ/mol
# GULP energy per Si atom -12398.898889 kJ/mol
# Density = 1.858905 g / cm^3
# Si number density = 18.631460 Si / 1000 Ang^3
#
#
#
# Elastic Constant Matrix: (Units=GPa)
#
#
# Indices 1 2 3 4 5 6 
#
# 1 74.6925 29.9124 17.3936 -2.4966 -0.0001 0.0000
# 2 29.9124 74.6925 17.3936 2.4966 0.0001 0.0000
# 3 17.3936 17.3936 76.7194 0.0000 0.0000 0.0000
# 4 -2.4966 2.4966 0.0000 13.2901 0.0000 0.0001
# 5 -0.0001 0.0001 0.0000 0.0000 13.2901 -2.4966
# 6 0.0000 0.0000 0.0000 0.0001 -2.4966 22.3901
#
#
#
# Elastic Compliance Matrix: (Units=1/GPa)
#
#
# Indices 1 2 3 4 5 6 
#
# 1 0.016574 -0.006235 -0.002344 0.004285 0.000000 0.000000
# 2 -0.006235 0.016574 -0.002344 -0.004285 0.000000 0.000000
# 3 -0.002344 -0.002344 0.014097 0.000000 0.000000 0.000000
# 4 0.004285 -0.004285 0.000000 0.076854 0.000000 0.000000
# 5 0.000000 0.000000 0.000000 0.000000 0.076854 0.008570
# 6 0.000000 0.000000 0.000000 0.000000 0.008570 0.045618
#
#
# Mechanical properties :
#
#
# Convention : Reuss Voigt Hill
#
# Bulk Modulus (GPa) = 39.37057 39.50037 39.43547
# Shear Modulus (GPa) = 18.05807 20.55438 19.30622
#
# Velocity S-wave (km/s) = 3.11661 3.32506 3.22252
# Velocity P-wave (km/s) = 5.84193 5.99902 5.92100
#
# Compressibility (1/GPa) = 0.02539968
#
# Stress axis : x y z
#
# Youngs Moduli (GPa) = 60.33467 60.33467 70.93504
#
# Poissons Ratio (x) = 0.37618 0.16628
# Poissons Ratio (y) = 0.37618 0.16628
# Poissons Ratio (z) = 0.14143 0.14143
#
# Static dielectric constant tensor:
#      x y z
#    x 3.375770 0.000000 0.000000 
#    y 0.000000 3.375770 0.000000 
#    z 0.000000 0.000000 3.767380 
# 
# 
# High freq. dielectric constant tensor:
#      x y z
#    x 1.695460 0.000000 0.000000 
#    y 0.000000 1.695460 0.000000 
#    z 0.000000 0.000000 1.740890 
# 
# From -- ./inp_files/444.got.cif
#   From: 2010.03.12/outbox.cif.g09.slc.cpg/sg152_1_cif.got.tgz:444.got - 2010.04.03 13:45:27.
