data_PCOD8322230
_publ_section_title
;
Structure prediction by ZEFSAII (Michael W. Deem and Ramdas Pophale) SiO2 
 PCOD8322230
Probable space group: P 31 2 1
;
_chemical_formula_sum "Si O2"
_cell_formula_units_Z 12
_cell_length_a 7.255003
_cell_length_b 7.255003
_cell_length_c 9.424944
_cell_angle_alpha 90.000000
_cell_angle_beta 90.000000
_cell_angle_gamma 120.000000
_cell_volume 429.620111
_symmetry_space_group_name_H-M "P 31 2 1"
_symmetry_group_IT_number 152
_symmetry_cell_setting 'hexagonal'
loop_
_space_group_symop_operation_xyz
x,y,z
-y,x-y,1/3+z
-x+y,-x,2/3+z
x-y,-y,2/3-z
-x,-x+y,1/3-z
y,x,-z
loop_
_atom_site_type_symbol
_atom_site_label
_atom_site_fract_x
_atom_site_fract_y
_atom_site_fract_z
Si Si1 0.201510 0.812681 0.582565
Si Si2 0.709523 0.069457 0.988207
O O1 0.138921 0.788007 0.416547
O O2 0.000000 0.627937 0.666667
O O3 0.250368 0.038021 0.645211
O O4 0.407870 0.787888 0.605852
O O5 0.608444 0.000000 0.833334
#
# Coordination Sequence:
#
# PCOD8322230 Si02
#       2
#     6   6
#     4  12  29  53  82 127 169 224 287 355 430 509
#     4  12  28  53  85 123 170 224 286 355 430 509
#
# _framework density 27.931656
#
# number of rings (size 3 to 8) (size 9 to 14) (size 15 to 20)
#    0.000    0.000    0.000    9.000   14.000    0.000 
#    0.000    0.000    0.000    0.000    0.000    0.000 
#    0.000    0.000    0.000    0.000    0.000    0.000 
#
# Total GULP energy -148876.102930 kJ/mol
# GULP energy per Si atom -12406.341911 kJ/mol
# Density = 2.786808 g / cm^3
# Si number density = 27.931656 Si / 1000 Ang^3
#
#
#
# Elastic Constant Matrix: (Units=GPa)
#
#
# Indices 1 2 3 4 5 6 
#
# 1 137.6987 38.3516 52.6664 -9.1583 0.0002 0.0000
# 2 38.3516 137.6987 52.6664 9.1583 -0.0002 0.0000
# 3 52.6664 52.6664 207.3191 0.0000 0.0000 0.0000
# 4 -9.1583 9.1583 0.0000 41.4459 0.0000 -0.0002
# 5 0.0002 -0.0002 0.0000 0.0000 41.4459 -9.1583
# 6 0.0000 0.0000 0.0000 -0.0002 -9.1583 49.6736
#
#
#
# Elastic Compliance Matrix: (Units=1/GPa)
#
#
# Indices 1 2 3 4 5 6 
#
# 1 0.008596 -0.001897 -0.001702 0.002319 0.000000 0.000000
# 2 -0.001897 0.008596 -0.001702 -0.002319 0.000000 0.000000
# 3 -0.001702 -0.001702 0.005688 0.000000 0.000000 0.000000
# 4 0.002319 -0.002319 0.000000 0.025153 0.000000 0.000000
# 5 0.000000 0.000000 0.000000 0.000000 0.025153 0.004637
# 6 0.000000 0.000000 0.000000 0.000000 0.004637 0.020986
#
#
# Mechanical properties :
#
#
# Convention : Reuss Voigt Hill
#
# Bulk Modulus (GPa) = 81.44531 85.56502 83.50516
# Shear Modulus (GPa) = 45.92841 49.11523 47.52182
#
# Velocity S-wave (km/s) = 4.05941 4.19789 4.12923
# Velocity P-wave (km/s) = 7.15499 7.36183 7.25915
#
# Compressibility (1/GPa) = 0.01227818
#
# Stress axis : x y z
#
# Youngs Moduli (GPa) = 116.33659 116.33659 175.80828
#
# Poissons Ratio (x) = 0.22074 0.29916
# Poissons Ratio (y) = 0.22074 0.29916
# Poissons Ratio (z) = 0.19796 0.19796
#
# Static dielectric constant tensor:
#      x y z
#    x 5.196510 0.000000 0.000000 
#    y 0.000000 5.196510 0.000000 
#    z 0.000000 0.000000 5.508280 
# 
# 
# High freq. dielectric constant tensor:
#      x y z
#    x 2.132220 0.000000 0.000000 
#    y 0.000000 2.132220 0.000000 
#    z 0.000000 0.000000 2.147280 
# 
# From -- ./inp_files/620.got.cif
#   From: 2010.03.12/outbox.cif.g09.slc.cpg/sg152_1_cif.got.tgz:620.got - 2010.04.03 13:45:27.
