data_PCOD8322418
_publ_section_title
;
Structure prediction by ZEFSAII (Michael W. Deem and Ramdas Pophale) SiO2 
 PCOD8322418
Probable space group: P 32 2 1
;
_chemical_formula_sum "Si O2"
_cell_formula_units_Z 21
_cell_length_a 13.760417
_cell_length_b 13.760417
_cell_length_c 6.302453
_cell_angle_alpha 90.000000
_cell_angle_beta 90.000000
_cell_angle_gamma 120.000000
_cell_volume 1033.483239
_symmetry_space_group_name_H-M "P 32 2 1"
_symmetry_group_IT_number 154
_symmetry_cell_setting 'hexagonal'
loop_
_space_group_symop_operation_xyz
x,y,z
-y,x-y,2/3+z
-x+y,-x,1/3+z
x-y,-y,1/3-z
-x,-x+y,2/3-z
y,x,-z
loop_
_atom_site_type_symbol
_atom_site_label
_atom_site_fract_x
_atom_site_fract_y
_atom_site_fract_z
Si Si1 0.874549 0.200366 0.400974
Si Si2 0.271691 0.271691 0.000000
Si Si3 0.476586 0.120107 0.076813
Si Si4 0.284280 0.435767 0.657227
O O1 0.866569 0.303234 0.508927
O O2 0.000000 0.239275 0.333334
O O3 0.843668 0.101281 0.572688
O O4 0.788442 0.150543 0.207133
O O5 0.362583 0.314337 0.187191
O O6 0.487611 0.217702 0.227993
O O7 0.383210 0.000000 0.166667
O O8 0.597319 0.132384 0.084065
#
# Coordination Sequence:
#
# PCOD8322418 Si02
#       4
#     6   3   6   6
#     4  11  23  43  71  93 134 173 218 273 331 392
#     4  10  24  42  68  94 130 172 220 272 332 392
#     4  11  24  41  66 101 135 174 220 268 335 396
#     4  11  25  42  67  99 133 178 218 273 330 396
#
# _framework density 20.319631999999999
#
# number of rings (size 3 to 8) (size 9 to 14) (size 15 to 20)
#    0.000    1.143    2.857    2.571    6.000    2.286 
#    0.000    0.000   15.714    0.000    0.000    0.000 
#    0.000    0.000    0.000    0.000    0.000    0.000 
#
# Total GULP energy -260455.449884 kJ/mol
# GULP energy per Si atom -12402.640471 kJ/mol
# Density = 2.027338 g / cm^3
# Si number density = 20.319632 Si / 1000 Ang^3
#
#
#
# Elastic Constant Matrix: (Units=GPa)
#
#
# Indices 1 2 3 4 5 6 
#
# 1 106.0771 54.0826 47.6157 -4.3082 -0.0001 0.0000
# 2 54.0826 106.0771 47.6157 4.3082 0.0001 0.0000
# 3 47.6157 47.6157 115.5068 0.0000 0.0000 0.0000
# 4 -4.3082 4.3082 0.0000 34.6315 0.0000 0.0001
# 5 -0.0001 0.0001 0.0000 0.0000 34.6315 -4.3082
# 6 0.0000 0.0000 0.0000 0.0001 -4.3082 25.9973
#
#
#
# Elastic Compliance Matrix: (Units=1/GPa)
#
#
# Indices 1 2 3 4 5 6 
#
# 1 0.013954 -0.005683 -0.003410 0.002443 0.000000 0.000000
# 2 -0.005683 0.013954 -0.003410 -0.002443 0.000000 0.000000
# 3 -0.003410 -0.003410 0.011469 0.000000 0.000000 0.000000
# 4 0.002443 -0.002443 0.000000 0.029483 0.000000 0.000000
# 5 0.000000 0.000000 0.000000 0.000000 0.029483 0.004886
# 6 0.000000 0.000000 0.000000 0.000000 0.004886 0.039275
#
#
# Mechanical properties :
#
#
# Convention : Reuss Voigt Hill
#
# Bulk Modulus (GPa) = 69.57795 69.58767 69.58281
# Shear Modulus (GPa) = 29.86588 30.94184 30.40386
#
# Velocity S-wave (km/s) = 3.83796 3.90648 3.87237
# Velocity P-wave (km/s) = 7.34548 7.39381 7.36968
#
# Compressibility (1/GPa) = 0.01437237
#
# Stress axis : x y z
#
# Youngs Moduli (GPa) = 71.66203 71.66203 87.19433
#
# Poissons Ratio (x) = 0.40727 0.29730
# Poissons Ratio (y) = 0.40727 0.29730
# Poissons Ratio (z) = 0.24434 0.24434
#
# Static dielectric constant tensor:
#      x y z
#    x 3.714950 0.000000 0.000000 
#    y 0.000000 3.714950 0.000000 
#    z 0.000000 0.000000 3.947600 
# 
# 
# High freq. dielectric constant tensor:
#      x y z
#    x 1.796690 0.000000 0.000000 
#    y 0.000000 1.796690 0.000000 
#    z 0.000000 0.000000 1.810900 
# 
# From -- ./inp_files/158.got.cif
#   From: 2010.03.12/outbox.cif.g09.slc.cpg/sg154_1_cif.got.tgz:158.got - 2010.04.03 13:51:21.
