data_PCOD8322631
_publ_section_title
;
Structure prediction by ZEFSAII (Michael W. Deem and Ramdas Pophale) SiO2 
 PCOD8322631
Probable space group: R 3 2
;
_chemical_formula_sum "Si O2"
_cell_formula_units_Z 72
_cell_length_a 14.341955
_cell_length_b 14.341955
_cell_length_c 16.621386
_cell_angle_alpha 90.000000
_cell_angle_beta 90.000000
_cell_angle_gamma 120.000000
_cell_volume 2960.837537
_symmetry_space_group_name_H-M "R 3 2"
_symmetry_group_IT_number 155
_symmetry_cell_setting 'hexagonal'
loop_
_space_group_symop_operation_xyz
x,y,z
-y,x-y,z
-x+y,-x,z
x-y,-y,-z
-x,-x+y,-z
y,x,-z
2/3+x,1/3+y,1/3+z
2/3-y,1/3+x-y,1/3+z
2/3-x+y,1/3-x,1/3+z
2/3+x-y,1/3-y,1/3-z
2/3-x,1/3-x+y,1/3-z
2/3+y,1/3+x,1/3-z
1/3+x,2/3+y,2/3+z
1/3-y,2/3+x-y,2/3+z
1/3-x+y,2/3-x,2/3+z
1/3+x-y,2/3-y,2/3-z
1/3-x,2/3-x+y,2/3-z
1/3+y,2/3+x,2/3-z
loop_
_atom_site_type_symbol
_atom_site_label
_atom_site_fract_x
_atom_site_fract_y
_atom_site_fract_z
Si Si1 0.547798 0.787720 0.838800
Si Si2 0.547569 0.466565 0.928792
Si Si3 0.115868 0.223757 0.642827
Si Si4 0.190964 0.417391 0.548166
O O1 0.666667 0.889757 0.833334
O O2 0.468478 0.821778 0.797527
O O3 0.545314 0.688429 0.791690
O O4 0.517450 0.757412 0.931916
O O5 0.671463 0.496439 0.926697
O O6 0.472272 0.339632 0.939126
O O7 0.514019 0.500837 0.847700
O O8 0.532601 0.532601 0.000000
O O9 0.169065 0.354676 0.633780
#
# Coordination Sequence:
#
# PCOD8322631 Si02
#       4
#    18  18  18  18
#     4  12  25  44  68  99 140 184 232 283 347 416
#     4  12  23  44  72 105 135 182 231 286 364 408
#     4  12  25  44  73 102 142 179 230 296 347 420
#     4  12  27  44  72 102 140 186 238 286 352 419
#
# _framework density 24.317444999999999
#
# number of rings (size 3 to 8) (size 9 to 14) (size 15 to 20)
#    0.000    0.000    5.000    5.500    0.000    0.000 
#    0.000    2.500    0.000    3.000    0.000    0.000 
#    0.000    0.000    0.000    0.000    0.000    0.000 
#
# Total GULP energy -297742.026022 kJ/mol
# GULP energy per Si atom -12405.917751 kJ/mol
# Density = 2.426210 g / cm^3
# Si number density = 24.317445 Si / 1000 Ang^3
#
#
#
# Elastic Constant Matrix: (Units=GPa)
#
#
# Indices 1 2 3 4 5 6 
#
# 1 117.8780 15.0342 14.5182 -5.7699 -0.0001 0.0000
# 2 15.0342 117.8780 14.5182 5.7699 0.0001 0.0000
# 3 14.5182 14.5182 21.5523 0.0000 0.0000 0.0000
# 4 -5.7699 5.7699 0.0000 25.5140 0.0000 0.0001
# 5 -0.0001 0.0001 0.0000 0.0000 25.5140 -5.7699
# 6 0.0000 0.0000 0.0000 0.0001 -5.7699 51.4219
#
#
#
# Elastic Compliance Matrix: (Units=1/GPa)
#
#
# Indices 1 2 3 4 5 6 
#
# 1 0.009399 -0.000577 -0.005943 0.002256 0.000000 0.000000
# 2 -0.000577 0.009399 -0.005943 -0.002256 0.000000 0.000000
# 3 -0.005943 -0.005943 0.054405 0.000000 0.000000 0.000000
# 4 0.002256 -0.002256 0.000000 0.040215 0.000000 0.000000
# 5 0.000000 0.000000 0.000000 0.000000 0.040215 0.004512
# 6 0.000000 0.000000 0.000000 0.000000 0.004512 0.019953
#
#
# Mechanical properties :
#
#
# Convention : Reuss Voigt Hill
#
# Bulk Modulus (GPa) = 20.71325 38.38327 29.54826
# Shear Modulus (GPa) = 23.29865 34.70584 29.00224
#
# Velocity S-wave (km/s) = 3.09868 3.78193 3.45723
# Velocity P-wave (km/s) = 4.61939 5.90670 5.30226
#
# Compressibility (1/GPa) = 0.04827827
#
# Stress axis : x y z
#
# Youngs Moduli (GPa) = 106.39047 106.39047 18.38059
#
# Poissons Ratio (x) = 0.06142 0.10923
# Poissons Ratio (y) = 0.06142 0.10923
# Poissons Ratio (z) = 0.63225 0.63225
#
# Static dielectric constant tensor:
#      x y z
#    x 4.391210 0.000000 0.000000 
#    y 0.000000 4.391210 0.000000 
#    z 0.000000 0.000000 4.598860 
# 
# 
# High freq. dielectric constant tensor:
#      x y z
#    x 1.975630 0.000000 0.000000 
#    y 0.000000 1.975630 0.000000 
#    z 0.000000 0.000000 1.962050 
# 
# From -- ./inp_files/5862.got.cif
#   From: 2010.03.12/outbox.cif.g09.slc.cpg/sg155_3_cif.got.tgz:5862.got - 2010.04.03 13:54:13.
