data_PCOD8322177
_publ_section_title
;
Structure prediction by ZEFSAII (Michael W. Deem and Ramdas Pophale) SiO2 
 PCOD8322177
Probable space group: P 31 2 1
;
_chemical_formula_sum "Si O2"
_cell_formula_units_Z 42
_cell_length_a 9.417032
_cell_length_b 9.417032
_cell_length_c 27.501852
_cell_angle_alpha 90.000000
_cell_angle_beta 90.000000
_cell_angle_gamma 120.000000
_cell_volume 2112.130095
_symmetry_space_group_name_H-M "P 31 2 1"
_symmetry_group_IT_number 152
_symmetry_cell_setting 'hexagonal'
loop_
_space_group_symop_operation_xyz
x,y,z
-y,x-y,1/3+z
-x+y,-x,2/3+z
x-y,-y,2/3-z
-x,-x+y,1/3-z
y,x,-z
loop_
_atom_site_type_symbol
_atom_site_label
_atom_site_fract_x
_atom_site_fract_y
_atom_site_fract_z
Si Si1 0.796905 0.755626 0.556104
Si Si2 0.969961 0.923128 0.054687
Si Si3 0.082872 0.597872 0.794573
Si Si4 0.193952 0.580111 0.475512
Si Si5 0.417524 0.151909 0.429812
Si Si6 0.587798 0.776693 0.711686
Si Si7 0.486275 0.554600 0.617876
O O1 0.802377 0.802377 0.500000
O O2 0.609316 0.652101 0.573791
O O3 0.878685 0.643949 0.563619
O O4 0.900196 0.913948 0.589039
O O5 0.840966 0.775004 0.087655
O O6 0.139658 0.921266 0.054851
O O7 0.902318 0.902318 0.000000
O O8 0.964966 0.559263 0.841947
O O9 0.985307 0.455998 0.754018
O O10 0.243979 0.598057 0.812424
O O11 0.211625 0.457067 0.513651
O O12 0.163822 0.507729 0.422133
O O13 0.521782 0.306073 0.394959
O O14 0.547713 0.665302 0.664935
O O15 0.525281 0.906181 0.705393
#
# Coordination Sequence:
#
# PCOD8322177 Si02
#       7
#     6   6   6   6   6   6   6
#     4  12  26  42  72 101 135 176 234 280 336 404
#     4  11  25  45  64 104 138 175 224 285 343 404
#     4  10  24  44  69 101 130 177 228 286 322 408
#     4  10  23  44  70  99 134 176 234 273 338 401
#     4   9  25  44  70  94 135 178 224 274 339 396
#     4  11  25  43  70  96 143 176 223 279 351 399
#     4  11  24  46  65 103 131 186 216 286 339 408
#
# _framework density 19.88514
#
# number of rings (size 3 to 8) (size 9 to 14) (size 15 to 20)
#    0.857    0.571    2.857    0.857    6.000    6.857 
#    0.000    0.000    0.000    0.000    0.000    0.000 
#    0.000    0.000    0.000    0.000    0.000    0.000 
#
# Total GULP energy -520713.473685 kJ/mol
# GULP energy per Si atom -12397.939850 kJ/mol
# Density = 1.983988 g / cm^3
# Si number density = 19.885140 Si / 1000 Ang^3
#
#
#
# Elastic Constant Matrix: (Units=GPa)
#
#
# Indices 1 2 3 4 5 6 
#
# 1 96.8180 54.7436 25.5010 -6.5560 0.0000 0.0000
# 2 54.7436 96.8180 25.5010 6.5560 0.0000 0.0000
# 3 25.5010 25.5010 84.4111 0.0000 0.0000 0.0000
# 4 -6.5560 6.5560 0.0000 30.5490 0.0000 0.0000
# 5 0.0000 0.0000 0.0000 0.0000 30.5490 -6.5560
# 6 0.0000 0.0000 0.0000 0.0000 -6.5560 21.0372
#
#
#
# Elastic Compliance Matrix: (Units=1/GPa)
#
#
# Indices 1 2 3 4 5 6 
#
# 1 0.016408 -0.009063 -0.002219 0.005466 0.000000 0.000000
# 2 -0.009063 0.016408 -0.002219 -0.005466 0.000000 0.000000
# 3 -0.002219 -0.002219 0.013187 0.000000 0.000000 0.000000
# 4 0.005466 -0.005466 0.000000 0.035080 0.000000 0.000000
# 5 0.000000 0.000000 0.000000 0.000000 0.035080 0.010932
# 6 0.000000 0.000000 0.000000 0.000000 0.010932 0.050942
#
#
# Mechanical properties :
#
#
# Convention : Reuss Voigt Hill
#
# Bulk Modulus (GPa) = 52.62794 54.39314 53.51054
# Shear Modulus (GPa) = 24.94499 27.91383 26.42941
#
# Velocity S-wave (km/s) = 3.54567 3.75073 3.64964
# Velocity P-wave (km/s) = 6.57919 6.79488 6.68791
#
# Compressibility (1/GPa) = 0.01900131
#
# Stress axis : x y z
#
# Youngs Moduli (GPa) = 60.94674 60.94674 75.82984
#
# Poissons Ratio (x) = 0.55237 0.16825
# Poissons Ratio (y) = 0.55237 0.16825
# Poissons Ratio (z) = 0.13523 0.13523
#
# Static dielectric constant tensor:
#      x y z
#    x 3.747900 0.000000 0.000000 
#    y 0.000000 3.747900 0.000000 
#    z 0.000000 0.000000 3.469720 
# 
# 
# High freq. dielectric constant tensor:
#      x y z
#    x 1.784810 0.000000 0.000000 
#    y 0.000000 1.784810 0.000000 
#    z 0.000000 0.000000 1.770360 
# 
# From -- ./inp_files/3716.got.cif
#   From: 2010.03.12/outbox.cif.g09.slc.cpg/sg152_2_cif.got.tgz:3716.got - 2010.04.03 13:45:27.
