data_PCOD8322723
_publ_section_title
;
Structure prediction by ZEFSAII (Michael W. Deem and Ramdas Pophale) SiO2 
 PCOD8322723
Probable space group: P 3 1 M
;
_chemical_formula_sum "Si O2"
_cell_formula_units_Z 30
_cell_length_a 14.292149
_cell_length_b 14.292149
_cell_length_c 7.894375
_cell_angle_alpha 90.000000
_cell_angle_beta 90.000000
_cell_angle_gamma 120.000000
_cell_volume 1396.508086
_symmetry_space_group_name_H-M "P 3 1 M"
_symmetry_group_IT_number 157
_symmetry_cell_setting 'hexagonal'
loop_
_space_group_symop_operation_xyz
x,y,z
-y,x-y,z
-x+y,-x,z
y,x,z
x-y,-y,z
-x,-x+y,z
loop_
_atom_site_type_symbol
_atom_site_label
_atom_site_fract_x
_atom_site_fract_y
_atom_site_fract_z
Si Si1 0.545378 0.673275 0.830840
Si Si2 0.647638 0.879329 0.633934
Si Si3 0.453180 0.127999 0.204233
Si Si4 0.877075 0.752588 0.307799
Si Si5 0.873652 0.444826 0.514983
O O1 0.620776 0.620776 0.825635
O O2 0.621552 0.800395 0.792064
O O3 0.451362 0.622566 0.689789
O O4 0.493038 0.657989 0.017873
O O5 0.732944 0.871581 0.510358
O O6 0.541171 0.847029 0.518960
O O7 0.695375 0.000000 0.708259
O O8 0.363049 0.164273 0.219987
O O9 0.546365 0.178966 0.349800
O O10 0.392707 0.000000 0.222808
O O11 0.837950 0.837950 0.268724
O O12 0.000000 0.801433 0.241502
O O13 0.000000 0.488867 0.507918
#
# Coordination Sequence:
#
# PCOD8322723 Si02
#       5
#     6   6   6   6   6
#     4  10  19  36  60  81 110 152 190 233 290 347
#     4  10  20  34  56  85 116 150 190 237 290 345
#     4   9  18  34  58  81 107 150 196 233 282 338
#     4  10  19  34  57  88 123 160 197 236 284 345
#     4   9  18  36  54  73 105 142 185 237 282 329
#
# _framework density 21.482151000000002
#
# number of rings (size 3 to 8) (size 9 to 14) (size 15 to 20)
#    0.000    2.400    2.000    0.800    0.000    0.800 
#    4.800    0.000    0.000    0.400    0.000    0.000 
#    0.000    0.000    0.000    0.000    0.000    0.000 
#
# Total GULP energy -371808.996799 kJ/mol
# GULP energy per Si atom -12393.633227 kJ/mol
# Density = 2.143326 g / cm^3
# Si number density = 21.482151 Si / 1000 Ang^3
#
#
#
# Elastic Constant Matrix: (Units=GPa)
#
#
# Indices 1 2 3 4 5 6 
#
# 1 50.2912 3.7116 21.5988 0.0000 -0.2339 0.0000
# 2 3.7116 50.2912 21.5988 0.0000 0.2339 0.0000
# 3 21.5988 21.5988 143.0727 0.0000 0.0000 0.0000
# 4 0.0000 0.0000 0.0000 15.6007 0.0000 0.2339
# 5 -0.2339 0.2339 0.0000 0.0000 15.6007 0.0000
# 6 0.0000 0.0000 0.0000 0.2339 0.0000 23.2898
#
#
#
# Elastic Compliance Matrix: (Units=1/GPa)
#
#
# Indices 1 2 3 4 5 6 
#
# 1 0.021266 -0.000206 -0.003179 0.000000 0.000322 0.000000
# 2 -0.000206 0.021266 -0.003179 0.000000 -0.000322 0.000000
# 3 -0.003179 -0.003179 0.007949 0.000000 0.000000 0.000000
# 4 0.000000 0.000000 0.000000 0.064109 0.000000 -0.000644
# 5 0.000322 -0.000322 0.000000 0.000000 0.064109 0.000000
# 6 0.000000 0.000000 0.000000 -0.000644 0.000000 0.042944
#
#
# Mechanical properties :
#
#
# Convention : Reuss Voigt Hill
#
# Bulk Modulus (GPa) = 26.77132 37.49705 32.13419
# Shear Modulus (GPa) = 20.22452 24.01461 22.11957
#
# Velocity S-wave (km/s) = 3.07165 3.34711 3.21233
# Velocity P-wave (km/s) = 5.00691 5.69477 5.36188
#
# Compressibility (1/GPa) = 0.03735340
#
# Stress axis : x y z
#
# Youngs Moduli (GPa) = 47.02261 47.02261 125.79538
#
# Poissons Ratio (x) = 0.00966 0.39996
# Poissons Ratio (y) = 0.00966 0.39996
# Poissons Ratio (z) = 0.14951 0.14951
#
# Static dielectric constant tensor:
#      x y z
#    x 3.734070 0.000000 0.000000 
#    y 0.000000 3.734070 0.000000 
#    z 0.000000 0.000000 3.903350 
# 
# 
# High freq. dielectric constant tensor:
#      x y z
#    x 1.830900 0.000000 0.000000 
#    y 0.000000 1.830900 0.000000 
#    z 0.000000 0.000000 1.828330 
# 
# From -- ./inp_files/350.got.cif
#   From: 2010.03.12/outbox.cif.g09.slc.cpg/sg157_cif.got.tgz:350.got - 2010.04.03 13:59:21.
