data_PCOD8322101
_publ_section_title
;
Structure prediction by ZEFSAII (Michael W. Deem and Ramdas Pophale) SiO2 
 PCOD8322101
Probable space group: P 31 2 1
;
_chemical_formula_sum "Si O2"
_cell_formula_units_Z 45
_cell_length_a 15.066391
_cell_length_b 15.066391
_cell_length_c 11.968819
_cell_angle_alpha 90.000000
_cell_angle_beta 90.000000
_cell_angle_gamma 120.000000
_cell_volume 2352.883364
_symmetry_space_group_name_H-M "P 31 2 1"
_symmetry_group_IT_number 152
_symmetry_cell_setting 'hexagonal'
loop_
_space_group_symop_operation_xyz
x,y,z
-y,x-y,1/3+z
-x+y,-x,2/3+z
x-y,-y,2/3-z
-x,-x+y,1/3-z
y,x,-z
loop_
_atom_site_type_symbol
_atom_site_label
_atom_site_fract_x
_atom_site_fract_y
_atom_site_fract_z
Si Si1 0.399250 0.114373 0.822767
Si Si2 0.924637 0.732354 0.771263
Si Si3 0.431855 0.820440 0.915365
Si Si4 0.708186 0.337119 0.563285
Si Si5 0.000000 0.645516 0.166667
Si Si6 0.100380 0.017057 0.593929
Si Si7 0.515797 0.750042 0.297201
Si Si8 0.077750 0.796244 0.963485
O O1 0.488173 0.123664 0.741383
O O2 0.443598 0.142342 0.948185
O O3 0.365164 0.192345 0.775431
O O4 0.304268 0.000000 0.833334
O O5 0.873585 0.804820 0.785472
O O6 0.845832 0.612746 0.757254
O O7 0.000000 0.770091 0.666667
O O8 0.978762 0.738189 0.887135
O O9 0.386517 0.733840 0.818870
O O10 0.545573 0.910725 0.891751
O O11 0.428850 0.767487 0.032744
O O12 0.779420 0.331262 0.466072
O O13 0.779395 0.438156 0.638419
O O14 0.940496 0.673991 0.257272
O O15 0.083860 0.083860 0.500000
O O16 0.192620 0.090327 0.673669
O O17 0.000000 0.959809 0.666667
#
# Coordination Sequence:
#
# PCOD8322101 Si02
#       8
#     6   6   6   6   3   6   6   6
#     4  11  22  38  60  87 117 150 205 252 295 352
#     4  11  22  37  61  92 123 158 207 257 298 367
#     4  10  20  40  59  89 115 157 197 251 309 361
#     4   9  20  38  66  82 120 161 200 245 311 378
#     4  12  24  38  58  90 126 152 202 254 314 358
#     4  11  22  39  60  87 125 168 203 244 313 375
#     4  10  20  39  60  93 116 161 203 249 307 366
#     4  12  24  37  60  89 121 160 199 253 299 373
#
# _framework density 19.12547
#
# number of rings (size 3 to 8) (size 9 to 14) (size 15 to 20)
#    0.000    1.333    4.000    2.400    1.867    1.067 
#    0.000    0.000    0.000    1.600    0.000    0.000 
#    0.000    0.000    0.000    0.000    0.000    0.000 
#
# Total GULP energy -557883.736922 kJ/mol
# GULP energy per Si atom -12397.416376 kJ/mol
# Density = 1.908194 g / cm^3
# Si number density = 19.125470 Si / 1000 Ang^3
#
#
#
# Elastic Constant Matrix: (Units=GPa)
#
#
# Indices 1 2 3 4 5 6 
#
# 1 122.1193 26.3116 38.6090 1.8388 -0.0003 0.0000
# 2 26.3116 122.1193 38.6090 -1.8388 0.0003 0.0000
# 3 38.6090 38.6090 93.3076 0.0000 0.0000 0.0000
# 4 1.8388 -1.8388 0.0000 24.5163 0.0000 0.0003
# 5 -0.0003 0.0003 0.0000 0.0000 24.5163 1.8388
# 6 0.0000 0.0000 0.0000 0.0003 1.8388 47.9039
#
#
#
# Elastic Compliance Matrix: (Units=1/GPa)
#
#
# Indices 1 2 3 4 5 6 
#
# 1 0.009526 -0.000941 -0.003552 -0.000785 0.000000 0.000000
# 2 -0.000941 0.009526 -0.003552 0.000785 0.000000 0.000000
# 3 -0.003552 -0.003552 0.013657 0.000000 0.000000 0.000000
# 4 -0.000785 0.000785 0.000000 0.040907 0.000000 0.000000
# 5 0.000000 0.000000 0.000000 0.000000 0.040907 -0.001570
# 6 0.000000 0.000000 0.000000 0.000000 -0.001570 0.020935
#
#
# Mechanical properties :
#
#
# Convention : Reuss Voigt Hill
#
# Bulk Modulus (GPa) = 60.17614 60.51170 60.34392
# Shear Modulus (GPa) = 31.82872 34.98839 33.40856
#
# Velocity S-wave (km/s) = 4.08389 4.28180 4.18402
# Velocity P-wave (km/s) = 7.33279 7.49354 7.41360
#
# Compressibility (1/GPa) = 0.01661788
#
# Stress axis : x y z
#
# Youngs Moduli (GPa) = 104.97085 104.97085 73.22212
#
# Poissons Ratio (x) = 0.09880 0.26011
# Poissons Ratio (y) = 0.09880 0.26011
# Poissons Ratio (z) = 0.37290 0.37290
#
# Static dielectric constant tensor:
#      x y z
#    x 3.537090 0.000000 0.000000 
#    y 0.000000 3.537090 0.000000 
#    z 0.000000 0.000000 3.619660 
# 
# 
# High freq. dielectric constant tensor:
#      x y z
#    x 1.740230 0.000000 0.000000 
#    y 0.000000 1.740230 0.000000 
#    z 0.000000 0.000000 1.751470 
# 
# From -- ./inp_files/1866.got.cif
#   From: 2010.03.12/outbox.cif.g09.slc.cpg/sg152_1_cif.got.tgz:1866.got - 2010.04.03 13:45:27.
