data_PCOD8322562
_publ_section_title
;
Structure prediction by ZEFSAII (Michael W. Deem and Ramdas Pophale) SiO2 
 PCOD8322562
Probable space group: R 3 2
;
_chemical_formula_sum "Si O2"
_cell_formula_units_Z 144
_cell_length_a 30.851145
_cell_length_b 30.851145
_cell_length_c 8.953627
_cell_angle_alpha 90.000000
_cell_angle_beta 90.000000
_cell_angle_gamma 120.000000
_cell_volume 7380.269207
_symmetry_space_group_name_H-M "R 3 2"
_symmetry_group_IT_number 155
_symmetry_cell_setting 'hexagonal'
loop_
_space_group_symop_operation_xyz
x,y,z
-y,x-y,z
-x+y,-x,z
x-y,-y,-z
-x,-x+y,-z
y,x,-z
2/3+x,1/3+y,1/3+z
2/3-y,1/3+x-y,1/3+z
2/3-x+y,1/3-x,1/3+z
2/3+x-y,1/3-y,1/3-z
2/3-x,1/3-x+y,1/3-z
2/3+y,1/3+x,1/3-z
1/3+x,2/3+y,2/3+z
1/3-y,2/3+x-y,2/3+z
1/3-x+y,2/3-x,2/3+z
1/3+x-y,2/3-y,2/3-z
1/3-x,2/3-x+y,2/3-z
1/3+y,2/3+x,2/3-z
loop_
_atom_site_type_symbol
_atom_site_label
_atom_site_fract_x
_atom_site_fract_y
_atom_site_fract_z
Si Si1 0.626818 0.811592 0.211668
Si Si2 0.232097 0.950844 0.902619
Si Si3 0.286665 0.748674 0.071490
Si Si4 0.047547 0.854014 0.410510
Si Si5 0.280232 0.561458 0.736263
Si Si6 0.948354 0.803116 0.939294
Si Si7 0.958046 0.184868 0.389276
Si Si8 0.300455 0.155650 0.022792
O O1 0.666667 0.814071 0.333334
O O2 0.583058 0.822045 0.259841
O O3 0.602952 0.759741 0.124368
O O4 0.662777 0.855322 0.101962
O O5 0.273484 0.940151 0.833334
O O6 0.206360 0.965640 0.774506
O O7 0.189750 0.902090 0.991155
O O8 0.261128 0.000000 0.000000
O O9 0.333334 0.753007 0.166667
O O10 0.237124 0.722346 0.172878
O O11 0.296581 0.803181 0.031085
O O12 0.281577 0.718738 0.917955
O O13 0.040623 0.858487 0.235137
O O14 0.000000 0.809176 0.500000
O O15 0.333334 0.602312 0.666667
O O16 0.238350 0.571684 0.666667
O O17 0.265993 0.506605 0.682895
O O18 0.907428 0.749058 0.996285
O O19 0.000000 0.810013 0.000000
O O20 0.000000 0.223694 0.500000
O O21 0.333334 0.182550 0.166667
#
# Coordination Sequence:
#
# PCOD8322562 Si02
#       8
#    18  18  18  18  18  18  18  18
#     4  11  22  41  64  91 121 165 209 257 305 371
#     4  11  24  39  55  85 122 167 213 257 308 358
#     4  10  22  39  61  91 125 161 206 255 309 362
#     4  11  23  39  63  94 128 160 205 256 309 367
#     4  11  23  40  63  90 126 164 206 251 306 365
#     4  11  24  40  65  96 122 161 205 251 311 370
#     4  10  22  37  59  86 120 162 207 260 308 352
#     4  11  23  42  65  90 125 161 211 253 311 368
#
# _framework density 19.511482000000001
#
# number of rings (size 3 to 8) (size 9 to 14) (size 15 to 20)
#    0.000    1.250    3.750    3.125    5.250    3.500 
#    0.000    0.000    0.000    1.750    0.000    0.000 
#    0.000    0.000    0.000    0.000    0.000    0.000 
#
# Total GULP energy -594779.458931 kJ/mol
# GULP energy per Si atom -12391.238728 kJ/mol
# Density = 1.946707 g / cm^3
# Si number density = 19.511482 Si / 1000 Ang^3
#
#
#
# Elastic Constant Matrix: (Units=GPa)
#
#
# Indices 1 2 3 4 5 6 
#
# 1 93.0084 52.8820 48.2351 0.3390 0.0644 0.0100
# 2 52.8820 92.9618 47.7172 -0.3376 -0.1459 -0.0719
# 3 48.2351 47.7172 149.4479 -0.0958 -0.1679 -0.3256
# 4 0.3390 -0.3376 -0.0958 38.2199 -0.0924 0.0507
# 5 0.0644 -0.1459 -0.1679 -0.0924 38.1123 0.1580
# 6 0.0100 -0.0719 -0.3256 0.0507 0.1580 20.2181
#
#
#
# Elastic Compliance Matrix: (Units=1/GPa)
#
#
# Indices 1 2 3 4 5 6 
#
# 1 0.016847 -0.008125 -0.002844 -0.000228 -0.000072 -0.000082
# 2 -0.008125 0.016785 -0.002737 0.000214 0.000066 0.000019
# 3 -0.002844 -0.002737 0.008483 0.000022 0.000031 0.000128
# 4 -0.000228 0.000214 0.000022 0.026169 0.000065 -0.000065
# 5 -0.000072 0.000066 0.000031 0.000065 0.026240 -0.000204
# 6 -0.000082 0.000019 0.000128 -0.000065 -0.000204 0.049465
#
#
# Mechanical properties :
#
#
# Convention : Reuss Voigt Hill
#
# Bulk Modulus (GPa) = 68.00618 70.34294 69.17456
# Shear Modulus (GPa) = 28.36089 31.74899 30.05494
#
# Velocity S-wave (km/s) = 3.81668 4.03823 3.92902
# Velocity P-wave (km/s) = 7.37244 7.60746 7.49087
#
# Compressibility (1/GPa) = 0.01470455
#
# Stress axis : x y z
#
# Youngs Moduli (GPa) = 59.35805 59.57865 117.88042
#
# Poissons Ratio (x) = 0.48407 0.33521
# Poissons Ratio (y) = 0.48227 0.32258
# Poissons Ratio (z) = 0.16879 0.16304
#
# Static dielectric constant tensor:
#      x y z
#    x 3.574500 -0.000090 -0.000460 
#    y -0.000090 3.575440 -0.000570 
#    z -0.000460 -0.000570 3.656540 
# 
# 
# High freq. dielectric constant tensor:
#      x y z
#    x 1.755650 0.000000 -0.000040 
#    y 0.000000 1.755660 0.000000 
#    z -0.000040 0.000000 1.780480 
# 
# From -- ./inp_files/3071.got.cif
#   From: 2010.03.12/outbox.cif.g09.slc.cpg/sg155_2_cif.got.tgz:3071.got - 2010.04.03 13:54:13.
