data_PCOD8322919
_publ_section_title
;
Structure prediction by ZEFSAII (Michael W. Deem and Ramdas Pophale) SiO2 
 PCOD8322919
Probable space group: P -3 1 M 
;
_chemical_formula_sum "Si O2"
_cell_formula_units_Z 78
_cell_length_a 20.002781
_cell_length_b 20.002781
_cell_length_c 14.504214
_cell_angle_alpha 90.000000
_cell_angle_beta 90.000000
_cell_angle_gamma 120.000000
_cell_volume 5025.804499
_symmetry_space_group_name_H-M "P -3 1 M "
_symmetry_group_IT_number 162
_symmetry_cell_setting 'hexagonal'
loop_
_space_group_symop_operation_xyz
x,y,z
-y,x-y,z
-x+y,-x,z
-y,-x,-z
-x+y,y,-z
x,x-y,-z
-x,-y,-z
y,-x+y,-z
x-y,x,-z
y,x,z
x-y,-y,z
-x,-x+y,z
loop_
_atom_site_type_symbol
_atom_site_label
_atom_site_fract_x
_atom_site_fract_y
_atom_site_fract_z
Si Si1 0.526680 0.817463 0.382173
Si Si2 0.086714 0.324053 0.499627
Si Si3 0.450439 0.127114 0.369746
Si Si4 0.171828 0.509159 0.174220
Si Si5 0.142985 0.571493 0.500000
Si Si6 0.509710 0.182003 0.819445
Si Si7 0.536334 0.622843 0.993812
O O1 0.605765 0.881997 0.428183
O O2 0.514520 0.732291 0.391761
O O3 0.450345 0.807837 0.431472
O O4 0.532766 0.848453 0.278208
O O5 0.144352 0.288704 0.500000
O O6 0.083892 0.360400 0.399952
O O7 0.000000 0.256677 0.525026
O O8 0.458705 0.119538 0.260748
O O9 0.497515 0.095259 0.431098
O O10 0.179630 0.591887 0.177927
O O11 0.258669 0.527029 0.169585
O O12 0.128944 0.458396 0.084941
O O13 0.456586 0.128902 0.902819
O O14 0.607933 0.607933 0.991335
O O15 0.456640 0.543361 0.000000
#
# Coordination Sequence:
#
# PCOD8322919 Si02
#       7
#    12  12  12  12   6  12  12
#     4   9  18  29  41  63  92 118 148 182 221 267
#     4   9  18  33  50  67  90 120 150 182 222 269
#     4   9  18  29  41  63  92 118 148 182 221 267
#     4  10  18  30  45  65  87 111 147 188 231 273
#     4  10  14  28  39  56  88 118 148 180 212 252
#     4  10  18  30  45  65  87 111 147 188 231 273
#     4   9  19  32  44  56  76 109 144 184 234 280
#
# _framework density 15.519904
#
# number of rings (size 3 to 8) (size 9 to 14) (size 15 to 20)
#    0.000    2.615    1.538    2.154    0.000    1.231 
#    3.692    7.692    0.000    0.154    0.000    0.000 
#    0.000    0.000    0.000    0.000    0.000    0.000 
#
# Total GULP energy -966383.700831 kJ/mol
# GULP energy per Si atom -12389.534626 kJ/mol
# Density = 1.548458 g / cm^3
# Si number density = 15.519904 Si / 1000 Ang^3
#
#
#
# Elastic Constant Matrix: (Units=GPa)
#
#
# Indices 1 2 3 4 5 6 
#
# 1 55.9208 37.0567 31.2688 0.0000 0.9920 0.0000
# 2 37.0567 55.9208 31.2688 0.0000 -0.9920 0.0000
# 3 31.2688 31.2688 119.1509 0.0000 0.0000 0.0000
# 4 0.0000 0.0000 0.0000 11.4408 0.0000 -0.9920
# 5 0.9920 -0.9920 0.0000 0.0000 11.4408 0.0000
# 6 0.0000 0.0000 0.0000 -0.9920 0.0000 9.4320
#
#
#
# Elastic Compliance Matrix: (Units=1/GPa)
#
#
# Indices 1 2 3 4 5 6 
#
# 1 0.033280 -0.020219 -0.003428 0.000000 -0.004639 0.000000
# 2 -0.020219 0.033280 -0.003428 0.000000 0.004639 0.000000
# 3 -0.003428 -0.003428 0.010192 0.000000 0.000000 0.000000
# 4 0.000000 0.000000 0.000000 0.088211 0.000000 0.009277
# 5 -0.004639 0.004639 0.000000 0.000000 0.088211 0.000000
# 6 0.000000 0.000000 0.000000 0.009277 0.000000 0.106997
#
#
# Mechanical properties :
#
#
# Convention : Reuss Voigt Hill
#
# Bulk Modulus (GPa) = 44.24196 47.79789 46.01993
# Shear Modulus (GPa) = 11.85250 15.22261 13.53755
#
# Velocity S-wave (km/s) = 2.76650 3.13524 2.95663
# Velocity P-wave (km/s) = 6.22681 6.63106 6.43211
#
# Compressibility (1/GPa) = 0.02260298
#
# Stress axis : x y z
#
# Youngs Moduli (GPa) = 30.04840 30.04840 98.11913
#
# Poissons Ratio (x) = 0.60755 0.33631
# Poissons Ratio (y) = 0.60755 0.33631
# Poissons Ratio (z) = 0.10299 0.10299
#
# Static dielectric constant tensor:
#      x y z
#    x 2.724000 0.000000 0.000000 
#    y 0.000000 2.724000 0.000000 
#    z 0.000000 0.000000 3.480870 
# 
# 
# High freq. dielectric constant tensor:
#      x y z
#    x 1.561050 0.000000 0.000000 
#    y 0.000000 1.561050 0.000000 
#    z 0.000000 0.000000 1.613470 
# 
# From -- ./inp_files/3291.got.cif
#   From: 2010.03.12/outbox.cif.g09.slc.cpg/sg162_2_cif.got.tgz:3291.got - 2010.04.02 06:27:41.
