data_PCOD8322058
_publ_section_title
;
Structure prediction by ZEFSAII (Michael W. Deem and Ramdas Pophale) SiO2 
 PCOD8322058
Probable space group: P 31 2 1
;
_chemical_formula_sum "Si O2"
_cell_formula_units_Z 48
_cell_length_a 11.766761
_cell_length_b 11.766761
_cell_length_c 21.844743
_cell_angle_alpha 90.000000
_cell_angle_beta 90.000000
_cell_angle_gamma 120.000000
_cell_volume 2619.337353
_symmetry_space_group_name_H-M "P 31 2 1"
_symmetry_group_IT_number 152
_symmetry_cell_setting 'hexagonal'
loop_
_space_group_symop_operation_xyz
x,y,z
-y,x-y,1/3+z
-x+y,-x,2/3+z
x-y,-y,2/3-z
-x,-x+y,1/3-z
y,x,-z
loop_
_atom_site_type_symbol
_atom_site_label
_atom_site_fract_x
_atom_site_fract_y
_atom_site_fract_z
Si Si1 0.560954 0.450924 0.041564
Si Si2 0.942780 0.519942 0.297992
Si Si3 0.478403 0.862145 0.563567
Si Si4 0.771595 0.587424 0.638848
Si Si5 0.211036 0.657751 0.236401
Si Si6 0.870998 0.652426 0.199556
Si Si7 0.317084 0.327226 0.123672
Si Si8 0.329632 0.077809 0.101604
O O1 0.705653 0.504156 0.065212
O O2 0.461384 0.418704 0.097124
O O3 0.565593 0.565593 0.000000
O O4 0.515414 0.321033 0.002164
O O5 0.922395 0.527286 0.369757
O O6 0.868074 0.369494 0.274018
O O7 0.896200 0.613269 0.266544
O O8 0.093476 0.572137 0.282281
O O9 0.417940 0.707498 0.559890
O O10 0.608039 0.926913 0.521677
O O11 0.362799 0.889315 0.542477
O O12 0.881057 0.675258 0.588377
O O13 0.764078 0.676854 0.693918
O O14 0.171369 0.690908 0.171658
O O15 0.768441 0.702454 0.206265
O O16 0.000000 0.768729 0.166667
O O17 0.290117 0.179227 0.131908
#
# Coordination Sequence:
#
# PCOD8322058 Si02
#       8
#     6   6   6   6   6   6   6   6
#     4   9  17  34  55  81 116 140 183 237 282 340
#     4  10  22  37  57  85 117 155 190 236 293 341
#     4  11  22  35  58  91 118 148 193 245 291 344
#     4   9  18  34  59  86 112 152 187 239 282 339
#     4  11  20  39  57  87 117 147 196 237 290 351
#     4  10  23  40  62  80 117 162 189 232 288 351
#     4  10  19  37  56  87 115 146 198 239 288 343
#     4  10  20  36  61  83 115 153 195 231 294 345
#
# _framework density 18.325246
#
# number of rings (size 3 to 8) (size 9 to 14) (size 15 to 20)
#    0.000    2.000    3.750    2.625    3.500    0.000 
#    6.750    1.250    2.750    0.000    0.000    0.000 
#    0.000    0.000    0.000    0.000    0.000    0.000 
#
# Total GULP energy -594993.543345 kJ/mol
# GULP energy per Si atom -12395.698820 kJ/mol
# Density = 1.828354 g / cm^3
# Si number density = 18.325246 Si / 1000 Ang^3
#
#
#
# Elastic Constant Matrix: (Units=GPa)
#
#
# Indices 1 2 3 4 5 6 
#
# 1 96.7224 44.0697 51.7278 -2.1987 -0.0001 0.0000
# 2 44.0697 96.7224 51.7278 2.1987 0.0001 0.0000
# 3 51.7278 51.7278 79.9608 0.0000 0.0000 0.0000
# 4 -2.1987 2.1987 0.0000 18.7100 0.0000 0.0001
# 5 -0.0001 0.0001 0.0000 0.0000 18.7100 -2.1987
# 6 0.0000 0.0000 0.0000 0.0001 -2.1987 26.3264
#
#
#
# Elastic Compliance Matrix: (Units=1/GPa)
#
#
# Indices 1 2 3 4 5 6 
#
# 1 0.016359 -0.002821 -0.008758 0.002254 0.000000 0.000000
# 2 -0.002821 0.016359 -0.008758 -0.002254 0.000000 0.000000
# 3 -0.008758 -0.008758 0.023838 0.000000 0.000000 0.000000
# 4 0.002254 -0.002254 0.000000 0.053977 0.000000 0.000000
# 5 0.000000 0.000000 0.000000 0.000000 0.053977 0.004508
# 6 0.000000 0.000000 0.000000 0.000000 0.004508 0.038361
#
#
# Mechanical properties :
#
#
# Convention : Reuss Voigt Hill
#
# Bulk Modulus (GPa) = 62.96544 63.16178 63.06361
# Shear Modulus (GPa) = 20.09319 21.14129 20.61724
#
# Velocity S-wave (km/s) = 3.31490 3.40026 3.35785
# Velocity P-wave (km/s) = 7.00614 7.06807 7.03717
#
# Compressibility (1/GPa) = 0.01588173
#
# Stress axis : x y z
#
# Youngs Moduli (GPa) = 61.12698 61.12698 41.95070
#
# Poissons Ratio (x) = 0.17245 0.36741
# Poissons Ratio (y) = 0.17245 0.36741
# Poissons Ratio (z) = 0.53535 0.53535
#
# Static dielectric constant tensor:
#      x y z
#    x 3.416680 0.000000 0.000000 
#    y 0.000000 3.416680 0.000000 
#    z 0.000000 0.000000 3.628620 
# 
# 
# High freq. dielectric constant tensor:
#      x y z
#    x 1.705150 0.000000 0.000000 
#    y 0.000000 1.705150 0.000000 
#    z 0.000000 0.000000 1.706760 
# 
# From -- ./inp_files/2846.got.cif
#   From: 2010.03.12/outbox.cif.g09.slc.cpg/sg152_2_cif.got.tgz:2846.got - 2010.04.03 13:45:27.
