data_PCOD8322662
_publ_section_title
;
Structure prediction by ZEFSAII (Michael W. Deem and Ramdas Pophale) SiO2 
 PCOD8322662
Probable space group: P 3 M 1
;
_chemical_formula_sum "Si O2"
_cell_formula_units_Z 42
_cell_length_a 12.839224
_cell_length_b 12.839224
_cell_length_c 18.071366
_cell_angle_alpha 90.000000
_cell_angle_beta 90.000000
_cell_angle_gamma 120.000000
_cell_volume 2579.877977
_symmetry_space_group_name_H-M "P 3 M 1"
_symmetry_group_IT_number 156
_symmetry_cell_setting 'hexagonal'
loop_
_space_group_symop_operation_xyz
x,y,z
-y,x-y,z
-x+y,-x,z
-x+y,y,z
x,x-y,z
-y,-x,z
loop_
_atom_site_type_symbol
_atom_site_label
_atom_site_fract_x
_atom_site_fract_y
_atom_site_fract_z
Si Si1 0.755719 0.000779 0.744750
Si Si2 0.999222 0.244282 0.322852
Si Si3 0.909858 0.579145 0.873260
Si Si4 0.429879 0.098775 0.033801
Si Si5 0.427429 0.094108 0.449254
Si Si6 0.669287 0.090142 0.194342
Si Si7 0.427430 0.333322 0.618348
O O1 0.754137 0.877069 0.744668
O O2 0.677758 0.001872 0.814241
O O3 0.693892 0.008682 0.669275
O O4 0.892432 0.107569 0.750706
O O5 0.892430 0.107571 0.316896
O O6 0.991320 0.306111 0.398327
O O7 0.998129 0.322243 0.253360
O O8 0.122931 0.245861 0.322933
O O9 0.773177 0.546353 0.857047
O O10 0.916075 0.458038 0.865875
O O11 0.952956 0.640205 0.955756
O O12 0.535050 0.070099 0.033800
O O13 0.484337 0.242169 0.033801
O O14 0.359796 0.047045 0.111846
O O15 0.540238 0.080475 0.425738
O O16 0.465655 0.232828 0.437421
O O17 0.389273 0.053998 0.533801
O O18 0.541964 0.083927 0.201726
O O19 0.773177 0.226824 0.210555
O O20 0.465657 0.232829 0.630180
O O21 0.540237 0.459764 0.641863
#
# Coordination Sequence:
#
# PCOD8322662 Si02
#       7
#     6   6   6   6   6   6   6
#     4  10  20  32  45  62  88 123 159 190 217 249
#     4  10  20  32  45  62  88 123 159 190 217 249
#     4   9  16  27  46  71  95 116 140 177 227 278
#     4   8  13  22  39  66  96 118 136 166 218 280
#     4   9  17  30  50  75  98 116 136 171 223 277
#     4   9  16  27  46  71  95 116 140 177 227 278
#     4   9  17  30  50  75  98 116 136 171 223 277
#
# _framework density 16.279841000000001
#
# number of rings (size 3 to 8) (size 9 to 14) (size 15 to 20)
#    0.000    2.857    0.000    1.857    0.000    4.000 
#    0.000    3.571    0.000    6.286    0.000    2.000 
#    0.000    0.000    0.000    0.000    0.000    0.000 
#
# Total GULP energy -520451.556641 kJ/mol
# GULP energy per Si atom -12391.703730 kJ/mol
# Density = 1.624279 g / cm^3
# Si number density = 16.279841 Si / 1000 Ang^3
#
#
#
# Elastic Constant Matrix: (Units=GPa)
#
#
# Indices 1 2 3 4 5 6 
#
# 1 87.7888 42.4082 57.6364 0.0001 0.0001 0.0000
# 2 42.4082 87.7888 57.6364 -0.0001 -0.0001 0.0000
# 3 57.6364 57.6364 134.1818 0.0000 0.0000 0.0000
# 4 0.0001 -0.0001 0.0000 17.9448 0.0000 -0.0001
# 5 0.0001 -0.0001 0.0000 0.0000 17.9448 0.0001
# 6 0.0000 0.0000 0.0000 -0.0001 0.0001 22.6903
#
#
#
# Elastic Compliance Matrix: (Units=1/GPa)
#
#
# Indices 1 2 3 4 5 6 
#
# 1 0.017215 -0.004821 -0.005324 0.000000 0.000000 0.000000
# 2 -0.004821 0.017215 -0.005324 0.000000 0.000000 0.000000
# 3 -0.005324 -0.005324 0.012026 0.000000 0.000000 0.000000
# 4 0.000000 0.000000 0.000000 0.055726 0.000000 0.000000
# 5 0.000000 0.000000 0.000000 0.000000 0.055726 0.000000
# 6 0.000000 0.000000 0.000000 0.000000 0.000000 0.044072
#
#
# Mechanical properties :
#
#
# Convention : Reuss Voigt Hill
#
# Bulk Modulus (GPa) = 64.43567 69.45795 66.94681
# Shear Modulus (GPa) = 21.00041 21.85455 21.42748
#
# Velocity S-wave (km/s) = 3.59550 3.66789 3.63188
# Velocity P-wave (km/s) = 7.54340 7.79074 7.66806
#
# Compressibility (1/GPa) = 0.01551935
#
# Stress axis : x y z
#
# Youngs Moduli (GPa) = 58.08872 58.08872 83.15205
#
# Poissons Ratio (x) = 0.28003 0.44269
# Poissons Ratio (y) = 0.28003 0.44269
# Poissons Ratio (z) = 0.30925 0.30925
#
# Static dielectric constant tensor:
#      x y z
#    x 2.769180 0.000000 0.000000 
#    y 0.000000 2.769180 0.000000 
#    z 0.000000 0.000000 3.693050 
# 
# 
# High freq. dielectric constant tensor:
#      x y z
#    x 1.594720 0.000000 0.000000 
#    y 0.000000 1.594720 0.000000 
#    z 0.000000 0.000000 1.655220 
# 
# From -- ./inp_files/997.got.cif
#   From: 2010.03.12/outbox.cif.g09.slc.cpg/sg156_cif.got.tgz:997.got - 2010.04.03 13:58:47.
