data_PCOD8322638
_publ_section_title
;
Structure prediction by ZEFSAII (Michael W. Deem and Ramdas Pophale) SiO2 
 PCOD8322638
Probable space group: R 3 2
;
_chemical_formula_sum "Si O2"
_cell_formula_units_Z 33
_cell_length_a 12.578448
_cell_length_b 12.578448
_cell_length_c 8.348765
_cell_angle_alpha 90.000000
_cell_angle_beta 90.000000
_cell_angle_gamma 120.000000
_cell_volume 1143.949850
_symmetry_space_group_name_H-M "R 3 2"
_symmetry_group_IT_number 155
_symmetry_cell_setting 'hexagonal'
loop_
_space_group_symop_operation_xyz
x,y,z
-y,x-y,z
-x+y,-x,z
x-y,-y,-z
-x,-x+y,-z
y,x,-z
2/3+x,1/3+y,1/3+z
2/3-y,1/3+x-y,1/3+z
2/3-x+y,1/3-x,1/3+z
2/3+x-y,1/3-y,1/3-z
2/3-x,1/3-x+y,1/3-z
2/3+y,1/3+x,1/3-z
1/3+x,2/3+y,2/3+z
1/3-y,2/3+x-y,2/3+z
1/3-x+y,2/3-x,2/3+z
1/3+x-y,2/3-y,2/3-z
1/3-x,2/3-x+y,2/3-z
1/3+y,2/3+x,2/3-z
loop_
_atom_site_type_symbol
_atom_site_label
_atom_site_fract_x
_atom_site_fract_y
_atom_site_fract_z
Si Si1 0.248307 0.056961 0.803996
Si Si2 0.000000 0.000000 0.686138
Si Si3 0.405683 0.333334 0.333334
O O1 0.333334 0.154936 0.666667
O O2 0.108143 0.976265 0.743899
O O3 0.300465 0.967132 0.833334
O O4 0.249098 0.127995 0.966637
O O5 0.000000 0.000000 0.500000
O O6 0.351954 0.351954 0.500000
#
# Coordination Sequence:
#
# PCOD8322638 Si02
#       3
#    18   6   9
#     4  12  32  57  97 140 203 257 331 418 500 587
#     4  12  33  61  95 148 199 263 346 412 494 619
#     4  12  30  58  98 148 194 268 338 408 504 606
#
# _framework density 28.847418000000001
#
# number of rings (size 3 to 8) (size 9 to 14) (size 15 to 20)
#    0.000    0.000    2.727    1.636   22.909    2.182 
#    0.000    0.000    0.000    0.000    0.000    0.000 
#    0.000    0.000    0.000    0.000    0.000    0.000 
#
# Total GULP energy -136413.691904 kJ/mol
# GULP energy per Si atom -12401.244719 kJ/mol
# Density = 2.878176 g / cm^3
# Si number density = 28.847418 Si / 1000 Ang^3
#
#
#
# Elastic Constant Matrix: (Units=GPa)
#
#
# Indices 1 2 3 4 5 6 
#
# 1 208.5347 96.2749 93.5349 15.3368 0.0026 0.0000
# 2 96.2749 208.5347 93.5349 -15.3368 -0.0026 0.0000
# 3 93.5349 93.5349 247.7295 0.0000 0.0000 0.0000
# 4 15.3368 -15.3368 0.0000 443.6696 0.0000 -0.0026
# 5 0.0026 -0.0026 0.0000 0.0000 443.6696 15.3368
# 6 0.0000 0.0000 0.0000 -0.0026 15.3368 56.1299
#
#
#
# Elastic Compliance Matrix: (Units=1/GPa)
#
#
# Indices 1 2 3 4 5 6 
#
# 1 0.006632 -0.002361 -0.001612 -0.000311 0.000000 0.000000
# 2 -0.002361 0.006632 -0.001612 0.000311 0.000000 0.000000
# 3 -0.001612 -0.001612 0.005254 0.000000 0.000000 0.000000
# 4 -0.000311 0.000311 0.000000 0.002275 0.000000 0.000000
# 5 0.000000 0.000000 0.000000 0.000000 0.002275 -0.000622
# 6 0.000000 0.000000 0.000000 0.000000 -0.000622 0.017986
#
#
# Mechanical properties :
#
#
# Convention : Reuss Voigt Hill
#
# Bulk Modulus (GPa) = 136.13899 136.83203 136.48551
# Shear Modulus (GPa) = 91.45092 214.12410 152.78751
#
# Velocity S-wave (km/s) = 5.63653 8.62482 7.28553
# Velocity P-wave (km/s) = 9.46867 12.11278 10.87141
#
# Compressibility (1/GPa) = 0.00734543
#
# Stress axis : x y z
#
# Youngs Moduli (GPa) = 150.79430 150.79430 190.32469
#
# Poissons Ratio (x) = 0.35607 0.30686
# Poissons Ratio (y) = 0.35607 0.30686
# Poissons Ratio (z) = 0.24313 0.24313
#
# Static dielectric constant tensor:
#      x y z
#    x -5.833550 0.000000 0.000000 
#    y 0.000000 -5.833550 0.000000 
#    z 0.000000 0.000000 7.191850 
# 
# 
# High freq. dielectric constant tensor:
#      x y z
#    x 2.179930 0.000000 0.000000 
#    y 0.000000 2.179930 0.000000 
#    z 0.000000 0.000000 2.215670 
# 
# From -- ./inp_files/1379.got.cif
#   From: 2010.03.12/outbox.cif.g09.slc.cpg/sg155_1_cif.got.tgz:1379.got - 2010.04.03 13:54:13.
