data_PCOD8322766
_publ_section_title
;
Structure prediction by ZEFSAII (Michael W. Deem and Ramdas Pophale) SiO2 
 PCOD8322766
Probable space group: P 3 C 1
;
_chemical_formula_sum "Si O2"
_cell_formula_units_Z 16
_cell_length_a 6.838361
_cell_length_b 6.838361
_cell_length_c 18.910056
_cell_angle_alpha 90.000000
_cell_angle_beta 90.000000
_cell_angle_gamma 120.000000
_cell_volume 765.821393
_symmetry_space_group_name_H-M "P 3 C 1"
_symmetry_group_IT_number 158
_symmetry_cell_setting 'hexagonal'
loop_
_space_group_symop_operation_xyz
x,y,z
-y,x-y,z
-x+y,-x,z
-x+y,y,1/2+z
x,x-y,1/2+z
-y,-x,1/2+z
loop_
_atom_site_type_symbol
_atom_site_label
_atom_site_fract_x
_atom_site_fract_y
_atom_site_fract_z
Si Si1 0.333334 0.666666 0.026257
Si Si2 0.333334 0.666666 0.859405
Si Si3 0.068343 0.790692 0.262414
Si Si4 0.944318 0.401676 0.623248
O O1 0.347960 0.451697 0.055184
O O2 0.333334 0.666667 0.942831
O O3 0.562930 0.681292 0.830478
O O4 0.814036 0.752568 0.264026
O O5 0.092698 0.666667 0.192831
O O6 0.852631 0.580765 0.621636
#
# Coordination Sequence:
#
# PCOD8322766 Si02
#       4
#     2   2   6   6
#     4  12  25  41  58  90 133 161 193 240 301 377
#     4  12  25  41  58  90 133 161 193 240 301 377
#     4  10  22  41  66  89 117 154 207 255 296 342
#     4  10  22  41  66  89 117 154 207 255 296 342
#
# _framework density 20.892602
#
# number of rings (size 3 to 8) (size 9 to 14) (size 15 to 20)
#    1.500    0.000    0.000    6.750    0.000    3.000 
#    4.500    0.000    0.000    0.000    0.000    0.000 
#    0.000    0.000    0.000    0.000    0.000    0.000 
#
# Total GULP energy -198238.188495 kJ/mol
# GULP energy per Si atom -12389.886781 kJ/mol
# Density = 2.084505 g / cm^3
# Si number density = 20.892602 Si / 1000 Ang^3
#
#
#
# Elastic Constant Matrix: (Units=GPa)
#
#
# Indices 1 2 3 4 5 6 
#
# 1 104.9166 41.9837 69.1197 -7.1431 0.0000 0.0000
# 2 41.9837 104.9168 69.1196 7.1430 0.0000 0.0000
# 3 69.1197 69.1196 224.7168 -0.0001 0.0000 0.0000
# 4 -7.1431 7.1430 -0.0001 20.0425 0.0000 0.0000
# 5 0.0000 0.0000 0.0000 0.0000 20.0425 -7.1431
# 6 0.0000 0.0000 0.0000 0.0000 -7.1431 31.4665
#
#
#
# Elastic Compliance Matrix: (Units=1/GPa)
#
#
# Indices 1 2 3 4 5 6 
#
# 1 0.013435 -0.003854 -0.002947 0.006162 0.000000 0.000000
# 2 -0.003854 0.013434 -0.002947 -0.006162 0.000000 0.000000
# 3 -0.002947 -0.002947 0.006263 0.000000 0.000000 0.000000
# 4 0.006162 -0.006162 0.000000 0.054286 0.000000 0.000000
# 5 0.000000 0.000000 0.000000 0.000000 0.054286 0.012323
# 6 0.000000 0.000000 0.000000 0.000000 0.012323 0.034577
#
#
# Mechanical properties :
#
#
# Convention : Reuss Voigt Hill
#
# Bulk Modulus (GPa) = 73.33294 88.33292 80.83293
# Shear Modulus (GPa) = 24.95985 31.26545 28.11265
#
# Velocity S-wave (km/s) = 3.46016 3.87264 3.67219
# Velocity P-wave (km/s) = 7.15120 7.89733 7.53351
#
# Compressibility (1/GPa) = 0.01363644
#
# Stress axis : x y z
#
# Youngs Moduli (GPa) = 74.43506 74.43528 159.67240
#
# Poissons Ratio (x) = 0.28688 0.47052
# Poissons Ratio (y) = 0.28688 0.47052
# Poissons Ratio (z) = 0.21934 0.21934
#
# Static dielectric constant tensor:
#      x y z
#    x 3.666600 0.000000 0.000000 
#    y 0.000000 3.666600 0.000000 
#    z 0.000000 0.000000 3.257760 
# 
# 
# High freq. dielectric constant tensor:
#      x y z
#    x 1.821350 0.000000 0.000000 
#    y 0.000000 1.821350 0.000000 
#    z 0.000000 0.000000 1.777590 
# 
# From -- ./inp_files/287.got.cif
#   From: 2010.03.12/outbox.cif.g09.slc.cpg/sg158_cif.got.tgz:287.got - 2010.04.03 13:59:47.
