data_PCOD8322025
_publ_section_title
;
Structure prediction by ZEFSAII (Michael W. Deem and Ramdas Pophale) SiO2 
 PCOD8322025
Probable space group: P 31 2 1
;
_chemical_formula_sum "Si O2"
_cell_formula_units_Z 36
_cell_length_a 12.444219
_cell_length_b 12.444219
_cell_length_c 15.760099
_cell_angle_alpha 90.000000
_cell_angle_beta 90.000000
_cell_angle_gamma 120.000000
_cell_volume 2113.610043
_symmetry_space_group_name_H-M "P 31 2 1"
_symmetry_group_IT_number 152
_symmetry_cell_setting 'hexagonal'
loop_
_space_group_symop_operation_xyz
x,y,z
-y,x-y,1/3+z
-x+y,-x,2/3+z
x-y,-y,2/3-z
-x,-x+y,1/3-z
y,x,-z
loop_
_atom_site_type_symbol
_atom_site_label
_atom_site_fract_x
_atom_site_fract_y
_atom_site_fract_z
Si Si1 0.115606 0.366571 0.119632
Si Si2 0.232000 0.364901 0.820305
Si Si3 0.889426 0.525590 0.457111
Si Si4 0.901795 0.011734 0.234201
Si Si5 0.878453 0.370960 0.611058
Si Si6 0.463909 0.714618 0.303529
O O1 0.228896 0.441256 0.181428
O O2 0.081909 0.227724 0.103629
O O3 0.000000 0.366781 0.166667
O O4 0.149173 0.428825 0.028473
O O5 0.348060 0.366384 0.772636
O O6 0.145667 0.236597 0.870790
O O7 0.160139 0.389858 0.744743
O O8 0.276717 0.476989 0.887296
O O9 0.921267 0.453475 0.527253
O O10 0.819253 0.433117 0.379459
O O11 0.000000 0.008059 0.166667
O O12 0.933099 0.000000 0.333334
O O13 0.764024 0.378642 0.653916
O O14 0.000000 0.425902 0.666667
#
# Coordination Sequence:
#
# PCOD8322025 Si02
#       6
#     6   6   6   6   6   6
#     4   9  18  31  51  74  98 133 174 214 263 312
#     4  10  19  33  53  77 102 140 178 218 271 320
#     4   9  19  31  51  78  99 135 176 216 265 321
#     4  10  19  33  54  77 104 140 181 222 266 317
#     4  10  19  32  53  77 106 137 175 225 269 326
#     4  10  18  32  52  75 105 133 172 223 264 315
#
# _framework density 17.032468999999999
#
# number of rings (size 3 to 8) (size 9 to 14) (size 15 to 20)
#    0.000    2.333    3.333    0.000    0.000    2.000 
#    0.000    0.000    0.000    0.000    0.000    5.833 
#    0.000    0.000    0.000    0.000    0.000    0.000 
#
# Total GULP energy -445985.650992 kJ/mol
# GULP energy per Si atom -12388.490305 kJ/mol
# Density = 1.699370 g / cm^3
# Si number density = 17.032469 Si / 1000 Ang^3
#
#
#
# Elastic Constant Matrix: (Units=GPa)
#
#
# Indices 1 2 3 4 5 6 
#
# 1 59.2682 28.6088 27.3394 -10.8002 -0.0002 0.0000
# 2 28.6088 59.2682 27.3394 10.8002 0.0002 0.0000
# 3 27.3394 27.3394 66.3040 0.0000 0.0000 0.0000
# 4 -10.8002 10.8002 0.0000 27.1604 0.0000 0.0002
# 5 -0.0002 0.0002 0.0000 0.0000 27.1604 -10.8002
# 6 0.0000 0.0000 0.0000 0.0002 -10.8002 15.3297
#
#
#
# Elastic Compliance Matrix: (Units=1/GPa)
#
#
# Indices 1 2 3 4 5 6 
#
# 1 0.030308 -0.015002 -0.006311 0.018017 0.000000 0.000000
# 2 -0.015002 0.030308 -0.006311 -0.018017 0.000000 0.000000
# 3 -0.006311 -0.006311 0.020287 0.000000 0.000000 0.000000
# 4 0.018017 -0.018017 0.000000 0.051147 0.000000 -0.000001
# 5 0.000000 0.000000 0.000000 0.000000 0.051147 0.036035
# 6 0.000000 0.000000 0.000000 -0.000001 0.036035 0.090621
#
#
# Mechanical properties :
#
#
# Convention : Reuss Voigt Hill
#
# Bulk Modulus (GPa) = 38.97969 39.04618 39.01293
# Shear Modulus (GPa) = 14.80956 20.70029 17.75492
#
# Velocity S-wave (km/s) = 2.95191 3.48996 3.23215
# Velocity P-wave (km/s) = 5.87823 6.26211 6.07320
#
# Compressibility (1/GPa) = 0.02565439
#
# Stress axis : x y z
#
# Youngs Moduli (GPa) = 32.99410 32.99410 49.29289
#
# Poissons Ratio (x) = 0.49497 0.31111
# Poissons Ratio (y) = 0.49497 0.31111
# Poissons Ratio (z) = 0.20824 0.20824
#
# Static dielectric constant tensor:
#      x y z
#    x 3.504100 0.000000 0.000000 
#    y 0.000000 3.504100 0.000000 
#    z 0.000000 0.000000 3.324090 
# 
# 
# High freq. dielectric constant tensor:
#      x y z
#    x 1.649920 0.000000 0.000000 
#    y 0.000000 1.649920 0.000000 
#    z 0.000000 0.000000 1.649300 
# 
# From -- ./inp_files/2041.got.cif
#   From: 2010.03.12/outbox.cif.g09.slc.cpg/sg152_2_cif.got.tgz:2041.got - 2010.04.03 13:45:27.
