data_PCOD8322034
_publ_section_title
;
Structure prediction by ZEFSAII (Michael W. Deem and Ramdas Pophale) SiO2 
 PCOD8322034
Probable space group: P 31 2 1
;
_chemical_formula_sum "Si O2"
_cell_formula_units_Z 48
_cell_length_a 11.519723
_cell_length_b 11.519723
_cell_length_c 20.836020
_cell_angle_alpha 90.000000
_cell_angle_beta 90.000000
_cell_angle_gamma 120.000000
_cell_volume 2394.580656
_symmetry_space_group_name_H-M "P 31 2 1"
_symmetry_group_IT_number 152
_symmetry_cell_setting 'hexagonal'
loop_
_space_group_symop_operation_xyz
x,y,z
-y,x-y,1/3+z
-x+y,-x,2/3+z
x-y,-y,2/3-z
-x,-x+y,1/3-z
y,x,-z
loop_
_atom_site_type_symbol
_atom_site_label
_atom_site_fract_x
_atom_site_fract_y
_atom_site_fract_z
Si Si1 0.871924 0.138398 0.125856
Si Si2 0.522532 0.836115 0.986167
Si Si3 0.321814 0.593019 0.066878
Si Si4 0.174738 0.154389 0.336174
Si Si5 0.571320 0.475894 0.698674
Si Si6 0.057045 0.249274 0.973227
Si Si7 0.742859 0.303465 0.119920
Si Si8 0.763213 0.066293 0.254122
O O1 0.827023 0.038090 0.066816
O O2 0.867094 0.274711 0.111338
O O3 0.753407 0.058920 0.177838
O O4 0.000000 0.160997 0.166667
O O5 0.438255 0.785343 0.920371
O O6 0.459062 0.717355 0.039387
O O7 0.677298 0.887776 0.968396
O O8 0.532649 0.965694 0.017920
O O9 0.291677 0.613450 0.140538
O O10 0.330504 0.457655 0.056439
O O11 0.194501 0.578676 0.028449
O O12 0.072690 0.181193 0.380481
O O13 0.120467 0.000000 0.333334
O O14 0.667212 0.631711 0.716040
O O15 0.563917 0.389485 0.759910
O O16 0.202131 0.283004 0.946836
O O17 0.082006 0.251200 0.051499
#
# Coordination Sequence:
#
# PCOD8322034 Si02
#       8
#     6   6   6   6   6   6   6   6
#     4  11  19  35  64  90 113 156 213 254 291 372
#     4  11  24  41  60  93 133 164 203 263 324 385
#     4   9  22  41  63  93 120 166 220 255 311 375
#     4  12  23  40  61  87 126 166 200 253 324 373
#     4  10  21  38  65  91 122 164 206 266 317 368
#     4  10  18  36  62  91 118 153 201 252 305 373
#     4  10  22  41  63  93 121 164 215 262 320 375
#     4   9  18  35  62  89 112 147 203 257 286 353
#
# _framework density 20.045264
#
# number of rings (size 3 to 8) (size 9 to 14) (size 15 to 20)
#    0.000    1.750    3.750    0.750    5.250    1.000 
#    6.750    1.250    5.500    0.000    0.000    0.000 
#    0.000    0.000    0.000    0.000    0.000    0.000 
#
# Total GULP energy -594720.827463 kJ/mol
# GULP energy per Si atom -12390.017239 kJ/mol
# Density = 1.999964 g / cm^3
# Si number density = 20.045264 Si / 1000 Ang^3
#
#
#
# Elastic Constant Matrix: (Units=GPa)
#
#
# Indices 1 2 3 4 5 6 
#
# 1 118.7464 51.2112 26.3783 8.4133 0.0002 0.0000
# 2 51.2112 118.7464 26.3783 -8.4133 -0.0002 0.0000
# 3 26.3783 26.3783 90.7153 0.0000 0.0000 0.0000
# 4 8.4133 -8.4133 0.0000 21.1674 0.0000 -0.0002
# 5 0.0002 -0.0002 0.0000 0.0000 21.1674 8.4133
# 6 0.0000 0.0000 0.0000 -0.0002 8.4133 33.7676
#
#
#
# Elastic Compliance Matrix: (Units=1/GPa)
#
#
# Indices 1 2 3 4 5 6 
#
# 1 0.011451 -0.004984 -0.001881 -0.006532 0.000000 0.000000
# 2 -0.004984 0.011451 -0.001881 0.006532 0.000000 0.000000
# 3 -0.001881 -0.001881 0.012117 0.000000 0.000000 0.000000
# 4 -0.006532 0.006532 0.000000 0.052435 0.000000 0.000000
# 5 0.000000 0.000000 0.000000 0.000000 0.052435 -0.013064
# 6 0.000000 0.000000 0.000000 0.000000 -0.013064 0.032869
#
#
# Mechanical properties :
#
#
# Convention : Reuss Voigt Hill
#
# Bulk Modulus (GPa) = 57.04576 59.57152 58.30864
# Shear Modulus (GPa) = 25.49829 30.16984 27.83407
#
# Velocity S-wave (km/s) = 3.57043 3.88375 3.73038
# Velocity P-wave (km/s) = 6.74667 7.06360 6.90695
#
# Compressibility (1/GPa) = 0.01752979
#
# Stress axis : x y z
#
# Youngs Moduli (GPa) = 87.32783 87.32783 82.52719
#
# Poissons Ratio (x) = 0.43520 0.15521
# Poissons Ratio (y) = 0.43520 0.15521
# Poissons Ratio (z) = 0.16423 0.16423
#
# Static dielectric constant tensor:
#      x y z
#    x 3.726810 0.000000 0.000000 
#    y 0.000000 3.726810 0.000000 
#    z 0.000000 0.000000 3.752800 
# 
# 
# High freq. dielectric constant tensor:
#      x y z
#    x 1.779970 0.000000 0.000000 
#    y 0.000000 1.779970 0.000000 
#    z 0.000000 0.000000 1.774020 
# 
# From -- ./inp_files/3137.got.cif
#   From: 2010.03.12/outbox.cif.g09.slc.cpg/sg152_2_cif.got.tgz:3137.got - 2010.04.03 13:45:27.
