data_PCOD8322733
_publ_section_title
;
Structure prediction by ZEFSAII (Michael W. Deem and Ramdas Pophale) SiO2 
 PCOD8322733
Probable space group: P 3 1 M
;
_chemical_formula_sum "Si O2"
_cell_formula_units_Z 42
_cell_length_a 14.704490
_cell_length_b 14.704490
_cell_length_c 11.507737
_cell_angle_alpha 90.000000
_cell_angle_beta 90.000000
_cell_angle_gamma 120.000000
_cell_volume 2154.867109
_symmetry_space_group_name_H-M "P 3 1 M"
_symmetry_group_IT_number 157
_symmetry_cell_setting 'hexagonal'
loop_
_space_group_symop_operation_xyz
x,y,z
-y,x-y,z
-x+y,-x,z
y,x,z
x-y,-y,z
-x,-x+y,z
loop_
_atom_site_type_symbol
_atom_site_label
_atom_site_fract_x
_atom_site_fract_y
_atom_site_fract_z
Si Si1 0.259062 0.727574 0.718930
Si Si2 0.705349 0.119419 0.927124
Si Si3 0.802480 0.251187 0.469287
Si Si4 0.200759 0.621937 0.109219
Si Si5 0.116079 0.584881 0.358745
Si Si6 0.758572 0.879531 0.086730
Si Si7 0.119097 0.881800 0.350822
O O1 0.214355 0.601089 0.723841
O O2 0.204218 0.753616 0.823719
O O3 0.231512 0.768478 0.603040
O O4 0.649662 0.000000 0.878793
O O5 0.615965 0.130630 0.998677
O O6 0.803886 0.143759 0.007815
O O7 0.698029 0.206617 0.394421
O O8 0.873726 0.371339 0.431925
O O9 0.866094 0.192159 0.441824
O O10 0.254983 0.549604 0.105140
O O11 0.126837 0.580609 0.220948
O O12 0.000000 0.566106 0.384445
O O13 0.804701 0.804701 0.049215
O O14 0.717370 0.857610 0.219715
O O15 0.851373 0.000000 0.075020
O O16 0.000000 0.803443 0.386676
O O17 0.141341 0.000000 0.360085
#
# Coordination Sequence:
#
# PCOD8322733 Si02
#       7
#     6   6   6   6   6   6   6
#     4  10  22  44  65  76 114 166 202 246 298 360
#     4  11  22  37  59  91 119 151 207 259 303 359
#     4  12  21  41  59  90 119 160 206 257 298 373
#     4  10  20  37  59  80 120 161 193 236 309 366
#     4  12  22  36  61  90 122 158 200 253 314 369
#     4   9  19  37  61  89 123 160 197 245 305 371
#     4  10  21  38  62  92 127 162 202 252 311 370
#
# _framework density 19.490762
#
# number of rings (size 3 to 8) (size 9 to 14) (size 15 to 20)
#    0.571    0.857    2.857    3.571    0.000    3.429 
#    0.000    4.286    0.000    0.000    0.000    2.000 
#    0.000    0.000    0.000    0.000    0.000    0.000 
#
# Total GULP energy -520604.777780 kJ/mol
# GULP energy per Si atom -12395.351852 kJ/mol
# Density = 1.944640 g / cm^3
# Si number density = 19.490762 Si / 1000 Ang^3
#
#
#
# Elastic Constant Matrix: (Units=GPa)
#
#
# Indices 1 2 3 4 5 6 
#
# 1 73.6017 21.3098 27.4532 0.0000 -3.2864 0.0000
# 2 21.3098 73.6017 27.4532 0.0000 3.2864 0.0000
# 3 27.4532 27.4532 109.7716 0.0000 0.0000 0.0000
# 4 0.0000 0.0000 0.0000 22.3432 0.0000 3.2864
# 5 -3.2864 3.2864 0.0000 0.0000 22.3432 0.0000
# 6 0.0000 0.0000 0.0000 3.2864 0.0000 26.1460
#
#
#
# Elastic Compliance Matrix: (Units=1/GPa)
#
#
# Indices 1 2 3 4 5 6 
#
# 1 0.015901 -0.003583 -0.003081 0.000000 0.002866 0.000000
# 2 -0.003583 0.015901 -0.003081 0.000000 -0.002866 0.000000
# 3 -0.003081 -0.003081 0.010651 0.000000 0.000000 0.000000
# 4 0.000000 0.000000 0.000000 0.045599 0.000000 -0.005732
# 5 0.002866 -0.002866 0.000000 0.000000 0.045599 0.000000
# 6 0.000000 0.000000 0.000000 -0.005732 0.000000 0.038967
#
#
# Mechanical properties :
#
#
# Convention : Reuss Voigt Hill
#
# Bulk Modulus (GPa) = 43.54548 45.48971 44.51759
# Shear Modulus (GPa) = 25.02981 26.21706 25.62343
#
# Velocity S-wave (km/s) = 3.58744 3.67154 3.62974
# Velocity P-wave (km/s) = 6.28886 6.43144 6.36055
#
# Compressibility (1/GPa) = 0.02296450
#
# Stress axis : x y z
#
# Youngs Moduli (GPa) = 62.88917 62.88917 93.88989
#
# Poissons Ratio (x) = 0.22531 0.28925
# Poissons Ratio (y) = 0.22531 0.28925
# Poissons Ratio (z) = 0.19375 0.19375
#
# Static dielectric constant tensor:
#      x y z
#    x 3.457990 0.000000 0.000000 
#    y 0.000000 3.457990 0.000000 
#    z 0.000000 0.000000 3.465550 
# 
# 
# High freq. dielectric constant tensor:
#      x y z
#    x 1.755130 0.000000 0.000000 
#    y 0.000000 1.755130 0.000000 
#    z 0.000000 0.000000 1.744050 
# 
# From -- ./inp_files/588.got.cif
#   From: 2010.03.12/outbox.cif.g09.slc.cpg/sg157_cif.got.tgz:588.got - 2010.04.03 13:59:21.
