data_PCOD8322189
_publ_section_title
;
Structure prediction by ZEFSAII (Michael W. Deem and Ramdas Pophale) SiO2 
 PCOD8322189
Probable space group: P 31 2 1
;
_chemical_formula_sum "Si O2"
_cell_formula_units_Z 42
_cell_length_a 8.085488
_cell_length_b 8.085488
_cell_length_c 32.103502
_cell_angle_alpha 90.000000
_cell_angle_beta 90.000000
_cell_angle_gamma 120.000000
_cell_volume 1817.588287
_symmetry_space_group_name_H-M "P 31 2 1"
_symmetry_group_IT_number 152
_symmetry_cell_setting 'hexagonal'
loop_
_space_group_symop_operation_xyz
x,y,z
-y,x-y,1/3+z
-x+y,-x,2/3+z
x-y,-y,2/3-z
-x,-x+y,1/3-z
y,x,-z
loop_
_atom_site_type_symbol
_atom_site_label
_atom_site_fract_x
_atom_site_fract_y
_atom_site_fract_z
Si Si1 0.887512 0.988821 0.457158
Si Si2 0.301591 0.220583 0.331898
Si Si3 0.512904 0.995291 0.208726
Si Si4 0.650328 0.876886 0.579849
Si Si5 0.245225 0.950411 0.058941
Si Si6 0.739374 0.383707 0.717539
Si Si7 0.600959 0.170323 0.539135
O O1 0.993656 0.993656 0.500000
O O2 0.735089 0.055902 0.464188
O O3 0.792135 0.784386 0.433574
O O4 0.034536 0.130085 0.422770
O O5 0.313151 0.291332 0.285325
O O6 0.515032 0.265310 0.345938
O O7 0.203535 0.323357 0.357135
O O8 0.153441 0.000000 0.333334
O O9 0.599404 0.219317 0.204880
O O10 0.423041 0.922206 0.254487
O O11 0.361030 0.878203 0.171375
O O12 0.442913 0.696563 0.587216
O O13 0.659860 0.006036 0.540772
O O14 0.415351 0.157211 0.039585
O O15 0.333899 0.850464 0.086414
#
# Coordination Sequence:
#
# PCOD8322189 Si02
#       7
#     6   6   6   6   6   6   6
#     4  11  22  41  69 100 138 177 221 286 352 423
#     4  12  25  46  69  95 139 185 236 286 351 422
#     4  11  23  43  70 100 141 180 229 289 356 418
#     4  11  24  43  66  98 138 176 232 282 348 422
#     4  10  25  45  66 102 138 182 233 287 350 422
#     4  10  26  45  67 101 135 180 233 288 352 419
#     4  11  23  43  68 100 139 180 229 288 351 418
#
# _framework density 23.107544000000001
#
# number of rings (size 3 to 8) (size 9 to 14) (size 15 to 20)
#    0.000    1.143    2.857    3.429    6.000    0.571 
#    2.571    0.714    0.000    0.000    0.000    0.000 
#    0.000    0.000    0.000    0.000    0.000    0.000 
#
# Total GULP energy -520416.836754 kJ/mol
# GULP energy per Si atom -12390.877066 kJ/mol
# Density = 2.305495 g / cm^3
# Si number density = 23.107544 Si / 1000 Ang^3
#
#
#
# Elastic Constant Matrix: (Units=GPa)
#
#
# Indices 1 2 3 4 5 6 
#
# 1 71.4120 4.2958 5.8493 2.7636 0.0000 0.0000
# 2 4.2958 71.4120 5.8493 -2.7636 0.0000 0.0000
# 3 5.8493 5.8493 53.8180 0.0000 0.0000 0.0000
# 4 2.7636 -2.7636 0.0000 32.2110 0.0000 0.0000
# 5 0.0000 0.0000 0.0000 0.0000 32.2110 2.7636
# 6 0.0000 0.0000 0.0000 0.0000 2.7636 33.5581
#
#
#
# Elastic Compliance Matrix: (Units=1/GPa)
#
#
# Indices 1 2 3 4 5 6 
#
# 1 0.014220 -0.000786 -0.001460 -0.001287 0.000000 0.000000
# 2 -0.000786 0.014220 -0.001460 0.001287 0.000000 0.000000
# 3 -0.001460 -0.001460 0.018899 0.000000 0.000000 0.000000
# 4 -0.001287 0.001287 0.000000 0.031266 0.000000 0.000000
# 5 0.000000 0.000000 0.000000 0.000000 0.031266 -0.002575
# 6 0.000000 0.000000 0.000000 0.000000 -0.002575 0.030011
#
#
# Mechanical properties :
#
#
# Convention : Reuss Voigt Hill
#
# Bulk Modulus (GPa) = 25.04594 25.40342 25.22468
# Shear Modulus (GPa) = 31.13274 31.63918 31.38596
#
# Velocity S-wave (km/s) = 3.67454 3.70430 3.68945
# Velocity P-wave (km/s) = 5.37265 5.41417 5.39345
#
# Compressibility (1/GPa) = 0.03992663
#
# Stress axis : x y z
#
# Youngs Moduli (GPa) = 70.32380 70.32380 52.91412
#
# Poissons Ratio (x) = 0.05525 0.07726
# Poissons Ratio (y) = 0.05525 0.07726
# Poissons Ratio (z) = 0.10268 0.10268
#
# Static dielectric constant tensor:
#      x y z
#    x 4.222500 0.000000 0.000000 
#    y 0.000000 4.222500 0.000000 
#    z 0.000000 0.000000 4.351830 
# 
# 
# High freq. dielectric constant tensor:
#      x y z
#    x 1.906590 0.000000 0.000000 
#    y 0.000000 1.906590 0.000000 
#    z 0.000000 0.000000 1.925680 
# 
# From -- ./inp_files/3707.got.cif
#   From: 2010.03.12/outbox.cif.g09.slc.cpg/sg152_2_cif.got.tgz:3707.got - 2010.04.03 13:45:27.
