data_PCOD8322089
_publ_section_title
;
Structure prediction by ZEFSAII (Michael W. Deem and Ramdas Pophale) SiO2 
 PCOD8322089
Probable space group: P 31 2 1
;
_chemical_formula_sum "Si O2"
_cell_formula_units_Z 30
_cell_length_a 18.222333
_cell_length_b 18.222333
_cell_length_c 5.168837
_cell_angle_alpha 90.000000
_cell_angle_beta 90.000000
_cell_angle_gamma 120.000000
_cell_volume 1486.385384
_symmetry_space_group_name_H-M "P 31 2 1"
_symmetry_group_IT_number 152
_symmetry_cell_setting 'hexagonal'
loop_
_space_group_symop_operation_xyz
x,y,z
-y,x-y,1/3+z
-x+y,-x,2/3+z
x-y,-y,2/3-z
-x,-x+y,1/3-z
y,x,-z
loop_
_atom_site_type_symbol
_atom_site_label
_atom_site_fract_x
_atom_site_fract_y
_atom_site_fract_z
Si Si1 0.000000 0.681884 0.666667
Si Si2 0.718660 0.175717 0.391422
Si Si3 0.751788 0.574475 0.233982
Si Si4 0.179953 0.943741 0.090684
Si Si5 0.390276 0.637201 0.790014
Si Si6 0.219553 0.219553 0.500000
O O1 0.077746 0.664844 0.682820
O O2 0.017311 0.739965 0.416513
O O3 0.757512 0.189893 0.678965
O O4 0.657047 0.214920 0.347217
O O5 0.794380 0.214594 0.188825
O O6 0.752906 0.662944 0.204478
O O7 0.659019 0.488098 0.233528
O O8 0.082418 0.869162 0.091757
O O9 0.187488 0.000000 0.333334
O O10 0.201283 0.000000 0.833334
O O11 0.332688 0.608248 0.533893
#
# Coordination Sequence:
#
# PCOD8322089 Si02
#       6
#     3   6   6   6   6   3
#     4  12  20  40  66  94 126 164 216 268 308 380
#     4  11  21  36  64  93 127 168 215 269 310 363
#     4  11  22  40  63  94 125 171 213 257 320 392
#     4  12  25  45  68  92 128 167 204 265 336 398
#     4  10  20  36  62  93 130 169 220 259 309 367
#     4  12  24  44  70  94 118 160 216 266 320 402
#
# _framework density 20.18319
#
# number of rings (size 3 to 8) (size 9 to 14) (size 15 to 20)
#    0.000    0.800    6.000    2.400    0.000    0.000 
#    3.600    0.000    2.200    0.000    0.000    0.000 
#    0.000    0.000    0.000    0.000    0.000    0.000 
#
# Total GULP energy -371645.004922 kJ/mol
# GULP energy per Si atom -12388.166831 kJ/mol
# Density = 2.013725 g / cm^3
# Si number density = 20.183190 Si / 1000 Ang^3
#
#
#
# Elastic Constant Matrix: (Units=GPa)
#
#
# Indices 1 2 3 4 5 6 
#
# 1 105.0292 24.1449 24.4228 -2.3660 0.0000 0.0000
# 2 24.1449 105.0292 24.4228 2.3660 0.0000 0.0000
# 3 24.4228 24.4228 100.8470 0.0000 0.0000 0.0000
# 4 -2.3660 2.3660 0.0000 25.6711 0.0000 0.0000
# 5 0.0000 0.0000 0.0000 0.0000 25.6711 -2.3660
# 6 0.0000 0.0000 0.0000 0.0000 -2.3660 40.4422
#
#
#
# Elastic Compliance Matrix: (Units=1/GPa)
#
#
# Indices 1 2 3 4 5 6 
#
# 1 0.010476 -0.001954 -0.002064 0.001146 0.000000 0.000000
# 2 -0.001954 0.010476 -0.002064 -0.001146 0.000000 0.000000
# 3 -0.002064 -0.002064 0.010916 0.000000 0.000000 0.000000
# 4 0.001146 -0.001146 0.000000 0.039165 0.000000 0.000000
# 5 0.000000 0.000000 0.000000 0.000000 0.039165 0.002291
# 6 0.000000 0.000000 0.000000 0.000000 0.002291 0.024861
#
#
# Mechanical properties :
#
#
# Convention : Reuss Voigt Hill
#
# Bulk Modulus (GPa) = 50.75062 50.76515 50.75788
# Shear Modulus (GPa) = 32.51160 34.21788 33.36474
#
# Velocity S-wave (km/s) = 4.01786 4.12195 4.07024
# Velocity P-wave (km/s) = 6.83549 6.91815 6.87694
#
# Compressibility (1/GPa) = 0.01970419
#
# Stress axis : x y z
#
# Youngs Moduli (GPa) = 95.45515 95.45515 91.61180
#
# Poissons Ratio (x) = 0.18654 0.18907
# Poissons Ratio (y) = 0.18654 0.18907
# Poissons Ratio (z) = 0.19700 0.19700
#
# Static dielectric constant tensor:
#      x y z
#    x 3.847820 0.000000 0.000000 
#    y 0.000000 3.847820 0.000000 
#    z 0.000000 0.000000 3.681410 
# 
# 
# High freq. dielectric constant tensor:
#      x y z
#    x 1.780270 0.000000 0.000000 
#    y 0.000000 1.780270 0.000000 
#    z 0.000000 0.000000 1.803670 
# 
# From -- ./inp_files/391.got.cif
#   From: 2010.03.12/outbox.cif.g09.slc.cpg/sg152_1_cif.got.tgz:391.got - 2010.04.03 13:45:27.
