data_PCOD8322746
_publ_section_title
;
Structure prediction by ZEFSAII (Michael W. Deem and Ramdas Pophale) SiO2 
 PCOD8322746
Probable space group: P 3 C 1
;
_chemical_formula_sum "Si O2"
_cell_formula_units_Z 42
_cell_length_a 19.320865
_cell_length_b 19.320865
_cell_length_c 8.648684
_cell_angle_alpha 90.000000
_cell_angle_beta 90.000000
_cell_angle_gamma 120.000000
_cell_volume 2795.978278
_symmetry_space_group_name_H-M "P 3 C 1"
_symmetry_group_IT_number 158
_symmetry_cell_setting 'hexagonal'
loop_
_space_group_symop_operation_xyz
x,y,z
-y,x-y,z
-x+y,-x,z
-x+y,y,1/2+z
x,x-y,1/2+z
-y,-x,1/2+z
loop_
_atom_site_type_symbol
_atom_site_label
_atom_site_fract_x
_atom_site_fract_y
_atom_site_fract_z
Si Si1 0.679448 0.783598 0.659700
Si Si2 0.500078 0.707134 0.718789
Si Si3 0.535353 0.888131 0.728538
Si Si4 0.700414 0.940102 0.800681
Si Si5 0.986153 0.140799 0.173967
Si Si6 0.147248 0.988274 0.808069
Si Si7 0.158015 0.583681 0.474972
O O1 0.588810 0.715258 0.705164
O O2 0.688062 0.868990 0.687566
O O3 0.697010 0.779204 0.479698
O O4 0.750411 0.783964 0.761746
O O5 0.511817 0.794907 0.720084
O O6 0.441868 0.653284 0.579637
O O7 0.454017 0.664662 0.876685
O O8 0.627314 0.953304 0.755783
O O9 0.502176 0.905259 0.573295
O O10 0.489745 0.900163 0.869431
O O11 0.783337 0.016612 0.748874
O O12 0.901483 0.065681 0.212324
O O13 0.058549 0.138173 0.260176
O O14 0.998365 0.147167 0.990598
#
# Coordination Sequence:
#
# PCOD8322746 Si02
#       7
#     6   6   6   6   6   6   6
#     4  10  19  31  49  63  83 116 149 180 219 268
#     4  10  20  33  45  59  86 111 151 188 236 278
#     4  10  20  33  45  59  86 111 151 188 236 278
#     4  10  19  31  49  63  83 116 149 180 219 268
#     4  11  21  33  49  71  93 117 143 183 220 261
#     4  11  21  33  49  71  93 117 143 183 220 261
#     4  10  20  32  42  62  78 112 142 198 232 270
#
# _framework density 15.021575
#
# number of rings (size 3 to 8) (size 9 to 14) (size 15 to 20)
#    0.000    1.714    1.429    6.286    8.000    0.000 
#   17.143    0.000    0.000    0.000    0.000    0.000 
#    0.000    0.000    0.000    0.000    0.000    0.000 
#
# Total GULP energy -520301.170886 kJ/mol
# GULP energy per Si atom -12388.123116 kJ/mol
# Density = 1.498739 g / cm^3
# Si number density = 15.021575 Si / 1000 Ang^3
#
#
#
# Elastic Constant Matrix: (Units=GPa)
#
#
# Indices 1 2 3 4 5 6 
#
# 1 64.5894 42.5803 32.4555 -9.1723 0.0000 0.0000
# 2 42.5803 64.5894 32.4555 9.1723 0.0000 0.0000
# 3 32.4555 32.4555 114.4117 0.0000 0.0000 0.0000
# 4 -9.1723 9.1723 0.0000 -3.9220 0.0000 0.0000
# 5 0.0000 0.0000 0.0000 0.0000 -3.9220 -9.1723
# 6 0.0000 0.0000 0.0000 0.0000 -9.1723 11.0045
#
#
#
# Elastic Compliance Matrix: (Units=1/GPa)
#
#
# Indices 1 2 3 4 5 6 
#
# 1 0.013336 -0.002070 -0.003196 -0.036029 0.000000 0.000000
# 2 -0.002070 0.013336 -0.003196 0.036029 0.000000 0.000000
# 3 -0.003196 -0.003196 0.010554 0.000000 0.000000 0.000000
# 4 -0.036029 0.036029 0.000000 -0.086452 0.000000 0.000000
# 5 0.000000 0.000000 0.000000 0.000000 -0.086452 -0.072058
# 6 0.000000 0.000000 0.000000 0.000000 -0.072058 0.030812
#
#
# Mechanical properties :
#
#
# Convention : Reuss Voigt Hill
#
# Bulk Modulus (GPa) = 49.25400 50.95259 50.10329
# Shear Modulus (GPa) = -61.59535 9.70536 -25.94499
#
# Velocity S-wave (km/s) = -6.41043 2.54460 -4.16045
# Velocity P-wave (km/s) = 4.68310 6.52890 3.21676
#
# Compressibility (1/GPa) = 0.02030292
#
# Stress axis : x y z
#
# Youngs Moduli (GPa) = 74.98306 74.98306 94.75387
#
# Poissons Ratio (x) = 0.15518 0.30284
# Poissons Ratio (y) = 0.15518 0.30284
# Poissons Ratio (z) = 0.23965 0.23965
#
# Static dielectric constant tensor:
#      x y z
#    x 3.061080 0.000000 0.000000 
#    y 0.000000 3.061080 0.000000 
#    z 0.000000 0.000000 3.211130 
# 
# 
# High freq. dielectric constant tensor:
#      x y z
#    x 1.541420 0.000000 0.000000 
#    y 0.000000 1.541420 0.000000 
#    z 0.000000 0.000000 1.606710 
# 
# From -- ./inp_files/243.got.cif
#   From: 2010.03.12/outbox.cif.g09.slc.cpg/sg158_cif.got.tgz:243.got - 2010.04.03 13:59:47.
