data_PCOD8322356
_publ_section_title
;
Structure prediction by ZEFSAII (Michael W. Deem and Ramdas Pophale) SiO2 
 PCOD8322356
Probable space group: P 32 2 1
;
_chemical_formula_sum "Si O2"
_cell_formula_units_Z 30
_cell_length_a 11.656974
_cell_length_b 11.656974
_cell_length_c 14.558421
_cell_angle_alpha 90.000000
_cell_angle_beta 90.000000
_cell_angle_gamma 120.000000
_cell_volume 1713.233514
_symmetry_space_group_name_H-M "P 32 2 1"
_symmetry_group_IT_number 154
_symmetry_cell_setting 'hexagonal'
loop_
_space_group_symop_operation_xyz
x,y,z
-y,x-y,2/3+z
-x+y,-x,1/3+z
x-y,-y,1/3-z
-x,-x+y,2/3-z
y,x,-z
loop_
_atom_site_type_symbol
_atom_site_label
_atom_site_fract_x
_atom_site_fract_y
_atom_site_fract_z
Si Si1 0.730098 0.271592 0.892572
Si Si2 0.486719 0.000000 0.666667
Si Si3 0.284653 0.720124 0.609486
Si Si4 0.674131 0.674131 0.500000
Si Si5 0.979915 0.627131 0.153433
Si Si6 0.948689 0.841664 0.433035
O O1 0.652652 0.291147 0.810132
O O2 0.888563 0.351176 0.877204
O O3 0.678127 0.115589 0.903233
O O4 0.702550 0.328613 0.983514
O O5 0.345526 0.869983 0.647287
O O6 0.548644 0.970795 0.754917
O O7 0.134119 0.671156 0.584074
O O8 0.794056 0.722988 0.424804
O O9 0.963525 0.749872 0.187097
O O10 0.956963 0.956963 0.500000
O O11 0.000000 0.901842 0.333334
#
# Coordination Sequence:
#
# PCOD8322356 Si02
#       6
#     6   3   6   3   6   6
#     4  10  22  38  60  87 119 153 201 240 303 354
#     4  10  20  40  56  86 112 158 198 236 302 352
#     4  11  22  38  60  90 117 157 195 255 290 358
#     4   8  20  36  58  84 112 156 196 234 300 354
#     4  10  20  39  61  82 120 155 199 238 295 358
#     4   9  18  37  61  84 115 153 199 237 284 355
#
# _framework density 17.510748
#
# number of rings (size 3 to 8) (size 9 to 14) (size 15 to 20)
#    0.600    1.600    3.000    0.000    2.800    0.000 
#    5.400    0.000    0.000    0.000    0.000    0.000 
#    0.000    0.000    0.000    0.000    0.000    0.000 
#
# Total GULP energy -371864.056031 kJ/mol
# GULP energy per Si atom -12395.468534 kJ/mol
# Density = 1.747089 g / cm^3
# Si number density = 17.510748 Si / 1000 Ang^3
#
#
#
# Elastic Constant Matrix: (Units=GPa)
#
#
# Indices 1 2 3 4 5 6 
#
# 1 171.5124 -33.6318 48.1718 13.3139 -0.0003 0.0000
# 2 -33.6318 171.5124 48.1718 -13.3139 0.0003 0.0000
# 3 48.1718 48.1718 105.2308 0.0000 0.0000 0.0000
# 4 13.3139 -13.3139 0.0000 20.9919 0.0000 0.0003
# 5 -0.0003 0.0003 0.0000 0.0000 20.9919 13.3139
# 6 0.0000 0.0000 0.0000 0.0003 13.3139 102.5721
#
#
#
# Elastic Compliance Matrix: (Units=1/GPa)
#
#
# Indices 1 2 3 4 5 6 
#
# 1 0.007988 0.002676 -0.004882 -0.003369 0.000000 0.000000
# 2 0.002676 0.007988 -0.004882 0.003369 0.000000 0.000000
# 3 -0.004882 -0.004882 0.013972 0.000000 0.000000 0.000000
# 4 -0.003369 0.003369 0.000000 0.051911 0.000000 0.000000
# 5 0.000000 0.000000 0.000000 0.000000 0.051911 -0.006738
# 6 0.000000 0.000000 0.000000 0.000000 -0.006738 0.010624
#
#
# Mechanical properties :
#
#
# Convention : Reuss Voigt Hill
#
# Bulk Modulus (GPa) = 63.39816 63.74213 63.57015
# Shear Modulus (GPa) = 30.52030 54.61412 42.56721
#
# Velocity S-wave (km/s) = 4.17939 5.59076 4.93578
# Velocity P-wave (km/s) = 7.71839 8.84060 8.29849
#
# Compressibility (1/GPa) = 0.01577333
#
# Stress axis : x y z
#
# Youngs Moduli (GPa) = 125.19161 125.19161 71.57087
#
# Poissons Ratio (x) = -0.33499 0.34937
# Poissons Ratio (y) = -0.33499 0.34937
# Poissons Ratio (z) = 0.61112 0.61112
#
# Static dielectric constant tensor:
#      x y z
#    x 3.175880 0.000000 0.000000 
#    y 0.000000 3.175880 0.000000 
#    z 0.000000 0.000000 3.312880 
# 
# 
# High freq. dielectric constant tensor:
#      x y z
#    x 1.674230 0.000000 0.000000 
#    y 0.000000 1.674230 0.000000 
#    z 0.000000 0.000000 1.668780 
# 
# From -- ./inp_files/1915.got.cif
#   From: 2010.03.12/outbox.cif.g09.slc.cpg/sg154_1_cif.got.tgz:1915.got - 2010.04.03 13:51:21.
