data_PCOD8322222
_publ_section_title
;
Structure prediction by ZEFSAII (Michael W. Deem and Ramdas Pophale) SiO2 
 PCOD8322222
Probable space group: P 31 2 1
;
_chemical_formula_sum "Si O2"
_cell_formula_units_Z 12
_cell_length_a 4.995652
_cell_length_b 4.995652
_cell_length_c 24.903610
_cell_angle_alpha 90.000000
_cell_angle_beta 90.000000
_cell_angle_gamma 120.000000
_cell_volume 538.241640
_symmetry_space_group_name_H-M "P 31 2 1"
_symmetry_group_IT_number 152
_symmetry_cell_setting 'hexagonal'
loop_
_space_group_symop_operation_xyz
x,y,z
-y,x-y,1/3+z
-x+y,-x,2/3+z
x-y,-y,2/3-z
-x,-x+y,1/3-z
y,x,-z
loop_
_atom_site_type_symbol
_atom_site_label
_atom_site_fract_x
_atom_site_fract_y
_atom_site_fract_z
Si Si1 0.290922 0.668358 0.854349
Si Si2 0.291487 0.623114 0.978978
O O1 0.508358 0.575333 0.821620
O O2 0.371449 0.685695 0.916650
O O3 0.358495 0.000000 0.833334
O O4 0.359028 0.359028 0.000000
O O5 0.933792 0.509414 0.988389
#
# Coordination Sequence:
#
# PCOD8322222 Si02
#       2
#     6   6
#     4  12  25  44  67  96 130 170 214 264 319 380
#     4  12  25  44  67  96 130 170 214 264 319 380
#
# _framework density 22.294815
#
# number of rings (size 3 to 8) (size 9 to 14) (size 15 to 20)
#    0.000    0.000    0.000   12.000    0.000    0.000 
#    0.000    0.000    0.000    0.000    0.000    0.000 
#    0.000    0.000    0.000    0.000    0.000    0.000 
#
# Total GULP energy -148964.623451 kJ/mol
# GULP energy per Si atom -12413.718621 kJ/mol
# Density = 2.224407 g / cm^3
# Si number density = 22.294815 Si / 1000 Ang^3
#
#
#
# Elastic Constant Matrix: (Units=GPa)
#
#
# Indices 1 2 3 4 5 6 
#
# 1 90.7839 24.7438 24.1140 -0.0468 0.0002 0.0000
# 2 24.7438 90.7839 24.1140 0.0468 -0.0002 0.0000
# 3 24.1140 24.1140 101.5963 0.0000 0.0000 0.0000
# 4 -0.0468 0.0468 0.0000 32.6772 0.0000 -0.0002
# 5 0.0002 -0.0002 0.0000 0.0000 32.6772 -0.0468
# 6 0.0000 0.0000 0.0000 -0.0002 -0.0468 33.0201
#
#
#
# Elastic Compliance Matrix: (Units=1/GPa)
#
#
# Indices 1 2 3 4 5 6 
#
# 1 0.012375 -0.002767 -0.002280 0.000022 0.000000 0.000000
# 2 -0.002767 0.012375 -0.002280 -0.000022 0.000000 0.000000
# 3 -0.002280 -0.002280 0.010925 0.000000 0.000000 0.000000
# 4 0.000022 -0.000022 0.000000 0.030602 0.000000 0.000000
# 5 0.000000 0.000000 0.000000 0.000000 0.030602 0.000043
# 6 0.000000 0.000000 0.000000 0.000000 0.000043 0.030285
#
#
# Mechanical properties :
#
#
# Convention : Reuss Voigt Hill
#
# Bulk Modulus (GPa) = 47.57494 47.67861 47.62678
# Shear Modulus (GPa) = 33.59586 33.68774 33.64180
#
# Velocity S-wave (km/s) = 3.88608 3.89139 3.88874
# Velocity P-wave (km/s) = 6.44367 6.45155 6.44761
#
# Compressibility (1/GPa) = 0.02101947
#
# Stress axis : x y z
#
# Youngs Moduli (GPa) = 80.80722 80.80722 91.52975
#
# Poissons Ratio (x) = 0.22361 0.20873
# Poissons Ratio (y) = 0.22361 0.20873
# Poissons Ratio (z) = 0.18428 0.18428
#
# Static dielectric constant tensor:
#      x y z
#    x 3.997090 0.000000 0.000000 
#    y 0.000000 3.997090 0.000000 
#    z 0.000000 0.000000 4.085610 
# 
# 
# High freq. dielectric constant tensor:
#      x y z
#    x 1.887930 0.000000 0.000000 
#    y 0.000000 1.887930 0.000000 
#    z 0.000000 0.000000 1.895120 
# 
# From -- ./inp_files/2539.got.cif
#   From: 2010.03.12/outbox.cif.g09.slc.cpg/sg152_2_cif.got.tgz:2539.got - 2010.04.03 13:45:27.
