data_PCOD8322197
_publ_section_title
;
Structure prediction by ZEFSAII (Michael W. Deem and Ramdas Pophale) SiO2 
 PCOD8322197
Probable space group: P 31 2 1
;
_chemical_formula_sum "Si O2"
_cell_formula_units_Z 36
_cell_length_a 12.519968
_cell_length_b 12.519968
_cell_length_c 13.610410
_cell_angle_alpha 90.000000
_cell_angle_beta 90.000000
_cell_angle_gamma 120.000000
_cell_volume 1847.601378
_symmetry_space_group_name_H-M "P 31 2 1"
_symmetry_group_IT_number 152
_symmetry_cell_setting 'hexagonal'
loop_
_space_group_symop_operation_xyz
x,y,z
-y,x-y,1/3+z
-x+y,-x,2/3+z
x-y,-y,2/3-z
-x,-x+y,1/3-z
y,x,-z
loop_
_atom_site_type_symbol
_atom_site_label
_atom_site_fract_x
_atom_site_fract_y
_atom_site_fract_z
Si Si1 0.620270 0.312656 0.305608
Si Si2 0.095967 0.311232 0.253051
Si Si3 0.134533 0.126216 0.384821
Si Si4 0.393135 0.934803 0.080449
Si Si5 0.373617 0.117249 0.395943
Si Si6 0.645044 0.175422 0.124625
O O1 0.595782 0.408887 0.247158
O O2 0.506719 0.232464 0.376494
O O3 0.637889 0.225457 0.230454
O O4 0.741835 0.383466 0.370452
O O5 0.109690 0.227351 0.335410
O O6 0.047714 0.395189 0.306689
O O7 0.231128 0.397815 0.207911
O O8 0.000000 0.232401 0.166667
O O9 0.107887 0.107887 0.500000
O O10 0.275503 0.159946 0.369179
O O11 0.040672 0.000000 0.333334
O O12 0.289304 0.921984 0.157438
O O13 0.527501 0.042865 0.107845
O O14 0.350995 0.000000 0.333334
#
# Coordination Sequence:
#
# PCOD8322197 Si02
#       6
#     6   6   6   6   6   6
#     4  11  22  38  61  89 126 162 206 259 315 374
#     4  11  24  44  64  91 130 168 211 260 318 377
#     4  11  23  41  66  93 123 165 212 259 310 379
#     4  11  22  40  63  92 126 163 208 258 314 379
#     4  11  21  38  64  90 122 161 204 259 313 371
#     4  11  23  39  61  92 123 165 212 259 316 383
#
# _framework density 19.484722999999999
#
# number of rings (size 3 to 8) (size 9 to 14) (size 15 to 20)
#    0.000    1.000    5.000    2.500    0.000    0.000 
#    0.000    0.833    3.667    0.000    0.000    0.000 
#    0.000    0.000    0.000    0.000    0.000    0.000 
#
# Total GULP energy -446472.166058 kJ/mol
# GULP energy per Si atom -12402.004613 kJ/mol
# Density = 1.944037 g / cm^3
# Si number density = 19.484723 Si / 1000 Ang^3
#
#
#
# Elastic Constant Matrix: (Units=GPa)
#
#
# Indices 1 2 3 4 5 6 
#
# 1 73.7382 46.3058 34.4943 -7.1747 0.0000 0.0000
# 2 46.3058 73.7382 34.4943 7.1747 0.0000 0.0000
# 3 34.4943 34.4943 99.0101 0.0000 0.0000 0.0000
# 4 -7.1747 7.1747 0.0000 34.8994 0.0000 0.0000
# 5 0.0000 0.0000 0.0000 0.0000 34.8994 -7.1747
# 6 0.0000 0.0000 0.0000 0.0000 -7.1747 13.7162
#
#
#
# Elastic Compliance Matrix: (Units=1/GPa)
#
#
# Indices 1 2 3 4 5 6 
#
# 1 0.025631 -0.015215 -0.003629 0.008397 0.000000 0.000000
# 2 -0.015215 0.025631 -0.003629 -0.008397 0.000000 0.000000
# 3 -0.003629 -0.003629 0.012628 0.000000 0.000000 0.000000
# 4 0.008397 -0.008397 0.000000 0.032106 0.000000 0.000000
# 5 0.000000 0.000000 0.000000 0.000000 0.032106 0.016794
# 6 0.000000 0.000000 0.000000 0.000000 0.016794 0.081691
#
#
# Mechanical properties :
#
#
# Convention : Reuss Voigt Hill
#
# Bulk Modulus (GPa) = 52.78478 53.00835 52.89656
# Shear Modulus (GPa) = 19.15312 25.44915 22.30113
#
# Velocity S-wave (km/s) = 3.13865 3.61793 3.38678
# Velocity P-wave (km/s) = 6.34697 6.68706 6.51923
#
# Compressibility (1/GPa) = 0.01894486
#
# Stress axis : x y z
#
# Youngs Moduli (GPa) = 39.01569 39.01569 79.18646
#
# Poissons Ratio (x) = 0.59362 0.28735
# Poissons Ratio (y) = 0.59362 0.28735
# Poissons Ratio (z) = 0.14158 0.14158
#
# Static dielectric constant tensor:
#      x y z
#    x 3.534390 0.000000 0.000000 
#    y 0.000000 3.534390 0.000000 
#    z 0.000000 0.000000 3.764690 
# 
# 
# High freq. dielectric constant tensor:
#      x y z
#    x 1.762800 0.000000 0.000000 
#    y 0.000000 1.762800 0.000000 
#    z 0.000000 0.000000 1.770000 
# 
# From -- ./inp_files/2033.got.cif
#   From: 2010.03.12/outbox.cif.g09.slc.cpg/sg152_2_cif.got.tgz:2033.got - 2010.04.03 13:45:27.
