data_PCOD8322181
_publ_section_title
;
Structure prediction by ZEFSAII (Michael W. Deem and Ramdas Pophale) SiO2 
 PCOD8322181
Probable space group: P 31 2 1
;
_chemical_formula_sum "Si O2"
_cell_formula_units_Z 33
_cell_length_a 11.435152
_cell_length_b 11.435152
_cell_length_c 15.760550
_cell_angle_alpha 90.000000
_cell_angle_beta 90.000000
_cell_angle_gamma 120.000000
_cell_volume 1784.784906
_symmetry_space_group_name_H-M "P 31 2 1"
_symmetry_group_IT_number 152
_symmetry_cell_setting 'hexagonal'
loop_
_space_group_symop_operation_xyz
x,y,z
-y,x-y,1/3+z
-x+y,-x,2/3+z
x-y,-y,2/3-z
-x,-x+y,1/3-z
y,x,-z
loop_
_atom_site_type_symbol
_atom_site_label
_atom_site_fract_x
_atom_site_fract_y
_atom_site_fract_z
Si Si1 0.109208 0.689015 0.522008
Si Si2 0.509522 0.590575 0.580606
Si Si3 0.726533 0.437832 0.969637
Si Si4 0.469302 0.000000 0.333334
Si Si5 0.860403 0.712081 0.506781
Si Si6 0.829257 0.283749 0.328584
O O1 0.176743 0.651935 0.444901
O O2 0.027335 0.561507 0.583517
O O3 0.231451 0.807938 0.575063
O O4 0.009417 0.739179 0.483945
O O5 0.498017 0.498017 0.500000
O O6 0.363294 0.556598 0.611717
O O7 0.598042 0.748368 0.555146
O O8 0.580547 0.554164 0.656916
O O9 0.676011 0.546231 0.980992
O O10 0.599353 0.287894 0.960935
O O11 0.847859 0.847859 0.500000
O O12 0.831045 0.660253 0.603248
#
# Coordination Sequence:
#
# PCOD8322181 Si02
#       6
#     6   6   6   3   6   6
#     4  11  20  35  62  85 115 153 191 244 294 343
#     4   9  22  36  57  83 122 150 197 241 293 352
#     4  11  23  34  63  81 122 152 195 248 291 359
#     4  10  24  38  54  90 120 150 204 242 294 360
#     4   9  18  37  57  81 115 148 193 236 280 355
#     4   9  20  36  53  89 110 147 196 240 291 338
#
# _framework density 18.489622000000001
#
# number of rings (size 3 to 8) (size 9 to 14) (size 15 to 20)
#    0.000    2.545    3.636    0.000   15.273    0.000 
#    0.000    0.000    8.000    0.000    0.000    0.000 
#    0.000    0.000    0.000    0.000    0.000    0.000 
#
# Total GULP energy -408988.937784 kJ/mol
# GULP energy per Si atom -12393.604175 kJ/mol
# Density = 1.844754 g / cm^3
# Si number density = 18.489622 Si / 1000 Ang^3
#
#
#
# Elastic Constant Matrix: (Units=GPa)
#
#
# Indices 1 2 3 4 5 6 
#
# 1 84.1453 40.6581 40.1595 -7.4020 0.0001 0.0000
# 2 40.6581 84.1453 40.1595 7.4020 -0.0001 0.0000
# 3 40.1595 40.1595 88.1242 0.0000 0.0000 0.0000
# 4 -7.4020 7.4020 0.0000 27.0315 0.0000 -0.0001
# 5 0.0001 -0.0001 0.0000 0.0000 27.0315 -7.4020
# 6 0.0000 0.0000 0.0000 -0.0001 -7.4020 21.7436
#
#
#
# Elastic Compliance Matrix: (Units=1/GPa)
#
#
# Indices 1 2 3 4 5 6 
#
# 1 0.018349 -0.007011 -0.005167 0.006944 0.000000 0.000000
# 2 -0.007011 0.018349 -0.005167 -0.006944 0.000000 0.000000
# 3 -0.005167 -0.005167 0.016057 0.000000 0.000000 0.000000
# 4 0.006944 -0.006944 0.000000 0.040797 0.000000 0.000000
# 5 0.000000 0.000000 0.000000 0.000000 0.040797 0.013888
# 6 0.000000 0.000000 0.000000 0.000000 0.013888 0.050718
#
#
# Mechanical properties :
#
#
# Convention : Reuss Voigt Hill
#
# Bulk Modulus (GPa) = 55.35519 55.37436 55.36477
# Shear Modulus (GPa) = 22.14581 24.19050 23.16816
#
# Velocity S-wave (km/s) = 3.46460 3.62101 3.54366
# Velocity P-wave (km/s) = 6.78293 6.89175 6.83755
#
# Compressibility (1/GPa) = 0.01806515
#
# Stress axis : x y z
#
# Youngs Moduli (GPa) = 54.50037 54.50037 62.27890
#
# Poissons Ratio (x) = 0.38209 0.32178
# Poissons Ratio (y) = 0.38209 0.32178
# Poissons Ratio (z) = 0.28159 0.28159
#
# Static dielectric constant tensor:
#      x y z
#    x 3.371310 0.000000 0.000000 
#    y 0.000000 3.371310 0.000000 
#    z 0.000000 0.000000 3.296310 
# 
# 
# High freq. dielectric constant tensor:
#      x y z
#    x 1.702480 0.000000 0.000000 
#    y 0.000000 1.702480 0.000000 
#    z 0.000000 0.000000 1.713350 
# 
# From -- ./inp_files/2372.got.cif
#   From: 2010.03.12/outbox.cif.g09.slc.cpg/sg152_2_cif.got.tgz:2372.got - 2010.04.03 13:45:27.
