data_PCOD8322804
_publ_section_title
;
Structure prediction by ZEFSAII (Michael W. Deem and Ramdas Pophale) SiO2 
 PCOD8322804
Probable space group: P 3 1 C
;
_chemical_formula_sum "Si O2"
_cell_formula_units_Z 28
_cell_length_a 13.852955
_cell_length_b 13.852955
_cell_length_c 8.520931
_cell_angle_alpha 90.000000
_cell_angle_beta 90.000000
_cell_angle_gamma 120.000000
_cell_volume 1416.128056
_symmetry_space_group_name_H-M "P 3 1 C"
_symmetry_group_IT_number 159
_symmetry_cell_setting 'hexagonal'
loop_
_space_group_symop_operation_xyz
x,y,z
-y,x-y,z
-x+y,-x,z
y,x,1/2+z
x-y,-y,1/2+z
-x,-x+y,1/2+z
loop_
_atom_site_type_symbol
_atom_site_label
_atom_site_fract_x
_atom_site_fract_y
_atom_site_fract_z
Si Si1 0.118283 0.670869 0.439260
Si Si2 0.881913 0.119000 0.811407
Si Si3 0.118998 0.881911 0.939818
Si Si4 0.552587 0.881720 0.811962
Si Si5 0.666668 0.333335 0.311468
Si Si6 0.666668 0.333334 0.939765
O O1 0.147271 0.789763 0.371358
O O2 0.112700 0.675221 0.625612
O O3 0.214451 0.646578 0.379294
O O4 0.000002 0.573142 0.375609
O O5 0.881932 0.116641 0.625613
O O6 0.000002 0.214537 0.875610
O O7 0.857768 0.000002 0.875616
O O8 0.147264 0.789759 0.879867
O O9 0.432128 0.785552 0.871935
O O10 0.666668 0.333334 0.125616
#
# Coordination Sequence:
#
# PCOD8322804 Si02
#       6
#     6   6   6   6   2   2
#     4  10  20  38  58  82 112 146 184 230 277 327
#     4  11  21  35  54  81 113 149 187 231 278 330
#     4  11  21  35  54  81 113 149 187 231 278 330
#     4  10  20  38  58  82 112 146 184 230 277 327
#     4   9  21  39  61  83 112 147 184 227 277 327
#     4   9  21  39  61  83 112 147 184 227 277 327
#
# _framework density 19.772221999999999
#
# number of rings (size 3 to 8) (size 9 to 14) (size 15 to 20)
#    0.000    1.714    0.000    8.143    0.000    1.714 
#    0.000   12.857    0.000    0.000    0.000    0.000 
#    0.000    0.000    0.000    0.000    0.000    0.000 
#
# Total GULP energy -347272.906024 kJ/mol
# GULP energy per Si atom -12402.603787 kJ/mol
# Density = 1.972722 g / cm^3
# Si number density = 19.772222 Si / 1000 Ang^3
#
#
#
# Elastic Constant Matrix: (Units=GPa)
#
#
# Indices 1 2 3 4 5 6 
#
# 1 146.9068 92.2335 46.2361 0.0000 -0.0011 0.0000
# 2 92.2335 146.9082 46.2362 0.0000 0.0011 0.0013
# 3 46.2361 46.2362 141.4092 -0.0001 0.0000 0.0000
# 4 0.0000 0.0000 -0.0001 24.9989 -0.0001 0.0011
# 5 -0.0011 0.0011 0.0000 -0.0001 24.9990 0.0000
# 6 0.0000 0.0013 0.0000 0.0011 0.0000 27.3377
#
#
#
# Elastic Compliance Matrix: (Units=1/GPa)
#
#
# Indices 1 2 3 4 5 6 
#
# 1 0.011539 -0.006752 -0.001565 0.000000 0.000001 0.000000
# 2 -0.006752 0.011538 -0.001565 0.000000 -0.000001 -0.000001
# 3 -0.001565 -0.001565 0.008095 0.000000 0.000000 0.000000
# 4 0.000000 0.000000 0.000000 0.040002 0.000000 -0.000002
# 5 0.000001 -0.000001 0.000000 0.000000 0.040002 0.000000
# 6 0.000000 -0.000001 0.000000 -0.000002 0.000000 0.036579
#
#
# Mechanical properties :
#
#
# Convention : Reuss Voigt Hill
#
# Bulk Modulus (GPa) = 87.65543 89.40399 88.52971
# Shear Modulus (GPa) = 29.18485 32.16836 30.67661
#
# Velocity S-wave (km/s) = 3.84611 4.03792 3.94318
# Velocity P-wave (km/s) = 8.00951 8.18870 8.09960
#
# Compressibility (1/GPa) = 0.01140831
#
# Stress axis : x y z
#
# Youngs Moduli (GPa) = 86.66563 86.66655 123.53035
#
# Poissons Ratio (x) = 0.58515 0.19334
# Poissons Ratio (y) = 0.58514 0.19334
# Poissons Ratio (z) = 0.13565 0.13564
#
# Static dielectric constant tensor:
#      x y z
#    x 3.292770 0.000010 0.000000 
#    y 0.000010 3.292780 -0.000010 
#    z 0.000000 -0.000010 3.609670 
# 
# 
# High freq. dielectric constant tensor:
#      x y z
#    x 1.771230 0.000000 0.000000 
#    y 0.000000 1.771230 0.000000 
#    z 0.000000 0.000000 1.777700 
# 
# From -- ./inp_files/369.got.cif
#   From: 2010.03.12/outbox.cif.g09.slc.cpg/sg159_cif.got.tgz:369.got - 2010.04.03 14:00:19.
