data_PCOD8322436
_publ_section_title
;
Structure prediction by ZEFSAII (Michael W. Deem and Ramdas Pophale) SiO2 
 PCOD8322436
Probable space group: P 32 2 1
;
_chemical_formula_sum "Si O2"
_cell_formula_units_Z 42
_cell_length_a 8.814561
_cell_length_b 8.814561
_cell_length_c 28.708358
_cell_angle_alpha 90.000000
_cell_angle_beta 90.000000
_cell_angle_gamma 120.000000
_cell_volume 1931.703026
_symmetry_space_group_name_H-M "P 32 2 1"
_symmetry_group_IT_number 154
_symmetry_cell_setting 'hexagonal'
loop_
_space_group_symop_operation_xyz
x,y,z
-y,x-y,2/3+z
-x+y,-x,1/3+z
x-y,-y,1/3-z
-x,-x+y,2/3-z
y,x,-z
loop_
_atom_site_type_symbol
_atom_site_label
_atom_site_fract_x
_atom_site_fract_y
_atom_site_fract_z
Si Si1 0.319861 0.059999 0.809492
Si Si2 0.773007 0.779605 0.594361
Si Si3 0.056081 0.000000 0.666667
Si Si4 0.556693 0.397822 0.398336
Si Si5 0.062823 0.000000 0.166667
Si Si6 0.471761 0.930722 0.886454
Si Si7 0.213009 0.383230 0.393977
Si Si8 0.673659 0.233616 0.958954
O O1 0.163257 0.033995 0.843671
O O2 0.405747 0.257739 0.792147
O O3 0.437724 0.002283 0.838280
O O4 0.251146 0.944185 0.763493
O O5 0.573215 0.743918 0.589078
O O6 0.854238 0.807980 0.543404
O O7 0.737090 0.601995 0.618293
O O8 0.909530 0.939139 0.626324
O O9 0.244897 0.155220 0.648945
O O10 0.535395 0.227649 0.422602
O O11 0.388747 0.406036 0.417619
O O12 0.548494 0.391372 0.342857
O O13 0.546777 0.094502 0.921170
O O14 0.258805 0.578513 0.377820
#
# Coordination Sequence:
#
# PCOD8322436 Si02
#       8
#     6   6   3   6   3   6   6   6
#     4  12  27  45  70 102 140 197 231 300 362 435
#     4  11  25  43  74 102 142 187 242 297 361 437
#     4  12  22  46  72 106 142 192 246 312 354 436
#     4  11  26  44  74 103 141 188 241 297 369 434
#     4  12  24  44  68  98 138 188 242 282 360 438
#     4  12  26  47  69 105 153 179 244 302 369 438
#     4  11  24  44  75  99 139 192 245 290 368 433
#     4  11  23  46  71 108 137 189 237 302 364 442
#
# _framework density 21.742470999999998
#
# number of rings (size 3 to 8) (size 9 to 14) (size 15 to 20)
#    0.000    0.571    4.286    3.429    4.000    2.286 
#    2.571    0.000    0.000    0.000    0.000    0.000 
#    0.000    0.000    0.000    0.000    0.000    0.000 
#
# Total GULP energy -520636.252048 kJ/mol
# GULP energy per Si atom -12396.101239 kJ/mol
# Density = 2.169298 g / cm^3
# Si number density = 21.742471 Si / 1000 Ang^3
#
#
#
# Elastic Constant Matrix: (Units=GPa)
#
#
# Indices 1 2 3 4 5 6 
#
# 1 116.2156 50.9227 28.3044 -1.3276 -0.0001 0.0000
# 2 50.9227 116.2156 28.3044 1.3276 0.0001 0.0000
# 3 28.3044 28.3044 94.5547 0.0000 0.0000 0.0000
# 4 -1.3276 1.3276 0.0000 29.5763 0.0000 0.0001
# 5 -0.0001 0.0001 0.0000 0.0000 29.5763 -1.3276
# 6 0.0000 0.0000 0.0000 0.0001 -1.3276 32.6465
#
#
#
# Elastic Compliance Matrix: (Units=1/GPa)
#
#
# Indices 1 2 3 4 5 6 
#
# 1 0.011001 -0.004343 -0.001993 0.000689 0.000000 0.000000
# 2 -0.004343 0.011001 -0.001993 -0.000689 0.000000 0.000000
# 3 -0.001993 -0.001993 0.011769 0.000000 0.000000 0.000000
# 4 0.000689 -0.000689 0.000000 0.033873 0.000000 0.000000
# 5 0.000000 0.000000 0.000000 0.000000 0.033873 0.001377
# 6 0.000000 0.000000 0.000000 0.000000 0.001377 0.030687
#
#
# Mechanical properties :
#
#
# Convention : Reuss Voigt Hill
#
# Bulk Modulus (GPa) = 58.43489 60.22767 59.33128
# Shear Modulus (GPa) = 32.34874 32.99011 32.66943
#
# Velocity S-wave (km/s) = 3.86140 3.89949 3.88050
# Velocity P-wave (km/s) = 6.84214 6.93075 6.88659
#
# Compressibility (1/GPa) = 0.01711306
#
# Stress axis : x y z
#
# Youngs Moduli (GPa) = 90.90204 90.90204 84.96817
#
# Poissons Ratio (x) = 0.39476 0.16935
# Poissons Ratio (y) = 0.39476 0.16935
# Poissons Ratio (z) = 0.18117 0.18117
#
# Static dielectric constant tensor:
#      x y z
#    x 4.268480 0.000000 0.000000 
#    y 0.000000 4.268480 0.000000 
#    z 0.000000 0.000000 3.914840 
# 
# 
# High freq. dielectric constant tensor:
#      x y z
#    x 1.865430 0.000000 0.000000 
#    y 0.000000 1.865430 0.000000 
#    z 0.000000 0.000000 1.852720 
# 
# From -- ./inp_files/3827.got.cif
#   From: 2010.03.12/outbox.cif.g09.slc.cpg/sg154_2_cif.got.tgz:3827.got - 2010.04.03 13:51:21.
