data_PCOD8322285
_publ_section_title
;
Structure prediction by ZEFSAII (Michael W. Deem and Ramdas Pophale) SiO2 
 PCOD8322285
Probable space group: P 32 1 2
;
_chemical_formula_sum "Si O2"
_cell_formula_units_Z 18
_cell_length_a 11.050281
_cell_length_b 11.050281
_cell_length_c 6.522938
_cell_angle_alpha 90.000000
_cell_angle_beta 90.000000
_cell_angle_gamma 120.000000
_cell_volume 689.795769
_symmetry_space_group_name_H-M "P 32 1 2"
_symmetry_group_IT_number 153
_symmetry_cell_setting 'hexagonal'
loop_
_space_group_symop_operation_xyz
x,y,z
-y,x-y,2/3+z
-x+y,-x,1/3+z
-y,-x,1/3-z
-x+y,y,2/3-z
x,x-y,-z
loop_
_atom_site_type_symbol
_atom_site_label
_atom_site_fract_x
_atom_site_fract_y
_atom_site_fract_z
Si Si1 0.305333 0.289096 0.497284
Si Si2 0.210051 0.242750 0.042649
Si Si3 0.465461 0.602225 0.405184
O O1 0.374329 0.187165 0.500000
O O2 0.247727 0.284221 0.274767
O O3 0.173794 0.230868 0.658778
O O4 0.403095 0.456456 0.535077
O O5 0.333459 0.367073 0.910559
O O6 0.196422 0.098211 0.000000
O O7 0.422610 0.711305 0.500000
O O8 0.419127 0.580873 0.166667
#
# Coordination Sequence:
#
# PCOD8322285 Si02
#       3
#     6   6   6
#     4  10  24  43  67 105 147 186 249 314 373 454
#     4  10  24  43  70 100 138 192 248 303 371 443
#     4  10  24  48  75 111 151 196 258 313 382 460
#
# _framework density 26.09468
#
# number of rings (size 3 to 8) (size 9 to 14) (size 15 to 20)
#    0.000    2.000    0.000    0.000    9.333   10.667 
#    6.000    5.000    0.000    0.000    0.000    0.000 
#    0.000    0.000    0.000    0.000    0.000    0.000 
#
# Total GULP energy -223012.753286 kJ/mol
# GULP energy per Si atom -12389.597405 kJ/mol
# Density = 2.603529 g / cm^3
# Si number density = 26.094680 Si / 1000 Ang^3
#
#
#
# Elastic Constant Matrix: (Units=GPa)
#
#
# Indices 1 2 3 4 5 6 
#
# 1 216.9420 139.6542 62.5838 -0.0008 3.5888 0.0000
# 2 139.6542 216.9420 62.5838 0.0008 -3.5888 0.0000
# 3 62.5838 62.5838 54.0166 0.0000 0.0000 0.0000
# 4 -0.0008 0.0008 0.0000 35.1684 0.0000 -3.5888
# 5 3.5888 -3.5888 0.0000 0.0000 35.1684 -0.0008
# 6 0.0000 0.0000 0.0000 -3.5888 -0.0008 38.6439
#
#
#
# Elastic Compliance Matrix: (Units=1/GPa)
#
#
# Indices 1 2 3 4 5 6 
#
# 1 0.008894 -0.004168 -0.005476 0.000000 -0.001333 0.000000
# 2 -0.004168 0.008894 -0.005476 0.000000 0.001333 0.000000
# 3 -0.005476 -0.005476 0.031202 0.000000 0.000000 0.000000
# 4 0.000000 0.000000 0.000000 0.028707 0.000000 0.002666
# 5 -0.001333 0.001333 0.000000 0.000000 0.028707 0.000001
# 6 0.000000 0.000000 0.000000 0.002666 0.000001 0.026125
#
#
# Mechanical properties :
#
#
# Convention : Reuss Voigt Hill
#
# Bulk Modulus (GPa) = 53.33162 113.06050 83.19606
# Shear Modulus (GPa) = 29.58239 36.66805 33.12522
#
# Velocity S-wave (km/s) = 3.37063 3.75266 3.56676
# Velocity P-wave (km/s) = 5.96912 7.88655 6.99385
#
# Compressibility (1/GPa) = 0.01875060
#
# Stress axis : x y z
#
# Youngs Moduli (GPa) = 112.42989 112.42989 32.04929
#
# Poissons Ratio (x) = 0.46861 0.17550
# Poissons Ratio (y) = 0.46861 0.17550
# Poissons Ratio (z) = 0.61567 0.61567
#
# Static dielectric constant tensor:
#      x y z
#    x 5.763110 0.000000 0.000000 
#    y 0.000000 5.763110 0.000000 
#    z 0.000000 0.000000 5.681530 
# 
# 
# High freq. dielectric constant tensor:
#      x y z
#    x 2.031700 0.000000 0.000000 
#    y 0.000000 2.031700 0.000000 
#    z 0.000000 0.000000 2.128890 
# 
# From -- ./inp_files/1247.got.cif
#   From: 2010.03.12/outbox.cif.g09.slc.cpg/sg153_1_cif.got.tgz:1247.got - 2010.04.03 13:48:33.
