data_PCOD8322552
_publ_section_title
;
Structure prediction by ZEFSAII (Michael W. Deem and Ramdas Pophale) SiO2 
 PCOD8322552
Probable space group: R 3 2
;
_chemical_formula_sum "Si O2"
_cell_formula_units_Z 108
_cell_length_a 23.142064
_cell_length_b 23.142064
_cell_length_c 12.029368
_cell_angle_alpha 90.000000
_cell_angle_beta 90.000000
_cell_angle_gamma 120.000000
_cell_volume 5579.273139
_symmetry_space_group_name_H-M "R 3 2"
_symmetry_group_IT_number 155
_symmetry_cell_setting 'hexagonal'
loop_
_space_group_symop_operation_xyz
x,y,z
-y,x-y,z
-x+y,-x,z
x-y,-y,-z
-x,-x+y,-z
y,x,-z
2/3+x,1/3+y,1/3+z
2/3-y,1/3+x-y,1/3+z
2/3-x+y,1/3-x,1/3+z
2/3+x-y,1/3-y,1/3-z
2/3-x,1/3-x+y,1/3-z
2/3+y,1/3+x,1/3-z
1/3+x,2/3+y,2/3+z
1/3-y,2/3+x-y,2/3+z
1/3-x+y,2/3-x,2/3+z
1/3+x-y,2/3-y,2/3-z
1/3-x,2/3-x+y,2/3-z
1/3+y,2/3+x,2/3-z
loop_
_atom_site_type_symbol
_atom_site_label
_atom_site_fract_x
_atom_site_fract_y
_atom_site_fract_z
Si Si1 0.874816 0.997937 0.190707
Si Si2 0.666667 0.124473 0.333334
Si Si3 0.995607 0.120559 0.124854
Si Si4 0.440150 0.440150 0.000000
Si Si5 0.882995 0.272472 0.262068
Si Si6 0.881938 0.531018 0.711683
Si Si7 0.321954 0.187677 0.915832
O O1 0.844625 0.026943 0.099451
O O2 0.848713 0.919266 0.172907
O O3 0.953410 0.050198 0.187759
O O4 0.853366 0.004583 0.311904
O O5 0.609427 0.056181 0.281974
O O6 0.965908 0.170928 0.131203
O O7 0.000000 0.101519 0.000000
O O8 0.426140 0.365319 0.994432
O O9 0.475588 0.482993 0.886802
O O10 0.914183 0.247516 0.166667
O O11 0.941022 0.333334 0.333334
O O12 0.842824 0.216145 0.355345
O O13 0.853444 0.520111 0.833334
O O14 0.938991 0.510923 0.701262
#
# Coordination Sequence:
#
# PCOD8322552 Si02
#       7
#    18   9  18   9  18  18  18
#     4  12  21  38  60  94 124 157 200 256 317 371
#     4  12  19  32  64  94 124 162 193 246 318 370
#     4  11  21  36  61  93 122 152 197 261 315 367
#     4  10  21  38  60  94 132 162 205 240 314 390
#     4  11  24  43  61  89 120 162 217 269 312 368
#     4  10  23  39  58  90 130 166 200 245 303 390
#     4  11  22  38  62  92 126 168 201 253 315 381
#
# _framework density 19.35736
#
# number of rings (size 3 to 8) (size 9 to 14) (size 15 to 20)
#    0.000    1.000    5.000    2.833    0.000    0.000 
#    1.500    0.833    0.000    0.000    0.000    0.000 
#    0.000    0.000    0.000    0.000    0.000    0.000 
#
# Total GULP energy -446130.275052 kJ/mol
# GULP energy per Si atom -12392.507640 kJ/mol
# Density = 1.931330 g / cm^3
# Si number density = 19.357360 Si / 1000 Ang^3
#
#
#
# Elastic Constant Matrix: (Units=GPa)
#
#
# Indices 1 2 3 4 5 6 
#
# 1 91.8949 58.7089 61.8779 0.6787 0.0000 -0.0001
# 2 58.7089 91.8950 61.8783 -0.6787 -0.0001 0.0000
# 3 61.8779 61.8783 107.7575 0.0001 -0.0002 -0.0002
# 4 0.6787 -0.6787 0.0001 27.2952 0.0000 -0.0002
# 5 0.0000 -0.0001 -0.0002 0.0000 27.2950 0.6786
# 6 -0.0001 0.0000 -0.0002 -0.0002 0.6786 16.5930
#
#
#
# Elastic Compliance Matrix: (Units=1/GPa)
#
#
# Indices 1 2 3 4 5 6 
#
# 1 0.021368 -0.008796 -0.007219 -0.000750 0.000000 0.000000
# 2 -0.008796 0.021368 -0.007220 0.000750 0.000000 0.000000
# 3 -0.007219 -0.007220 0.017572 0.000000 0.000000 0.000000
# 4 -0.000750 0.000750 0.000000 0.036674 0.000000 0.000000
# 5 0.000000 0.000000 0.000000 0.000000 0.036674 -0.001500
# 6 0.000000 0.000000 0.000000 0.000000 -0.001500 0.060328
#
#
# Mechanical properties :
#
#
# Convention : Reuss Voigt Hill
#
# Bulk Modulus (GPa) = 72.26331 72.94195 72.60263
# Shear Modulus (GPa) = 20.40267 21.50877 20.95572
#
# Velocity S-wave (km/s) = 3.25006 3.33700 3.29381
# Velocity P-wave (km/s) = 7.17608 7.25334 7.21481
#
# Compressibility (1/GPa) = 0.01383828
#
# Stress axis : x y z
#
# Youngs Moduli (GPa) = 46.79880 46.79839 56.91017
#
# Poissons Ratio (x) = 0.41162 0.41086
# Poissons Ratio (y) = 0.41163 0.41087
# Poissons Ratio (z) = 0.33786 0.33787
#
# Static dielectric constant tensor:
#      x y z
#    x 3.619310 0.000000 0.000000 
#    y 0.000000 3.619310 0.000000 
#    z 0.000000 0.000000 3.458690 
# 
# 
# High freq. dielectric constant tensor:
#      x y z
#    x 1.748650 0.000000 0.000000 
#    y 0.000000 1.748650 0.000000 
#    z 0.000000 0.000000 1.751060 
# 
# From -- ./inp_files/4116.got.cif
#   From: 2010.03.12/outbox.cif.g09.slc.cpg/sg155_3_cif.got.tgz:4116.got - 2010.04.03 13:54:13.
