data_PCOD8322610
_publ_section_title
;
Structure prediction by ZEFSAII (Michael W. Deem and Ramdas Pophale) SiO2 
 PCOD8322610
Probable space group: R 3 2
;
_chemical_formula_sum "Si O2"
_cell_formula_units_Z 108
_cell_length_a 16.446365
_cell_length_b 16.446365
_cell_length_c 21.901714
_cell_angle_alpha 90.000000
_cell_angle_beta 90.000000
_cell_angle_gamma 120.000000
_cell_volume 5130.368781
_symmetry_space_group_name_H-M "R 3 2"
_symmetry_group_IT_number 155
_symmetry_cell_setting 'hexagonal'
loop_
_space_group_symop_operation_xyz
x,y,z
-y,x-y,z
-x+y,-x,z
x-y,-y,-z
-x,-x+y,-z
y,x,-z
2/3+x,1/3+y,1/3+z
2/3-y,1/3+x-y,1/3+z
2/3-x+y,1/3-x,1/3+z
2/3+x-y,1/3-y,1/3-z
2/3-x,1/3-x+y,1/3-z
2/3+y,1/3+x,1/3-z
1/3+x,2/3+y,2/3+z
1/3-y,2/3+x-y,2/3+z
1/3-x+y,2/3-x,2/3+z
1/3+x-y,2/3-y,2/3-z
1/3-x,2/3-x+y,2/3-z
1/3+y,2/3+x,2/3-z
loop_
_atom_site_type_symbol
_atom_site_label
_atom_site_fract_x
_atom_site_fract_y
_atom_site_fract_z
Si Si1 0.549982 0.735860 0.507391
Si Si2 0.784195 0.125376 0.065336
Si Si3 0.437662 0.969460 0.069203
Si Si4 0.002025 0.723445 0.431185
Si Si5 0.794678 0.525948 0.167120
Si Si6 0.219330 0.854575 0.062354
O O1 0.610432 0.738727 0.448099
O O2 0.532791 0.822570 0.513273
O O3 0.443206 0.650273 0.504553
O O4 0.604717 0.736617 0.568580
O O5 0.746287 0.187774 0.096900
O O6 0.854136 0.121582 0.113937
O O7 0.691975 0.021839 0.053156
O O8 0.845274 0.181507 0.006716
O O9 0.507494 0.931247 0.085683
O O10 0.328707 0.887577 0.072189
O O11 0.452619 0.000000 0.000000
O O12 0.000000 0.686797 0.500000
O O13 0.914629 0.740561 0.424905
#
# Coordination Sequence:
#
# PCOD8322610 Si02
#       6
#    18  18  18  18  18  18
#     4  12  25  44  67 100 136 177 224 295 343 407
#     4  11  21  44  68  97 125 187 227 270 340 431
#     4  12  26  45  68 103 137 179 229 283 342 405
#     4  12  22  47  76  97 134 187 233 280 346 415
#     4  11  24  42  67  96 133 173 233 275 347 408
#     4  12  26  41  69 102 137 175 226 284 347 401
#
# _framework density 21.051120000000001
#
# number of rings (size 3 to 8) (size 9 to 14) (size 15 to 20)
#    0.000    0.333    6.667    3.333    7.000    0.000 
#    1.000    0.000    0.000    2.000    0.000    0.000 
#    0.000    0.000    0.000    0.000    0.000    0.000 
#
# Total GULP energy -446072.200073 kJ/mol
# GULP energy per Si atom -12390.894446 kJ/mol
# Density = 2.100321 g / cm^3
# Si number density = 21.051120 Si / 1000 Ang^3
#
#
#
# Elastic Constant Matrix: (Units=GPa)
#
#
# Indices 1 2 3 4 5 6 
#
# 1 102.3935 37.8739 22.4874 -1.4616 0.0000 0.0000
# 2 37.8739 102.3935 22.4874 1.4616 0.0000 0.0000
# 3 22.4874 22.4874 116.4517 0.0000 0.0000 0.0000
# 4 -1.4616 1.4616 0.0000 23.0096 0.0000 0.0000
# 5 0.0000 0.0000 0.0000 0.0000 23.0096 -1.4616
# 6 0.0000 0.0000 0.0000 0.0000 -1.4616 32.2598
#
#
#
# Elastic Compliance Matrix: (Units=1/GPa)
#
#
# Indices 1 2 3 4 5 6 
#
# 1 0.011572 -0.003972 -0.001468 0.000987 0.000000 0.000000
# 2 -0.003972 0.011572 -0.001468 -0.000987 0.000000 0.000000
# 3 -0.001468 -0.001468 0.009154 0.000000 0.000000 0.000000
# 4 0.000987 -0.000987 0.000000 0.043586 0.000000 0.000000
# 5 0.000000 0.000000 0.000000 0.000000 0.043586 0.001975
# 6 0.000000 0.000000 0.000000 0.000000 0.001975 0.031088
#
#
# Mechanical properties :
#
#
# Convention : Reuss Voigt Hill
#
# Bulk Modulus (GPa) = 54.10260 54.10399 54.10330
# Shear Modulus (GPa) = 29.32002 31.54849 30.43425
#
# Velocity S-wave (km/s) = 3.73607 3.87545 3.80640
# Velocity P-wave (km/s) = 6.66088 6.76628 6.71379
#
# Compressibility (1/GPa) = 0.01848340
#
# Stress axis : x y z
#
# Youngs Moduli (GPa) = 86.41665 86.41665 109.24145
#
# Poissons Ratio (x) = 0.34325 0.16032
# Poissons Ratio (y) = 0.34325 0.16032
# Poissons Ratio (z) = 0.12682 0.12682
#
# Static dielectric constant tensor:
#      x y z
#    x 4.259210 0.000000 0.000000 
#    y 0.000000 4.259210 0.000000 
#    z 0.000000 0.000000 4.015820 
# 
# 
# High freq. dielectric constant tensor:
#      x y z
#    x 1.823360 0.000000 0.000000 
#    y 0.000000 1.823360 0.000000 
#    z 0.000000 0.000000 1.837660 
# 
# From -- ./inp_files/6966.got.cif
#   From: 2010.03.12/outbox.cif.g09.slc.cpg/sg155_4_cif.got.tgz:6966.got - 2010.04.03 13:54:13.
