data_PCOD8322807
_publ_section_title
;
Structure prediction by ZEFSAII (Michael W. Deem and Ramdas Pophale) SiO2 
 PCOD8322807
Probable space group: P 3 1 C
;
_chemical_formula_sum "Si O2"
_cell_formula_units_Z 48
_cell_length_a 14.171303
_cell_length_b 14.171303
_cell_length_c 12.346330
_cell_angle_alpha 90.000000
_cell_angle_beta 90.000000
_cell_angle_gamma 120.000000
_cell_volume 2147.277040
_symmetry_space_group_name_H-M "P 3 1 C"
_symmetry_group_IT_number 159
_symmetry_cell_setting 'hexagonal'
loop_
_space_group_symop_operation_xyz
x,y,z
-y,x-y,z
-x+y,-x,z
y,x,1/2+z
x-y,-y,1/2+z
-x,-x+y,1/2+z
loop_
_atom_site_type_symbol
_atom_site_label
_atom_site_fract_x
_atom_site_fract_y
_atom_site_fract_z
Si Si1 0.739216 0.669028 0.821020
Si Si2 0.178796 0.758590 0.678269
Si Si3 0.547119 0.094238 0.887374
Si Si4 0.929812 0.669029 0.953730
Si Si5 0.703521 0.851761 0.887375
Si Si6 0.412684 0.537450 0.153601
Si Si7 0.875232 0.412684 0.121147
Si Si8 0.821205 0.241411 0.596480
O O1 0.613115 0.583556 0.858754
O O2 0.823033 0.646066 0.887375
O O3 0.769742 0.795433 0.838103
O O4 0.753289 0.652680 0.693822
O O5 0.100609 0.753289 0.580928
O O6 0.132151 0.768292 0.792133
O O7 0.300709 0.860101 0.667705
O O8 0.192412 0.651968 0.682673
O O9 0.613115 0.029558 0.915995
O O10 0.604953 0.163595 0.779736
O O11 0.558644 0.163596 0.995012
O O12 0.025691 0.795433 0.936646
O O13 0.636143 0.768291 0.982617
O O14 0.499998 0.499997 0.137375
O O15 0.459557 0.651966 0.092075
O O16 0.300708 0.440608 0.107042
#
# Coordination Sequence:
#
# PCOD8322807 Si02
#       8
#     6   6   6   6   6   6   6   6
#     4  11  24  45  72 100 143 186 252 307 364 433
#     4  11  24  42  67 103 141 189 236 299 365 436
#     4  10  20  40  68  99 132 175 226 298 352 418
#     4  11  24  45  72 100 143 186 252 307 364 433
#     4  12  28  44  70 101 144 199 242 306 372 440
#     4  11  22  38  63  96 136 178 230 283 352 432
#     4  11  22  38  63  96 136 178 230 283 352 432
#     4  11  24  42  67 103 141 189 236 299 365 436
#
# _framework density 22.353891999999998
#
# number of rings (size 3 to 8) (size 9 to 14) (size 15 to 20)
#    0.000    1.000    2.500    5.000    3.500    1.000 
#    1.500    0.000    0.000    2.000    0.000    0.000 
#    0.000    0.000    0.000    0.000    0.000    0.000 
#
# Total GULP energy -594644.363740 kJ/mol
# GULP energy per Si atom -12388.424245 kJ/mol
# Density = 2.230301 g / cm^3
# Si number density = 22.353892 Si / 1000 Ang^3
#
#
#
# Elastic Constant Matrix: (Units=GPa)
#
#
# Indices 1 2 3 4 5 6 
#
# 1 106.5631 42.4556 29.6191 0.0000 2.6942 0.0000
# 2 42.4556 106.5631 29.6191 0.0000 -2.6942 0.0000
# 3 29.6191 29.6191 145.5783 0.0000 0.0000 0.0000
# 4 0.0000 0.0000 0.0000 26.2591 0.0000 -2.6942
# 5 2.6942 -2.6942 0.0000 0.0000 26.2591 0.0000
# 6 0.0000 0.0000 0.0000 -2.6942 0.0000 32.0538
#
#
#
# Elastic Compliance Matrix: (Units=1/GPa)
#
#
# Indices 1 2 3 4 5 6 
#
# 1 0.011518 -0.004217 -0.001485 0.000000 -0.001614 0.000000
# 2 -0.004217 0.011518 -0.001485 0.000000 0.001614 0.000000
# 3 -0.001485 -0.001485 0.007474 0.000000 0.000000 0.000000
# 4 0.000000 0.000000 0.000000 0.038413 0.000000 0.003229
# 5 -0.001614 0.001614 0.000000 0.000000 0.038413 0.000000
# 6 0.000000 0.000000 0.000000 0.003229 0.000000 0.031469
#
#
# Mechanical properties :
#
#
# Convention : Reuss Voigt Hill
#
# Bulk Modulus (GPa) = 61.98127 62.45468 62.21798
# Shear Modulus (GPa) = 31.53422 34.04846 32.79134
#
# Velocity S-wave (km/s) = 3.75998 3.90700 3.83419
# Velocity P-wave (km/s) = 6.82916 6.95360 6.89166
#
# Compressibility (1/GPa) = 0.01613391
#
# Stress axis : x y z
#
# Youngs Moduli (GPa) = 86.82234 86.82234 133.80406
#
# Poissons Ratio (x) = 0.36610 0.19876
# Poissons Ratio (y) = 0.36610 0.19876
# Poissons Ratio (z) = 0.12897 0.12897
#
# Static dielectric constant tensor:
#      x y z
#    x 5.146440 0.000000 0.000000 
#    y 0.000000 5.146440 0.000000 
#    z 0.000000 0.000000 4.343060 
# 
# 
# High freq. dielectric constant tensor:
#      x y z
#    x 1.863260 0.000000 0.000000 
#    y 0.000000 1.863260 0.000000 
#    z 0.000000 0.000000 1.897800 
# 
# From -- ./inp_files/735.got.cif
#   From: 2010.03.12/outbox.cif.g09.slc.cpg/sg159_cif.got.tgz:735.got - 2010.04.03 14:00:19.
