data_PCOD8322274
_publ_section_title
;
Structure prediction by ZEFSAII (Michael W. Deem and Ramdas Pophale) SiO2 
 PCOD8322274
Probable space group: P 32 1 2
;
_chemical_formula_sum "Si O2"
_cell_formula_units_Z 39
_cell_length_a 9.118474
_cell_length_b 9.118474
_cell_length_c 26.604122
_cell_angle_alpha 90.000000
_cell_angle_beta 90.000000
_cell_angle_gamma 120.000000
_cell_volume 1915.684082
_symmetry_space_group_name_H-M "P 32 1 2"
_symmetry_group_IT_number 153
_symmetry_cell_setting 'hexagonal'
loop_
_space_group_symop_operation_xyz
x,y,z
-y,x-y,2/3+z
-x+y,-x,1/3+z
-y,-x,1/3-z
-x+y,y,2/3-z
x,x-y,-z
loop_
_atom_site_type_symbol
_atom_site_label
_atom_site_fract_x
_atom_site_fract_y
_atom_site_fract_z
Si Si1 0.651077 0.749433 0.777434
Si Si2 0.437055 0.393390 0.827785
Si Si3 0.646892 0.903671 0.880438
Si Si4 0.331808 0.653707 0.388753
Si Si5 0.677581 0.847440 0.574023
Si Si6 0.033687 0.033692 0.392229
Si Si7 0.841495 0.420748 0.500000
O O1 0.586111 0.566947 0.803624
O O2 0.685537 0.879479 0.822790
O O3 0.517306 0.748811 0.738321
O O4 0.823765 0.810034 0.745742
O O5 0.334669 0.420067 0.872078
O O6 0.294456 0.290428 0.785497
O O7 0.510478 0.281385 0.851468
O O8 0.498206 0.731110 0.904435
O O9 0.811740 0.966274 0.913577
O O10 0.585858 0.043606 0.878981
O O11 0.286377 0.572754 0.333334
O O12 0.534468 0.777173 0.383822
O O13 0.856270 0.993712 0.595232
O O14 0.034114 0.068228 0.333334
#
# Coordination Sequence:
#
# PCOD8322274 Si02
#       7
#     6   6   6   6   6   6   3
#     4  11  23  42  68  94 124 172 223 266 329 405
#     4  10  22  38  64  94 121 161 214 276 314 381
#     4  12  23  42  63  96 128 168 226 275 321 398
#     4  11  22  40  65  92 133 174 210 269 337 396
#     4  10  21  41  61  91 128 163 217 266 321 388
#     4  12  26  42  64  97 134 173 218 277 341 392
#     4  12  22  38  62  94 120 158 218 272 322 366
#
# _framework density 20.358262
#
# number of rings (size 3 to 8) (size 9 to 14) (size 15 to 20)
#    0.000    0.923    4.615    2.769    4.308    0.000 
#    0.000    0.000    0.000    1.846    0.000    0.000 
#    0.000    0.000    0.000    0.000    0.000    0.000 
#
# Total GULP energy -483255.506434 kJ/mol
# GULP energy per Si atom -12391.166832 kJ/mol
# Density = 2.031193 g / cm^3
# Si number density = 20.358262 Si / 1000 Ang^3
#
#
#
# Elastic Constant Matrix: (Units=GPa)
#
#
# Indices 1 2 3 4 5 6 
#
# 1 105.1437 56.1278 42.0771 -0.0013 4.4131 0.0000
# 2 56.1278 105.1437 42.0771 0.0013 -4.4131 0.0000
# 3 42.0771 42.0771 117.7908 0.0000 0.0000 0.0000
# 4 -0.0013 0.0013 0.0000 25.5996 0.0000 -4.4131
# 5 4.4131 -4.4131 0.0000 0.0000 25.5996 -0.0013
# 6 0.0000 0.0000 0.0000 -4.4131 -0.0013 24.5079
#
#
#
# Elastic Compliance Matrix: (Units=1/GPa)
#
#
# Indices 1 2 3 4 5 6 
#
# 1 0.014338 -0.006717 -0.002723 0.000001 -0.003630 0.000000
# 2 -0.006717 0.014338 -0.002723 -0.000001 0.003630 0.000000
# 3 -0.002723 -0.002723 0.010435 0.000000 0.000000 0.000000
# 4 0.000001 -0.000001 0.000000 0.040315 0.000000 0.007259
# 5 -0.003630 0.003630 0.000000 0.000000 0.040315 0.000002
# 6 0.000000 0.000000 0.000000 0.007259 0.000002 0.042110
#
#
# Mechanical properties :
#
#
# Convention : Reuss Voigt Hill
#
# Bulk Modulus (GPa) = 67.62502 67.62693 67.62597
# Shear Modulus (GPa) = 26.16382 27.66116 26.91249
#
# Velocity S-wave (km/s) = 3.58882 3.69008 3.63980
# Velocity P-wave (km/s) = 7.10369 7.17259 7.13822
#
# Compressibility (1/GPa) = 0.01478743
#
# Stress axis : x y z
#
# Youngs Moduli (GPa) = 69.74348 69.74348 95.83422
#
# Poissons Ratio (x) = 0.46846 0.26091
# Poissons Ratio (y) = 0.46846 0.26091
# Poissons Ratio (z) = 0.18988 0.18988
#
# Static dielectric constant tensor:
#      x y z
#    x 3.690180 0.000000 0.000000 
#    y 0.000000 3.690180 0.000000 
#    z 0.000000 0.000000 3.478440 
# 
# 
# High freq. dielectric constant tensor:
#      x y z
#    x 1.800290 0.000000 0.000000 
#    y 0.000000 1.800290 0.000000 
#    z 0.000000 0.000000 1.775380 
# 
# From -- ./inp_files/5074.got.cif
#   From: 2010.03.12/outbox.cif.g09.slc.cpg/sg153_3_cif.got.tgz:5074.got - 2010.04.03 13:48:33.
