data_PCOD8322307
_publ_section_title
;
Structure prediction by ZEFSAII (Michael W. Deem and Ramdas Pophale) SiO2 
 PCOD8322307
Probable space group: P 32 2 1
;
_chemical_formula_sum "Si O2"
_cell_formula_units_Z 39
_cell_length_a 8.681383
_cell_length_b 8.681383
_cell_length_c 30.410886
_cell_angle_alpha 90.000000
_cell_angle_beta 90.000000
_cell_angle_gamma 120.000000
_cell_volume 1984.895001
_symmetry_space_group_name_H-M "P 32 2 1"
_symmetry_group_IT_number 154
_symmetry_cell_setting 'hexagonal'
loop_
_space_group_symop_operation_xyz
x,y,z
-y,x-y,2/3+z
-x+y,-x,1/3+z
x-y,-y,1/3-z
-x,-x+y,2/3-z
y,x,-z
loop_
_atom_site_type_symbol
_atom_site_label
_atom_site_fract_x
_atom_site_fract_y
_atom_site_fract_z
Si Si1 0.281764 0.123295 0.771302
Si Si2 0.940735 0.654022 0.194268
Si Si3 0.432598 0.338793 0.432539
Si Si4 0.000000 0.726275 0.333334
Si Si5 0.227557 0.486524 0.474546
Si Si6 0.000203 0.097980 0.592443
Si Si7 0.797246 0.444229 0.405825
O O1 0.310468 0.270649 0.808376
O O2 0.456137 0.195272 0.740064
O O3 0.253814 0.949813 0.796644
O O4 0.103160 0.074577 0.743314
O O5 0.788063 0.448209 0.203223
O O6 0.891764 0.792256 0.215644
O O7 0.121011 0.677061 0.215740
O O8 0.390027 0.493443 0.446926
O O9 0.479239 0.255817 0.473979
O O10 0.600660 0.414270 0.400871
O O11 0.270266 0.191728 0.404541
O O12 0.105041 0.892707 0.365578
O O13 0.115079 0.666475 0.304863
#
# Coordination Sequence:
#
# PCOD8322307 Si02
#       7
#     6   6   6   3   6   6   6
#     4  10  18  35  59  90 109 157 188 240 308 362
#     4  10  18  34  56  90 121 149 179 244 304 366
#     4  10  18  36  57  87 112 156 183 247 291 360
#     4  10  24  46  52  80 114 168 202 248 282 346
#     4   9  18  31  56  86 126 139 182 229 312 359
#     4  10  21  38  62  77 119 155 205 236 290 358
#     4  10  22  38  60  84 123 153 198 247 298 352
#
# _framework density 19.648392999999999
#
# number of rings (size 3 to 8) (size 9 to 14) (size 15 to 20)
#    0.000    2.154    3.077    0.462    0.000    0.615 
#   11.077    7.692    0.000    0.000    0.000    0.000 
#    0.000    0.000    0.000    0.000    0.000    0.000 
#
# Total GULP energy -483348.472900 kJ/mol
# GULP energy per Si atom -12393.550587 kJ/mol
# Density = 1.960367 g / cm^3
# Si number density = 19.648393 Si / 1000 Ang^3
#
#
#
# Elastic Constant Matrix: (Units=GPa)
#
#
# Indices 1 2 3 4 5 6 
#
# 1 87.1503 30.6474 25.2130 -1.7636 -0.0001 0.0000
# 2 30.6474 87.1503 25.2130 1.7636 0.0001 0.0000
# 3 25.2130 25.2130 77.0067 0.0000 0.0000 0.0000
# 4 -1.7636 1.7636 0.0000 23.4155 0.0000 0.0001
# 5 -0.0001 0.0001 0.0000 0.0000 23.4155 -1.7636
# 6 0.0000 0.0000 0.0000 0.0001 -1.7636 28.2514
#
#
#
# Elastic Compliance Matrix: (Units=1/GPa)
#
#
# Indices 1 2 3 4 5 6 
#
# 1 0.013827 -0.003954 -0.003233 0.001339 0.000000 0.000000
# 2 -0.003954 0.013827 -0.003233 -0.001339 0.000000 0.000000
# 3 -0.003233 -0.003233 0.015103 0.000000 0.000000 0.000000
# 4 0.001339 -0.001339 0.000000 0.042909 0.000000 0.000000
# 5 0.000000 0.000000 0.000000 0.000000 0.042909 0.002679
# 6 0.000000 0.000000 0.000000 0.000000 0.002679 0.035564
#
#
# Mechanical properties :
#
#
# Convention : Reuss Voigt Hill
#
# Bulk Modulus (GPa) = 45.62388 45.93932 45.78160
# Shear Modulus (GPa) = 26.00333 26.36541 26.18437
#
# Velocity S-wave (km/s) = 3.64185 3.66712 3.65450
# Velocity P-wave (km/s) = 6.39958 6.43131 6.41547
#
# Compressibility (1/GPa) = 0.02191834
#
# Stress axis : x y z
#
# Youngs Moduli (GPa) = 72.32045 72.32045 66.21377
#
# Poissons Ratio (x) = 0.28599 0.21404
# Poissons Ratio (y) = 0.28599 0.21404
# Poissons Ratio (z) = 0.23378 0.23378
#
# Static dielectric constant tensor:
#      x y z
#    x 3.661150 0.000000 0.000000 
#    y 0.000000 3.661150 0.000000 
#    z 0.000000 0.000000 3.312260 
# 
# 
# High freq. dielectric constant tensor:
#      x y z
#    x 1.764070 0.000000 0.000000 
#    y 0.000000 1.764070 0.000000 
#    z 0.000000 0.000000 1.735300 
# 
# From -- ./inp_files/3681.got.cif
#   From: 2010.03.12/outbox.cif.g09.slc.cpg/sg154_2_cif.got.tgz:3681.got - 2010.04.03 13:51:21.
