data_PCOD8322060
_publ_section_title
;
Structure prediction by ZEFSAII (Michael W. Deem and Ramdas Pophale) SiO2 
 PCOD8322060
Probable space group: P 31 2 1
;
_chemical_formula_sum "Si O2"
_cell_formula_units_Z 42
_cell_length_a 8.234401
_cell_length_b 8.234401
_cell_length_c 33.759689
_cell_angle_alpha 90.000000
_cell_angle_beta 90.000000
_cell_angle_gamma 120.000000
_cell_volume 1982.408239
_symmetry_space_group_name_H-M "P 31 2 1"
_symmetry_group_IT_number 152
_symmetry_cell_setting 'hexagonal'
loop_
_space_group_symop_operation_xyz
x,y,z
-y,x-y,1/3+z
-x+y,-x,2/3+z
x-y,-y,2/3-z
-x,-x+y,1/3-z
y,x,-z
loop_
_atom_site_type_symbol
_atom_site_label
_atom_site_fract_x
_atom_site_fract_y
_atom_site_fract_z
Si Si1 0.467438 0.329109 0.616170
Si Si2 0.363225 0.894004 0.253993
Si Si3 0.686835 0.424342 0.363712
Si Si4 0.951163 0.054752 0.711763
Si Si5 0.726273 0.313970 0.552652
Si Si6 0.928965 0.699198 0.423934
Si Si7 0.585002 0.186605 0.810200
O O1 0.581555 0.292146 0.650320
O O2 0.461369 0.517189 0.625103
O O3 0.259229 0.148933 0.612828
O O4 0.571001 0.342495 0.575358
O O5 0.418577 0.774100 0.283539
O O6 0.257004 0.970220 0.281644
O O7 0.226870 0.752231 0.219984
O O8 0.543624 0.069043 0.234586
O O9 0.880715 0.583232 0.382779
O O10 0.000000 0.032808 0.666667
O O11 0.097765 0.054690 0.744150
O O12 0.707943 0.345372 0.506409
O O13 0.706759 0.111128 0.557206
O O14 0.756854 0.601052 0.454306
O O15 0.538838 0.000000 0.833334
#
# Coordination Sequence:
#
# PCOD8322060 Si02
#       7
#     6   6   6   6   6   6   6
#     4  11  22  36  62  88 125 162 207 254 324 375
#     4   9  22  36  62  89 119 158 213 245 312 377
#     4  10  20  38  56  90 123 160 201 261 310 376
#     4  10  19  37  60  87 120 163 200 255 314 377
#     4  11  22  39  62  89 119 167 206 259 311 378
#     4  10  21  39  62  89 121 161 210 256 314 373
#     4  11  22  43  63  88 127 164 207 264 311 371
#
# _framework density 21.186350000000001
#
# number of rings (size 3 to 8) (size 9 to 14) (size 15 to 20)
#    0.000    1.714    1.429    4.286    6.000    0.000 
#    0.000   17.143    0.000    0.000    0.000    0.000 
#    0.000    0.000    0.000    0.000    0.000    0.000 
#
# Total GULP energy -520647.899028 kJ/mol
# GULP energy per Si atom -12396.378548 kJ/mol
# Density = 2.113813 g / cm^3
# Si number density = 21.186350 Si / 1000 Ang^3
#
#
#
# Elastic Constant Matrix: (Units=GPa)
#
#
# Indices 1 2 3 4 5 6 
#
# 1 84.6866 19.2375 26.2048 4.8641 0.0001 0.0000
# 2 19.2375 84.6866 26.2048 -4.8641 -0.0001 0.0000
# 3 26.2048 26.2048 99.6694 0.0000 0.0000 0.0000
# 4 4.8641 -4.8641 0.0000 36.0513 0.0000 -0.0001
# 5 0.0001 -0.0001 0.0000 0.0000 36.0513 4.8641
# 6 0.0000 0.0000 0.0000 -0.0001 4.8641 32.7245
#
#
#
# Elastic Compliance Matrix: (Units=1/GPa)
#
#
# Indices 1 2 3 4 5 6 
#
# 1 0.013343 -0.002249 -0.002917 -0.002104 0.000000 0.000000
# 2 -0.002249 0.013343 -0.002917 0.002104 0.000000 0.000000
# 3 -0.002917 -0.002917 0.011567 0.000000 0.000000 0.000000
# 4 -0.002104 0.002104 0.000000 0.028306 0.000000 0.000000
# 5 0.000000 0.000000 0.000000 0.000000 0.028306 -0.004207
# 6 0.000000 0.000000 0.000000 0.000000 -0.004207 0.031183
#
#
# Mechanical properties :
#
#
# Convention : Reuss Voigt Hill
#
# Bulk Modulus (GPa) = 45.27566 45.81520 45.54543
# Shear Modulus (GPa) = 33.42820 34.12514 33.77667
#
# Velocity S-wave (km/s) = 3.97648 4.01772 3.99716
# Velocity P-wave (km/s) = 6.51919 6.57226 6.54578
#
# Compressibility (1/GPa) = 0.02208692
#
# Stress axis : x y z
#
# Youngs Moduli (GPa) = 74.94844 74.94844 86.45417
#
# Poissons Ratio (x) = 0.16858 0.25215
# Poissons Ratio (y) = 0.16858 0.25215
# Poissons Ratio (z) = 0.21860 0.21860
#
# Static dielectric constant tensor:
#      x y z
#    x 3.791180 0.000000 0.000000 
#    y 0.000000 3.791180 0.000000 
#    z 0.000000 0.000000 4.041440 
# 
# 
# High freq. dielectric constant tensor:
#      x y z
#    x 1.819210 0.000000 0.000000 
#    y 0.000000 1.819210 0.000000 
#    z 0.000000 0.000000 1.843390 
# 
# From -- ./inp_files/3722.got.cif
#   From: 2010.03.12/outbox.cif.g09.slc.cpg/sg152_2_cif.got.tgz:3722.got - 2010.04.03 13:45:27.
