data_PCOD8322490
_publ_section_title
;
Structure prediction by ZEFSAII (Michael W. Deem and Ramdas Pophale) SiO2 
 PCOD8322490
Probable space group: R 3 2
;
_chemical_formula_sum "Si O2"
_cell_formula_units_Z 126
_cell_length_a 17.188244
_cell_length_b 17.188244
_cell_length_c 22.992268
_cell_angle_alpha 90.000000
_cell_angle_beta 90.000000
_cell_angle_gamma 120.000000
_cell_volume 5882.683256
_symmetry_space_group_name_H-M "R 3 2"
_symmetry_group_IT_number 155
_symmetry_cell_setting 'hexagonal'
loop_
_space_group_symop_operation_xyz
x,y,z
-y,x-y,z
-x+y,-x,z
x-y,-y,-z
-x,-x+y,-z
y,x,-z
2/3+x,1/3+y,1/3+z
2/3-y,1/3+x-y,1/3+z
2/3-x+y,1/3-x,1/3+z
2/3+x-y,1/3-y,1/3-z
2/3-x,1/3-x+y,1/3-z
2/3+y,1/3+x,1/3-z
1/3+x,2/3+y,2/3+z
1/3-y,2/3+x-y,2/3+z
1/3-x+y,2/3-x,2/3+z
1/3+x-y,2/3-y,2/3-z
1/3-x,2/3-x+y,2/3-z
1/3+y,2/3+x,2/3-z
loop_
_atom_site_type_symbol
_atom_site_label
_atom_site_fract_x
_atom_site_fract_y
_atom_site_fract_z
Si Si1 0.919981 0.169770 0.820175
Si Si2 0.785831 0.859623 0.459133
Si Si3 0.889963 0.561214 0.940615
Si Si4 0.761650 0.983500 0.258915
Si Si5 0.870469 0.330774 0.395678
Si Si6 0.262655 0.069055 0.374479
Si Si7 0.280106 0.100923 0.246460
O O1 0.862847 0.220699 0.827294
O O2 0.866245 0.086675 0.776930
O O3 0.939235 0.138394 0.883826
O O4 0.019070 0.241005 0.798112
O O5 0.864118 0.864118 0.500000
O O6 0.810824 0.958315 0.439325
O O7 0.783134 0.808906 0.400412
O O8 0.825316 0.602373 0.929789
O O9 0.992834 0.630975 0.923346
O O10 0.881388 0.527071 0.006980
O O11 0.823313 0.078979 0.228099
O O12 0.822830 0.333334 0.333334
O O13 0.926969 0.283415 0.378697
O O14 0.944266 0.430481 0.416773
O O15 0.233283 0.062735 0.308017
#
# Coordination Sequence:
#
# PCOD8322490 Si02
#       7
#    18  18  18  18  18  18  18
#     4  11  19  36  59  86 118 147 203 252 297 353
#     4  11  19  32  55  83 119 163 200 233 284 352
#     4   9  20  36  55  81 127 159 198 236 300 370
#     4   9  20  37  57  87 117 161 192 250 309 361
#     4  10  20  35  59  86 114 150 199 253 293 347
#     4  10  19  34  54  83 117 159 197 239 288 342
#     4  10  19  34  60  86 113 149 201 248 291 350
#
# _framework density 21.418797999999999
#
# number of rings (size 3 to 8) (size 9 to 14) (size 15 to 20)
#    0.000    2.000    2.857    1.286    0.000    1.714 
#    1.714    2.857    0.000    2.571    0.000    0.000 
#    1.429    0.000    4.286    0.000    0.000    0.000 
#
# Total GULP energy -520374.914589 kJ/mol
# GULP energy per Si atom -12389.878919 kJ/mol
# Density = 2.137005 g / cm^3
# Si number density = 21.418798 Si / 1000 Ang^3
#
#
#
# Elastic Constant Matrix: (Units=GPa)
#
#
# Indices 1 2 3 4 5 6 
#
# 1 62.3344 15.6604 23.1240 -0.4108 0.0000 0.0000
# 2 15.6604 62.3344 23.1240 0.4108 0.0000 0.0000
# 3 23.1240 23.1240 100.4034 0.0000 0.0000 0.0000
# 4 -0.4108 0.4108 0.0000 26.8496 0.0000 0.0000
# 5 0.0000 0.0000 0.0000 0.0000 26.8496 -0.4108
# 6 0.0000 0.0000 0.0000 0.0000 -0.4108 23.3370
#
#
#
# Elastic Compliance Matrix: (Units=1/GPa)
#
#
# Indices 1 2 3 4 5 6 
#
# 1 0.018140 -0.003291 -0.003420 0.000328 0.000000 0.000000
# 2 -0.003291 0.018140 -0.003420 -0.000328 0.000000 0.000000
# 3 -0.003420 -0.003420 0.011535 0.000000 0.000000 0.000000
# 4 0.000328 -0.000328 0.000000 0.037255 0.000000 0.000000
# 5 0.000000 0.000000 0.000000 0.000000 0.037255 0.000656
# 6 0.000000 0.000000 0.000000 0.000000 0.000656 0.042862
#
#
# Mechanical properties :
#
#
# Convention : Reuss Voigt Hill
#
# Bulk Modulus (GPa) = 36.29253 38.76543 37.52898
# Shear Modulus (GPa) = 25.68944 26.28483 25.98713
#
# Velocity S-wave (km/s) = 3.46697 3.50692 3.48700
# Velocity P-wave (km/s) = 5.74522 5.87674 5.81135
#
# Compressibility (1/GPa) = 0.02755388
#
# Stress axis : x y z
#
# Youngs Moduli (GPa) = 55.12640 55.12640 86.69179
#
# Poissons Ratio (x) = 0.18141 0.29648
# Poissons Ratio (y) = 0.18141 0.29648
# Poissons Ratio (z) = 0.18853 0.18853
#
# Static dielectric constant tensor:
#      x y z
#    x 3.604490 0.000000 0.000000 
#    y 0.000000 3.604490 0.000000 
#    z 0.000000 0.000000 4.386500 
# 
# 
# High freq. dielectric constant tensor:
#      x y z
#    x 1.811020 0.000000 0.000000 
#    y 0.000000 1.811020 0.000000 
#    z 0.000000 0.000000 1.868060 
# 
# From -- ./inp_files/7537.got.cif
#   From: 2010.03.12/outbox.cif.g09.slc.cpg/sg155_4_cif.got.tgz:7537.got - 2010.04.03 13:54:13.
