data_PCOD8322896
_publ_section_title
;
Structure prediction by ZEFSAII (Michael W. Deem and Ramdas Pophale) SiO2 
 PCOD8322896
Probable space group: R 3 C
;
_chemical_formula_sum "Si O2"
_cell_formula_units_Z 126
_cell_length_a 16.664175
_cell_length_b 16.664175
_cell_length_c 25.962525
_cell_angle_alpha 90.000000
_cell_angle_beta 90.000000
_cell_angle_gamma 120.000000
_cell_volume 6243.745534
_symmetry_space_group_name_H-M "R 3 C"
_symmetry_group_IT_number 161
_symmetry_cell_setting 'hexagonal'
loop_
_space_group_symop_operation_xyz
x,y,z
-y,x-y,z
-x+y,-x,z
-x+y,y,1/2+z
x,x-y,1/2+z
-y,-x,1/2+z
2/3+x,1/3+y,1/3+z
2/3-y,1/3+x-y,1/3+z
2/3-x+y,1/3-x,1/3+z
2/3-x+y,1/3+y,5/6+z
2/3+x,1/3+x-y,5/6+z
2/3-y,1/3-x,5/6+z
1/3+x,2/3+y,2/3+z
1/3-y,2/3+x-y,2/3+z
1/3-x+y,2/3-x,2/3+z
1/3-x+y,2/3+y,1/6+z
1/3+x,2/3+x-y,1/6+z
1/3-y,2/3-x,1/6+z
loop_
_atom_site_type_symbol
_atom_site_label
_atom_site_fract_x
_atom_site_fract_y
_atom_site_fract_z
Si Si1 0.595283 0.680277 0.835096
Si Si2 0.782386 0.803616 0.792972
Si Si3 0.946078 0.777645 0.184194
Si Si4 0.102128 0.509636 0.037141
Si Si5 0.619607 0.829850 0.523658
Si Si6 0.452558 0.494446 0.786923
Si Si7 0.715378 0.755645 0.934055
O O1 0.670934 0.733065 0.789590
O O2 0.533061 0.730667 0.838741
O O3 0.530249 0.571563 0.823993
O O4 0.649780 0.690795 0.888050
O O5 0.830210 0.827864 0.737292
O O6 0.804748 0.901466 0.817921
O O7 0.815807 0.753025 0.833137
O O8 0.904332 0.669747 0.195032
O O9 0.018881 0.812404 0.136590
O O10 0.164586 0.464412 0.052580
O O11 0.106191 0.576369 0.083609
O O12 0.708754 0.857968 0.560741
O O13 0.647387 0.904815 0.479690
O O14 0.451909 0.396604 0.788158
#
# Coordination Sequence:
#
# PCOD8322896 Si02
#       7
#    18  18  18  18  18  18  18
#     4  10  23  40  63  94 125 167 221 276 317 406
#     4  10  20  40  63  89 124 170 218 273 325 382
#     4  10  21  39  61  91 128 167 219 271 322 389
#     4  10  21  38  63  92 128 161 221 274 312 396
#     4  12  21  39  66  96 127 172 217 269 333 397
#     4  12  24  38  67 100 126 175 217 272 347 388
#     4  10  22  42  61  94 128 170 217 271 318 400
#
# _framework density 20.180194
#
# number of rings (size 3 to 8) (size 9 to 14) (size 15 to 20)
#    0.000    1.714    7.143    0.857    2.000    0.000 
#    1.714    0.000    0.000    0.000    0.000    0.000 
#    0.000    0.000    0.000    0.000    0.000    0.000 
#
# Total GULP energy -520394.828955 kJ/mol
# GULP energy per Si atom -12390.353070 kJ/mol
# Density = 2.013426 g / cm^3
# Si number density = 20.180194 Si / 1000 Ang^3
#
#
#
# Elastic Constant Matrix: (Units=GPa)
#
#
# Indices 1 2 3 4 5 6 
#
# 1 89.8276 47.1897 42.2629 12.6548 0.0000 0.0000
# 2 47.1897 89.8276 42.2629 -12.6548 0.0000 0.0000
# 3 42.2629 42.2629 91.7381 0.0000 0.0000 0.0000
# 4 12.6548 -12.6548 0.0000 -6.1114 0.0000 0.0000
# 5 0.0000 0.0000 0.0000 0.0000 -6.1114 12.6548
# 6 0.0000 0.0000 0.0000 0.0000 12.6548 21.3189
#
#
#
# Elastic Compliance Matrix: (Units=1/GPa)
#
#
# Indices 1 2 3 4 5 6 
#
# 1 0.010359 -0.000163 -0.004697 0.021786 0.000000 0.000000
# 2 -0.000163 0.010359 -0.004697 -0.021786 0.000000 0.000000
# 3 -0.004697 -0.004697 0.015229 0.000000 0.000000 0.000000
# 4 0.021786 -0.021786 0.000000 -0.073404 0.000000 0.000000
# 5 0.000000 0.000000 0.000000 0.000000 -0.073404 0.043572
# 6 0.000000 0.000000 0.000000 0.000000 0.043572 0.021043
#
#
# Mechanical properties :
#
#
# Convention : Reuss Voigt Hill
#
# Bulk Modulus (GPa) = 59.41159 59.42494 59.41827
# Shear Modulus (GPa) = -76.81107 11.13106 -32.84001
#
# Velocity S-wave (km/s) = -6.17618 2.35113 -4.03840
# Velocity P-wave (km/s) = 4.62124 6.07301 2.78618
#
# Compressibility (1/GPa) = 0.01683173
#
# Stress axis : x y z
#
# Youngs Moduli (GPa) = 96.53754 96.53754 65.66613
#
# Poissons Ratio (x) = 0.01570 0.30845
# Poissons Ratio (y) = 0.01570 0.30845
# Poissons Ratio (z) = 0.45346 0.45346
#
# Static dielectric constant tensor:
#      x y z
#    x 3.694650 0.000000 0.000000 
#    y 0.000000 3.694650 0.000000 
#    z 0.000000 0.000000 3.801030 
# 
# 
# High freq. dielectric constant tensor:
#      x y z
#    x 1.775890 0.000000 0.000000 
#    y 0.000000 1.775890 0.000000 
#    z 0.000000 0.000000 1.780540 
# 
# From -- ./inp_files/2131.got.cif
#   From: 2010.03.12/outbox.cif.g09.slc.cpg/sg161_cif.got.tgz:2131.got - 2010.04.02 06:27:14.
