data_PCOD8322272
_publ_section_title
;
Structure prediction by ZEFSAII (Michael W. Deem and Ramdas Pophale) SiO2 
 PCOD8322272
Probable space group: P 32 1 2
;
_chemical_formula_sum "Si O2"
_cell_formula_units_Z 24
_cell_length_a 16.435096
_cell_length_b 16.435096
_cell_length_c 4.845948
_cell_angle_alpha 90.000000
_cell_angle_beta 90.000000
_cell_angle_gamma 120.000000
_cell_volume 1133.584429
_symmetry_space_group_name_H-M "P 32 1 2"
_symmetry_group_IT_number 153
_symmetry_cell_setting 'hexagonal'
loop_
_space_group_symop_operation_xyz
x,y,z
-y,x-y,2/3+z
-x+y,-x,1/3+z
-y,-x,1/3-z
-x+y,y,2/3-z
x,x-y,-z
loop_
_atom_site_type_symbol
_atom_site_label
_atom_site_fract_x
_atom_site_fract_y
_atom_site_fract_z
Si Si1 0.066069 0.444572 0.548659
Si Si2 0.655982 0.827991 0.000000
Si Si3 0.214271 0.107136 0.000000
Si Si4 0.938858 0.380829 0.055114
Si Si5 0.107258 0.892743 0.166667
Si Si6 0.828737 0.171264 0.166667
O O1 0.114580 0.557290 0.500000
O O2 0.138215 0.411833 0.460033
O O3 0.031143 0.413931 0.862460
O O4 0.971584 0.393815 0.369924
O O5 0.721909 0.893054 0.246859
O O6 0.148929 0.148886 0.914990
O O7 0.276888 0.105248 0.746254
O O8 0.892306 0.446153 0.000000
O O9 0.863466 0.271774 0.023022
#
# Coordination Sequence:
#
# PCOD8322272 Si02
#       6
#     6   3   3   6   3   3
#     4  10  21  38  61  87 118 153 195 246 301 353
#     4  12  22  39  66  90 116 162 206 251 294 374
#     4  12  26  41  60  90 126 164 208 255 300 352
#     4  10  21  38  61  87 118 153 195 246 301 353
#     4  12  26  41  60  90 126 164 208 255 300 352
#     4  12  22  39  66  90 116 162 206 251 294 374
#
# _framework density 21.171783000000001
#
# number of rings (size 3 to 8) (size 9 to 14) (size 15 to 20)
#    0.000    1.000    0.000    9.000    0.000    2.000 
#    0.000    0.000   22.000    0.000    0.000    0.000 
#    0.000    0.000    0.000    0.000    0.000    0.000 
#
# Total GULP energy -297629.670774 kJ/mol
# GULP energy per Si atom -12401.236282 kJ/mol
# Density = 2.112359 g / cm^3
# Si number density = 21.171783 Si / 1000 Ang^3
#
#
#
# Elastic Constant Matrix: (Units=GPa)
#
#
# Indices 1 2 3 4 5 6 
#
# 1 141.1265 84.8403 38.9734 0.0001 0.1216 0.0000
# 2 84.8403 141.1265 38.9734 -0.0001 -0.1216 0.0000
# 3 38.9734 38.9734 106.5497 0.0000 0.0000 0.0000
# 4 0.0001 -0.0001 0.0000 33.2901 0.0000 -0.1216
# 5 0.1216 -0.1216 0.0000 0.0000 33.2901 0.0001
# 6 0.0000 0.0000 0.0000 -0.1216 0.0001 28.1431
#
#
#
# Elastic Compliance Matrix: (Units=1/GPa)
#
#
# Indices 1 2 3 4 5 6 
#
# 1 0.011416 -0.006351 -0.001852 0.000000 -0.000065 0.000000
# 2 -0.006351 0.011416 -0.001852 0.000000 0.000065 0.000000
# 3 -0.001852 -0.001852 0.010740 0.000000 0.000000 0.000000
# 4 0.000000 0.000000 0.000000 0.030039 0.000000 0.000130
# 5 -0.000065 0.000065 0.000000 0.000000 0.030039 0.000000
# 6 0.000000 0.000000 0.000000 0.000130 0.000000 0.035533
#
#
# Mechanical properties :
#
#
# Convention : Reuss Voigt Hill
#
# Bulk Modulus (GPa) = 74.29687 79.37520 76.83604
# Shear Modulus (GPa) = 32.51353 34.01237 33.26295
#
# Velocity S-wave (km/s) = 3.92305 4.01246 3.96801
# Velocity P-wave (km/s) = 7.46251 7.68368 7.57390
#
# Compressibility (1/GPa) = 0.01345952
#
# Stress axis : x y z
#
# Youngs Moduli (GPa) = 87.59994 87.59994 93.10596
#
# Poissons Ratio (x) = 0.55636 0.17247
# Poissons Ratio (y) = 0.55636 0.17247
# Poissons Ratio (z) = 0.16227 0.16227
#
# Static dielectric constant tensor:
#      x y z
#    x 3.756570 0.000000 0.000000 
#    y 0.000000 3.756570 0.000000 
#    z 0.000000 0.000000 4.224620 
# 
# 
# High freq. dielectric constant tensor:
#      x y z
#    x 1.819600 0.000000 0.000000 
#    y 0.000000 1.819600 0.000000 
#    z 0.000000 0.000000 1.857070 
# 
# From -- ./inp_files/316.got.cif
#   From: 2010.03.12/outbox.cif.g09.slc.cpg/sg153_1_cif.got.tgz:316.got - 2010.04.03 13:48:33.
