data_PCOD8322822
_publ_section_title
;
Structure prediction by ZEFSAII (Michael W. Deem and Ramdas Pophale) SiO2 
 PCOD8322822
Probable space group: P 3 1 C
;
_chemical_formula_sum "Si O2"
_cell_formula_units_Z 42
_cell_length_a 8.500613
_cell_length_b 8.500613
_cell_length_c 32.007447
_cell_angle_alpha 90.000000
_cell_angle_beta 90.000000
_cell_angle_gamma 120.000000
_cell_volume 2003.005568
_symmetry_space_group_name_H-M "P 3 1 C"
_symmetry_group_IT_number 159
_symmetry_cell_setting 'hexagonal'
loop_
_space_group_symop_operation_xyz
x,y,z
-y,x-y,z
-x+y,-x,z
y,x,1/2+z
x-y,-y,1/2+z
-x,-x+y,1/2+z
loop_
_atom_site_type_symbol
_atom_site_label
_atom_site_fract_x
_atom_site_fract_y
_atom_site_fract_z
Si Si1 0.202388 0.202388 0.869850
Si Si2 0.545243 0.858112 0.946179
Si Si3 0.326319 0.340743 0.201922
Si Si4 0.014108 0.337938 0.571337
Si Si5 0.985892 0.323830 0.168363
Si Si6 0.687129 0.141887 0.793520
Si Si7 0.326319 0.340743 0.037778
O O1 0.307285 0.321473 0.910006
O O2 0.321474 0.307286 0.829694
O O3 1.000000 0.178708 0.869850
O O4 0.351693 0.853793 0.943395
O O5 0.648765 0.945747 0.988850
O O6 0.471689 0.536378 0.184208
O O7 0.391750 0.196272 0.194070
O O8 0.296984 0.351235 0.250850
O O9 0.138727 0.270047 0.177018
O O10 0.063439 0.369479 0.619850
O O11 0.196272 0.391750 0.545630
O O12 0.935311 0.463622 0.555492
O O13 0.861273 0.131319 0.562682
O O14 0.853793 0.351693 0.796304
#
# Coordination Sequence:
#
# PCOD8322822 Si02
#       7
#     6   6   6   6   6   6   6
#     4  10  26  40  72 104 136 172 222 288 340 414
#     4  10  23  46  70  98 135 177 225 271 349 416
#     4  12  25  45  68 100 137 185 233 290 351 416
#     4  12  24  42  67  99 138 182 234 291 350 413
#     4  12  24  42  67  99 138 182 234 291 350 413
#     4  10  23  46  70  98 135 177 225 271 349 416
#     4  12  25  45  68 100 137 185 233 290 351 416
#
# _framework density 20.968487
#
# number of rings (size 3 to 8) (size 9 to 14) (size 15 to 20)
#    0.857    0.000    2.857    4.286    6.000    0.000 
#    0.000    0.000    0.000    0.000    0.000    0.000 
#    0.000    0.000    0.000    0.000    0.000    0.000 
#
# Total GULP energy -520884.542769 kJ/mol
# GULP energy per Si atom -12402.012923 kJ/mol
# Density = 2.092076 g / cm^3
# Si number density = 20.968487 Si / 1000 Ang^3
#
#
#
# Elastic Constant Matrix: (Units=GPa)
#
#
# Indices 1 2 3 4 5 6 
#
# 1 87.6808 26.0647 64.0232 0.0000 -0.0001 0.0000
# 2 26.0647 87.6808 64.0232 0.0000 0.0001 0.0000
# 3 64.0232 64.0232 197.8670 0.0000 0.0000 0.0000
# 4 0.0000 0.0000 0.0000 33.2945 0.0000 0.0001
# 5 -0.0001 0.0001 0.0000 0.0000 33.2945 0.0000
# 6 0.0000 0.0000 0.0000 0.0001 0.0000 30.8080
#
#
#
# Elastic Compliance Matrix: (Units=1/GPa)
#
#
# Indices 1 2 3 4 5 6 
#
# 1 0.015029 -0.001200 -0.004474 0.000000 0.000000 0.000000
# 2 -0.001200 0.015029 -0.004474 0.000000 0.000000 0.000000
# 3 -0.004474 -0.004474 0.007949 0.000000 0.000000 0.000000
# 4 0.000000 0.000000 0.000000 0.030035 0.000000 0.000000
# 5 0.000000 0.000000 0.000000 0.000000 0.030035 0.000000
# 6 0.000000 0.000000 0.000000 0.000000 0.000000 0.032459
#
#
# Mechanical properties :
#
#
# Convention : Reuss Voigt Hill
#
# Bulk Modulus (GPa) = 56.46921 75.71676 66.09298
# Shear Modulus (GPa) = 31.90028 34.08723 32.99375
#
# Velocity S-wave (km/s) = 3.90467 4.03630 3.97103
# Velocity P-wave (km/s) = 6.87878 7.60989 7.25355
#
# Compressibility (1/GPa) = 0.01770876
#
# Stress axis : x y z
#
# Youngs Moduli (GPa) = 66.53777 66.53777 125.79441
#
# Poissons Ratio (x) = 0.07988 0.56286
# Poissons Ratio (y) = 0.07988 0.56286
# Poissons Ratio (z) = 0.29772 0.29772
#
# Static dielectric constant tensor:
#      x y z
#    x 3.614620 0.000000 0.000000 
#    y 0.000000 3.614620 0.000000 
#    z 0.000000 0.000000 3.667550 
# 
# 
# High freq. dielectric constant tensor:
#      x y z
#    x 1.816580 0.000000 0.000000 
#    y 0.000000 1.816580 0.000000 
#    z 0.000000 0.000000 1.828360 
# 
# From -- ./inp_files/1306.got.cif
#   From: 2010.03.12/outbox.cif.g09.slc.cpg/sg159_cif.got.tgz:1306.got - 2010.04.03 14:00:19.
