data_PCOD8322901
_publ_section_title
;
Structure prediction by ZEFSAII (Michael W. Deem and Ramdas Pophale) SiO2 
 PCOD8322901
Probable space group: R 3 C
;
_chemical_formula_sum "Si O2"
_cell_formula_units_Z 126
_cell_length_a 21.367656
_cell_length_b 21.367656
_cell_length_c 13.993219
_cell_angle_alpha 90.000000
_cell_angle_beta 90.000000
_cell_angle_gamma 120.000000
_cell_volume 5533.017317
_symmetry_space_group_name_H-M "R 3 C"
_symmetry_group_IT_number 161
_symmetry_cell_setting 'hexagonal'
loop_
_space_group_symop_operation_xyz
x,y,z
-y,x-y,z
-x+y,-x,z
-x+y,y,1/2+z
x,x-y,1/2+z
-y,-x,1/2+z
2/3+x,1/3+y,1/3+z
2/3-y,1/3+x-y,1/3+z
2/3-x+y,1/3-x,1/3+z
2/3-x+y,1/3+y,5/6+z
2/3+x,1/3+x-y,5/6+z
2/3-y,1/3-x,5/6+z
1/3+x,2/3+y,2/3+z
1/3-y,2/3+x-y,2/3+z
1/3-x+y,2/3-x,2/3+z
1/3-x+y,2/3+y,1/6+z
1/3+x,2/3+x-y,1/6+z
1/3-y,2/3-x,1/6+z
loop_
_atom_site_type_symbol
_atom_site_label
_atom_site_fract_x
_atom_site_fract_y
_atom_site_fract_z
Si Si1 0.302564 0.924316 0.839393
Si Si2 0.219319 0.441931 0.026608
Si Si3 0.315826 0.926186 0.064919
Si Si4 0.177932 0.219588 0.352902
Si Si5 0.114032 0.950698 0.650646
Si Si6 0.492536 0.774546 0.331190
Si Si7 0.164737 0.279881 0.994777
O O1 0.242154 0.945669 0.819871
O O2 0.274795 0.843496 0.799604
O O3 0.372335 0.975401 0.773732
O O4 0.325967 0.934318 0.950269
O O5 0.295337 0.457059 0.069448
O O6 0.235484 0.499946 0.943925
O O7 0.168392 0.356899 0.995263
O O8 0.159084 0.441517 0.097258
O O9 0.393534 0.968114 0.114137
O O10 0.130535 0.179932 0.261682
O O11 0.125946 0.224239 0.430128
O O12 0.154117 0.914014 0.595990
O O13 0.027715 0.906163 0.639517
O O14 0.143486 0.033114 0.613804
#
# Coordination Sequence:
#
# PCOD8322901 Si02
#       7
#    18  18  18  18  18  18  18
#     4  11  23  42  70  99 141 184 227 292 354 430
#     4  10  22  43  65  99 138 180 229 285 346 425
#     4  11  24  42  66 100 142 182 229 294 351 421
#     4  11  23  44  68  99 142 177 233 283 352 426
#     4  11  26  45  72  99 139 188 234 298 351 424
#     4  10  22  46  68  99 133 186 234 285 351 423
#     4  12  24  44  65 105 139 175 240 289 351 427
#
# _framework density 22.772385
#
# number of rings (size 3 to 8) (size 9 to 14) (size 15 to 20)
#    0.000    1.143    4.286    2.857    2.000    1.143 
#    5.143    0.000    0.000    4.000    0.000    0.000 
#    0.000    0.000    0.000    0.000    0.000    0.000 
#
# Total GULP energy -520528.027511 kJ/mol
# GULP energy per Si atom -12393.524465 kJ/mol
# Density = 2.272055 g / cm^3
# Si number density = 22.772385 Si / 1000 Ang^3
#
#
#
# Elastic Constant Matrix: (Units=GPa)
#
#
# Indices 1 2 3 4 5 6 
#
# 1 95.7874 3.1177 12.2001 -0.5865 0.0000 0.0000
# 2 3.1177 95.7874 12.2001 0.5865 0.0000 0.0000
# 3 12.2001 12.2001 56.5631 0.0000 0.0000 0.0000
# 4 -0.5865 0.5865 0.0000 27.2472 0.0000 0.0000
# 5 0.0000 0.0000 0.0000 0.0000 27.2472 -0.5865
# 6 0.0000 0.0000 0.0000 0.0000 -0.5865 46.3349
#
#
#
# Elastic Compliance Matrix: (Units=1/GPa)
#
#
# Indices 1 2 3 4 5 6 
#
# 1 0.010736 -0.000057 -0.002303 0.000232 0.000000 0.000000
# 2 -0.000057 0.010736 -0.002303 -0.000232 0.000000 0.000000
# 3 -0.002303 -0.002303 0.018673 0.000000 0.000000 0.000000
# 4 0.000232 -0.000232 0.000000 0.036711 0.000000 0.000000
# 5 0.000000 0.000000 0.000000 0.000000 0.036711 0.000465
# 6 0.000000 0.000000 0.000000 0.000000 0.000465 0.021588
#
#
# Mechanical properties :
#
#
# Convention : Reuss Voigt Hill
#
# Bulk Modulus (GPa) = 32.44910 33.68597 33.06754
# Shear Modulus (GPa) = 32.30879 34.87387 33.59133
#
# Velocity S-wave (km/s) = 3.77074 3.91757 3.84486
# Velocity P-wave (km/s) = 5.76526 5.94035 5.85346
#
# Compressibility (1/GPa) = 0.03081749
#
# Stress axis : x y z
#
# Youngs Moduli (GPa) = 93.14065 93.14065 53.55331
#
# Poissons Ratio (x) = 0.00536 0.12335
# Poissons Ratio (y) = 0.00536 0.12335
# Poissons Ratio (z) = 0.21454 0.21454
#
# Static dielectric constant tensor:
#      x y z
#    x 4.294490 0.000000 0.000000 
#    y 0.000000 4.294490 0.000000 
#    z 0.000000 0.000000 3.704710 
# 
# 
# High freq. dielectric constant tensor:
#      x y z
#    x 1.911920 0.000000 0.000000 
#    y 0.000000 1.911920 0.000000 
#    z 0.000000 0.000000 1.870110 
# 
# From -- ./inp_files/1419.got.cif
#   From: 2010.03.12/outbox.cif.g09.slc.cpg/sg161_cif.got.tgz:1419.got - 2010.04.02 06:27:14.
