data_PCOD8322539
_publ_section_title
;
Structure prediction by ZEFSAII (Michael W. Deem and Ramdas Pophale) SiO2 
 PCOD8322539
Probable space group: R 3 2
;
_chemical_formula_sum "Si O2"
_cell_formula_units_Z 72
_cell_length_a 14.241883
_cell_length_b 14.241883
_cell_length_c 17.077270
_cell_angle_alpha 90.000000
_cell_angle_beta 90.000000
_cell_angle_gamma 120.000000
_cell_volume 2999.742000
_symmetry_space_group_name_H-M "R 3 2"
_symmetry_group_IT_number 155
_symmetry_cell_setting 'hexagonal'
loop_
_space_group_symop_operation_xyz
x,y,z
-y,x-y,z
-x+y,-x,z
x-y,-y,-z
-x,-x+y,-z
y,x,-z
2/3+x,1/3+y,1/3+z
2/3-y,1/3+x-y,1/3+z
2/3-x+y,1/3-x,1/3+z
2/3+x-y,1/3-y,1/3-z
2/3-x,1/3-x+y,1/3-z
2/3+y,1/3+x,1/3-z
1/3+x,2/3+y,2/3+z
1/3-y,2/3+x-y,2/3+z
1/3-x+y,2/3-x,2/3+z
1/3+x-y,2/3-y,2/3-z
1/3-x,2/3-x+y,2/3-z
1/3+y,2/3+x,2/3-z
loop_
_atom_site_type_symbol
_atom_site_label
_atom_site_fract_x
_atom_site_fract_y
_atom_site_fract_z
Si Si1 0.778372 0.240428 0.271128
Si Si2 0.770217 0.549288 0.655170
Si Si3 0.251822 0.135197 0.368665
Si Si4 0.107064 0.551161 0.810314
O O1 0.796107 0.333334 0.333334
O O2 0.832730 0.170479 0.298014
O O3 0.840173 0.313471 0.195356
O O4 0.652408 0.159631 0.251080
O O5 0.782719 0.666667 0.666667
O O6 0.862398 0.542294 0.705212
O O7 0.650622 0.466953 0.685939
O O8 0.796355 0.536287 0.565085
O O9 0.313078 0.148649 0.451851
#
# Coordination Sequence:
#
# PCOD8322539 Si02
#       4
#    18  18  18  18
#     4  10  20  39  69 101 126 153 199 267 344 392
#     4  12  26  43  64  93 129 173 220 255 303 375
#     4  11  25  43  64  93 129 168 215 262 310 375
#     4  11  23  41  68  98 131 163 198 266 331 374
#
# _framework density 24.002064000000001
#
# number of rings (size 3 to 8) (size 9 to 14) (size 15 to 20)
#    0.000    1.000    0.000    9.250    0.000   12.000 
#    0.000    0.000    0.000    3.000    0.000    0.000 
#    0.000    0.000    0.000    0.000    0.000    0.000 
#
# Total GULP energy -297474.951571 kJ/mol
# GULP energy per Si atom -12394.789649 kJ/mol
# Density = 2.394743 g / cm^3
# Si number density = 24.002064 Si / 1000 Ang^3
#
#
#
# Elastic Constant Matrix: (Units=GPa)
#
#
# Indices 1 2 3 4 5 6 
#
# 1 114.2062 20.9455 12.7474 -1.7541 -0.0001 0.0000
# 2 20.9455 114.2062 12.7474 1.7541 0.0001 0.0000
# 3 12.7474 12.7474 38.2904 0.0000 0.0000 0.0000
# 4 -1.7541 1.7541 0.0000 17.0673 0.0000 0.0001
# 5 -0.0001 0.0001 0.0000 0.0000 17.0673 -1.7541
# 6 0.0000 0.0000 0.0000 0.0001 -1.7541 46.6304
#
#
#
# Elastic Compliance Matrix: (Units=1/GPa)
#
#
# Indices 1 2 3 4 5 6 
#
# 1 0.009330 -0.001435 -0.002628 0.001106 0.000000 0.000000
# 2 -0.001435 0.009330 -0.002628 -0.001106 0.000000 0.000000
# 3 -0.002628 -0.002628 0.027866 0.000000 0.000000 0.000000
# 4 0.001106 -0.001106 0.000000 0.058819 0.000000 0.000000
# 5 0.000000 0.000000 0.000000 0.000000 0.058819 0.002213
# 6 0.000000 0.000000 0.000000 0.000000 0.002213 0.021528
#
#
# Mechanical properties :
#
#
# Convention : Reuss Voigt Hill
#
# Bulk Modulus (GPa) = 30.17253 39.95373 35.06313
# Shear Modulus (GPa) = 23.79569 30.83716 27.31643
#
# Velocity S-wave (km/s) = 3.15207 3.58826 3.37721
# Velocity P-wave (km/s) = 5.08385 5.81804 5.46329
#
# Compressibility (1/GPa) = 0.03314273
#
# Stress axis : x y z
#
# Youngs Moduli (GPa) = 107.18611 107.18611 35.88571
#
# Poissons Ratio (x) = 0.15378 0.09432
# Poissons Ratio (y) = 0.15378 0.09432
# Poissons Ratio (z) = 0.28172 0.28172
#
# Static dielectric constant tensor:
#      x y z
#    x 4.366010 0.000000 0.000000 
#    y 0.000000 4.366010 0.000000 
#    z 0.000000 0.000000 4.237410 
# 
# 
# High freq. dielectric constant tensor:
#      x y z
#    x 1.956560 0.000000 0.000000 
#    y 0.000000 1.956560 0.000000 
#    z 0.000000 0.000000 1.936510 
# 
# From -- ./inp_files/5872.got.cif
#   From: 2010.03.12/outbox.cif.g09.slc.cpg/sg155_3_cif.got.tgz:5872.got - 2010.04.03 13:54:13.
