data_PCOD8322582
_publ_section_title
;
Structure prediction by ZEFSAII (Michael W. Deem and Ramdas Pophale) SiO2 
 PCOD8322582
Probable space group: R 3 2
;
_chemical_formula_sum "Si O2"
_cell_formula_units_Z 54
_cell_length_a 10.230205
_cell_length_b 10.230205
_cell_length_c 25.685174
_cell_angle_alpha 90.000000
_cell_angle_beta 90.000000
_cell_angle_gamma 120.000000
_cell_volume 2327.993786
_symmetry_space_group_name_H-M "R 3 2"
_symmetry_group_IT_number 155
_symmetry_cell_setting 'hexagonal'
loop_
_space_group_symop_operation_xyz
x,y,z
-y,x-y,z
-x+y,-x,z
x-y,-y,-z
-x,-x+y,-z
y,x,-z
2/3+x,1/3+y,1/3+z
2/3-y,1/3+x-y,1/3+z
2/3-x+y,1/3-x,1/3+z
2/3+x-y,1/3-y,1/3-z
2/3-x,1/3-x+y,1/3-z
2/3+y,1/3+x,1/3-z
1/3+x,2/3+y,2/3+z
1/3-y,2/3+x-y,2/3+z
1/3-x+y,2/3-x,2/3+z
1/3+x-y,2/3-y,2/3-z
1/3-x,2/3-x+y,2/3-z
1/3+y,2/3+x,2/3-z
loop_
_atom_site_type_symbol
_atom_site_label
_atom_site_fract_x
_atom_site_fract_y
_atom_site_fract_z
Si Si1 0.329323 0.263380 0.280015
Si Si2 0.286590 0.059899 0.757143
Si Si3 0.321633 0.181489 0.861308
O O1 0.421313 0.333334 0.333334
O O2 0.204658 0.315635 0.276110
O O3 0.445490 0.330471 0.231390
O O4 0.254112 0.083765 0.276637
O O5 0.221461 0.066498 0.814834
O O6 0.444076 0.063802 0.767727
O O7 0.452774 0.333334 0.833334
#
# Coordination Sequence:
#
# PCOD8322582 Si02
#       3
#    18  18  18
#     4  11  25  43  71 106 141 190 236 293 372 411
#     4  10  23  45  68  99 143 184 241 292 347 436
#     4   9  22  44  68  98 134 185 243 286 352 419
#
# _framework density 23.195937000000001
#
# number of rings (size 3 to 8) (size 9 to 14) (size 15 to 20)
#    0.000    2.000    0.000    0.667   18.667    0.000 
#   54.000    0.000    0.000    0.000    0.000    0.000 
#    0.000    0.000    0.000    0.000    0.000    0.000 
#
# Total GULP energy -223050.167216 kJ/mol
# GULP energy per Si atom -12391.675956 kJ/mol
# Density = 2.314314 g / cm^3
# Si number density = 23.195937 Si / 1000 Ang^3
#
#
#
# Elastic Constant Matrix: (Units=GPa)
#
#
# Indices 1 2 3 4 5 6 
#
# 1 63.7983 4.3130 32.2377 -8.0053 -0.0001 0.0000
# 2 4.3130 63.7983 32.2377 8.0053 0.0001 0.0000
# 3 32.2377 32.2377 122.0193 0.0000 0.0000 0.0000
# 4 -8.0053 8.0053 0.0000 37.9972 0.0000 0.0001
# 5 -0.0001 0.0001 0.0000 0.0000 37.9972 -8.0053
# 6 0.0000 0.0000 0.0000 0.0001 -8.0053 29.7427
#
#
#
# Elastic Compliance Matrix: (Units=1/GPa)
#
#
# Indices 1 2 3 4 5 6 
#
# 1 0.018700 0.000878 -0.005173 0.003755 0.000000 0.000000
# 2 0.000878 0.018700 -0.005173 -0.003755 0.000000 0.000000
# 3 -0.005173 -0.005173 0.010929 0.000000 0.000000 0.000000
# 4 0.003755 -0.003755 0.000000 0.027900 0.000000 0.000000
# 5 0.000000 0.000000 0.000000 0.000000 0.027900 0.007509
# 6 0.000000 0.000000 0.000000 0.000000 0.007509 0.035643
#
#
# Mechanical properties :
#
#
# Convention : Reuss Voigt Hill
#
# Bulk Modulus (GPa) = 34.01957 43.02139 38.52048
# Shear Modulus (GPa) = 29.67308 33.20258 31.43783
#
# Velocity S-wave (km/s) = 3.58052 3.78748 3.68546
# Velocity P-wave (km/s) = 5.63840 6.14117 5.89514
#
# Compressibility (1/GPa) = 0.02939485
#
# Stress axis : x y z
#
# Youngs Moduli (GPa) = 53.47623 53.47623 91.50257
#
# Poissons Ratio (x) = -0.04698 0.47331
# Poissons Ratio (y) = -0.04698 0.47331
# Poissons Ratio (z) = 0.27661 0.27661
#
# Static dielectric constant tensor:
#      x y z
#    x 3.995690 0.000000 0.000000 
#    y 0.000000 3.995690 0.000000 
#    z 0.000000 0.000000 4.291050 
# 
# 
# High freq. dielectric constant tensor:
#      x y z
#    x 1.896860 0.000000 0.000000 
#    y 0.000000 1.896860 0.000000 
#    z 0.000000 0.000000 1.924440 
# 
# From -- ./inp_files/6610.got.cif
#   From: 2010.03.12/outbox.cif.g09.slc.cpg/sg155_4_cif.got.tgz:6610.got - 2010.04.03 13:54:13.
