data_PCOD8322192
_publ_section_title
;
Structure prediction by ZEFSAII (Michael W. Deem and Ramdas Pophale) SiO2 
 PCOD8322192
Probable space group: P 31 2 1
;
_chemical_formula_sum "Si O2"
_cell_formula_units_Z 27
_cell_length_a 7.824443
_cell_length_b 7.824443
_cell_length_c 25.206702
_cell_angle_alpha 90.000000
_cell_angle_beta 90.000000
_cell_angle_gamma 120.000000
_cell_volume 1336.452479
_symmetry_space_group_name_H-M "P 31 2 1"
_symmetry_group_IT_number 152
_symmetry_cell_setting 'hexagonal'
loop_
_space_group_symop_operation_xyz
x,y,z
-y,x-y,1/3+z
-x+y,-x,2/3+z
x-y,-y,2/3-z
-x,-x+y,1/3-z
y,x,-z
loop_
_atom_site_type_symbol
_atom_site_label
_atom_site_fract_x
_atom_site_fract_y
_atom_site_fract_z
Si Si1 0.304926 0.995834 0.245016
Si Si2 0.000000 0.999993 0.166667
Si Si3 0.304918 0.309081 0.088317
Si Si4 0.722173 0.660702 0.670998
Si Si5 0.660695 0.938519 0.004333
O O1 0.140609 0.944540 0.200227
O O2 0.500003 0.999996 0.221098
O O3 0.217321 0.834663 0.291344
O O4 0.365751 0.207150 0.271073
O O5 0.859397 0.055451 0.200228
O O6 0.217314 0.382655 0.041990
O O7 0.365741 0.158590 0.062259
O O8 0.499999 0.500004 0.663524
O O9 0.763115 0.881561 0.666665
#
# Coordination Sequence:
#
# PCOD8322192 Si02
#       5
#     6   3   6   6   6
#     4  11  23  43  65  93 129 174 213 271 330 392
#     4  12  24  46  62  90 152 174 210 268 344 420
#     4  11  23  43  65  93 129 174 213 271 330 392
#     4  11  20  40  70  97 123 163 226 280 320 381
#     4  11  20  40  70  97 123 163 226 280 320 381
#
# _framework density 20.202741
#
# number of rings (size 3 to 8) (size 9 to 14) (size 15 to 20)
#    0.000    0.889    4.444    6.667    0.000    1.778 
#    8.000    0.000    0.000    0.000    0.000    0.000 
#    0.000    0.000    0.000    0.000    0.000    0.000 
#
# Total GULP energy -334836.180414 kJ/mol
# GULP energy per Si atom -12401.340015 kJ/mol
# Density = 2.015676 g / cm^3
# Si number density = 20.202741 Si / 1000 Ang^3
#
#
#
# Elastic Constant Matrix: (Units=GPa)
#
#
# Indices 1 2 3 4 5 6 
#
# 1 130.3461 40.3792 36.7496 0.0002 0.0000 0.0000
# 2 40.3792 130.3461 36.7496 -0.0002 0.0000 0.0000
# 3 36.7496 36.7496 95.7463 0.0000 0.0000 0.0000
# 4 0.0002 -0.0002 0.0000 17.3985 0.0000 0.0000
# 5 0.0000 0.0000 0.0000 0.0000 17.3985 0.0002
# 6 0.0000 0.0000 0.0000 0.0000 0.0002 44.9835
#
#
#
# Elastic Compliance Matrix: (Units=1/GPa)
#
#
# Indices 1 2 3 4 5 6 
#
# 1 0.009066 -0.002049 -0.002693 0.000000 0.000000 0.000000
# 2 -0.002049 0.009066 -0.002693 0.000000 0.000000 0.000000
# 3 -0.002693 -0.002693 0.012512 0.000000 0.000000 0.000000
# 4 0.000000 0.000000 0.000000 0.057476 0.000000 0.000000
# 5 0.000000 0.000000 0.000000 0.000000 0.057476 0.000000
# 6 0.000000 0.000000 0.000000 0.000000 0.000000 0.022230
#
#
# Mechanical properties :
#
#
# Convention : Reuss Voigt Hill
#
# Bulk Modulus (GPa) = 63.40156 64.91060 64.15608
# Shear Modulus (GPa) = 26.60206 32.12677 29.36442
#
# Velocity S-wave (km/s) = 3.63265 3.99208 3.81660
# Velocity P-wave (km/s) = 7.00326 7.31083 7.15870
#
# Compressibility (1/GPa) = 0.01577248
#
# Stress axis : x y z
#
# Youngs Moduli (GPa) = 110.30214 110.30214 79.92520
#
# Poissons Ratio (x) = 0.22603 0.21526
# Poissons Ratio (y) = 0.22603 0.21526
# Poissons Ratio (z) = 0.29707 0.29707
#
# Static dielectric constant tensor:
#      x y z
#    x 3.802610 0.000000 0.000000 
#    y 0.000000 3.802610 0.000000 
#    z 0.000000 0.000000 3.620360 
# 
# 
# High freq. dielectric constant tensor:
#      x y z
#    x 1.800370 0.000000 0.000000 
#    y 0.000000 1.800370 0.000000 
#    z 0.000000 0.000000 1.771790 
# 
# From -- ./inp_files/2945.got.cif
#   From: 2010.03.12/outbox.cif.g09.slc.cpg/sg152_2_cif.got.tgz:2945.got - 2010.04.03 13:45:27.
