data_PCOD8322651
_publ_section_title
;
Structure prediction by ZEFSAII (Michael W. Deem and Ramdas Pophale) SiO2 
 PCOD8322651
Probable space group: P 3 M 1
;
_chemical_formula_sum "Si O2"
_cell_formula_units_Z 48
_cell_length_a 16.827852
_cell_length_b 16.827852
_cell_length_c 10.888175
_cell_angle_alpha 90.000000
_cell_angle_beta 90.000000
_cell_angle_gamma 120.000000
_cell_volume 2670.195697
_symmetry_space_group_name_H-M "P 3 M 1"
_symmetry_group_IT_number 156
_symmetry_cell_setting 'hexagonal'
loop_
_space_group_symop_operation_xyz
x,y,z
-y,x-y,z
-x+y,-x,z
-x+y,y,z
x,x-y,z
-y,-x,z
loop_
_atom_site_type_symbol
_atom_site_label
_atom_site_fract_x
_atom_site_fract_y
_atom_site_fract_z
Si Si1 0.482192 0.330651 0.634990
Si Si2 0.179240 0.999849 0.904439
Si Si3 0.591867 0.588859 0.231389
Si Si4 0.816624 0.816171 0.626503
Si Si5 0.598153 0.013253 0.837461
Si Si6 0.917711 0.261610 0.433135
Si Si7 0.630719 0.725102 0.014319
Si Si8 0.664378 0.154938 0.046425
O O1 0.483349 0.241675 0.689896
O O2 0.584957 0.415044 0.638735
O O3 0.412004 0.351475 0.711207
O O4 0.443555 0.310468 0.497762
O O5 0.070259 0.929742 0.900922
O O6 0.226372 0.967729 0.007003
O O7 0.197968 0.098984 0.945880
O O8 0.218490 0.002330 0.766706
O O9 0.486455 0.513546 0.273822
O O10 0.662928 0.651713 0.337443
O O11 0.635559 0.531082 0.176436
O O12 0.588151 0.656682 0.129720
O O13 0.923815 0.847629 0.615617
O O14 0.757064 0.734873 0.531461
O O15 0.803452 0.901726 0.592025
O O16 0.494408 0.988815 0.833015
O O17 0.594955 0.919960 0.880921
O O18 0.657179 0.084896 0.943315
O O19 0.836566 0.163435 0.377779
O O20 0.597748 0.798874 0.027512
O O21 0.597598 0.195195 0.013017
O O22 0.767668 0.232333 0.055616
#
# Coordination Sequence:
#
# PCOD8322651 Si02
#       8
#     6   6   6   6   6   6   6   6
#     4  10  19  31  48  72 104 140 175 207 238 277
#     4   9  17  29  47  73 104 135 163 192 230 278
#     4  10  21  36  50  65  90 125 163 205 253 297
#     4   9  17  30  49  74 104 136 168 201 239 286
#     4   9  18  31  47  69  97 124 149 188 244 298
#     4  10  20  32  48  71  99 134 175 213 245 281
#     4  10  20  33  51  72  92 119 157 202 251 301
#     4   9  16  26  42  64  90 121 156 192 230 276
#
# _framework density 17.976212
#
# number of rings (size 3 to 8) (size 9 to 14) (size 15 to 20)
#    0.000    2.500    0.000    3.500    0.000    5.500 
#    0.000    1.250    0.000    6.000    0.000    4.375 
#    0.000    0.000    0.000    2.750    0.000    0.000 
#
# Total GULP energy -594752.315232 kJ/mol
# GULP energy per Si atom -12390.673234 kJ/mol
# Density = 1.793530 g / cm^3
# Si number density = 17.976212 Si / 1000 Ang^3
#
#
#
# Elastic Constant Matrix: (Units=GPa)
#
#
# Indices 1 2 3 4 5 6 
#
# 1 64.9411 44.3922 18.1803 18.1184 0.0010 0.0000
# 2 44.3922 64.9411 18.1803 -18.1184 -0.0010 0.0000
# 3 18.1803 18.1803 52.9286 0.0000 0.0000 0.0000
# 4 18.1184 -18.1184 0.0000 1.2995 0.0000 -0.0010
# 5 0.0010 -0.0010 0.0000 0.0000 1.2995 18.1184
# 6 0.0000 0.0000 0.0000 -0.0010 18.1184 10.2744
#
#
#
# Elastic Compliance Matrix: (Units=1/GPa)
#
#
# Indices 1 2 3 4 5 6 
#
# 1 0.004131 0.006195 -0.003547 0.028766 0.000002 0.000000
# 2 0.006195 0.004131 -0.003547 -0.028766 -0.000002 0.000000
# 3 -0.003547 -0.003547 0.021330 0.000000 0.000000 0.000000
# 4 0.028766 -0.028766 0.000000 -0.032625 0.000000 -0.000003
# 5 0.000002 -0.000002 0.000000 0.000000 -0.032625 0.057532
# 6 0.000000 0.000000 0.000000 -0.000003 0.057532 -0.004126
#
#
# Mechanical properties :
#
#
# Convention : Reuss Voigt Hill
#
# Bulk Modulus (GPa) = 35.97836 38.25738 37.11787
# Shear Modulus (GPa) = -174.09046 9.37856 -82.35595
#
# Velocity S-wave (km/s) = -9.85166 2.28660 -6.77594
# Velocity P-wave (km/s) = 10.45701 5.31976 6.36589
#
# Compressibility (1/GPa) = 0.02779448
#
# Stress axis : x y z
#
# Youngs Moduli (GPa) = 242.05218 242.05219 46.88244
#
# Poissons Ratio (x) = -1.49941 0.16628
# Poissons Ratio (y) = -1.49941 0.16628
# Poissons Ratio (z) = 0.85851 0.85851
#
# Static dielectric constant tensor:
#      x y z
#    x 3.447390 0.000000 0.000000 
#    y 0.000000 3.447390 0.000000 
#    z 0.000000 0.000000 3.187850 
# 
# 
# High freq. dielectric constant tensor:
#      x y z
#    x 1.687140 0.000000 0.000000 
#    y 0.000000 1.687140 0.000000 
#    z 0.000000 0.000000 1.676250 
# 
# From -- ./inp_files/752.got.cif
#   From: 2010.03.12/outbox.cif.g09.slc.cpg/sg156_cif.got.tgz:752.got - 2010.04.03 13:58:47.
