data_PCOD8322522
_publ_section_title
;
Structure prediction by ZEFSAII (Michael W. Deem and Ramdas Pophale) SiO2 
 PCOD8322522
Probable space group: R 3 2
;
_chemical_formula_sum "Si O2"
_cell_formula_units_Z 57
_cell_length_a 13.324095
_cell_length_b 13.324095
_cell_length_c 16.708711
_cell_angle_alpha 90.000000
_cell_angle_beta 90.000000
_cell_angle_gamma 120.000000
_cell_volume 2568.910774
_symmetry_space_group_name_H-M "R 3 2"
_symmetry_group_IT_number 155
_symmetry_cell_setting 'hexagonal'
loop_
_space_group_symop_operation_xyz
x,y,z
-y,x-y,z
-x+y,-x,z
x-y,-y,-z
-x,-x+y,-z
y,x,-z
2/3+x,1/3+y,1/3+z
2/3-y,1/3+x-y,1/3+z
2/3-x+y,1/3-x,1/3+z
2/3+x-y,1/3-y,1/3-z
2/3-x,1/3-x+y,1/3-z
2/3+y,1/3+x,1/3-z
1/3+x,2/3+y,2/3+z
1/3-y,2/3+x-y,2/3+z
1/3-x+y,2/3-x,2/3+z
1/3+x-y,2/3-y,2/3-z
1/3-x,2/3-x+y,2/3-z
1/3+y,2/3+x,2/3-z
loop_
_atom_site_type_symbol
_atom_site_label
_atom_site_fract_x
_atom_site_fract_y
_atom_site_fract_z
Si Si1 0.000000 0.000000 0.806724
Si Si2 0.416947 0.285669 0.507828
Si Si3 0.666668 0.333335 0.952074
Si Si4 0.333334 0.132773 0.666667
Si Si5 0.097407 0.505956 0.241701
O O1 0.113796 0.114704 0.837979
O O2 0.000000 0.000000 0.712516
O O3 0.392451 0.392451 0.500000
O O4 0.368700 0.220759 0.592354
O O5 0.351354 0.198873 0.433021
O O6 0.541196 0.303298 0.916404
O O7 0.440314 0.109560 0.681006
O O8 0.101345 0.434678 0.166667
#
# Coordination Sequence:
#
# PCOD8322522 Si02
#       5
#     6  18   6   9  18
#     4  12  27  46  67 100 145 189 226 287 358 426
#     4  11  25  43  68 100 144 185 234 291 357 416
#     4  12  19  40  72 102 127 175 241 296 337 397
#     4  10  20  40  70 112 134 182 236 300 348 408
#     4  10  20  36  66 102 138 172 229 291 348 401
#
# _framework density 22.188390999999999
#
# number of rings (size 3 to 8) (size 9 to 14) (size 15 to 20)
#    0.000    1.263    3.158    4.737    0.000    3.789 
#    0.000    0.000    0.000    1.895    0.000    0.000 
#    0.000    0.000    0.000    0.000    0.000    0.000 
#
# Total GULP energy -235509.299378 kJ/mol
# GULP energy per Si atom -12395.226283 kJ/mol
# Density = 2.213789 g / cm^3
# Si number density = 22.188391 Si / 1000 Ang^3
#
#
#
# Elastic Constant Matrix: (Units=GPa)
#
#
# Indices 1 2 3 4 5 6 
#
# 1 154.1880 84.4769 33.2184 -4.7819 0.0000 0.0000
# 2 84.4769 154.1885 33.2187 4.7816 0.0000 0.0000
# 3 33.2184 33.2187 61.1962 0.0001 0.0000 0.0000
# 4 -4.7819 4.7816 0.0001 23.1378 0.0000 0.0000
# 5 0.0000 0.0000 0.0000 0.0000 23.1364 -4.7826
# 6 0.0000 0.0000 0.0000 0.0000 -4.7826 34.8555
#
#
#
# Elastic Compliance Matrix: (Units=1/GPa)
#
#
# Indices 1 2 3 4 5 6 
#
# 1 0.009850 -0.004914 -0.002679 0.003051 0.000000 0.000000
# 2 -0.004914 0.009850 -0.002679 -0.003051 0.000000 0.000000
# 3 -0.002679 -0.002679 0.019250 0.000000 0.000000 0.000000
# 4 0.003051 -0.003051 0.000000 0.044480 0.000000 0.000000
# 5 0.000000 0.000000 0.000000 0.000000 0.044484 0.006104
# 6 0.000000 0.000000 0.000000 0.000000 0.006104 0.029527
#
#
# Mechanical properties :
#
#
# Convention : Reuss Voigt Hill
#
# Bulk Modulus (GPa) = 54.33552 74.60008 64.46780
# Shear Modulus (GPa) = 27.15628 30.80320 28.97974
#
# Velocity S-wave (km/s) = 3.50222 3.72997 3.61789
# Velocity P-wave (km/s) = 6.39496 7.22804 6.82422
#
# Compressibility (1/GPa) = 0.01840417
#
# Stress axis : x y z
#
# Youngs Moduli (GPa) = 101.52668 101.52696 51.94922
#
# Poissons Ratio (x) = 0.49889 0.13918
# Poissons Ratio (y) = 0.49888 0.13919
# Poissons Ratio (z) = 0.27201 0.27202
#
# Static dielectric constant tensor:
#      x y z
#    x 4.230670 0.000000 0.000000 
#    y 0.000000 4.230650 0.000010 
#    z 0.000000 0.000010 3.991480 
# 
# 
# High freq. dielectric constant tensor:
#      x y z
#    x 1.871710 0.000000 0.000000 
#    y 0.000000 1.871710 0.000000 
#    z 0.000000 0.000000 1.854250 
# 
# From -- ./inp_files/4760.got.cif
#   From: 2010.03.12/outbox.cif.g09.slc.cpg/sg155_3_cif.got.tgz:4760.got - 2010.04.03 13:54:13.
