data_PCOD8322451
_publ_section_title
;
Structure prediction by ZEFSAII (Michael W. Deem and Ramdas Pophale) SiO2 
 PCOD8322451
Probable space group: R 3 2
;
_chemical_formula_sum "Si O2"
_cell_formula_units_Z 126
_cell_length_a 19.324728
_cell_length_b 19.324728
_cell_length_c 25.976726
_cell_angle_alpha 90.000000
_cell_angle_beta 90.000000
_cell_angle_gamma 120.000000
_cell_volume 8401.209695
_symmetry_space_group_name_H-M "R 3 2"
_symmetry_group_IT_number 155
_symmetry_cell_setting 'hexagonal'
loop_
_space_group_symop_operation_xyz
x,y,z
-y,x-y,z
-x+y,-x,z
x-y,-y,-z
-x,-x+y,-z
y,x,-z
2/3+x,1/3+y,1/3+z
2/3-y,1/3+x-y,1/3+z
2/3-x+y,1/3-x,1/3+z
2/3+x-y,1/3-y,1/3-z
2/3-x,1/3-x+y,1/3-z
2/3+y,1/3+x,1/3-z
1/3+x,2/3+y,2/3+z
1/3-y,2/3+x-y,2/3+z
1/3-x+y,2/3-x,2/3+z
1/3+x-y,2/3-y,2/3-z
1/3-x,2/3-x+y,2/3-z
1/3+y,2/3+x,2/3-z
loop_
_atom_site_type_symbol
_atom_site_label
_atom_site_fract_x
_atom_site_fract_y
_atom_site_fract_z
Si Si1 0.217730 0.487192 0.759149
Si Si2 0.813517 0.160387 0.063780
Si Si3 0.926349 0.681843 0.965889
Si Si4 0.122253 0.948855 0.785361
Si Si5 0.279518 0.488405 0.454818
Si Si6 0.398057 0.553652 0.757755
Si Si7 0.641185 0.966704 0.444283
O O1 0.171430 0.401990 0.730939
O O2 0.204004 0.475792 0.820502
O O3 0.309097 0.528743 0.740707
O O4 0.183374 0.541468 0.737261
O O5 0.833099 0.245511 0.085790
O O6 0.752257 0.089053 0.101491
O O7 0.775865 0.146203 0.005672
O O8 0.903148 0.732864 0.928691
O O9 0.954185 0.628951 0.931771
O O10 0.000000 0.745324 0.000000
O O11 0.028600 0.898906 0.770620
O O12 0.164436 0.040598 0.765789
O O13 0.268764 0.485003 0.514964
O O14 0.275113 0.405082 0.437739
O O15 0.680503 0.000000 0.500000
#
# Coordination Sequence:
#
# PCOD8322451 Si02
#       7
#    18  18  18  18  18  18  18
#     4  10  17  27  42  60  88 125 156 192 215 254
#     4  10  18  28  40  60  88 120 151 184 232 284
#     4  10  18  28  40  60  86 116 159 189 224 271
#     4   9  17  27  44  66  89 112 148 188 239 282
#     4   9  16  26  44  66  88 114 150 200 234 270
#     4  10  17  27  38  61  88 120 162 190 215 254
#     4  10  15  27  46  61  85 116 153 199 234 260
#
# _framework density 14.99784
#
# number of rings (size 3 to 8) (size 9 to 14) (size 15 to 20)
#    0.000    2.286    4.286    2.714    0.000    2.857 
#    0.000    0.000    0.000    0.000   18.571    0.000 
#    0.000    0.000    0.000    0.000    0.000    0.000 
#
# Total GULP energy -520451.798452 kJ/mol
# GULP energy per Si atom -12391.709487 kJ/mol
# Density = 1.496370 g / cm^3
# Si number density = 14.997840 Si / 1000 Ang^3
#
#
#
# Elastic Constant Matrix: (Units=GPa)
#
#
# Indices 1 2 3 4 5 6 
#
# 1 72.8674 40.0708 30.8206 -2.0978 0.0000 0.0000
# 2 40.0708 72.8674 30.8206 2.0978 0.0000 0.0000
# 3 30.8206 30.8206 36.9253 0.0000 0.0000 0.0000
# 4 -2.0978 2.0978 0.0000 16.0777 0.0000 0.0000
# 5 0.0000 0.0000 0.0000 0.0000 16.0777 -2.0978
# 6 0.0000 0.0000 0.0000 0.0000 -2.0978 16.3983
#
#
#
# Elastic Compliance Matrix: (Units=1/GPa)
#
#
# Indices 1 2 3 4 5 6 
#
# 1 0.023636 -0.007373 -0.013575 0.004046 0.000000 0.000000
# 2 -0.007373 0.023636 -0.013575 -0.004046 0.000000 0.000000
# 3 -0.013575 -0.013575 0.049743 0.000000 0.000000 0.000000
# 4 0.004046 -0.004046 0.000000 0.063254 0.000000 0.000000
# 5 0.000000 0.000000 0.000000 0.000000 0.063254 0.008092
# 6 0.000000 0.000000 0.000000 0.000000 0.008092 0.062017
#
#
# Mechanical properties :
#
#
# Convention : Reuss Voigt Hill
#
# Bulk Modulus (GPa) = 35.75162 42.89822 39.32492
# Shear Modulus (GPa) = 13.73979 15.10728 14.42353
#
# Velocity S-wave (km/s) = 3.03003 3.17724 3.10451
# Velocity P-wave (km/s) = 6.01091 6.49036 6.25523
#
# Compressibility (1/GPa) = 0.02797076
#
# Stress axis : x y z
#
# Youngs Moduli (GPa) = 42.30839 42.30839 20.10352
#
# Poissons Ratio (x) = 0.31192 0.27290
# Poissons Ratio (y) = 0.31192 0.27290
# Poissons Ratio (z) = 0.57432 0.57432
#
# Static dielectric constant tensor:
#      x y z
#    x 2.905580 0.000000 0.000000 
#    y 0.000000 2.905580 0.000000 
#    z 0.000000 0.000000 2.895340 
# 
# 
# High freq. dielectric constant tensor:
#      x y z
#    x 1.549350 0.000000 0.000000 
#    y 0.000000 1.549350 0.000000 
#    z 0.000000 0.000000 1.561020 
# 
# From -- ./inp_files/7973.got.cif
#   From: 2010.03.12/outbox.cif.g09.slc.cpg/sg155_4_cif.got.tgz:7973.got - 2010.04.03 13:54:13.
