data_PCOD8322322
_publ_section_title
;
Structure prediction by ZEFSAII (Michael W. Deem and Ramdas Pophale) SiO2 
 PCOD8322322
Probable space group: P 32 2 1
;
_chemical_formula_sum "Si O2"
_cell_formula_units_Z 39
_cell_length_a 9.085792
_cell_length_b 9.085792
_cell_length_c 27.205412
_cell_angle_alpha 90.000000
_cell_angle_beta 90.000000
_cell_angle_gamma 120.000000
_cell_volume 1944.963787
_symmetry_space_group_name_H-M "P 32 2 1"
_symmetry_group_IT_number 154
_symmetry_cell_setting 'hexagonal'
loop_
_space_group_symop_operation_xyz
x,y,z
-y,x-y,2/3+z
-x+y,-x,1/3+z
x-y,-y,1/3-z
-x,-x+y,2/3-z
y,x,-z
loop_
_atom_site_type_symbol
_atom_site_label
_atom_site_fract_x
_atom_site_fract_y
_atom_site_fract_z
Si Si1 0.073408 0.266895 0.984777
Si Si2 0.435995 0.056845 0.920242
Si Si3 0.491112 0.945250 0.270264
Si Si4 0.201486 0.380433 0.515761
Si Si5 0.656846 0.656846 0.000000
Si Si6 0.317730 0.754218 0.748709
Si Si7 0.698959 0.990284 0.363531
O O1 0.144553 0.432849 0.948983
O O2 0.908940 0.119248 0.956853
O O3 0.211031 0.211031 0.000000
O O4 0.006569 0.316815 0.032612
O O5 0.525218 0.253569 0.908998
O O6 0.580848 0.003577 0.927310
O O7 0.309215 0.971489 0.875131
O O8 0.505728 0.866413 0.218714
O O9 0.589380 0.909371 0.313762
O O10 0.580283 0.151380 0.269177
O O11 0.213835 0.213835 0.500000
O O12 0.195858 0.471965 0.467025
O O13 0.517210 0.610444 0.042360
O O14 0.823192 0.679604 0.026066
#
# Coordination Sequence:
#
# PCOD8322322 Si02
#       7
#     6   6   6   6   3   6   6
#     4  11  21  35  62  95 125 158 207 266 317 369
#     4  11  23  40  60  94 125 165 207 262 321 388
#     4   9  19  39  62  87 120 170 208 248 318 391
#     4  10  22  42  67  83 126 178 216 256 326 402
#     4  10  22  38  66  98 128 162 214 274 330 398
#     4  10  22  40  64  92 122 165 216 267 319 386
#     4  10  19  36  64  90 126 160 208 258 324 379
#
# _framework density 20.051788999999999
#
# number of rings (size 3 to 8) (size 9 to 14) (size 15 to 20)
#    0.000    1.846    3.846    0.000    1.077    1.231 
#    2.769    0.000    0.000    0.000    0.000    0.000 
#    0.000    0.000    0.000    0.000    0.000    0.000 
#
# Total GULP energy -483245.486051 kJ/mol
# GULP energy per Si atom -12390.909899 kJ/mol
# Density = 2.000615 g / cm^3
# Si number density = 20.051789 Si / 1000 Ang^3
#
#
#
# Elastic Constant Matrix: (Units=GPa)
#
#
# Indices 1 2 3 4 5 6 
#
# 1 111.7469 64.3645 42.0739 -11.2131 0.0000 0.0000
# 2 64.3645 111.7469 42.0739 11.2131 0.0000 0.0000
# 3 42.0739 42.0739 104.1623 0.0000 0.0000 0.0000
# 4 -11.2131 11.2131 0.0000 18.6356 0.0000 0.0000
# 5 0.0000 0.0000 0.0000 0.0000 18.6356 -11.2131
# 6 0.0000 0.0000 0.0000 0.0000 -11.2131 23.6912
#
#
#
# Elastic Compliance Matrix: (Units=1/GPa)
#
#
# Indices 1 2 3 4 5 6 
#
# 1 0.018272 -0.011236 -0.002842 0.017755 0.000000 0.000000
# 2 -0.011236 0.018272 -0.002842 -0.017755 0.000000 0.000000
# 3 -0.002842 -0.002842 0.011896 0.000000 0.000000 0.000000
# 4 0.017755 -0.017755 0.000000 0.075028 0.000000 0.000000
# 5 0.000000 0.000000 0.000000 0.000000 0.075028 0.035511
# 6 0.000000 0.000000 0.000000 0.000000 0.035511 0.059017
#
#
# Mechanical properties :
#
#
# Convention : Reuss Voigt Hill
#
# Bulk Modulus (GPa) = 68.49133 69.40897 68.95015
# Shear Modulus (GPa) = 16.87929 24.13540 20.50735
#
# Velocity S-wave (km/s) = 2.90450 3.47313 3.20147
# Velocity P-wave (km/s) = 6.74385 7.12556 6.93733
#
# Compressibility (1/GPa) = 0.01460039
#
# Stress axis : x y z
#
# Youngs Moduli (GPa) = 54.72737 54.72737 84.05895
#
# Poissons Ratio (x) = 0.61493 0.23891
# Poissons Ratio (y) = 0.61493 0.23891
# Poissons Ratio (z) = 0.15554 0.15554
#
# Static dielectric constant tensor:
#      x y z
#    x 3.698180 0.000000 0.000000 
#    y 0.000000 3.698180 0.000000 
#    z 0.000000 0.000000 3.573270 
# 
# 
# High freq. dielectric constant tensor:
#      x y z
#    x 1.782200 0.000000 0.000000 
#    y 0.000000 1.782200 0.000000 
#    z 0.000000 0.000000 1.764640 
# 
# From -- ./inp_files/3711.got.cif
#   From: 2010.03.12/outbox.cif.g09.slc.cpg/sg154_2_cif.got.tgz:3711.got - 2010.04.03 13:51:21.
