data_PCOD8322475
_publ_section_title
;
Structure prediction by ZEFSAII (Michael W. Deem and Ramdas Pophale) SiO2 
 PCOD8322475
Probable space group: R 3 2
;
_chemical_formula_sum "Si O2"
_cell_formula_units_Z 75
_cell_length_a 14.021798
_cell_length_b 14.021798
_cell_length_c 21.523938
_cell_angle_alpha 90.000000
_cell_angle_beta 90.000000
_cell_angle_gamma 120.000000
_cell_volume 3664.880149
_symmetry_space_group_name_H-M "R 3 2"
_symmetry_group_IT_number 155
_symmetry_cell_setting 'hexagonal'
loop_
_space_group_symop_operation_xyz
x,y,z
-y,x-y,z
-x+y,-x,z
x-y,-y,-z
-x,-x+y,-z
y,x,-z
2/3+x,1/3+y,1/3+z
2/3-y,1/3+x-y,1/3+z
2/3-x+y,1/3-x,1/3+z
2/3+x-y,1/3-y,1/3-z
2/3-x,1/3-x+y,1/3-z
2/3+y,1/3+x,1/3-z
1/3+x,2/3+y,2/3+z
1/3-y,2/3+x-y,2/3+z
1/3-x+y,2/3-x,2/3+z
1/3+x-y,2/3-y,2/3-z
1/3-x,2/3-x+y,2/3-z
1/3+y,2/3+x,2/3-z
loop_
_atom_site_type_symbol
_atom_site_label
_atom_site_fract_x
_atom_site_fract_y
_atom_site_fract_z
Si Si1 0.333334 0.666667 0.488391
Si Si2 0.666668 0.333334 0.009117
Si Si3 0.731136 0.731136 0.000000
Si Si4 0.786978 0.167727 0.836178
Si Si5 0.157165 0.485166 0.268086
Si Si6 0.119440 0.472186 0.534822
O O1 0.333334 0.666667 0.415178
O O2 0.206166 0.593773 0.510463
O O3 0.589901 0.212108 0.982509
O O4 0.716135 0.617508 0.976100
O O5 0.770937 0.816121 0.941988
O O6 0.666667 0.055221 0.833334
O O7 0.824796 0.219721 0.767688
O O8 0.769900 0.248902 0.883209
O O9 0.886798 0.152309 0.859761
O O10 0.000000 0.416095 0.500000
#
# Coordination Sequence:
#
# PCOD8322475 Si02
#       6
#     6   6   9  18  18  18
#     4  12  30  43  62  94 123 174 229 287 319 366
#     4  12  21  31  56  97 129 153 214 263 322 384
#     4  10  20  40  66  82 114 178 220 244 326 366
#     4  10  18  34  61  99 132 163 196 252 327 395
#     4  10  19  31  59  92 127 163 206 253 316 399
#     4  11  23  45  67  89 131 172 216 275 322 385
#
# _framework density 20.464514999999999
#
# number of rings (size 3 to 8) (size 9 to 14) (size 15 to 20)
#    0.000    1.440    7.200    1.440    0.000    1.920 
#    0.000    0.000    0.000    2.880    0.000    0.000 
#    0.000    0.000    0.000    0.000    0.000    0.000 
#
# Total GULP energy -309799.891195 kJ/mol
# GULP energy per Si atom -12391.995648 kJ/mol
# Density = 2.041794 g / cm^3
# Si number density = 20.464515 Si / 1000 Ang^3
#
#
#
# Elastic Constant Matrix: (Units=GPa)
#
#
# Indices 1 2 3 4 5 6 
#
# 1 70.6345 24.1573 35.5267 0.7439 0.0000 0.0000
# 2 24.1573 70.6348 35.5266 -0.7436 0.0000 0.0000
# 3 35.5267 35.5266 174.0764 -0.0003 0.0000 0.0000
# 4 0.7439 -0.7436 -0.0003 27.5021 0.0000 0.0000
# 5 0.0000 0.0000 0.0000 0.0000 27.5020 0.7435
# 6 0.0000 0.0000 0.0000 0.0000 0.7435 23.2381
#
#
#
# Elastic Compliance Matrix: (Units=1/GPa)
#
#
# Indices 1 2 3 4 5 6 
#
# 1 0.016995 -0.004540 -0.002542 -0.000582 0.000000 0.000000
# 2 -0.004540 0.016995 -0.002542 0.000582 0.000000 0.000000
# 3 -0.002542 -0.002542 0.006782 0.000000 0.000000 0.000000
# 4 -0.000582 0.000582 0.000000 0.036392 0.000000 0.000000
# 5 0.000000 0.000000 0.000000 0.000000 0.036392 -0.001164
# 6 0.000000 0.000000 0.000000 0.000000 -0.001164 0.043070
#
#
# Mechanical properties :
#
#
# Convention : Reuss Voigt Hill
#
# Bulk Modulus (GPa) = 46.45939 56.19633 51.32786
# Shear Modulus (GPa) = 27.31524 30.32413 28.81968
#
# Velocity S-wave (km/s) = 3.65740 3.85358 3.75677
# Velocity P-wave (km/s) = 6.37080 6.87896 6.62975
#
# Compressibility (1/GPa) = 0.02152417
#
# Stress axis : x y z
#
# Youngs Moduli (GPa) = 58.84203 58.84237 147.44666
#
# Poissons Ratio (x) = 0.26714 0.37479
# Poissons Ratio (y) = 0.26714 0.37478
# Poissons Ratio (z) = 0.14957 0.14957
#
# Static dielectric constant tensor:
#      x y z
#    x 3.495470 0.000000 0.000000 
#    y 0.000000 3.495490 0.000000 
#    z 0.000000 0.000000 4.125280 
# 
# 
# High freq. dielectric constant tensor:
#      x y z
#    x 1.777550 0.000000 0.000000 
#    y 0.000000 1.777550 0.000000 
#    z 0.000000 0.000000 1.814290 
# 
# From -- ./inp_files/6814.got.cif
#   From: 2010.03.12/outbox.cif.g09.slc.cpg/sg155_4_cif.got.tgz:6814.got - 2010.04.03 13:54:13.
