data_PCOD8322171
_publ_section_title
;
Structure prediction by ZEFSAII (Michael W. Deem and Ramdas Pophale) SiO2 
 PCOD8322171
Probable space group: P 31 2 1
;
_chemical_formula_sum "Si O2"
_cell_formula_units_Z 21
_cell_length_a 8.905908
_cell_length_b 8.905908
_cell_length_c 14.273301
_cell_angle_alpha 90.000000
_cell_angle_beta 90.000000
_cell_angle_gamma 120.000000
_cell_volume 980.418427
_symmetry_space_group_name_H-M "P 31 2 1"
_symmetry_group_IT_number 152
_symmetry_cell_setting 'hexagonal'
loop_
_space_group_symop_operation_xyz
x,y,z
-y,x-y,1/3+z
-x+y,-x,2/3+z
x-y,-y,2/3-z
-x,-x+y,1/3-z
y,x,-z
loop_
_atom_site_type_symbol
_atom_site_label
_atom_site_fract_x
_atom_site_fract_y
_atom_site_fract_z
Si Si1 0.732621 0.686468 0.655912
Si Si2 0.074124 0.000000 0.333334
Si Si3 0.000000 0.519769 0.166667
Si Si4 0.628114 0.725405 0.853960
Si Si5 0.570174 0.000000 0.333334
O O1 0.563085 0.598465 0.591483
O O2 0.680056 0.652770 0.764555
O O3 0.844836 0.596710 0.629879
O O4 0.838620 0.891563 0.634423
O O5 0.145990 0.945395 0.244989
O O6 0.829072 0.534328 0.181019
O O7 0.496476 0.562127 0.914329
#
# Coordination Sequence:
#
# PCOD8322171 Si02
#       5
#     6   3   3   6   3
#     4  11  26  44  69  98 135 177 224 278 335 396
#     4  10  22  48  72  96 124 186 228 272 334 402
#     4  12  28  40  68 102 136 180 220 280 332 400
#     4  11  25  47  69 100 136 174 226 281 331 396
#     4  10  28  42  72  98 132 178 224 276 336 402
#
# _framework density 21.419425
#
# number of rings (size 3 to 8) (size 9 to 14) (size 15 to 20)
#    0.000    1.143    2.857    0.000   16.000    2.286 
#    0.000    0.000    0.000    0.000    0.000    0.000 
#    0.000    0.000    0.000    0.000    0.000    0.000 
#
# Total GULP energy -260565.950769 kJ/mol
# GULP energy per Si atom -12407.902418 kJ/mol
# Density = 2.137067 g / cm^3
# Si number density = 21.419425 Si / 1000 Ang^3
#
#
#
# Elastic Constant Matrix: (Units=GPa)
#
#
# Indices 1 2 3 4 5 6 
#
# 1 101.7192 48.8119 49.3768 6.8415 -0.0001 0.0000
# 2 48.8119 101.7192 49.3768 -6.8415 0.0001 0.0000
# 3 49.3768 49.3768 117.7444 0.0000 0.0000 0.0000
# 4 6.8415 -6.8415 0.0000 34.5707 0.0000 0.0001
# 5 -0.0001 0.0001 0.0000 0.0000 34.5707 6.8415
# 6 0.0000 0.0000 0.0000 0.0001 6.8415 26.4536
#
#
#
# Elastic Compliance Matrix: (Units=1/GPa)
#
#
# Indices 1 2 3 4 5 6 
#
# 1 0.014542 -0.005378 -0.003843 -0.003942 0.000000 0.000000
# 2 -0.005378 0.014542 -0.003843 0.003942 0.000000 0.000000
# 3 -0.003843 -0.003843 0.011716 0.000000 0.000000 0.000000
# 4 -0.003942 0.003942 0.000000 0.030487 0.000000 0.000000
# 5 0.000000 0.000000 0.000000 0.000000 0.030487 -0.007885
# 6 0.000000 0.000000 0.000000 0.000000 -0.007885 0.039841
#
#
# Mechanical properties :
#
#
# Convention : Reuss Voigt Hill
#
# Bulk Modulus (GPa) = 68.15485 68.47930 68.31707
# Shear Modulus (GPa) = 28.96285 30.69348 29.82817
#
# Velocity S-wave (km/s) = 3.68118 3.78957 3.73577
# Velocity P-wave (km/s) = 7.06799 7.15457 7.11141
#
# Compressibility (1/GPa) = 0.01467247
#
# Stress axis : x y z
#
# Youngs Moduli (GPa) = 68.76417 68.76417 85.35156
#
# Poissons Ratio (x) = 0.36982 0.32802
# Poissons Ratio (y) = 0.36982 0.32802
# Poissons Ratio (z) = 0.26427 0.26427
#
# Static dielectric constant tensor:
#      x y z
#    x 4.006480 0.000000 0.000000 
#    y 0.000000 4.006480 0.000000 
#    z 0.000000 0.000000 3.752460 
# 
# 
# High freq. dielectric constant tensor:
#      x y z
#    x 1.849900 0.000000 0.000000 
#    y 0.000000 1.849900 0.000000 
#    z 0.000000 0.000000 1.843420 
# 
# From -- ./inp_files/2278.got.cif
#   From: 2010.03.12/outbox.cif.g09.slc.cpg/sg152_2_cif.got.tgz:2278.got - 2010.04.03 13:45:27.
