data_PCOD8322110
_publ_section_title
;
Structure prediction by ZEFSAII (Michael W. Deem and Ramdas Pophale) SiO2 
 PCOD8322110
Probable space group: P 31 2 1
;
_chemical_formula_sum "Si O2"
_cell_formula_units_Z 33
_cell_length_a 13.693737
_cell_length_b 13.693737
_cell_length_c 11.557092
_cell_angle_alpha 90.000000
_cell_angle_beta 90.000000
_cell_angle_gamma 120.000000
_cell_volume 1876.822354
_symmetry_space_group_name_H-M "P 31 2 1"
_symmetry_group_IT_number 152
_symmetry_cell_setting 'hexagonal'
loop_
_space_group_symop_operation_xyz
x,y,z
-y,x-y,1/3+z
-x+y,-x,2/3+z
x-y,-y,2/3-z
-x,-x+y,1/3-z
y,x,-z
loop_
_atom_site_type_symbol
_atom_site_label
_atom_site_fract_x
_atom_site_fract_y
_atom_site_fract_z
Si Si1 0.015625 0.246588 0.798857
Si Si2 0.375567 0.079188 0.669276
Si Si3 0.823700 0.823700 0.500000
Si Si4 0.920812 0.624433 0.330725
Si Si5 0.984375 0.753412 0.798856
Si Si6 0.000000 0.500000 0.166667
Si Si7 0.823699 0.000000 0.833334
O O1 0.144895 0.289789 0.833333
O O2 0.000000 0.270812 0.666667
O O3 0.970370 0.318647 0.871866
O O4 0.944671 0.111720 0.822137
O O5 0.250422 0.009517 0.722342
O O6 0.424313 0.212157 0.666664
O O7 0.469395 0.070745 0.744537
O O8 0.944672 0.832952 0.511199
O O9 0.929258 0.530605 0.255466
O O10 0.990485 0.749578 0.277658
O O11 0.970367 0.651722 0.461468
O O12 0.000000 0.729187 0.666667
#
# Coordination Sequence:
#
# PCOD8322110 Si02
#       7
#     6   6   3   6   6   3   3
#     4  11  19  28  47  80 121 149 171 206 249 317
#     4   9  19  34  55  78 102 138 187 218 270 328
#     4   9  17  29  45  78 114 154 171 195 243 323
#     4   9  19  34  55  78 102 138 187 218 270 328
#     4  11  19  28  47  80 121 149 171 206 249 317
#     4  10  20  40  64  72 102 144 178 238 284 332
#     4   9  17  29  45  78 114 154 171 195 243 323
#
# _framework density 17.582912
#
# number of rings (size 3 to 8) (size 9 to 14) (size 15 to 20)
#    0.000    2.182    3.636    0.545    0.000    1.455 
#    0.000    0.909    4.000    0.000    0.000    0.000 
#    0.000    0.000    0.000    0.000    0.000    0.000 
#
# Total GULP energy -408845.670553 kJ/mol
# GULP energy per Si atom -12389.262744 kJ/mol
# Density = 1.754289 g / cm^3
# Si number density = 17.582912 Si / 1000 Ang^3
#
#
#
# Elastic Constant Matrix: (Units=GPa)
#
#
# Indices 1 2 3 4 5 6 
#
# 1 71.5399 39.7378 46.2885 0.0002 0.0000 0.0000
# 2 39.7378 71.5399 46.2885 -0.0002 0.0000 0.0000
# 3 46.2885 46.2885 158.5142 0.0000 0.0000 0.0000
# 4 0.0002 -0.0002 0.0000 30.0584 0.0000 0.0000
# 5 0.0000 0.0000 0.0000 0.0000 30.0584 0.0002
# 6 0.0000 0.0000 0.0000 0.0000 0.0002 15.9010
#
#
#
# Elastic Compliance Matrix: (Units=1/GPa)
#
#
# Indices 1 2 3 4 5 6 
#
# 1 0.021657 -0.009787 -0.003466 0.000000 0.000000 0.000000
# 2 -0.009787 0.021657 -0.003466 0.000000 0.000000 0.000000
# 3 -0.003466 -0.003466 0.008333 0.000000 0.000000 0.000000
# 4 0.000000 0.000000 0.000000 0.033269 0.000000 0.000000
# 5 0.000000 0.000000 0.000000 0.000000 0.033269 0.000000
# 6 0.000000 0.000000 0.000000 0.000000 0.000000 0.062889
#
#
# Mechanical properties :
#
#
# Convention : Reuss Voigt Hill
#
# Bulk Modulus (GPa) = 54.91972 62.91375 58.91673
# Shear Modulus (GPa) = 22.66723 26.48885 24.57804
#
# Velocity S-wave (km/s) = 3.59439 3.88559 3.74282
# Velocity P-wave (km/s) = 6.96625 7.48260 7.22904
#
# Compressibility (1/GPa) = 0.01820840
#
# Stress axis : x y z
#
# Youngs Moduli (GPa) = 46.17362 46.17362 120.00465
#
# Poissons Ratio (x) = 0.45190 0.41597
# Poissons Ratio (y) = 0.45190 0.41597
# Poissons Ratio (z) = 0.16005 0.16005
#
# Static dielectric constant tensor:
#      x y z
#    x 2.956320 0.000000 0.000000 
#    y 0.000000 2.956320 0.000000 
#    z 0.000000 0.000000 3.801010 
# 
# 
# High freq. dielectric constant tensor:
#      x y z
#    x 1.640860 0.000000 0.000000 
#    y 0.000000 1.640860 0.000000 
#    z 0.000000 0.000000 1.708690 
# 
# From -- ./inp_files/1737.got.cif
#   From: 2010.03.12/outbox.cif.g09.slc.cpg/sg152_1_cif.got.tgz:1737.got - 2010.04.03 13:45:27.
