data_PCOD8322962
_publ_section_title
;
Structure prediction by ZEFSAII (Michael W. Deem and Ramdas Pophale) SiO2 
 PCOD8322962
Probable space group: P -3 1 M 
;
_chemical_formula_sum "Si O2"
_cell_formula_units_Z 66
_cell_length_a 31.919007
_cell_length_b 31.919007
_cell_length_c 5.057333
_cell_angle_alpha 90.000000
_cell_angle_beta 90.000000
_cell_angle_gamma 120.000000
_cell_volume 4462.219465
_symmetry_space_group_name_H-M "P -3 1 M "
_symmetry_group_IT_number 162
_symmetry_cell_setting 'hexagonal'
loop_
_space_group_symop_operation_xyz
x,y,z
-y,x-y,z
-x+y,-x,z
-y,-x,-z
-x+y,y,-z
x,x-y,-z
-x,-y,-z
y,-x+y,-z
x-y,x,-z
y,x,z
x-y,-y,z
-x,-x+y,z
loop_
_atom_site_type_symbol
_atom_site_label
_atom_site_fract_x
_atom_site_fract_y
_atom_site_fract_z
Si Si1 0.390411 0.494217 0.168441
Si Si2 0.000000 0.442790 0.723395
Si Si3 0.185521 0.592760 0.000000
Si Si4 0.746819 0.307426 0.251030
Si Si5 0.389524 0.389524 0.774166
Si Si6 0.446655 0.197626 0.255574
Si Si7 0.437104 0.101565 0.330702
O O1 0.440399 0.492069 0.219669
O O2 0.397161 0.547609 0.189012
O O3 0.349039 0.459732 0.375695
O O4 0.372990 0.476929 0.871779
O O5 0.000000 0.430881 0.414748
O O6 0.000000 0.401986 0.916496
O O7 0.219134 0.584002 0.207006
O O8 0.709646 0.290355 0.500000
O O9 0.782263 0.285889 0.279973
O O10 0.712849 0.287152 0.000000
O O11 0.388635 0.339852 0.698884
O O12 0.426374 0.213187 0.500000
O O13 0.420499 0.139817 0.257310
O O14 0.432016 0.216008 0.000000
#
# Coordination Sequence:
#
# PCOD8322962 Si02
#       7
#    12   6   6  12   6  12  12
#     4  10  21  31  53  75  95 119 137 161 191 247
#     4   8  16  33  44  72 106 118 132 156 190 226
#     4  12  24  39  62  76  82 114 142 166 210 256
#     4  10  24  40  54  69  86 102 128 171 208 243
#     4   8  16  28  50  65  98 130 136 156 192 244
#     4  10  19  32  51  69  88 108 136 177 206 225
#     4  10  18  34  48  74  97 117 143 164 200 244
#
# _framework density 14.790844999999999
#
# number of rings (size 3 to 8) (size 9 to 14) (size 15 to 20)
#    0.000    2.182    1.818    1.091    5.091    3.273 
#    0.545    0.000    0.000    6.545    0.000    0.000 
#    0.000    0.000    0.000    0.000    0.000    0.000 
#
# Total GULP energy -817736.642347 kJ/mol
# GULP energy per Si atom -12389.949126 kJ/mol
# Density = 1.475718 g / cm^3
# Si number density = 14.790845 Si / 1000 Ang^3
#
#
#
# Elastic Constant Matrix: (Units=GPa)
#
#
# Indices 1 2 3 4 5 6 
#
# 1 81.3201 50.7492 26.4623 -0.0001 -4.3655 0.0000
# 2 50.7492 81.3201 26.4623 0.0001 4.3655 0.0000
# 3 26.4623 26.4623 86.2964 0.0000 0.0000 0.0000
# 4 -0.0001 0.0001 0.0000 14.8686 0.0000 4.3655
# 5 -4.3655 4.3655 0.0000 0.0000 14.8686 -0.0001
# 6 0.0000 0.0000 0.0000 4.3655 -0.0001 15.2854
#
#
#
# Elastic Compliance Matrix: (Units=1/GPa)
#
#
# Indices 1 2 3 4 5 6 
#
# 1 0.022169 -0.013536 -0.002647 0.000000 0.010483 0.000000
# 2 -0.013536 0.022169 -0.002647 0.000000 -0.010483 0.000000
# 3 -0.002647 -0.002647 0.013211 0.000000 0.000000 0.000000
# 4 0.000000 0.000000 0.000000 0.073412 0.000000 -0.020966
# 5 0.010483 -0.010483 0.000000 0.000000 0.073412 0.000001
# 6 0.000000 0.000000 0.000000 -0.020966 0.000001 0.071410
#
#
# Mechanical properties :
#
#
# Convention : Reuss Voigt Hill
#
# Bulk Modulus (GPa) = 50.28146 50.69827 50.48986
# Shear Modulus (GPa) = 15.62150 18.68871 17.15511
#
# Velocity S-wave (km/s) = 3.25339 3.55848 3.40935
# Velocity P-wave (km/s) = 6.94129 7.15785 7.05040
#
# Compressibility (1/GPa) = 0.01988805
#
# Stress axis : x y z
#
# Youngs Moduli (GPa) = 45.10867 45.10867 75.69206
#
# Poissons Ratio (x) = 0.61060 0.20037
# Poissons Ratio (y) = 0.61060 0.20037
# Poissons Ratio (z) = 0.11941 0.11941
#
# Static dielectric constant tensor:
#      x y z
#    x 2.890530 0.000000 0.000000 
#    y 0.000000 2.890530 0.000000 
#    z 0.000000 0.000000 3.065620 
# 
# 
# High freq. dielectric constant tensor:
#      x y z
#    x 1.525480 0.000000 0.000000 
#    y 0.000000 1.525480 0.000000 
#    z 0.000000 0.000000 1.594470 
# 
# From -- ./inp_files/760.got.cif
#   From: 2010.03.12/outbox.cif.g09.slc.cpg/sg162_1_cif.got.tgz:760.got - 2010.04.02 06:27:41.
