data_PCOD8322535
_publ_section_title
;
Structure prediction by ZEFSAII (Michael W. Deem and Ramdas Pophale) SiO2 
 PCOD8322535
Probable space group: R 3 2
;
_chemical_formula_sum "Si O2"
_cell_formula_units_Z 90
_cell_length_a 18.228878
_cell_length_b 18.228878
_cell_length_c 14.930101
_cell_angle_alpha 90.000000
_cell_angle_beta 90.000000
_cell_angle_gamma 120.000000
_cell_volume 4296.484547
_symmetry_space_group_name_H-M "R 3 2"
_symmetry_group_IT_number 155
_symmetry_cell_setting 'hexagonal'
loop_
_space_group_symop_operation_xyz
x,y,z
-y,x-y,z
-x+y,-x,z
x-y,-y,-z
-x,-x+y,-z
y,x,-z
2/3+x,1/3+y,1/3+z
2/3-y,1/3+x-y,1/3+z
2/3-x+y,1/3-x,1/3+z
2/3+x-y,1/3-y,1/3-z
2/3-x,1/3-x+y,1/3-z
2/3+y,1/3+x,1/3-z
1/3+x,2/3+y,2/3+z
1/3-y,2/3+x-y,2/3+z
1/3-x+y,2/3-x,2/3+z
1/3+x-y,2/3-y,2/3-z
1/3-x,2/3-x+y,2/3-z
1/3+y,2/3+x,2/3-z
loop_
_atom_site_type_symbol
_atom_site_label
_atom_site_fract_x
_atom_site_fract_y
_atom_site_fract_z
Si Si1 0.948152 0.143090 0.152937
Si Si2 0.906961 0.520636 0.965131
Si Si3 0.181864 0.300883 0.548247
Si Si4 0.819240 0.949765 0.183713
Si Si5 0.910708 0.257210 0.025631
O O1 0.927461 0.186787 0.071214
O O2 0.949331 0.189126 0.245396
O O3 0.039292 0.150870 0.140551
O O4 0.878946 0.044897 0.150924
O O5 0.888199 0.597278 0.951932
O O6 0.902964 0.475536 0.869947
O O7 0.843464 0.456569 0.040530
O O8 0.000000 0.557062 0.000000
O O9 0.256766 0.391900 0.515570
O O10 0.108258 0.308726 0.596388
O O11 0.000000 0.340094 0.000000
#
# Coordination Sequence:
#
# PCOD8322535 Si02
#       5
#    18  18  18  18  18
#     4  11  25  40  66  89 132 172 214 269 332 395
#     4   9  20  35  63  93 117 157 204 263 323 369
#     4  10  20  38  64  91 125 155 213 266 316 394
#     4  11  22  41  61  93 125 166 215 263 327 392
#     4  11  23  43  63  95 129 172 215 268 335 404
#
# _framework density 20.947358000000001
#
# number of rings (size 3 to 8) (size 9 to 14) (size 15 to 20)
#    0.000    1.600    4.000    0.400    2.800    4.000 
#    0.000    0.000    0.000    0.000    0.000    0.000 
#    0.000    0.000    0.000    0.000    0.000    0.000 
#
# Total GULP energy -371944.754630 kJ/mol
# GULP energy per Si atom -12398.158488 kJ/mol
# Density = 2.089968 g / cm^3
# Si number density = 20.947358 Si / 1000 Ang^3
#
#
#
# Elastic Constant Matrix: (Units=GPa)
#
#
# Indices 1 2 3 4 5 6 
#
# 1 77.1453 14.1361 9.6414 3.3925 0.0000 0.0000
# 2 14.1361 77.1453 9.6414 -3.3925 0.0000 0.0000
# 3 9.6414 9.6414 66.4118 0.0000 0.0000 0.0000
# 4 3.3925 -3.3925 0.0000 26.5699 0.0000 0.0000
# 5 0.0000 0.0000 0.0000 0.0000 26.5699 3.3925
# 6 0.0000 0.0000 0.0000 0.0000 3.3925 31.5046
#
#
#
# Elastic Compliance Matrix: (Units=1/GPa)
#
#
# Indices 1 2 3 4 5 6 
#
# 1 0.013697 -0.002395 -0.001641 -0.002055 0.000000 0.000000
# 2 -0.002395 0.013697 -0.001641 0.002055 0.000000 0.000000
# 3 -0.001641 -0.001641 0.015534 0.000000 0.000000 0.000000
# 4 -0.002055 0.002055 0.000000 0.038161 0.000000 0.000000
# 5 0.000000 0.000000 0.000000 0.000000 0.038161 -0.004109
# 6 0.000000 0.000000 0.000000 0.000000 -0.004109 0.032184
#
#
# Mechanical properties :
#
#
# Convention : Reuss Voigt Hill
#
# Bulk Modulus (GPa) = 31.67114 31.94889 31.81002
# Shear Modulus (GPa) = 28.84974 29.41449 29.13212
#
# Velocity S-wave (km/s) = 3.71516 3.75134 3.73329
# Velocity P-wave (km/s) = 5.79270 5.83511 5.81395
#
# Compressibility (1/GPa) = 0.03157448
#
# Stress axis : x y z
#
# Youngs Moduli (GPa) = 73.00961 73.00961 64.37510
#
# Poissons Ratio (x) = 0.17487 0.10562
# Poissons Ratio (y) = 0.17487 0.10562
# Poissons Ratio (z) = 0.11979 0.11979
#
# Static dielectric constant tensor:
#      x y z
#    x 3.666010 0.000000 0.000000 
#    y 0.000000 3.666010 0.000000 
#    z 0.000000 0.000000 4.298050 
# 
# 
# High freq. dielectric constant tensor:
#      x y z
#    x 1.807900 0.000000 0.000000 
#    y 0.000000 1.807900 0.000000 
#    z 0.000000 0.000000 1.836390 
# 
# From -- ./inp_files/6098.got.cif
#   From: 2010.03.12/outbox.cif.g09.slc.cpg/sg155_4_cif.got.tgz:6098.got - 2010.04.03 13:54:13.
