data_PCOD8322156
_publ_section_title
;
Structure prediction by ZEFSAII (Michael W. Deem and Ramdas Pophale) SiO2 
 PCOD8322156
Probable space group: P 31 2 1
;
_chemical_formula_sum "Si O2"
_cell_formula_units_Z 39
_cell_length_a 8.366166
_cell_length_b 8.366166
_cell_length_c 27.975710
_cell_angle_alpha 90.000000
_cell_angle_beta 90.000000
_cell_angle_gamma 120.000000
_cell_volume 1695.761239
_symmetry_space_group_name_H-M "P 31 2 1"
_symmetry_group_IT_number 152
_symmetry_cell_setting 'hexagonal'
loop_
_space_group_symop_operation_xyz
x,y,z
-y,x-y,1/3+z
-x+y,-x,2/3+z
x-y,-y,2/3-z
-x,-x+y,1/3-z
y,x,-z
loop_
_atom_site_type_symbol
_atom_site_label
_atom_site_fract_x
_atom_site_fract_y
_atom_site_fract_z
Si Si1 0.589975 0.530174 0.430035
Si Si2 0.030726 0.607364 0.878122
Si Si3 0.738755 0.629280 0.934106
Si Si4 0.694836 0.090910 0.229693
Si Si5 0.000000 0.707127 0.166667
Si Si6 0.762288 0.758564 0.243124
Si Si7 0.684706 0.939866 0.966578
O O1 0.801497 0.590589 0.432694
O O2 0.572408 0.706045 0.443491
O O3 0.467407 0.357875 0.464868
O O4 0.499489 0.450856 0.378026
O O5 0.035489 0.590048 0.821140
O O6 0.846098 0.616590 0.888109
O O7 0.031814 0.443391 0.907076
O O8 0.538685 0.443232 0.936132
O O9 0.704919 0.800760 0.929844
O O10 0.866844 0.660845 0.980004
O O11 0.761099 0.949866 0.246866
O O12 0.139395 0.890780 0.138671
O O13 0.862829 0.733718 0.290174
#
# Coordination Sequence:
#
# PCOD8322156 Si02
#       7
#     6   6   6   6   3   6   6
#     4  11  23  42  68 101 145 178 236 284 357 413
#     4  12  25  40  69 109 141 187 228 299 355 419
#     4  11  25  47  71  98 145 182 246 285 357 428
#     4  12  25  43  70 109 141 186 232 301 351 423
#     4  10  22  40  62  98 144 180 222 292 340 420
#     4  11  26  40  69 102 143 182 242 282 360 415
#     4  10  25  47  68  99 136 197 227 298 350 422
#
# _framework density 22.998519000000002
#
# number of rings (size 3 to 8) (size 9 to 14) (size 15 to 20)
#    0.000    0.923    1.538    4.615   12.923    2.462 
#    0.000    9.231    0.000    0.000    0.000    0.000 
#    0.000    0.000    0.000    0.000    0.000    0.000 
#
# Total GULP energy -483587.115920 kJ/mol
# GULP energy per Si atom -12399.669639 kJ/mol
# Density = 2.294617 g / cm^3
# Si number density = 22.998519 Si / 1000 Ang^3
#
#
#
# Elastic Constant Matrix: (Units=GPa)
#
#
# Indices 1 2 3 4 5 6 
#
# 1 111.7655 26.4662 27.3970 4.2709 0.0000 0.0000
# 2 26.4662 111.7655 27.3970 -4.2709 0.0000 0.0000
# 3 27.3970 27.3970 65.4212 0.0000 0.0000 0.0000
# 4 4.2709 -4.2709 0.0000 33.9402 0.0000 0.0000
# 5 0.0000 0.0000 0.0000 0.0000 33.9402 4.2709
# 6 0.0000 0.0000 0.0000 0.0000 4.2709 42.6497
#
#
#
# Elastic Compliance Matrix: (Units=1/GPa)
#
#
# Indices 1 2 3 4 5 6 
#
# 1 0.010274 -0.001599 -0.003633 -0.001494 0.000000 0.000000
# 2 -0.001599 0.010274 -0.003633 0.001494 0.000000 0.000000
# 3 -0.003633 -0.003633 0.018328 0.000000 0.000000 0.000000
# 4 -0.001494 0.001494 0.000000 0.029840 0.000000 0.000000
# 5 0.000000 0.000000 0.000000 0.000000 0.029840 -0.002988
# 6 0.000000 0.000000 0.000000 0.000000 -0.002988 0.023746
#
#
# Mechanical properties :
#
#
# Convention : Reuss Voigt Hill
#
# Bulk Modulus (GPa) = 47.28998 50.16364 48.72681
# Shear Modulus (GPa) = 33.99550 35.95214 34.97382
#
# Velocity S-wave (km/s) = 3.84886 3.95807 3.90384
# Velocity P-wave (km/s) = 6.35283 6.53815 6.44616
#
# Compressibility (1/GPa) = 0.02114613
#
# Stress axis : x y z
#
# Youngs Moduli (GPa) = 97.33694 97.33694 54.56123
#
# Poissons Ratio (x) = 0.15569 0.19820
# Poissons Ratio (y) = 0.15569 0.19820
# Poissons Ratio (z) = 0.35358 0.35358
#
# Static dielectric constant tensor:
#      x y z
#    x 4.325360 0.000000 0.000000 
#    y 0.000000 4.325360 0.000000 
#    z 0.000000 0.000000 3.987720 
# 
# 
# High freq. dielectric constant tensor:
#      x y z
#    x 1.920610 0.000000 0.000000 
#    y 0.000000 1.920610 0.000000 
#    z 0.000000 0.000000 1.893280 
# 
# From -- ./inp_files/3628.got.cif
#   From: 2010.03.12/outbox.cif.g09.slc.cpg/sg152_2_cif.got.tgz:3628.got - 2010.04.03 13:45:27.
