data_PCOD8322152
_publ_section_title
;
Structure prediction by ZEFSAII (Michael W. Deem and Ramdas Pophale) SiO2 
 PCOD8322152
Probable space group: P 31 2 1
;
_chemical_formula_sum "Si O2"
_cell_formula_units_Z 39
_cell_length_a 8.675016
_cell_length_b 8.675016
_cell_length_c 26.941109
_cell_angle_alpha 90.000000
_cell_angle_beta 90.000000
_cell_angle_gamma 120.000000
_cell_volume 1755.846999
_symmetry_space_group_name_H-M "P 31 2 1"
_symmetry_group_IT_number 152
_symmetry_cell_setting 'hexagonal'
loop_
_space_group_symop_operation_xyz
x,y,z
-y,x-y,1/3+z
-x+y,-x,2/3+z
x-y,-y,2/3-z
-x,-x+y,1/3-z
y,x,-z
loop_
_atom_site_type_symbol
_atom_site_label
_atom_site_fract_x
_atom_site_fract_y
_atom_site_fract_z
Si Si1 0.000000 0.908950 0.166667
Si Si2 0.759191 0.227804 0.803261
Si Si3 0.804909 0.859551 0.423869
Si Si4 0.560985 0.915573 0.255335
Si Si5 0.020581 0.658472 0.299387
Si Si6 0.309814 0.002383 0.011523
Si Si7 0.597060 0.597060 0.500000
Si Si8 0.648666 0.648666 0.000000
O O1 0.182264 0.900281 0.170969
O O2 0.005183 0.006554 0.115019
O O3 0.823449 0.431814 0.791303
O O4 0.597882 0.171121 0.841914
O O5 0.680238 0.101402 0.754953
O O6 0.811428 0.829856 0.365343
O O7 0.724861 0.674116 0.452462
O O8 0.665242 0.926482 0.434328
O O9 0.613554 0.787233 0.285799
O O10 0.463381 0.999560 0.286283
O O11 0.999777 0.480627 0.323907
O O12 0.827093 0.644332 0.294915
O O13 0.155981 0.825204 0.333766
#
# Coordination Sequence:
#
# PCOD8322152 Si02
#       8
#     3   6   6   6   6   6   3   3
#     4  10  24  42  66  90 128 186 222 256 324 386
#     4  10  22  43  64  92 128 171 222 267 316 399
#     4  11  23  41  63  92 131 172 218 267 320 398
#     4  11  23  40  66  95 133 159 218 274 330 383
#     4  11  24  39  66  96 132 168 216 271 339 384
#     4  12  24  41  66  99 133 173 211 277 342 395
#     4  10  22  42  64  80 126 178 218 262 316 376
#     4  10  22  38  62  98 124 164 204 266 332 390
#
# _framework density 22.211504999999999
#
# number of rings (size 3 to 8) (size 9 to 14) (size 15 to 20)
#    0.000    1.231    3.077    2.769    6.462    1.231 
#    0.000    0.000    0.000    0.000    0.000    0.000 
#    0.000    0.000    0.000    0.000    0.000    0.000 
#
# Total GULP energy -483269.857468 kJ/mol
# GULP energy per Si atom -12391.534807 kJ/mol
# Density = 2.216095 g / cm^3
# Si number density = 22.211505 Si / 1000 Ang^3
#
#
#
# Elastic Constant Matrix: (Units=GPa)
#
#
# Indices 1 2 3 4 5 6 
#
# 1 103.3975 32.8939 8.4113 -1.5296 0.0002 0.0000
# 2 32.8939 103.3975 8.4113 1.5296 -0.0002 0.0000
# 3 8.4113 8.4113 25.5287 0.0000 0.0000 0.0000
# 4 -1.5296 1.5296 0.0000 15.0076 0.0000 -0.0002
# 5 0.0002 -0.0002 0.0000 0.0000 15.0076 -1.5296
# 6 0.0000 0.0000 0.0000 -0.0002 -1.5296 35.2518
#
#
#
# Elastic Compliance Matrix: (Units=1/GPa)
#
#
# Indices 1 2 3 4 5 6 
#
# 1 0.010947 -0.003299 -0.002520 0.001452 0.000000 0.000000
# 2 -0.003299 0.010947 -0.002520 -0.001452 0.000000 0.000000
# 3 -0.002520 -0.002520 0.040832 0.000000 0.000000 0.000000
# 4 0.001452 -0.001452 0.000000 0.066929 0.000000 0.000000
# 5 0.000000 0.000000 0.000000 0.000000 0.066929 0.002904
# 6 0.000000 0.000000 0.000000 0.000000 0.002904 0.028493
#
#
# Mechanical properties :
#
#
# Convention : Reuss Voigt Hill
#
# Bulk Modulus (GPa) = 21.71612 36.86186 29.28899
# Shear Modulus (GPa) = 19.44721 25.22722 22.33721
#
# Velocity S-wave (km/s) = 2.96217 3.37378 3.17465
# Velocity P-wave (km/s) = 4.63654 5.63989 5.16265
#
# Compressibility (1/GPa) = 0.04604874
#
# Stress axis : x y z
#
# Youngs Moduli (GPa) = 91.34530 91.34530 24.49050
#
# Poissons Ratio (x) = 0.30137 0.06172
# Poissons Ratio (y) = 0.30137 0.06172
# Poissons Ratio (z) = 0.23019 0.23019
#
# Static dielectric constant tensor:
#      x y z
#    x 4.185030 0.000000 0.000000 
#    y 0.000000 4.185030 0.000000 
#    z 0.000000 0.000000 3.984390 
# 
# 
# High freq. dielectric constant tensor:
#      x y z
#    x 1.880060 0.000000 0.000000 
#    y 0.000000 1.880060 0.000000 
#    z 0.000000 0.000000 1.865010 
# 
# From -- ./inp_files/3679.got.cif
#   From: 2010.03.12/outbox.cif.g09.slc.cpg/sg152_2_cif.got.tgz:3679.got - 2010.04.03 13:45:27.
