data_PCOD8322855
_publ_section_title
;
Structure prediction by ZEFSAII (Michael W. Deem and Ramdas Pophale) SiO2 
 PCOD8322855
Probable space group: R 3 M
;
_chemical_formula_sum "Si O2"
_cell_formula_units_Z 126
_cell_length_a 26.840163
_cell_length_b 26.840163
_cell_length_c 10.663172
_cell_angle_alpha 90.000000
_cell_angle_beta 90.000000
_cell_angle_gamma 120.000000
_cell_volume 6652.537697
_symmetry_space_group_name_H-M "R 3 M"
_symmetry_group_IT_number 160
_symmetry_cell_setting 'hexagonal'
loop_
_space_group_symop_operation_xyz
x,y,z
-y,x-y,z
-x+y,-x,z
-x+y,y,z
x,x-y,z
-y,-x,z
2/3+x,1/3+y,1/3+z
2/3-y,1/3+x-y,1/3+z
2/3-x+y,1/3-x,1/3+z
2/3-x+y,1/3+y,1/3+z
2/3+x,1/3+x-y,1/3+z
2/3-y,1/3-x,1/3+z
1/3+x,2/3+y,2/3+z
1/3-y,2/3+x-y,2/3+z
1/3-x+y,2/3-x,2/3+z
1/3-x+y,2/3+y,2/3+z
1/3+x,2/3+x-y,2/3+z
1/3-y,2/3-x,2/3+z
loop_
_atom_site_type_symbol
_atom_site_label
_atom_site_fract_x
_atom_site_fract_y
_atom_site_fract_z
Si Si1 0.347825 0.890800 0.782472
Si Si2 0.837141 0.558978 0.172979
Si Si3 0.500024 0.383352 0.984088
Si Si4 0.321903 0.102090 0.481943
Si Si5 0.107352 0.999843 0.505456
Si Si6 0.556460 0.223200 0.546113
Si Si7 0.121475 0.357056 0.864511
O O1 0.370919 0.882583 0.650820
O O2 0.336554 0.837366 0.866865
O O3 0.288149 0.891182 0.772985
O O4 0.393799 0.949418 0.851030
O O5 0.769491 0.538981 0.147669
O O6 0.875908 0.626343 0.142793
O O7 0.861524 0.523936 0.096796
O O8 0.557244 0.442757 0.027158
O O9 0.452397 0.396484 0.924167
O O10 0.512836 0.351832 0.871410
O O11 0.326861 0.163431 0.478033
O O12 0.304643 0.075297 0.341650
O O13 0.063037 0.936964 0.561569
O O14 0.092217 0.046109 0.565466
O O15 0.099662 0.999978 0.358683
O O16 0.608324 0.216647 0.485293
O O17 0.556189 0.278095 0.483658
O O18 0.188745 0.377490 0.858230
#
# Coordination Sequence:
#
# PCOD8322855 Si02
#       7
#    18  18  18  18  18  18  18
#     4  11  20  34  57  79 103 139 180 219 265 324
#     4  10  22  39  55  76 112 149 176 210 266 333
#     4  10  20  34  54  78 105 139 179 221 263 313
#     4   9  19  36  54  75 104 135 172 222 273 313
#     4   9  17  30  50  76 104 134 170 214 263 311
#     4  10  19  31  50  78 110 142 179 225 274 322
#     4   9  19  36  57  78 101 134 178 227 274 322
#
# _framework density 18.94014
#
# number of rings (size 3 to 8) (size 9 to 14) (size 15 to 20)
#    0.000    2.286    0.000    4.143    0.000    6.857 
#    0.000    1.429    0.000    3.714    0.000    0.000 
#    0.000    0.000    0.000    0.000    0.000    0.000 
#
# Total GULP energy -520525.853543 kJ/mol
# GULP energy per Si atom -12393.472703 kJ/mol
# Density = 1.889703 g / cm^3
# Si number density = 18.940140 Si / 1000 Ang^3
#
#
#
# Elastic Constant Matrix: (Units=GPa)
#
#
# Indices 1 2 3 4 5 6 
#
# 1 115.9686 59.2537 33.1811 2.0431 0.0099 0.0054
# 2 59.2537 115.9588 33.1521 -2.0442 -0.0041 -0.0031
# 3 33.1811 33.1521 42.1340 0.0010 0.0295 0.0162
# 4 2.0431 -2.0442 0.0010 28.5411 -0.0012 0.0017
# 5 0.0099 -0.0041 0.0295 -0.0012 28.5489 2.0503
# 6 0.0054 -0.0031 0.0162 0.0017 2.0503 28.3528
#
#
#
# Elastic Compliance Matrix: (Units=1/GPa)
#
#
# Indices 1 2 3 4 5 6 
#
# 1 0.012930 -0.004798 -0.006408 -0.001269 0.000001 0.000001
# 2 -0.004798 0.012925 -0.006392 0.001269 0.000010 0.000005
# 3 -0.006408 -0.006392 0.033809 0.000000 -0.000033 -0.000016
# 4 -0.001269 0.001269 0.000000 0.035219 0.000002 -0.000002
# 5 0.000001 0.000010 -0.000033 0.000002 0.035211 -0.002546
# 6 0.000001 0.000005 -0.000016 -0.000002 -0.002546 0.035454
#
#
# Mechanical properties :
#
#
# Convention : Reuss Voigt Hill
#
# Bulk Modulus (GPa) = 40.86578 58.35947 49.61263
# Shear Modulus (GPa) = 23.93511 26.98685 25.46098
#
# Velocity S-wave (km/s) = 3.55875 3.77881 3.67043
# Velocity P-wave (km/s) = 6.20559 7.06532 6.64936
#
# Compressibility (1/GPa) = 0.02447035
#
# Stress axis : x y z
#
# Youngs Moduli (GPa) = 77.33910 77.36973 29.57787
#
# Poissons Ratio (x) = 0.37119 0.18953
# Poissons Ratio (y) = 0.37104 0.18905
# Poissons Ratio (z) = 0.49557 0.49451
#
# Static dielectric constant tensor:
#      x y z
#    x 3.657640 0.000000 -0.000020 
#    y 0.000000 3.657650 0.000000 
#    z -0.000020 0.000000 3.111000 
# 
# 
# High freq. dielectric constant tensor:
#      x y z
#    x 1.745030 0.000000 0.000000 
#    y 0.000000 1.745030 0.000000 
#    z 0.000000 0.000000 1.699410 
# 
# From -- ./inp_files/1802.got.cif
#   From: 2010.03.12/outbox.cif.g09.slc.cpg/sg160_1_cif.got.tgz:1802.got - 2010.04.02 06:26:15.
