data_PCOD8322616
_publ_section_title
;
Structure prediction by ZEFSAII (Michael W. Deem and Ramdas Pophale) SiO2 
 PCOD8322616
Probable space group: R 3 2
;
_chemical_formula_sum "Si O2"
_cell_formula_units_Z 69
_cell_length_a 20.367335
_cell_length_b 20.367335
_cell_length_c 8.364334
_cell_angle_alpha 90.000000
_cell_angle_beta 90.000000
_cell_angle_gamma 120.000000
_cell_volume 3004.902684
_symmetry_space_group_name_H-M "R 3 2"
_symmetry_group_IT_number 155
_symmetry_cell_setting 'hexagonal'
loop_
_space_group_symop_operation_xyz
x,y,z
-y,x-y,z
-x+y,-x,z
x-y,-y,-z
-x,-x+y,-z
y,x,-z
2/3+x,1/3+y,1/3+z
2/3-y,1/3+x-y,1/3+z
2/3-x+y,1/3-x,1/3+z
2/3+x-y,1/3-y,1/3-z
2/3-x,1/3-x+y,1/3-z
2/3+y,1/3+x,1/3-z
1/3+x,2/3+y,2/3+z
1/3-y,2/3+x-y,2/3+z
1/3-x+y,2/3-x,2/3+z
1/3+x-y,2/3-y,2/3-z
1/3-x,2/3-x+y,2/3-z
1/3+y,2/3+x,2/3-z
loop_
_atom_site_type_symbol
_atom_site_label
_atom_site_fract_x
_atom_site_fract_y
_atom_site_fract_z
Si Si1 0.242806 0.299798 0.177235
Si Si2 0.499102 0.538576 0.342094
Si Si3 0.000000 0.000000 0.311334
Si Si4 0.861413 0.017457 0.312464
Si Si5 0.666667 0.626022 0.833334
O O1 0.333334 0.329610 0.166667
O O2 0.225342 0.333334 0.333334
O O3 0.214371 0.329226 0.028976
O O4 0.191166 0.209389 0.190701
O O5 0.549988 0.549988 0.500000
O O6 0.440925 0.568421 0.378413
O O7 0.546670 0.589108 0.190939
O O8 0.920617 0.991664 0.253820
O O9 0.000000 0.000000 0.500000
O O10 0.837269 0.000000 0.500000
O O11 0.671450 0.666667 0.666667
#
# Coordination Sequence:
#
# PCOD8322616 Si02
#       5
#    18  18   6  18   9
#     4  12  22  41  71 106 142 184 246 315 390 430
#     4  12  26  43  74 107 143 198 247 316 380 453
#     4   9  24  42  63 100 140 193 240 277 377 475
#     4  11  23  41  68 106 142 194 244 312 374 460
#     4  12  28  52  72 104 150 202 258 308 380 464
#
# _framework density 22.962474
#
# number of rings (size 3 to 8) (size 9 to 14) (size 15 to 20)
#    0.000    0.522    6.522    1.565    5.478    1.043 
#    0.000    0.000    0.000    4.696    0.000    0.000 
#    0.000    0.000    0.000    0.000    0.000    0.000 
#
# Total GULP energy -284977.624595 kJ/mol
# GULP energy per Si atom -12390.331504 kJ/mol
# Density = 2.291021 g / cm^3
# Si number density = 22.962474 Si / 1000 Ang^3
#
#
#
# Elastic Constant Matrix: (Units=GPa)
#
#
# Indices 1 2 3 4 5 6 
#
# 1 137.1425 71.5241 34.5694 2.2034 -0.0042 -0.0007
# 2 71.5241 137.1457 34.5787 -2.2033 0.0000 -0.0005
# 3 34.5694 34.5787 95.3661 0.0023 -0.0110 -0.0022
# 4 2.2034 -2.2033 0.0023 33.9520 0.0011 -0.0002
# 5 -0.0042 0.0000 -0.0110 0.0011 33.9452 2.2026
# 6 -0.0007 -0.0005 -0.0022 -0.0002 2.2026 32.8103
#
#
#
# Elastic Compliance Matrix: (Units=1/GPa)
#
#
# Indices 1 2 3 4 5 6 
#
# 1 0.010376 -0.004930 -0.001974 -0.000993 0.000001 0.000000
# 2 -0.004930 0.010376 -0.001975 0.000993 -0.000001 0.000000
# 3 -0.001974 -0.001975 0.011918 -0.000001 0.000004 0.000000
# 4 -0.000993 0.000993 -0.000001 0.029582 -0.000001 0.000000
# 5 0.000001 -0.000001 0.000004 -0.000001 0.029588 -0.001986
# 6 0.000000 0.000000 0.000000 0.000000 -0.001986 0.030612
#
#
# Mechanical properties :
#
#
# Convention : Reuss Voigt Hill
#
# Bulk Modulus (GPa) = 67.05807 72.33321 69.69564
# Shear Modulus (GPa) = 34.43980 35.40698 34.92339
#
# Velocity S-wave (km/s) = 3.87696 3.93103 3.90409
# Velocity P-wave (km/s) = 7.02196 7.22309 7.12323
#
# Compressibility (1/GPa) = 0.01491245
#
# Stress axis : x y z
#
# Youngs Moduli (GPa) = 96.37488 96.37198 83.90899
#
# Poissons Ratio (x) = 0.47508 0.16562
# Poissons Ratio (y) = 0.47510 0.16576
# Poissons Ratio (z) = 0.19022 0.19038
#
# Static dielectric constant tensor:
#      x y z
#    x 4.103510 0.000000 -0.000060 
#    y 0.000000 4.103520 0.000010 
#    z -0.000060 0.000010 3.031430 
# 
# 
# High freq. dielectric constant tensor:
#      x y z
#    x 1.905400 0.000000 0.000000 
#    y 0.000000 1.905400 0.000000 
#    z 0.000000 0.000000 1.901910 
# 
# From -- ./inp_files/2171.got.cif
#   From: 2010.03.12/outbox.cif.g09.slc.cpg/sg155_2_cif.got.tgz:2171.got - 2010.04.03 13:54:13.
