data_PCOD8322643
_publ_section_title
;
Structure prediction by ZEFSAII (Michael W. Deem and Ramdas Pophale) SiO2 
 PCOD8322643
Probable space group: P 3 M 1
;
_chemical_formula_sum "Si O2"
_cell_formula_units_Z 42
_cell_length_a 16.205801
_cell_length_b 16.205801
_cell_length_c 10.850050
_cell_angle_alpha 90.000000
_cell_angle_beta 90.000000
_cell_angle_gamma 120.000000
_cell_volume 2467.762580
_symmetry_space_group_name_H-M "P 3 M 1"
_symmetry_group_IT_number 156
_symmetry_cell_setting 'hexagonal'
loop_
_space_group_symop_operation_xyz
x,y,z
-y,x-y,z
-x+y,-x,z
-x+y,y,z
x,x-y,z
-y,-x,z
loop_
_atom_site_type_symbol
_atom_site_label
_atom_site_fract_x
_atom_site_fract_y
_atom_site_fract_z
Si Si1 0.999998 0.681922 0.856420
Si Si2 0.669137 0.927271 0.459750
Si Si3 0.527029 0.859571 0.680744
Si Si4 0.999589 0.814319 0.050165
Si Si5 0.330861 0.072728 0.253092
Si Si6 0.814319 0.814730 0.662676
Si Si7 0.472973 0.332542 0.032099
O O1 0.084295 0.667096 0.803640
O O2 0.961212 0.721427 0.747814
O O3 0.038786 0.760214 0.965026
O O4 0.915698 0.582801 0.909201
O O5 0.651311 0.825656 0.405661
O O6 0.587393 0.908469 0.557989
O O7 0.671425 1.000000 0.356420
O O8 0.771577 0.980804 0.525843
O O9 0.430247 0.860494 0.669881
O O10 0.504217 0.752109 0.693035
O O11 0.074772 0.925228 0.058493
O O12 0.900411 0.800823 0.994473
O O13 0.980806 0.771578 0.186998
O O14 0.348685 0.174343 0.307184
O O15 0.412606 0.091535 0.154853
O O16 0.925229 0.850457 0.654345
O O17 0.800823 0.900412 0.718368
O O18 0.495794 0.247897 0.019812
O O19 0.569749 0.430252 0.042964
#
# Coordination Sequence:
#
# PCOD8322643 Si02
#       7
#     6   6   6   6   6   6   6
#     4  10  19  32  47  68  94 122 154 192 235 278
#     4   9  18  31  47  68  94 124 157 192 230 273
#     4  10  20  34  52  72  94 120 153 193 235 279
#     4  10  18  28  44  67  98 132 164 196 229 270
#     4   9  18  31  47  68  94 124 157 192 230 273
#     4  10  18  28  44  67  98 132 164 196 229 270
#     4  10  20  34  52  72  94 120 153 193 235 279
#
# _framework density 17.019465
#
# number of rings (size 3 to 8) (size 9 to 14) (size 15 to 20)
#    0.000    2.286    0.000    6.143    0.000    0.571 
#    0.000    1.429    0.000    4.571    0.000    0.000 
#    0.000   18.286    0.000    0.000    0.000    0.000 
#
# Total GULP energy -520647.241266 kJ/mol
# GULP energy per Si atom -12396.362887 kJ/mol
# Density = 1.698073 g / cm^3
# Si number density = 17.019465 Si / 1000 Ang^3
#
#
#
# Elastic Constant Matrix: (Units=GPa)
#
#
# Indices 1 2 3 4 5 6 
#
# 1 114.9507 59.0957 49.0730 2.5520 0.0002 0.0000
# 2 59.0957 114.9507 49.0730 -2.5520 -0.0002 0.0000
# 3 49.0730 49.0730 72.6950 0.0000 0.0000 0.0000
# 4 2.5520 -2.5520 0.0000 18.0591 0.0000 -0.0002
# 5 0.0002 -0.0002 0.0000 0.0000 18.0591 2.5520
# 6 0.0000 0.0000 0.0000 -0.0002 2.5520 27.9275
#
#
#
# Elastic Compliance Matrix: (Units=1/GPa)
#
#
# Indices 1 2 3 4 5 6 
#
# 1 0.013707 -0.004430 -0.006263 -0.002563 0.000000 0.000000
# 2 -0.004430 0.013707 -0.006263 0.002563 0.000000 0.000000
# 3 -0.006263 -0.006263 0.022211 0.000000 0.000000 0.000000
# 4 -0.002563 0.002563 0.000000 0.056098 0.000000 0.000000
# 5 0.000000 0.000000 0.000000 0.000000 0.056098 -0.005126
# 6 0.000000 0.000000 0.000000 0.000000 -0.005126 0.036275
#
#
# Mechanical properties :
#
#
# Convention : Reuss Voigt Hill
#
# Bulk Modulus (GPa) = 63.63249 68.56442 66.09846
# Shear Modulus (GPa) = 21.07511 22.49946 21.78728
#
# Velocity S-wave (km/s) = 3.52276 3.63985 3.58178
# Velocity P-wave (km/s) = 7.34954 7.61827 7.48511
#
# Compressibility (1/GPa) = 0.01571524
#
# Stress axis : x y z
#
# Youngs Moduli (GPa) = 72.95330 72.95330 45.02246
#
# Poissons Ratio (x) = 0.32321 0.28195
# Poissons Ratio (y) = 0.32321 0.28195
# Poissons Ratio (z) = 0.45687 0.45687
#
# Static dielectric constant tensor:
#      x y z
#    x 3.104320 0.000000 0.000000 
#    y 0.000000 3.104320 0.000000 
#    z 0.000000 0.000000 3.075990 
# 
# 
# High freq. dielectric constant tensor:
#      x y z
#    x 1.650800 0.000000 0.000000 
#    y 0.000000 1.650800 0.000000 
#    z 0.000000 0.000000 1.648320 
# 
# From -- ./inp_files/654.got.cif
#   From: 2010.03.12/outbox.cif.g09.slc.cpg/sg156_cif.got.tgz:654.got - 2010.04.03 13:58:47.
