data_PCOD8322390
_publ_section_title
;
Structure prediction by ZEFSAII (Michael W. Deem and Ramdas Pophale) SiO2 
 PCOD8322390
Probable space group: P 32 2 1
;
_chemical_formula_sum "Si O2"
_cell_formula_units_Z 24
_cell_length_a 10.524806
_cell_length_b 10.524806
_cell_length_c 11.912766
_cell_angle_alpha 90.000000
_cell_angle_beta 90.000000
_cell_angle_gamma 120.000000
_cell_volume 1142.803184
_symmetry_space_group_name_H-M "P 32 2 1"
_symmetry_group_IT_number 154
_symmetry_cell_setting 'hexagonal'
loop_
_space_group_symop_operation_xyz
x,y,z
-y,x-y,2/3+z
-x+y,-x,1/3+z
x-y,-y,1/3-z
-x,-x+y,2/3-z
y,x,-z
loop_
_atom_site_type_symbol
_atom_site_label
_atom_site_fract_x
_atom_site_fract_y
_atom_site_fract_z
Si Si1 0.848250 0.750515 0.391019
Si Si2 0.551512 0.637258 0.262637
Si Si3 0.729107 0.426990 0.917630
Si Si4 0.395271 0.540854 0.879858
O O1 0.825644 0.825644 0.500000
O O2 0.717894 0.710168 0.302517
O O3 0.853926 0.606971 0.424732
O O4 0.000000 0.868187 0.333334
O O5 0.439488 0.561217 0.366922
O O6 0.526296 0.758904 0.195072
O O7 0.502041 0.512776 0.168109
O O8 0.627425 0.257800 0.885127
O O9 0.644064 0.464361 0.012096
#
# Coordination Sequence:
#
# PCOD8322390 Si02
#       4
#     6   6   6   6
#     4  12  26  47  65  93 139 181 215 270 338 406
#     4  11  23  43  69 100 134 166 233 278 330 396
#     4  10  22  39  70 104 125 175 224 282 331 382
#     4  11  21  42  68  99 134 170 222 284 337 384
#
# _framework density 21.000992
#
# number of rings (size 3 to 8) (size 9 to 14) (size 15 to 20)
#    0.000    1.000    5.000    2.250    3.500    0.000 
#    4.500    0.000    0.000    0.000    0.000    0.000 
#    0.000    0.000    0.000    0.000    0.000    0.000 
#
# Total GULP energy -297522.352490 kJ/mol
# GULP energy per Si atom -12396.764687 kJ/mol
# Density = 2.095319 g / cm^3
# Si number density = 21.000992 Si / 1000 Ang^3
#
#
#
# Elastic Constant Matrix: (Units=GPa)
#
#
# Indices 1 2 3 4 5 6 
#
# 1 102.4087 50.2328 55.4569 6.1502 -0.0001 0.0000
# 2 50.2328 102.4087 55.4569 -6.1502 0.0001 0.0000
# 3 55.4569 55.4569 109.1617 0.0000 0.0000 0.0000
# 4 6.1502 -6.1502 0.0000 37.4523 0.0000 0.0001
# 5 -0.0001 0.0001 0.0000 0.0000 37.4523 6.1502
# 6 0.0000 0.0000 0.0000 0.0001 6.1502 26.0879
#
#
#
# Elastic Compliance Matrix: (Units=1/GPa)
#
#
# Indices 1 2 3 4 5 6 
#
# 1 0.015161 -0.004777 -0.005276 -0.003274 0.000000 0.000000
# 2 -0.004777 0.015161 -0.005276 0.003274 0.000000 0.000000
# 3 -0.005276 -0.005276 0.014521 0.000000 0.000000 0.000000
# 4 -0.003274 0.003274 0.000000 0.027776 0.000000 0.000000
# 5 0.000000 0.000000 0.000000 0.000000 0.027776 -0.006548
# 6 0.000000 0.000000 0.000000 0.000000 -0.006548 0.039876
#
#
# Mechanical properties :
#
#
# Convention : Reuss Voigt Hill
#
# Bulk Modulus (GPa) = 70.48318 70.69693 70.59006
# Shear Modulus (GPa) = 28.46465 30.38735 29.42600
#
# Velocity S-wave (km/s) = 3.68556 3.80800 3.74728
# Velocity P-wave (km/s) = 7.19346 7.28500 7.23937
#
# Compressibility (1/GPa) = 0.01418778
#
# Stress axis : x y z
#
# Youngs Moduli (GPa) = 65.95737 65.95737 68.86514
#
# Poissons Ratio (x) = 0.31505 0.36331
# Poissons Ratio (y) = 0.31505 0.36331
# Poissons Ratio (z) = 0.34797 0.34797
#
# Static dielectric constant tensor:
#      x y z
#    x 3.745330 0.000000 0.000000 
#    y 0.000000 3.745330 0.000000 
#    z 0.000000 0.000000 4.115530 
# 
# 
# High freq. dielectric constant tensor:
#      x y z
#    x 1.811950 0.000000 0.000000 
#    y 0.000000 1.811950 0.000000 
#    z 0.000000 0.000000 1.850180 
# 
# From -- ./inp_files/1546.got.cif
#   From: 2010.03.12/outbox.cif.g09.slc.cpg/sg154_1_cif.got.tgz:1546.got - 2010.04.03 13:51:21.
