data_PCOD8322953
_publ_section_title
;
Structure prediction by ZEFSAII (Michael W. Deem and Ramdas Pophale) SiO2 
 PCOD8322953
Probable space group: P -3 1 M 
;
_chemical_formula_sum "Si O2"
_cell_formula_units_Z 72
_cell_length_a 22.846121
_cell_length_b 22.846121
_cell_length_c 9.376373
_cell_angle_alpha 90.000000
_cell_angle_beta 90.000000
_cell_angle_gamma 120.000000
_cell_volume 4238.287883
_symmetry_space_group_name_H-M "P -3 1 M "
_symmetry_group_IT_number 162
_symmetry_cell_setting 'hexagonal'
loop_
_space_group_symop_operation_xyz
x,y,z
-y,x-y,z
-x+y,-x,z
-y,-x,-z
-x+y,y,-z
x,x-y,-z
-x,-y,-z
y,-x+y,-z
x-y,x,-z
y,x,z
x-y,-y,z
-x,-x+y,z
loop_
_atom_site_type_symbol
_atom_site_label
_atom_site_fract_x
_atom_site_fract_y
_atom_site_fract_z
Si Si1 0.805397 0.075590 0.314071
Si Si2 0.320368 0.531435 0.161617
Si Si3 0.211888 0.287404 0.635382
Si Si4 0.613846 0.745876 0.912572
Si Si5 0.197427 0.653801 0.825506
Si Si6 0.676930 0.077054 0.807253
O O1 0.883984 0.133240 0.317165
O O2 0.775457 0.079401 0.467423
O O3 0.769363 0.091302 0.186716
O O4 0.794202 0.000000 0.291583
O O5 0.294099 0.452253 0.188265
O O6 0.392718 0.583989 0.230546
O O7 0.265134 0.546767 0.235011
O O8 0.332441 0.542803 0.993049
O O9 0.236442 0.236442 0.686615
O O10 0.254609 0.358546 0.715417
O O11 0.611558 0.805779 0.000000
O O12 0.615794 0.694493 0.026379
O O13 0.128013 0.649349 0.774338
O O14 0.620916 0.000000 0.766242
#
# Coordination Sequence:
#
# PCOD8322953 Si02
#       6
#    12  12  12  12  12  12
#     4  10  19  31  49  72  95 121 155 188 225 275
#     4   9  15  25  41  61  92 119 151 194 236 276
#     4   9  18  32  50  70  94 123 153 189 227 270
#     4  11  17  30  44  69  96 119 148 191 234 273
#     4   9  15  25  40  64  87 119 155 191 235 279
#     4  10  18  30  47  67  94 122 152 191 234 278
#
# _framework density 16.987991000000001
#
# number of rings (size 3 to 8) (size 9 to 14) (size 15 to 20)
#    0.000    2.333    5.000    0.833    0.000    1.333 
#    0.000    7.500    0.000    1.333    0.000    5.833 
#    0.000    3.333    0.000    0.000    0.000    0.000 
#
# Total GULP energy -892011.178715 kJ/mol
# GULP energy per Si atom -12389.044149 kJ/mol
# Density = 1.694933 g / cm^3
# Si number density = 16.987991 Si / 1000 Ang^3
#
#
#
# Elastic Constant Matrix: (Units=GPa)
#
#
# Indices 1 2 3 4 5 6 
#
# 1 109.4300 60.2851 22.8520 0.0000 1.3966 0.0000
# 2 60.2851 109.4300 22.8520 0.0000 -1.3966 0.0000
# 3 22.8520 22.8520 32.6889 0.0000 0.0000 0.0000
# 4 0.0000 0.0000 0.0000 10.8868 0.0000 -1.3966
# 5 1.3966 -1.3966 0.0000 0.0000 10.8868 0.0000
# 6 0.0000 0.0000 0.0000 -1.3966 0.0000 24.5724
#
#
#
# Elastic Compliance Matrix: (Units=1/GPa)
#
#
# Indices 1 2 3 4 5 6 
#
# 1 0.013878 -0.006619 -0.005074 0.000000 -0.002629 0.000000
# 2 -0.006619 0.013878 -0.005074 0.000000 0.002629 0.000000
# 3 -0.005074 -0.005074 0.037686 0.000000 0.000000 0.000000
# 4 0.000000 0.000000 0.000000 0.092529 0.000000 0.005259
# 5 -0.002629 0.002629 0.000000 0.000000 0.092529 0.000000
# 6 0.000000 0.000000 0.000000 0.005259 0.000000 0.040995
#
#
# Mechanical properties :
#
#
# Convention : Reuss Voigt Hill
#
# Bulk Modulus (GPa) = 31.34199 51.50302 41.42251
# Shear Modulus (GPa) = 14.89570 18.97319 16.93445
#
# Velocity S-wave (km/s) = 2.96436 3.34557 3.16072
# Velocity P-wave (km/s) = 5.49601 6.73104 6.14463
#
# Compressibility (1/GPa) = 0.03190607
#
# Stress axis : x y z
#
# Youngs Moduli (GPa) = 72.05596 72.05596 26.53488
#
# Poissons Ratio (x) = 0.47696 0.13465
# Poissons Ratio (y) = 0.47696 0.13465
# Poissons Ratio (z) = 0.36564 0.36564
#
# Static dielectric constant tensor:
#      x y z
#    x 3.321230 0.000000 0.000000 
#    y 0.000000 3.321230 0.000000 
#    z 0.000000 0.000000 2.875210 
# 
# 
# High freq. dielectric constant tensor:
#      x y z
#    x 1.651650 0.000000 0.000000 
#    y 0.000000 1.651650 0.000000 
#    z 0.000000 0.000000 1.615650 
# 
# From -- ./inp_files/1700.got.cif
#   From: 2010.03.12/outbox.cif.g09.slc.cpg/sg162_1_cif.got.tgz:1700.got - 2010.04.02 06:27:41.
