data_PCOD8322229
_publ_section_title
;
Structure prediction by ZEFSAII (Michael W. Deem and Ramdas Pophale) SiO2 
 PCOD8322229
Probable space group: P 31 2 1
;
_chemical_formula_sum "Si O2"
_cell_formula_units_Z 15
_cell_length_a 7.664286
_cell_length_b 7.664286
_cell_length_c 11.095881
_cell_angle_alpha 90.000000
_cell_angle_beta 90.000000
_cell_angle_gamma 120.000000
_cell_volume 564.463452
_symmetry_space_group_name_H-M "P 31 2 1"
_symmetry_group_IT_number 152
_symmetry_cell_setting 'hexagonal'
loop_
_space_group_symop_operation_xyz
x,y,z
-y,x-y,1/3+z
-x+y,-x,2/3+z
x-y,-y,2/3-z
-x,-x+y,1/3-z
y,x,-z
loop_
_atom_site_type_symbol
_atom_site_label
_atom_site_fract_x
_atom_site_fract_y
_atom_site_fract_z
Si Si1 0.915686 0.552396 0.924328
Si Si2 0.000000 0.504832 0.666667
Si Si3 0.765463 0.785157 0.637594
O O1 0.941445 0.596276 0.780855
O O2 0.692405 0.484200 0.967649
O O3 0.038461 0.756660 0.999406
O O4 0.002224 0.401932 0.950312
O O5 0.715432 0.715432 0.500000
O O6 0.000000 0.863013 0.666667
#
# Coordination Sequence:
#
# PCOD8322229 Si02
#       3
#     6   3   6
#     4  12  29  52  84 122 169 223 283 354 427 510
#     4  12  28  52  84 124 170 224 288 350 432 514
#     4  12  30  54  83 123 169 221 283 354 425 508
#
# _framework density 26.573910000000001
#
# number of rings (size 3 to 8) (size 9 to 14) (size 15 to 20)
#    0.000    0.000    2.000    4.800   19.600    0.000 
#    0.000    0.000    0.000    0.000    0.000    0.000 
#    0.000    0.000    0.000    0.000    0.000    0.000 
#
# Total GULP energy -185822.822044 kJ/mol
# GULP energy per Si atom -12388.188136 kJ/mol
# Density = 2.651343 g / cm^3
# Si number density = 26.573910 Si / 1000 Ang^3
#
#
#
# Elastic Constant Matrix: (Units=GPa)
#
#
# Indices 1 2 3 4 5 6 
#
# 1 183.2171 72.5733 42.0039 4.5864 0.0001 0.0000
# 2 72.5733 183.2171 42.0039 -4.5864 -0.0001 0.0000
# 3 42.0039 42.0039 129.7890 0.0000 0.0000 0.0000
# 4 4.5864 -4.5864 0.0000 37.4355 0.0000 -0.0001
# 5 0.0001 -0.0001 0.0000 0.0000 37.4355 4.5864
# 6 0.0000 0.0000 0.0000 -0.0001 4.5864 55.3219
#
#
#
# Elastic Compliance Matrix: (Units=1/GPa)
#
#
# Indices 1 2 3 4 5 6 
#
# 1 0.006753 -0.002378 -0.001416 -0.001119 0.000000 0.000000
# 2 -0.002378 0.006753 -0.001416 0.001119 0.000000 0.000000
# 3 -0.001416 -0.001416 0.008621 0.000000 0.000000 0.000000
# 4 -0.001119 0.001119 0.000000 0.026987 0.000000 0.000000
# 5 0.000000 0.000000 0.000000 0.000000 0.026987 -0.002237
# 6 0.000000 0.000000 0.000000 0.000000 -0.002237 0.018261
#
#
# Mechanical properties :
#
#
# Convention : Reuss Voigt Hill
#
# Bulk Modulus (GPa) = 85.41785 89.93171 87.67478
# Shear Modulus (GPa) = 46.00549 48.68140 47.34345
#
# Velocity S-wave (km/s) = 4.16532 4.28474 4.22545
# Velocity P-wave (km/s) = 7.43952 7.64161 7.54124
#
# Compressibility (1/GPa) = 0.01170715
#
# Stress axis : x y z
#
# Youngs Moduli (GPa) = 148.09164 148.09164 115.99388
#
# Poissons Ratio (x) = 0.35219 0.16421
# Poissons Ratio (y) = 0.35219 0.16421
# Poissons Ratio (z) = 0.20965 0.20965
#
# Static dielectric constant tensor:
#      x y z
#    x 5.032160 0.000000 0.000000 
#    y 0.000000 5.032160 0.000000 
#    z 0.000000 0.000000 5.152680 
# 
# 
# High freq. dielectric constant tensor:
#      x y z
#    x 2.091820 0.000000 0.000000 
#    y 0.000000 2.091820 0.000000 
#    z 0.000000 0.000000 2.072220 
# 
# From -- ./inp_files/1439.got.cif
#   From: 2010.03.12/outbox.cif.g09.slc.cpg/sg152_1_cif.got.tgz:1439.got - 2010.04.03 13:45:27.
