data_PCOD8322351
_publ_section_title
;
Structure prediction by ZEFSAII (Michael W. Deem and Ramdas Pophale) SiO2 
 PCOD8322351
Probable space group: P 32 2 1
;
_chemical_formula_sum "Si O2"
_cell_formula_units_Z 45
_cell_length_a 13.883714
_cell_length_b 13.883714
_cell_length_c 13.066088
_cell_angle_alpha 90.000000
_cell_angle_beta 90.000000
_cell_angle_gamma 120.000000
_cell_volume 2181.160017
_symmetry_space_group_name_H-M "P 32 2 1"
_symmetry_group_IT_number 154
_symmetry_cell_setting 'hexagonal'
loop_
_space_group_symop_operation_xyz
x,y,z
-y,x-y,2/3+z
-x+y,-x,1/3+z
x-y,-y,1/3-z
-x,-x+y,2/3-z
y,x,-z
loop_
_atom_site_type_symbol
_atom_site_label
_atom_site_fract_x
_atom_site_fract_y
_atom_site_fract_z
Si Si1 0.759391 0.960772 0.564625
Si Si2 0.628582 0.587894 0.325083
Si Si3 0.282697 0.462226 0.017831
Si Si4 0.111335 0.721301 0.559798
Si Si5 0.427580 0.368070 0.394994
Si Si6 0.294867 0.732752 0.677606
Si Si7 0.752213 0.752213 0.500000
Si Si8 0.693786 0.498862 0.757989
O O1 0.630952 0.905440 0.606162
O O2 0.771728 0.875107 0.495314
O O3 0.836995 0.000000 0.666667
O O4 0.799605 0.070185 0.493878
O O5 0.721301 0.561495 0.281080
O O6 0.546910 0.478920 0.390094
O O7 0.685982 0.691840 0.399989
O O8 0.572066 0.631317 0.241028
O O9 0.341841 0.467941 0.127313
O O10 0.360457 0.581765 0.964351
O O11 0.227947 0.787193 0.622280
O O12 0.011654 0.638009 0.630885
O O13 0.365549 0.365549 0.500000
O O14 0.434927 0.255921 0.385049
O O15 0.222194 0.601167 0.654355
O O16 0.300847 0.753948 0.797655
#
# Coordination Sequence:
#
# PCOD8322351 Si02
#       8
#     6   6   6   6   6   6   3   6
#     4   9  21  40  65  94 123 159 212 268 317 383
#     4  11  21  36  58  89 119 162 217 259 310 384
#     4  10  22  39  60  87 124 164 211 258 315 388
#     4  11  22  39  59  89 121 164 206 256 324 377
#     4  12  21  36  59  82 124 159 208 259 311 382
#     4  12  22  38  60  85 129 168 209 255 320 396
#     4  10  20  38  66  92 118 162 218 272 312 374
#     4  12  24  38  60  91 125 171 215 262 323 397
#
# _framework density 20.631222999999999
#
# number of rings (size 3 to 8) (size 9 to 14) (size 15 to 20)
#    0.000    1.067    6.000    0.800    0.000    2.133 
#    0.000    0.667    0.000    4.800    1.733    0.000 
#    0.000    0.000    0.000    0.000    0.000    0.000 
#
# Total GULP energy -557479.902234 kJ/mol
# GULP energy per Si atom -12388.442272 kJ/mol
# Density = 2.058427 g / cm^3
# Si number density = 20.631223 Si / 1000 Ang^3
#
#
#
# Elastic Constant Matrix: (Units=GPa)
#
#
# Indices 1 2 3 4 5 6 
#
# 1 89.4501 35.3422 38.1311 0.7721 0.0000 0.0000
# 2 35.3422 89.4501 38.1311 -0.7721 0.0000 0.0000
# 3 38.1311 38.1311 99.2569 0.0000 0.0000 0.0000
# 4 0.7721 -0.7721 0.0000 24.3592 0.0000 0.0000
# 5 0.0000 0.0000 0.0000 0.0000 24.3592 0.7721
# 6 0.0000 0.0000 0.0000 0.0000 0.7721 27.0539
#
#
#
# Elastic Compliance Matrix: (Units=1/GPa)
#
#
# Indices 1 2 3 4 5 6 
#
# 1 0.014485 -0.004013 -0.004023 -0.000586 0.000000 0.000000
# 2 -0.004013 0.014485 -0.004023 0.000586 0.000000 0.000000
# 3 -0.004023 -0.004023 0.013166 0.000000 0.000000 0.000000
# 4 -0.000586 0.000586 0.000000 0.041089 0.000000 0.000000
# 5 0.000000 0.000000 0.000000 0.000000 0.041089 -0.001173
# 6 0.000000 0.000000 0.000000 0.000000 -0.001173 0.036997
#
#
# Mechanical properties :
#
#
# Convention : Reuss Voigt Hill
#
# Bulk Modulus (GPa) = 55.50089 55.70732 55.60411
# Shear Modulus (GPa) = 26.11846 26.25797 26.18822
#
# Velocity S-wave (km/s) = 3.56190 3.57140 3.56666
# Velocity P-wave (km/s) = 6.62390 6.63827 6.63109
#
# Compressibility (1/GPa) = 0.01801773
#
# Stress axis : x y z
#
# Youngs Moduli (GPa) = 69.03677 69.03677 75.95453
#
# Poissons Ratio (x) = 0.27706 0.30556
# Poissons Ratio (y) = 0.27706 0.30556
# Poissons Ratio (z) = 0.27773 0.27773
#
# Static dielectric constant tensor:
#      x y z
#    x 3.899380 0.000000 0.000000 
#    y 0.000000 3.899380 0.000000 
#    z 0.000000 0.000000 3.715120 
# 
# 
# High freq. dielectric constant tensor:
#      x y z
#    x 1.796670 0.000000 0.000000 
#    y 0.000000 1.796670 0.000000 
#    z 0.000000 0.000000 1.808050 
# 
# From -- ./inp_files/1800.got.cif
#   From: 2010.03.12/outbox.cif.g09.slc.cpg/sg154_1_cif.got.tgz:1800.got - 2010.04.03 13:51:21.
