data_PCOD8322107
_publ_section_title
;
Structure prediction by ZEFSAII (Michael W. Deem and Ramdas Pophale) SiO2 
 PCOD8322107
Probable space group: P 31 2 1
;
_chemical_formula_sum "Si O2"
_cell_formula_units_Z 42
_cell_length_a 8.351126
_cell_length_b 8.351126
_cell_length_c 31.361973
_cell_angle_alpha 90.000000
_cell_angle_beta 90.000000
_cell_angle_gamma 120.000000
_cell_volume 1894.192361
_symmetry_space_group_name_H-M "P 31 2 1"
_symmetry_group_IT_number 152
_symmetry_cell_setting 'hexagonal'
loop_
_space_group_symop_operation_xyz
x,y,z
-y,x-y,1/3+z
-x+y,-x,2/3+z
x-y,-y,2/3-z
-x,-x+y,1/3-z
y,x,-z
loop_
_atom_site_type_symbol
_atom_site_label
_atom_site_fract_x
_atom_site_fract_y
_atom_site_fract_z
Si Si1 0.499427 0.195238 0.610760
Si Si2 0.307204 0.207930 0.837585
Si Si3 0.675701 0.199679 0.850329
Si Si4 0.838198 0.810538 0.346557
Si Si5 0.559836 0.886761 0.587583
Si Si6 0.846935 0.477778 0.777005
Si Si7 0.118890 0.636975 0.704006
O O1 0.454395 0.227527 0.562673
O O2 0.311761 0.098317 0.637370
O O3 0.661608 0.378407 0.632387
O O4 0.584680 0.062489 0.612308
O O5 0.492534 0.216813 0.856337
O O6 0.354348 0.303145 0.791950
O O7 0.239031 0.321477 0.867242
O O8 0.140041 0.000000 0.833334
O O9 0.820405 0.339368 0.815515
O O10 0.622298 0.000000 0.833334
O O11 0.824128 0.681188 0.385812
O O12 0.713640 0.892978 0.364209
O O13 0.030269 0.000000 0.333334
O O14 0.340504 0.736975 0.583906
O O15 0.020144 0.519539 0.746699
O O16 0.000000 0.493172 0.666667
#
# Coordination Sequence:
#
# PCOD8322107 Si02
#       7
#     6   6   6   6   6   6   6
#     4  12  23  43  66  98 140 174 231 289 349 419
#     4  10  20  39  68  97 133 180 229 280 340 417
#     4  10  23  42  66 102 137 185 224 283 353 417
#     4  11  25  47  67  96 133 185 238 289 348 418
#     4  11  24  41  66  99 136 177 227 286 348 412
#     4  11  21  42  72 100 139 178 234 290 348 429
#     4  11  24  44  70  96 130 183 236 285 355 419
#
# _framework density 22.173041000000001
#
# number of rings (size 3 to 8) (size 9 to 14) (size 15 to 20)
#    0.000    1.143    2.857    4.286    4.000    0.571 
#    5.143    0.714    0.000    0.000    0.000    0.000 
#    0.000    0.000    0.000    0.000    0.000    0.000 
#
# Total GULP energy -520369.251389 kJ/mol
# GULP energy per Si atom -12389.744081 kJ/mol
# Density = 2.212257 g / cm^3
# Si number density = 22.173041 Si / 1000 Ang^3
#
#
#
# Elastic Constant Matrix: (Units=GPa)
#
#
# Indices 1 2 3 4 5 6 
#
# 1 28.6256 103.5792 39.5684 19.2677 0.0015 0.0000
# 2 103.5792 28.6256 39.5684 -19.2677 -0.0015 0.0000
# 3 39.5684 39.5684 108.6850 0.0000 0.0000 0.0000
# 4 19.2677 -19.2677 0.0000 29.2038 0.0000 -0.0015
# 5 0.0015 -0.0015 0.0000 0.0000 29.2038 19.2677
# 6 0.0000 0.0000 0.0000 -0.0015 19.2677 -37.4768
#
#
#
# Elastic Compliance Matrix: (Units=1/GPa)
#
#
# Indices 1 2 3 4 5 6 
#
# 1 -0.000145 0.009817 -0.003521 0.006573 0.000001 0.000000
# 2 0.009817 -0.000145 -0.003521 -0.006573 -0.000001 0.000000
# 3 -0.003521 -0.003521 0.011765 0.000000 0.000000 0.000000
# 4 0.006573 -0.006573 0.000000 0.025569 0.000000 -0.000001
# 5 0.000001 -0.000001 0.000000 0.000000 0.025569 0.013146
# 6 0.000000 0.000000 0.000000 -0.000001 0.013146 -0.019925
#
#
# Mechanical properties :
#
#
# Convention : Reuss Voigt Hill
#
# Bulk Modulus (GPa) = 58.74174 59.04093 58.89133
# Shear Modulus (GPa) = 116.78802 3.06752 59.92777
#
# Velocity S-wave (km/s) = 7.26536 1.17748 5.20442
# Velocity P-wave (km/s) = 9.84534 5.34170 7.92037
#
# Compressibility (1/GPa) = 0.01702367
#
# Stress axis : x y z
#
# Youngs Moduli (GPa) = -6882.29573 -6882.29530 84.99960
#
# Poissons Ratio (x) = 67.56391 0.29930
# Poissons Ratio (y) = 67.56391 0.29930
# Poissons Ratio (z) = -24.23361 -24.23361
#
# Static dielectric constant tensor:
#      x y z
#    x 4.071600 0.000000 0.000000 
#    y 0.000000 4.071600 0.000000 
#    z 0.000000 0.000000 4.155250 
# 
# 
# High freq. dielectric constant tensor:
#      x y z
#    x 1.862860 0.000000 0.000000 
#    y 0.000000 1.862860 0.000000 
#    z 0.000000 0.000000 1.893620 
# 
# From -- ./inp_files/3706.got.cif
#   From: 2010.03.12/outbox.cif.g09.slc.cpg/sg152_2_cif.got.tgz:3706.got - 2010.04.03 13:45:27.
