data_PCOD8322872
_publ_section_title
;
Structure prediction by ZEFSAII (Michael W. Deem and Ramdas Pophale) SiO2 
 PCOD8322872
Probable space group: R 3 M
;
_chemical_formula_sum "Si O2"
_cell_formula_units_Z 144
_cell_length_a 20.072434
_cell_length_b 20.072434
_cell_length_c 19.932180
_cell_angle_alpha 90.000000
_cell_angle_beta 90.000000
_cell_angle_gamma 120.000000
_cell_volume 6954.813834
_symmetry_space_group_name_H-M "R 3 M"
_symmetry_group_IT_number 160
_symmetry_cell_setting 'hexagonal'
loop_
_space_group_symop_operation_xyz
x,y,z
-y,x-y,z
-x+y,-x,z
-x+y,y,z
x,x-y,z
-y,-x,z
2/3+x,1/3+y,1/3+z
2/3-y,1/3+x-y,1/3+z
2/3-x+y,1/3-x,1/3+z
2/3-x+y,1/3+y,1/3+z
2/3+x,1/3+x-y,1/3+z
2/3-y,1/3-x,1/3+z
1/3+x,2/3+y,2/3+z
1/3-y,2/3+x-y,2/3+z
1/3-x+y,2/3-x,2/3+z
1/3-x+y,2/3+y,2/3+z
1/3+x,2/3+x-y,2/3+z
1/3-y,2/3-x,2/3+z
loop_
_atom_site_type_symbol
_atom_site_label
_atom_site_fract_x
_atom_site_fract_y
_atom_site_fract_z
Si Si1 0.512801 0.179749 0.298740
Si Si2 0.179387 0.664237 0.014016
Si Si3 0.282499 0.266268 0.885514
Si Si4 0.332445 0.512121 0.261861
Si Si5 0.576277 0.710479 0.885095
Si Si6 0.039846 0.443064 0.344739
Si Si7 0.756829 0.000601 0.467890
Si Si8 0.736890 0.983214 0.085639
O O1 0.589197 0.178394 0.321234
O O2 0.534078 0.267039 0.286730
O O3 0.480066 0.132004 0.228627
O O4 0.446063 0.140918 0.355415
O O5 0.210095 0.605048 0.002253
O O6 0.251396 0.748605 0.027262
O O7 0.128606 0.660748 0.950155
O O8 0.123191 0.634921 0.078264
O O9 0.263507 0.334593 0.886442
O O10 0.333369 0.277446 0.949307
O O11 0.335241 0.270064 0.822113
O O12 0.265467 0.530934 0.277007
O O13 0.410112 0.589889 0.241335
O O14 0.346782 0.477901 0.331484
O O15 0.308026 0.452340 0.200162
O O16 0.565016 0.782508 0.882699
O O17 0.539167 0.661874 0.817379
O O18 0.017767 0.508884 0.348007
O O19 0.000920 0.390099 0.410018
O O20 0.756126 0.075110 0.435171
#
# Coordination Sequence:
#
# PCOD8322872 Si02
#       8
#    18  18  18  18  18  18  18  18
#     4  11  22  36  57  84 115 150 186 225 275 340
#     4  11  23  38  55  78 113 156 196 234 275 325
#     4   9  18  34  55  80 107 138 175 228 290 333
#     4  10  20  35  56  83 116 152 187 227 277 338
#     4  10  20  35  56  81 110 146 191 235 276 329
#     4   9  17  32  55  80 106 137 178 227 279 336
#     4  10  21  35  55  84 112 144 194 240 282 332
#     4  10  20  37  57  82 112 147 185 234 290 329
#
# _framework density 20.705082999999998
#
# number of rings (size 3 to 8) (size 9 to 14) (size 15 to 20)
#    0.000    2.000    0.000    5.250    0.000    4.000 
#    0.000   13.125    0.000    3.000    0.000    0.000 
#    0.000    8.000    0.000    0.000    0.000    0.000 
#
# Total GULP energy -594701.054576 kJ/mol
# GULP energy per Si atom -12389.605304 kJ/mol
# Density = 2.065796 g / cm^3
# Si number density = 20.705083 Si / 1000 Ang^3
#
#
#
# Elastic Constant Matrix: (Units=GPa)
#
#
# Indices 1 2 3 4 5 6 
#
# 1 89.8833 36.3527 25.6309 1.0953 -0.0001 0.0000
# 2 36.3527 89.8833 25.6309 -1.0953 0.0001 0.0000
# 3 25.6309 25.6309 84.5264 0.0000 0.0000 0.0000
# 4 1.0953 -1.0953 0.0000 22.5836 0.0000 0.0001
# 5 -0.0001 0.0001 0.0000 0.0000 22.5836 1.0953
# 6 0.0000 0.0000 0.0000 0.0001 1.0953 26.7653
#
#
#
# Elastic Compliance Matrix: (Units=1/GPa)
#
#
# Indices 1 2 3 4 5 6 
#
# 1 0.013876 -0.004842 -0.002739 -0.000908 0.000000 0.000000
# 2 -0.004842 0.013876 -0.002739 0.000908 0.000000 0.000000
# 3 -0.002739 -0.002739 0.013492 0.000000 0.000000 0.000000
# 4 -0.000908 0.000908 0.000000 0.044368 0.000000 0.000000
# 5 0.000000 0.000000 0.000000 0.000000 0.044368 -0.001816
# 6 0.000000 0.000000 0.000000 0.000000 -0.001816 0.037436
#
#
# Mechanical properties :
#
#
# Convention : Reuss Voigt Hill
#
# Bulk Modulus (GPa) = 48.53774 48.83578 48.68676
# Shear Modulus (GPa) = 25.65085 26.16506 25.90796
#
# Velocity S-wave (km/s) = 3.52357 3.55872 3.54119
# Velocity P-wave (km/s) = 6.32830 6.36581 6.34708
#
# Compressibility (1/GPa) = 0.02060252
#
# Stress axis : x y z
#
# Youngs Moduli (GPa) = 72.06648 72.06648 74.11824
#
# Poissons Ratio (x) = 0.34895 0.20304
# Poissons Ratio (y) = 0.34895 0.20304
# Poissons Ratio (z) = 0.19742 0.19742
#
# Static dielectric constant tensor:
#      x y z
#    x 3.767670 0.000000 0.000000 
#    y 0.000000 3.767670 0.000000 
#    z 0.000000 0.000000 4.087000 
# 
# 
# High freq. dielectric constant tensor:
#      x y z
#    x 1.801810 0.000000 0.000000 
#    y 0.000000 1.801810 0.000000 
#    z 0.000000 0.000000 1.805430 
# 
# From -- ./inp_files/3433.got.cif
#   From: 2010.03.12/outbox.cif.g09.slc.cpg/sg160_2_cif.got.tgz:3433.got - 2010.04.02 06:26:15.
