data_PCOD8322752
_publ_section_title
;
Structure prediction by ZEFSAII (Michael W. Deem and Ramdas Pophale) SiO2 
 PCOD8322752
Probable space group: P 3 C 1
;
_chemical_formula_sum "Si O2"
_cell_formula_units_Z 30
_cell_length_a 14.534850
_cell_length_b 14.534850
_cell_length_c 8.806826
_cell_angle_alpha 90.000000
_cell_angle_beta 90.000000
_cell_angle_gamma 120.000000
_cell_volume 1611.280518
_symmetry_space_group_name_H-M "P 3 C 1"
_symmetry_group_IT_number 158
_symmetry_cell_setting 'hexagonal'
loop_
_space_group_symop_operation_xyz
x,y,z
-y,x-y,z
-x+y,-x,z
-x+y,y,1/2+z
x,x-y,1/2+z
-y,-x,1/2+z
loop_
_atom_site_type_symbol
_atom_site_label
_atom_site_fract_x
_atom_site_fract_y
_atom_site_fract_z
Si Si1 0.799019 0.972548 0.291440
Si Si2 0.956912 0.598885 0.369621
Si Si3 0.540797 0.443334 0.625436
Si Si4 0.206808 0.181974 0.936945
Si Si5 0.829980 0.281716 0.386197
O O1 0.779003 0.856455 0.329852
O O2 0.693691 0.970642 0.348909
O O3 0.895676 0.061086 0.389197
O O4 0.818292 0.997533 0.113446
O O5 0.985239 0.559234 0.523472
O O6 0.978562 0.543799 0.227912
O O7 0.830274 0.553480 0.382970
O O8 0.644413 0.472707 0.521885
O O9 0.503568 0.338073 0.726745
O O10 0.331578 0.259940 0.906878
#
# Coordination Sequence:
#
# PCOD8322752 Si02
#       5
#     6   6   6   6   6
#     4  11  23  38  60  84 116 148 185 227 282 341
#     4  10  21  37  55  79 118 147 191 231 274 321
#     4  10  20  36  52  76 110 156 188 224 278 312
#     4  11  23  38  60  84 116 148 185 227 282 341
#     4  10  21  37  55  79 118 147 191 231 274 321
#
# _framework density 18.618732000000001
#
# number of rings (size 3 to 8) (size 9 to 14) (size 15 to 20)
#    0.000    1.600    2.000    2.800   11.200    0.000 
#   24.000    0.000    0.000    0.000    0.000    0.000 
#   40.000    0.000    0.000    0.000    0.000    0.000 
#
# Total GULP energy -371892.034993 kJ/mol
# GULP energy per Si atom -12396.401166 kJ/mol
# Density = 1.857636 g / cm^3
# Si number density = 18.618732 Si / 1000 Ang^3
#
#
#
# Elastic Constant Matrix: (Units=GPa)
#
#
# Indices 1 2 3 4 5 6 
#
# 1 90.1095 44.1115 44.0437 -0.0519 0.0000 0.0000
# 2 44.1115 90.1095 44.0437 0.0519 0.0000 0.0000
# 3 44.0437 44.0437 139.8414 0.0000 0.0000 0.0000
# 4 -0.0519 0.0519 0.0000 22.9494 0.0000 0.0000
# 5 0.0000 0.0000 0.0000 0.0000 22.9494 -0.0519
# 6 0.0000 0.0000 0.0000 0.0000 -0.0519 22.9990
#
#
#
# Elastic Compliance Matrix: (Units=1/GPa)
#
#
# Indices 1 2 3 4 5 6 
#
# 1 0.015566 -0.006174 -0.002958 0.000049 0.000000 0.000000
# 2 -0.006174 0.015566 -0.002958 -0.000049 0.000000 0.000000
# 3 -0.002958 -0.002958 0.009014 0.000000 0.000000 0.000000
# 4 0.000049 -0.000049 0.000000 0.043574 0.000000 0.000000
# 5 0.000000 0.000000 0.000000 0.000000 0.043574 0.000098
# 6 0.000000 0.000000 0.000000 0.000000 0.000098 0.043480
#
#
# Mechanical properties :
#
#
# Convention : Reuss Voigt Hill
#
# Bulk Modulus (GPa) = 62.63413 64.93977 63.78695
# Shear Modulus (GPa) = 24.96539 26.30367 25.63453
#
# Velocity S-wave (km/s) = 3.66577 3.76274 3.71457
# Velocity P-wave (km/s) = 7.18544 7.33703 7.26163
#
# Compressibility (1/GPa) = 0.01596574
#
# Stress axis : x y z
#
# Youngs Moduli (GPa) = 64.24289 64.24289 110.93615
#
# Poissons Ratio (x) = 0.39665 0.32814
# Poissons Ratio (y) = 0.39665 0.32814
# Poissons Ratio (z) = 0.19003 0.19003
#
# Static dielectric constant tensor:
#      x y z
#    x 3.342740 0.000000 0.000000 
#    y 0.000000 3.342740 0.000000 
#    z 0.000000 0.000000 3.807800 
# 
# 
# High freq. dielectric constant tensor:
#      x y z
#    x 1.699210 0.000000 0.000000 
#    y 0.000000 1.699210 0.000000 
#    z 0.000000 0.000000 1.754320 
# 
# From -- ./inp_files/161.got.cif
#   From: 2010.03.12/outbox.cif.g09.slc.cpg/sg158_cif.got.tgz:161.got - 2010.04.03 13:59:47.
