data_PCOD8322602
_publ_section_title
;
Structure prediction by ZEFSAII (Michael W. Deem and Ramdas Pophale) SiO2 
 PCOD8322602
Probable space group: R 3 2
;
_chemical_formula_sum "Si O2"
_cell_formula_units_Z 72
_cell_length_a 22.213391
_cell_length_b 22.213391
_cell_length_c 10.041786
_cell_angle_alpha 90.000000
_cell_angle_beta 90.000000
_cell_angle_gamma 120.000000
_cell_volume 4291.126484
_symmetry_space_group_name_H-M "R 3 2"
_symmetry_group_IT_number 155
_symmetry_cell_setting 'hexagonal'
loop_
_space_group_symop_operation_xyz
x,y,z
-y,x-y,z
-x+y,-x,z
x-y,-y,-z
-x,-x+y,-z
y,x,-z
2/3+x,1/3+y,1/3+z
2/3-y,1/3+x-y,1/3+z
2/3-x+y,1/3-x,1/3+z
2/3+x-y,1/3-y,1/3-z
2/3-x,1/3-x+y,1/3-z
2/3+y,1/3+x,1/3-z
1/3+x,2/3+y,2/3+z
1/3-y,2/3+x-y,2/3+z
1/3-x+y,2/3-x,2/3+z
1/3+x-y,2/3-y,2/3-z
1/3-x,2/3-x+y,2/3-z
1/3+y,2/3+x,2/3-z
loop_
_atom_site_type_symbol
_atom_site_label
_atom_site_fract_x
_atom_site_fract_y
_atom_site_fract_z
Si Si1 0.051550 0.464002 0.893245
Si Si2 0.920156 0.079248 0.358797
Si Si3 0.920839 0.213618 0.296870
Si Si4 0.590226 0.179248 0.002334
O O1 0.072373 0.409335 0.952308
O O2 0.117815 0.541816 0.894485
O O3 0.014917 0.440299 0.750603
O O4 0.000000 0.467509 0.000000
O O5 0.899563 0.133327 0.300642
O O6 0.909542 0.085433 0.515126
O O7 0.997141 0.095311 0.320044
O O8 0.872224 0.003418 0.294309
O O9 0.883064 0.216397 0.166667
#
# Coordination Sequence:
#
# PCOD8322602 Si02
#       4
#    18  18  18  18
#     4  11  19  32  50  77 103 137 168 207 252 308
#     4   9  17  31  50  77 101 130 167 213 254 302
#     4  11  21  32  50  76 109 136 168 207 258 308
#     4   9  17  30  52  75 101 130 169 210 257 299
#
# _framework density 16.778811000000001
#
# number of rings (size 3 to 8) (size 9 to 14) (size 15 to 20)
#    0.000    2.000    2.500    3.500    0.000    2.000 
#    0.000    1.250    0.000    3.000    0.000    3.500 
#    0.000    0.000    0.000    0.000    0.000    0.000 
#
# Total GULP energy -297394.104957 kJ/mol
# GULP energy per Si atom -12391.421040 kJ/mol
# Density = 1.674062 g / cm^3
# Si number density = 16.778811 Si / 1000 Ang^3
#
#
#
# Elastic Constant Matrix: (Units=GPa)
#
#
# Indices 1 2 3 4 5 6 
#
# 1 130.0311 45.4519 43.5579 67.1841 0.0181 0.0030
# 2 45.4519 130.0274 43.5550 -67.1767 -0.0687 -0.0168
# 3 43.5579 43.5550 84.3093 0.0058 -0.0727 -0.0204
# 4 67.1841 -67.1767 0.0058 274.9438 0.1569 0.0356
# 5 0.0181 -0.0687 -0.0727 0.1569 273.5657 66.8089
# 6 0.0030 -0.0168 -0.0204 0.0356 66.8089 42.1886
#
#
#
# Elastic Compliance Matrix: (Units=1/GPa)
#
#
# Indices 1 2 3 4 5 6 
#
# 1 0.013494 -0.005830 -0.003960 -0.004722 -0.000001 0.000000
# 2 -0.005830 0.013494 -0.003960 0.004722 0.000000 0.000000
# 3 -0.003960 -0.003960 0.015952 0.000000 0.000003 0.000001
# 4 -0.004722 0.004722 0.000000 0.005945 -0.000002 0.000000
# 5 -0.000001 0.000000 0.000003 -0.000002 0.005961 -0.009439
# 6 0.000000 0.000000 0.000001 0.000000 -0.009439 0.038650
#
#
# Mechanical properties :
#
#
# Convention : Reuss Voigt Hill
#
# Bulk Modulus (GPa) = 64.75602 67.72192 66.23897
# Shear Modulus (GPa) = 39.63754 132.25982 85.94868
#
# Velocity S-wave (km/s) = 4.86568 8.88800 7.16490
# Velocity P-wave (km/s) = 8.38118 12.07386 10.39284
#
# Compressibility (1/GPa) = 0.01544258
#
# Stress axis : x y z
#
# Youngs Moduli (GPa) = 74.10457 74.10451 62.68682
#
# Poissons Ratio (x) = 0.43205 0.24821
# Poissons Ratio (y) = 0.43205 0.24821
# Poissons Ratio (z) = 0.29342 0.29342
#
# Static dielectric constant tensor:
#      x y z
#    x 1.745660 0.000840 0.000160 
#    y 0.000840 1.752800 0.000420 
#    z 0.000160 0.000420 2.997010 
# 
# 
# High freq. dielectric constant tensor:
#      x y z
#    x 1.642270 0.000000 0.000000 
#    y 0.000000 1.642270 0.000000 
#    z 0.000000 0.000000 1.626440 
# 
# From -- ./inp_files/2102.got.cif
#   From: 2010.03.12/outbox.cif.g09.slc.cpg/sg155_2_cif.got.tgz:2102.got - 2010.04.03 13:54:13.
