data_PCOD8322051
_publ_section_title
;
Structure prediction by ZEFSAII (Michael W. Deem and Ramdas Pophale) SiO2 
 PCOD8322051
Probable space group: P 31 2 1
;
_chemical_formula_sum "Si O2"
_cell_formula_units_Z 30
_cell_length_a 18.357559
_cell_length_b 18.357559
_cell_length_c 4.932068
_cell_angle_alpha 90.000000
_cell_angle_beta 90.000000
_cell_angle_gamma 120.000000
_cell_volume 1439.426695
_symmetry_space_group_name_H-M "P 31 2 1"
_symmetry_group_IT_number 152
_symmetry_cell_setting 'hexagonal'
loop_
_space_group_symop_operation_xyz
x,y,z
-y,x-y,1/3+z
-x+y,-x,2/3+z
x-y,-y,2/3-z
-x,-x+y,1/3-z
y,x,-z
loop_
_atom_site_type_symbol
_atom_site_label
_atom_site_fract_x
_atom_site_fract_y
_atom_site_fract_z
Si Si1 0.909341 0.729576 0.102474
Si Si2 0.722355 0.087231 0.263431
Si Si3 0.692368 0.479234 0.278885
Si Si4 0.666765 0.725075 0.756172
Si Si5 0.538327 0.312969 0.107578
O O1 0.911235 0.658643 0.286704
O O2 0.823969 0.730332 0.174439
O O3 0.000000 0.816285 0.166667
O O4 0.901211 0.700530 0.789796
O O5 0.695538 0.155571 0.281230
O O6 0.639749 0.000000 0.333334
O O7 0.700454 0.570632 0.312587
O O8 0.606713 0.410682 0.133184
O O9 0.696100 0.436644 0.566333
O O10 0.764275 0.491016 0.069590
O O11 0.705907 0.705907 0.500000
O O12 0.667001 0.667001 0.000000
#
# Coordination Sequence:
#
# PCOD8322051 Si02
#       5
#     6   6   6   6   6
#     4  10  20  39  65  93 120 162 212 257 310 391
#     4  10  19  35  62  86 113 152 204 263 307 356
#     4  12  25  40  63  89 126 177 220 269 319 390
#     4  12  24  41  65  97 135 171 208 271 344 397
#     4  12  22  41  59  85 124 164 224 262 310 375
#
# _framework density 20.841633000000002
#
# number of rings (size 3 to 8) (size 9 to 14) (size 15 to 20)
#    0.000    0.800    4.000    4.800    0.000    0.800 
#    0.000    3.000    0.000    1.200    0.000    0.000 
#    0.000    0.000    0.000    0.000    0.000    0.000 
#
# Total GULP energy -371724.311740 kJ/mol
# GULP energy per Si atom -12390.810391 kJ/mol
# Density = 2.079420 g / cm^3
# Si number density = 20.841633 Si / 1000 Ang^3
#
#
#
# Elastic Constant Matrix: (Units=GPa)
#
#
# Indices 1 2 3 4 5 6 
#
# 1 139.5836 -23.2626 15.9489 -44.7618 0.0002 0.0000
# 2 -23.2626 139.5836 15.9489 44.7618 -0.0002 0.0000
# 3 15.9489 15.9489 90.7834 0.0000 0.0000 0.0000
# 4 -44.7618 44.7618 0.0000 25.3504 0.0000 -0.0002
# 5 0.0002 -0.0002 0.0000 0.0000 25.3504 -44.7618
# 6 0.0000 0.0000 0.0000 -0.0002 -44.7618 81.4231
#
#
#
# Elastic Compliance Matrix: (Units=1/GPa)
#
#
# Indices 1 2 3 4 5 6 
#
# 1 0.109285 -0.100253 -0.001587 0.369987 -0.000002 0.000000
# 2 -0.100253 0.109285 -0.001587 -0.369987 0.000002 0.000000
# 3 -0.001587 -0.001587 0.011573 0.000000 0.000000 0.000000
# 4 0.369987 -0.369987 0.000000 1.346035 0.000000 0.000003
# 5 -0.000002 0.000002 0.000000 0.000000 1.346035 0.739973
# 6 0.000000 0.000000 0.000000 0.000003 0.739973 0.419076
#
#
# Mechanical properties :
#
#
# Convention : Reuss Voigt Hill
#
# Bulk Modulus (GPa) = 42.93725 43.02453 42.98089
# Shear Modulus (GPa) = 1.40611 50.51248 25.95930
#
# Velocity S-wave (km/s) = 0.82227 4.92838 3.53306
# Velocity P-wave (km/s) = 4.64197 7.28517 6.10825
#
# Compressibility (1/GPa) = 0.02328980
#
# Stress axis : x y z
#
# Youngs Moduli (GPa) = 9.15038 9.15038 86.40992
#
# Poissons Ratio (x) = 0.91735 0.13711
# Poissons Ratio (y) = 0.91735 0.13711
# Poissons Ratio (z) = 0.01452 0.01452
#
# Static dielectric constant tensor:
#      x y z
#    x 3.893450 0.000000 0.000000 
#    y 0.000000 3.893450 0.000000 
#    z 0.000000 0.000000 4.099090 
# 
# 
# High freq. dielectric constant tensor:
#      x y z
#    x 1.799530 0.000000 0.000000 
#    y 0.000000 1.799530 0.000000 
#    z 0.000000 0.000000 1.846390 
# 
# From -- ./inp_files/341.got.cif
#   From: 2010.03.12/outbox.cif.g09.slc.cpg/sg152_1_cif.got.tgz:341.got - 2010.04.03 13:45:27.
