data_PCOD8322783
_publ_section_title
;
Structure prediction by ZEFSAII (Michael W. Deem and Ramdas Pophale) SiO2 
 PCOD8322783
Probable space group: P 3 1 C
;
_chemical_formula_sum "Si O2"
_cell_formula_units_Z 48
_cell_length_a 27.856741
_cell_length_b 27.856741
_cell_length_c 5.300964
_cell_angle_alpha 90.000000
_cell_angle_beta 90.000000
_cell_angle_gamma 120.000000
_cell_volume 3562.428029
_symmetry_space_group_name_H-M "P 3 1 C"
_symmetry_group_IT_number 159
_symmetry_cell_setting 'hexagonal'
loop_
_space_group_symop_operation_xyz
x,y,z
-y,x-y,z
-x+y,-x,z
y,x,1/2+z
x-y,-y,1/2+z
-x,-x+y,1/2+z
loop_
_atom_site_type_symbol
_atom_site_label
_atom_site_fract_x
_atom_site_fract_y
_atom_site_fract_z
Si Si1 0.052229 0.665037 0.873990
Si Si2 0.392480 0.542885 0.373995
Si Si3 0.262966 0.536111 0.873996
Si Si4 0.466989 0.445638 0.874006
Si Si5 0.597423 0.394824 0.373996
Si Si6 0.981182 0.726737 0.874015
Si Si7 0.388701 0.280198 0.874010
Si Si8 0.261053 0.482259 0.373997
O O1 0.016150 0.694921 0.873889
O O2 0.090703 0.681813 0.626131
O O3 0.008755 0.600131 0.874060
O O4 0.090703 0.681829 0.121847
O O5 0.408523 0.495452 0.373975
O O6 0.416170 0.580169 0.625326
O O7 0.327004 0.513925 0.373996
O O8 0.416170 0.580170 0.122667
O O9 0.328972 0.569388 0.873993
O O10 0.243290 0.580658 0.873999
O O11 0.239116 0.497852 0.624670
O O12 0.239117 0.497850 0.123317
O O13 0.484229 0.484235 0.624018
O O14 0.999989 0.765718 0.623996
O O15 0.916784 0.678444 0.874055
O O16 0.416701 0.241429 0.874008
#
# Coordination Sequence:
#
# PCOD8322783 Si02
#       8
#     6   6   6   6   6   6   6   6
#     4  10  16  22  33  46  65  89 101 106 122 151
#     4  10  20  30  42  57  72  87 101 125 147 174
#     4  10  20  31  44  53  60  77  96 125 155 182
#     4  12  20  27  39  55  74  92 105 113 132 168
#     4  10  20  34  45  55  68  81 106 133 163 188
#     4   8  13  19  27  39  55  78  98 104 115 139
#     4  10  17  24  33  48  68  83  95 114 130 153
#     4  10  18  27  39  55  66  75  96 118 146 171
#
# _framework density 13.473955999999999
#
# number of rings (size 3 to 8) (size 9 to 14) (size 15 to 20)
#    0.000    2.000    0.000    7.750    0.000    2.000 
#    0.000    2.500    0.000    0.000    0.000    0.000 
#    0.000    0.000    0.000    0.000    0.000    0.000 
#
# Total GULP energy -594796.363227 kJ/mol
# GULP energy per Si atom -12391.590901 kJ/mol
# Density = 1.344329 g / cm^3
# Si number density = 13.473956 Si / 1000 Ang^3
#
#
#
# Elastic Constant Matrix: (Units=GPa)
#
#
# Indices 1 2 3 4 5 6 
#
# 1 10.1231 4.4742 8.8049 0.0000 -0.0012 0.0000
# 2 4.4742 10.1231 8.8049 0.0000 0.0012 0.0000
# 3 8.8049 8.8049 136.5784 0.0000 0.0000 0.0000
# 4 0.0000 0.0000 0.0000 9.8298 0.0000 0.0012
# 5 -0.0012 0.0012 0.0000 0.0000 9.8298 0.0000
# 6 0.0000 0.0000 0.0000 0.0012 0.0000 2.8245
#
#
#
# Elastic Compliance Matrix: (Units=1/GPa)
#
#
# Indices 1 2 3 4 5 6 
#
# 1 0.125654 -0.051371 -0.004789 0.000000 0.000022 0.000000
# 2 -0.051371 0.125654 -0.004789 0.000000 -0.000022 0.000000
# 3 -0.004789 -0.004789 0.007939 0.000000 0.000000 0.000000
# 4 0.000000 0.000000 0.000000 0.101731 0.000000 -0.000045
# 5 0.000022 -0.000022 0.000000 0.000000 0.101731 0.000000
# 6 0.000000 0.000000 0.000000 -0.000045 0.000000 0.354049
#
#
# Mechanical properties :
#
#
# Convention : Reuss Voigt Hill
#
# Bulk Modulus (GPa) = 7.28065 22.33250 14.80658
# Shear Modulus (GPa) = 5.07904 13.47952 9.27928
#
# Velocity S-wave (km/s) = 1.94363 3.16636 2.62712
# Velocity P-wave (km/s) = 3.23298 5.47525 4.49614
#
# Compressibility (1/GPa) = 0.13735039
#
# Stress axis : x y z
#
# Youngs Moduli (GPa) = 7.95837 7.95837 125.95630
#
# Poissons Ratio (x) = 0.40883 0.60319
# Poissons Ratio (y) = 0.40883 0.60319
# Poissons Ratio (z) = 0.03811 0.03811
#
# Static dielectric constant tensor:
#      x y z
#    x 2.318000 0.000000 0.000000 
#    y 0.000000 2.318000 0.000000 
#    z 0.000000 0.000000 5.864030 
# 
# 
# High freq. dielectric constant tensor:
#      x y z
#    x 1.454200 0.000000 0.000000 
#    y 0.000000 1.454200 0.000000 
#    z 0.000000 0.000000 1.557220 
# 
# From -- ./inp_files/152.got.cif
#   From: 2010.03.12/outbox.cif.g09.slc.cpg/sg159_cif.got.tgz:152.got - 2010.04.03 14:00:19.
