data_PCOD8322852
_publ_section_title
;
Structure prediction by ZEFSAII (Michael W. Deem and Ramdas Pophale) SiO2 
 PCOD8322852
Probable space group: R 3 M
;
_chemical_formula_sum "Si O2"
_cell_formula_units_Z 126
_cell_length_a 28.382903
_cell_length_b 28.382903
_cell_length_c 11.369873
_cell_angle_alpha 90.000000
_cell_angle_beta 90.000000
_cell_angle_gamma 120.000000
_cell_volume 7932.313525
_symmetry_space_group_name_H-M "R 3 M"
_symmetry_group_IT_number 160
_symmetry_cell_setting 'hexagonal'
loop_
_space_group_symop_operation_xyz
x,y,z
-y,x-y,z
-x+y,-x,z
-x+y,y,z
x,x-y,z
-y,-x,z
2/3+x,1/3+y,1/3+z
2/3-y,1/3+x-y,1/3+z
2/3-x+y,1/3-x,1/3+z
2/3-x+y,1/3+y,1/3+z
2/3+x,1/3+x-y,1/3+z
2/3-y,1/3-x,1/3+z
1/3+x,2/3+y,2/3+z
1/3-y,2/3+x-y,2/3+z
1/3-x+y,2/3-x,2/3+z
1/3-x+y,2/3+y,2/3+z
1/3+x,2/3+x-y,2/3+z
1/3-y,2/3-x,2/3+z
loop_
_atom_site_type_symbol
_atom_site_label
_atom_site_fract_x
_atom_site_fract_y
_atom_site_fract_z
Si Si1 0.550861 0.828266 0.722395
Si Si2 0.263339 0.300920 0.812069
Si Si3 0.062632 0.235155 0.983234
Si Si4 0.555205 0.550572 0.791725
Si Si5 0.590122 0.693165 0.944691
Si Si6 0.196499 0.906632 0.357798
Si Si7 0.986124 0.411463 0.246578
O O1 0.525673 0.762837 0.712603
O O2 0.510328 0.847389 0.666813
O O3 0.560751 0.844206 0.860546
O O4 0.607723 0.855909 0.651043
O O5 0.202182 0.268744 0.865092
O O6 0.303048 0.359552 0.871152
O O7 0.258848 0.306852 0.673446
O O8 0.291906 0.265794 0.829996
O O9 0.109242 0.218483 0.981266
O O10 0.068698 0.276585 0.088274
O O11 0.505511 0.494490 0.745495
O O12 0.607368 0.554227 0.731891
O O13 0.561523 0.554278 0.932935
O O14 0.546697 0.634643 0.994822
O O15 0.131577 0.868424 0.335429
O O16 0.206403 0.894632 0.491030
#
# Coordination Sequence:
#
# PCOD8322852 Si02
#       7
#    18  18  18  18  18  18  18
#     4  10  19  32  48  69  91 120 156 195 240 283
#     4   9  19  30  48  70  88 125 162 197 231 274
#     4   9  17  32  50  69  92 119 154 194 237 286
#     4   9  18  32  47  67  90 121 160 198 238 278
#     4  10  19  30  48  65  90 122 163 201 229 277
#     4  11  22  31  44  66  97 128 156 195 238 280
#     4  10  20  31  45  68  98 125 159 196 233 274
#
# _framework density 15.884394
#
# number of rings (size 3 to 8) (size 9 to 14) (size 15 to 20)
#    0.000    2.286    1.429    1.714    6.000    4.000 
#    0.000    0.000    0.000    0.286    0.000    0.000 
#    0.000    0.000    0.000    0.000    0.000    0.429 
#
# Total GULP energy -520507.602118 kJ/mol
# GULP energy per Si atom -12393.038146 kJ/mol
# Density = 1.584824 g / cm^3
# Si number density = 15.884394 Si / 1000 Ang^3
#
#
#
# Elastic Constant Matrix: (Units=GPa)
#
#
# Indices 1 2 3 4 5 6 
#
# 1 83.9709 45.2652 31.2840 -0.2646 0.0083 0.0010
# 2 45.2652 83.9648 31.2736 0.2667 0.0008 -0.0009
# 3 31.2840 31.2736 101.8985 0.0090 0.0417 0.0006
# 4 -0.2646 0.2667 0.0090 15.1580 0.0028 0.0010
# 5 0.0083 0.0008 0.0417 0.0028 15.1750 -0.2666
# 6 0.0010 -0.0009 0.0006 0.0010 -0.2666 19.3502
#
#
#
# Elastic Compliance Matrix: (Units=1/GPa)
#
#
# Indices 1 2 3 4 5 6 
#
# 1 0.017466 -0.008378 -0.002791 0.000454 -0.000001 -0.000001
# 2 -0.008378 0.017466 -0.002788 -0.000452 0.000011 0.000002
# 3 -0.002791 -0.002788 0.011526 -0.000006 -0.000030 -0.000001
# 4 0.000454 -0.000452 -0.000006 0.065988 -0.000012 -0.000004
# 5 -0.000001 0.000011 -0.000030 -0.000012 0.065914 0.000908
# 6 -0.000001 0.000002 -0.000001 -0.000004 0.000908 0.051691
#
#
# Mechanical properties :
#
#
# Convention : Reuss Voigt Hill
#
# Bulk Modulus (GPa) = 53.92556 53.94220 53.93388
# Shear Modulus (GPa) = 18.92874 20.73740 19.83307
#
# Velocity S-wave (km/s) = 3.45578 3.61712 3.53737
# Velocity P-wave (km/s) = 7.06723 7.17480 7.12121
#
# Compressibility (1/GPa) = 0.01854408
#
# Stress axis : x y z
#
# Youngs Moduli (GPa) = 57.25282 57.25320 86.75738
#
# Poissons Ratio (x) = 0.47966 0.24215
# Poissons Ratio (y) = 0.47966 0.24191
# Poissons Ratio (z) = 0.15980 0.15964
#
# Static dielectric constant tensor:
#      x y z
#    x 2.830770 0.000000 -0.000020 
#    y 0.000000 2.830780 0.000000 
#    z -0.000020 0.000000 3.167310 
# 
# 
# High freq. dielectric constant tensor:
#      x y z
#    x 1.583740 0.000000 0.000000 
#    y 0.000000 1.583740 0.000000 
#    z 0.000000 0.000000 1.621680 
# 
# From -- ./inp_files/1813.got.cif
#   From: 2010.03.12/outbox.cif.g09.slc.cpg/sg160_1_cif.got.tgz:1813.got - 2010.04.02 06:26:15.
