data_PCOD8322496
_publ_section_title
;
Structure prediction by ZEFSAII (Michael W. Deem and Ramdas Pophale) SiO2 
 PCOD8322496
Probable space group: R 3 2
;
_chemical_formula_sum "Si O2"
_cell_formula_units_Z 108
_cell_length_a 18.344974
_cell_length_b 18.344974
_cell_length_c 18.317854
_cell_angle_alpha 90.000000
_cell_angle_beta 90.000000
_cell_angle_gamma 120.000000
_cell_volume 5338.748053
_symmetry_space_group_name_H-M "R 3 2"
_symmetry_group_IT_number 155
_symmetry_cell_setting 'hexagonal'
loop_
_space_group_symop_operation_xyz
x,y,z
-y,x-y,z
-x+y,-x,z
x-y,-y,-z
-x,-x+y,-z
y,x,-z
2/3+x,1/3+y,1/3+z
2/3-y,1/3+x-y,1/3+z
2/3-x+y,1/3-x,1/3+z
2/3+x-y,1/3-y,1/3-z
2/3-x,1/3-x+y,1/3-z
2/3+y,1/3+x,1/3-z
1/3+x,2/3+y,2/3+z
1/3-y,2/3+x-y,2/3+z
1/3-x+y,2/3-x,2/3+z
1/3+x-y,2/3-y,2/3-z
1/3-x,2/3-x+y,2/3-z
1/3+y,2/3+x,2/3-z
loop_
_atom_site_type_symbol
_atom_site_label
_atom_site_fract_x
_atom_site_fract_y
_atom_site_fract_z
Si Si1 0.180171 0.908256 0.398258
Si Si2 0.244527 0.833848 0.024041
Si Si3 0.897554 0.572895 0.671444
Si Si4 0.774776 0.609296 0.464364
Si Si5 0.903882 0.561041 0.506662
Si Si6 0.909761 0.400705 0.519314
O O1 0.238608 0.905274 0.333334
O O2 0.083462 0.841868 0.383697
O O3 0.203825 0.884342 0.474860
O O4 0.193048 0.002360 0.399968
O O5 0.165460 0.742027 0.043801
O O6 0.212907 0.897250 0.053285
O O7 0.263739 0.837057 0.939345
O O8 0.981273 0.666667 0.666667
O O9 0.867485 0.547730 0.588380
O O10 0.845085 0.581667 0.456612
O O11 0.687152 0.526420 0.485159
O O12 0.898871 0.474265 0.481415
O O13 0.000000 0.637129 0.500000
O O14 0.000000 0.411781 0.500000
#
# Coordination Sequence:
#
# PCOD8322496 Si02
#       6
#    18  18  18  18  18  18
#     4  11  20  37  57  84 123 150 192 250 295 342
#     4  11  23  35  61  90 111 158 206 229 305 362
#     4  10  19  37  58  81 121 156 193 249 289 352
#     4  12  22  36  63  86 117 159 196 246 301 357
#     4  10  20  36  57  84 116 155 196 246 295 348
#     4  10  22  39  57  83 120 147 194 256 292 343
#
# _framework density 20.229462000000002
#
# number of rings (size 3 to 8) (size 9 to 14) (size 15 to 20)
#    0.000    1.333    5.000    2.500    0.000    0.000 
#    2.000    0.000    0.000    0.000    0.000    0.000 
#    0.000    0.000    0.000    0.000    0.000    0.000 
#
# Total GULP energy -446226.088867 kJ/mol
# GULP energy per Si atom -12395.169135 kJ/mol
# Density = 2.018342 g / cm^3
# Si number density = 20.229462 Si / 1000 Ang^3
#
#
#
# Elastic Constant Matrix: (Units=GPa)
#
#
# Indices 1 2 3 4 5 6 
#
# 1 115.5084 51.0267 1.5897 -3.8464 0.0000 0.0000
# 2 51.0267 115.5084 1.5897 3.8464 0.0000 0.0000
# 3 1.5897 1.5897 11.7344 0.0000 0.0000 0.0000
# 4 -3.8464 3.8464 0.0000 24.1786 0.0000 0.0000
# 5 0.0000 0.0000 0.0000 0.0000 24.1786 -3.8464
# 6 0.0000 0.0000 0.0000 0.0000 -3.8464 32.2408
#
#
#
# Elastic Compliance Matrix: (Units=1/GPa)
#
#
# Indices 1 2 3 4 5 6 
#
# 1 0.010914 -0.004894 -0.000816 0.002515 0.000000 0.000000
# 2 -0.004894 0.010914 -0.000816 -0.002515 0.000000 0.000000
# 3 -0.000816 -0.000816 0.085441 0.000000 0.000000 0.000000
# 4 0.002515 -0.002515 0.000000 0.042159 0.000000 0.000000
# 5 0.000000 0.000000 0.000000 0.000000 0.042159 0.005030
# 6 0.000000 0.000000 0.000000 0.000000 0.005030 0.031617
#
#
# Mechanical properties :
#
#
# Convention : Reuss Voigt Hill
#
# Bulk Modulus (GPa) = 10.61359 39.01816 24.81587
# Shear Modulus (GPa) = 18.68038 28.68928 23.68483
#
# Velocity S-wave (km/s) = 3.04209 3.76998 3.42542
# Velocity P-wave (km/s) = 4.19488 6.18708 5.28569
#
# Compressibility (1/GPa) = 0.09421886
#
# Stress axis : x y z
#
# Youngs Moduli (GPa) = 91.62288 91.62288 11.70404
#
# Poissons Ratio (x) = 0.44840 0.00955
# Poissons Ratio (y) = 0.44840 0.00955
# Poissons Ratio (z) = 0.07473 0.07473
#
# Static dielectric constant tensor:
#      x y z
#    x 3.790500 0.000000 0.000000 
#    y 0.000000 3.790500 0.000000 
#    z 0.000000 0.000000 3.596050 
# 
# 
# High freq. dielectric constant tensor:
#      x y z
#    x 1.783480 0.000000 0.000000 
#    y 0.000000 1.783480 0.000000 
#    z 0.000000 0.000000 1.782350 
# 
# From -- ./inp_files/6993.got.cif
#   From: 2010.03.12/outbox.cif.g09.slc.cpg/sg155_4_cif.got.tgz:6993.got - 2010.04.03 13:54:13.
