data_PCOD8322440
_publ_section_title
;
Structure prediction by ZEFSAII (Michael W. Deem and Ramdas Pophale) SiO2 
 PCOD8322440
Probable space group: P 32 2 1
;
_chemical_formula_sum "Si O2"
_cell_formula_units_Z 24
_cell_length_a 15.522396
_cell_length_b 15.522396
_cell_length_c 5.032242
_cell_angle_alpha 90.000000
_cell_angle_beta 90.000000
_cell_angle_gamma 120.000000
_cell_volume 1050.049246
_symmetry_space_group_name_H-M "P 32 2 1"
_symmetry_group_IT_number 154
_symmetry_cell_setting 'hexagonal'
loop_
_space_group_symop_operation_xyz
x,y,z
-y,x-y,2/3+z
-x+y,-x,1/3+z
x-y,-y,1/3-z
-x,-x+y,2/3-z
y,x,-z
loop_
_atom_site_type_symbol
_atom_site_label
_atom_site_fract_x
_atom_site_fract_y
_atom_site_fract_z
Si Si1 0.712035 0.440840 0.089537
Si Si2 0.684117 0.620523 0.258241
Si Si3 0.305739 0.411698 0.552513
Si Si4 0.807693 0.104612 0.611504
O O1 0.606926 0.358191 0.972827
O O2 0.796180 0.484426 0.856653
O O3 0.691946 0.521668 0.232388
O O4 0.613385 0.613385 0.500000
O O5 0.796838 0.712234 0.315167
O O6 0.636550 0.636550 0.000000
O O7 0.408469 0.408469 0.500000
O O8 0.222955 0.328191 0.359533
O O9 0.271816 0.383510 0.857630
O O10 0.805360 0.000000 0.666667
#
# Coordination Sequence:
#
# PCOD8322440 Si02
#       4
#     6   6   6   6
#     4  11  27  45  67  94 138 185 231 292 351 407
#     4  11  24  45  70  99 137 181 227 281 343 409
#     4   9  19  39  65  92 122 161 219 268 330 395
#     4   9  18  37  68  98 126 165 211 268 327 399
#
# _framework density 22.856069000000002
#
# number of rings (size 3 to 8) (size 9 to 14) (size 15 to 20)
#    0.000    2.000    0.000    3.000   10.500    0.000 
#    4.500    1.250    0.000    1.500    0.000    0.000 
#    0.000    0.000    0.000    0.000    0.000    0.000 
#
# Total GULP energy -297386.104479 kJ/mol
# GULP energy per Si atom -12391.087687 kJ/mol
# Density = 2.280405 g / cm^3
# Si number density = 22.856069 Si / 1000 Ang^3
#
#
#
# Elastic Constant Matrix: (Units=GPa)
#
#
# Indices 1 2 3 4 5 6 
#
# 1 121.4509 36.3586 35.8055 6.7578 0.0000 0.0000
# 2 36.3586 121.4509 35.8055 -6.7578 0.0000 0.0000
# 3 35.8055 35.8055 115.2480 0.0000 0.0000 0.0000
# 4 6.7578 -6.7578 0.0000 30.9629 0.0000 0.0000
# 5 0.0000 0.0000 0.0000 0.0000 30.9629 6.7578
# 6 0.0000 0.0000 0.0000 0.0000 6.7578 42.5462
#
#
#
# Elastic Compliance Matrix: (Units=1/GPa)
#
#
# Indices 1 2 3 4 5 6 
#
# 1 0.009775 -0.002399 -0.002292 -0.002657 0.000000 0.000000
# 2 -0.002399 0.009775 -0.002292 0.002657 0.000000 0.000000
# 3 -0.002292 -0.002292 0.010101 0.000000 0.000000 0.000000
# 4 -0.002657 0.002657 0.000000 0.033457 0.000000 0.000000
# 5 0.000000 0.000000 0.000000 0.000000 0.033457 -0.005314
# 6 0.000000 0.000000 0.000000 0.000000 -0.005314 0.024348
#
#
# Mechanical properties :
#
#
# Convention : Reuss Voigt Hill
#
# Bulk Modulus (GPa) = 63.74628 63.78767 63.76698
# Shear Modulus (GPa) = 35.68717 37.57306 36.63012
#
# Velocity S-wave (km/s) = 3.95573 4.05890 4.00765
# Velocity P-wave (km/s) = 6.98674 7.06649 7.02673
#
# Compressibility (1/GPa) = 0.01568719
#
# Stress axis : x y z
#
# Youngs Moduli (GPa) = 102.29809 102.29809 99.00018
#
# Poissons Ratio (x) = 0.24537 0.22689
# Poissons Ratio (y) = 0.24537 0.22689
# Poissons Ratio (z) = 0.23445 0.23445
#
# Static dielectric constant tensor:
#      x y z
#    x 4.214420 0.000000 0.000000 
#    y 0.000000 4.214420 0.000000 
#    z 0.000000 0.000000 4.087510 
# 
# 
# High freq. dielectric constant tensor:
#      x y z
#    x 1.882900 0.000000 0.000000 
#    y 0.000000 1.882900 0.000000 
#    z 0.000000 0.000000 1.922080 
# 
# From -- ./inp_files/173.got.cif
#   From: 2010.03.12/outbox.cif.g09.slc.cpg/sg154_1_cif.got.tgz:173.got - 2010.04.03 13:51:21.
