data_PCOD8322687
_publ_section_title
;
Structure prediction by ZEFSAII (Michael W. Deem and Ramdas Pophale) SiO2 
 PCOD8322687
Probable space group: P 3 M 1
;
_chemical_formula_sum "Si O2"
_cell_formula_units_Z 48
_cell_length_a 12.516365
_cell_length_b 12.516365
_cell_length_c 20.370556
_cell_angle_alpha 90.000000
_cell_angle_beta 90.000000
_cell_angle_gamma 120.000000
_cell_volume 2763.693987
_symmetry_space_group_name_H-M "P 3 M 1"
_symmetry_group_IT_number 156
_symmetry_cell_setting 'hexagonal'
loop_
_space_group_symop_operation_xyz
x,y,z
-y,x-y,z
-x+y,-x,z
-x+y,y,z
x,x-y,z
-y,-x,z
loop_
_atom_site_type_symbol
_atom_site_label
_atom_site_fract_x
_atom_site_fract_y
_atom_site_fract_z
Si Si1 0.419209 0.334426 0.868360
Si Si2 0.752739 0.000276 0.252308
Si Si3 0.333586 0.421174 0.985951
Si Si4 0.666750 0.581935 0.374572
Si Si5 0.417071 0.334669 0.621667
Si Si6 0.083340 0.418245 0.745728
Si Si7 0.334955 0.417961 0.498361
Si Si8 0.333377 0.911475 0.134672
O O1 0.405213 0.202607 0.856640
O O2 0.562975 0.437026 0.863709
O O3 0.363458 0.336531 0.939175
O O4 0.341600 0.357777 0.813642
O O5 0.894313 0.105688 0.249281
O O6 0.677083 0.027581 0.306363
O O7 0.746622 0.873311 0.270881
O O8 0.692352 0.994065 0.181822
O O9 0.202261 0.404521 0.966526
O O10 0.435117 0.564884 0.976818
O O11 0.335139 0.378427 0.060401
O O12 0.790441 0.580882 0.392360
O O13 0.557896 0.442105 0.368721
O O14 0.641768 0.654818 0.431108
O O15 0.411095 0.205548 0.621530
O O16 0.559267 0.440734 0.619695
O O17 0.350412 0.343446 0.686570
O O18 0.344788 0.341574 0.558592
O O19 0.203487 0.406973 0.739653
O O20 0.123193 0.561597 0.742383
O O21 0.204043 0.408085 0.501086
O O22 0.439339 0.560662 0.503416
O O23 0.464233 0.928466 0.155493
O O24 0.232781 0.767220 0.141119
#
# Coordination Sequence:
#
# PCOD8322687 Si02
#       8
#     6   6   6   6   6   6   6   6
#     4  10  20  33  50  71  97 129 163 200 240 286
#     4  10  20  33  49  69  96 131 168 203 239 285
#     4   9  17  30  50  74  98 124 156 199 248 295
#     4  10  20  34  53  75  99 127 160 202 249 296
#     4  10  20  34  54  78 104 134 167 204 243 286
#     4  10  20  34  54  78 102 128 160 202 249 294
#     4  10  20  34  53  76 102 131 163 201 244 289
#     4   9  17  30  49  73  98 124 157 199 248 295
#
# _framework density 17.368058000000001
#
# number of rings (size 3 to 8) (size 9 to 14) (size 15 to 20)
#    0.000    2.250    0.000    3.250    0.000    1.500 
#    0.000    5.000    0.000   14.500    0.000    0.000 
#    0.000    0.000    0.000    0.000    0.000    0.000 
#
# Total GULP energy -595361.176232 kJ/mol
# GULP energy per Si atom -12403.357838 kJ/mol
# Density = 1.732853 g / cm^3
# Si number density = 17.368058 Si / 1000 Ang^3
#
#
#
# Elastic Constant Matrix: (Units=GPa)
#
#
# Indices 1 2 3 4 5 6 
#
# 1 117.1512 56.6401 49.6623 4.0494 -0.0033 0.0000
# 2 56.6401 117.1512 49.6623 -4.0494 0.0033 0.0000
# 3 49.6623 49.6623 108.4160 0.0000 0.0000 0.0000
# 4 4.0494 -4.0494 0.0000 23.2495 0.0000 0.0033
# 5 -0.0033 0.0033 0.0000 0.0000 23.2495 4.0494
# 6 0.0000 0.0000 0.0000 0.0033 4.0494 30.2555
#
#
#
# Elastic Compliance Matrix: (Units=1/GPa)
#
#
# Indices 1 2 3 4 5 6 
#
# 1 0.012357 -0.004563 -0.003570 -0.002947 0.000002 0.000000
# 2 -0.004563 0.012357 -0.003570 0.002947 -0.000002 0.000000
# 3 -0.003570 -0.003570 0.012495 0.000000 0.000000 0.000000
# 4 -0.002947 0.002947 0.000000 0.044038 0.000000 -0.000005
# 5 0.000002 -0.000002 0.000000 0.000000 0.044038 -0.005894
# 6 0.000000 0.000000 0.000000 -0.000005 -0.005894 0.033841
#
#
# Mechanical properties :
#
#
# Convention : Reuss Voigt Hill
#
# Bulk Modulus (GPa) = 72.45283 72.73863 72.59573
# Shear Modulus (GPa) = 26.71862 27.80114 27.25988
#
# Velocity S-wave (km/s) = 3.92647 4.00522 3.96604
# Velocity P-wave (km/s) = 7.89702 7.95994 7.92854
#
# Compressibility (1/GPa) = 0.01380208
#
# Stress axis : x y z
#
# Youngs Moduli (GPa) = 80.92268 80.92268 80.03316
#
# Poissons Ratio (x) = 0.36924 0.28576
# Poissons Ratio (y) = 0.36924 0.28576
# Poissons Ratio (z) = 0.28893 0.28893
#
# Static dielectric constant tensor:
#      x y z
#    x 2.959610 0.000000 0.000000 
#    y 0.000000 2.959610 0.000000 
#    z 0.000000 0.000000 3.472990 
# 
# 
# High freq. dielectric constant tensor:
#      x y z
#    x 1.665900 0.000000 0.000000 
#    y 0.000000 1.665900 0.000000 
#    z 0.000000 0.000000 1.689050 
# 
# From -- ./inp_files/1077.got.cif
#   From: 2010.03.12/outbox.cif.g09.slc.cpg/sg156_cif.got.tgz:1077.got - 2010.04.03 13:58:47.
