data_PCOD8322236
_publ_section_title
;
Structure prediction by ZEFSAII (Michael W. Deem and Ramdas Pophale) SiO2 
 PCOD8322236
Probable space group: P 32 1 2
;
_chemical_formula_sum "Si O2"
_cell_formula_units_Z 48
_cell_length_a 12.253136
_cell_length_b 12.253136
_cell_length_c 18.489585
_cell_angle_alpha 90.000000
_cell_angle_beta 90.000000
_cell_angle_gamma 120.000000
_cell_volume 2404.098752
_symmetry_space_group_name_H-M "P 32 1 2"
_symmetry_group_IT_number 153
_symmetry_cell_setting 'hexagonal'
loop_
_space_group_symop_operation_xyz
x,y,z
-y,x-y,2/3+z
-x+y,-x,1/3+z
-y,-x,1/3-z
-x+y,y,2/3-z
x,x-y,-z
loop_
_atom_site_type_symbol
_atom_site_label
_atom_site_fract_x
_atom_site_fract_y
_atom_site_fract_z
Si Si1 0.526756 0.030703 0.657580
Si Si2 0.596308 0.090258 0.501134
Si Si3 0.683126 0.911268 0.433811
Si Si4 0.265084 0.169532 0.654563
Si Si5 0.720977 0.258528 0.947543
Si Si6 0.059232 0.367562 0.125488
Si Si7 0.273110 0.761607 0.989429
Si Si8 0.249467 0.320572 0.386489
O O1 0.620839 0.091664 0.587965
O O2 0.558508 0.136416 0.719938
O O3 0.517448 0.904551 0.691485
O O4 0.397093 0.998790 0.621641
O O5 0.682707 0.230993 0.466430
O O6 0.635236 0.000398 0.462693
O O7 0.451831 0.034993 0.479945
O O8 0.734990 0.867495 0.500000
O O9 0.564332 0.794609 0.395122
O O10 0.801400 0.986787 0.380087
O O11 0.404360 0.221447 0.684508
O O12 0.264158 0.237688 0.581464
O O13 0.197473 0.021807 0.636846
O O14 0.721508 0.360754 0.000000
O O15 0.177658 0.465730 0.077927
O O16 0.114506 0.334730 0.196713
O O17 0.322166 0.661083 0.000000
O O18 0.189775 0.379549 0.333334
#
# Coordination Sequence:
#
# PCOD8322236 Si02
#       8
#     6   6   6   6   6   6   6   6
#     4  10  22  35  55  86 120 160 196 240 300 369
#     4  10  18  33  57  90 115 150 198 251 307 345
#     4  10  18  31  55  90 123 152 193 251 303 355
#     4   9  19  33  59  89 116 145 199 259 294 348
#     4  10  19  34  59  82 119 151 199 250 300 358
#     4  10  19  33  62  90 116 148 197 262 302 350
#     4  11  20  33  57  91 126 160 197 240 306 372
#     4  10  21  39  56  81 120 158 197 243 301 362
#
# _framework density 19.965902
#
# number of rings (size 3 to 8) (size 9 to 14) (size 15 to 20)
#    0.000    2.000    3.750    0.750    0.000    0.500 
#    0.000    3.125   13.750    3.000    0.000    0.000 
#    0.000    0.000    0.000    0.000    0.000    0.000 
#
# Total GULP energy -594758.566591 kJ/mol
# GULP energy per Si atom -12390.803471 kJ/mol
# Density = 1.992046 g / cm^3
# Si number density = 19.965902 Si / 1000 Ang^3
#
#
#
# Elastic Constant Matrix: (Units=GPa)
#
#
# Indices 1 2 3 4 5 6 
#
# 1 56.4164 39.7432 33.7579 -0.0003 3.1840 0.0000
# 2 39.7432 56.4164 33.7579 0.0003 -3.1840 0.0000
# 3 33.7579 33.7579 101.2656 0.0000 0.0000 0.0000
# 4 -0.0003 0.0003 0.0000 25.2423 0.0000 -3.1840
# 5 3.1840 -3.1840 0.0000 0.0000 25.2423 -0.0003
# 6 0.0000 0.0000 0.0000 -3.1840 -0.0003 8.3366
#
#
#
# Elastic Compliance Matrix: (Units=1/GPa)
#
#
# Indices 1 2 3 4 5 6 
#
# 1 0.038295 -0.024718 -0.004526 0.000001 -0.007948 0.000000
# 2 -0.024718 0.038295 -0.004526 -0.000001 0.007948 0.000000
# 3 -0.004526 -0.004526 0.012893 0.000000 0.000000 0.000000
# 4 0.000001 -0.000001 0.000000 0.041621 0.000000 0.015897
# 5 -0.007948 0.007948 0.000000 0.000000 0.041621 0.000002
# 6 0.000000 0.000000 0.000000 0.015897 0.000002 0.126025
#
#
# Mechanical properties :
#
#
# Convention : Reuss Voigt Hill
#
# Bulk Modulus (GPa) = 45.57315 47.62402 46.59858
# Shear Modulus (GPa) = 13.38319 18.88687 16.13503
#
# Velocity S-wave (km/s) = 2.59183 3.07898 2.84585
# Velocity P-wave (km/s) = 5.64197 6.04521 5.84707
#
# Compressibility (1/GPa) = 0.02194275
#
# Stress axis : x y z
#
# Youngs Moduli (GPa) = 26.11322 26.11322 77.56348
#
# Poissons Ratio (x) = 0.64545 0.35106
# Poissons Ratio (y) = 0.64545 0.35106
# Poissons Ratio (z) = 0.11819 0.11819
#
# Static dielectric constant tensor:
#      x y z
#    x 3.730040 0.000000 0.000000 
#    y 0.000000 3.730040 0.000000 
#    z 0.000000 0.000000 3.905590 
# 
# 
# High freq. dielectric constant tensor:
#      x y z
#    x 1.764780 0.000000 0.000000 
#    y 0.000000 1.764780 0.000000 
#    z 0.000000 0.000000 1.779530 
# 
# From -- ./inp_files/4060.got.cif
#   From: 2010.03.12/outbox.cif.g09.slc.cpg/sg153_3_cif.got.tgz:4060.got - 2010.04.03 13:48:33.
