data_PCOD8322400
_publ_section_title
;
Structure prediction by ZEFSAII (Michael W. Deem and Ramdas Pophale) SiO2 
 PCOD8322400
Probable space group: P 32 2 1
;
_chemical_formula_sum "Si O2"
_cell_formula_units_Z 42
_cell_length_a 9.634344
_cell_length_b 9.634344
_cell_length_c 25.139622
_cell_angle_alpha 90.000000
_cell_angle_beta 90.000000
_cell_angle_gamma 120.000000
_cell_volume 2020.848112
_symmetry_space_group_name_H-M "P 32 2 1"
_symmetry_group_IT_number 154
_symmetry_cell_setting 'hexagonal'
loop_
_space_group_symop_operation_xyz
x,y,z
-y,x-y,2/3+z
-x+y,-x,1/3+z
x-y,-y,1/3-z
-x,-x+y,2/3-z
y,x,-z
loop_
_atom_site_type_symbol
_atom_site_label
_atom_site_fract_x
_atom_site_fract_y
_atom_site_fract_z
Si Si1 0.918097 0.662473 0.967248
Si Si2 0.956274 0.507835 0.564388
Si Si3 0.794748 0.271951 0.472522
Si Si4 0.073735 0.465347 0.988195
Si Si5 0.435657 0.598455 0.972937
Si Si6 0.116999 0.238878 0.720523
Si Si7 0.977677 0.117321 0.213636
O O1 0.861419 0.709484 0.914169
O O2 0.771507 0.570420 0.007459
O O3 0.000443 0.556438 0.954487
O O4 0.041740 0.825852 0.996430
O O5 0.129232 0.609886 0.534968
O O6 0.822529 0.371382 0.526598
O O7 0.985988 0.429144 0.617158
O O8 0.881483 0.617052 0.581733
O O9 0.851866 0.399204 0.424117
O O10 0.899704 0.187031 0.477270
O O11 0.264513 0.572245 0.989335
O O12 0.024136 0.301415 0.957198
O O13 0.460858 0.460858 0.000000
O O14 0.047432 0.074048 0.753541
O O15 0.880625 0.000000 0.166667
#
# Coordination Sequence:
#
# PCOD8322400 Si02
#       7
#     6   6   6   6   6   6   6
#     4  11  20  44  69  91 131 176 222 271 329 394
#     4  10  24  41  66  93 139 175 220 283 344 398
#     4  11  24  42  62  99 134 181 220 287 343 403
#     4  11  25  40  70 101 128 171 235 275 328 405
#     4  12  23  43  68  97 131 178 223 271 337 406
#     4  10  22  44  64  95 134 174 213 284 331 393
#     4  11  24  40  68  96 134 179 228 270 342 409
#
# _framework density 20.783352000000001
#
# number of rings (size 3 to 8) (size 9 to 14) (size 15 to 20)
#    0.000    1.143    5.714    2.143    4.000    4.571 
#    0.000    0.714    0.000    0.000    0.000    0.000 
#    0.000    0.000    0.000    0.000    0.000    0.000 
#
# Total GULP energy -520905.511747 kJ/mol
# GULP energy per Si atom -12402.512184 kJ/mol
# Density = 2.073605 g / cm^3
# Si number density = 20.783352 Si / 1000 Ang^3
#
#
#
# Elastic Constant Matrix: (Units=GPa)
#
#
# Indices 1 2 3 4 5 6 
#
# 1 73.3635 16.4796 27.7182 -7.5786 -0.0002 0.0000
# 2 16.4796 73.3635 27.7182 7.5786 0.0002 0.0000
# 3 27.7182 27.7182 77.4290 0.0000 0.0000 0.0000
# 4 -7.5786 7.5786 0.0000 31.1681 0.0000 0.0002
# 5 -0.0002 0.0002 0.0000 0.0000 31.1681 -7.5786
# 6 0.0000 0.0000 0.0000 0.0002 -7.5786 28.4420
#
#
#
# Elastic Compliance Matrix: (Units=1/GPa)
#
#
# Indices 1 2 3 4 5 6 
#
# 1 0.016542 -0.002256 -0.005114 0.004571 0.000000 0.000000
# 2 -0.002256 0.016542 -0.005114 -0.004571 0.000000 0.000000
# 3 -0.005114 -0.005114 0.016577 0.000000 0.000000 0.000000
# 4 0.004571 -0.004571 0.000000 0.034307 0.000000 0.000000
# 5 0.000000 0.000000 0.000000 0.000000 0.034307 0.009141
# 6 0.000000 0.000000 0.000000 0.000000 0.009141 0.037595
#
#
# Mechanical properties :
#
#
# Convention : Reuss Voigt Hill
#
# Bulk Modulus (GPa) = 40.49864 40.88756 40.69310
# Shear Modulus (GPa) = 26.44553 28.30498 27.37525
#
# Velocity S-wave (km/s) = 3.57099 3.69440 3.63322
# Velocity P-wave (km/s) = 6.04409 6.15744 6.10103
#
# Compressibility (1/GPa) = 0.02469219
#
# Stress axis : x y z
#
# Youngs Moduli (GPa) = 60.45274 60.45274 60.32591
#
# Poissons Ratio (x) = 0.13636 0.30852
# Poissons Ratio (y) = 0.13636 0.30852
# Poissons Ratio (z) = 0.30917 0.30917
#
# Static dielectric constant tensor:
#      x y z
#    x 3.777930 0.000000 0.000000 
#    y 0.000000 3.777930 0.000000 
#    z 0.000000 0.000000 3.696550 
# 
# 
# High freq. dielectric constant tensor:
#      x y z
#    x 1.811880 0.000000 0.000000 
#    y 0.000000 1.811880 0.000000 
#    z 0.000000 0.000000 1.804580 
# 
# From -- ./inp_files/3790.got.cif
#   From: 2010.03.12/outbox.cif.g09.slc.cpg/sg154_2_cif.got.tgz:3790.got - 2010.04.03 13:51:21.
