data_PCOD8322749
_publ_section_title
;
Structure prediction by ZEFSAII (Michael W. Deem and Ramdas Pophale) SiO2 
 PCOD8322749
Probable space group: P 3 C 1
;
_chemical_formula_sum "Si O2"
_cell_formula_units_Z 48
_cell_length_a 18.743586
_cell_length_b 18.743586
_cell_length_c 8.962903
_cell_angle_alpha 90.000000
_cell_angle_beta 90.000000
_cell_angle_gamma 120.000000
_cell_volume 2726.997215
_symmetry_space_group_name_H-M "P 3 C 1"
_symmetry_group_IT_number 158
_symmetry_cell_setting 'hexagonal'
loop_
_space_group_symop_operation_xyz
x,y,z
-y,x-y,z
-x+y,-x,z
-x+y,y,1/2+z
x,x-y,1/2+z
-y,-x,1/2+z
loop_
_atom_site_type_symbol
_atom_site_label
_atom_site_fract_x
_atom_site_fract_y
_atom_site_fract_z
Si Si1 0.431133 0.285138 0.878560
Si Si2 0.238363 0.904638 0.870905
Si Si3 0.428304 0.999608 0.221580
Si Si4 0.428304 0.428695 0.370905
Si Si5 0.666275 0.761637 0.221580
Si Si6 0.431133 0.145995 0.713924
Si Si7 0.951804 0.764466 0.878560
Si Si8 0.812662 0.048196 0.213924
O O1 0.458505 0.368618 0.788252
O O2 0.467944 0.233972 0.796242
O O3 0.333333 0.230719 0.883022
O O4 0.466820 0.306963 0.046242
O O5 0.184956 0.815044 0.796242
O O6 0.333333 0.936864 0.831277
O O7 0.208162 0.964716 0.804232
O O8 0.223402 0.898606 0.046242
O O9 0.333333 0.936863 0.261207
O O10 0.481711 0.963421 0.296242
O O11 0.443264 0.008538 0.046242
O O12 0.458505 0.368618 0.304232
O O13 0.756554 0.791838 0.288252
O O14 0.333333 0.102614 0.709462
O O15 0.900639 0.801277 0.796242
O O16 0.973629 0.800153 0.046242
#
# Coordination Sequence:
#
# PCOD8322749 Si02
#       8
#     6   6   6   6   6   6   6   6
#     4   9  16  27  45  69  96 124 154 190 233 283
#     4  10  20  33  50  73 100 131 169 213 260 308
#     4  10  20  33  50  73 100 131 169 213 260 308
#     4  10  20  33  50  73 100 131 169 213 260 308
#     4  10  20  33  50  73 100 131 169 213 260 308
#     4   9  16  27  45  69  96 124 154 190 233 283
#     4   9  16  27  45  69  96 124 154 190 233 283
#     4   9  16  27  45  69  96 124 154 190 233 283
#
# _framework density 17.601777999999999
#
# number of rings (size 3 to 8) (size 9 to 14) (size 15 to 20)
#    0.000    2.500    0.000    3.000    0.000    9.000 
#    0.000    0.000    0.000    1.500    0.000    7.000 
#    0.000    0.000    0.000    0.000    0.000    0.000 
#
# Total GULP energy -595216.663516 kJ/mol
# GULP energy per Si atom -12400.347157 kJ/mol
# Density = 1.756172 g / cm^3
# Si number density = 17.601778 Si / 1000 Ang^3
#
#
#
# Elastic Constant Matrix: (Units=GPa)
#
#
# Indices 1 2 3 4 5 6 
#
# 1 84.8661 49.1570 57.9315 0.0000 0.0000 0.0000
# 2 49.1570 84.8661 57.9315 0.0000 0.0000 0.0000
# 3 57.9315 57.9315 142.8924 0.0000 0.0000 0.0000
# 4 0.0000 0.0000 0.0000 30.0743 0.0000 0.0000
# 5 0.0000 0.0000 0.0000 0.0000 30.0743 0.0000
# 6 0.0000 0.0000 0.0000 0.0000 0.0000 17.8545
#
#
#
# Elastic Compliance Matrix: (Units=1/GPa)
#
#
# Indices 1 2 3 4 5 6 
#
# 1 0.019746 -0.008258 -0.004657 0.000000 0.000000 0.000000
# 2 -0.008258 0.019746 -0.004657 0.000000 0.000000 0.000000
# 3 -0.004657 -0.004657 0.010775 0.000000 0.000000 0.000000
# 4 0.000000 0.000000 0.000000 0.033251 0.000000 0.000000
# 5 0.000000 0.000000 0.000000 0.000000 0.033251 0.000000
# 6 0.000000 0.000000 0.000000 0.000000 0.000000 0.056008
#
#
# Mechanical properties :
#
#
# Convention : Reuss Voigt Hill
#
# Bulk Modulus (GPa) = 66.13485 71.40718 68.77101
# Shear Modulus (GPa) = 23.47832 25.44094 24.45963
#
# Velocity S-wave (km/s) = 3.65617 3.80592 3.73179
# Velocity P-wave (km/s) = 7.44834 7.74400 7.59761
#
# Compressibility (1/GPa) = 0.01512062
#
# Stress axis : x y z
#
# Youngs Moduli (GPa) = 50.64351 50.64351 92.81063
#
# Poissons Ratio (x) = 0.41822 0.43225
# Poissons Ratio (y) = 0.41822 0.43225
# Poissons Ratio (z) = 0.23586 0.23586
#
# Static dielectric constant tensor:
#      x y z
#    x 3.077520 0.000000 0.000000 
#    y 0.000000 3.077520 0.000000 
#    z 0.000000 0.000000 3.489140 
# 
# 
# High freq. dielectric constant tensor:
#      x y z
#    x 1.652560 0.000000 0.000000 
#    y 0.000000 1.652560 0.000000 
#    z 0.000000 0.000000 1.703620 
# 
# From -- ./inp_files/225.got.cif
#   From: 2010.03.12/outbox.cif.g09.slc.cpg/sg158_cif.got.tgz:225.got - 2010.04.03 13:59:47.
