data_PCOD8322744
_publ_section_title
;
Structure prediction by ZEFSAII (Michael W. Deem and Ramdas Pophale) SiO2 
 PCOD8322744
Probable space group: P 3 C 1
;
_chemical_formula_sum "Si O2"
_cell_formula_units_Z 36
_cell_length_a 12.455859
_cell_length_b 12.455859
_cell_length_c 16.382668
_cell_angle_alpha 90.000000
_cell_angle_beta 90.000000
_cell_angle_gamma 120.000000
_cell_volume 2201.215837
_symmetry_space_group_name_H-M "P 3 C 1"
_symmetry_group_IT_number 158
_symmetry_cell_setting 'hexagonal'
loop_
_space_group_symop_operation_xyz
x,y,z
-y,x-y,z
-x+y,-x,z
-x+y,y,1/2+z
x,x-y,1/2+z
-y,-x,1/2+z
loop_
_atom_site_type_symbol
_atom_site_label
_atom_site_fract_x
_atom_site_fract_y
_atom_site_fract_z
Si Si1 0.492542 0.365781 0.957690
Si Si2 0.892333 0.581017 0.378814
Si Si3 0.418983 0.311316 0.191031
Si Si4 0.756208 0.001639 0.520231
Si Si5 0.998362 0.754569 0.049615
Si Si6 0.873239 0.507458 0.612155
O O1 0.543473 0.477438 0.891365
O O2 0.484541 0.245895 0.915980
O O3 0.355744 0.330631 0.987762
O O4 0.586641 0.413360 0.034923
O O5 0.895325 0.616566 0.284923
O O6 0.984153 0.706794 0.426937
O O7 0.293206 0.277358 0.142909
O O8 0.522562 0.456527 0.178481
O O9 0.484541 0.238646 0.153865
O O10 0.728348 0.864174 0.534923
O O11 0.900700 0.099300 0.534923
O O12 0.669370 0.025114 0.582084
#
# Coordination Sequence:
#
# PCOD8322744 Si02
#       6
#     6   6   6   6   6   6
#     4   9  17  29  48  71  97 124 150 182 236 297
#     4  10  18  29  47  75 101 121 149 193 240 284
#     4  10  18  29  47  75 101 121 149 193 240 284
#     4   9  18  32  49  66  90 127 163 191 227 277
#     4   9  18  32  49  66  90 127 163 191 227 277
#     4   9  17  29  48  71  97 124 150 182 236 297
#
# _framework density 16.354597999999999
#
# number of rings (size 3 to 8) (size 9 to 14) (size 15 to 20)
#    0.000    2.667    0.000    5.000    0.000    4.000 
#    0.000    8.333    0.000   18.000    0.000    0.000 
#    0.000    0.000    0.000    0.000    0.000    0.000 
#
# Total GULP energy -446107.531533 kJ/mol
# GULP energy per Si atom -12391.875876 kJ/mol
# Density = 1.631737 g / cm^3
# Si number density = 16.354598 Si / 1000 Ang^3
#
#
#
# Elastic Constant Matrix: (Units=GPa)
#
#
# Indices 1 2 3 4 5 6 
#
# 1 96.8991 52.3865 54.5682 0.0000 0.0000 0.0000
# 2 52.3865 96.8991 54.5682 0.0000 0.0000 0.0000
# 3 54.5682 54.5682 120.7528 0.0000 0.0000 0.0000
# 4 0.0000 0.0000 0.0000 12.2237 0.0000 0.0000
# 5 0.0000 0.0000 0.0000 0.0000 12.2237 0.0000
# 6 0.0000 0.0000 0.0000 0.0000 0.0000 22.2563
#
#
#
# Elastic Compliance Matrix: (Units=1/GPa)
#
#
# Indices 1 2 3 4 5 6 
#
# 1 0.016234 -0.006231 -0.004520 0.000000 0.000000 0.000000
# 2 -0.006231 0.016234 -0.004520 0.000000 0.000000 0.000000
# 3 -0.004520 -0.004520 0.012367 0.000000 0.000000 0.000000
# 4 0.000000 0.000000 0.000000 0.081808 0.000000 0.000000
# 5 0.000000 0.000000 0.000000 0.000000 0.081808 0.000000
# 6 0.000000 0.000000 0.000000 0.000000 0.000000 0.044931
#
#
# Mechanical properties :
#
#
# Convention : Reuss Voigt Hill
#
# Bulk Modulus (GPa) = 69.97095 70.84408 70.40751
# Shear Modulus (GPa) = 17.31955 19.54263 18.43109
#
# Velocity S-wave (km/s) = 3.25776 3.46053 3.36067
# Velocity P-wave (km/s) = 7.55164 7.70575 7.62908
#
# Compressibility (1/GPa) = 0.01429165
#
# Stress axis : x y z
#
# Youngs Moduli (GPa) = 61.59749 61.59749 80.86033
#
# Poissons Ratio (x) = 0.38382 0.36553
# Poissons Ratio (y) = 0.38382 0.36553
# Poissons Ratio (z) = 0.27845 0.27845
#
# Static dielectric constant tensor:
#      x y z
#    x 2.937410 0.000000 0.000000 
#    y 0.000000 2.937410 0.000000 
#    z 0.000000 0.000000 3.187660 
# 
# 
# High freq. dielectric constant tensor:
#      x y z
#    x 1.609360 0.000000 0.000000 
#    y 0.000000 1.609360 0.000000 
#    z 0.000000 0.000000 1.628070 
# 
# From -- ./inp_files/487.got.cif
#   From: 2010.03.12/outbox.cif.g09.slc.cpg/sg158_cif.got.tgz:487.got - 2010.04.03 13:59:47.
