data_PCOD8322591
_publ_section_title
;
Structure prediction by ZEFSAII (Michael W. Deem and Ramdas Pophale) SiO2 
 PCOD8322591
Probable space group: R 3 2
;
_chemical_formula_sum "Si O2"
_cell_formula_units_Z 69
_cell_length_a 10.925759
_cell_length_b 10.925759
_cell_length_c 30.687846
_cell_angle_alpha 90.000000
_cell_angle_beta 90.000000
_cell_angle_gamma 120.000000
_cell_volume 3172.490067
_symmetry_space_group_name_H-M "R 3 2"
_symmetry_group_IT_number 155
_symmetry_cell_setting 'hexagonal'
loop_
_space_group_symop_operation_xyz
x,y,z
-y,x-y,z
-x+y,-x,z
x-y,-y,-z
-x,-x+y,-z
y,x,-z
2/3+x,1/3+y,1/3+z
2/3-y,1/3+x-y,1/3+z
2/3-x+y,1/3-x,1/3+z
2/3+x-y,1/3-y,1/3-z
2/3-x,1/3-x+y,1/3-z
2/3+y,1/3+x,1/3-z
1/3+x,2/3+y,2/3+z
1/3-y,2/3+x-y,2/3+z
1/3-x+y,2/3-x,2/3+z
1/3+x-y,2/3-y,2/3-z
1/3-x,2/3-x+y,2/3-z
1/3+y,2/3+x,2/3-z
loop_
_atom_site_type_symbol
_atom_site_label
_atom_site_fract_x
_atom_site_fract_y
_atom_site_fract_z
Si Si1 0.286564 0.051676 0.714435
Si Si2 0.246334 0.913001 0.833334
Si Si3 0.388870 0.454194 0.419280
Si Si4 0.333334 0.666667 0.615004
Si Si5 0.168022 0.886931 0.094941
O O1 0.333334 0.118206 0.666667
O O2 0.226799 0.132326 0.743267
O O3 0.162535 0.885707 0.714148
O O4 0.427969 0.069224 0.737637
O O5 0.122431 0.867364 0.797942
O O6 0.392568 0.937095 0.811498
O O7 0.359206 0.294610 0.422402
O O8 0.333334 0.666668 0.666667
O O9 0.470116 0.667014 0.595997
#
# Coordination Sequence:
#
# PCOD8322591 Si02
#       5
#    18   9  18   6  18
#     4  11  26  44  70 103 141 190 237 284 360 418
#     4  10  24  44  72 106 136 180 246 280 360 410
#     4  11  26  45  71 102 144 186 230 302 343 420
#     4  12  21  39  72 105 132 171 240 297 339 393
#     4  11  24  43  71 103 135 187 228 301 342 411
#
# _framework density 21.749478
#
# number of rings (size 3 to 8) (size 9 to 14) (size 15 to 20)
#    0.000    1.043    5.217    1.304   10.957    0.000 
#    1.565    0.000    0.000    1.565    0.000    0.000 
#    0.000    0.000    0.000    0.000    0.000    0.000 
#
# Total GULP energy -285017.760384 kJ/mol
# GULP energy per Si atom -12392.076538 kJ/mol
# Density = 2.169997 g / cm^3
# Si number density = 21.749478 Si / 1000 Ang^3
#
#
#
# Elastic Constant Matrix: (Units=GPa)
#
#
# Indices 1 2 3 4 5 6 
#
# 1 113.8793 44.8904 34.5538 -3.2263 0.0007 0.0000
# 2 44.8904 113.8788 34.5539 3.2264 -0.0007 0.0000
# 3 34.5538 34.5539 126.1434 -0.0002 -0.0001 -0.0001
# 4 -3.2263 3.2264 -0.0002 27.1202 -0.0002 -0.0008
# 5 0.0007 -0.0007 -0.0001 -0.0002 27.1210 -3.2262
# 6 0.0000 0.0000 -0.0001 -0.0008 -3.2262 34.4944
#
#
#
# Elastic Compliance Matrix: (Units=1/GPa)
#
#
# Indices 1 2 3 4 5 6 
#
# 1 0.010905 -0.003754 -0.001959 0.001744 0.000000 0.000000
# 2 -0.003754 0.010905 -0.001959 -0.001744 0.000000 0.000000
# 3 -0.001959 -0.001959 0.009001 0.000000 0.000000 0.000000
# 4 0.001744 -0.001744 0.000000 0.037288 0.000000 0.000001
# 5 0.000000 0.000000 0.000000 0.000000 0.037287 0.003487
# 6 0.000000 0.000000 0.000000 0.000001 0.003487 0.029316
#
#
# Mechanical properties :
#
#
# Convention : Reuss Voigt Hill
#
# Bulk Modulus (GPa) = 64.65229 64.65532 64.65381
# Shear Modulus (GPa) = 32.21669 33.74069 32.97869
#
# Velocity S-wave (km/s) = 3.85289 3.94297 3.89819
# Velocity P-wave (km/s) = 7.04155 7.10783 7.07477
#
# Compressibility (1/GPa) = 0.01546736
#
# Stress axis : x y z
#
# Youngs Moduli (GPa) = 91.70417 91.70359 111.10311
#
# Poissons Ratio (x) = 0.34422 0.21763
# Poissons Ratio (y) = 0.34422 0.21764
# Poissons Ratio (z) = 0.17963 0.17964
#
# Static dielectric constant tensor:
#      x y z
#    x 3.892060 0.000000 0.000000 
#    y 0.000000 3.892070 0.000000 
#    z 0.000000 0.000000 3.908410 
# 
# 
# High freq. dielectric constant tensor:
#      x y z
#    x 1.853840 0.000000 0.000000 
#    y 0.000000 1.853840 0.000000 
#    z 0.000000 0.000000 1.851400 
# 
# From -- ./inp_files/8265.got.cif
#   From: 2010.03.12/outbox.cif.g09.slc.cpg/sg155_5_cif.got.tgz:8265.got - 2010.04.03 13:54:13.
