data_PCOD8322072
_publ_section_title
;
Structure prediction by ZEFSAII (Michael W. Deem and Ramdas Pophale) SiO2 
 PCOD8322072
Probable space group: P 31 2 1
;
_chemical_formula_sum "Si O2"
_cell_formula_units_Z 42
_cell_length_a 9.005181
_cell_length_b 9.005181
_cell_length_c 28.808075
_cell_angle_alpha 90.000000
_cell_angle_beta 90.000000
_cell_angle_gamma 120.000000
_cell_volume 2023.157827
_symmetry_space_group_name_H-M "P 31 2 1"
_symmetry_group_IT_number 152
_symmetry_cell_setting 'hexagonal'
loop_
_space_group_symop_operation_xyz
x,y,z
-y,x-y,1/3+z
-x+y,-x,2/3+z
x-y,-y,2/3-z
-x,-x+y,1/3-z
y,x,-z
loop_
_atom_site_type_symbol
_atom_site_label
_atom_site_fract_x
_atom_site_fract_y
_atom_site_fract_z
Si Si1 0.691557 0.281762 0.449303
Si Si2 0.302936 0.098883 0.886712
Si Si3 0.978122 0.804768 0.937947
Si Si4 0.404556 0.425039 0.550976
Si Si5 0.040307 0.841712 0.041565
Si Si6 0.992942 0.637683 0.479360
Si Si7 0.758686 0.077946 0.380793
O O1 0.541471 0.321579 0.438127
O O2 0.861076 0.442281 0.468451
O O3 0.733473 0.231733 0.399175
O O4 0.638409 0.133795 0.487169
O O5 0.276326 0.158772 0.834846
O O6 0.340081 0.262821 0.916853
O O7 0.150659 0.939998 0.912324
O O8 0.469918 0.079668 0.884704
O O9 0.910223 0.646151 0.901911
O O10 0.021871 0.765523 0.989534
O O11 0.839821 0.867065 0.942632
O O12 0.341583 0.341583 0.500000
O O13 0.346801 0.274626 0.589004
O O14 0.190197 0.038348 0.041835
O O15 0.658462 0.000000 0.333334
#
# Coordination Sequence:
#
# PCOD8322072 Si02
#       7
#     6   6   6   6   6   6   6
#     4  11  26  39  63  96 126 162 214 257 316 373
#     4  10  19  41  68  84 125 171 204 247 320 378
#     4  10  19  43  64  89 124 167 208 246 319 385
#     4  12  24  42  61  95 128 159 208 268 310 371
#     4  10  23  39  69  92 120 162 216 259 305 377
#     4  11  23  40  64  94 129 168 206 265 317 377
#     4  10  21  44  64  90 122 166 210 254 308 387
#
# _framework density 20.759626000000001
#
# number of rings (size 3 to 8) (size 9 to 14) (size 15 to 20)
#    0.000    1.429    5.714    0.429    4.000    3.429 
#    2.571    0.000    0.000    0.000    0.000    0.000 
#    0.000    0.000    0.000    0.000    0.000    0.000 
#
# Total GULP energy -520538.942533 kJ/mol
# GULP energy per Si atom -12393.784346 kJ/mol
# Density = 2.071238 g / cm^3
# Si number density = 20.759626 Si / 1000 Ang^3
#
#
#
# Elastic Constant Matrix: (Units=GPa)
#
#
# Indices 1 2 3 4 5 6 
#
# 1 61.3780 17.0053 37.6215 4.8208 0.0002 0.0000
# 2 17.0053 61.3780 37.6215 -4.8208 -0.0002 0.0000
# 3 37.6215 37.6215 159.6384 0.0000 0.0000 0.0000
# 4 4.8208 -4.8208 0.0000 26.5694 0.0000 -0.0002
# 5 0.0002 -0.0002 0.0000 0.0000 26.5694 4.8208
# 6 0.0000 0.0000 0.0000 -0.0002 4.8208 22.1864
#
#
#
# Elastic Compliance Matrix: (Units=1/GPa)
#
#
# Indices 1 2 3 4 5 6 
#
# 1 0.019975 -0.003487 -0.003886 -0.004257 0.000000 0.000000
# 2 -0.003487 0.019975 -0.003886 0.004257 0.000000 0.000000
# 3 -0.003886 -0.003886 0.008096 0.000000 0.000000 0.000000
# 4 -0.004257 0.004257 0.000000 0.039182 0.000000 0.000000
# 5 0.000000 0.000000 0.000000 0.000000 0.039182 -0.008514
# 6 0.000000 0.000000 0.000000 0.000000 -0.008514 0.046923
#
#
# Mechanical properties :
#
#
# Convention : Reuss Voigt Hill
#
# Bulk Modulus (GPa) = 39.17172 51.87676 45.52424
# Shear Modulus (GPa) = 24.46702 27.74147 26.10424
#
# Velocity S-wave (km/s) = 3.43678 3.65953 3.54990
# Velocity P-wave (km/s) = 5.88717 6.54979 6.22730
#
# Compressibility (1/GPa) = 0.02552862
#
# Stress axis : x y z
#
# Youngs Moduli (GPa) = 50.06375 50.06375 123.52420
#
# Poissons Ratio (x) = 0.17456 0.47997
# Poissons Ratio (y) = 0.17456 0.47997
# Poissons Ratio (z) = 0.19453 0.19453
#
# Static dielectric constant tensor:
#      x y z
#    x 3.738400 0.000000 0.000000 
#    y 0.000000 3.738400 0.000000 
#    z 0.000000 0.000000 4.301510 
# 
# 
# High freq. dielectric constant tensor:
#      x y z
#    x 1.798910 0.000000 0.000000 
#    y 0.000000 1.798910 0.000000 
#    z 0.000000 0.000000 1.836920 
# 
# From -- ./inp_files/3690.got.cif
#   From: 2010.03.12/outbox.cif.g09.slc.cpg/sg152_2_cif.got.tgz:3690.got - 2010.04.03 13:45:27.
