data_PCOD8322729
_publ_section_title
;
Structure prediction by ZEFSAII (Michael W. Deem and Ramdas Pophale) SiO2 
 PCOD8322729
Probable space group: P 3 1 M
;
_chemical_formula_sum "Si O2"
_cell_formula_units_Z 36
_cell_length_a 20.840336
_cell_length_b 20.840336
_cell_length_c 5.077138
_cell_angle_alpha 90.000000
_cell_angle_beta 90.000000
_cell_angle_gamma 120.000000
_cell_volume 1909.673110
_symmetry_space_group_name_H-M "P 3 1 M"
_symmetry_group_IT_number 157
_symmetry_cell_setting 'hexagonal'
loop_
_space_group_symop_operation_xyz
x,y,z
-y,x-y,z
-x+y,-x,z
y,x,z
x-y,-y,z
-x,-x+y,z
loop_
_atom_site_type_symbol
_atom_site_label
_atom_site_fract_x
_atom_site_fract_y
_atom_site_fract_z
Si Si1 0.225729 0.723751 0.845830
Si Si2 0.914792 0.084425 0.967173
Si Si3 0.390742 0.838012 0.868559
Si Si4 0.628500 0.541038 0.364864
Si Si5 0.205693 0.412960 0.343622
Si Si6 0.833583 0.084619 0.469026
O O1 0.313684 0.760758 0.891172
O O2 0.182626 0.636909 0.897308
O O3 0.210953 0.737375 0.547106
O O4 0.195705 0.761684 0.050143
O O5 0.897405 0.099619 0.260129
O O6 0.000000 0.137533 0.906171
O O7 0.895648 0.000000 0.933311
O O8 0.868273 0.102974 0.759681
O O9 0.398826 0.880114 0.597110
O O10 0.399771 0.894997 0.096400
O O11 0.595216 0.595216 0.396959
O O12 0.717886 0.592075 0.365141
O O13 0.200273 0.336381 0.411725
O O14 0.767316 0.000000 0.447825
#
# Coordination Sequence:
#
# PCOD8322729 Si02
#       6
#     6   6   6   6   6   6
#     4  10  20  36  58  82 107 138 176 221 267 317
#     4  10  20  34  54  78 104 134 172 222 272 315
#     4  10  20  36  58  82 109 138 177 223 271 320
#     4  10  21  36  54  79 113 146 177 223 272 320
#     4  10  21  37  56  79 109 144 183 221 263 319
#     4  10  21  37  54  76 108 142 179 222 263 311
#
# _framework density 18.851393999999999
#
# number of rings (size 3 to 8) (size 9 to 14) (size 15 to 20)
#    0.000    2.000    0.000    3.500    0.000    1.333 
#    0.000   10.000    0.000    0.000    0.000    0.000 
#    0.000    0.000    0.000    0.000    0.000    0.000 
#
# Total GULP energy -446533.852515 kJ/mol
# GULP energy per Si atom -12403.718125 kJ/mol
# Density = 1.880849 g / cm^3
# Si number density = 18.851394 Si / 1000 Ang^3
#
#
#
# Elastic Constant Matrix: (Units=GPa)
#
#
# Indices 1 2 3 4 5 6 
#
# 1 89.1647 48.2475 5.3739 0.0000 -0.6357 0.0000
# 2 48.2475 89.1647 5.3739 0.0000 0.6357 0.0000
# 3 5.3739 5.3739 71.9128 0.0000 0.0000 0.0000
# 4 0.0000 0.0000 0.0000 17.2907 0.0000 0.6357
# 5 -0.6357 0.6357 0.0000 0.0000 17.2907 0.0000
# 6 0.0000 0.0000 0.0000 0.6357 0.0000 20.4586
#
#
#
# Elastic Compliance Matrix: (Units=1/GPa)
#
#
# Indices 1 2 3 4 5 6 
#
# 1 0.015894 -0.008574 -0.000547 0.000000 0.000900 0.000000
# 2 -0.008574 0.015894 -0.000547 0.000000 -0.000900 0.000000
# 3 -0.000547 -0.000547 0.013987 0.000000 0.000000 0.000000
# 4 0.000000 0.000000 0.000000 0.057901 0.000000 -0.001799
# 5 0.000900 -0.000900 0.000000 0.000000 0.057901 0.000000
# 6 0.000000 0.000000 0.000000 -0.001799 0.000000 0.048935
#
#
# Mechanical properties :
#
#
# Convention : Reuss Voigt Hill
#
# Bulk Modulus (GPa) = 37.82190 40.91476 39.36833
# Shear Modulus (GPa) = 20.95025 23.75777 22.35401
#
# Velocity S-wave (km/s) = 3.33729 3.55387 3.44728
# Velocity P-wave (km/s) = 5.91242 6.21216 6.06415
#
# Compressibility (1/GPa) = 0.02643971
#
# Stress axis : x y z
#
# Youngs Moduli (GPa) = 62.91738 62.91738 71.49248
#
# Poissons Ratio (x) = 0.53943 0.03911
# Poissons Ratio (y) = 0.53943 0.03911
# Poissons Ratio (z) = 0.03442 0.03442
#
# Static dielectric constant tensor:
#      x y z
#    x 3.282470 0.000000 0.000000 
#    y 0.000000 3.282470 0.000000 
#    z 0.000000 0.000000 3.806190 
# 
# 
# High freq. dielectric constant tensor:
#      x y z
#    x 1.723760 0.000000 0.000000 
#    y 0.000000 1.723760 0.000000 
#    z 0.000000 0.000000 1.755890 
# 
# From -- ./inp_files/180.got.cif
#   From: 2010.03.12/outbox.cif.g09.slc.cpg/sg157_cif.got.tgz:180.got - 2010.04.03 13:59:21.
