data_PCOD8322617
_publ_section_title
;
Structure prediction by ZEFSAII (Michael W. Deem and Ramdas Pophale) SiO2 
 PCOD8322617
Probable space group: R 3 2
;
_chemical_formula_sum "Si O2"
_cell_formula_units_Z 75
_cell_length_a 15.281497
_cell_length_b 15.281497
_cell_length_c 16.171225
_cell_angle_alpha 90.000000
_cell_angle_beta 90.000000
_cell_angle_gamma 120.000000
_cell_volume 3270.433724
_symmetry_space_group_name_H-M "R 3 2"
_symmetry_group_IT_number 155
_symmetry_cell_setting 'hexagonal'
loop_
_space_group_symop_operation_xyz
x,y,z
-y,x-y,z
-x+y,-x,z
x-y,-y,-z
-x,-x+y,-z
y,x,-z
2/3+x,1/3+y,1/3+z
2/3-y,1/3+x-y,1/3+z
2/3-x+y,1/3-x,1/3+z
2/3+x-y,1/3-y,1/3-z
2/3-x,1/3-x+y,1/3-z
2/3+y,1/3+x,1/3-z
1/3+x,2/3+y,2/3+z
1/3-y,2/3+x-y,2/3+z
1/3-x+y,2/3-x,2/3+z
1/3+x-y,2/3-y,2/3-z
1/3-x,2/3-x+y,2/3-z
1/3+y,2/3+x,2/3-z
loop_
_atom_site_type_symbol
_atom_site_label
_atom_site_fract_x
_atom_site_fract_y
_atom_site_fract_z
Si Si1 0.666667 0.333334 0.232305
Si Si2 0.211645 0.137408 0.346636
Si Si3 0.064276 0.217495 0.821355
Si Si4 0.197776 0.886615 0.500401
Si Si5 0.439825 0.439825 0.000000
Si Si6 0.666667 0.333333 0.928196
O O1 0.666668 0.333334 0.333334
O O2 0.728543 0.451876 0.198717
O O3 0.206691 0.058721 0.278030
O O4 0.290856 0.164333 0.420926
O O5 0.243981 0.243215 0.302606
O O6 0.099351 0.099337 0.376831
O O7 0.160980 0.333334 0.833334
O O8 0.963667 0.213615 0.852745
O O9 0.147863 0.843805 0.412861
O O10 0.219219 0.000000 0.500000
O O11 0.666668 0.333334 0.833334
#
# Coordination Sequence:
#
# PCOD8322617 Si02
#       6
#     6  18  18  18   9   6
#     4  12  28  50  85 117 163 221 277 340 425 502
#     4  12  25  42  70  99 146 192 251 317 401 460
#     4  11  27  48  74 107 153 207 268 329 396 487
#     4  11  23  42  71 101 143 196 255 323 402 480
#     4  12  24  40  64 106 144 186 254 326 396 490
#     4  12  22  41  70 102 133 179 238 310 383 469
#
# _framework density 22.932738000000001
#
# number of rings (size 3 to 8) (size 9 to 14) (size 15 to 20)
#    0.000    0.480    0.000   10.080    3.360    5.760 
#    0.000    0.000    0.000    0.000    0.000    0.000 
#    0.000    0.000    0.000    0.000    0.000    0.000 
#
# Total GULP energy -309728.718547 kJ/mol
# GULP energy per Si atom -12389.148742 kJ/mol
# Density = 2.288054 g / cm^3
# Si number density = 22.932738 Si / 1000 Ang^3
#
#
#
# Elastic Constant Matrix: (Units=GPa)
#
#
# Indices 1 2 3 4 5 6 
#
# 1 121.0592 49.1064 49.3995 -1.2488 -0.0001 0.0000
# 2 49.1064 121.0600 49.3996 1.2484 0.0001 0.0000
# 3 49.3995 49.3996 185.3450 -0.0001 0.0000 0.0000
# 4 -1.2488 1.2484 -0.0001 43.3494 0.0001 0.0000
# 5 -0.0001 0.0001 0.0000 0.0001 43.3493 -1.2487
# 6 0.0000 0.0000 0.0000 0.0000 -1.2487 35.9765
#
#
#
# Elastic Compliance Matrix: (Units=1/GPa)
#
#
# Indices 1 2 3 4 5 6 
#
# 1 0.010432 -0.003480 -0.001853 0.000401 0.000000 0.000000
# 2 -0.003480 0.010432 -0.001853 -0.000401 0.000000 0.000000
# 3 -0.001853 -0.001853 0.006383 0.000000 0.000000 0.000000
# 4 0.000401 -0.000401 0.000000 0.023091 0.000000 0.000000
# 5 0.000000 0.000000 0.000000 0.000000 0.023092 0.000801
# 6 0.000000 0.000000 0.000000 0.000000 0.000801 0.027824
#
#
# Mechanical properties :
#
#
# Convention : Reuss Voigt Hill
#
# Bulk Modulus (GPa) = 77.66403 80.36390 79.01397
# Shear Modulus (GPa) = 41.69530 43.17228 42.43379
#
# Velocity S-wave (km/s) = 4.26861 4.34356 4.30625
# Velocity P-wave (km/s) = 7.63114 7.76368 7.69769
#
# Compressibility (1/GPa) = 0.01287597
#
# Stress axis : x y z
#
# Youngs Moduli (GPa) = 95.85716 95.85783 156.66347
#
# Poissons Ratio (x) = 0.33355 0.29030
# Poissons Ratio (y) = 0.33355 0.29030
# Poissons Ratio (z) = 0.17763 0.17763
#
# Static dielectric constant tensor:
#      x y z
#    x 4.285750 0.000000 0.000000 
#    y 0.000000 4.285720 0.000010 
#    z 0.000000 0.000010 4.150100 
# 
# 
# High freq. dielectric constant tensor:
#      x y z
#    x 1.914180 0.000000 0.000000 
#    y 0.000000 1.914180 0.000000 
#    z 0.000000 0.000000 1.911800 
# 
# From -- ./inp_files/6856.got.cif
#   From: 2010.03.12/outbox.cif.g09.slc.cpg/sg155_4_cif.got.tgz:6856.got - 2010.04.03 13:54:13.
