data_PCOD8322536
_publ_section_title
;
Structure prediction by ZEFSAII (Michael W. Deem and Ramdas Pophale) SiO2 
 PCOD8322536
Probable space group: R 3 2
;
_chemical_formula_sum "Si O2"
_cell_formula_units_Z 63
_cell_length_a 14.907544
_cell_length_b 14.907544
_cell_length_c 16.777795
_cell_angle_alpha 90.000000
_cell_angle_beta 90.000000
_cell_angle_gamma 120.000000
_cell_volume 3229.071898
_symmetry_space_group_name_H-M "R 3 2"
_symmetry_group_IT_number 155
_symmetry_cell_setting 'hexagonal'
loop_
_space_group_symop_operation_xyz
x,y,z
-y,x-y,z
-x+y,-x,z
x-y,-y,-z
-x,-x+y,-z
y,x,-z
2/3+x,1/3+y,1/3+z
2/3-y,1/3+x-y,1/3+z
2/3-x+y,1/3-x,1/3+z
2/3+x-y,1/3-y,1/3-z
2/3-x,1/3-x+y,1/3-z
2/3+y,1/3+x,1/3-z
1/3+x,2/3+y,2/3+z
1/3-y,2/3+x-y,2/3+z
1/3-x+y,2/3-x,2/3+z
1/3+x-y,2/3-y,2/3-z
1/3-x,2/3-x+y,2/3-z
1/3+y,2/3+x,2/3-z
loop_
_atom_site_type_symbol
_atom_site_label
_atom_site_fract_x
_atom_site_fract_y
_atom_site_fract_z
Si Si1 0.868911 0.913683 0.807708
Si Si2 0.105769 0.214673 0.972381
Si Si3 0.551505 0.218171 0.833334
Si Si4 0.420479 0.117364 0.988645
O O1 0.781606 0.872106 0.876895
O O2 0.812411 0.863884 0.725906
O O3 0.960393 0.884207 0.812722
O O4 0.116411 0.312914 0.019665
O O5 0.202416 0.202416 0.000000
O O6 0.000000 0.112947 0.000000
O O7 0.666667 0.231224 0.833334
O O8 0.490549 0.154951 0.756619
O O9 0.397643 0.000000 0.000000
#
# Coordination Sequence:
#
# PCOD8322536 Si02
#       4
#    18  18   9  18
#     4  10  20  38  66  85 125 173 212 245 336 407
#     4  11  20  37  60  93 130 166 206 262 338 392
#     4  10  24  50  70  84 132 188 228 250 344 414
#     4  11  25  37  67  98 128 165 228 281 316 385
#
# _framework density 19.510249000000002
#
# number of rings (size 3 to 8) (size 9 to 14) (size 15 to 20)
#    0.857    0.571    2.857    2.857    8.000    0.000 
#    0.000    8.571    0.000    0.000    0.000    0.000 
#    0.000    0.000    0.000    0.000    0.000    0.000 
#
# Total GULP energy -260163.773176 kJ/mol
# GULP energy per Si atom -12388.751104 kJ/mol
# Density = 1.946584 g / cm^3
# Si number density = 19.510249 Si / 1000 Ang^3
#
#
#
# Elastic Constant Matrix: (Units=GPa)
#
#
# Indices 1 2 3 4 5 6 
#
# 1 98.0085 43.3964 52.5489 -4.2314 0.0003 0.0000
# 2 43.3964 98.0085 52.5489 4.2314 -0.0003 0.0000
# 3 52.5489 52.5489 169.3143 0.0000 0.0000 0.0000
# 4 -4.2314 4.2314 0.0000 36.0874 0.0000 -0.0003
# 5 0.0003 -0.0003 0.0000 0.0000 36.0874 -4.2314
# 6 0.0000 0.0000 0.0000 -0.0003 -4.2314 27.3061
#
#
#
# Elastic Compliance Matrix: (Units=1/GPa)
#
#
# Indices 1 2 3 4 5 6 
#
# 1 0.013921 -0.004729 -0.002853 0.002187 0.000000 0.000000
# 2 -0.004729 0.013921 -0.002853 -0.002187 0.000000 0.000000
# 3 -0.002853 -0.002853 0.007677 0.000000 0.000000 0.000000
# 4 0.002187 -0.002187 0.000000 0.028223 0.000000 0.000000
# 5 0.000000 0.000000 0.000000 0.000000 0.028223 0.004374
# 6 0.000000 0.000000 0.000000 0.000000 0.004374 0.037300
#
#
# Mechanical properties :
#
#
# Convention : Reuss Voigt Hill
#
# Bulk Modulus (GPa) = 68.25985 73.59108 70.92546
# Shear Modulus (GPa) = 32.25429 34.35197 33.30313
#
# Velocity S-wave (km/s) = 4.07036 4.20064 4.13601
# Velocity P-wave (km/s) = 7.55997 7.83123 7.69680
#
# Compressibility (1/GPa) = 0.01464990
#
# Stress axis : x y z
#
# Youngs Moduli (GPa) = 71.83357 71.83357 130.25783
#
# Poissons Ratio (x) = 0.33968 0.37162
# Poissons Ratio (y) = 0.33968 0.37162
# Poissons Ratio (z) = 0.20494 0.20494
#
# Static dielectric constant tensor:
#      x y z
#    x 3.506340 0.000000 0.000000 
#    y 0.000000 3.506340 0.000000 
#    z 0.000000 0.000000 3.760150 
# 
# 
# High freq. dielectric constant tensor:
#      x y z
#    x 1.749740 0.000000 0.000000 
#    y 0.000000 1.749740 0.000000 
#    z 0.000000 0.000000 1.771560 
# 
# From -- ./inp_files/6727.got.cif
#   From: 2010.03.12/outbox.cif.g09.slc.cpg/sg155_4_cif.got.tgz:6727.got - 2010.04.03 13:54:13.
