data_PCOD8322048
_publ_section_title
;
Structure prediction by ZEFSAII (Michael W. Deem and Ramdas Pophale) SiO2 
 PCOD8322048
Probable space group: P 31 2 1
;
_chemical_formula_sum "Si O2"
_cell_formula_units_Z 45
_cell_length_a 16.122051
_cell_length_b 16.122051
_cell_length_c 10.942257
_cell_angle_alpha 90.000000
_cell_angle_beta 90.000000
_cell_angle_gamma 120.000000
_cell_volume 2463.077765
_symmetry_space_group_name_H-M "P 31 2 1"
_symmetry_group_IT_number 152
_symmetry_cell_setting 'hexagonal'
loop_
_space_group_symop_operation_xyz
x,y,z
-y,x-y,1/3+z
-x+y,-x,2/3+z
x-y,-y,2/3-z
-x,-x+y,1/3-z
y,x,-z
loop_
_atom_site_type_symbol
_atom_site_label
_atom_site_fract_x
_atom_site_fract_y
_atom_site_fract_z
Si Si1 0.871797 0.210044 0.419572
Si Si2 0.256967 0.347123 0.578297
Si Si3 0.354490 0.091195 0.557483
Si Si4 0.891851 0.200146 0.155208
Si Si5 0.597334 0.000000 0.333334
Si Si6 0.553119 0.155618 0.431019
Si Si7 0.495184 0.769460 0.069234
Si Si8 0.258975 0.248580 0.173012
O O1 0.861969 0.235827 0.278326
O O2 0.802585 0.230007 0.503669
O O3 0.833938 0.094990 0.422744
O O4 0.981628 0.271047 0.463758
O O5 0.334861 0.334861 0.500000
O O6 0.160786 0.322308 0.504968
O O7 0.305605 0.454724 0.631288
O O8 0.226205 0.275671 0.690542
O O9 0.372011 0.121732 0.701014
O O10 0.449572 0.100576 0.496162
O O11 0.000000 0.225927 0.166667
O O12 0.840504 0.086028 0.151936
O O13 0.493980 0.911394 0.307752
O O14 0.661356 0.014610 0.212559
O O15 0.630896 0.215430 0.533154
O O16 0.560490 0.228211 0.327657
#
# Coordination Sequence:
#
# PCOD8322048 Si02
#       8
#     6   6   6   6   3   6   6   6
#     4  10  19  38  60  87 114 154 199 239 285 347
#     4  10  19  36  59  86 118 151 195 234 296 350
#     4  10  22  36  62  84 118 160 189 245 296 353
#     4  10  19  34  57  85 120 154 194 240 296 349
#     4  12  20  38  66  86 112 152 216 236 288 362
#     4  11  22  41  59  88 114 155 197 247 299 355
#     4  10  22  40  59  84 121 146 200 248 296 354
#     4  11  19  34  62  85 114 156 200 240 287 357
#
# _framework density 18.269824
#
# number of rings (size 3 to 8) (size 9 to 14) (size 15 to 20)
#    0.000    1.600    5.333    0.800    0.000    4.267 
#    4.800    2.667    5.867    0.000    0.000    0.000 
#    0.000    0.000    0.000    0.000    0.000    0.000 
#
# Total GULP energy -557659.954447 kJ/mol
# GULP energy per Si atom -12392.443432 kJ/mol
# Density = 1.822824 g / cm^3
# Si number density = 18.269824 Si / 1000 Ang^3
#
#
#
# Elastic Constant Matrix: (Units=GPa)
#
#
# Indices 1 2 3 4 5 6 
#
# 1 102.5308 54.5988 46.1056 2.4916 0.0000 0.0000
# 2 54.5988 102.5308 46.1056 -2.4916 0.0000 0.0000
# 3 46.1056 46.1056 114.6785 0.0000 0.0000 0.0000
# 4 2.4916 -2.4916 0.0000 28.9255 0.0000 0.0000
# 5 0.0000 0.0000 0.0000 0.0000 28.9255 2.4916
# 6 0.0000 0.0000 0.0000 0.0000 2.4916 23.9660
#
#
#
# Elastic Compliance Matrix: (Units=1/GPa)
#
#
# Indices 1 2 3 4 5 6 
#
# 1 0.014690 -0.006361 -0.003349 -0.001813 0.000000 0.000000
# 2 -0.006361 0.014690 -0.003349 0.001813 0.000000 0.000000
# 3 -0.003349 -0.003349 0.011413 0.000000 0.000000 0.000000
# 4 -0.001813 0.001813 0.000000 0.034884 0.000000 0.000000
# 5 0.000000 0.000000 0.000000 0.000000 0.034884 -0.003627
# 6 0.000000 0.000000 0.000000 0.000000 -0.003627 0.042103
#
#
# Mechanical properties :
#
#
# Convention : Reuss Voigt Hill
#
# Bulk Modulus (GPa) = 68.13643 68.15112 68.14378
# Shear Modulus (GPa) = 27.22222 27.89207 27.55715
#
# Velocity S-wave (km/s) = 3.86425 3.91151 3.88795
# Velocity P-wave (km/s) = 7.56871 7.60154 7.58514
#
# Compressibility (1/GPa) = 0.01467644
#
# Stress axis : x y z
#
# Youngs Moduli (GPa) = 68.07167 68.07167 87.62144
#
# Poissons Ratio (x) = 0.43300 0.29342
# Poissons Ratio (y) = 0.43300 0.29342
# Poissons Ratio (z) = 0.22796 0.22796
#
# Static dielectric constant tensor:
#      x y z
#    x 3.379880 0.000000 0.000000 
#    y 0.000000 3.379880 0.000000 
#    z 0.000000 0.000000 3.846630 
# 
# 
# High freq. dielectric constant tensor:
#      x y z
#    x 1.697200 0.000000 0.000000 
#    y 0.000000 1.697200 0.000000 
#    z 0.000000 0.000000 1.731270 
# 
# From -- ./inp_files/1881.got.cif
#   From: 2010.03.12/outbox.cif.g09.slc.cpg/sg152_1_cif.got.tgz:1881.got - 2010.04.03 13:45:27.
