data_PCOD8322778
_publ_section_title
;
Structure prediction by ZEFSAII (Michael W. Deem and Ramdas Pophale) SiO2 
 PCOD8322778
Probable space group: P 3 C 1
;
_chemical_formula_sum "Si O2"
_cell_formula_units_Z 34
_cell_length_a 10.677546
_cell_length_b 10.677546
_cell_length_c 14.729579
_cell_angle_alpha 90.000000
_cell_angle_beta 90.000000
_cell_angle_gamma 120.000000
_cell_volume 1454.333031
_symmetry_space_group_name_H-M "P 3 C 1"
_symmetry_group_IT_number 158
_symmetry_cell_setting 'hexagonal'
loop_
_space_group_symop_operation_xyz
x,y,z
-y,x-y,z
-x+y,-x,z
-x+y,y,1/2+z
x,x-y,1/2+z
-y,-x,1/2+z
loop_
_atom_site_type_symbol
_atom_site_label
_atom_site_fract_x
_atom_site_fract_y
_atom_site_fract_z
Si Si1 0.333335 0.666668 0.334166
Si Si2 0.613118 0.455148 0.981360
Si Si3 0.933159 0.374163 0.178232
Si Si4 0.186588 0.833563 0.589466
Si Si5 0.095497 0.372755 0.901447
Si Si6 0.349166 0.288685 0.228677
Si Si7 0.333335 0.666667 0.119485
O O1 0.255399 0.503647 0.370712
O O2 0.333334 0.666667 0.226891
O O3 0.505838 0.284984 0.957105
O O4 0.566871 0.556141 0.929962
O O5 0.606476 0.467914 0.088878
O O6 0.820949 0.230658 0.232533
O O7 0.972687 0.517476 0.237228
O O8 0.073226 0.360654 0.157836
O O9 0.119635 0.826990 0.489076
O O10 0.317177 0.798554 0.579214
O O11 0.252354 0.990550 0.636970
O O12 0.017655 0.264359 0.816631
#
# Coordination Sequence:
#
# PCOD8322778 Si02
#       7
#     2   6   6   6   6   6   2
#     4  12  22  38  58 100 131 178 241 278 352 409
#     4   9  19  38  59  93 138 178 223 280 349 421
#     4  11  22  40  69  98 134 188 229 287 360 408
#     4  11  23  43  65  97 138 187 230 286 357 416
#     4  11  25  36  66 100 137 182 228 293 346 409
#     4  12  24  43  68 103 141 179 241 293 348 432
#     4  12  19  44  67  91 137 178 226 299 346 415
#
# _framework density 23.378415
#
# number of rings (size 3 to 8) (size 9 to 14) (size 15 to 20)
#    0.353    0.706    5.294    1.412    4.941    0.000 
#    1.059    3.529    0.000    0.000    0.000    0.000 
#    1.765    0.000    0.000    0.000    0.000    0.000 
#
# Total GULP energy -421384.526928 kJ/mol
# GULP energy per Si atom -12393.662557 kJ/mol
# Density = 2.332520 g / cm^3
# Si number density = 23.378415 Si / 1000 Ang^3
#
#
#
# Elastic Constant Matrix: (Units=GPa)
#
#
# Indices 1 2 3 4 5 6 
#
# 1 65.4765 4.8794 25.0491 -2.5705 0.0000 0.0000
# 2 4.8794 65.4764 25.0490 2.5702 0.0000 0.0000
# 3 25.0491 25.0490 144.1679 -0.0007 0.0000 0.0000
# 4 -2.5705 2.5702 -0.0007 13.8060 0.0000 0.0000
# 5 0.0000 0.0000 0.0000 0.0000 13.8074 -2.5706
# 6 0.0000 0.0000 0.0000 0.0000 -2.5706 30.2985
#
#
#
# Elastic Compliance Matrix: (Units=1/GPa)
#
#
# Indices 1 2 3 4 5 6 
#
# 1 0.016494 -0.000274 -0.002818 0.003122 0.000000 0.000000
# 2 -0.000274 0.016494 -0.002818 -0.003122 0.000000 0.000000
# 3 -0.002818 -0.002818 0.007916 0.000000 0.000000 0.000000
# 4 0.003122 -0.003122 0.000000 0.073594 0.000000 0.000000
# 5 0.000000 0.000000 0.000000 0.000000 0.073587 0.006243
# 6 0.000000 0.000000 0.000000 0.000000 0.006243 0.033535
#
#
# Mechanical properties :
#
#
# Convention : Reuss Voigt Hill
#
# Bulk Modulus (GPa) = 34.38416 42.78620 38.58518
# Shear Modulus (GPa) = 20.56479 26.25861 23.41170
#
# Velocity S-wave (km/s) = 2.96910 3.35505 3.16796
# Velocity P-wave (km/s) = 5.14720 5.77493 5.47008
#
# Compressibility (1/GPa) = 0.02908316
#
# Stress axis : x y z
#
# Youngs Moduli (GPa) = 60.62907 60.62892 126.33130
#
# Poissons Ratio (x) = 0.01658 0.35603
# Poissons Ratio (y) = 0.01658 0.35604
# Poissons Ratio (z) = 0.17087 0.17087
#
# Static dielectric constant tensor:
#      x y z
#    x 4.003480 0.000000 0.000000 
#    y 0.000000 4.003480 0.000000 
#    z 0.000000 0.000000 4.367990 
# 
# 
# High freq. dielectric constant tensor:
#      x y z
#    x 1.898700 0.000000 0.000000 
#    y 0.000000 1.898700 0.000000 
#    z 0.000000 0.000000 1.933560 
# 
# From -- ./inp_files/493.got.cif
#   From: 2010.03.12/outbox.cif.g09.slc.cpg/sg158_cif.got.tgz:493.got - 2010.04.03 13:59:47.
