data_PCOD8322289
_publ_section_title
;
Structure prediction by ZEFSAII (Michael W. Deem and Ramdas Pophale) SiO2 
 PCOD8322289
Probable space group: P 32 1 2
;
_chemical_formula_sum "Si O2"
_cell_formula_units_Z 30
_cell_length_a 7.809026
_cell_length_b 7.809026
_cell_length_c 25.486434
_cell_angle_alpha 90.000000
_cell_angle_beta 90.000000
_cell_angle_gamma 120.000000
_cell_volume 1345.963998
_symmetry_space_group_name_H-M "P 32 1 2"
_symmetry_group_IT_number 153
_symmetry_cell_setting 'hexagonal'
loop_
_space_group_symop_operation_xyz
x,y,z
-y,x-y,2/3+z
-x+y,-x,1/3+z
-y,-x,1/3-z
-x+y,y,2/3-z
x,x-y,-z
loop_
_atom_site_type_symbol
_atom_site_label
_atom_site_fract_x
_atom_site_fract_y
_atom_site_fract_z
Si Si1 0.973066 0.704702 0.197245
Si Si2 0.639413 0.007778 0.077781
Si Si3 0.579866 0.536752 0.311081
Si Si4 0.869434 0.943426 0.282128
Si Si5 0.370384 0.374822 0.208993
O O1 0.957278 0.848585 0.240541
O O2 0.820679 0.658884 0.150890
O O3 0.928485 0.494311 0.221536
O O4 0.183304 0.816696 0.166667
O O5 0.637484 0.823826 0.103236
O O6 0.878350 0.161018 0.074255
O O7 0.548135 0.950928 0.019508
O O8 0.754233 0.508466 0.333334
O O9 0.653941 0.767866 0.300233
O O10 0.519951 0.418361 0.256809
O O11 0.011728 0.023455 0.333334
O O12 0.451639 0.548362 0.166667
#
# Coordination Sequence:
#
# PCOD8322289 Si02
#       5
#     6   6   6   6   6
#     4  12  25  49  75 111 158 200 260 324 390 465
#     4  12  25  45  77 106 150 212 248 317 405 454
#     4  11  23  47  71 106 153 199 255 325 376 467
#     4  11  22  47  76 103 152 203 254 322 387 460
#     4  12  24  44  71 109 153 197 262 324 377 473
#
# _framework density 22.288861000000001
#
# number of rings (size 3 to 8) (size 9 to 14) (size 15 to 20)
#    0.000    0.400    8.000    2.400    0.000    0.000 
#   10.800    2.000    0.000    1.200    0.000    0.000 
#    0.000    0.000    0.000    0.000    0.000    0.000 
#
# Total GULP energy -371720.049747 kJ/mol
# GULP energy per Si atom -12390.668325 kJ/mol
# Density = 2.223813 g / cm^3
# Si number density = 22.288861 Si / 1000 Ang^3
#
#
#
# Elastic Constant Matrix: (Units=GPa)
#
#
# Indices 1 2 3 4 5 6 
#
# 1 135.6325 67.5695 73.1978 -0.0003 1.0153 0.0000
# 2 67.5695 135.6325 73.1978 0.0003 -1.0153 0.0000
# 3 73.1978 73.1978 166.4333 0.0000 0.0000 0.0000
# 4 -0.0003 0.0003 0.0000 45.2985 0.0000 -1.0153
# 5 1.0153 -1.0153 0.0000 0.0000 45.2985 -0.0003
# 6 0.0000 0.0000 0.0000 -1.0153 -0.0003 34.0315
#
#
#
# Elastic Compliance Matrix: (Units=1/GPa)
#
#
# Indices 1 2 3 4 5 6 
#
# 1 0.010953 -0.003749 -0.003168 0.000000 -0.000330 0.000000
# 2 -0.003749 0.010953 -0.003168 0.000000 0.000330 0.000000
# 3 -0.003168 -0.003168 0.008795 0.000000 0.000000 0.000000
# 4 0.000000 0.000000 0.000000 0.022091 0.000000 0.000659
# 5 -0.000330 0.000330 0.000000 0.000000 0.022091 0.000000
# 6 0.000000 0.000000 0.000000 0.000659 0.000000 0.029404
#
#
# Mechanical properties :
#
#
# Convention : Reuss Voigt Hill
#
# Bulk Modulus (GPa) = 94.96869 96.18092 95.57481
# Shear Modulus (GPa) = 39.07242 39.84125 39.45684
#
# Velocity S-wave (km/s) = 4.19143 4.23247 4.21200
# Velocity P-wave (km/s) = 8.13171 8.19333 8.16258
#
# Compressibility (1/GPa) = 0.01052979
#
# Stress axis : x y z
#
# Youngs Moduli (GPa) = 91.29984 91.29984 113.69838
#
# Poissons Ratio (x) = 0.34230 0.36022
# Poissons Ratio (y) = 0.34230 0.36022
# Poissons Ratio (z) = 0.28926 0.28926
#
# Static dielectric constant tensor:
#      x y z
#    x 4.458830 0.000000 0.000000 
#    y 0.000000 4.458830 0.000000 
#    z 0.000000 0.000000 5.085480 
# 
# 
# High freq. dielectric constant tensor:
#      x y z
#    x 1.867740 0.000000 0.000000 
#    y 0.000000 1.867740 0.000000 
#    z 0.000000 0.000000 1.908230 
# 
# From -- ./inp_files/4254.got.cif
#   From: 2010.03.12/outbox.cif.g09.slc.cpg/sg153_3_cif.got.tgz:4254.got - 2010.04.03 13:48:33.
