data_PCOD8322065
_publ_section_title
;
Structure prediction by ZEFSAII (Michael W. Deem and Ramdas Pophale) SiO2 
 PCOD8322065
Probable space group: P 31 2 1
;
_chemical_formula_sum "Si O2"
_cell_formula_units_Z 36
_cell_length_a 8.848151
_cell_length_b 8.848151
_cell_length_c 25.787898
_cell_angle_alpha 90.000000
_cell_angle_beta 90.000000
_cell_angle_gamma 120.000000
_cell_volume 1748.443595
_symmetry_space_group_name_H-M "P 31 2 1"
_symmetry_group_IT_number 152
_symmetry_cell_setting 'hexagonal'
loop_
_space_group_symop_operation_xyz
x,y,z
-y,x-y,1/3+z
-x+y,-x,2/3+z
x-y,-y,2/3-z
-x,-x+y,1/3-z
y,x,-z
loop_
_atom_site_type_symbol
_atom_site_label
_atom_site_fract_x
_atom_site_fract_y
_atom_site_fract_z
Si Si1 0.889495 0.850851 0.590575
Si Si2 0.901496 0.599316 0.440302
Si Si3 0.078853 0.608056 0.778187
Si Si4 0.017725 0.250482 0.369843
Si Si5 0.584338 0.362803 0.280000
Si Si6 0.668497 0.264287 0.386631
O O1 0.775613 0.891622 0.549887
O O2 0.879422 0.672161 0.576769
O O3 0.791859 0.833046 0.644667
O O4 0.093809 0.002193 0.593268
O O5 0.957228 0.548446 0.493885
O O6 0.717663 0.435187 0.421449
O O7 0.042704 0.637350 0.395648
O O8 0.253358 0.600858 0.766934
O O9 0.911106 0.447563 0.750985
O O10 0.840530 0.256761 0.372900
O O11 0.182035 0.436196 0.386793
O O12 0.572106 0.269690 0.334571
#
# Coordination Sequence:
#
# PCOD8322065 Si02
#       6
#     6   6   6   6   6   6
#     4  10  19  38  61  86 119 157 203 251 314 372
#     4  11  23  38  60  94 126 155 204 267 317 365
#     4  11  22  39  63  87 124 169 203 247 323 387
#     4   9  19  36  61  88 114 155 206 254 300 366
#     4  11  21  38  62  91 120 160 210 260 303 370
#     4  10  20  39  61  85 120 164 207 249 304 381
#
# _framework density 20.589739000000002
#
# number of rings (size 3 to 8) (size 9 to 14) (size 15 to 20)
#    0.000    1.667    3.333    2.000    0.000    0.000 
#    6.000    0.000    0.000    6.000    0.000    0.000 
#    0.000    0.000    0.000    0.000    0.000    0.000 
#
# Total GULP energy -446328.593401 kJ/mol
# GULP energy per Si atom -12398.016483 kJ/mol
# Density = 2.054288 g / cm^3
# Si number density = 20.589739 Si / 1000 Ang^3
#
#
#
# Elastic Constant Matrix: (Units=GPa)
#
#
# Indices 1 2 3 4 5 6 
#
# 1 98.8066 38.2367 27.7968 0.5735 0.0000 0.0000
# 2 38.2367 98.8066 27.7968 -0.5735 0.0000 0.0000
# 3 27.7968 27.7968 68.4150 0.0000 0.0000 0.0000
# 4 0.5735 -0.5735 0.0000 25.3546 0.0000 0.0000
# 5 0.0000 0.0000 0.0000 0.0000 25.3546 0.5735
# 6 0.0000 0.0000 0.0000 0.0000 0.5735 30.2849
#
#
#
# Elastic Compliance Matrix: (Units=1/GPa)
#
#
# Indices 1 2 3 4 5 6 
#
# 1 0.012627 -0.003890 -0.003550 -0.000374 0.000000 0.000000
# 2 -0.003890 0.012627 -0.003550 0.000374 0.000000 0.000000
# 3 -0.003550 -0.003550 0.017501 0.000000 0.000000 0.000000
# 4 -0.000374 0.000374 0.000000 0.039458 0.000000 0.000000
# 5 0.000000 0.000000 0.000000 0.000000 0.039458 -0.000747
# 6 0.000000 0.000000 0.000000 0.000000 -0.000747 0.033034
#
#
# Mechanical properties :
#
#
# Convention : Reuss Voigt Hill
#
# Bulk Modulus (GPa) = 48.13252 50.40987 49.27120
# Shear Modulus (GPa) = 27.23184 27.67868 27.45526
#
# Velocity S-wave (km/s) = 3.64069 3.67044 3.65560
# Velocity P-wave (km/s) = 6.41097 6.51913 6.46527
#
# Compressibility (1/GPa) = 0.02077597
#
# Stress axis : x y z
#
# Youngs Moduli (GPa) = 79.19563 79.19563 57.13890
#
# Poissons Ratio (x) = 0.30807 0.20283
# Poissons Ratio (y) = 0.30807 0.20283
# Poissons Ratio (z) = 0.28113 0.28113
#
# Static dielectric constant tensor:
#      x y z
#    x 3.800120 0.000000 0.000000 
#    y 0.000000 3.800120 0.000000 
#    z 0.000000 0.000000 3.665660 
# 
# 
# High freq. dielectric constant tensor:
#      x y z
#    x 1.797890 0.000000 0.000000 
#    y 0.000000 1.797890 0.000000 
#    z 0.000000 0.000000 1.798760 
# 
# From -- ./inp_files/3362.got.cif
#   From: 2010.03.12/outbox.cif.g09.slc.cpg/sg152_2_cif.got.tgz:3362.got - 2010.04.03 13:45:27.
