data_PCOD8322588
_publ_section_title
;
Structure prediction by ZEFSAII (Michael W. Deem and Ramdas Pophale) SiO2 
 PCOD8322588
Probable space group: R 3 2
;
_chemical_formula_sum "Si O2"
_cell_formula_units_Z 45
_cell_length_a 15.440951
_cell_length_b 15.440951
_cell_length_c 8.417870
_cell_angle_alpha 90.000000
_cell_angle_beta 90.000000
_cell_angle_gamma 120.000000
_cell_volume 1738.124718
_symmetry_space_group_name_H-M "R 3 2"
_symmetry_group_IT_number 155
_symmetry_cell_setting 'hexagonal'
loop_
_space_group_symop_operation_xyz
x,y,z
-y,x-y,z
-x+y,-x,z
x-y,-y,-z
-x,-x+y,-z
y,x,-z
2/3+x,1/3+y,1/3+z
2/3-y,1/3+x-y,1/3+z
2/3-x+y,1/3-x,1/3+z
2/3+x-y,1/3-y,1/3-z
2/3-x,1/3-x+y,1/3-z
2/3+y,1/3+x,1/3-z
1/3+x,2/3+y,2/3+z
1/3-y,2/3+x-y,2/3+z
1/3-x+y,2/3-x,2/3+z
1/3+x-y,2/3-y,2/3-z
1/3-x,2/3-x+y,2/3-z
1/3+y,2/3+x,2/3-z
loop_
_atom_site_type_symbol
_atom_site_label
_atom_site_fract_x
_atom_site_fract_y
_atom_site_fract_z
Si Si1 0.333334 0.524251 0.166667
Si Si2 0.875780 0.932283 0.172812
Si Si3 0.867622 0.650800 0.341595
O O1 0.273683 0.549213 0.301394
O O2 0.247278 0.423148 0.090729
O O3 0.762989 0.869999 0.113025
O O4 0.946418 0.884834 0.117651
O O5 0.950679 0.617345 0.333334
O O6 0.835600 0.666667 0.166667
#
# Coordination Sequence:
#
# PCOD8322588 Si02
#       3
#     9  18  18
#     4  12  20  42  72 108 138 192 258 302 348 452
#     4  10  24  43  67 110 152 183 235 312 378 433
#     4  12  22  40  66 104 140 191 247 302 349 437
#
# _framework density 25.889973999999999
#
# number of rings (size 3 to 8) (size 9 to 14) (size 15 to 20)
#    0.800    0.000    6.000    2.400    0.000    1.600 
#    0.000    0.000    0.000    0.000   72.800    0.000 
#    0.000    0.000    0.000    0.000    0.000    0.000 
#
# Total GULP energy -185886.481035 kJ/mol
# GULP energy per Si atom -12392.432069 kJ/mol
# Density = 2.583105 g / cm^3
# Si number density = 25.889974 Si / 1000 Ang^3
#
#
#
# Elastic Constant Matrix: (Units=GPa)
#
#
# Indices 1 2 3 4 5 6 
#
# 1 76.3191 10.6707 43.4907 8.8683 0.0000 0.0000
# 2 10.6707 76.3191 43.4907 -8.8683 0.0000 0.0000
# 3 43.4907 43.4907 151.8055 0.0001 0.0000 0.0000
# 4 8.8683 -8.8683 0.0001 48.0346 0.0000 0.0000
# 5 0.0000 0.0000 0.0000 0.0000 48.0345 8.8683
# 6 0.0000 0.0000 0.0000 0.0000 8.8683 32.8242
#
#
#
# Elastic Compliance Matrix: (Units=1/GPa)
#
#
# Indices 1 2 3 4 5 6 
#
# 1 0.016072 0.000039 -0.004616 -0.002960 0.000000 0.000000
# 2 0.000039 0.016072 -0.004616 0.002960 0.000000 0.000000
# 3 -0.004616 -0.004616 0.009232 0.000000 0.000000 0.000000
# 4 -0.002960 0.002960 0.000000 0.021911 0.000000 0.000000
# 5 0.000000 0.000000 0.000000 0.000000 0.021911 -0.005920
# 6 0.000000 0.000000 0.000000 0.000000 -0.005920 0.032065
#
#
# Mechanical properties :
#
#
# Convention : Reuss Voigt Hill
#
# Bulk Modulus (GPa) = 43.49486 55.52752 49.51119
# Shear Modulus (GPa) = 34.88939 39.56476 37.22708
#
# Velocity S-wave (km/s) = 3.67495 3.91345 3.79607
# Velocity P-wave (km/s) = 5.90283 6.47411 6.19506
#
# Compressibility (1/GPa) = 0.02299122
#
# Stress axis : x y z
#
# Youngs Moduli (GPa) = 62.22177 62.22178 108.31891
#
# Poissons Ratio (x) = -0.00244 0.49995
# Poissons Ratio (y) = -0.00244 0.49995
# Poissons Ratio (z) = 0.28719 0.28719
#
# Static dielectric constant tensor:
#      x y z
#    x 4.377560 0.000000 0.000000 
#    y 0.000000 4.377560 0.000000 
#    z 0.000000 0.000000 5.711480 
# 
# 
# High freq. dielectric constant tensor:
#      x y z
#    x 2.007170 0.000000 0.000000 
#    y 0.000000 2.007170 0.000000 
#    z 0.000000 0.000000 2.101180 
# 
# From -- ./inp_files/1543.got.cif
#   From: 2010.03.12/outbox.cif.g09.slc.cpg/sg155_1_cif.got.tgz:1543.got - 2010.04.03 13:54:13.
