data_PCOD8322419
_publ_section_title
;
Structure prediction by ZEFSAII (Michael W. Deem and Ramdas Pophale) SiO2 
 PCOD8322419
Probable space group: P 32 2 1
;
_chemical_formula_sum "Si O2"
_cell_formula_units_Z 27
_cell_length_a 10.888190
_cell_length_b 10.888190
_cell_length_c 12.080428
_cell_angle_alpha 90.000000
_cell_angle_beta 90.000000
_cell_angle_gamma 120.000000
_cell_volume 1240.293119
_symmetry_space_group_name_H-M "P 32 2 1"
_symmetry_group_IT_number 154
_symmetry_cell_setting 'hexagonal'
loop_
_space_group_symop_operation_xyz
x,y,z
-y,x-y,2/3+z
-x+y,-x,1/3+z
x-y,-y,1/3-z
-x,-x+y,2/3-z
y,x,-z
loop_
_atom_site_type_symbol
_atom_site_label
_atom_site_fract_x
_atom_site_fract_y
_atom_site_fract_z
Si Si1 0.241623 0.973916 0.385069
Si Si2 0.444827 0.918491 0.838206
Si Si3 0.201350 0.201350 0.500000
Si Si4 0.497986 0.819484 0.071932
Si Si5 0.393908 0.000000 0.166667
Si Si6 0.664252 0.000000 0.666667
O O1 0.318317 0.027669 0.268543
O O2 0.130970 0.811734 0.367713
O O3 0.358410 0.988580 0.473581
O O4 0.168274 0.064550 0.424636
O O5 0.346796 0.787510 0.756339
O O6 0.591361 0.023593 0.775337
O O7 0.466785 0.853784 0.950241
O O8 0.238269 0.332242 0.419498
O O9 0.420223 0.865292 0.165791
#
# Coordination Sequence:
#
# PCOD8322419 Si02
#       6
#     6   6   3   6   3   3
#     4  10  24  44  66  98 133 178 222 273 325 401
#     4  10  24  43  67 100 131 173 219 277 342 386
#     4   9  20  45  66  94 140 185 219 262 338 390
#     4   9  20  41  69  97 135 172 215 277 337 406
#     4   9  20  39  70 100 126 171 227 268 334 394
#     4  12  28  40  66  98 128 176 226 278 320 396
#
# _framework density 21.76905
#
# number of rings (size 3 to 8) (size 9 to 14) (size 15 to 20)
#    0.000    2.222    0.000    0.000    9.333    0.889 
#    0.000    0.000    0.000    0.000    0.000    0.000 
#    0.000    0.000    0.000    0.000    0.000    0.000 
#
# Total GULP energy -334579.542174 kJ/mol
# GULP energy per Si atom -12391.834895 kJ/mol
# Density = 2.171950 g / cm^3
# Si number density = 21.769050 Si / 1000 Ang^3
#
#
#
# Elastic Constant Matrix: (Units=GPa)
#
#
# Indices 1 2 3 4 5 6 
#
# 1 120.3735 68.6079 58.1516 -4.5301 -0.0001 0.0000
# 2 68.6079 120.3735 58.1516 4.5301 0.0001 0.0000
# 3 58.1516 58.1516 109.7920 0.0000 0.0000 0.0000
# 4 -4.5301 4.5301 0.0000 31.2237 0.0000 0.0001
# 5 -0.0001 0.0001 0.0000 0.0000 31.2237 -4.5301
# 6 0.0000 0.0000 0.0000 0.0001 -4.5301 25.8828
#
#
#
# Elastic Compliance Matrix: (Units=1/GPa)
#
#
# Indices 1 2 3 4 5 6 
#
# 1 0.013836 -0.005985 -0.004158 0.002876 0.000000 0.000000
# 2 -0.005985 0.013836 -0.004158 -0.002876 0.000000 0.000000
# 3 -0.004158 -0.004158 0.013513 0.000000 0.000000 0.000000
# 4 0.002876 -0.002876 0.000000 0.032861 0.000000 0.000000
# 5 0.000000 0.000000 0.000000 0.000000 0.032861 0.005751
# 6 0.000000 0.000000 0.000000 0.000000 0.005751 0.039642
#
#
# Mechanical properties :
#
#
# Convention : Reuss Voigt Hill
#
# Bulk Modulus (GPa) = 79.48118 80.04014 79.76066
# Shear Modulus (GPa) = 27.87906 28.70791 28.29349
#
# Velocity S-wave (km/s) = 3.58253 3.63540 3.60906
# Velocity P-wave (km/s) = 7.32824 7.38032 7.35433
#
# Compressibility (1/GPa) = 0.01258160
#
# Stress axis : x y z
#
# Youngs Moduli (GPa) = 72.27626 72.27626 74.00427
#
# Poissons Ratio (x) = 0.43260 0.30771
# Poissons Ratio (y) = 0.43260 0.30771
# Poissons Ratio (z) = 0.30053 0.30053
#
# Static dielectric constant tensor:
#      x y z
#    x 4.061940 0.000000 0.000000 
#    y 0.000000 4.061940 0.000000 
#    z 0.000000 0.000000 4.097050 
# 
# 
# High freq. dielectric constant tensor:
#      x y z
#    x 1.855300 0.000000 0.000000 
#    y 0.000000 1.855300 0.000000 
#    z 0.000000 0.000000 1.851840 
# 
# From -- ./inp_files/1632.got.cif
#   From: 2010.03.12/outbox.cif.g09.slc.cpg/sg154_1_cif.got.tgz:1632.got - 2010.04.03 13:51:21.
