data_PCOD8322254
_publ_section_title
;
Structure prediction by ZEFSAII (Michael W. Deem and Ramdas Pophale) SiO2 
 PCOD8322254
Probable space group: P 32 1 2
;
_chemical_formula_sum "Si O2"
_cell_formula_units_Z 33
_cell_length_a 15.370964
_cell_length_b 15.370964
_cell_length_c 10.046160
_cell_angle_alpha 90.000000
_cell_angle_beta 90.000000
_cell_angle_gamma 120.000000
_cell_volume 2055.573135
_symmetry_space_group_name_H-M "P 32 1 2"
_symmetry_group_IT_number 153
_symmetry_cell_setting 'hexagonal'
loop_
_space_group_symop_operation_xyz
x,y,z
-y,x-y,2/3+z
-x+y,-x,1/3+z
-y,-x,1/3-z
-x+y,y,2/3-z
x,x-y,-z
loop_
_atom_site_type_symbol
_atom_site_label
_atom_site_fract_x
_atom_site_fract_y
_atom_site_fract_z
Si Si1 0.465391 0.613647 0.304142
Si Si2 0.215861 0.909628 0.361826
Si Si3 0.291974 0.967446 0.082659
Si Si4 0.481702 0.660399 0.775774
Si Si5 0.871895 0.929350 0.152391
Si Si6 0.884218 0.115783 0.666667
O O1 0.446913 0.553088 0.166667
O O2 0.565985 0.620816 0.368134
O O3 0.376049 0.558908 0.410191
O O4 0.466194 0.715701 0.273379
O O5 0.285100 0.974495 0.240704
O O6 0.125060 0.806604 0.309591
O O7 0.292909 0.894636 0.454503
O O8 0.161819 0.961467 0.437788
O O9 0.305818 0.073918 0.037279
O O10 0.428946 0.571055 0.666667
O O11 0.878627 0.834904 0.211391
O O12 0.835773 0.917887 0.000000
O O13 0.984024 0.015977 0.166667
#
# Coordination Sequence:
#
# PCOD8322254 Si02
#       6
#     6   6   6   6   6   3
#     4  11  21  31  48  70  99 129 170 203 242 289
#     4   9  19  31  47  65  96 125 165 200 239 284
#     4   9  18  33  47  68  94 130 161 203 240 289
#     4  11  19  32  47  67  95 136 165 198 238 287
#     4  11  20  31  48  70  94 130 166 201 242 291
#     4  10  20  32  52  68  98 128 168 196 244 292
#
# _framework density 16.053917999999999
#
# number of rings (size 3 to 8) (size 9 to 14) (size 15 to 20)
#    0.000    1.818    2.727    3.273    2.545    4.364 
#    0.000    0.000    0.000    0.000    0.000    0.000 
#    0.000    4.364    0.000    0.000    0.000    0.000 
#
# Total GULP energy -408825.424310 kJ/mol
# GULP energy per Si atom -12388.649222 kJ/mol
# Density = 1.601738 g / cm^3
# Si number density = 16.053918 Si / 1000 Ang^3
#
#
#
# Elastic Constant Matrix: (Units=GPa)
#
#
# Indices 1 2 3 4 5 6 
#
# 1 59.8151 25.8428 18.8125 0.0008 -5.6751 0.0000
# 2 25.8428 59.8151 18.8125 -0.0008 5.6751 0.0000
# 3 18.8125 18.8125 101.0068 0.0000 0.0000 0.0000
# 4 0.0008 -0.0008 0.0000 10.6078 0.0000 5.6751
# 5 -5.6751 5.6751 0.0000 0.0000 10.6078 0.0008
# 6 0.0000 0.0000 0.0000 5.6751 0.0008 16.9861
#
#
#
# Elastic Compliance Matrix: (Units=1/GPa)
#
#
# Indices 1 2 3 4 5 6 
#
# 1 0.024278 -0.011564 -0.002368 -0.000003 0.019175 0.000000
# 2 -0.011564 0.024278 -0.002368 0.000003 -0.019175 0.000000
# 3 -0.002368 -0.002368 0.010782 0.000000 0.000000 0.000000
# 4 -0.000003 0.000003 0.000000 0.114787 0.000000 -0.038350
# 5 0.019175 -0.019175 0.000000 0.000000 0.114787 -0.000005
# 6 0.000000 0.000000 0.000000 -0.038350 -0.000005 0.071684
#
#
# Mechanical properties :
#
#
# Convention : Reuss Voigt Hill
#
# Bulk Modulus (GPa) = 37.39835 38.61920 38.00877
# Shear Modulus (GPa) = 12.43437 18.11829 15.27633
#
# Velocity S-wave (km/s) = 2.78607 3.36309 3.08809
# Velocity P-wave (km/s) = 5.80479 6.26009 6.03673
#
# Compressibility (1/GPa) = 0.02673915
#
# Stress axis : x y z
#
# Youngs Moduli (GPa) = 41.18891 41.18891 92.74348
#
# Poissons Ratio (x) = 0.47630 0.21962
# Poissons Ratio (y) = 0.47630 0.21962
# Poissons Ratio (z) = 0.09754 0.09754
#
# Static dielectric constant tensor:
#      x y z
#    x 3.077860 0.000000 0.000000 
#    y 0.000000 3.077860 0.000000 
#    z 0.000000 0.000000 3.514580 
# 
# 
# High freq. dielectric constant tensor:
#      x y z
#    x 1.588280 0.000000 0.000000 
#    y 0.000000 1.588280 0.000000 
#    z 0.000000 0.000000 1.631310 
# 
# From -- ./inp_files/1682.got.cif
#   From: 2010.03.12/outbox.cif.g09.slc.cpg/sg153_1_cif.got.tgz:1682.got - 2010.04.03 13:48:33.
