data_PCOD8322267
_publ_section_title
;
Structure prediction by ZEFSAII (Michael W. Deem and Ramdas Pophale) SiO2 
 PCOD8322267
Probable space group: P 32 1 2
;
_chemical_formula_sum "Si O2"
_cell_formula_units_Z 36
_cell_length_a 8.756568
_cell_length_b 8.756568
_cell_length_c 25.230006
_cell_angle_alpha 90.000000
_cell_angle_beta 90.000000
_cell_angle_gamma 120.000000
_cell_volume 1675.389675
_symmetry_space_group_name_H-M "P 32 1 2"
_symmetry_group_IT_number 153
_symmetry_cell_setting 'hexagonal'
loop_
_space_group_symop_operation_xyz
x,y,z
-y,x-y,2/3+z
-x+y,-x,1/3+z
-y,-x,1/3-z
-x+y,y,2/3-z
x,x-y,-z
loop_
_atom_site_type_symbol
_atom_site_label
_atom_site_fract_x
_atom_site_fract_y
_atom_site_fract_z
Si Si1 0.752989 0.198790 0.609622
Si Si2 0.177116 0.088558 0.500000
Si Si3 0.811631 0.905816 0.000000
Si Si4 0.440642 0.683030 0.557909
Si Si5 0.196302 0.313807 0.089044
Si Si6 0.012205 0.387391 0.247385
Si Si7 0.741296 0.841125 0.635184
O O1 0.731407 0.268594 0.666667
O O2 0.939429 0.330600 0.580417
O O3 0.576276 0.152783 0.578268
O O4 0.763526 0.024371 0.617886
O O5 0.070390 0.137707 0.542929
O O6 0.293296 0.271969 0.470588
O O7 0.701608 0.975412 0.032131
O O8 0.927280 0.859577 0.040378
O O9 0.523319 0.761660 0.500000
O O10 0.277013 0.486353 0.550833
O O11 0.365813 0.801108 0.581791
O O12 0.591368 0.689653 0.597473
O O13 0.115266 0.305075 0.030879
#
# Coordination Sequence:
#
# PCOD8322267 Si02
#       7
#     6   3   3   6   6   6   6
#     4   9  20  42  66  91 127 173 221 271 331 402
#     4  12  22  44  62  94 144 164 218 292 324 410
#     4  12  22  44  68 100 130 174 234 276 352 396
#     4  11  24  43  65  98 131 177 228 275 337 410
#     4  11  21  43  68  94 133 176 219 275 342 406
#     4  11  25  42  64  99 132 168 222 286 333 405
#     4  10  20  42  68  93 124 177 229 262 327 416
#
# _framework density 21.487535999999999
#
# number of rings (size 3 to 8) (size 9 to 14) (size 15 to 20)
#    0.000    1.333    5.833    0.500    7.000    0.000 
#   18.000    0.000    0.000    0.000    0.000    0.000 
#    0.000    0.000    0.000    0.000    0.000    0.000 
#
# Total GULP energy -446065.953847 kJ/mol
# GULP energy per Si atom -12390.720940 kJ/mol
# Density = 2.143863 g / cm^3
# Si number density = 21.487536 Si / 1000 Ang^3
#
#
#
# Elastic Constant Matrix: (Units=GPa)
#
#
# Indices 1 2 3 4 5 6 
#
# 1 83.7970 26.6527 29.9869 0.0001 2.7363 0.0000
# 2 26.6527 83.7970 29.9869 -0.0001 -2.7363 0.0000
# 3 29.9869 29.9869 111.4420 0.0000 0.0000 0.0000
# 4 0.0001 -0.0001 0.0000 26.8763 0.0000 -2.7363
# 5 2.7363 -2.7363 0.0000 0.0000 26.8763 0.0001
# 6 0.0000 0.0000 0.0000 -2.7363 0.0001 28.5722
#
#
#
# Elastic Compliance Matrix: (Units=1/GPa)
#
#
# Indices 1 2 3 4 5 6 
#
# 1 0.014137 -0.003534 -0.002853 0.000000 -0.001799 0.000000
# 2 -0.003534 0.014137 -0.002853 0.000000 0.001799 0.000000
# 3 -0.002853 -0.002853 0.010509 0.000000 0.000000 0.000000
# 4 0.000000 0.000000 0.000000 0.037574 0.000000 0.003598
# 5 -0.001799 0.001799 0.000000 0.000000 0.037574 0.000000
# 6 0.000000 0.000000 0.000000 0.003598 0.000000 0.035344
#
#
# Mechanical properties :
#
#
# Convention : Reuss Voigt Hill
#
# Bulk Modulus (GPa) = 49.25487 50.25433 49.75460
# Shear Modulus (GPa) = 28.64940 29.29226 28.97083
#
# Velocity S-wave (km/s) = 3.65540 3.69619 3.67585
# Velocity P-wave (km/s) = 6.38657 6.45400 6.42038
#
# Compressibility (1/GPa) = 0.02030256
#
# Stress axis : x y z
#
# Youngs Moduli (GPa) = 70.73388 70.73388 95.15921
#
# Poissons Ratio (x) = 0.25000 0.27150
# Poissons Ratio (y) = 0.25000 0.27150
# Poissons Ratio (z) = 0.20181 0.20181
#
# Static dielectric constant tensor:
#      x y z
#    x 4.080180 0.000000 0.000000 
#    y 0.000000 4.080180 0.000000 
#    z 0.000000 0.000000 4.195080 
# 
# 
# High freq. dielectric constant tensor:
#      x y z
#    x 1.831880 0.000000 0.000000 
#    y 0.000000 1.831880 0.000000 
#    z 0.000000 0.000000 1.845120 
# 
# From -- ./inp_files/4798.got.cif
#   From: 2010.03.12/outbox.cif.g09.slc.cpg/sg153_3_cif.got.tgz:4798.got - 2010.04.03 13:48:33.
