data_PCOD8322641
_publ_section_title
;
Structure prediction by ZEFSAII (Michael W. Deem and Ramdas Pophale) SiO2 
 PCOD8322641
Probable space group: P 3 M 1
;
_chemical_formula_sum "Si O2"
_cell_formula_units_Z 48
_cell_length_a 17.778474
_cell_length_b 17.778474
_cell_length_c 12.015143
_cell_angle_alpha 90.000000
_cell_angle_beta 90.000000
_cell_angle_gamma 120.000000
_cell_volume 3288.883860
_symmetry_space_group_name_H-M "P 3 M 1"
_symmetry_group_IT_number 156
_symmetry_cell_setting 'hexagonal'
loop_
_space_group_symop_operation_xyz
x,y,z
-y,x-y,z
-x+y,-x,z
-x+y,y,z
x,x-y,z
-y,-x,z
loop_
_atom_site_type_symbol
_atom_site_label
_atom_site_fract_x
_atom_site_fract_y
_atom_site_fract_z
Si Si1 0.509747 0.667213 0.320850
Si Si2 0.999438 0.169562 0.301871
Si Si3 0.106419 0.718655 0.544441
Si Si4 0.157470 0.490255 0.768037
Si Si5 0.664737 0.742996 0.919627
Si Si6 0.966063 0.200716 0.544445
Si Si7 0.170124 0.000563 0.787016
Si Si8 0.664735 0.742995 0.169255
O O1 0.486904 0.743452 0.309671
O O2 0.422850 0.577151 0.308052
O O3 0.553789 0.672112 0.438438
O O4 0.574453 0.671835 0.223926
O O5 0.076919 0.153837 0.264064
O O6 0.008292 0.255508 0.243851
O O7 0.001563 0.176965 0.435155
O O8 0.910183 0.089818 0.257949
O O9 0.177764 0.822237 0.544430
O O10 0.118341 0.672126 0.650445
O O11 0.007973 0.702720 0.544451
O O12 0.256554 0.513107 0.779232
O O13 0.154293 0.577147 0.780829
O O14 0.097381 0.425545 0.864953
O O15 0.668009 0.834005 0.920005
O O16 0.744492 0.752782 0.845031
O O17 0.670948 0.713303 0.044441
O O18 0.858965 0.141036 0.544442
O O19 0.001558 0.176957 0.653731
O O20 0.179633 0.089817 0.830943
O O21 0.076921 0.923080 0.824828
O O22 0.668007 0.834004 0.168876
#
# Coordination Sequence:
#
# PCOD8322641 Si02
#       8
#     6   6   6   6   6   6   6   6
#     4  10  19  30  46  65  86 112 146 186 224 262
#     4  10  18  28  43  63  87 115 149 185 217 252
#     4  10  17  29  46  64  89 118 142 173 223 267
#     4  10  19  30  46  65  86 112 146 186 224 262
#     4   9  18  31  44  58  81 115 149 180 220 263
#     4  10  18  27  44  66  87 114 146 177 211 255
#     4  10  18  28  43  63  87 115 149 185 217 252
#     4   9  18  31  44  58  81 115 149 180 220 263
#
# _framework density 14.594617
#
# number of rings (size 3 to 8) (size 9 to 14) (size 15 to 20)
#    0.000    2.250    2.500    2.000    0.000    1.000 
#    0.000    2.500    0.000    3.250    0.000    0.000 
#    0.000    0.000    0.000   10.500    0.000    6.500 
#
# Total GULP energy -594989.265911 kJ/mol
# GULP energy per Si atom -12395.609706 kJ/mol
# Density = 1.456140 g / cm^3
# Si number density = 14.594617 Si / 1000 Ang^3
#
#
#
# Elastic Constant Matrix: (Units=GPa)
#
#
# Indices 1 2 3 4 5 6 
#
# 1 97.8378 50.1261 40.2028 -0.0008 0.0002 0.0000
# 2 50.1261 97.8378 40.2028 0.0008 -0.0002 0.0000
# 3 40.2028 40.2028 103.7304 0.0000 0.0000 0.0000
# 4 -0.0008 0.0008 0.0000 9.9075 0.0000 -0.0002
# 5 0.0002 -0.0002 0.0000 0.0000 9.9075 -0.0008
# 6 0.0000 0.0000 0.0000 -0.0002 -0.0008 23.8559
#
#
#
# Elastic Compliance Matrix: (Units=1/GPa)
#
#
# Indices 1 2 3 4 5 6 
#
# 1 0.014760 -0.006199 -0.003318 0.000002 0.000000 0.000000
# 2 -0.006199 0.014760 -0.003318 -0.000002 0.000000 0.000000
# 3 -0.003318 -0.003318 0.012212 0.000000 0.000000 0.000000
# 4 0.000002 -0.000002 0.000000 0.100934 0.000000 0.000001
# 5 0.000000 0.000000 0.000000 0.000000 0.100934 0.000004
# 6 0.000000 0.000000 0.000000 0.000001 0.000004 0.041918
#
#
# Mechanical properties :
#
#
# Convention : Reuss Voigt Hill
#
# Bulk Modulus (GPa) = 62.25583 62.27439 62.26511
# Shear Modulus (GPa) = 15.79560 19.99245 17.89403
#
# Velocity S-wave (km/s) = 3.29339 3.70517 3.50533
# Velocity P-wave (km/s) = 7.56381 7.81450 7.69017
#
# Compressibility (1/GPa) = 0.01606275
#
# Stress axis : x y z
#
# Youngs Moduli (GPa) = 67.74889 67.74889 81.88364
#
# Poissons Ratio (x) = 0.41996 0.27171
# Poissons Ratio (y) = 0.41996 0.27171
# Poissons Ratio (z) = 0.22480 0.22480
#
# Static dielectric constant tensor:
#      x y z
#    x 2.697470 0.000000 0.000000 
#    y 0.000000 2.697470 0.000000 
#    z 0.000000 0.000000 3.065310 
# 
# 
# High freq. dielectric constant tensor:
#      x y z
#    x 1.530430 0.000000 0.000000 
#    y 0.000000 1.530430 0.000000 
#    z 0.000000 0.000000 1.571990 
# 
# From -- ./inp_files/719.got.cif
#   From: 2010.03.12/outbox.cif.g09.slc.cpg/sg156_cif.got.tgz:719.got - 2010.04.03 13:58:47.
