data_PCOD8322606
_publ_section_title
;
Structure prediction by ZEFSAII (Michael W. Deem and Ramdas Pophale) SiO2 
 PCOD8322606
Probable space group: R 3 2
;
_chemical_formula_sum "Si O2"
_cell_formula_units_Z 72
_cell_length_a 21.030298
_cell_length_b 21.030298
_cell_length_c 9.855362
_cell_angle_alpha 90.000000
_cell_angle_beta 90.000000
_cell_angle_gamma 120.000000
_cell_volume 3774.801041
_symmetry_space_group_name_H-M "R 3 2"
_symmetry_group_IT_number 155
_symmetry_cell_setting 'hexagonal'
loop_
_space_group_symop_operation_xyz
x,y,z
-y,x-y,z
-x+y,-x,z
x-y,-y,-z
-x,-x+y,-z
y,x,-z
2/3+x,1/3+y,1/3+z
2/3-y,1/3+x-y,1/3+z
2/3-x+y,1/3-x,1/3+z
2/3+x-y,1/3-y,1/3-z
2/3-x,1/3-x+y,1/3-z
2/3+y,1/3+x,1/3-z
1/3+x,2/3+y,2/3+z
1/3-y,2/3+x-y,2/3+z
1/3-x+y,2/3-x,2/3+z
1/3+x-y,2/3-y,2/3-z
1/3-x,2/3-x+y,2/3-z
1/3+y,2/3+x,2/3-z
loop_
_atom_site_type_symbol
_atom_site_label
_atom_site_fract_x
_atom_site_fract_y
_atom_site_fract_z
Si Si1 0.950349 0.199785 0.628839
Si Si2 0.383346 0.251346 0.289496
Si Si3 0.716679 0.918013 0.456162
Si Si4 0.800216 0.750565 0.128839
O O1 0.919629 0.252962 0.666667
O O2 0.882325 0.118938 0.596707
O O3 0.000000 0.233398 0.500000
O O4 0.000000 0.195878 0.750000
O O5 0.333334 0.253247 0.166667
O O6 0.440421 0.333334 0.333334
O O7 0.333334 0.204979 0.416667
O O8 0.430056 0.214396 0.236630
O O9 0.666667 0.919915 0.333334
O O10 0.773755 0.000000 0.500000
O O11 0.747041 0.666667 0.166667
O O12 0.766600 0.766600 0.000000
#
# Coordination Sequence:
#
# PCOD8322606 Si02
#       4
#    18  18  18  18
#     4  11  21  34  54  81 112 144 180 225 277 330
#     4  11  22  36  56  83 115 150 185 227 277 330
#     4  11  22  36  56  83 115 150 185 227 277 330
#     4  11  21  34  54  81 112 144 180 225 277 330
#
# _framework density 19.073851999999999
#
# number of rings (size 3 to 8) (size 9 to 14) (size 15 to 20)
#    0.000    1.000    0.000   12.000    0.000    0.000 
#    0.000    0.000    0.000    1.000    0.000   14.000 
#    0.000    0.000    0.000    0.000    0.000    0.000 
#
# Total GULP energy -297681.153983 kJ/mol
# GULP energy per Si atom -12403.381416 kJ/mol
# Density = 1.903044 g / cm^3
# Si number density = 19.073852 Si / 1000 Ang^3
#
#
#
# Elastic Constant Matrix: (Units=GPa)
#
#
# Indices 1 2 3 4 5 6 
#
# 1 129.6505 76.4916 61.3151 -5.2420 0.0003 0.0001
# 2 76.4916 129.6504 61.3142 5.2420 -0.0002 0.0000
# 3 61.3151 61.3142 152.6017 -0.0002 0.0005 0.0005
# 4 -5.2420 5.2420 -0.0002 37.6918 0.0000 -0.0002
# 5 0.0003 -0.0002 0.0005 0.0000 37.6921 -5.2420
# 6 0.0001 0.0000 0.0005 -0.0002 -5.2420 26.5796
#
#
#
# Elastic Compliance Matrix: (Units=1/GPa)
#
#
# Indices 1 2 3 4 5 6 
#
# 1 0.012858 -0.006484 -0.002561 0.002690 0.000000 0.000000
# 2 -0.006484 0.012858 -0.002561 -0.002690 0.000000 0.000000
# 3 -0.002561 -0.002561 0.008611 0.000000 0.000000 0.000000
# 4 0.002690 -0.002690 0.000000 0.027279 0.000000 0.000000
# 5 0.000000 0.000000 0.000000 0.000000 0.027279 0.005380
# 6 0.000000 0.000000 0.000000 0.000000 0.005380 0.038684
#
#
# Mechanical properties :
#
#
# Convention : Reuss Voigt Hill
#
# Bulk Modulus (GPa) = 89.96556 90.01604 89.99080
# Shear Modulus (GPa) = 32.36501 34.57815 33.47158
#
# Velocity S-wave (km/s) = 4.12372 4.26238 4.19363
# Velocity P-wave (km/s) = 8.36318 8.45694 8.41019
#
# Compressibility (1/GPa) = 0.01111536
#
# Stress axis : x y z
#
# Youngs Moduli (GPa) = 77.77012 77.77049 116.12699
#
# Poissons Ratio (x) = 0.50424 0.29745
# Poissons Ratio (y) = 0.50424 0.29743
# Poissons Ratio (z) = 0.19920 0.19919
#
# Static dielectric constant tensor:
#      x y z
#    x 3.379750 0.000000 0.000000 
#    y 0.000000 3.379750 0.000000 
#    z 0.000000 0.000000 3.991160 
# 
# 
# High freq. dielectric constant tensor:
#      x y z
#    x 1.721690 0.000000 0.000000 
#    y 0.000000 1.721690 0.000000 
#    z 0.000000 0.000000 1.777730 
# 
# From -- ./inp_files/2110.got.cif
#   From: 2010.03.12/outbox.cif.g09.slc.cpg/sg155_2_cif.got.tgz:2110.got - 2010.04.03 13:54:13.
