data_PCOD8322473
_publ_section_title
;
Structure prediction by ZEFSAII (Michael W. Deem and Ramdas Pophale) SiO2 
 PCOD8322473
Probable space group: R 3 2
;
_chemical_formula_sum "Si O2"
_cell_formula_units_Z 63
_cell_length_a 22.281478
_cell_length_b 22.281478
_cell_length_c 7.466388
_cell_angle_alpha 90.000000
_cell_angle_beta 90.000000
_cell_angle_gamma 120.000000
_cell_volume 3210.178470
_symmetry_space_group_name_H-M "R 3 2"
_symmetry_group_IT_number 155
_symmetry_cell_setting 'hexagonal'
loop_
_space_group_symop_operation_xyz
x,y,z
-y,x-y,z
-x+y,-x,z
x-y,-y,-z
-x,-x+y,-z
y,x,-z
2/3+x,1/3+y,1/3+z
2/3-y,1/3+x-y,1/3+z
2/3-x+y,1/3-x,1/3+z
2/3+x-y,1/3-y,1/3-z
2/3-x,1/3-x+y,1/3-z
2/3+y,1/3+x,1/3-z
1/3+x,2/3+y,2/3+z
1/3-y,2/3+x-y,2/3+z
1/3-x+y,2/3-x,2/3+z
1/3+x-y,2/3-y,2/3-z
1/3-x,2/3-x+y,2/3-z
1/3+y,2/3+x,2/3-z
loop_
_atom_site_type_symbol
_atom_site_label
_atom_site_fract_x
_atom_site_fract_y
_atom_site_fract_z
Si Si1 0.666667 0.134388 0.833334
Si Si2 0.608799 0.460490 0.698678
Si Si3 0.666667 0.526803 0.333334
Si Si4 0.196056 0.866046 0.037437
Si Si5 0.563272 0.000000 0.000000
O O1 0.611828 0.149362 0.728911
O O2 0.698657 0.103951 0.689458
O O3 0.666667 0.463478 0.833334
O O4 0.636137 0.469365 0.492618
O O5 0.596045 0.524341 0.748212
O O6 0.724172 0.600778 0.411679
O O7 0.132352 0.814844 0.156204
O O8 0.175670 0.842337 0.833334
#
# Coordination Sequence:
#
# PCOD8322473 Si02
#       5
#     9  18   9  18   9
#     4  10  22  42  62  88 122 170 214 260 318 364
#     4  10  21  38  59  86 121 160 197 258 310 368
#     4  10  18  34  59  94 120 151 198 240 316 378
#     4   9  19  34  58  88 121 149 194 240 310 375
#     4  10  20  42  57  84 118 165 208 254 306 360
#
# _framework density 19.625078999999999
#
# number of rings (size 3 to 8) (size 9 to 14) (size 15 to 20)
#    0.000    2.286    0.000    3.429    0.000    3.429 
#   21.429   11.429    0.000    0.000    0.000    0.000 
#    0.000    0.000    0.000    0.000    0.000    0.000 
#
# Total GULP energy -260177.712168 kJ/mol
# GULP energy per Si atom -12389.414865 kJ/mol
# Density = 1.958041 g / cm^3
# Si number density = 19.625079 Si / 1000 Ang^3
#
#
#
# Elastic Constant Matrix: (Units=GPa)
#
#
# Indices 1 2 3 4 5 6 
#
# 1 88.5601 86.0886 57.0298 -2.0836 -0.3117 -0.7002
# 2 86.0886 89.3955 57.7913 2.0473 0.6041 0.9201
# 3 57.0298 57.7913 108.0791 -0.0425 0.3418 0.3336
# 4 -2.0836 2.0473 -0.0425 32.1107 -0.0458 -0.1171
# 5 -0.3117 0.6041 0.3418 -0.0458 32.4619 -2.0442
# 6 -0.7002 0.9201 0.3336 -0.1171 -2.0442 -1.3898
#
#
#
# Elastic Compliance Matrix: (Units=1/GPa)
#
#
# Indices 1 2 3 4 5 6 
#
# 1 0.145139 -0.136531 -0.003070 0.017537 -0.005899 -0.157059
# 2 -0.136531 0.145454 -0.006242 -0.017562 0.005874 0.156433
# 3 -0.003070 -0.006242 0.014208 0.000221 -0.000011 0.000822
# 4 0.017537 -0.017562 0.000221 0.033319 -0.000844 -0.021977
# 5 -0.005899 0.005874 -0.000011 -0.000844 0.028440 -0.034903
# 6 -0.157059 0.156433 0.000822 -0.021977 -0.034903 -0.483452
#
#
# Mechanical properties :
#
#
# Convention : Reuss Voigt Hill
#
# Bulk Modulus (GPa) = 76.24452 76.42822 76.33637
# Shear Modulus (GPa) = 27.90738 18.31156 23.10947
#
# Velocity S-wave (km/s) = 3.77507 3.05793 3.43526
# Velocity P-wave (km/s) = 7.61160 7.17612 7.39706
#
# Compressibility (1/GPa) = 0.01311570
#
# Stress axis : x y z
#
# Youngs Moduli (GPa) = 6.88995 6.87504 70.38519
#
# Poissons Ratio (x) = 0.93865 0.21608
# Poissons Ratio (y) = 0.94069 0.43932
# Poissons Ratio (z) = 0.02115 0.04291
#
# Static dielectric constant tensor:
#      x y z
#    x 3.802990 -0.005390 0.001000 
#    y -0.005390 3.821660 0.001110 
#    z 0.001000 0.001110 3.712500 
# 
# 
# High freq. dielectric constant tensor:
#      x y z
#    x 1.754600 0.000000 -0.000020 
#    y 0.000000 1.754610 0.000000 
#    z -0.000020 0.000000 1.772140 
# 
# From -- ./inp_files/2083.got.cif
#   From: 2010.03.12/outbox.cif.g09.slc.cpg/sg155_2_cif.got.tgz:2083.got - 2010.04.03 13:54:13.
