data_PCOD8322204
_publ_section_title
;
Structure prediction by ZEFSAII (Michael W. Deem and Ramdas Pophale) SiO2 
 PCOD8322204
Probable space group: P 31 2 1
;
_chemical_formula_sum "Si O2"
_cell_formula_units_Z 42
_cell_length_a 8.407220
_cell_length_b 8.407220
_cell_length_c 28.904150
_cell_angle_alpha 90.000000
_cell_angle_beta 90.000000
_cell_angle_gamma 120.000000
_cell_volume 1769.276293
_symmetry_space_group_name_H-M "P 31 2 1"
_symmetry_group_IT_number 152
_symmetry_cell_setting 'hexagonal'
loop_
_space_group_symop_operation_xyz
x,y,z
-y,x-y,1/3+z
-x+y,-x,2/3+z
x-y,-y,2/3-z
-x,-x+y,1/3-z
y,x,-z
loop_
_atom_site_type_symbol
_atom_site_label
_atom_site_fract_x
_atom_site_fract_y
_atom_site_fract_z
Si Si1 0.220177 0.596414 0.941344
Si Si2 0.049410 0.593988 0.316015
Si Si3 0.995437 0.533326 0.572109
Si Si4 0.675847 0.000000 0.833334
Si Si5 0.978419 0.589829 0.867709
Si Si6 0.158469 0.000000 0.333334
Si Si7 0.992164 0.168415 0.568713
Si Si8 0.761258 0.409156 0.238204
O O1 0.353945 0.796891 0.961638
O O2 0.304134 0.460825 0.935482
O O3 0.172286 0.634881 0.889623
O O4 0.041828 0.499196 0.973979
O O5 0.155765 0.806108 0.331541
O O6 0.889015 0.544675 0.278280
O O7 0.989901 0.347837 0.587712
O O8 0.799027 0.521111 0.580923
O O9 0.039052 0.559930 0.517546
O O10 0.632831 0.150576 0.854350
O O11 0.822213 0.062150 0.792378
O O12 0.954660 0.770043 0.869951
O O13 0.830743 0.434995 0.901867
O O14 0.061468 0.991001 0.383380
#
# Coordination Sequence:
#
# PCOD8322204 Si02
#       8
#     6   6   6   3   6   3   6   6
#     4  12  25  47  70 106 145 187 245 294 369 438
#     4  12  27  45  76 101 144 196 239 309 359 449
#     4  11  24  42  74 102 145 187 244 294 358 443
#     4  12  22  44  70 110 152 180 250 296 380 436
#     4  11  24  45  72 107 141 187 238 299 363 441
#     4  12  22  46  68 100 138 194 248 282 374 434
#     4  11  23  43  73 102 138 198 232 302 363 444
#     4  11  25  43  74 105 139 193 239 296 365 437
#
# _framework density 23.738520000000001
#
# number of rings (size 3 to 8) (size 9 to 14) (size 15 to 20)
#    0.000    0.571    5.714    2.571    4.000    0.571 
#    2.571    2.857    0.000    0.857    0.000    0.000 
#    0.000    0.000    0.000    0.000    0.000    0.000 
#
# Total GULP energy -520367.204180 kJ/mol
# GULP energy per Si atom -12389.695338 kJ/mol
# Density = 2.368449 g / cm^3
# Si number density = 23.738520 Si / 1000 Ang^3
#
#
#
# Elastic Constant Matrix: (Units=GPa)
#
#
# Indices 1 2 3 4 5 6 
#
# 1 104.8327 48.1333 40.4163 4.5292 0.0002 0.0000
# 2 48.1333 104.8327 40.4163 -4.5292 -0.0002 0.0000
# 3 40.4163 40.4163 131.3769 0.0000 0.0000 0.0000
# 4 4.5292 -4.5292 0.0000 40.5450 0.0000 -0.0002
# 5 0.0002 -0.0002 0.0000 0.0000 40.5450 4.5292
# 6 0.0000 0.0000 0.0000 -0.0002 4.5292 28.3497
#
#
#
# Elastic Compliance Matrix: (Units=1/GPa)
#
#
# Indices 1 2 3 4 5 6 
#
# 1 0.012882 -0.005075 -0.002402 -0.002006 0.000000 0.000000
# 2 -0.005075 0.012882 -0.002402 0.002006 0.000000 0.000000
# 3 -0.002402 -0.002402 0.009089 0.000000 0.000000 0.000000
# 4 -0.002006 0.002006 0.000000 0.025112 0.000000 0.000000
# 5 0.000000 0.000000 0.000000 0.000000 0.025112 -0.004012
# 6 0.000000 0.000000 0.000000 0.000000 -0.004012 0.035915
#
#
# Mechanical properties :
#
#
# Convention : Reuss Voigt Hill
#
# Bulk Modulus (GPa) = 66.24262 66.55267 66.39764
# Shear Modulus (GPa) = 34.29797 36.02635 35.16216
#
# Velocity S-wave (km/s) = 3.80521 3.89991 3.85285
# Velocity P-wave (km/s) = 6.87545 6.95526 6.91547
#
# Compressibility (1/GPa) = 0.01509602
#
# Stress axis : x y z
#
# Youngs Moduli (GPa) = 77.62822 77.62822 110.01945
#
# Poissons Ratio (x) = 0.39400 0.26422
# Poissons Ratio (y) = 0.39400 0.26422
# Poissons Ratio (z) = 0.18643 0.18643
#
# Static dielectric constant tensor:
#      x y z
#    x 4.232670 0.000000 0.000000 
#    y 0.000000 4.232670 0.000000 
#    z 0.000000 0.000000 4.507300 
# 
# 
# High freq. dielectric constant tensor:
#      x y z
#    x 1.924670 0.000000 0.000000 
#    y 0.000000 1.924670 0.000000 
#    z 0.000000 0.000000 1.964390 
# 
# From -- ./inp_files/3765.got.cif
#   From: 2010.03.12/outbox.cif.g09.slc.cpg/sg152_2_cif.got.tgz:3765.got - 2010.04.03 13:45:27.
