data_PCOD8322311
_publ_section_title
;
Structure prediction by ZEFSAII (Michael W. Deem and Ramdas Pophale) SiO2 
 PCOD8322311
Probable space group: P 32 2 1
;
_chemical_formula_sum "Si O2"
_cell_formula_units_Z 39
_cell_length_a 13.948719
_cell_length_b 13.948719
_cell_length_c 13.509125
_cell_angle_alpha 90.000000
_cell_angle_beta 90.000000
_cell_angle_gamma 120.000000
_cell_volume 2276.284299
_symmetry_space_group_name_H-M "P 32 2 1"
_symmetry_group_IT_number 154
_symmetry_cell_setting 'hexagonal'
loop_
_space_group_symop_operation_xyz
x,y,z
-y,x-y,2/3+z
-x+y,-x,1/3+z
x-y,-y,1/3-z
-x,-x+y,2/3-z
y,x,-z
loop_
_atom_site_type_symbol
_atom_site_label
_atom_site_fract_x
_atom_site_fract_y
_atom_site_fract_z
Si Si1 0.222140 0.669844 0.709821
Si Si2 0.156506 0.133350 0.324574
Si Si3 0.998584 0.457692 0.715673
Si Si4 0.233938 0.657737 0.935563
Si Si5 0.235980 0.882932 0.949196
Si Si6 0.992429 0.000000 0.166667
Si Si7 0.212176 0.887138 0.721825
O O1 0.236027 0.636973 0.820061
O O2 0.322693 0.671643 0.648606
O O3 0.242176 0.792818 0.697989
O O4 0.095755 0.579074 0.678162
O O5 0.276133 0.146416 0.317454
O O6 0.104346 0.097087 0.215398
O O7 0.158291 0.245094 0.354661
O O8 0.093993 0.042617 0.410297
O O9 0.877301 0.434879 0.682111
O O10 0.000000 0.447500 0.833334
O O11 0.017212 0.363785 0.664268
O O12 0.238349 0.771454 0.955420
O O13 0.222227 0.914114 0.837874
O O14 0.297196 0.000000 0.666667
#
# Coordination Sequence:
#
# PCOD8322311 Si02
#       7
#     6   6   6   6   6   3   6
#     4   9  19  32  52  74  98 129 167 207 250 299
#     4  11  18  33  47  73 100 130 161 203 248 296
#     4   9  18  33  50  74  99 127 164 207 253 299
#     4   9  18  34  50  73 102 129 165 212 251 293
#     4  10  19  30  52  75  96 131 170 203 248 300
#     4  10  20  30  48  68 102 128 158 198 248 296
#     4  11  19  32  50  74  98 130 167 206 247 295
#
# _framework density 17.133184
#
# number of rings (size 3 to 8) (size 9 to 14) (size 15 to 20)
#    0.000    2.154    3.077    0.923    1.077    3.692 
#    0.000    0.000    0.000    0.000    4.000    0.000 
#    0.000    0.000    0.000    0.000    0.000    0.000 
#
# Total GULP energy -483375.249525 kJ/mol
# GULP energy per Si atom -12394.237167 kJ/mol
# Density = 1.709419 g / cm^3
# Si number density = 17.133184 Si / 1000 Ang^3
#
#
#
# Elastic Constant Matrix: (Units=GPa)
#
#
# Indices 1 2 3 4 5 6 
#
# 1 87.2108 37.9458 29.8408 4.1227 -0.0001 0.0000
# 2 37.9458 87.2108 29.8408 -4.1227 0.0001 0.0000
# 3 29.8408 29.8408 46.7324 0.0000 0.0000 0.0000
# 4 4.1227 -4.1227 0.0000 22.9213 0.0000 0.0001
# 5 -0.0001 0.0001 0.0000 0.0000 22.9213 4.1227
# 6 0.0000 0.0000 0.0000 0.0001 4.1227 24.6325
#
#
#
# Elastic Compliance Matrix: (Units=1/GPa)
#
#
# Indices 1 2 3 4 5 6 
#
# 1 0.016208 -0.004720 -0.007336 -0.003764 0.000000 0.000000
# 2 -0.004720 0.016208 -0.007336 0.003764 0.000000 0.000000
# 3 -0.007336 -0.007336 0.030767 0.000000 0.000000 0.000000
# 4 -0.003764 0.003764 0.000000 0.044982 0.000000 0.000000
# 5 0.000000 0.000000 0.000000 0.000000 0.044982 -0.007528
# 6 0.000000 0.000000 0.000000 0.000000 -0.007528 0.041857
#
#
# Mechanical properties :
#
#
# Convention : Reuss Voigt Hill
#
# Bulk Modulus (GPa) = 40.98322 46.26763 43.62542
# Shear Modulus (GPa) = 20.66802 22.33012 21.49907
#
# Velocity S-wave (km/s) = 3.47697 3.61408 3.54619
# Velocity P-wave (km/s) = 6.33178 6.66924 6.50270
#
# Compressibility (1/GPa) = 0.02440023
#
# Stress axis : x y z
#
# Youngs Moduli (GPa) = 61.69710 61.69710 32.50261
#
# Poissons Ratio (x) = 0.29122 0.23843
# Poissons Ratio (y) = 0.29122 0.23843
# Poissons Ratio (z) = 0.45259 0.45259
#
# Static dielectric constant tensor:
#      x y z
#    x 3.312700 0.000000 0.000000 
#    y 0.000000 3.312700 0.000000 
#    z 0.000000 0.000000 3.404280 
# 
# 
# High freq. dielectric constant tensor:
#      x y z
#    x 1.658340 0.000000 0.000000 
#    y 0.000000 1.658340 0.000000 
#    z 0.000000 0.000000 1.649900 
# 
# From -- ./inp_files/1684.got.cif
#   From: 2010.03.12/outbox.cif.g09.slc.cpg/sg154_1_cif.got.tgz:1684.got - 2010.04.03 13:51:21.
