data_PCOD8322407
_publ_section_title
;
Structure prediction by ZEFSAII (Michael W. Deem and Ramdas Pophale) SiO2 
 PCOD8322407
Probable space group: P 32 2 1
;
_chemical_formula_sum "Si O2"
_cell_formula_units_Z 42
_cell_length_a 14.460445
_cell_length_b 14.460445
_cell_length_c 11.757229
_cell_angle_alpha 90.000000
_cell_angle_beta 90.000000
_cell_angle_gamma 120.000000
_cell_volume 2129.114045
_symmetry_space_group_name_H-M "P 32 2 1"
_symmetry_group_IT_number 154
_symmetry_cell_setting 'hexagonal'
loop_
_space_group_symop_operation_xyz
x,y,z
-y,x-y,2/3+z
-x+y,-x,1/3+z
x-y,-y,1/3-z
-x,-x+y,2/3-z
y,x,-z
loop_
_atom_site_type_symbol
_atom_site_label
_atom_site_fract_x
_atom_site_fract_y
_atom_site_fract_z
Si Si1 0.815503 0.715543 0.630207
Si Si2 0.771201 0.403318 0.764083
Si Si3 0.884782 0.756727 0.379093
Si Si4 0.427900 0.451743 0.184602
Si Si5 0.319628 0.373938 0.618743
Si Si6 0.364579 0.849489 0.003934
Si Si7 0.316625 0.478969 0.978924
O O1 0.880164 0.765153 0.514623
O O2 0.779017 0.796121 0.679870
O O3 0.888914 0.697831 0.720686
O O4 0.715272 0.598400 0.605230
O O5 0.867376 0.498462 0.692554
O O6 0.680953 0.437250 0.757540
O O7 0.809181 0.409445 0.893447
O O8 0.727213 0.287068 0.707957
O O9 0.860383 0.640380 0.346480
O O10 0.000000 0.844948 0.333334
O O11 0.339119 0.360685 0.269377
O O12 0.502304 0.547422 0.271260
O O13 0.491058 0.401887 0.118042
O O14 0.373211 0.497948 0.100625
O O15 0.363474 0.363474 0.500000
#
# Coordination Sequence:
#
# PCOD8322407 Si02
#       7
#     6   6   6   6   6   6   6
#     4  10  23  39  63  90 122 159 219 265 311 391
#     4  11  22  37  61  90 124 168 212 261 316 392
#     4  11  20  40  66  89 122 161 217 272 317 370
#     4  11  22  37  61  92 128 170 212 259 326 383
#     4  11  21  39  63  88 126 165 207 261 329 386
#     4  11  22  39  58  95 128 167 216 259 327 393
#     4  11  21  40  63  91 128 168 216 269 316 384
#
# _framework density 19.726514999999999
#
# number of rings (size 3 to 8) (size 9 to 14) (size 15 to 20)
#    0.000    1.143    5.714    1.714    2.000    0.000 
#    2.571    0.000    0.000    0.000    0.000    0.000 
#    0.000    0.000    0.000    0.000    0.000    0.000 
#
# Total GULP energy -520379.398571 kJ/mol
# GULP energy per Si atom -12389.985680 kJ/mol
# Density = 1.968162 g / cm^3
# Si number density = 19.726515 Si / 1000 Ang^3
#
#
#
# Elastic Constant Matrix: (Units=GPa)
#
#
# Indices 1 2 3 4 5 6 
#
# 1 107.0222 52.9235 38.9688 -4.0628 0.0000 0.0000
# 2 52.9235 107.0222 38.9688 4.0628 0.0000 0.0000
# 3 38.9688 38.9688 96.9712 0.0000 0.0000 0.0000
# 4 -4.0628 4.0628 0.0000 25.6397 0.0000 0.0000
# 5 0.0000 0.0000 0.0000 0.0000 25.6397 -4.0628
# 6 0.0000 0.0000 0.0000 0.0000 -4.0628 27.0494
#
#
#
# Elastic Compliance Matrix: (Units=1/GPa)
#
#
# Indices 1 2 3 4 5 6 
#
# 1 0.013355 -0.005580 -0.003124 0.003000 0.000000 0.000000
# 2 -0.005580 0.013355 -0.003124 -0.003000 0.000000 0.000000
# 3 -0.003124 -0.003124 0.012823 0.000000 0.000000 0.000000
# 4 0.003000 -0.003000 0.000000 0.039953 0.000000 0.000000
# 5 0.000000 0.000000 0.000000 0.000000 0.039953 0.006001
# 6 0.000000 0.000000 0.000000 0.000000 0.006001 0.037871
#
#
# Mechanical properties :
#
#
# Convention : Reuss Voigt Hill
#
# Bulk Modulus (GPa) = 62.99081 63.63753 63.31417
# Shear Modulus (GPa) = 26.84426 27.67605 27.26016
#
# Velocity S-wave (km/s) = 3.69293 3.74971 3.72143
# Velocity P-wave (km/s) = 7.08414 7.14682 7.11555
#
# Compressibility (1/GPa) = 0.01587533
#
# Stress axis : x y z
#
# Youngs Moduli (GPa) = 74.87861 74.87861 77.98265
#
# Poissons Ratio (x) = 0.41786 0.24364
# Poissons Ratio (y) = 0.41786 0.24364
# Poissons Ratio (z) = 0.23394 0.23394
#
# Static dielectric constant tensor:
#      x y z
#    x 3.782520 0.000000 0.000000 
#    y 0.000000 3.782520 0.000000 
#    z 0.000000 0.000000 3.503740 
# 
# 
# High freq. dielectric constant tensor:
#      x y z
#    x 1.765630 0.000000 0.000000 
#    y 0.000000 1.765630 0.000000 
#    z 0.000000 0.000000 1.766160 
# 
# From -- ./inp_files/1727.got.cif
#   From: 2010.03.12/outbox.cif.g09.slc.cpg/sg154_1_cif.got.tgz:1727.got - 2010.04.03 13:51:21.
