data_PCOD8322695
_publ_section_title
;
Structure prediction by ZEFSAII (Michael W. Deem and Ramdas Pophale) SiO2 
 PCOD8322695
Probable space group: P 3 M 1
;
_chemical_formula_sum "Si O2"
_cell_formula_units_Z 48
_cell_length_a 12.536681
_cell_length_b 12.536681
_cell_length_c 20.319832
_cell_angle_alpha 90.000000
_cell_angle_beta 90.000000
_cell_angle_gamma 120.000000
_cell_volume 2765.768940
_symmetry_space_group_name_H-M "P 3 M 1"
_symmetry_group_IT_number 156
_symmetry_cell_setting 'hexagonal'
loop_
_space_group_symop_operation_xyz
x,y,z
-y,x-y,z
-x+y,-x,z
-x+y,y,z
x,x-y,z
-y,-x,z
loop_
_atom_site_type_symbol
_atom_site_label
_atom_site_fract_x
_atom_site_fract_y
_atom_site_fract_z
Si Si1 0.914845 0.581727 0.858140
Si Si2 0.666878 0.579308 0.097779
Si Si3 0.752517 0.999556 0.364790
Si Si4 0.581451 0.914792 0.487241
Si Si5 0.666995 0.578107 0.247482
Si Si6 0.334881 0.417992 0.734023
Si Si7 0.916750 0.334968 0.611447
Si Si8 0.999022 0.752346 0.981182
O O1 0.788658 0.577316 0.840395
O O2 0.886406 0.443203 0.865493
O O3 0.010614 0.653603 0.800563
O O4 0.972581 0.651791 0.925750
O O5 0.770647 0.541293 0.086658
O O6 0.537393 0.462608 0.078549
O O7 0.666506 0.620782 0.172762
O O8 0.693205 0.693473 0.051442
O O9 0.788573 0.894287 0.361755
O O10 0.650865 0.973192 0.419492
O O11 0.696749 0.004488 0.294357
O O12 0.873531 0.126470 0.382621
O O13 0.442151 0.884302 0.480199
O O14 0.579671 0.789836 0.504879
O O15 0.652626 0.011173 0.544621
O O16 0.767825 0.535649 0.256112
O O17 0.536309 0.463692 0.267388
O O18 0.204815 0.409629 0.733427
O O19 0.439952 0.560049 0.728615
O O20 0.341412 0.341703 0.672562
O O21 0.879110 0.439555 0.617321
O O22 0.795469 0.204531 0.611966
O O23 0.130682 0.869318 0.968221
O O24 0.897204 0.794408 0.979932
#
# Coordination Sequence:
#
# PCOD8322695 Si02
#       8
#     6   6   6   6   6   6   6   6
#     4  10  20  34  54  78 102 128 160 202 249 294
#     4   9  17  30  50  74  98 124 156 199 248 295
#     4  10  20  33  49  70  98 132 167 201 239 286
#     4  10  20  34  53  75  99 128 163 204 247 292
#     4   9  17  30  49  73  98 124 157 199 248 295
#     4  10  20  34  53  76 103 135 169 204 241 285
#     4  10  20  34  53  76 102 131 163 202 247 293
#     4  10  20  33  49  70  98 132 167 201 239 286
#
# _framework density 17.355028999999998
#
# number of rings (size 3 to 8) (size 9 to 14) (size 15 to 20)
#    0.000    2.250    0.000    3.250    0.000    1.500 
#    0.000    3.750    0.000   14.500    0.000    0.000 
#    0.000    0.000    0.000    0.000    0.000    0.000 
#
# Total GULP energy -595353.823607 kJ/mol
# GULP energy per Si atom -12403.204658 kJ/mol
# Density = 1.731553 g / cm^3
# Si number density = 17.355029 Si / 1000 Ang^3
#
#
#
# Elastic Constant Matrix: (Units=GPa)
#
#
# Indices 1 2 3 4 5 6 
#
# 1 105.2759 63.6474 48.4074 3.9312 0.0005 0.0000
# 2 63.6474 105.2759 48.4074 -3.9312 -0.0005 0.0000
# 3 48.4074 48.4074 96.7848 0.0000 0.0000 0.0000
# 4 3.9312 -3.9312 0.0000 22.8852 0.0000 -0.0005
# 5 0.0005 -0.0005 0.0000 0.0000 22.8852 3.9312
# 6 0.0000 0.0000 0.0000 -0.0005 3.9312 20.8142
#
#
#
# Elastic Compliance Matrix: (Units=1/GPa)
#
#
# Indices 1 2 3 4 5 6 
#
# 1 0.016563 -0.008264 -0.004151 -0.004265 -0.000001 0.000000
# 2 -0.008264 0.016563 -0.004151 0.004265 0.000001 0.000000
# 3 -0.004151 -0.004151 0.014484 0.000000 0.000000 0.000000
# 4 -0.004265 0.004265 0.000000 0.045162 0.000000 0.000001
# 5 -0.000001 0.000001 0.000000 0.000000 0.045162 -0.008530
# 6 0.000000 0.000000 0.000000 0.000001 -0.008530 0.049655
#
#
# Mechanical properties :
#
#
# Convention : Reuss Voigt Hill
#
# Bulk Modulus (GPa) = 69.06564 69.80676 69.43620
# Shear Modulus (GPa) = 22.16842 23.10856 22.63849
#
# Velocity S-wave (km/s) = 3.57788 3.65296 3.61561
# Velocity P-wave (km/s) = 7.54655 7.62248 7.58461
#
# Compressibility (1/GPa) = 0.01447898
#
# Stress axis : x y z
#
# Youngs Moduli (GPa) = 60.37515 60.37515 69.04121
#
# Poissons Ratio (x) = 0.49897 0.28656
# Poissons Ratio (y) = 0.49897 0.28656
# Poissons Ratio (z) = 0.25059 0.25059
#
# Static dielectric constant tensor:
#      x y z
#    x 3.144800 0.000000 0.000000 
#    y 0.000000 3.144800 0.000000 
#    z 0.000000 0.000000 3.437480 
# 
# 
# High freq. dielectric constant tensor:
#      x y z
#    x 1.668050 0.000000 0.000000 
#    y 0.000000 1.668050 0.000000 
#    z 0.000000 0.000000 1.686750 
# 
# From -- ./inp_files/1099.got.cif
#   From: 2010.03.12/outbox.cif.g09.slc.cpg/sg156_cif.got.tgz:1099.got - 2010.04.03 13:58:47.
