data_PCOD8322368
_publ_section_title
;
Structure prediction by ZEFSAII (Michael W. Deem and Ramdas Pophale) SiO2 
 PCOD8322368
Probable space group: P 32 2 1
;
_chemical_formula_sum "Si O2"
_cell_formula_units_Z 39
_cell_length_a 8.860323
_cell_length_b 8.860323
_cell_length_c 27.665561
_cell_angle_alpha 90.000000
_cell_angle_beta 90.000000
_cell_angle_gamma 120.000000
_cell_volume 1880.915223
_symmetry_space_group_name_H-M "P 32 2 1"
_symmetry_group_IT_number 154
_symmetry_cell_setting 'hexagonal'
loop_
_space_group_symop_operation_xyz
x,y,z
-y,x-y,2/3+z
-x+y,-x,1/3+z
x-y,-y,1/3-z
-x,-x+y,2/3-z
y,x,-z
loop_
_atom_site_type_symbol
_atom_site_label
_atom_site_fract_x
_atom_site_fract_y
_atom_site_fract_z
Si Si1 0.666781 0.853658 0.570118
Si Si2 0.994476 0.102389 0.048661
Si Si3 0.700929 0.905055 0.120506
Si Si4 0.451027 0.000000 0.166667
Si Si5 0.431408 0.015135 0.744160
Si Si6 0.079549 0.448674 0.998086
Si Si7 0.738452 0.454457 0.999582
O O1 0.594371 0.736009 0.522090
O O2 0.609234 0.718730 0.613319
O O3 0.874272 0.979423 0.576437
O O4 0.587809 0.982624 0.572343
O O5 0.006436 0.006436 0.000000
O O6 0.036569 0.297359 0.036925
O O7 0.801011 0.999070 0.070979
O O8 0.665116 0.705523 0.121777
O O9 0.823091 0.000000 0.166667
O O10 0.519700 0.912597 0.126231
O O11 0.316584 0.865965 0.705932
O O12 0.491021 0.202916 0.720297
O O13 0.937281 0.508001 0.995364
O O14 0.251772 0.623586 0.012818
#
# Coordination Sequence:
#
# PCOD8322368 Si02
#       7
#     6   6   6   3   6   6   6
#     4  10  21  43  64  90 126 172 218 260 332 386
#     4  10  22  41  68  94 132 170 217 273 326 388
#     4  10  25  43  60  95 131 169 213 272 327 390
#     4  10  24  42  68  86 132 174 214 276 326 394
#     4  10  21  41  62  90 128 167 212 261 320 389
#     4  10  21  37  64 102 129 163 210 277 317 381
#     4  10  21  34  65  97 131 165 205 264 325 380
#
# _framework density 20.734584999999999
#
# number of rings (size 3 to 8) (size 9 to 14) (size 15 to 20)
#    0.462    1.538    1.538    0.923    9.692    1.231 
#    2.769    0.000    0.000    0.000    0.000    0.000 
#    0.000    0.000    0.000    0.000    0.000    0.000 
#
# Total GULP energy -483233.587334 kJ/mol
# GULP energy per Si atom -12390.604803 kJ/mol
# Density = 2.068739 g / cm^3
# Si number density = 20.734585 Si / 1000 Ang^3
#
#
#
# Elastic Constant Matrix: (Units=GPa)
#
#
# Indices 1 2 3 4 5 6 
#
# 1 112.3563 46.8740 42.8425 -8.6234 0.0001 0.0000
# 2 46.8740 112.3563 42.8425 8.6234 -0.0001 0.0000
# 3 42.8425 42.8425 71.4761 0.0000 0.0000 0.0000
# 4 -8.6234 8.6234 0.0000 35.2749 0.0000 -0.0001
# 5 0.0001 -0.0001 0.0000 0.0000 35.2749 -8.6234
# 6 0.0000 0.0000 0.0000 -0.0001 -8.6234 32.7412
#
#
#
# Elastic Compliance Matrix: (Units=1/GPa)
#
#
# Indices 1 2 3 4 5 6 
#
# 1 0.012796 -0.003526 -0.005557 0.003990 0.000000 0.000000
# 2 -0.003526 0.012796 -0.005557 -0.003990 0.000000 0.000000
# 3 -0.005557 -0.005557 0.020652 0.000000 0.000000 0.000000
# 4 0.003990 -0.003990 0.000000 0.030300 0.000000 0.000000
# 5 0.000000 0.000000 0.000000 0.000000 0.030300 0.007980
# 6 0.000000 0.000000 0.000000 0.000000 0.007980 0.032644
#
#
# Mechanical properties :
#
#
# Convention : Reuss Voigt Hill
#
# Bulk Modulus (GPa) = 58.94085 62.36741 60.65413
# Shear Modulus (GPa) = 28.66608 31.56681 30.11645
#
# Velocity S-wave (km/s) = 3.72227 3.90606 3.81527
# Velocity P-wave (km/s) = 6.85286 7.10544 6.98029
#
# Compressibility (1/GPa) = 0.01696616
#
# Stress axis : x y z
#
# Youngs Moduli (GPa) = 78.14766 78.14766 48.42164
#
# Poissons Ratio (x) = 0.27555 0.26906
# Poissons Ratio (y) = 0.27555 0.26906
# Poissons Ratio (z) = 0.43424 0.43424
#
# Static dielectric constant tensor:
#      x y z
#    x 3.869660 0.000000 0.000000 
#    y 0.000000 3.869660 0.000000 
#    z 0.000000 0.000000 3.709960 
# 
# 
# High freq. dielectric constant tensor:
#      x y z
#    x 1.814150 0.000000 0.000000 
#    y 0.000000 1.814150 0.000000 
#    z 0.000000 0.000000 1.787030 
# 
# From -- ./inp_files/3699.got.cif
#   From: 2010.03.12/outbox.cif.g09.slc.cpg/sg154_2_cif.got.tgz:3699.got - 2010.04.03 13:51:21.
