data_PCOD8322669
_publ_section_title
;
Structure prediction by ZEFSAII (Michael W. Deem and Ramdas Pophale) SiO2 
 PCOD8322669
Probable space group: P 3 M 1
;
_chemical_formula_sum "Si O2"
_cell_formula_units_Z 48
_cell_length_a 12.792709
_cell_length_b 12.792709
_cell_length_c 20.542807
_cell_angle_alpha 90.000000
_cell_angle_beta 90.000000
_cell_angle_gamma 120.000000
_cell_volume 2911.491051
_symmetry_space_group_name_H-M "P 3 M 1"
_symmetry_group_IT_number 156
_symmetry_cell_setting 'hexagonal'
loop_
_space_group_symop_operation_xyz
x,y,z
-y,x-y,z
-x+y,-x,z
-x+y,y,z
x,x-y,z
-y,-x,z
loop_
_atom_site_type_symbol
_atom_site_label
_atom_site_fract_x
_atom_site_fract_y
_atom_site_fract_z
Si Si1 0.243904 0.243453 0.696790
Si Si2 0.757048 0.001975 0.048410
Si Si3 0.574948 0.909289 0.436814
Si Si4 0.910824 0.577453 0.815282
Si Si5 0.574343 0.907682 0.583975
Si Si6 0.576987 0.911038 0.934176
Si Si7 0.245851 0.242387 0.330037
Si Si8 0.236885 0.001800 0.189624
O O1 0.121292 0.242584 0.713869
O O2 0.338831 0.312213 0.753498
O O3 0.302720 0.313176 0.629977
O O4 0.213775 0.106888 0.688564
O O5 0.787194 0.893597 0.049676
O O6 0.714491 0.021301 0.120721
O O7 0.648190 0.973009 0.000096
O O8 0.877205 0.122796 0.025364
O O9 0.448273 0.896545 0.421009
O O10 0.559567 0.779784 0.425080
O O11 0.616808 0.954546 0.510528
O O12 0.669919 0.004007 0.385668
O O13 0.781328 0.562656 0.830386
O O14 0.893607 0.446804 0.800743
O O15 0.996407 0.640545 0.876307
O O16 0.460435 0.920870 0.604598
O O17 0.534134 0.767067 0.590163
O O18 0.440295 0.880590 0.942635
O O19 0.576748 0.788374 0.918433
O O20 0.118105 0.236210 0.330770
O O21 0.309700 0.286539 0.257962
O O22 0.221382 0.110691 0.347182
O O23 0.134273 0.865728 0.190899
O O24 0.181001 0.090501 0.189329
#
# Coordination Sequence:
#
# PCOD8322669 Si02
#       8
#     6   6   6   6   6   6   6   6
#     4  10  20  33  49  70  97 126 151 176 213 265
#     4   9  16  27  45  68  91 114 143 182 227 271
#     4   9  17  29  45  64  87 116 150 187 224 262
#     4  10  20  34  52  72  93 118 151 192 232 265
#     4   9  17  30  48  68  88 113 148 189 228 262
#     4  10  20  33  48  66  91 123 155 185 219 264
#     4   9  16  26  42  65  91 117 145 180 224 271
#     4   8  13  22  38  61  88 115 143 177 219 266
#
# _framework density 16.486397
#
# number of rings (size 3 to 8) (size 9 to 14) (size 15 to 20)
#    0.000    2.750    0.000    2.125    0.000    3.500 
#    0.000    0.625    0.000   10.250    0.000    1.750 
#    0.000    0.000    0.000    0.000    0.000    0.000 
#
# Total GULP energy -594845.814847 kJ/mol
# GULP energy per Si atom -12392.621143 kJ/mol
# Density = 1.644887 g / cm^3
# Si number density = 16.486397 Si / 1000 Ang^3
#
#
#
# Elastic Constant Matrix: (Units=GPa)
#
#
# Indices 1 2 3 4 5 6 
#
# 1 84.0922 41.8878 58.6148 -2.3492 0.0000 0.0000
# 2 41.8878 84.0922 58.6148 2.3492 0.0000 0.0000
# 3 58.6148 58.6148 122.2435 0.0000 0.0000 0.0000
# 4 -2.3492 2.3492 0.0000 24.7233 0.0000 0.0000
# 5 0.0000 0.0000 0.0000 0.0000 24.7233 -2.3492
# 6 0.0000 0.0000 0.0000 0.0000 -2.3492 21.1022
#
#
#
# Elastic Compliance Matrix: (Units=1/GPa)
#
#
# Indices 1 2 3 4 5 6 
#
# 1 0.019140 -0.004807 -0.006873 0.002275 0.000000 0.000000
# 2 -0.004807 0.019140 -0.006873 -0.002275 0.000000 0.000000
# 3 -0.006873 -0.006873 0.014771 0.000000 0.000000 0.000000
# 4 0.002275 -0.002275 0.000000 0.040880 0.000000 0.000000
# 5 0.000000 0.000000 0.000000 0.000000 0.040880 0.004551
# 6 0.000000 0.000000 0.000000 0.000000 0.004551 0.047895
#
#
# Mechanical properties :
#
#
# Convention : Reuss Voigt Hill
#
# Bulk Modulus (GPa) = 62.70848 67.62916 65.16882
# Shear Modulus (GPa) = 22.20968 22.86381 22.53674
#
# Velocity S-wave (km/s) = 3.67434 3.72805 3.70129
# Velocity P-wave (km/s) = 7.49133 7.72279 7.60794
#
# Compressibility (1/GPa) = 0.01594681
#
# Stress axis : x y z
#
# Youngs Moduli (GPa) = 52.24595 52.24595 67.70009
#
# Poissons Ratio (x) = 0.25116 0.46527
# Poissons Ratio (y) = 0.25116 0.46527
# Poissons Ratio (z) = 0.35906 0.35906
#
# Static dielectric constant tensor:
#      x y z
#    x 2.964990 0.000000 0.000000 
#    y 0.000000 2.964990 0.000000 
#    z 0.000000 0.000000 3.526270 
# 
# 
# High freq. dielectric constant tensor:
#      x y z
#    x 1.618130 0.000000 0.000000 
#    y 0.000000 1.618130 0.000000 
#    z 0.000000 0.000000 1.654410 
# 
# From -- ./inp_files/1100.got.cif
#   From: 2010.03.12/outbox.cif.g09.slc.cpg/sg156_cif.got.tgz:1100.got - 2010.04.03 13:58:47.
