data_PCOD8322452
_publ_section_title
;
Structure prediction by ZEFSAII (Michael W. Deem and Ramdas Pophale) SiO2 
 PCOD8322452
Probable space group: R 3 2
;
_chemical_formula_sum "Si O2"
_cell_formula_units_Z 96
_cell_length_a 22.863911
_cell_length_b 22.863911
_cell_length_c 12.695861
_cell_angle_alpha 90.000000
_cell_angle_beta 90.000000
_cell_angle_gamma 120.000000
_cell_volume 5747.696563
_symmetry_space_group_name_H-M "R 3 2"
_symmetry_group_IT_number 155
_symmetry_cell_setting 'hexagonal'
loop_
_space_group_symop_operation_xyz
x,y,z
-y,x-y,z
-x+y,-x,z
x-y,-y,-z
-x,-x+y,-z
y,x,-z
2/3+x,1/3+y,1/3+z
2/3-y,1/3+x-y,1/3+z
2/3-x+y,1/3-x,1/3+z
2/3+x-y,1/3-y,1/3-z
2/3-x,1/3-x+y,1/3-z
2/3+y,1/3+x,1/3-z
1/3+x,2/3+y,2/3+z
1/3-y,2/3+x-y,2/3+z
1/3-x+y,2/3-x,2/3+z
1/3+x-y,2/3-y,2/3-z
1/3-x,2/3-x+y,2/3-z
1/3+y,2/3+x,2/3-z
loop_
_atom_site_type_symbol
_atom_site_label
_atom_site_fract_x
_atom_site_fract_y
_atom_site_fract_z
Si Si1 0.635432 0.422339 0.094488
Si Si2 0.131512 0.272952 0.895140
Si Si3 0.599553 0.580805 0.277212
Si Si4 0.665225 0.566199 0.579488
Si Si5 0.666667 0.333334 0.955838
Si Si6 0.538751 0.304224 0.222769
O O1 0.632595 0.488369 0.059382
O O2 0.562837 0.365574 0.139479
O O3 0.689908 0.438666 0.186483
O O4 0.655276 0.393884 0.993770
O O5 0.195497 0.333334 0.833334
O O6 0.142385 0.208983 0.902077
O O7 0.066902 0.257521 0.824804
O O8 0.124199 0.297817 0.012546
O O9 0.666667 0.591718 0.333334
O O10 0.585049 0.640948 0.311937
O O11 0.613282 0.580664 0.151243
O O12 0.666668 0.333334 0.833334
O O13 0.574141 0.333334 0.333334
#
# Coordination Sequence:
#
# PCOD8322452 Si02
#       6
#    18  18  18  18   6  18
#     4   9  18  28  42  64  90 116 145 179 216 268
#     4   8  15  25  38  57  85 116 146 178 216 264
#     4   9  15  25  40  58  86 117 142 173 216 266
#     4   9  16  27  41  61  87 117 144 176 220 263
#     4   9  18  33  46  59  85 123 156 180 205 248
#     4  10  16  24  40  65  93 115 139 176 226 275
#
# _framework density 16.702342999999999
#
# number of rings (size 3 to 8) (size 9 to 14) (size 15 to 20)
#    0.000    3.000    0.000    3.750    0.000    3.000 
#    0.000    1.875    0.000    0.000    0.000    1.312 
#    0.000   18.000    0.000    0.000    0.000    0.000 
#
# Total GULP energy -396461.394773 kJ/mol
# GULP energy per Si atom -12389.418587 kJ/mol
# Density = 1.666433 g / cm^3
# Si number density = 16.702343 Si / 1000 Ang^3
#
#
#
# Elastic Constant Matrix: (Units=GPa)
#
#
# Indices 1 2 3 4 5 6 
#
# 1 83.2771 45.0493 40.4397 2.7328 0.0001 0.0000
# 2 45.0493 83.2772 40.4398 -2.7328 0.0001 0.0002
# 3 40.4397 40.4398 76.0165 0.0000 0.0003 0.0002
# 4 2.7328 -2.7328 0.0000 9.7848 0.0000 -0.0001
# 5 0.0001 0.0001 0.0003 0.0000 9.7849 2.7329
# 6 0.0000 0.0002 0.0002 -0.0001 2.7329 19.1140
#
#
#
# Elastic Compliance Matrix: (Units=1/GPa)
#
#
# Indices 1 2 3 4 5 6 
#
# 1 0.019485 -0.007762 -0.006237 -0.007610 0.000000 0.000000
# 2 -0.007762 0.019485 -0.006237 0.007610 0.000000 0.000000
# 3 -0.006237 -0.006237 0.019791 0.000000 0.000000 0.000000
# 4 -0.007610 0.007610 0.000000 0.106450 0.000000 0.000000
# 5 0.000000 0.000000 0.000000 0.000000 0.106449 -0.015220
# 6 0.000000 0.000000 0.000000 0.000000 -0.015220 0.054494
#
#
# Mechanical properties :
#
#
# Convention : Reuss Voigt Hill
#
# Bulk Modulus (GPa) = 54.67249 54.93650 54.80450
# Shear Modulus (GPa) = 13.41486 15.51287 14.46386
#
# Velocity S-wave (km/s) = 2.83710 3.05090 2.94594
# Velocity P-wave (km/s) = 6.59823 6.73599 6.66747
#
# Compressibility (1/GPa) = 0.01829073
#
# Stress axis : x y z
#
# Youngs Moduli (GPa) = 51.32108 51.32106 50.52884
#
# Poissons Ratio (x) = 0.39834 0.31513
# Poissons Ratio (y) = 0.39834 0.31513
# Poissons Ratio (z) = 0.32007 0.32007
#
# Static dielectric constant tensor:
#      x y z
#    x 3.216690 0.000000 0.000000 
#    y 0.000000 3.216690 0.000000 
#    z 0.000000 0.000000 2.991250 
# 
# 
# High freq. dielectric constant tensor:
#      x y z
#    x 1.618070 0.000000 0.000000 
#    y 0.000000 1.618070 0.000000 
#    z 0.000000 0.000000 1.621560 
# 
# From -- ./inp_files/4005.got.cif
#   From: 2010.03.12/outbox.cif.g09.slc.cpg/sg155_3_cif.got.tgz:4005.got - 2010.04.03 13:54:13.
