data_PCOD8322544
_publ_section_title
;
Structure prediction by ZEFSAII (Michael W. Deem and Ramdas Pophale) SiO2 
 PCOD8322544
Probable space group: R 3 2
;
_chemical_formula_sum "Si O2"
_cell_formula_units_Z 114
_cell_length_a 22.385451
_cell_length_b 22.385451
_cell_length_c 11.702749
_cell_angle_alpha 90.000000
_cell_angle_beta 90.000000
_cell_angle_gamma 120.000000
_cell_volume 5078.672630
_symmetry_space_group_name_H-M "R 3 2"
_symmetry_group_IT_number 155
_symmetry_cell_setting 'hexagonal'
loop_
_space_group_symop_operation_xyz
x,y,z
-y,x-y,z
-x+y,-x,z
x-y,-y,-z
-x,-x+y,-z
y,x,-z
2/3+x,1/3+y,1/3+z
2/3-y,1/3+x-y,1/3+z
2/3-x+y,1/3-x,1/3+z
2/3+x-y,1/3-y,1/3-z
2/3-x,1/3-x+y,1/3-z
2/3+y,1/3+x,1/3-z
1/3+x,2/3+y,2/3+z
1/3-y,2/3+x-y,2/3+z
1/3-x+y,2/3-x,2/3+z
1/3+x-y,2/3-y,2/3-z
1/3-x,2/3-x+y,2/3-z
1/3+y,2/3+x,2/3-z
loop_
_atom_site_type_symbol
_atom_site_label
_atom_site_fract_x
_atom_site_fract_y
_atom_site_fract_z
Si Si1 0.741814 0.879129 0.855917
Si Si2 0.929385 0.057553 0.280011
Si Si3 0.677133 0.070274 0.465139
Si Si4 0.407609 0.955610 0.111305
Si Si5 0.333334 0.666667 0.799468
Si Si6 0.168236 0.575660 0.996874
Si Si7 0.456498 0.922986 0.786367
O O1 0.666667 0.811733 0.833334
O O2 0.798873 0.882401 0.769571
O O3 0.738790 0.946007 0.812429
O O4 0.765936 0.880570 0.986922
O O5 0.944083 0.019860 0.175681
O O6 0.997335 0.100660 0.358279
O O7 0.864963 0.992161 0.345239
O O8 0.666667 0.073314 0.333334
O O9 0.748355 0.134373 0.504377
O O10 0.676135 0.000000 0.500000
O O11 0.333334 0.923368 0.166667
O O12 0.459002 0.009226 0.204643
O O13 0.426032 0.895242 0.083365
O O14 0.412911 0.000000 0.000000
O O15 0.333334 0.666668 0.666667
O O16 0.141390 0.547347 0.866857
#
# Coordination Sequence:
#
# PCOD8322544 Si02
#       7
#    18  18  18  18   6  18  18
#     4  10  21  35  58  92 128 159 205 267 318 386
#     4  10  21  37  61  95 131 163 212 259 330 387
#     4   9  18  33  54  84 121 153 196 254 315 381
#     4  10  24  48  68  90 126 172 226 272 320 386
#     4   9  21  30  57  93 130 173 199 252 318 402
#     4  10  22  41  66  92 130 170 209 270 320 398
#     4  10  21  40  61  89 122 172 209 261 332 374
#
# _framework density 22.446808999999998
#
# number of rings (size 3 to 8) (size 9 to 14) (size 15 to 20)
#    0.000    2.211    1.579    0.316    6.632    1.895 
#    8.526    0.789    0.000    0.000    0.000    0.000 
#    0.000    0.000    0.000    0.000    0.000    0.000 
#
# Total GULP energy -470843.476712 kJ/mol
# GULP energy per Si atom -12390.617808 kJ/mol
# Density = 2.239572 g / cm^3
# Si number density = 22.446809 Si / 1000 Ang^3
#
#
#
# Elastic Constant Matrix: (Units=GPa)
#
#
# Indices 1 2 3 4 5 6 
#
# 1 105.8337 29.2891 12.1285 -1.2662 0.0004 0.0001
# 2 29.2891 105.8329 12.1284 1.2663 -0.0004 -0.0001
# 3 12.1285 12.1284 27.2733 0.0002 0.0001 0.0001
# 4 -1.2662 1.2663 0.0002 18.5298 0.0000 -0.0003
# 5 0.0004 -0.0004 0.0001 0.0000 18.5297 -1.2660
# 6 0.0001 -0.0001 0.0001 -0.0003 -1.2660 38.2717
#
#
#
# Elastic Compliance Matrix: (Units=1/GPa)
#
#
# Indices 1 2 3 4 5 6 
#
# 1 0.010568 -0.002526 -0.003577 0.000895 0.000000 0.000000
# 2 -0.002526 0.010568 -0.003577 -0.000895 0.000000 0.000000
# 3 -0.003577 -0.003577 0.039847 0.000000 0.000000 0.000000
# 4 0.000895 -0.000895 0.000000 0.054089 0.000000 0.000000
# 5 0.000000 0.000000 0.000000 0.000000 0.054090 0.001789
# 6 0.000000 0.000000 0.000000 0.000000 0.001789 0.026188
#
#
# Mechanical properties :
#
#
# Convention : Reuss Voigt Hill
#
# Bulk Modulus (GPa) = 24.02344 38.44799 31.23571
# Shear Modulus (GPa) = 21.87381 27.42584 24.64982
#
# Velocity S-wave (km/s) = 3.12504 3.49924 3.31742
# Velocity P-wave (km/s) = 4.87307 5.78722 5.34971
#
# Compressibility (1/GPa) = 0.04162601
#
# Stress axis : x y z
#
# Youngs Moduli (GPa) = 94.62232 94.62175 25.09602
#
# Poissons Ratio (x) = 0.23898 0.08976
# Poissons Ratio (y) = 0.23898 0.08976
# Poissons Ratio (z) = 0.33843 0.33842
#
# Static dielectric constant tensor:
#      x y z
#    x 4.201810 0.000000 0.000000 
#    y 0.000000 4.201820 0.000000 
#    z 0.000000 0.000000 3.651650 
# 
# 
# High freq. dielectric constant tensor:
#      x y z
#    x 1.883560 0.000000 0.000000 
#    y 0.000000 1.883560 0.000000 
#    z 0.000000 0.000000 1.854340 
# 
# From -- ./inp_files/5228.got.cif
#   From: 2010.03.12/outbox.cif.g09.slc.cpg/sg155_3_cif.got.tgz:5228.got - 2010.04.03 13:54:13.
