data_PCOD8322556
_publ_section_title
;
Structure prediction by ZEFSAII (Michael W. Deem and Ramdas Pophale) SiO2 
 PCOD8322556
Probable space group: R 3 2
;
_chemical_formula_sum "Si O2"
_cell_formula_units_Z 69
_cell_length_a 14.114707
_cell_length_b 14.114707
_cell_length_c 17.985891
_cell_angle_alpha 90.000000
_cell_angle_beta 90.000000
_cell_angle_gamma 120.000000
_cell_volume 3103.175397
_symmetry_space_group_name_H-M "R 3 2"
_symmetry_group_IT_number 155
_symmetry_cell_setting 'hexagonal'
loop_
_space_group_symop_operation_xyz
x,y,z
-y,x-y,z
-x+y,-x,z
x-y,-y,-z
-x,-x+y,-z
y,x,-z
2/3+x,1/3+y,1/3+z
2/3-y,1/3+x-y,1/3+z
2/3-x+y,1/3-x,1/3+z
2/3+x-y,1/3-y,1/3-z
2/3-x,1/3-x+y,1/3-z
2/3+y,1/3+x,1/3-z
1/3+x,2/3+y,2/3+z
1/3-y,2/3+x-y,2/3+z
1/3-x+y,2/3-x,2/3+z
1/3+x-y,2/3-y,2/3-z
1/3-x,2/3-x+y,2/3-z
1/3+y,2/3+x,2/3-z
loop_
_atom_site_type_symbol
_atom_site_label
_atom_site_fract_x
_atom_site_fract_y
_atom_site_fract_z
Si Si1 0.119992 0.731680 0.538937
Si Si2 0.666668 0.333334 0.746027
Si Si3 0.000000 0.878191 0.000000
Si Si4 0.368629 0.947437 0.890349
Si Si5 0.730094 0.561017 0.964664
O O1 0.143961 0.651631 0.589723
O O2 0.212448 0.792589 0.475622
O O3 0.139816 0.820336 0.602147
O O4 0.000000 0.670357 0.500000
O O5 0.666668 0.333334 0.833334
O O6 0.616471 0.212807 0.715381
O O7 0.891580 0.891580 0.000000
O O8 0.282694 0.949361 0.833334
O O9 0.442029 0.070322 0.922042
O O10 0.287252 0.857834 0.948447
#
# Coordination Sequence:
#
# PCOD8322556 Si02
#       5
#    18   6   9  18  18
#     4  11  23  45  71 101 135 186 239 297 356 431
#     4  12  21  36  57  99 147 175 215 295 375 414
#     4  10  28  52  70  98 146 184 238 292 358 440
#     4   9  20  38  66  97 133 189 235 286 365 428
#     4  10  21  38  65  99 141 179 231 294 356 441
#
# _framework density 22.235288000000001
#
# number of rings (size 3 to 8) (size 9 to 14) (size 15 to 20)
#    0.261    1.565    0.000    4.696    7.304    4.174 
#    9.391    0.000    0.000    0.000    0.000    0.000 
#    0.000    0.000    0.000    0.000    0.000    0.000 
#
# Total GULP energy -285029.999206 kJ/mol
# GULP energy per Si atom -12392.608661 kJ/mol
# Density = 2.218468 g / cm^3
# Si number density = 22.235288 Si / 1000 Ang^3
#
#
#
# Elastic Constant Matrix: (Units=GPa)
#
#
# Indices 1 2 3 4 5 6 
#
# 1 95.8598 37.6751 62.5909 3.1974 0.0000 0.0001
# 2 37.6751 95.8597 62.5908 -3.1974 0.0003 0.0001
# 3 62.5909 62.5908 175.0612 0.0003 0.0001 0.0001
# 4 3.1974 -3.1974 0.0003 45.4986 0.0000 0.0001
# 5 0.0000 0.0003 0.0001 0.0000 45.4986 3.1975
# 6 0.0001 0.0001 0.0001 0.0001 3.1975 29.0924
#
#
#
# Elastic Compliance Matrix: (Units=1/GPa)
#
#
# Indices 1 2 3 4 5 6 
#
# 1 0.014292 -0.003028 -0.004027 -0.001217 0.000000 0.000000
# 2 -0.003028 0.014292 -0.004027 0.001217 0.000000 0.000000
# 3 -0.004027 -0.004027 0.008592 0.000000 0.000000 0.000000
# 4 -0.001217 0.001217 0.000000 0.022150 0.000000 0.000000
# 5 0.000000 0.000000 0.000000 0.000000 0.022150 -0.002434
# 6 0.000000 0.000000 0.000000 0.000000 -0.002434 0.034641
#
#
# Mechanical properties :
#
#
# Convention : Reuss Voigt Hill
#
# Bulk Modulus (GPa) = 66.61790 76.94380 71.78085
# Shear Modulus (GPa) = 34.89517 37.61286 36.25401
#
# Velocity S-wave (km/s) = 3.96581 4.11735 4.04229
# Velocity P-wave (km/s) = 7.14113 7.56855 7.35794
#
# Compressibility (1/GPa) = 0.01501098
#
# Stress axis : x y z
#
# Youngs Moduli (GPa) = 69.96802 69.96797 116.38574
#
# Poissons Ratio (x) = 0.21188 0.46872
# Poissons Ratio (y) = 0.21188 0.46872
# Poissons Ratio (z) = 0.28178 0.28178
#
# Static dielectric constant tensor:
#      x y z
#    x 3.827930 0.000000 0.000000 
#    y 0.000000 3.827940 0.000000 
#    z 0.000000 0.000000 4.026490 
# 
# 
# High freq. dielectric constant tensor:
#      x y z
#    x 1.867200 0.000000 0.000000 
#    y 0.000000 1.867200 0.000000 
#    z 0.000000 0.000000 1.887840 
# 
# From -- ./inp_files/5898.got.cif
#   From: 2010.03.12/outbox.cif.g09.slc.cpg/sg155_3_cif.got.tgz:5898.got - 2010.04.03 13:54:13.
