data_PCOD8322378
_publ_section_title
;
Structure prediction by ZEFSAII (Michael W. Deem and Ramdas Pophale) SiO2 
 PCOD8322378
Probable space group: P 32 2 1
;
_chemical_formula_sum "Si O2"
_cell_formula_units_Z 45
_cell_length_a 11.500355
_cell_length_b 11.500355
_cell_length_c 19.416630
_cell_angle_alpha 90.000000
_cell_angle_beta 90.000000
_cell_angle_gamma 120.000000
_cell_volume 2223.960041
_symmetry_space_group_name_H-M "P 32 2 1"
_symmetry_group_IT_number 154
_symmetry_cell_setting 'hexagonal'
loop_
_space_group_symop_operation_xyz
x,y,z
-y,x-y,2/3+z
-x+y,-x,1/3+z
x-y,-y,1/3-z
-x,-x+y,2/3-z
y,x,-z
loop_
_atom_site_type_symbol
_atom_site_label
_atom_site_fract_x
_atom_site_fract_y
_atom_site_fract_z
Si Si1 0.149331 0.741609 0.325517
Si Si2 0.242256 0.044545 0.446428
Si Si3 0.307807 0.636689 0.256350
Si Si4 0.527796 0.850729 0.171935
Si Si5 0.000000 0.051187 0.833334
Si Si6 0.489131 0.187527 0.877289
Si Si7 0.218784 0.965510 0.045644
Si Si8 0.761209 0.321582 0.939275
O O1 0.174656 0.640517 0.279365
O O2 0.180618 0.726254 0.404395
O O3 0.000000 0.710501 0.333334
O O4 0.234143 0.886825 0.291093
O O5 0.319798 0.960785 0.458451
O O6 0.093663 0.967350 0.479772
O O7 0.334472 0.182981 0.485780
O O8 0.230128 0.072600 0.365289
O O9 0.423071 0.783364 0.233339
O O10 0.258148 0.522148 0.197956
O O11 0.385643 0.615667 0.318918
O O12 0.448802 0.778524 0.103284
O O13 0.556844 0.000000 0.166667
O O14 0.958053 0.109790 0.899000
O O15 0.620032 0.192313 0.913225
O O16 0.274264 0.869227 0.070610
#
# Coordination Sequence:
#
# PCOD8322378 Si02
#       8
#     6   6   6   6   3   6   6   6
#     4  10  21  40  64  90 130 173 211 266 327 382
#     4  11  23  48  62  94 137 175 210 280 335 388
#     4  10  21  40  62  96 130 163 221 265 326 395
#     4  11  22  41  66  89 135 171 216 271 329 387
#     4  12  26  42  68  96 122 176 228 260 336 402
#     4   9  22  40  63  93 127 168 214 266 333 386
#     4  11  23  43  67  95 131 169 224 273 322 396
#     4  10  22  41  63 102 121 172 219 271 328 386
#
# _framework density 20.234178
#
# number of rings (size 3 to 8) (size 9 to 14) (size 15 to 20)
#    0.000    1.600    2.000    2.800    4.667    3.200 
#    7.200    0.000    0.000    0.000    0.000    0.000 
#    0.000    0.000    0.000    0.000    0.000    0.000 
#
# Total GULP energy -557471.822179 kJ/mol
# GULP energy per Si atom -12388.262715 kJ/mol
# Density = 2.018812 g / cm^3
# Si number density = 20.234178 Si / 1000 Ang^3
#
#
#
# Elastic Constant Matrix: (Units=GPa)
#
#
# Indices 1 2 3 4 5 6 
#
# 1 102.7198 44.3171 45.3599 -3.2679 0.0000 0.0000
# 2 44.3171 102.7198 45.3599 3.2679 0.0000 0.0000
# 3 45.3599 45.3599 133.2849 0.0000 0.0000 0.0000
# 4 -3.2679 3.2679 0.0000 24.8518 0.0000 0.0000
# 5 0.0000 0.0000 0.0000 0.0000 24.8518 -3.2679
# 6 0.0000 0.0000 0.0000 0.0000 -3.2679 29.2013
#
#
#
# Elastic Compliance Matrix: (Units=1/GPa)
#
#
# Indices 1 2 3 4 5 6 
#
# 1 0.012993 -0.004385 -0.002930 0.002285 0.000000 0.000000
# 2 -0.004385 0.012993 -0.002930 -0.002285 0.000000 0.000000
# 3 -0.002930 -0.002930 0.009497 0.000000 0.000000 0.000000
# 4 0.002285 -0.002285 0.000000 0.040840 0.000000 0.000000
# 5 0.000000 0.000000 0.000000 0.000000 0.040840 0.004570
# 6 0.000000 0.000000 0.000000 0.000000 0.004570 0.034756
#
#
# Mechanical properties :
#
#
# Convention : Reuss Voigt Hill
#
# Bulk Modulus (GPa) = 66.68800 67.64427 67.16613
# Shear Modulus (GPa) = 28.18392 29.36015 28.77203
#
# Velocity S-wave (km/s) = 3.73619 3.81335 3.77497
# Velocity P-wave (km/s) = 7.18622 7.27270 7.22959
#
# Compressibility (1/GPa) = 0.01499520
#
# Stress axis : x y z
#
# Youngs Moduli (GPa) = 76.96205 76.96205 105.29848
#
# Poissons Ratio (x) = 0.33746 0.30849
# Poissons Ratio (y) = 0.33746 0.30849
# Poissons Ratio (z) = 0.22548 0.22548
#
# Static dielectric constant tensor:
#      x y z
#    x 4.053560 0.000000 0.000000 
#    y 0.000000 4.053560 0.000000 
#    z 0.000000 0.000000 4.258150 
# 
# 
# High freq. dielectric constant tensor:
#      x y z
#    x 1.784260 0.000000 0.000000 
#    y 0.000000 1.784260 0.000000 
#    z 0.000000 0.000000 1.805740 
# 
# From -- ./inp_files/2516.got.cif
#   From: 2010.03.12/outbox.cif.g09.slc.cpg/sg154_2_cif.got.tgz:2516.got - 2010.04.03 13:51:21.
