data_PCOD8322052
_publ_section_title
;
Structure prediction by ZEFSAII (Michael W. Deem and Ramdas Pophale) SiO2 
 PCOD8322052
Probable space group: P 31 2 1
;
_chemical_formula_sum "Si O2"
_cell_formula_units_Z 42
_cell_length_a 8.562284
_cell_length_b 8.562284
_cell_length_c 34.405781
_cell_angle_alpha 90.000000
_cell_angle_beta 90.000000
_cell_angle_gamma 120.000000
_cell_volume 2184.445982
_symmetry_space_group_name_H-M "P 31 2 1"
_symmetry_group_IT_number 152
_symmetry_cell_setting 'hexagonal'
loop_
_space_group_symop_operation_xyz
x,y,z
-y,x-y,1/3+z
-x+y,-x,2/3+z
x-y,-y,2/3-z
-x,-x+y,1/3-z
y,x,-z
loop_
_atom_site_type_symbol
_atom_site_label
_atom_site_fract_x
_atom_site_fract_y
_atom_site_fract_z
Si Si1 0.860359 0.327854 0.250555
Si Si2 0.816728 0.375047 0.647684
Si Si3 0.663504 0.249914 0.531600
Si Si4 0.291325 0.043807 0.249434
Si Si5 0.235051 0.663015 0.272279
Si Si6 0.163816 0.052297 0.790841
Si Si7 0.451213 0.840999 0.542481
O O1 0.729467 0.248601 0.287072
O O2 0.778810 0.400053 0.217698
O O3 0.040711 0.495204 0.265620
O O4 0.890157 0.171334 0.231453
O O5 0.852189 0.232914 0.623298
O O6 0.675009 0.267285 0.681605
O O7 0.000000 0.528852 0.666667
O O8 0.855072 0.293124 0.549298
O O9 0.704764 0.293998 0.486321
O O10 0.498667 0.047601 0.538911
O O11 0.115468 0.056749 0.238042
O O12 0.241630 0.838039 0.253400
O O13 0.383373 0.624417 0.251842
O O14 0.367061 0.205425 0.799877
O O15 0.068683 0.000000 0.833334
#
# Coordination Sequence:
#
# PCOD8322052 Si02
#       7
#     6   6   6   6   6   6   6
#     4  10  21  36  60  85 117 150 194 246 294 346
#     4   9  20  41  61  77 113 156 197 236 288 347
#     4  10  19  36  55  83 112 159 192 240 288 363
#     4   9  20  38  57  80 112 156 194 233 301 354
#     4  10  21  38  57  85 114 155 194 249 293 350
#     4  10  19  37  57  85 119 155 182 242 305 350
#     4  10  20  34  57  80 119 154 195 236 301 349
#
# _framework density 19.226845000000001
#
# number of rings (size 3 to 8) (size 9 to 14) (size 15 to 20)
#    0.000    2.286    1.429    0.857    0.000    4.571 
#    7.714    3.571    0.000    0.000    0.000    0.000 
#    0.000    0.000    0.000    0.000    0.000    0.000 
#
# Total GULP energy -520644.894301 kJ/mol
# GULP energy per Si atom -12396.307007 kJ/mol
# Density = 1.918308 g / cm^3
# Si number density = 19.226845 Si / 1000 Ang^3
#
#
#
# Elastic Constant Matrix: (Units=GPa)
#
#
# Indices 1 2 3 4 5 6 
#
# 1 88.9759 36.4839 48.6341 1.5227 -0.0001 0.0000
# 2 36.4839 88.9759 48.6341 -1.5227 0.0001 0.0000
# 3 48.6341 48.6341 129.0982 0.0000 0.0000 0.0000
# 4 1.5227 -1.5227 0.0000 29.0983 0.0000 0.0001
# 5 -0.0001 0.0001 0.0000 0.0000 29.0983 1.5227
# 6 0.0000 0.0000 0.0000 0.0001 1.5227 26.2460
#
#
#
# Elastic Compliance Matrix: (Units=1/GPa)
#
#
# Indices 1 2 3 4 5 6 
#
# 1 0.015184 -0.003925 -0.004242 -0.001000 0.000000 0.000000
# 2 -0.003925 0.015184 -0.004242 0.001000 0.000000 0.000000
# 3 -0.004242 -0.004242 0.010942 0.000000 0.000000 0.000000
# 4 -0.001000 0.001000 0.000000 0.034471 0.000000 0.000000
# 5 0.000000 0.000000 0.000000 0.000000 0.034471 -0.002000
# 6 0.000000 0.000000 0.000000 0.000000 -0.002000 0.038217
#
#
# Mechanical properties :
#
#
# Convention : Reuss Voigt Hill
#
# Bulk Modulus (GPa) = 60.62868 63.83935 62.23401
# Shear Modulus (GPa) = 27.96703 28.44172 28.20438
#
# Velocity S-wave (km/s) = 3.81804 3.85030 3.83420
# Velocity P-wave (km/s) = 7.14411 7.28298 7.21388
#
# Compressibility (1/GPa) = 0.01649384
#
# Stress axis : x y z
#
# Youngs Moduli (GPa) = 65.85954 65.85954 91.39261
#
# Poissons Ratio (x) = 0.25848 0.38765
# Poissons Ratio (y) = 0.25848 0.38765
# Poissons Ratio (z) = 0.27935 0.27935
#
# Static dielectric constant tensor:
#      x y z
#    x 3.485410 0.000000 0.000000 
#    y 0.000000 3.485410 0.000000 
#    z 0.000000 0.000000 3.781280 
# 
# 
# High freq. dielectric constant tensor:
#      x y z
#    x 1.739070 0.000000 0.000000 
#    y 0.000000 1.739070 0.000000 
#    z 0.000000 0.000000 1.758310 
# 
# From -- ./inp_files/3731.got.cif
#   From: 2010.03.12/outbox.cif.g09.slc.cpg/sg152_2_cif.got.tgz:3731.got - 2010.04.03 13:45:27.
