data_PCOD8322469
_publ_section_title
;
Structure prediction by ZEFSAII (Michael W. Deem and Ramdas Pophale) SiO2 
 PCOD8322469
Probable space group: R 3 2
;
_chemical_formula_sum "Si O2"
_cell_formula_units_Z 75
_cell_length_a 11.983153
_cell_length_b 11.983153
_cell_length_c 28.329769
_cell_angle_alpha 90.000000
_cell_angle_beta 90.000000
_cell_angle_gamma 120.000000
_cell_volume 3523.026207
_symmetry_space_group_name_H-M "R 3 2"
_symmetry_group_IT_number 155
_symmetry_cell_setting 'hexagonal'
loop_
_space_group_symop_operation_xyz
x,y,z
-y,x-y,z
-x+y,-x,z
x-y,-y,-z
-x,-x+y,-z
y,x,-z
2/3+x,1/3+y,1/3+z
2/3-y,1/3+x-y,1/3+z
2/3-x+y,1/3-x,1/3+z
2/3+x-y,1/3-y,1/3-z
2/3-x,1/3-x+y,1/3-z
2/3+y,1/3+x,1/3-z
1/3+x,2/3+y,2/3+z
1/3-y,2/3+x-y,2/3+z
1/3-x+y,2/3-x,2/3+z
1/3+x-y,2/3-y,2/3-z
1/3-x,2/3-x+y,2/3-z
1/3+y,2/3+x,2/3-z
loop_
_atom_site_type_symbol
_atom_site_label
_atom_site_fract_x
_atom_site_fract_y
_atom_site_fract_z
Si Si1 0.343477 0.000000 0.000000
Si Si2 0.235736 0.396637 0.403367
Si Si3 0.666667 0.333334 0.732061
Si Si4 0.000000 0.000000 0.288176
Si Si5 0.852710 0.144894 0.496813
Si Si6 0.174068 0.288928 0.603194
O O1 0.206730 0.884407 0.020455
O O2 0.441844 0.044870 0.043582
O O3 0.345505 0.544331 0.395339
O O4 0.219555 0.385588 0.459566
O O5 0.277752 0.298001 0.381093
O O6 0.666668 0.333334 0.676593
O O7 0.577079 0.185691 0.747651
O O8 0.797089 0.164885 0.446306
O O9 0.000000 0.250234 0.500000
O O10 0.829213 0.000000 0.500000
#
# Coordination Sequence:
#
# PCOD8322469 Si02
#       6
#     9  18   6   6  18  18
#     4  12  20  34  58  96 136 166 208 282 334 392
#     4  11  23  37  60  91 135 171 213 274 333 388
#     4  12  18  33  61  94 132 162 211 280 330 379
#     4  12  24  42  60  91 139 175 223 279 327 391
#     4  10  18  33  55  87 126 169 217 263 326 389
#     4  11  20  35  61  93 134 171 216 269 337 391
#
# _framework density 21.288516000000001
#
# number of rings (size 3 to 8) (size 9 to 14) (size 15 to 20)
#    0.000    0.960    7.200    1.680    0.000    0.000 
#    0.000    3.600    0.000    0.000    0.000    0.000 
#   24.000    0.000    0.000    0.000    0.000    0.000 
#
# Total GULP energy -309808.625752 kJ/mol
# GULP energy per Si atom -12392.345030 kJ/mol
# Density = 2.124006 g / cm^3
# Si number density = 21.288516 Si / 1000 Ang^3
#
#
#
# Elastic Constant Matrix: (Units=GPa)
#
#
# Indices 1 2 3 4 5 6 
#
# 1 95.2809 22.9228 41.7006 32.7768 0.0000 0.0000
# 2 22.9228 95.2827 41.6996 -32.7791 0.0000 0.0000
# 3 41.7006 41.6996 150.2539 0.0005 0.0000 0.0000
# 4 32.7768 -32.7791 0.0005 78.2359 0.0000 0.0000
# 5 0.0000 0.0000 0.0000 0.0000 78.2365 32.7780
# 6 0.0000 0.0000 0.0000 0.0000 32.7780 36.1791
#
#
#
# Elastic Compliance Matrix: (Units=1/GPa)
#
#
# Indices 1 2 3 4 5 6 
#
# 1 0.016397 -0.005878 -0.002920 -0.009332 0.000000 0.000000
# 2 -0.005878 0.016397 -0.002920 0.009333 0.000000 0.000000
# 3 -0.002920 -0.002920 0.008276 0.000000 0.000000 0.000000
# 4 -0.009332 0.009333 0.000000 0.020602 0.000000 0.000000
# 5 0.000000 0.000000 0.000000 0.000000 0.020602 -0.018665
# 6 0.000000 0.000000 0.000000 0.000000 -0.018665 0.044551
#
#
# Mechanical properties :
#
#
# Convention : Reuss Voigt Hill
#
# Bulk Modulus (GPa) = 56.69798 61.49593 59.09696
# Shear Modulus (GPa) = 32.02313 54.16326 43.09319
#
# Velocity S-wave (km/s) = 3.88267 5.04953 4.50404
# Velocity P-wave (km/s) = 6.84040 7.93389 7.40735
#
# Compressibility (1/GPa) = 0.01763731
#
# Stress axis : x y z
#
# Youngs Moduli (GPa) = 60.98526 60.98544 120.83212
#
# Poissons Ratio (x) = 0.35844 0.35279
# Poissons Ratio (y) = 0.35844 0.35277
# Poissons Ratio (z) = 0.17805 0.17805
#
# Static dielectric constant tensor:
#      x y z
#    x 1.960690 0.000000 0.000000 
#    y 0.000000 1.960560 -0.000060 
#    z 0.000000 -0.000060 4.370910 
# 
# 
# High freq. dielectric constant tensor:
#      x y z
#    x 1.791770 0.000000 0.000000 
#    y 0.000000 1.791770 0.000000 
#    z 0.000000 0.000000 1.866800 
# 
# From -- ./inp_files/8303.got.cif
#   From: 2010.03.12/outbox.cif.g09.slc.cpg/sg155_5_cif.got.tgz:8303.got - 2010.04.03 13:54:13.
