data_PCOD8322557
_publ_section_title
;
Structure prediction by ZEFSAII (Michael W. Deem and Ramdas Pophale) SiO2 
 PCOD8322557
Probable space group: R 3 2
;
_chemical_formula_sum "Si O2"
_cell_formula_units_Z 108
_cell_length_a 17.736557
_cell_length_b 17.736557
_cell_length_c 19.635987
_cell_angle_alpha 90.000000
_cell_angle_beta 90.000000
_cell_angle_gamma 120.000000
_cell_volume 5349.608564
_symmetry_space_group_name_H-M "R 3 2"
_symmetry_group_IT_number 155
_symmetry_cell_setting 'hexagonal'
loop_
_space_group_symop_operation_xyz
x,y,z
-y,x-y,z
-x+y,-x,z
x-y,-y,-z
-x,-x+y,-z
y,x,-z
2/3+x,1/3+y,1/3+z
2/3-y,1/3+x-y,1/3+z
2/3-x+y,1/3-x,1/3+z
2/3+x-y,1/3-y,1/3-z
2/3-x,1/3-x+y,1/3-z
2/3+y,1/3+x,1/3-z
1/3+x,2/3+y,2/3+z
1/3-y,2/3+x-y,2/3+z
1/3-x+y,2/3-x,2/3+z
1/3+x-y,2/3-y,2/3-z
1/3-x,2/3-x+y,2/3-z
1/3+y,2/3+x,2/3-z
loop_
_atom_site_type_symbol
_atom_site_label
_atom_site_fract_x
_atom_site_fract_y
_atom_site_fract_z
Si Si1 0.178684 0.915675 0.392621
Si Si2 0.225113 0.851569 0.040652
Si Si3 0.898673 0.572860 0.751207
Si Si4 0.761765 0.597409 0.497139
Si Si5 0.914399 0.577721 0.542656
Si Si6 0.929087 0.421423 0.557811
O O1 0.226958 0.893625 0.333334
O O2 0.073054 0.862950 0.385688
O O3 0.200520 0.889443 0.464771
O O4 0.209560 0.017300 0.396148
O O5 0.147274 0.752291 0.049323
O O6 0.202189 0.914854 0.085313
O O7 0.240334 0.884103 0.962366
O O8 0.896217 0.562883 0.833334
O O9 0.955877 0.678065 0.734899
O O10 0.832443 0.565740 0.498632
O O11 0.673843 0.526240 0.534725
O O12 0.885937 0.481966 0.571043
O O13 0.000000 0.602426 0.500000
O O14 0.000000 0.451107 0.500000
#
# Coordination Sequence:
#
# PCOD8322557 Si02
#       6
#    18  18  18  18  18  18
#     4  11  22  38  61  93 127 165 210 260 314 375
#     4  12  23  38  66  91 123 173 209 257 326 376
#     4  10  21  39  63  89 124 169 205 257 309 394
#     4  11  22  41  63  90 127 166 211 262 320 381
#     4   9  19  43  62  91 122 162 209 259 315 369
#     4  11  25  39  61  94 127 158 219 272 310 382
#
# _framework density 20.188392
#
# number of rings (size 3 to 8) (size 9 to 14) (size 15 to 20)
#    0.000    1.333    6.667    1.500    4.667    0.000 
#    2.000    0.000    0.000    0.000    0.000    0.000 
#    0.000    0.000    0.000    0.000    0.000    0.000 
#
# Total GULP energy -445991.463504 kJ/mol
# GULP energy per Si atom -12388.651764 kJ/mol
# Density = 2.014244 g / cm^3
# Si number density = 20.188392 Si / 1000 Ang^3
#
#
#
# Elastic Constant Matrix: (Units=GPa)
#
#
# Indices 1 2 3 4 5 6 
#
# 1 98.9160 44.6247 30.8430 -4.8633 0.0000 0.0000
# 2 44.6247 98.9160 30.8430 4.8633 0.0000 0.0000
# 3 30.8430 30.8430 110.1954 0.0000 0.0000 0.0000
# 4 -4.8633 4.8633 0.0000 22.3658 0.0000 0.0000
# 5 0.0000 0.0000 0.0000 0.0000 22.3658 -4.8633
# 6 0.0000 0.0000 0.0000 0.0000 -4.8633 27.1457
#
#
#
# Elastic Compliance Matrix: (Units=1/GPa)
#
#
# Indices 1 2 3 4 5 6 
#
# 1 0.013542 -0.005623 -0.002217 0.004167 0.000000 0.000000
# 2 -0.005623 0.013542 -0.002217 -0.004167 0.000000 0.000000
# 3 -0.002217 -0.002217 0.010316 0.000000 0.000000 0.000000
# 4 0.004167 -0.004167 0.000000 0.046524 0.000000 0.000000
# 5 0.000000 0.000000 0.000000 0.000000 0.046524 0.008335
# 6 0.000000 0.000000 0.000000 0.000000 0.008335 0.038332
#
#
# Mechanical properties :
#
#
# Convention : Reuss Voigt Hill
#
# Bulk Modulus (GPa) = 57.84407 57.84985 57.84696
# Shear Modulus (GPa) = 25.68653 27.82323 26.75488
#
# Velocity S-wave (km/s) = 3.57086 3.71641 3.64436
# Velocity P-wave (km/s) = 6.76134 6.86534 6.81354
#
# Compressibility (1/GPa) = 0.01728786
#
# Stress axis : x y z
#
# Youngs Moduli (GPa) = 73.84166 73.84166 96.94079
#
# Poissons Ratio (x) = 0.41523 0.21487
# Poissons Ratio (y) = 0.41523 0.21487
# Poissons Ratio (z) = 0.16367 0.16367
#
# Static dielectric constant tensor:
#      x y z
#    x 3.852480 0.000000 0.000000 
#    y 0.000000 3.852480 0.000000 
#    z 0.000000 0.000000 3.765220 
# 
# 
# High freq. dielectric constant tensor:
#      x y z
#    x 1.775870 0.000000 0.000000 
#    y 0.000000 1.775870 0.000000 
#    z 0.000000 0.000000 1.794020 
# 
# From -- ./inp_files/6992.got.cif
#   From: 2010.03.12/outbox.cif.g09.slc.cpg/sg155_4_cif.got.tgz:6992.got - 2010.04.03 13:54:13.
