data_PCOD8322239
_publ_section_title
;
Structure prediction by ZEFSAII (Michael W. Deem and Ramdas Pophale) SiO2 
 PCOD8322239
Probable space group: P 32 1 2
;
_chemical_formula_sum "Si O2"
_cell_formula_units_Z 30
_cell_length_a 9.381314
_cell_length_b 9.381314
_cell_length_c 20.040553
_cell_angle_alpha 90.000000
_cell_angle_beta 90.000000
_cell_angle_gamma 120.000000
_cell_volume 1527.452374
_symmetry_space_group_name_H-M "P 32 1 2"
_symmetry_group_IT_number 153
_symmetry_cell_setting 'hexagonal'
loop_
_space_group_symop_operation_xyz
x,y,z
-y,x-y,2/3+z
-x+y,-x,1/3+z
-y,-x,1/3-z
-x+y,y,2/3-z
x,x-y,-z
loop_
_atom_site_type_symbol
_atom_site_label
_atom_site_fract_x
_atom_site_fract_y
_atom_site_fract_z
Si Si1 0.663444 0.524212 0.390253
Si Si2 0.046498 0.953503 0.666667
Si Si3 0.723903 0.361952 0.500000
Si Si4 0.376629 0.836320 0.973012
Si Si5 0.309404 0.304054 0.232543
Si Si6 0.800989 0.817713 0.241505
O O1 0.721123 0.442245 0.333334
O O2 0.608470 0.403840 0.454331
O O3 0.509623 0.542722 0.367500
O O4 0.824672 0.698228 0.408391
O O5 0.226103 0.026422 0.700418
O O6 0.066257 0.073526 0.605806
O O7 0.834503 0.517965 0.547497
O O8 0.235170 0.861592 0.941747
O O9 0.510336 0.863875 0.916387
O O10 0.301054 0.650527 0.000000
O O11 0.180285 0.224628 0.171369
#
# Coordination Sequence:
#
# PCOD8322239 Si02
#       6
#     6   3   3   6   6   6
#     4   9  16  33  62  85 112 162 205 246 297 378
#     4  12  22  36  62  96 122 152 216 262 300 360
#     4  10  18  36  64  86 118 166 212 244 320 374
#     4  11  19  36  64  88 119 163 207 246 307 372
#     4  11  20  34  65  88 117 165 207 248 310 380
#     4  10  20  40  61  84 124 161 206 250 309 367
#
# _framework density 19.640547000000002
#
# number of rings (size 3 to 8) (size 9 to 14) (size 15 to 20)
#    0.000    1.600   10.000    0.600    0.000    0.000 
#    0.000    2.000   22.000    0.000    0.000    0.000 
#    0.000    0.000    0.000    0.000    0.000    0.000 
#
# Total GULP energy -371719.647808 kJ/mol
# GULP energy per Si atom -12390.654927 kJ/mol
# Density = 1.959584 g / cm^3
# Si number density = 19.640547 Si / 1000 Ang^3
#
#
#
# Elastic Constant Matrix: (Units=GPa)
#
#
# Indices 1 2 3 4 5 6 
#
# 1 73.0290 18.4079 28.2208 0.0000 4.0661 0.0000
# 2 18.4079 73.0290 28.2208 0.0000 -4.0661 0.0000
# 3 28.2208 28.2208 93.1240 0.0000 0.0000 0.0000
# 4 0.0000 0.0000 0.0000 32.0482 0.0000 -4.0661
# 5 4.0661 -4.0661 0.0000 0.0000 32.0482 0.0000
# 6 0.0000 0.0000 0.0000 -4.0661 0.0000 27.3106
#
#
#
# Elastic Compliance Matrix: (Units=1/GPa)
#
#
# Indices 1 2 3 4 5 6 
#
# 1 0.016057 -0.002604 -0.004077 0.000000 -0.002368 0.000000
# 2 -0.002604 0.016057 -0.004077 0.000000 0.002368 0.000000
# 3 -0.004077 -0.004077 0.013209 0.000000 0.000000 0.000000
# 4 0.000000 0.000000 0.000000 0.031804 0.000000 0.004735
# 5 -0.002368 0.002368 0.000000 0.000000 0.031804 0.000000
# 6 0.000000 0.000000 0.000000 0.004735 0.000000 0.037321
#
#
# Mechanical properties :
#
#
# Convention : Reuss Voigt Hill
#
# Bulk Modulus (GPa) = 42.00283 43.20898 42.60590
# Shear Modulus (GPa) = 28.45727 29.23689 28.84708
#
# Velocity S-wave (km/s) = 3.81058 3.86242 3.83659
# Velocity P-wave (km/s) = 6.38693 6.47601 6.43162
#
# Compressibility (1/GPa) = 0.02380792
#
# Stress axis : x y z
#
# Youngs Moduli (GPa) = 62.27911 62.27911 75.70403
#
# Poissons Ratio (x) = 0.16215 0.30864
# Poissons Ratio (y) = 0.16215 0.30864
# Poissons Ratio (z) = 0.25391 0.25391
#
# Static dielectric constant tensor:
#      x y z
#    x 3.389350 0.000000 0.000000 
#    y 0.000000 3.389350 0.000000 
#    z 0.000000 0.000000 4.069750 
# 
# 
# High freq. dielectric constant tensor:
#      x y z
#    x 1.737960 0.000000 0.000000 
#    y 0.000000 1.737960 0.000000 
#    z 0.000000 0.000000 1.781870 
# 
# From -- ./inp_files/4305.got.cif
#   From: 2010.03.12/outbox.cif.g09.slc.cpg/sg153_3_cif.got.tgz:4305.got - 2010.04.03 13:48:33.
