data_PCOD8322543
_publ_section_title
;
Structure prediction by ZEFSAII (Michael W. Deem and Ramdas Pophale) SiO2 
 PCOD8322543
Probable space group: R 3 2
;
_chemical_formula_sum "Si O2"
_cell_formula_units_Z 45
_cell_length_a 8.593853
_cell_length_b 8.593853
_cell_length_c 33.052328
_cell_angle_alpha 90.000000
_cell_angle_beta 90.000000
_cell_angle_gamma 120.000000
_cell_volume 2114.017251
_symmetry_space_group_name_H-M "R 3 2"
_symmetry_group_IT_number 155
_symmetry_cell_setting 'hexagonal'
loop_
_space_group_symop_operation_xyz
x,y,z
-y,x-y,z
-x+y,-x,z
x-y,-y,-z
-x,-x+y,-z
y,x,-z
2/3+x,1/3+y,1/3+z
2/3-y,1/3+x-y,1/3+z
2/3-x+y,1/3-x,1/3+z
2/3+x-y,1/3-y,1/3-z
2/3-x,1/3-x+y,1/3-z
2/3+y,1/3+x,1/3-z
1/3+x,2/3+y,2/3+z
1/3-y,2/3+x-y,2/3+z
1/3-x+y,2/3-x,2/3+z
1/3+x-y,2/3-y,2/3-z
1/3-x,2/3-x+y,2/3-z
1/3+y,2/3+x,2/3-z
loop_
_atom_site_type_symbol
_atom_site_label
_atom_site_fract_x
_atom_site_fract_y
_atom_site_fract_z
Si Si1 0.534156 0.666667 0.166667
Si Si2 0.669995 0.672812 0.413450
Si Si3 0.330252 0.328183 0.047652
O O1 0.510072 0.843405 0.166667
O O2 0.642594 0.656017 0.128446
O O3 0.529265 0.469740 0.401289
O O4 0.605025 0.800216 0.393036
O O5 0.867050 0.730842 0.397210
O O6 0.306631 0.306631 0.000000
#
# Coordination Sequence:
#
# PCOD8322543 Si02
#       3
#     9  18  18
#     4  10  20  46  72  94 134 174 226 282 340 398
#     4  12  25  43  72  98 137 182 222 282 339 397
#     4  12  24  43  66 102 139 179 226 275 336 407
#
# _framework density 21.286487000000001
#
# number of rings (size 3 to 8) (size 9 to 14) (size 15 to 20)
#    0.400    0.000    4.000    6.000    0.000    3.200 
#    0.000    0.000    0.000    0.000    0.000    0.000 
#    0.000    0.000    0.000    0.000    0.000    0.000 
#
# Total GULP energy -186116.954127 kJ/mol
# GULP energy per Si atom -12407.796942 kJ/mol
# Density = 2.123804 g / cm^3
# Si number density = 21.286487 Si / 1000 Ang^3
#
#
#
# Elastic Constant Matrix: (Units=GPa)
#
#
# Indices 1 2 3 4 5 6 
#
# 1 85.3186 20.4741 49.4723 2.5917 0.0007 0.0000
# 2 20.4741 85.3186 49.4723 -2.5917 -0.0007 0.0000
# 3 49.4723 49.4723 218.5351 0.0000 0.0000 0.0000
# 4 2.5917 -2.5917 0.0000 14.5162 0.0000 -0.0007
# 5 0.0007 -0.0007 0.0000 0.0000 14.5162 2.5917
# 6 0.0000 0.0000 0.0000 -0.0007 2.5917 32.4222
#
#
#
# Elastic Compliance Matrix: (Units=1/GPa)
#
#
# Indices 1 2 3 4 5 6 
#
# 1 0.013818 -0.001827 -0.002715 -0.002793 -0.000001 0.000000
# 2 -0.001827 0.013818 -0.002715 0.002793 0.000001 0.000000
# 3 -0.002715 -0.002715 0.005805 0.000000 0.000000 0.000000
# 4 -0.002793 0.002793 0.000000 0.069886 0.000000 0.000002
# 5 -0.000001 0.000001 0.000000 0.000000 0.069886 -0.005586
# 6 0.000000 0.000000 0.000000 0.000002 -0.005586 0.031290
#
#
# Mechanical properties :
#
#
# Convention : Reuss Voigt Hill
#
# Bulk Modulus (GPa) = 52.82839 69.77886 61.30362
# Shear Modulus (GPa) = 22.19026 30.27450 26.23238
#
# Velocity S-wave (km/s) = 3.23221 3.77535 3.51429
# Velocity P-wave (km/s) = 6.22907 7.20114 6.73267
#
# Compressibility (1/GPa) = 0.01892921
#
# Stress axis : x y z
#
# Youngs Moduli (GPa) = 72.36902 72.36902 172.26530
#
# Poissons Ratio (x) = 0.13220 0.46763
# Poissons Ratio (y) = 0.13220 0.46763
# Poissons Ratio (z) = 0.19645 0.19645
#
# Static dielectric constant tensor:
#      x y z
#    x 4.035730 0.000000 0.000000 
#    y 0.000000 4.035730 0.000000 
#    z 0.000000 0.000000 3.911790 
# 
# 
# High freq. dielectric constant tensor:
#      x y z
#    x 1.832280 0.000000 0.000000 
#    y 0.000000 1.832280 0.000000 
#    z 0.000000 0.000000 1.851760 
# 
# From -- ./inp_files/8129.got.cif
#   From: 2010.03.12/outbox.cif.g09.slc.cpg/sg155_5_cif.got.tgz:8129.got - 2010.04.03 13:54:13.
