data_PCOD8322961
_publ_section_title
;
Structure prediction by ZEFSAII (Michael W. Deem and Ramdas Pophale) SiO2 
 PCOD8322961
Probable space group: P -3 1 M 
;
_chemical_formula_sum "Si O2"
_cell_formula_units_Z 60
_cell_length_a 18.229022
_cell_length_b 18.229022
_cell_length_c 10.457496
_cell_angle_alpha 90.000000
_cell_angle_beta 90.000000
_cell_angle_gamma 120.000000
_cell_volume 3009.435758
_symmetry_space_group_name_H-M "P -3 1 M "
_symmetry_group_IT_number 162
_symmetry_cell_setting 'hexagonal'
loop_
_space_group_symop_operation_xyz
x,y,z
-y,x-y,z
-x+y,-x,z
-y,-x,-z
-x+y,y,-z
x,x-y,-z
-x,-y,-z
y,-x+y,-z
x-y,x,-z
y,x,z
x-y,-y,z
-x,-x+y,z
loop_
_atom_site_type_symbol
_atom_site_label
_atom_site_fract_x
_atom_site_fract_y
_atom_site_fract_z
Si Si1 0.515302 0.902675 0.416907
Si Si2 0.904533 0.594578 0.080902
Si Si3 0.843147 0.587694 0.818456
Si Si4 0.559950 0.095778 0.847013
Si Si5 0.659715 0.903874 0.546402
O O1 0.429018 0.858035 0.500000
O O2 0.495038 0.893310 0.267003
O O3 0.573592 0.863835 0.460765
O O4 0.568783 0.000000 0.461258
O O5 0.830759 0.582523 0.178985
O O6 0.892800 0.499833 0.042031
O O7 0.000000 0.655592 0.136803
O O8 0.894589 0.633721 0.948048
O O9 0.835511 0.494220 0.821383
O O10 0.895412 0.639811 0.696896
O O11 0.545135 0.000000 0.843457
O O12 0.705633 0.852817 0.500000
O O13 0.724857 0.000000 0.513504
#
# Coordination Sequence:
#
# PCOD8322961 Si02
#       5
#    12  12  12  12  12
#     4   9  16  29  51  76 103 136 174 217 267 325
#     4  10  22  37  54  81 116 150 188 235 285 332
#     4  11  21  35  57  82 107 149 195 230 275 337
#     4  10  18  33  56  79 107 145 184 225 278 335
#     4  11  22  36  57  84 112 145 189 237 287 340
#
# _framework density 19.937290999999998
#
# number of rings (size 3 to 8) (size 9 to 14) (size 15 to 20)
#    0.000    1.800    2.000    3.600    0.000    4.000 
#    1.200    0.000    0.000    0.600    0.000    0.000 
#    0.000    0.000    0.000   23.200    0.000    0.000 
#
# Total GULP energy -743486.414816 kJ/mol
# GULP energy per Si atom -12391.440247 kJ/mol
# Density = 1.989191 g / cm^3
# Si number density = 19.937291 Si / 1000 Ang^3
#
#
#
# Elastic Constant Matrix: (Units=GPa)
#
#
# Indices 1 2 3 4 5 6 
#
# 1 114.7589 61.1254 28.7215 0.0000 -1.8642 0.0000
# 2 61.1254 114.7589 28.7215 0.0000 1.8642 0.0000
# 3 28.7215 28.7215 72.9072 0.0000 0.0000 0.0000
# 4 0.0000 0.0000 0.0000 26.2995 0.0000 1.8642
# 5 -1.8642 1.8642 0.0000 0.0000 26.2995 0.0000
# 6 0.0000 0.0000 0.0000 1.8642 0.0000 26.8167
#
#
#
# Elastic Compliance Matrix: (Units=1/GPa)
#
#
# Indices 1 2 3 4 5 6 
#
# 1 0.012631 -0.006106 -0.002571 0.000000 0.001328 0.000000
# 2 -0.006106 0.012631 -0.002571 0.000000 -0.001328 0.000000
# 3 -0.002571 -0.002571 0.015741 0.000000 0.000000 0.000000
# 4 0.000000 0.000000 0.000000 0.038212 0.000000 -0.002656
# 5 0.001328 -0.001328 0.000000 0.000000 0.038212 0.000000
# 6 0.000000 0.000000 0.000000 -0.002656 0.000000 0.037475
#
#
# Mechanical properties :
#
#
# Convention : Reuss Voigt Hill
#
# Bulk Modulus (GPa) = 54.02655 59.95130 56.98892
# Shear Modulus (GPa) = 27.23809 28.14027 27.68918
#
# Velocity S-wave (km/s) = 3.70021 3.76099 3.73072
# Velocity P-wave (km/s) = 6.73888 6.99966 6.87051
#
# Compressibility (1/GPa) = 0.01850942
#
# Stress axis : x y z
#
# Youngs Moduli (GPa) = 79.16878 79.16878 63.52689
#
# Poissons Ratio (x) = 0.48342 0.16330
# Poissons Ratio (y) = 0.48342 0.16330
# Poissons Ratio (z) = 0.20351 0.20351
#
# Static dielectric constant tensor:
#      x y z
#    x 3.455360 0.000000 0.000000 
#    y 0.000000 3.455360 0.000000 
#    z 0.000000 0.000000 4.008910 
# 
# 
# High freq. dielectric constant tensor:
#      x y z
#    x 1.745450 0.000000 0.000000 
#    y 0.000000 1.745450 0.000000 
#    z 0.000000 0.000000 1.820370 
# 
# From -- ./inp_files/2344.got.cif
#   From: 2010.03.12/outbox.cif.g09.slc.cpg/sg162_2_cif.got.tgz:2344.got - 2010.04.02 06:27:41.
