data_PCOD8322700
_publ_section_title
;
Structure prediction by ZEFSAII (Michael W. Deem and Ramdas Pophale) SiO2 
 PCOD8322700
Probable space group: P 3 M 1
;
_chemical_formula_sum "Si O2"
_cell_formula_units_Z 42
_cell_length_a 12.549228
_cell_length_b 12.549228
_cell_length_c 17.809861
_cell_angle_alpha 90.000000
_cell_angle_beta 90.000000
_cell_angle_gamma 120.000000
_cell_volume 2428.986949
_symmetry_space_group_name_H-M "P 3 M 1"
_symmetry_group_IT_number 156
_symmetry_cell_setting 'hexagonal'
loop_
_space_group_symop_operation_xyz
x,y,z
-y,x-y,z
-x+y,-x,z
-x+y,y,z
x,x-y,z
-y,-x,z
loop_
_atom_site_type_symbol
_atom_site_label
_atom_site_fract_x
_atom_site_fract_y
_atom_site_fract_z
Si Si1 0.914815 0.334302 0.941840
Si Si2 0.333584 0.422268 0.637698
Si Si3 0.333554 0.912093 0.808508
Si Si4 0.581376 0.665091 0.081930
Si Si5 0.249508 0.001568 0.364105
Si Si6 0.914091 0.332965 0.504021
Si Si7 0.416625 0.333354 0.223066
O O1 0.874512 0.437256 0.945932
O O2 0.796604 0.203397 0.955210
O O3 0.973302 0.334901 0.861265
O O4 0.014349 0.357177 0.005065
O O5 0.203226 0.406451 0.614971
O O6 0.434843 0.565158 0.627681
O O7 0.332726 0.379215 0.723019
O O8 0.362734 0.337248 0.584393
O O9 0.436432 0.872863 0.820533
O O10 0.203923 0.796078 0.830961
O O11 0.592275 0.796138 0.086885
O O12 0.438745 0.561256 0.085405
O O13 0.656209 0.652202 0.150504
O O14 0.129707 0.870294 0.359240
O O15 0.210641 0.105321 0.360304
O O16 0.318726 0.009840 0.441108
O O17 0.337436 0.014456 0.295694
O O18 0.918161 0.459081 0.484575
O O19 0.773197 0.226804 0.506254
O O20 0.433396 0.216698 0.212646
O O21 0.550101 0.449900 0.233495
#
# Coordination Sequence:
#
# PCOD8322700 Si02
#       7
#     6   6   6   6   6   6   6
#     4  10  20  33  50  72  99 131 165 202 244 291
#     4   9  17  30  49  73  99 127 160 200 246 293
#     4   9  17  30  50  74  98 125 159 201 247 293
#     4  10  20  34  53  76 101 129 162 203 249 293
#     4  10  20  34  52  73  98 129 165 204 244 287
#     4  10  20  33  50  72  99 131 165 202 244 291
#     4  10  20  34  54  78 104 134 166 200 238 284
#
# _framework density 17.291160000000001
#
# number of rings (size 3 to 8) (size 9 to 14) (size 15 to 20)
#    0.000    2.286    0.000    3.143    0.000    1.714 
#    0.000    4.286    0.000   12.000    0.000    0.000 
#    0.000    0.000    0.000    0.000    0.000    0.000 
#
# Total GULP energy -520923.504913 kJ/mol
# GULP energy per Si atom -12402.940593 kJ/mol
# Density = 1.725180 g / cm^3
# Si number density = 17.291160 Si / 1000 Ang^3
#
#
#
# Elastic Constant Matrix: (Units=GPa)
#
#
# Indices 1 2 3 4 5 6 
#
# 1 101.2118 60.4223 51.6314 0.5423 -0.0003 0.0000
# 2 60.4223 101.2118 51.6314 -0.5423 0.0003 0.0000
# 3 51.6314 51.6314 110.4384 0.0000 0.0000 0.0000
# 4 0.5423 -0.5423 0.0000 23.8805 0.0000 0.0003
# 5 -0.0003 0.0003 0.0000 0.0000 23.8805 0.5423
# 6 0.0000 0.0000 0.0000 0.0003 0.5423 20.3948
#
#
#
# Elastic Compliance Matrix: (Units=1/GPa)
#
#
# Indices 1 2 3 4 5 6 
#
# 1 0.016676 -0.007855 -0.004124 -0.000557 0.000000 0.000000
# 2 -0.007855 0.016676 -0.004124 0.000557 0.000000 0.000000
# 3 -0.004124 -0.004124 0.012911 0.000000 0.000000 0.000000
# 4 -0.000557 0.000557 0.000000 0.041901 0.000000 -0.000001
# 5 0.000000 0.000000 0.000000 0.000000 0.041901 -0.001114
# 6 0.000000 0.000000 0.000000 -0.000001 -0.001114 0.049062
#
#
# Mechanical properties :
#
#
# Convention : Reuss Voigt Hill
#
# Bulk Modulus (GPa) = 71.13666 71.13690 71.13678
# Shear Modulus (GPa) = 23.14616 23.57627 23.36121
#
# Velocity S-wave (km/s) = 3.66267 3.69655 3.67965
# Velocity P-wave (km/s) = 7.68874 7.71033 7.69954
#
# Compressibility (1/GPa) = 0.01405745
#
# Stress axis : x y z
#
# Youngs Moduli (GPa) = 59.96541 59.96541 77.45283
#
# Poissons Ratio (x) = 0.47101 0.31943
# Poissons Ratio (y) = 0.47101 0.31943
# Poissons Ratio (z) = 0.24731 0.24731
#
# Static dielectric constant tensor:
#      x y z
#    x 3.108280 0.000000 0.000000 
#    y 0.000000 3.108280 0.000000 
#    z 0.000000 0.000000 3.466780 
# 
# 
# High freq. dielectric constant tensor:
#      x y z
#    x 1.663430 0.000000 0.000000 
#    y 0.000000 1.663430 0.000000 
#    z 0.000000 0.000000 1.685280 
# 
# From -- ./inp_files/942.got.cif
#   From: 2010.03.12/outbox.cif.g09.slc.cpg/sg156_cif.got.tgz:942.got - 2010.04.03 13:58:47.
