data_PCOD8322478
_publ_section_title
;
Structure prediction by ZEFSAII (Michael W. Deem and Ramdas Pophale) SiO2 
 PCOD8322478
Probable space group: R 3 2
;
_chemical_formula_sum "Si O2"
_cell_formula_units_Z 108
_cell_length_a 13.451082
_cell_length_b 13.451082
_cell_length_c 32.972634
_cell_angle_alpha 90.000000
_cell_angle_beta 90.000000
_cell_angle_gamma 120.000000
_cell_volume 5166.527128
_symmetry_space_group_name_H-M "R 3 2"
_symmetry_group_IT_number 155
_symmetry_cell_setting 'hexagonal'
loop_
_space_group_symop_operation_xyz
x,y,z
-y,x-y,z
-x+y,-x,z
x-y,-y,-z
-x,-x+y,-z
y,x,-z
2/3+x,1/3+y,1/3+z
2/3-y,1/3+x-y,1/3+z
2/3-x+y,1/3-x,1/3+z
2/3+x-y,1/3-y,1/3-z
2/3-x,1/3-x+y,1/3-z
2/3+y,1/3+x,1/3-z
1/3+x,2/3+y,2/3+z
1/3-y,2/3+x-y,2/3+z
1/3-x+y,2/3-x,2/3+z
1/3+x-y,2/3-y,2/3-z
1/3-x,2/3-x+y,2/3-z
1/3+y,2/3+x,2/3-z
loop_
_atom_site_type_symbol
_atom_site_label
_atom_site_fract_x
_atom_site_fract_y
_atom_site_fract_z
Si Si1 0.304014 0.197314 0.338253
Si Si2 0.419928 0.160650 0.080180
Si Si3 0.430141 0.022211 0.743413
Si Si4 0.838323 0.573132 0.563607
Si Si5 0.808443 0.592203 0.704466
Si Si6 0.466681 0.930505 0.174416
O O1 0.385772 0.333334 0.333334
O O2 0.275669 0.121598 0.298449
O O3 0.365808 0.155722 0.370868
O O4 0.177318 0.168166 0.354573
O O5 0.540529 0.163202 0.083930
O O6 0.434771 0.263936 0.109209
O O7 0.315424 0.034716 0.092570
O O8 0.459389 0.150726 0.730026
O O9 0.515603 0.028983 0.778920
O O10 0.912056 0.666348 0.597617
O O11 0.835852 0.626459 0.520356
O O12 0.802596 0.666667 0.666667
O O13 0.333334 0.880015 0.166667
O O14 0.500340 0.833673 0.166667
#
# Coordination Sequence:
#
# PCOD8322478 Si02
#       6
#    18  18  18  18  18  18
#     4  11  22  38  65 100 138 184 225 280 345 413
#     4  11  22  41  71  96 142 176 233 284 345 404
#     4  11  24  41  65 100 140 180 227 288 347 418
#     4  11  22  43  66 102 129 185 228 285 338 416
#     4  10  18  37  61  95 141 168 226 269 344 413
#     4  12  25  46  69  99 140 177 231 283 356 423
#
# _framework density 20.903790000000001
#
# number of rings (size 3 to 8) (size 9 to 14) (size 15 to 20)
#    0.000    1.000    6.667    4.000    0.000    0.000 
#    4.000    0.000    0.000    2.667    0.000    0.000 
#    0.000    0.000    0.000    0.000    0.000    0.000 
#
# Total GULP energy -446100.507162 kJ/mol
# GULP energy per Si atom -12391.680754 kJ/mol
# Density = 2.085621 g / cm^3
# Si number density = 20.903790 Si / 1000 Ang^3
#
#
#
# Elastic Constant Matrix: (Units=GPa)
#
#
# Indices 1 2 3 4 5 6 
#
# 1 96.4547 43.5501 44.3418 3.0859 0.0001 0.0000
# 2 43.5501 96.4547 44.3418 -3.0859 -0.0001 0.0000
# 3 44.3418 44.3418 121.4024 0.0000 0.0000 0.0000
# 4 3.0859 -3.0859 0.0000 34.4879 0.0000 -0.0001
# 5 0.0001 -0.0001 0.0000 0.0000 34.4879 3.0859
# 6 0.0000 0.0000 0.0000 -0.0001 3.0859 26.4523
#
#
#
# Elastic Compliance Matrix: (Units=1/GPa)
#
#
# Indices 1 2 3 4 5 6 
#
# 1 0.014197 -0.004904 -0.003394 -0.001709 0.000000 0.000000
# 2 -0.004904 0.014197 -0.003394 0.001709 0.000000 0.000000
# 3 -0.003394 -0.003394 0.010716 0.000000 0.000000 0.000000
# 4 -0.001709 0.001709 0.000000 0.029302 0.000000 0.000000
# 5 0.000000 0.000000 0.000000 0.000000 0.029302 -0.003418
# 6 0.000000 0.000000 0.000000 0.000000 -0.003418 0.038203
#
#
# Mechanical properties :
#
#
# Convention : Reuss Voigt Hill
#
# Bulk Modulus (GPa) = 63.59218 64.30881 63.95049
# Shear Modulus (GPa) = 30.38725 31.22417 30.80571
#
# Velocity S-wave (km/s) = 3.81684 3.86905 3.84303
# Velocity P-wave (km/s) = 7.06483 7.12673 7.09585
#
# Compressibility (1/GPa) = 0.01572520
#
# Stress axis : x y z
#
# Youngs Moduli (GPa) = 70.43779 70.43779 93.31487
#
# Poissons Ratio (x) = 0.34546 0.31672
# Poissons Ratio (y) = 0.34546 0.31672
# Poissons Ratio (z) = 0.23907 0.23907
#
# Static dielectric constant tensor:
#      x y z
#    x 3.804550 0.000000 0.000000 
#    y 0.000000 3.804550 0.000000 
#    z 0.000000 0.000000 3.998970 
# 
# 
# High freq. dielectric constant tensor:
#      x y z
#    x 1.803000 0.000000 0.000000 
#    y 0.000000 1.803000 0.000000 
#    z 0.000000 0.000000 1.827410 
# 
# From -- ./inp_files/8452.got.cif
#   From: 2010.03.12/outbox.cif.g09.slc.cpg/sg155_5_cif.got.tgz:8452.got - 2010.04.03 13:54:13.
