data_PCOD8322330
_publ_section_title
;
Structure prediction by ZEFSAII (Michael W. Deem and Ramdas Pophale) SiO2 
 PCOD8322330
Probable space group: P 32 2 1
;
_chemical_formula_sum "Si O2"
_cell_formula_units_Z 48
_cell_length_a 16.894813
_cell_length_b 16.894813
_cell_length_c 12.936108
_cell_angle_alpha 90.000000
_cell_angle_beta 90.000000
_cell_angle_gamma 120.000000
_cell_volume 3197.724488
_symmetry_space_group_name_H-M "P 32 2 1"
_symmetry_group_IT_number 154
_symmetry_cell_setting 'hexagonal'
loop_
_space_group_symop_operation_xyz
x,y,z
-y,x-y,2/3+z
-x+y,-x,1/3+z
x-y,-y,1/3-z
-x,-x+y,2/3-z
y,x,-z
loop_
_atom_site_type_symbol
_atom_site_label
_atom_site_fract_x
_atom_site_fract_y
_atom_site_fract_z
Si Si1 0.027304 0.580820 0.449279
Si Si2 0.150777 0.654971 0.113612
Si Si3 0.266714 0.503621 0.583573
Si Si4 0.510446 0.283550 0.890752
Si Si5 0.923756 0.393754 0.069563
Si Si6 0.463780 0.898350 0.139879
Si Si7 0.281576 0.640480 0.265660
Si Si8 0.360614 0.887365 0.333922
O O1 0.119726 0.678846 0.460527
O O2 0.045255 0.504954 0.499621
O O3 0.000000 0.548194 0.333334
O O4 0.941422 0.584695 0.499901
O O5 0.233261 0.682440 0.193821
O O6 0.120990 0.558039 0.063187
O O7 0.182913 0.729315 0.022299
O O8 0.159487 0.456737 0.556957
O O9 0.325595 0.493493 0.491518
O O10 0.316580 0.610988 0.608206
O O11 0.542724 0.261622 0.780790
O O12 0.454451 0.192218 0.960407
O O13 0.603099 0.360387 0.951737
O O14 0.010905 0.387497 0.025383
O O15 0.886131 0.432368 0.978699
O O16 0.376247 0.875714 0.212806
O O17 0.544260 0.000000 0.166667
#
# Coordination Sequence:
#
# PCOD8322330 Si02
#       8
#     6   6   6   6   6   6   6   6
#     4  11  21  31  42  61  87 117 151 188 238 270
#     4   9  18  29  40  57  87 110 146 191 222 257
#     4  11  18  27  46  64  83 114 151 187 219 259
#     4  11  20  30  45  63  85 117 155 195 228 272
#     4  10  20  30  43  63  87 112 149 187 228 263
#     4   9  17  30  43  59  84 110 144 186 223 261
#     4  11  17  27  42  63  79 110 156 182 211 258
#     4   8  17  31  43  59  82 112 142 191 232 257
#
# _framework density 15.010675000000001
#
# number of rings (size 3 to 8) (size 9 to 14) (size 15 to 20)
#    0.000    2.000    6.250    1.500    0.000    0.000 
#    0.000    0.000    0.000    0.000    0.000    0.000 
#    0.000    0.000    0.000    2.250    0.000    0.375 
#
# Total GULP energy -594653.694179 kJ/mol
# GULP energy per Si atom -12388.618629 kJ/mol
# Density = 1.497651 g / cm^3
# Si number density = 15.010675 Si / 1000 Ang^3
#
#
#
# Elastic Constant Matrix: (Units=GPa)
#
#
# Indices 1 2 3 4 5 6 
#
# 1 62.6023 26.6082 13.3339 -1.3664 0.0000 0.0000
# 2 26.6082 62.6023 13.3339 1.3664 0.0000 0.0000
# 3 13.3339 13.3339 46.0511 0.0000 0.0000 0.0000
# 4 -1.3664 1.3664 0.0000 19.2233 0.0000 0.0000
# 5 0.0000 0.0000 0.0000 0.0000 19.2233 -1.3664
# 6 0.0000 0.0000 0.0000 0.0000 -1.3664 17.9970
#
#
#
# Elastic Compliance Matrix: (Units=1/GPa)
#
#
# Indices 1 2 3 4 5 6 
#
# 1 0.020102 -0.007831 -0.003553 0.001986 0.000000 0.000000
# 2 -0.007831 0.020102 -0.003553 -0.001986 0.000000 0.000000
# 3 -0.003553 -0.003553 0.023773 0.000000 0.000000 0.000000
# 4 0.001986 -0.001986 0.000000 0.052302 0.000000 0.000000
# 5 0.000000 0.000000 0.000000 0.000000 0.052302 0.003971
# 6 0.000000 0.000000 0.000000 0.000000 0.003971 0.055866
#
#
# Mechanical properties :
#
#
# Convention : Reuss Voigt Hill
#
# Bulk Modulus (GPa) = 29.32289 30.86755 30.09522
# Shear Modulus (GPa) = 18.81891 19.15405 18.98648
#
# Velocity S-wave (km/s) = 3.54461 3.57603 3.56035
# Velocity P-wave (km/s) = 6.02739 6.13669 6.08229
#
# Compressibility (1/GPa) = 0.03410305
#
# Stress axis : x y z
#
# Youngs Moduli (GPa) = 49.74544 49.74544 42.06514
#
# Poissons Ratio (x) = 0.38954 0.14947
# Poissons Ratio (y) = 0.38954 0.14947
# Poissons Ratio (z) = 0.17676 0.17676
#
# Static dielectric constant tensor:
#      x y z
#    x 2.956100 0.000000 0.000000 
#    y 0.000000 2.956100 0.000000 
#    z 0.000000 0.000000 3.238500 
# 
# 
# High freq. dielectric constant tensor:
#      x y z
#    x 1.535110 0.000000 0.000000 
#    y 0.000000 1.535110 0.000000 
#    z 0.000000 0.000000 1.594170 
# 
# From -- ./inp_files/1813.got.cif
#   From: 2010.03.12/outbox.cif.g09.slc.cpg/sg154_1_cif.got.tgz:1813.got - 2010.04.03 13:51:21.
