data_PCOD8322665
_publ_section_title
;
Structure prediction by ZEFSAII (Michael W. Deem and Ramdas Pophale) SiO2 
 PCOD8322665
Probable space group: P 3 M 1
;
_chemical_formula_sum "Si O2"
_cell_formula_units_Z 48
_cell_length_a 12.736715
_cell_length_b 12.736715
_cell_length_c 20.238453
_cell_angle_alpha 90.000000
_cell_angle_beta 90.000000
_cell_angle_gamma 120.000000
_cell_volume 2843.300794
_symmetry_space_group_name_H-M "P 3 M 1"
_symmetry_group_IT_number 156
_symmetry_cell_setting 'hexagonal'
loop_
_space_group_symop_operation_xyz
x,y,z
-y,x-y,z
-x+y,-x,z
-x+y,y,z
x,x-y,z
-y,-x,z
loop_
_atom_site_type_symbol
_atom_site_label
_atom_site_fract_x
_atom_site_fract_y
_atom_site_fract_z
Si Si1 0.908093 0.574418 0.685510
Si Si2 0.331975 0.911810 0.042624
Si Si3 0.752968 0.998048 0.921710
Si Si4 0.666858 0.091253 0.535217
Si Si5 0.999923 0.758169 0.308035
Si Si6 0.757777 0.758151 0.157398
Si Si7 0.578997 0.912239 0.421678
Si Si8 0.333152 0.911828 0.800545
O O1 0.795215 0.590430 0.705733
O O2 0.866690 0.433345 0.694159
O O3 0.949656 0.617236 0.610475
O O4 0.022081 0.657986 0.731484
O O5 0.460924 0.921847 0.034624
O O6 0.228946 0.771055 0.038796
O O7 0.327876 0.971190 0.112091
O O8 0.314376 0.987674 0.985081
O O9 0.792046 0.896023 0.923422
O O10 0.675023 0.985041 0.857193
O O11 0.871748 0.128253 0.921353
O O12 0.561898 0.123795 0.523990
O O13 0.791492 0.208509 0.516318
O O14 0.649753 0.984103 0.487157
O O15 0.874436 0.748872 0.326934
O O16 0.000129 0.717538 0.232703
O O17 0.018339 0.668748 0.355825
O O18 0.103751 0.896249 0.319289
O O19 0.872184 0.744368 0.137508
O O20 0.796586 0.898293 0.146393
O O21 0.448573 0.897145 0.416714
O O22 0.562241 0.781120 0.426939
O O23 0.455133 0.910265 0.817585
O O24 0.225512 0.774489 0.795292
#
# Coordination Sequence:
#
# PCOD8322665 Si02
#       8
#     6   6   6   6   6   6   6   6
#     4   9  17  30  49  72  96 122 154 194 239 283
#     4  10  20  33  50  72  99 131 164 196 230 273
#     4  10  20  34  53  75  97 122 155 198 245 288
#     4   9  17  30  49  71  93 119 154 197 241 282
#     4   9  17  30  49  72  95 120 153 195 242 286
#     4   9  17  30  50  74  97 121 152 194 241 285
#     4  10  20  32  46  66  94 128 162 194 232 280
#     4  10  20  33  50  72  99 131 164 196 230 273
#
# _framework density 16.881788
#
# number of rings (size 3 to 8) (size 9 to 14) (size 15 to 20)
#    0.000    2.500    0.000    2.500    0.000    3.000 
#    0.000    2.500    0.000    9.000    0.000    0.000 
#    0.000    0.000    0.000    0.000    0.000    0.000 
#
# Total GULP energy -595273.766817 kJ/mol
# GULP energy per Si atom -12401.536809 kJ/mol
# Density = 1.684336 g / cm^3
# Si number density = 16.881788 Si / 1000 Ang^3
#
#
#
# Elastic Constant Matrix: (Units=GPa)
#
#
# Indices 1 2 3 4 5 6 
#
# 1 106.6383 63.5219 65.6034 0.6442 0.0003 0.0000
# 2 63.5219 106.6383 65.6034 -0.6442 -0.0003 0.0000
# 3 65.6034 65.6034 115.0204 0.0000 0.0000 0.0000
# 4 0.6442 -0.6442 0.0000 25.7008 0.0000 -0.0003
# 5 0.0003 -0.0003 0.0000 0.0000 25.7008 0.6442
# 6 0.0000 0.0000 0.0000 -0.0003 0.6442 21.5582
#
#
#
# Elastic Compliance Matrix: (Units=1/GPa)
#
#
# Indices 1 2 3 4 5 6 
#
# 1 0.016850 -0.006360 -0.005983 -0.000582 0.000000 0.000000
# 2 -0.006360 0.016850 -0.005983 0.000582 0.000000 0.000000
# 3 -0.005983 -0.005983 0.015519 0.000000 0.000000 0.000000
# 4 -0.000582 0.000582 0.000000 0.038938 0.000000 0.000001
# 5 0.000000 0.000000 0.000000 0.000000 0.038938 -0.001164
# 6 0.000000 0.000000 0.000000 0.000001 -0.001164 0.046421
#
#
# Mechanical properties :
#
#
# Convention : Reuss Voigt Hill
#
# Bulk Modulus (GPa) = 79.57392 79.75049 79.66220
# Shear Modulus (GPa) = 23.32520 23.49653 23.41086
#
# Velocity S-wave (km/s) = 3.72113 3.73477 3.72795
# Velocity P-wave (km/s) = 8.10559 8.12041 8.11301
#
# Compressibility (1/GPa) = 0.01256693
#
# Stress axis : x y z
#
# Youngs Moduli (GPa) = 59.34566 59.34566 64.43508
#
# Poissons Ratio (x) = 0.37744 0.38554
# Poissons Ratio (y) = 0.37744 0.38554
# Poissons Ratio (z) = 0.35509 0.35509
#
# Static dielectric constant tensor:
#      x y z
#    x 3.062050 0.000000 0.000000 
#    y 0.000000 3.062050 0.000000 
#    z 0.000000 0.000000 3.396410 
# 
# 
# High freq. dielectric constant tensor:
#      x y z
#    x 1.645030 0.000000 0.000000 
#    y 0.000000 1.645030 0.000000 
#    z 0.000000 0.000000 1.665070 
# 
# From -- ./inp_files/1086.got.cif
#   From: 2010.03.12/outbox.cif.g09.slc.cpg/sg156_cif.got.tgz:1086.got - 2010.04.03 13:58:47.
