data_PCOD8322894
_publ_section_title
;
Structure prediction by ZEFSAII (Michael W. Deem and Ramdas Pophale) SiO2 
 PCOD8322894
Probable space group: R 3 C
;
_chemical_formula_sum "Si O2"
_cell_formula_units_Z 66
_cell_length_a 14.805411
_cell_length_b 14.805411
_cell_length_c 14.382033
_cell_angle_alpha 90.000000
_cell_angle_beta 90.000000
_cell_angle_gamma 120.000000
_cell_volume 2730.183568
_symmetry_space_group_name_H-M "R 3 C"
_symmetry_group_IT_number 161
_symmetry_cell_setting 'hexagonal'
loop_
_space_group_symop_operation_xyz
x,y,z
-y,x-y,z
-x+y,-x,z
-x+y,y,1/2+z
x,x-y,1/2+z
-y,-x,1/2+z
2/3+x,1/3+y,1/3+z
2/3-y,1/3+x-y,1/3+z
2/3-x+y,1/3-x,1/3+z
2/3-x+y,1/3+y,5/6+z
2/3+x,1/3+x-y,5/6+z
2/3-y,1/3-x,5/6+z
1/3+x,2/3+y,2/3+z
1/3-y,2/3+x-y,2/3+z
1/3-x+y,2/3-x,2/3+z
1/3-x+y,2/3+y,1/6+z
1/3+x,2/3+x-y,1/6+z
1/3-y,2/3-x,1/6+z
loop_
_atom_site_type_symbol
_atom_site_label
_atom_site_fract_x
_atom_site_fract_y
_atom_site_fract_z
Si Si1 0.000000 0.000000 0.068707
Si Si2 0.976883 0.322232 0.007616
Si Si3 0.333334 0.666668 0.455908
Si Si4 0.434944 0.213462 0.612816
Si Si5 0.108875 0.231582 0.073275
O O1 0.000000 0.000000 0.178917
O O2 0.071137 0.117341 0.030416
O O3 0.904171 0.280921 0.100034
O O4 0.065524 0.289236 0.007201
O O5 0.902248 0.273869 0.915905
O O6 0.032078 0.447162 0.010291
O O7 0.400872 0.615844 0.493335
O O8 0.447649 0.174094 0.510302
#
# Coordination Sequence:
#
# PCOD8322894 Si02
#       5
#     6  18   6  18  18
#     4   9  15  36  60  85 116 181 198 238 320 388
#     4  10  20  39  60  98 120 174 209 257 321 383
#     4   9  18  36  57  88 122 160 213 259 311 361
#     4   9  21  37  64  90 126 169 212 261 317 387
#     4   9  20  34  65  87 126 164 216 253 305 393
#
# _framework density 24.174199999999999
#
# number of rings (size 3 to 8) (size 9 to 14) (size 15 to 20)
#    1.636    1.091    0.000    1.636    3.818    0.000 
#    4.909    0.000    0.000    0.000    0.000    0.000 
#    0.000    0.000    0.000    0.000    0.000    0.000 
#
# Total GULP energy -272618.090641 kJ/mol
# GULP energy per Si atom -12391.731393 kJ/mol
# Density = 2.411918 g / cm^3
# Si number density = 24.174200 Si / 1000 Ang^3
#
#
#
# Elastic Constant Matrix: (Units=GPa)
#
#
# Indices 1 2 3 4 5 6 
#
# 1 146.3025 60.9643 -2.9773 3.3181 0.0000 0.0000
# 2 60.9643 146.3016 -2.9777 -3.3178 0.0000 0.0000
# 3 -2.9773 -2.9777 14.6741 0.0000 0.0000 0.0000
# 4 3.3181 -3.3178 0.0000 26.6961 0.0000 0.0000
# 5 0.0000 0.0000 0.0000 0.0000 26.6962 3.3179
# 6 0.0000 0.0000 0.0000 0.0000 3.3179 42.6687
#
#
#
# Elastic Compliance Matrix: (Units=1/GPa)
#
#
# Indices 1 2 3 4 5 6 
#
# 1 0.008343 -0.003490 0.000985 -0.001471 0.000000 0.000000
# 2 -0.003490 0.008343 0.000985 0.001471 0.000000 0.000000
# 3 0.000985 0.000985 0.068547 0.000000 0.000000 0.000000
# 4 -0.001471 0.001471 0.000000 0.037824 0.000000 0.000000
# 5 0.000000 0.000000 0.000000 0.000000 0.037824 -0.002941
# 6 0.000000 0.000000 0.000000 0.000000 -0.002941 0.023665
#
#
# Mechanical properties :
#
#
# Convention : Reuss Voigt Hill
#
# Bulk Modulus (GPa) = 12.16668 46.36632 29.26650
# Shear Modulus (GPa) = 23.25758 36.03011 29.64384
#
# Velocity S-wave (km/s) = 3.10511 3.86481 3.50560
# Velocity P-wave (km/s) = 4.23078 6.25599 5.34026
#
# Compressibility (1/GPa) = 0.08219171
#
# Stress axis : x y z
#
# Youngs Moduli (GPa) = 119.86498 119.86412 14.58855
#
# Poissons Ratio (x) = 0.41830 -0.01436
# Poissons Ratio (y) = 0.41830 -0.01437
# Poissons Ratio (z) = -0.11801 -0.11805
#
# Static dielectric constant tensor:
#      x y z
#    x 4.147210 0.000000 0.000000 
#    y 0.000000 4.147190 0.000000 
#    z 0.000000 0.000000 3.595940 
# 
# 
# High freq. dielectric constant tensor:
#      x y z
#    x 1.957100 0.000000 0.000000 
#    y 0.000000 1.957100 0.000000 
#    z 0.000000 0.000000 1.915640 
# 
# From -- ./inp_files/1221.got.cif
#   From: 2010.03.12/outbox.cif.g09.slc.cpg/sg161_cif.got.tgz:1221.got - 2010.04.02 06:27:14.
