data_PCOD8322903
_publ_section_title
;
Structure prediction by ZEFSAII (Michael W. Deem and Ramdas Pophale) SiO2 
 PCOD8322903
Probable space group: R 3 C
;
_chemical_formula_sum "Si O2"
_cell_formula_units_Z 102
_cell_length_a 13.982549
_cell_length_b 13.982549
_cell_length_c 28.386110
_cell_angle_alpha 90.000000
_cell_angle_beta 90.000000
_cell_angle_gamma 120.000000
_cell_volume 4806.281605
_symmetry_space_group_name_H-M "R 3 C"
_symmetry_group_IT_number 161
_symmetry_cell_setting 'hexagonal'
loop_
_space_group_symop_operation_xyz
x,y,z
-y,x-y,z
-x+y,-x,z
-x+y,y,1/2+z
x,x-y,1/2+z
-y,-x,1/2+z
2/3+x,1/3+y,1/3+z
2/3-y,1/3+x-y,1/3+z
2/3-x+y,1/3-x,1/3+z
2/3-x+y,1/3+y,5/6+z
2/3+x,1/3+x-y,5/6+z
2/3-y,1/3-x,5/6+z
1/3+x,2/3+y,2/3+z
1/3-y,2/3+x-y,2/3+z
1/3-x+y,2/3-x,2/3+z
1/3-x+y,2/3+y,1/6+z
1/3+x,2/3+x-y,1/6+z
1/3-y,2/3-x,1/6+z
loop_
_atom_site_type_symbol
_atom_site_label
_atom_site_fract_x
_atom_site_fract_y
_atom_site_fract_z
Si Si1 0.588403 0.834366 0.302719
Si Si2 0.666667 0.333334 0.059516
Si Si3 0.758588 0.567124 0.712866
Si Si4 0.763893 0.290790 0.308987
Si Si5 0.798435 0.532294 0.496302
Si Si6 0.000000 0.000000 0.335534
Si Si7 0.949020 0.606946 0.876543
O O1 0.672698 0.860823 0.346366
O O2 0.517829 0.896485 0.308205
O O3 0.498899 0.705105 0.296152
O O4 0.643217 0.880301 0.252384
O O5 0.666668 0.333334 0.114122
O O6 0.711857 0.459126 0.043319
O O7 0.808508 0.550781 0.762055
O O8 0.698237 0.453290 0.685740
O O9 0.662120 0.594963 0.723661
O O10 0.788629 0.418321 0.309164
O O11 0.823628 0.275603 0.355504
O O12 0.911473 0.646095 0.501331
#
# Coordination Sequence:
#
# PCOD8322903 Si02
#       7
#    18   6  18  18  18   6  18
#     4  10  23  39  68  94 139 180 235 297 361 428
#     4   9  18  36  66  85 128 178 219 291 357 405
#     4  11  24  45  65 104 136 183 247 293 363 444
#     4  10  24  46  66  98 143 187 233 283 375 433
#     4   9  21  40  56  98 132 168 233 291 351 418
#     4  12  21  42  72  88 140 187 228 303 360 417
#     4  11  25  40  67 103 132 185 241 290 357 433
#
# _framework density 21.222225999999999
#
# number of rings (size 3 to 8) (size 9 to 14) (size 15 to 20)
#    0.353    1.412    1.765    1.412    4.941    8.471 
#    0.000    0.000    0.000    0.000    0.000    0.000 
#    0.000    0.000    0.000    0.000    0.000    0.000 
#
# Total GULP energy -421224.973612 kJ/mol
# GULP energy per Si atom -12388.969812 kJ/mol
# Density = 2.117392 g / cm^3
# Si number density = 21.222226 Si / 1000 Ang^3
#
#
#
# Elastic Constant Matrix: (Units=GPa)
#
#
# Indices 1 2 3 4 5 6 
#
# 1 98.4665 27.5215 24.4802 3.4759 0.0000 0.0000
# 2 27.5215 98.4673 24.4798 -3.4756 0.0000 0.0000
# 3 24.4802 24.4798 86.2645 0.0000 0.0000 0.0000
# 4 3.4759 -3.4756 0.0000 29.1405 0.0000 0.0000
# 5 0.0000 0.0000 0.0000 0.0000 29.1404 3.4758
# 6 0.0000 0.0000 0.0000 0.0000 3.4758 35.4724
#
#
#
# Elastic Compliance Matrix: (Units=1/GPa)
#
#
# Indices 1 2 3 4 5 6 
#
# 1 0.011592 -0.002670 -0.002532 -0.001701 0.000000 0.000000
# 2 -0.002670 0.011591 -0.002532 0.001701 0.000000 0.000000
# 3 -0.002532 -0.002532 0.013029 0.000000 0.000000 0.000000
# 4 -0.001701 0.001701 0.000000 0.034722 0.000000 0.000000
# 5 0.000000 0.000000 0.000000 0.000000 0.034722 -0.003402
# 6 0.000000 0.000000 0.000000 0.000000 -0.003402 0.028524
#
#
# Mechanical properties :
#
#
# Convention : Reuss Voigt Hill
#
# Bulk Modulus (GPa) = 48.20494 48.46237 48.33365
# Shear Modulus (GPa) = 31.93590 32.53176 32.23383
#
# Velocity S-wave (km/s) = 3.88343 3.91949 3.90150
# Velocity P-wave (km/s) = 6.54765 6.58547 6.56658
#
# Compressibility (1/GPa) = 0.02074476
#
# Stress axis : x y z
#
# Youngs Moduli (GPa) = 86.26933 86.27038 76.75140
#
# Poissons Ratio (x) = 0.23038 0.19431
# Poissons Ratio (y) = 0.23038 0.19430
# Poissons Ratio (z) = 0.21840 0.21840
#
# Static dielectric constant tensor:
#      x y z
#    x 3.833680 0.000000 0.000000 
#    y 0.000000 3.833670 0.000000 
#    z 0.000000 0.000000 3.767380 
# 
# 
# High freq. dielectric constant tensor:
#      x y z
#    x 1.832720 0.000000 0.000000 
#    y 0.000000 1.832720 0.000000 
#    z 0.000000 0.000000 1.821740 
# 
# From -- ./inp_files/2402.got.cif
#   From: 2010.03.12/outbox.cif.g09.slc.cpg/sg161_cif.got.tgz:2402.got - 2010.04.02 06:27:14.
