data_PCOD8322155
_publ_section_title
;
Structure prediction by ZEFSAII (Michael W. Deem and Ramdas Pophale) SiO2 
 PCOD8322155
Probable space group: P 31 2 1
;
_chemical_formula_sum "Si O2"
_cell_formula_units_Z 36
_cell_length_a 8.677208
_cell_length_b 8.677208
_cell_length_c 27.140857
_cell_angle_alpha 90.000000
_cell_angle_beta 90.000000
_cell_angle_gamma 120.000000
_cell_volume 1769.759305
_symmetry_space_group_name_H-M "P 31 2 1"
_symmetry_group_IT_number 152
_symmetry_cell_setting 'hexagonal'
loop_
_space_group_symop_operation_xyz
x,y,z
-y,x-y,1/3+z
-x+y,-x,2/3+z
x-y,-y,2/3-z
-x,-x+y,1/3-z
y,x,-z
loop_
_atom_site_type_symbol
_atom_site_label
_atom_site_fract_x
_atom_site_fract_y
_atom_site_fract_z
Si Si1 0.684191 0.125286 0.879002
Si Si2 0.317205 0.368924 0.056636
Si Si3 0.538356 0.932742 0.608664
Si Si4 0.506145 0.726105 0.107926
Si Si5 0.336394 0.084384 0.122772
Si Si6 0.580610 0.593035 0.625210
O O1 0.694430 0.315219 0.874289
O O2 0.886414 0.167095 0.882733
O O3 0.580297 0.000000 0.833334
O O4 0.575867 0.013066 0.927011
O O5 0.476009 0.548650 0.080582
O O6 0.293568 0.204559 0.087908
O O7 0.127358 0.354576 0.061684
O O8 0.365359 0.365359 0.000000
O O9 0.420218 0.895814 0.559869
O O10 0.557349 0.763871 0.621039
O O11 0.722823 0.113404 0.598006
O O12 0.437103 0.972615 0.651774
O O13 0.640307 0.779415 0.153571
#
# Coordination Sequence:
#
# PCOD8322155 Si02
#       6
#     6   6   6   6   6   6
#     4  10  22  40  62  90 124 165 213 263 322 390
#     4  11  22  39  64  92 130 170 210 272 329 387
#     4  11  22  41  64  92 124 169 217 266 320 395
#     4  10  23  41  62  94 122 171 216 260 330 397
#     4  11  22  40  65  90 131 164 212 267 327 389
#     4  11  23  40  64  91 126 168 218 265 328 386
#
# _framework density 20.341747999999999
#
# number of rings (size 3 to 8) (size 9 to 14) (size 15 to 20)
#    0.000    1.333    1.667    6.000    0.000    2.667 
#    0.000    1.667    0.000    0.000    0.000    0.000 
#    0.000    0.000    0.000    0.000    0.000    0.000 
#
# Total GULP energy -446431.869781 kJ/mol
# GULP energy per Si atom -12400.885272 kJ/mol
# Density = 2.029545 g / cm^3
# Si number density = 20.341748 Si / 1000 Ang^3
#
#
#
# Elastic Constant Matrix: (Units=GPa)
#
#
# Indices 1 2 3 4 5 6 
#
# 1 97.7039 37.4775 33.9422 -4.2111 -0.0003 0.0000
# 2 37.4775 97.7039 33.9422 4.2111 0.0003 0.0000
# 3 33.9422 33.9422 84.3282 0.0000 0.0000 0.0000
# 4 -4.2111 4.2111 0.0000 34.5170 0.0000 0.0003
# 5 -0.0003 0.0003 0.0000 0.0000 34.5170 -4.2111
# 6 0.0000 0.0000 0.0000 0.0003 -4.2111 30.1132
#
#
#
# Elastic Compliance Matrix: (Units=1/GPa)
#
#
# Indices 1 2 3 4 5 6 
#
# 1 0.013082 -0.003810 -0.003732 0.002061 0.000000 0.000000
# 2 -0.003810 0.013082 -0.003732 -0.002061 0.000000 0.000000
# 3 -0.003732 -0.003732 0.014863 0.000000 0.000000 0.000000
# 4 0.002061 -0.002061 0.000000 0.029474 0.000000 0.000000
# 5 0.000000 0.000000 0.000000 0.000000 0.029474 0.004122
# 6 0.000000 0.000000 0.000000 0.000000 0.004122 0.033784
#
#
# Mechanical properties :
#
#
# Convention : Reuss Voigt Hill
#
# Bulk Modulus (GPa) = 54.11739 54.49553 54.30646
# Shear Modulus (GPa) = 30.77568 31.45440 31.11504
#
# Velocity S-wave (km/s) = 3.89386 3.93657 3.91527
# Velocity P-wave (km/s) = 6.84676 6.89277 6.86980
#
# Compressibility (1/GPa) = 0.01847835
#
# Stress axis : x y z
#
# Youngs Moduli (GPa) = 76.44190 76.44190 67.28341
#
# Poissons Ratio (x) = 0.29127 0.25109
# Poissons Ratio (y) = 0.29127 0.25109
# Poissons Ratio (z) = 0.28526 0.28526
#
# Static dielectric constant tensor:
#      x y z
#    x 3.714830 0.000000 0.000000 
#    y 0.000000 3.714830 0.000000 
#    z 0.000000 0.000000 3.827520 
# 
# 
# High freq. dielectric constant tensor:
#      x y z
#    x 1.792640 0.000000 0.000000 
#    y 0.000000 1.792640 0.000000 
#    z 0.000000 0.000000 1.807720 
# 
# From -- ./inp_files/3367.got.cif
#   From: 2010.03.12/outbox.cif.g09.slc.cpg/sg152_2_cif.got.tgz:3367.got - 2010.04.03 13:45:27.
