data_PCOD8322798
_publ_section_title
;
Structure prediction by ZEFSAII (Michael W. Deem and Ramdas Pophale) SiO2 
 PCOD8322798
Probable space group: P 3 1 C
;
_chemical_formula_sum "Si O2"
_cell_formula_units_Z 36
_cell_length_a 16.430475
_cell_length_b 16.430475
_cell_length_c 9.096516
_cell_angle_alpha 90.000000
_cell_angle_beta 90.000000
_cell_angle_gamma 120.000000
_cell_volume 2126.698659
_symmetry_space_group_name_H-M "P 3 1 C"
_symmetry_group_IT_number 159
_symmetry_cell_setting 'hexagonal'
loop_
_space_group_symop_operation_xyz
x,y,z
-y,x-y,z
-x+y,-x,z
y,x,1/2+z
x-y,-y,1/2+z
-x,-x+y,1/2+z
loop_
_atom_site_type_symbol
_atom_site_label
_atom_site_fract_x
_atom_site_fract_y
_atom_site_fract_z
Si Si1 0.906769 0.809793 0.699170
Si Si2 0.623786 0.718508 0.202260
Si Si3 0.243102 0.553171 0.707599
Si Si4 0.376214 0.094722 0.042553
Si Si5 0.243103 0.553171 0.037214
Si Si6 0.903025 0.093231 0.045643
O O1 0.824259 0.704478 0.665968
O O2 0.884070 0.884070 0.622406
O O3 0.000000 0.820579 0.622407
O O4 0.922036 0.830744 0.872407
O O5 0.642962 0.642962 0.122406
O O6 0.619404 0.696055 0.372406
O O7 0.525085 0.706612 0.154465
O O8 0.353990 0.586516 0.685959
O O9 0.181527 0.474915 0.590347
O O10 0.211135 0.512803 0.872406
O O11 0.295522 0.119780 0.078845
O O12 0.353990 0.586516 0.058853
#
# Coordination Sequence:
#
# PCOD8322798 Si02
#       6
#     6   6   6   6   6   6
#     4  10  20  33  49  71  99 133 170 209 253 301
#     4  10  20  33  52  77 104 135 172 211 254 301
#     4   8  17  34  55  76 100 132 166 204 254 302
#     4  10  20  33  52  77 104 135 172 211 254 301
#     4   8  17  34  55  76 100 132 166 204 254 302
#     4  10  20  33  49  71  99 133 170 209 253 301
#
# _framework density 16.927644999999998
#
# number of rings (size 3 to 8) (size 9 to 14) (size 15 to 20)
#    0.667    2.000    0.000    2.333    0.000    5.333 
#    0.000    1.667    0.000    4.000    0.000    0.000 
#    0.000    0.000    0.000    0.000    0.000    0.000 
#
# Total GULP energy -446263.984068 kJ/mol
# GULP energy per Si atom -12396.221780 kJ/mol
# Density = 1.688912 g / cm^3
# Si number density = 16.927645 Si / 1000 Ang^3
#
#
#
# Elastic Constant Matrix: (Units=GPa)
#
#
# Indices 1 2 3 4 5 6 
#
# 1 83.5730 46.6673 50.0514 0.0000 0.0000 0.0000
# 2 46.6673 83.5730 50.0514 0.0000 0.0000 0.0000
# 3 50.0514 50.0514 97.8977 0.0000 0.0000 0.0000
# 4 0.0000 0.0000 0.0000 34.0775 0.0000 0.0000
# 5 0.0000 0.0000 0.0000 0.0000 34.0775 0.0000
# 6 0.0000 0.0000 0.0000 0.0000 0.0000 18.4529
#
#
#
# Elastic Compliance Matrix: (Units=1/GPa)
#
#
# Indices 1 2 3 4 5 6 
#
# 1 0.019872 -0.007224 -0.006467 0.000000 0.000000 0.000000
# 2 -0.007224 0.019872 -0.006467 0.000000 0.000000 0.000000
# 3 -0.006467 -0.006467 0.016827 0.000000 0.000000 0.000000
# 4 0.000000 0.000000 0.000000 0.029345 0.000000 0.000000
# 5 0.000000 0.000000 0.000000 0.000000 0.029345 0.000000
# 6 0.000000 0.000000 0.000000 0.000000 0.000000 0.054192
#
#
# Mechanical properties :
#
#
# Convention : Reuss Voigt Hill
#
# Bulk Modulus (GPa) = 61.51105 62.06489 61.78797
# Shear Modulus (GPa) = 23.23562 25.20646 24.22104
#
# Velocity S-wave (km/s) = 3.70894 3.86303 3.78677
# Velocity P-wave (km/s) = 7.39988 7.52607 7.46324
#
# Compressibility (1/GPa) = 0.01625724
#
# Stress axis : x y z
#
# Youngs Moduli (GPa) = 50.32148 50.32148 59.42817
#
# Poissons Ratio (x) = 0.36351 0.38430
# Poissons Ratio (y) = 0.36351 0.38430
# Poissons Ratio (z) = 0.32541 0.32541
#
# Static dielectric constant tensor:
#      x y z
#    x 3.003380 0.000000 0.000000 
#    y 0.000000 3.003380 0.000000 
#    z 0.000000 0.000000 3.174940 
# 
# 
# High freq. dielectric constant tensor:
#      x y z
#    x 1.638560 0.000000 0.000000 
#    y 0.000000 1.638560 0.000000 
#    z 0.000000 0.000000 1.666220 
# 
# From -- ./inp_files/429.got.cif
#   From: 2010.03.12/outbox.cif.g09.slc.cpg/sg159_cif.got.tgz:429.got - 2010.04.03 14:00:19.
