data_PCOD8322680
_publ_section_title
;
Structure prediction by ZEFSAII (Michael W. Deem and Ramdas Pophale) SiO2 
 PCOD8322680
Probable space group: P 3 M 1
;
_chemical_formula_sum "Si O2"
_cell_formula_units_Z 42
_cell_length_a 12.533582
_cell_length_b 12.533582
_cell_length_c 18.218605
_cell_angle_alpha 90.000000
_cell_angle_beta 90.000000
_cell_angle_gamma 120.000000
_cell_volume 2478.541329
_symmetry_space_group_name_H-M "P 3 M 1"
_symmetry_group_IT_number 156
_symmetry_cell_setting 'hexagonal'
loop_
_space_group_symop_operation_xyz
x,y,z
-y,x-y,z
-x+y,-x,z
-x+y,y,z
x,x-y,z
-y,-x,z
loop_
_atom_site_type_symbol
_atom_site_label
_atom_site_fract_x
_atom_site_fract_y
_atom_site_fract_z
Si Si1 0.084038 0.416022 0.415600
Si Si2 0.668496 0.583505 0.006058
Si Si3 0.424441 0.331380 0.847205
Si Si4 0.001059 0.750772 0.554300
Si Si5 0.248394 0.250055 0.277963
Si Si6 0.332581 0.914385 0.139879
Si Si7 0.669532 0.085187 0.688215
O O1 0.226019 0.452037 0.413375
O O2 0.077401 0.538701 0.415305
O O3 0.016731 0.339791 0.487795
O O4 0.012102 0.336914 0.345007
O O5 0.791749 0.583498 0.030317
O O6 0.557439 0.442562 0.004364
O O7 0.641769 0.664781 0.062520
O O8 0.685040 0.646766 0.924675
O O9 0.480060 0.240030 0.850341
O O10 0.531070 0.468931 0.842546
O O11 0.351619 0.309542 0.769820
O O12 0.109291 0.890710 0.556609
O O13 0.875335 0.750669 0.542557
O O14 0.003359 0.684820 0.629587
O O15 0.258724 0.129362 0.281161
O O16 0.307870 0.319980 0.202691
O O17 0.105744 0.211489 0.283662
O O18 0.460084 0.920167 0.157409
O O19 0.227226 0.772775 0.136726
O O20 0.537307 0.074613 0.680632
O O21 0.773358 0.226643 0.673429
#
# Coordination Sequence:
#
# PCOD8322680 Si02
#       7
#     6   6   6   6   6   6   6
#     4  10  20  34  53  75  98 124 154 189 227 268
#     4   9  16  27  45  69  95 121 151 190 237 285
#     4   8  13  22  39  64  92 120 150 186 230 280
#     4  10  20  33  49  68  92 124 160 196 232 272
#     4  10  20  34  53  75  98 124 154 189 227 268
#     4  10  20  33  49  68  92 124 160 196 232 272
#     4   9  16  27  45  69  95 121 151 190 237 285
#
# _framework density 16.945450999999998
#
# number of rings (size 3 to 8) (size 9 to 14) (size 15 to 20)
#    0.000    2.571    0.000    2.714    0.000    2.286 
#    0.000    3.571    0.000    7.429    0.000    0.000 
#    0.000    0.000    0.000    0.000    0.000    0.000 
#
# Total GULP energy -520514.986976 kJ/mol
# GULP energy per Si atom -12393.213976 kJ/mol
# Density = 1.690688 g / cm^3
# Si number density = 16.945451 Si / 1000 Ang^3
#
#
#
# Elastic Constant Matrix: (Units=GPa)
#
#
# Indices 1 2 3 4 5 6 
#
# 1 77.7117 56.9508 55.6594 10.2807 -0.0003 0.0000
# 2 56.9508 77.7117 55.6594 -10.2807 0.0003 0.0000
# 3 55.6594 55.6594 148.5848 0.0000 0.0000 0.0000
# 4 10.2807 -10.2807 0.0000 3.8318 0.0000 0.0003
# 5 -0.0003 0.0003 0.0000 0.0000 3.8318 10.2807
# 6 0.0000 0.0000 0.0000 0.0003 10.2807 10.3804
#
#
#
# Elastic Compliance Matrix: (Units=1/GPa)
#
#
# Indices 1 2 3 4 5 6 
#
# 1 -0.009154 0.019911 -0.004030 0.077983 -0.000002 0.000000
# 2 0.019911 -0.009154 -0.004030 -0.077983 0.000002 0.000000
# 3 -0.004030 -0.004030 0.009749 0.000000 0.000000 0.000000
# 4 0.077983 -0.077983 0.000000 -0.157480 0.000000 0.000004
# 5 -0.000002 0.000002 0.000000 0.000000 -0.157480 0.155966
# 6 0.000000 0.000000 0.000000 0.000004 0.155966 -0.058131
#
#
# Mechanical properties :
#
#
# Convention : Reuss Voigt Hill
#
# Bulk Modulus (GPa) = 66.02884 71.17195 68.60039
# Shear Modulus (GPa) = -12.49043 12.65806 0.08382
#
# Velocity S-wave (km/s) = -2.71790 2.73607 0.22264
# Velocity P-wave (km/s) = 5.40378 7.21618 6.37472
#
# Compressibility (1/GPa) = 0.01514490
#
# Stress axis : x y z
#
# Youngs Moduli (GPa) = -109.23736 -109.23736 102.57402
#
# Poissons Ratio (x) = 2.17506 0.41332
# Poissons Ratio (y) = 2.17506 0.41332
# Poissons Ratio (z) = -0.44017 -0.44017
#
# Static dielectric constant tensor:
#      x y z
#    x 2.964790 0.000000 0.000000 
#    y 0.000000 2.964790 0.000000 
#    z 0.000000 0.000000 3.691680 
# 
# 
# High freq. dielectric constant tensor:
#      x y z
#    x 1.635620 0.000000 0.000000 
#    y 0.000000 1.635620 0.000000 
#    z 0.000000 0.000000 1.680780 
# 
# From -- ./inp_files/1010.got.cif
#   From: 2010.03.12/outbox.cif.g09.slc.cpg/sg156_cif.got.tgz:1010.got - 2010.04.03 13:58:47.
