data_PCOD8322310
_publ_section_title
;
Structure prediction by ZEFSAII (Michael W. Deem and Ramdas Pophale) SiO2 
 PCOD8322310
Probable space group: P 32 2 1
;
_chemical_formula_sum "Si O2"
_cell_formula_units_Z 42
_cell_length_a 8.812931
_cell_length_b 8.812931
_cell_length_c 28.516074
_cell_angle_alpha 90.000000
_cell_angle_beta 90.000000
_cell_angle_gamma 120.000000
_cell_volume 1918.055213
_symmetry_space_group_name_H-M "P 32 2 1"
_symmetry_group_IT_number 154
_symmetry_cell_setting 'hexagonal'
loop_
_space_group_symop_operation_xyz
x,y,z
-y,x-y,2/3+z
-x+y,-x,1/3+z
x-y,-y,1/3-z
-x,-x+y,2/3-z
y,x,-z
loop_
_atom_site_type_symbol
_atom_site_label
_atom_site_fract_x
_atom_site_fract_y
_atom_site_fract_z
Si Si1 0.690356 0.774962 0.696633
Si Si2 0.243683 0.874011 0.056367
Si Si3 0.398877 0.219207 0.828960
Si Si4 0.797014 0.082990 0.764066
Si Si5 0.476717 0.965057 0.436655
Si Si6 0.075624 0.449512 0.258827
Si Si7 0.682901 0.420332 0.983527
O O1 0.807517 0.756583 0.655993
O O2 0.795854 0.967961 0.719248
O O3 0.649173 0.620474 0.733997
O O4 0.501528 0.740077 0.677512
O O5 0.089058 0.694795 0.077377
O O6 0.398237 0.839338 0.038404
O O7 0.296766 0.024664 0.096206
O O8 0.225209 0.203225 0.853815
O O9 0.527812 0.410754 0.806952
O O10 0.519203 0.197494 0.868012
O O11 0.337747 0.085349 0.784909
O O12 0.633263 0.112907 0.762118
O O13 0.224447 0.489398 0.298413
O O14 0.885395 0.338717 0.280776
#
# Coordination Sequence:
#
# PCOD8322310 Si02
#       7
#     6   6   6   6   6   6   6
#     4   9  18  36  60  92 127 162 211 271 328 387
#     4  11  20  35  61  95 129 154 222 268 327 394
#     4  11  21  40  60  92 125 173 222 265 318 398
#     4  10  20  35  63  93 125 174 207 263 332 392
#     4  10  23  36  65  93 123 171 223 262 327 394
#     4  10  18  37  65  89 124 168 221 268 318 381
#     4   9  19  33  62  99 122 163 217 274 318 383
#
# _framework density 21.897178
#
# number of rings (size 3 to 8) (size 9 to 14) (size 15 to 20)
#    0.000    2.000    2.857    2.143    0.000    0.571 
#    0.000    0.000   18.857    1.714    0.000    0.000 
#    0.000    0.000    0.000    0.000    0.000    0.000 
#
# Total GULP energy -520376.442600 kJ/mol
# GULP energy per Si atom -12389.915300 kJ/mol
# Density = 2.184734 g / cm^3
# Si number density = 21.897178 Si / 1000 Ang^3
#
#
#
# Elastic Constant Matrix: (Units=GPa)
#
#
# Indices 1 2 3 4 5 6 
#
# 1 77.7427 23.6831 31.9906 5.6935 0.0000 0.0000
# 2 23.6831 77.7427 31.9906 -5.6935 0.0000 0.0000
# 3 31.9906 31.9906 112.4813 0.0000 0.0000 0.0000
# 4 5.6935 -5.6935 0.0000 30.2281 0.0000 0.0000
# 5 0.0000 0.0000 0.0000 0.0000 30.2281 5.6935
# 6 0.0000 0.0000 0.0000 0.0000 5.6935 27.0298
#
#
#
# Elastic Compliance Matrix: (Units=1/GPa)
#
#
# Indices 1 2 3 4 5 6 
#
# 1 0.015639 -0.003624 -0.003417 -0.003628 0.000000 0.000000
# 2 -0.003624 0.015639 -0.003417 0.003628 0.000000 0.000000
# 3 -0.003417 -0.003417 0.010834 0.000000 0.000000 0.000000
# 4 -0.003628 0.003628 0.000000 0.034449 0.000000 0.000000
# 5 0.000000 0.000000 0.000000 0.000000 0.034449 -0.007256
# 6 0.000000 0.000000 0.000000 0.000000 -0.007256 0.038525
#
#
# Mechanical properties :
#
#
# Convention : Reuss Voigt Hill
#
# Bulk Modulus (GPa) = 47.17985 49.25502 48.21744
# Shear Modulus (GPa) = 28.16676 29.51736 28.84206
#
# Velocity S-wave (km/s) = 3.59042 3.67549 3.63321
# Velocity P-wave (km/s) = 6.22744 6.36828 6.29825
#
# Compressibility (1/GPa) = 0.02119549
#
# Stress axis : x y z
#
# Youngs Moduli (GPa) = 63.94409 63.94409 92.30107
#
# Poissons Ratio (x) = 0.23171 0.31541
# Poissons Ratio (y) = 0.23171 0.31541
# Poissons Ratio (z) = 0.21851 0.21851
#
# Static dielectric constant tensor:
#      x y z
#    x 3.749430 0.000000 0.000000 
#    y 0.000000 3.749430 0.000000 
#    z 0.000000 0.000000 4.379030 
# 
# 
# High freq. dielectric constant tensor:
#      x y z
#    x 1.832530 0.000000 0.000000 
#    y 0.000000 1.832530 0.000000 
#    z 0.000000 0.000000 1.885160 
# 
# From -- ./inp_files/3760.got.cif
#   From: 2010.03.12/outbox.cif.g09.slc.cpg/sg154_2_cif.got.tgz:3760.got - 2010.04.03 13:51:21.
