data_PCOD8322613
_publ_section_title
;
Structure prediction by ZEFSAII (Michael W. Deem and Ramdas Pophale) SiO2 
 PCOD8322613
Probable space group: R 3 2
;
_chemical_formula_sum "Si O2"
_cell_formula_units_Z 144
_cell_length_a 28.643691
_cell_length_b 28.643691
_cell_length_c 9.722742
_cell_angle_alpha 90.000000
_cell_angle_beta 90.000000
_cell_angle_gamma 120.000000
_cell_volume 6908.398057
_symmetry_space_group_name_H-M "R 3 2"
_symmetry_group_IT_number 155
_symmetry_cell_setting 'hexagonal'
loop_
_space_group_symop_operation_xyz
x,y,z
-y,x-y,z
-x+y,-x,z
x-y,-y,-z
-x,-x+y,-z
y,x,-z
2/3+x,1/3+y,1/3+z
2/3-y,1/3+x-y,1/3+z
2/3-x+y,1/3-x,1/3+z
2/3+x-y,1/3-y,1/3-z
2/3-x,1/3-x+y,1/3-z
2/3+y,1/3+x,1/3-z
1/3+x,2/3+y,2/3+z
1/3-y,2/3+x-y,2/3+z
1/3-x+y,2/3-x,2/3+z
1/3+x-y,2/3-y,2/3-z
1/3-x,2/3-x+y,2/3-z
1/3+y,2/3+x,2/3-z
loop_
_atom_site_type_symbol
_atom_site_label
_atom_site_fract_x
_atom_site_fract_y
_atom_site_fract_z
Si Si1 0.691469 0.861513 0.186473
Si Si2 0.025785 0.725986 0.142280
Si Si3 0.597416 0.211158 0.749791
Si Si4 0.875500 0.804888 0.881798
Si Si5 0.226800 0.205974 0.345947
Si Si6 0.858929 0.965089 0.316535
Si Si7 0.145988 0.290599 0.719778
Si Si8 0.517278 0.138440 0.518226
O O1 0.666667 0.838684 0.333334
O O2 0.682362 0.911329 0.146317
O O3 0.753046 0.876159 0.178133
O O4 0.658004 0.813670 0.079059
O O5 0.018396 0.666667 0.166667
O O6 0.993682 0.733328 0.267020
O O7 0.000000 0.730743 0.000000
O O8 0.586565 0.253232 0.833334
O O9 0.654245 0.242201 0.667842
O O10 0.551321 0.176194 0.642835
O O11 0.601679 0.172707 0.867534
O O12 0.924961 0.855585 0.804403
O O13 0.819477 0.803566 0.844764
O O14 0.885533 0.813409 0.045554
O O15 0.221709 0.221709 0.500000
O O16 0.168378 0.178429 0.274597
O O17 0.248702 0.164775 0.326253
O O18 0.185250 0.333334 0.833334
O O19 0.084098 0.257269 0.772820
#
# Coordination Sequence:
#
# PCOD8322613 Si02
#       8
#    18  18  18  18  18  18  18  18
#     4  12  26  42  69  98 138 182 237 292 346 429
#     4  12  26  42  56  90 136 193 236 280 330 398
#     4  11  22  40  66 101 130 178 230 281 350 412
#     4  11  25  46  68 103 132 179 234 287 361 427
#     4  12  22  39  66  92 136 184 230 281 336 403
#     4  11  22  41  65  99 136 175 229 281 344 414
#     4  12  24  43  66 100 135 181 232 288 363 420
#     4  11  24  44  73  96 134 176 230 295 357 434
#
# _framework density 20.844194000000002
#
# number of rings (size 3 to 8) (size 9 to 14) (size 15 to 20)
#    0.000    0.500    6.250    3.000    1.750    1.500 
#    3.000    0.000    0.000    1.500    0.000    0.000 
#    0.000    0.000    0.000    0.000    0.000    0.000 
#
# Total GULP energy -595035.966870 kJ/mol
# GULP energy per Si atom -12396.582643 kJ/mol
# Density = 2.079675 g / cm^3
# Si number density = 20.844194 Si / 1000 Ang^3
#
#
#
# Elastic Constant Matrix: (Units=GPa)
#
#
# Indices 1 2 3 4 5 6 
#
# 1 92.5455 49.0911 36.2498 -6.3219 -0.0010 0.0629
# 2 49.0911 92.6644 36.6692 6.2724 -0.0478 -0.0809
# 3 36.2498 36.6692 129.7645 -0.2019 0.0970 0.0173
# 4 -6.3219 6.2724 -0.2019 22.6445 0.0174 0.0578
# 5 -0.0010 -0.0478 0.0970 0.0174 22.7395 -6.2447
# 6 0.0629 -0.0809 0.0173 0.0578 -6.2447 21.7863
#
#
#
# Elastic Compliance Matrix: (Units=1/GPa)
#
#
# Indices 1 2 3 4 5 6 
#
# 1 0.016606 -0.008372 -0.002262 0.006935 -0.000042 -0.000108
# 2 -0.008372 0.016638 -0.002374 -0.006967 0.000086 0.000131
# 3 -0.002262 -0.002374 0.009009 0.000106 -0.000050 -0.000024
# 4 0.006935 -0.006967 0.000106 0.048029 -0.000108 -0.000204
# 5 -0.000042 0.000086 -0.000050 -0.000108 0.047734 0.013683
# 6 -0.000108 0.000131 -0.000024 -0.000204 0.013683 0.049824
#
#
# Mechanical properties :
#
#
# Convention : Reuss Voigt Hill
#
# Bulk Modulus (GPa) = 61.58633 62.11054 61.84844
# Shear Modulus (GPa) = 22.80300 26.29834 24.55067
#
# Velocity S-wave (km/s) = 3.31112 3.55584 3.43566
# Velocity P-wave (km/s) = 6.65043 6.83527 6.74348
#
# Compressibility (1/GPa) = 0.01623737
#
# Stress axis : x y z
#
# Youngs Moduli (GPa) = 60.21767 60.10338 110.99658
#
# Poissons Ratio (x) = 0.50318 0.25112
# Poissons Ratio (y) = 0.50414 0.26349
# Poissons Ratio (z) = 0.13624 0.14268
#
# Static dielectric constant tensor:
#      x y z
#    x 3.849950 0.000140 -0.000250 
#    y 0.000140 3.849960 -0.000020 
#    z -0.000250 -0.000020 4.089220 
# 
# 
# High freq. dielectric constant tensor:
#      x y z
#    x 1.801100 0.000000 -0.000010 
#    y 0.000000 1.801110 0.000000 
#    z -0.000010 0.000000 1.838900 
# 
# From -- ./inp_files/3049.got.cif
#   From: 2010.03.12/outbox.cif.g09.slc.cpg/sg155_2_cif.got.tgz:3049.got - 2010.04.03 13:54:13.
