data_PCOD8322918
_publ_section_title
;
Structure prediction by ZEFSAII (Michael W. Deem and Ramdas Pophale) SiO2 
 PCOD8322918
Probable space group: R 3 C
;
_chemical_formula_sum "Si O2"
_cell_formula_units_Z 48
_cell_length_a 12.288726
_cell_length_b 12.288726
_cell_length_c 14.923908
_cell_angle_alpha 90.000000
_cell_angle_beta 90.000000
_cell_angle_gamma 120.000000
_cell_volume 1951.762263
_symmetry_space_group_name_H-M "R 3 C"
_symmetry_group_IT_number 161
_symmetry_cell_setting 'hexagonal'
loop_
_space_group_symop_operation_xyz
x,y,z
-y,x-y,z
-x+y,-x,z
-x+y,y,1/2+z
x,x-y,1/2+z
-y,-x,1/2+z
2/3+x,1/3+y,1/3+z
2/3-y,1/3+x-y,1/3+z
2/3-x+y,1/3-x,1/3+z
2/3-x+y,1/3+y,5/6+z
2/3+x,1/3+x-y,5/6+z
2/3-y,1/3-x,5/6+z
1/3+x,2/3+y,2/3+z
1/3-y,2/3+x-y,2/3+z
1/3-x+y,2/3-x,2/3+z
1/3-x+y,2/3+y,1/6+z
1/3+x,2/3+x-y,1/6+z
1/3-y,2/3-x,1/6+z
loop_
_atom_site_type_symbol
_atom_site_label
_atom_site_fract_x
_atom_site_fract_y
_atom_site_fract_z
Si Si1 0.669348 0.578699 0.602153
Si Si2 0.666666 0.333333 0.874745
Si Si3 0.666668 0.333334 0.663434
Si Si4 0.936772 0.390007 0.413435
O O1 0.640123 0.440807 0.628611
O O2 0.583659 0.570880 0.517376
O O3 0.648029 0.644013 0.687699
O O4 0.800403 0.660151 0.547565
O O5 0.666668 0.333334 0.769061
O O6 0.540293 0.326627 0.910642
#
# Coordination Sequence:
#
# PCOD8322918 Si02
#       4
#    18   6   6  18
#     4  12  26  46  71 104 145 193 248 312 384 466
#     4  12  25  44  73 108 148 197 251 314 391 480
#     4  12  25  44  73 108 148 197 251 314 391 480
#     4  12  26  46  71 104 145 193 248 312 384 466
#
# _framework density 24.593160999999998
#
# number of rings (size 3 to 8) (size 9 to 14) (size 15 to 20)
#    0.000    0.000    0.000   11.250    0.000    6.000 
#    0.000    0.000    0.000    0.000    0.000    0.000 
#    0.000    0.000    0.000    0.000    0.000    0.000 
#
# Total GULP energy -198366.707300 kJ/mol
# GULP energy per Si atom -12397.919206 kJ/mol
# Density = 2.453719 g / cm^3
# Si number density = 24.593161 Si / 1000 Ang^3
#
#
#
# Elastic Constant Matrix: (Units=GPa)
#
#
# Indices 1 2 3 4 5 6 
#
# 1 103.3843 31.7248 22.9813 -0.0762 0.0000 0.0000
# 2 31.7248 103.3784 22.9800 0.0762 0.0000 0.0000
# 3 22.9813 22.9800 174.6289 0.0003 0.0000 0.0000
# 4 -0.0762 0.0762 0.0003 37.7084 0.0000 0.0000
# 5 0.0000 0.0000 0.0000 0.0000 37.7073 -0.0776
# 6 0.0000 0.0000 0.0000 0.0000 -0.0776 35.8264
#
#
#
# Elastic Compliance Matrix: (Units=1/GPa)
#
#
# Indices 1 2 3 4 5 6 
#
# 1 0.010852 -0.003104 -0.001020 0.000028 0.000000 0.000000
# 2 -0.003104 0.010852 -0.001020 -0.000028 0.000000 0.000000
# 3 -0.001020 -0.001020 0.005995 0.000000 0.000000 0.000000
# 4 0.000028 -0.000028 0.000000 0.026519 0.000000 0.000000
# 5 0.000000 0.000000 0.000000 0.000000 0.026520 0.000057
# 6 0.000000 0.000000 0.000000 0.000000 0.000057 0.027913
#
#
# Mechanical properties :
#
#
# Convention : Reuss Voigt Hill
#
# Bulk Modulus (GPa) = 57.42827 59.64044 58.53435
# Shear Modulus (GPa) = 40.08307 42.49546 41.28926
#
# Velocity S-wave (km/s) = 4.04152 4.16136 4.10187
# Velocity P-wave (km/s) = 6.72164 6.88423 6.80342
#
# Compressibility (1/GPa) = 0.01741303
#
# Stress axis : x y z
#
# Youngs Moduli (GPa) = 92.15155 92.14639 166.81120
#
# Poissons Ratio (x) = 0.28598 0.17010
# Poissons Ratio (y) = 0.28599 0.17009
# Poissons Ratio (z) = 0.09397 0.09396
#
# Static dielectric constant tensor:
#      x y z
#    x 4.430960 0.000000 0.000000 
#    y 0.000000 4.431080 0.000030 
#    z 0.000000 0.000030 4.541330 
# 
# 
# High freq. dielectric constant tensor:
#      x y z
#    x 1.986880 0.000000 0.000000 
#    y 0.000000 1.986880 0.000000 
#    z 0.000000 0.000000 2.005120 
# 
# From -- ./inp_files/497.got.cif
#   From: 2010.03.12/outbox.cif.g09.slc.cpg/sg161_cif.got.tgz:497.got - 2010.04.02 06:27:14.
