data_PCOD8322136
_publ_section_title
;
Structure prediction by ZEFSAII (Michael W. Deem and Ramdas Pophale) SiO2 
 PCOD8322136
Probable space group: P 31 2 1
;
_chemical_formula_sum "Si O2"
_cell_formula_units_Z 24
_cell_length_a 15.707634
_cell_length_b 15.707634
_cell_length_c 5.038308
_cell_angle_alpha 90.000000
_cell_angle_beta 90.000000
_cell_angle_gamma 120.000000
_cell_volume 1076.556659
_symmetry_space_group_name_H-M "P 31 2 1"
_symmetry_group_IT_number 152
_symmetry_cell_setting 'hexagonal'
loop_
_space_group_symop_operation_xyz
x,y,z
-y,x-y,1/3+z
-x+y,-x,2/3+z
x-y,-y,2/3-z
-x,-x+y,1/3-z
y,x,-z
loop_
_atom_site_type_symbol
_atom_site_label
_atom_site_fract_x
_atom_site_fract_y
_atom_site_fract_z
Si Si1 0.340305 0.893147 0.280664
Si Si2 0.690724 0.065880 0.087570
Si Si3 0.665040 0.772052 0.449910
Si Si4 0.406745 0.767974 0.559563
O O1 0.254414 0.880246 0.482577
O O2 0.369975 0.809939 0.319281
O O3 0.435671 0.000000 0.333334
O O4 0.304465 0.884738 0.980342
O O5 0.806294 0.117357 0.161627
O O6 0.663249 0.149165 0.011110
O O7 0.626089 0.000000 0.333334
O O8 0.673324 0.000000 0.833334
O O9 0.762086 0.762086 0.500000
O O10 0.327917 0.738154 0.795418
#
# Coordination Sequence:
#
# PCOD8322136 Si02
#       4
#     6   6   6   6
#     4  10  21  39  64  93 127 171 228 278 330 399
#     4  12  27  45  67 100 141 178 228 290 352 400
#     4  10  21  43  69  93 125 172 224 279 341 409
#     4  12  26  41  65  94 142 187 237 275 332 410
#
# _framework density 22.293301
#
# number of rings (size 3 to 8) (size 9 to 14) (size 15 to 20)
#    0.000    1.000    2.500    3.750    3.500    3.000 
#    0.000    0.000    0.000    1.500    0.000    0.000 
#    0.000    0.000    0.000    0.000    0.000    0.000 
#
# Total GULP energy -297645.579516 kJ/mol
# GULP energy per Si atom -12401.899146 kJ/mol
# Density = 2.224256 g / cm^3
# Si number density = 22.293301 Si / 1000 Ang^3
#
#
#
# Elastic Constant Matrix: (Units=GPa)
#
#
# Indices 1 2 3 4 5 6 
#
# 1 102.1854 66.1467 17.9398 -10.3933 0.0000 0.0000
# 2 66.1467 102.1854 17.9398 10.3933 0.0000 0.0000
# 3 17.9398 17.9398 75.2814 0.0000 0.0000 0.0000
# 4 -10.3933 10.3933 0.0000 25.0296 0.0000 0.0000
# 5 0.0000 0.0000 0.0000 0.0000 25.0296 -10.3933
# 6 0.0000 0.0000 0.0000 0.0000 -10.3933 18.0193
#
#
#
# Elastic Compliance Matrix: (Units=1/GPa)
#
#
# Indices 1 2 3 4 5 6 
#
# 1 0.021373 -0.015114 -0.001491 0.015151 0.000000 0.000000
# 2 -0.015114 0.021373 -0.001491 -0.015151 0.000000 0.000000
# 3 -0.001491 -0.001491 0.013994 0.000000 0.000000 0.000000
# 4 0.015151 -0.015151 0.000000 0.052535 0.000000 0.000000
# 5 0.000000 0.000000 0.000000 0.000000 0.052535 0.030302
# 6 0.000000 0.000000 0.000000 0.000000 0.030302 0.072973
#
#
# Mechanical properties :
#
#
# Convention : Reuss Voigt Hill
#
# Bulk Modulus (GPa) = 48.67206 53.74498 51.20852
# Shear Modulus (GPa) = 17.99689 25.45742 21.72716
#
# Velocity S-wave (km/s) = 2.84435 3.38291 3.12525
# Velocity P-wave (km/s) = 5.71551 6.27848 6.00360
#
# Compressibility (1/GPa) = 0.02054567
#
# Stress axis : x y z
#
# Youngs Moduli (GPa) = 46.78884 46.78884 71.45759
#
# Poissons Ratio (x) = 0.70717 0.10657
# Poissons Ratio (y) = 0.70717 0.10657
# Poissons Ratio (z) = 0.06978 0.06978
#
# Static dielectric constant tensor:
#      x y z
#    x 4.160630 0.000000 0.000000 
#    y 0.000000 4.160630 0.000000 
#    z 0.000000 0.000000 3.954030 
# 
# 
# High freq. dielectric constant tensor:
#      x y z
#    x 1.866190 0.000000 0.000000 
#    y 0.000000 1.866190 0.000000 
#    z 0.000000 0.000000 1.889460 
# 
# From -- ./inp_files/139.got.cif
#   From: 2010.03.12/outbox.cif.g09.slc.cpg/sg152_1_cif.got.tgz:139.got - 2010.04.03 13:45:27.
