data_PCOD8322163
_publ_section_title
;
Structure prediction by ZEFSAII (Michael W. Deem and Ramdas Pophale) SiO2 
 PCOD8322163
Probable space group: P 31 2 1
;
_chemical_formula_sum "Si O2"
_cell_formula_units_Z 36
_cell_length_a 8.569196
_cell_length_b 8.569196
_cell_length_c 25.179008
_cell_angle_alpha 90.000000
_cell_angle_beta 90.000000
_cell_angle_gamma 120.000000
_cell_volume 1601.214080
_symmetry_space_group_name_H-M "P 31 2 1"
_symmetry_group_IT_number 152
_symmetry_cell_setting 'hexagonal'
loop_
_space_group_symop_operation_xyz
x,y,z
-y,x-y,1/3+z
-x+y,-x,2/3+z
x-y,-y,2/3-z
-x,-x+y,1/3-z
y,x,-z
loop_
_atom_site_type_symbol
_atom_site_label
_atom_site_fract_x
_atom_site_fract_y
_atom_site_fract_z
Si Si1 0.051812 0.000000 0.833334
Si Si2 0.350621 0.574307 0.636263
Si Si3 0.701530 0.344645 0.473697
Si Si4 0.386070 0.182962 0.903526
Si Si5 0.714574 0.670133 0.186494
Si Si6 0.580721 0.000000 0.333334
Si Si7 0.438960 0.303492 0.614519
O O1 0.018971 0.166642 0.818841
O O2 0.186309 0.039350 0.883086
O O3 0.425004 0.656271 0.577692
O O4 0.161546 0.555551 0.647732
O O5 0.313264 0.369867 0.642386
O O6 0.498788 0.699082 0.679232
O O7 0.788446 0.489534 0.520821
O O8 0.517305 0.160504 0.488479
O O9 0.858387 0.303868 0.457229
O O10 0.347746 0.293087 0.948380
O O11 0.499804 0.100585 0.929375
O O12 0.839350 0.670330 0.234033
#
# Coordination Sequence:
#
# PCOD8322163 Si02
#       7
#     3   6   6   6   6   3   6
#     4  12  22  38  62  94 126 164 216 274 328 388
#     4  11  21  39  63  87 125 165 213 265 328 398
#     4  11  22  41  65  92 125 171 217 271 328 397
#     4  10  23  42  66  92 128 171 218 272 335 397
#     4  11  23  38  62  92 126 164 216 271 332 394
#     4  10  22  42  66  94 130 174 212 268 336 406
#     4  10  23  41  62  92 126 170 216 271 335 402
#
# _framework density 22.482938000000001
#
# number of rings (size 3 to 8) (size 9 to 14) (size 15 to 20)
#    0.000    1.333    0.000    6.000    0.000    4.000 
#    0.000    8.333    0.000    2.000    0.000    0.000 
#    0.000    0.000    0.000    0.000    0.000    0.000 
#
# Total GULP energy -446142.071606 kJ/mol
# GULP energy per Si atom -12392.835322 kJ/mol
# Density = 2.243177 g / cm^3
# Si number density = 22.482938 Si / 1000 Ang^3
#
#
#
# Elastic Constant Matrix: (Units=GPa)
#
#
# Indices 1 2 3 4 5 6 
#
# 1 93.2197 26.9046 26.3213 4.5819 -0.0001 0.0000
# 2 26.9046 93.2197 26.3213 -4.5819 0.0001 0.0000
# 3 26.3213 26.3213 101.8647 0.0000 0.0000 0.0000
# 4 4.5819 -4.5819 0.0000 24.9844 0.0000 0.0001
# 5 -0.0001 0.0001 0.0000 0.0000 24.9844 4.5819
# 6 0.0000 0.0000 0.0000 0.0001 4.5819 33.1575
#
#
#
# Elastic Compliance Matrix: (Units=1/GPa)
#
#
# Indices 1 2 3 4 5 6 
#
# 1 0.012430 -0.003042 -0.002426 -0.002837 0.000000 0.000000
# 2 -0.003042 0.012430 -0.002426 0.002837 0.000000 0.000000
# 3 -0.002426 -0.002426 0.011071 0.000000 0.000000 0.000000
# 4 -0.002837 0.002837 0.000000 0.041066 0.000000 0.000000
# 5 0.000000 0.000000 0.000000 0.000000 0.041066 -0.005675
# 6 0.000000 0.000000 0.000000 0.000000 -0.005675 0.030943
#
#
# Mechanical properties :
#
#
# Convention : Reuss Voigt Hill
#
# Bulk Modulus (GPa) = 49.64489 49.71096 49.67792
# Shear Modulus (GPa) = 29.15357 30.54239 29.84798
#
# Velocity S-wave (km/s) = 3.60488 3.68974 3.64756
# Velocity P-wave (km/s) = 6.28139 6.34908 6.31533
#
# Compressibility (1/GPa) = 0.02014306
#
# Stress axis : x y z
#
# Youngs Moduli (GPa) = 80.45263 80.45263 90.32977
#
# Poissons Ratio (x) = 0.24473 0.21912
# Poissons Ratio (y) = 0.24473 0.21912
# Poissons Ratio (z) = 0.19516 0.19516
#
# Static dielectric constant tensor:
#      x y z
#    x 4.126320 0.000000 0.000000 
#    y 0.000000 4.126320 0.000000 
#    z 0.000000 0.000000 4.240880 
# 
# 
# High freq. dielectric constant tensor:
#      x y z
#    x 1.893860 0.000000 0.000000 
#    y 0.000000 1.893860 0.000000 
#    z 0.000000 0.000000 1.879310 
# 
# From -- ./inp_files/3458.got.cif
#   From: 2010.03.12/outbox.cif.g09.slc.cpg/sg152_2_cif.got.tgz:3458.got - 2010.04.03 13:45:27.
