data_PCOD8322221
_publ_section_title
;
Structure prediction by ZEFSAII (Michael W. Deem and Ramdas Pophale) SiO2 
 PCOD8322221
Probable space group: P 31 2 1
;
_chemical_formula_sum "Si O2"
_cell_formula_units_Z 24
_cell_length_a 14.100519
_cell_length_b 14.100519
_cell_length_c 5.377690
_cell_angle_alpha 90.000000
_cell_angle_beta 90.000000
_cell_angle_gamma 120.000000
_cell_volume 925.969307
_symmetry_space_group_name_H-M "P 31 2 1"
_symmetry_group_IT_number 152
_symmetry_cell_setting 'hexagonal'
loop_
_space_group_symop_operation_xyz
x,y,z
-y,x-y,1/3+z
-x+y,-x,2/3+z
x-y,-y,2/3-z
-x,-x+y,1/3-z
y,x,-z
loop_
_atom_site_type_symbol
_atom_site_label
_atom_site_fract_x
_atom_site_fract_y
_atom_site_fract_z
Si Si1 0.161847 0.000000 0.333334
Si Si2 0.000000 0.632673 0.166667
Si Si3 0.660982 0.823591 0.670272
Si Si4 0.224172 0.564482 0.471682
Si Si5 0.519723 0.000000 0.333334
Si Si6 0.000000 0.822423 0.666667
O O1 0.253028 0.042549 0.555165
O O2 0.136116 0.091559 0.227003
O O3 0.895881 0.647997 0.111966
O O4 0.977763 0.563183 0.413166
O O5 0.538128 0.724880 0.614603
O O6 0.707156 0.898940 0.425239
O O7 0.326573 0.583993 0.645336
O O8 0.114779 0.521167 0.637768
#
# Coordination Sequence:
#
# PCOD8322221 Si02
#       6
#     3   3   6   6   3   3
#     4  12  27  47  77 117 164 222 285 353 419 515
#     4  12  24  52  80 112 164 214 272 346 414 498
#     4  12  26  48  78 116 160 222 273 353 421 510
#     4  12  28  53  84 122 165 218 282 353 427 509
#     4  12  28  54  86 122 168 222 280 348 432 504
#     4  12  27  51  77 115 170 222 289 349 435 505
#
# _framework density 25.918786999999998
#
# number of rings (size 3 to 8) (size 9 to 14) (size 15 to 20)
#    0.000    0.000    5.000    3.750    0.000    7.000 
#    4.500    0.000    0.000    1.500    0.000    0.000 
#    0.000    0.000    0.000    0.000    0.000    0.000 
#
# Total GULP energy -297432.038966 kJ/mol
# GULP energy per Si atom -12393.001624 kJ/mol
# Density = 2.585979 g / cm^3
# Si number density = 25.918787 Si / 1000 Ang^3
#
#
#
# Elastic Constant Matrix: (Units=GPa)
#
#
# Indices 1 2 3 4 5 6 
#
# 1 146.6471 50.5695 47.7799 -5.9334 0.0000 0.0000
# 2 50.5695 146.6471 47.7799 5.9334 0.0000 0.0000
# 3 47.7799 47.7799 129.7716 0.0000 0.0000 0.0000
# 4 -5.9334 5.9334 0.0000 38.5480 0.0000 0.0000
# 5 0.0000 0.0000 0.0000 0.0000 38.5480 -5.9334
# 6 0.0000 0.0000 0.0000 0.0000 -5.9334 48.0388
#
#
#
# Elastic Compliance Matrix: (Units=1/GPa)
#
#
# Indices 1 2 3 4 5 6 
#
# 1 0.008391 -0.002219 -0.002272 0.001633 0.000000 0.000000
# 2 -0.002219 0.008391 -0.002272 -0.001633 0.000000 0.000000
# 3 -0.002272 -0.002272 0.009379 0.000000 0.000000 0.000000
# 4 0.001633 -0.001633 0.000000 0.026444 0.000000 0.000000
# 5 0.000000 0.000000 0.000000 0.000000 0.026444 0.003266
# 6 0.000000 0.000000 0.000000 0.000000 0.003266 0.021220
#
#
# Mechanical properties :
#
#
# Convention : Reuss Voigt Hill
#
# Bulk Modulus (GPa) = 79.15700 79.48051 79.31876
# Shear Modulus (GPa) = 42.37004 43.48941 42.92972
#
# Velocity S-wave (km/s) = 4.04756 4.10067 4.07420
# Velocity P-wave (km/s) = 7.24226 7.29058 7.26646
#
# Compressibility (1/GPa) = 0.01263312
#
# Stress axis : x y z
#
# Youngs Moduli (GPa) = 119.17853 119.17853 106.62023
#
# Poissons Ratio (x) = 0.26448 0.24227
# Poissons Ratio (y) = 0.26448 0.24227
# Poissons Ratio (z) = 0.27081 0.27081
#
# Static dielectric constant tensor:
#      x y z
#    x 4.740750 0.000000 0.000000 
#    y 0.000000 4.740750 0.000000 
#    z 0.000000 0.000000 3.917480 
# 
# 
# High freq. dielectric constant tensor:
#      x y z
#    x 2.046850 0.000000 0.000000 
#    y 0.000000 2.046850 0.000000 
#    z 0.000000 0.000000 2.026430 
# 
# From -- ./inp_files/271.got.cif
#   From: 2010.03.12/outbox.cif.g09.slc.cpg/sg152_1_cif.got.tgz:271.got - 2010.04.03 13:45:27.
