data_PCOD8322907
_publ_section_title
;
Structure prediction by ZEFSAII (Michael W. Deem and Ramdas Pophale) SiO2 
 PCOD8322907
Probable space group: R 3 C
;
_chemical_formula_sum "Si O2"
_cell_formula_units_Z 102
_cell_length_a 16.487976
_cell_length_b 16.487976
_cell_length_c 19.929370
_cell_angle_alpha 90.000000
_cell_angle_beta 90.000000
_cell_angle_gamma 120.000000
_cell_volume 4692.009633
_symmetry_space_group_name_H-M "R 3 C"
_symmetry_group_IT_number 161
_symmetry_cell_setting 'hexagonal'
loop_
_space_group_symop_operation_xyz
x,y,z
-y,x-y,z
-x+y,-x,z
-x+y,y,1/2+z
x,x-y,1/2+z
-y,-x,1/2+z
2/3+x,1/3+y,1/3+z
2/3-y,1/3+x-y,1/3+z
2/3-x+y,1/3-x,1/3+z
2/3-x+y,1/3+y,5/6+z
2/3+x,1/3+x-y,5/6+z
2/3-y,1/3-x,5/6+z
1/3+x,2/3+y,2/3+z
1/3-y,2/3+x-y,2/3+z
1/3-x+y,2/3-x,2/3+z
1/3-x+y,2/3+y,1/6+z
1/3+x,2/3+x-y,1/6+z
1/3-y,2/3-x,1/6+z
loop_
_atom_site_type_symbol
_atom_site_label
_atom_site_fract_x
_atom_site_fract_y
_atom_site_fract_z
Si Si1 0.859409 0.378601 0.143201
Si Si2 0.132100 0.709419 0.371114
Si Si3 0.666172 0.941125 0.076107
Si Si4 0.000000 0.000000 0.525012
Si Si5 0.333334 0.666667 0.034849
Si Si6 0.159766 0.914756 0.697037
Si Si7 0.539622 0.152366 0.930571
O O1 0.864016 0.456198 0.093685
O O2 0.947397 0.430315 0.194613
O O3 0.759123 0.331916 0.178805
O O4 0.866707 0.296822 0.102374
O O5 0.077511 0.597154 0.367358
O O6 0.177529 0.759600 0.299016
O O7 0.053554 0.732111 0.398430
O O8 0.667704 0.909286 0.153604
O O9 0.775079 0.014528 0.055648
O O10 0.000000 0.000000 0.446912
O O11 0.106810 0.061185 0.549885
O O12 0.127072 0.980116 0.657395
#
# Coordination Sequence:
#
# PCOD8322907 Si02
#       7
#    18  18  18   6   6  18  18
#     4  11  24  45  69 104 141 182 245 295 350 437
#     4  11  21  43  77  93 138 193 238 286 362 436
#     4  10  25  42  63 109 136 175 240 297 364 417
#     4  12  21  43  62 103 144 177 247 296 349 432
#     4  12  27  40  71 103 141 189 238 311 349 411
#     4   9  21  42  70  97 132 189 240 284 355 430
#     4   9  21  41  68  97 132 187 230 289 349 437
#
# _framework density 21.739086
#
# number of rings (size 3 to 8) (size 9 to 14) (size 15 to 20)
#    1.059    0.706    3.529    0.000    2.471    2.824 
#    6.353    0.000    0.000    0.000    0.000    0.000 
#    0.000    0.000    0.000    0.000    0.000    0.000 
#
# Total GULP energy -421218.705181 kJ/mol
# GULP energy per Si atom -12388.785446 kJ/mol
# Density = 2.168961 g / cm^3
# Si number density = 21.739086 Si / 1000 Ang^3
#
#
#
# Elastic Constant Matrix: (Units=GPa)
#
#
# Indices 1 2 3 4 5 6 
#
# 1 84.5789 39.6203 46.2189 5.2645 0.0000 0.0000
# 2 39.6203 84.5800 46.2182 -5.2647 0.0000 0.0000
# 3 46.2189 46.2182 130.7960 -0.0003 0.0000 0.0000
# 4 5.2645 -5.2647 -0.0003 35.6487 0.0000 0.0000
# 5 0.0000 0.0000 0.0000 0.0000 35.6483 5.2642
# 6 0.0000 0.0000 0.0000 0.0000 5.2642 22.4812
#
#
#
# Elastic Compliance Matrix: (Units=1/GPa)
#
#
# Indices 1 2 3 4 5 6 
#
# 1 0.016982 -0.006057 -0.003861 -0.003402 0.000000 0.000000
# 2 -0.006057 0.016982 -0.003860 0.003402 0.000000 0.000000
# 3 -0.003861 -0.003860 0.010374 0.000000 0.000000 0.000000
# 4 -0.003402 0.003402 0.000000 0.029056 0.000000 0.000000
# 5 0.000000 0.000000 0.000000 0.000000 0.029057 -0.006804
# 6 0.000000 0.000000 0.000000 0.000000 -0.006804 0.046075
#
#
# Mechanical properties :
#
#
# Convention : Reuss Voigt Hill
#
# Bulk Modulus (GPa) = 59.58923 62.67442 61.13183
# Shear Modulus (GPa) = 27.52162 29.94881 28.73521
#
# Velocity S-wave (km/s) = 3.56195 3.71569 3.63963
# Velocity P-wave (km/s) = 6.66237 6.87760 6.77084
#
# Compressibility (1/GPa) = 0.01678155
#
# Stress axis : x y z
#
# Youngs Moduli (GPa) = 58.88526 58.88674 96.39726
#
# Poissons Ratio (x) = 0.35669 0.37215
# Poissons Ratio (y) = 0.35668 0.37212
# Poissons Ratio (z) = 0.22733 0.22732
#
# Static dielectric constant tensor:
#      x y z
#    x 3.682560 0.000000 0.000000 
#    y 0.000000 3.682560 0.000000 
#    z 0.000000 0.000000 3.849920 
# 
# 
# High freq. dielectric constant tensor:
#      x y z
#    x 1.846240 0.000000 0.000000 
#    y 0.000000 1.846240 0.000000 
#    z 0.000000 0.000000 1.846020 
# 
# From -- ./inp_files/1738.got.cif
#   From: 2010.03.12/outbox.cif.g09.slc.cpg/sg161_cif.got.tgz:1738.got - 2010.04.02 06:27:14.
