data_PCOD8322717
_publ_section_title
;
Structure prediction by ZEFSAII (Michael W. Deem and Ramdas Pophale) SiO2 
 PCOD8322717
Probable space group: P 3 1 M
;
_chemical_formula_sum "Si O2"
_cell_formula_units_Z 48
_cell_length_a 17.415774
_cell_length_b 17.415774
_cell_length_c 9.202636
_cell_angle_alpha 90.000000
_cell_angle_beta 90.000000
_cell_angle_gamma 120.000000
_cell_volume 2417.288226
_symmetry_space_group_name_H-M "P 3 1 M"
_symmetry_group_IT_number 157
_symmetry_cell_setting 'hexagonal'
loop_
_space_group_symop_operation_xyz
x,y,z
-y,x-y,z
-x+y,-x,z
y,x,z
x-y,-y,z
-x,-x+y,z
loop_
_atom_site_type_symbol
_atom_site_label
_atom_site_fract_x
_atom_site_fract_y
_atom_site_fract_z
Si Si1 0.471559 0.370421 0.809640
Si Si2 0.100402 0.810070 0.458572
Si Si3 0.249689 0.901434 0.245337
Si Si4 0.457494 0.098256 0.785034
Si Si5 0.894206 0.102754 0.760672
Si Si6 0.849214 0.352549 0.458529
Si Si7 0.375314 0.192689 0.950675
Si Si8 0.489709 0.315744 0.501780
O O1 0.408509 0.408509 0.758075
O O2 0.566557 0.450879 0.860100
O O3 0.421912 0.299399 0.938185
O O4 0.489135 0.323864 0.674570
O O5 0.168222 0.885054 0.349435
O O6 0.120697 0.850496 0.620027
O O7 0.115962 0.726570 0.444981
O O8 0.000000 0.779383 0.412474
O O9 0.327115 0.896041 0.332386
O O10 0.291364 0.000000 0.180437
O O11 0.212613 0.830461 0.116295
O O12 0.462990 0.103672 0.611214
O O13 0.433303 0.167627 0.848360
O O14 0.379568 0.000000 0.826268
O O15 0.856823 0.129730 0.899900
O O16 0.000000 0.161026 0.752688
O O17 0.866339 0.000000 0.772985
O O18 0.746523 0.277322 0.466626
O O19 0.857971 0.447648 0.424290
#
# Coordination Sequence:
#
# PCOD8322717 Si02
#       8
#     6   6   6   6   6   6   6   6
#     4  10  20  36  59  89 119 147 193 249 301 358
#     4  10  21  38  61  88 118 156 204 254 306 363
#     4  11  24  40  58  84 120 162 204 244 300 365
#     4  10  20  36  61  87 113 152 199 246 293 348
#     4  11  22  38  64  93 124 158 203 259 310 364
#     4  10  20  36  59  87 118 153 195 247 293 351
#     4  12  22  40  59  86 120 162 198 246 300 367
#     4  10  18  34  60  90 118 150 197 249 304 356
#
# _framework density 19.856961999999999
#
# number of rings (size 3 to 8) (size 9 to 14) (size 15 to 20)
#    0.000    1.500    2.500    3.750    0.000    2.500 
#    5.250    0.000    0.000    0.250    0.000    0.000 
#    0.000    0.000    0.000    0.000    0.000    0.000 
#
# Total GULP energy -595225.096203 kJ/mol
# GULP energy per Si atom -12400.522838 kJ/mol
# Density = 1.981177 g / cm^3
# Si number density = 19.856962 Si / 1000 Ang^3
#
#
#
# Elastic Constant Matrix: (Units=GPa)
#
#
# Indices 1 2 3 4 5 6 
#
# 1 94.6028 36.8622 23.3641 0.0000 0.4567 0.0000
# 2 36.8622 94.6028 23.3641 0.0000 -0.4567 0.0000
# 3 23.3641 23.3641 70.3469 0.0000 0.0000 0.0000
# 4 0.0000 0.0000 0.0000 18.9768 0.0000 -0.4567
# 5 0.4567 -0.4567 0.0000 0.0000 18.9768 0.0000
# 6 0.0000 0.0000 0.0000 -0.4567 0.0000 28.8703
#
#
#
# Elastic Compliance Matrix: (Units=1/GPa)
#
#
# Indices 1 2 3 4 5 6 
#
# 1 0.012975 -0.004350 -0.002865 0.000000 -0.000417 0.000000
# 2 -0.004350 0.012975 -0.002865 0.000000 0.000417 0.000000
# 3 -0.002865 -0.002865 0.016118 0.000000 0.000000 0.000000
# 4 0.000000 0.000000 0.000000 0.052716 0.000000 0.000834
# 5 -0.000417 0.000417 0.000000 0.000000 0.052716 0.000000
# 6 0.000000 0.000000 0.000000 0.000834 0.000000 0.034651
#
#
# Mechanical properties :
#
#
# Convention : Reuss Voigt Hill
#
# Bulk Modulus (GPa) = 45.64231 47.41481 46.52856
# Shear Modulus (GPa) = 23.85348 25.09559 24.47453
#
# Velocity S-wave (km/s) = 3.46969 3.55888 3.51457
# Velocity P-wave (km/s) = 6.25197 6.38886 6.32078
#
# Compressibility (1/GPa) = 0.02190950
#
# Stress axis : x y z
#
# Youngs Moduli (GPa) = 77.07076 77.07076 62.04228
#
# Poissons Ratio (x) = 0.33528 0.17772
# Poissons Ratio (y) = 0.33528 0.17772
# Poissons Ratio (z) = 0.22077 0.22077
#
# Static dielectric constant tensor:
#      x y z
#    x 3.758050 0.000000 0.000000 
#    y 0.000000 3.758050 0.000000 
#    z 0.000000 0.000000 3.299820 
# 
# 
# High freq. dielectric constant tensor:
#      x y z
#    x 1.783310 0.000000 0.000000 
#    y 0.000000 1.783310 0.000000 
#    z 0.000000 0.000000 1.741950 
# 
# From -- ./inp_files/462.got.cif
#   From: 2010.03.12/outbox.cif.g09.slc.cpg/sg157_cif.got.tgz:462.got - 2010.04.03 13:59:21.
