data_PCOD8322736
_publ_section_title
;
Structure prediction by ZEFSAII (Michael W. Deem and Ramdas Pophale) SiO2 
 PCOD8322736
Probable space group: P 3 1 M
;
_chemical_formula_sum "Si O2"
_cell_formula_units_Z 42
_cell_length_a 14.545690
_cell_length_b 14.545690
_cell_length_c 12.030532
_cell_angle_alpha 90.000000
_cell_angle_beta 90.000000
_cell_angle_gamma 120.000000
_cell_volume 2204.368110
_symmetry_space_group_name_H-M "P 3 1 M"
_symmetry_group_IT_number 157
_symmetry_cell_setting 'hexagonal'
loop_
_space_group_symop_operation_xyz
x,y,z
-y,x-y,z
-x+y,-x,z
y,x,z
x-y,-y,z
-x,-x+y,z
loop_
_atom_site_type_symbol
_atom_site_label
_atom_site_fract_x
_atom_site_fract_y
_atom_site_fract_z
Si Si1 0.877511 0.579098 0.178300
Si Si2 0.121988 0.551410 0.771011
Si Si3 0.287087 0.531642 0.391477
Si Si4 0.121988 0.551410 0.011942
Si Si5 0.337821 0.120359 0.763583
Si Si6 0.122489 0.701588 0.604653
Si Si7 0.782538 0.662179 0.019371
O O1 0.804439 0.546080 0.286705
O O2 0.828247 0.470948 0.104649
O O3 0.870608 0.670405 0.106338
O O4 0.000000 0.625066 0.212898
O O5 0.131645 0.450933 0.736607
O O6 0.171752 0.642700 0.678304
O O7 0.000000 0.518928 0.781568
O O8 0.176705 0.596307 0.891477
O O9 0.411822 0.626151 0.391477
O O10 0.258359 0.453920 0.496248
O O11 0.131645 0.450934 0.046347
O O12 0.000000 0.518928 0.001386
O O13 0.329595 0.200203 0.676616
O O14 0.244111 0.000000 0.741742
O O15 0.331915 0.151758 0.891477
O O16 0.000000 0.625066 0.570055
O O17 0.755889 0.755889 0.041212
#
# Coordination Sequence:
#
# PCOD8322736 Si02
#       7
#     6   6   6   6   6   6   6
#     4  11  20  33  54  78 105 140 185 231 268 314
#     4   8  15  28  47  72 101 133 172 218 270 324
#     4  10  23  38  52  72 107 142 184 222 272 324
#     4   8  15  28  47  72 101 133 172 218 270 324
#     4   9  18  33  52  77 110 143 174 215 272 333
#     4  11  20  33  54  78 105 140 185 231 268 314
#     4   9  18  33  52  77 110 143 174 215 272 333
#
# _framework density 19.053079
#
# number of rings (size 3 to 8) (size 9 to 14) (size 15 to 20)
#    0.286    2.286    0.000    4.714    0.000    1.714 
#    1.714    2.143    0.000    0.571    0.000    0.000 
#    0.000    0.000    0.000    0.000    0.000    0.000 
#
# Total GULP energy -520497.538719 kJ/mol
# GULP energy per Si atom -12392.798541 kJ/mol
# Density = 1.900971 g / cm^3
# Si number density = 19.053079 Si / 1000 Ang^3
#
#
#
# Elastic Constant Matrix: (Units=GPa)
#
#
# Indices 1 2 3 4 5 6 
#
# 1 46.3697 2.5671 22.5983 0.0000 0.0000 0.0000
# 2 2.5671 46.3697 22.5983 0.0000 0.0000 0.0000
# 3 22.5983 22.5983 108.5964 0.0000 0.0000 0.0000
# 4 0.0000 0.0000 0.0000 23.5480 0.0000 0.0000
# 5 0.0000 0.0000 0.0000 0.0000 23.5480 0.0000
# 6 0.0000 0.0000 0.0000 0.0000 0.0000 21.9013
#
#
#
# Elastic Compliance Matrix: (Units=1/GPa)
#
#
# Indices 1 2 3 4 5 6 
#
# 1 0.024063 0.001233 -0.005264 0.000000 0.000000 0.000000
# 2 0.001233 0.024063 -0.005264 0.000000 0.000000 0.000000
# 3 -0.005264 -0.005264 0.011399 0.000000 0.000000 0.000000
# 4 0.000000 0.000000 0.000000 0.042467 0.000000 0.000000
# 5 0.000000 0.000000 0.000000 0.000000 0.042467 0.000000
# 6 0.000000 0.000000 0.000000 0.000000 0.000000 0.045659
#
#
# Mechanical properties :
#
#
# Convention : Reuss Voigt Hill
#
# Bulk Modulus (GPa) = 24.42859 32.98481 28.70670
# Shear Modulus (GPa) = 22.48682 24.03756 23.26219
#
# Velocity S-wave (km/s) = 3.43916 3.55577 3.49795
# Velocity P-wave (km/s) = 5.34973 5.84873 5.60478
#
# Compressibility (1/GPa) = 0.04093564
#
# Stress axis : x y z
#
# Youngs Moduli (GPa) = 41.55761 41.55761 87.72515
#
# Poissons Ratio (x) = -0.05125 0.46179
# Poissons Ratio (y) = -0.05125 0.46179
# Poissons Ratio (z) = 0.21876 0.21876
#
# Static dielectric constant tensor:
#      x y z
#    x 3.239970 0.000000 0.000000 
#    y 0.000000 3.239970 0.000000 
#    z 0.000000 0.000000 3.536830 
# 
# 
# High freq. dielectric constant tensor:
#      x y z
#    x 1.711810 0.000000 0.000000 
#    y 0.000000 1.711810 0.000000 
#    z 0.000000 0.000000 1.739740 
# 
# From -- ./inp_files/581.got.cif
#   From: 2010.03.12/outbox.cif.g09.slc.cpg/sg157_cif.got.tgz:581.got - 2010.04.03 13:59:21.
