data_PCOD8322068
_publ_section_title
;
Structure prediction by ZEFSAII (Michael W. Deem and Ramdas Pophale) SiO2 
 PCOD8322068
Probable space group: P 31 2 1
;
_chemical_formula_sum "Si O2"
_cell_formula_units_Z 39
_cell_length_a 9.490426
_cell_length_b 9.490426
_cell_length_c 26.098381
_cell_angle_alpha 90.000000
_cell_angle_beta 90.000000
_cell_angle_gamma 120.000000
_cell_volume 2035.708608
_symmetry_space_group_name_H-M "P 31 2 1"
_symmetry_group_IT_number 152
_symmetry_cell_setting 'hexagonal'
loop_
_space_group_symop_operation_xyz
x,y,z
-y,x-y,1/3+z
-x+y,-x,2/3+z
x-y,-y,2/3-z
-x,-x+y,1/3-z
y,x,-z
loop_
_atom_site_type_symbol
_atom_site_label
_atom_site_fract_x
_atom_site_fract_y
_atom_site_fract_z
Si Si1 0.139069 0.675457 0.380988
Si Si2 0.980431 0.000000 0.833334
Si Si3 0.126501 0.831180 0.900207
Si Si4 0.655344 0.645706 0.658267
Si Si5 0.361470 0.561503 0.409426
Si Si6 0.000000 0.429636 0.166667
Si Si7 0.000000 0.187374 0.666667
Si Si8 0.888322 0.795445 0.264509
O O1 0.099041 0.537492 0.337927
O O2 0.271796 0.666234 0.417753
O O3 0.985304 0.628044 0.417932
O O4 0.210291 0.853597 0.355473
O O5 0.941220 0.114091 0.870350
O O6 0.126374 0.110287 0.795453
O O7 0.200464 0.923350 0.953343
O O8 0.271237 0.861949 0.862358
O O9 0.673211 0.505098 0.630399
O O10 0.776504 0.724602 0.707580
O O11 0.423804 0.527471 0.462177
O O12 0.246859 0.379994 0.387830
O O13 0.064134 0.121254 0.620851
#
# Coordination Sequence:
#
# PCOD8322068 Si02
#       8
#     6   3   6   6   6   3   3   6
#     4  11  20  37  61  90 118 153 202 266 311 345
#     4  11  21  36  60  98 121 167 210 260 309 387
#     4  10  20  38  62  84 124 164 209 251 309 373
#     4  10  19  38  64  87 112 171 212 246 303 386
#     4  10  21  38  59  88 122 159 209 252 312 375
#     4   9  21  40  58  78 119 173 204 242 305 397
#     4  12  20  38  62  92 120 156 206 272 298 356
#     4  11  20  35  63  88 121 164 208 248 311 381
#
# _framework density 19.157948999999999
#
# number of rings (size 3 to 8) (size 9 to 14) (size 15 to 20)
#    0.000    1.538    4.615    1.385    0.000    0.000 
#    5.538    5.385    0.000    0.000    0.000    0.000 
#    0.000    0.000    0.000    0.000    0.000    0.000 
#
# Total GULP energy -483182.338545 kJ/mol
# GULP energy per Si atom -12389.290732 kJ/mol
# Density = 1.911434 g / cm^3
# Si number density = 19.157949 Si / 1000 Ang^3
#
#
#
# Elastic Constant Matrix: (Units=GPa)
#
#
# Indices 1 2 3 4 5 6 
#
# 1 99.9821 43.4992 46.6557 -3.7676 0.0000 0.0000
# 2 43.4992 99.9821 46.6557 3.7676 0.0000 0.0000
# 3 46.6557 46.6557 110.2644 0.0000 0.0000 0.0000
# 4 -3.7676 3.7676 0.0000 32.2128 0.0000 0.0000
# 5 0.0000 0.0000 0.0000 0.0000 32.2128 -3.7676
# 6 0.0000 0.0000 0.0000 0.0000 -3.7676 28.2414
#
#
#
# Elastic Compliance Matrix: (Units=1/GPa)
#
#
# Indices 1 2 3 4 5 6 
#
# 1 0.013800 -0.004185 -0.004069 0.002104 0.000000 0.000000
# 2 -0.004185 0.013800 -0.004069 -0.002104 0.000000 0.000000
# 3 -0.004069 -0.004069 0.012512 0.000000 0.000000 0.000000
# 4 0.002104 -0.002104 0.000000 0.031536 0.000000 0.000000
# 5 0.000000 0.000000 0.000000 0.000000 0.031536 0.004207
# 6 0.000000 0.000000 0.000000 0.000000 0.004207 0.035970
#
#
# Mechanical properties :
#
#
# Convention : Reuss Voigt Hill
#
# Bulk Modulus (GPa) = 64.64595 64.87220 64.75907
# Shear Modulus (GPa) = 29.59378 30.09460 29.84419
#
# Velocity S-wave (km/s) = 3.93456 3.96772 3.95118
# Velocity P-wave (km/s) = 7.37957 7.41118 7.39539
#
# Compressibility (1/GPa) = 0.01546887
#
# Stress axis : x y z
#
# Youngs Moduli (GPa) = 72.46215 72.46215 79.92239
#
# Poissons Ratio (x) = 0.30324 0.32517
# Poissons Ratio (y) = 0.30324 0.32517
# Poissons Ratio (z) = 0.29482 0.29482
#
# Static dielectric constant tensor:
#      x y z
#    x 3.497340 0.000000 0.000000 
#    y 0.000000 3.497340 0.000000 
#    z 0.000000 0.000000 3.751670 
# 
# 
# High freq. dielectric constant tensor:
#      x y z
#    x 1.734860 0.000000 0.000000 
#    y 0.000000 1.734860 0.000000 
#    z 0.000000 0.000000 1.753150 
# 
# From -- ./inp_files/3666.got.cif
#   From: 2010.03.12/outbox.cif.g09.slc.cpg/sg152_2_cif.got.tgz:3666.got - 2010.04.03 13:45:27.
