data_PCOD8322258
_publ_section_title
;
Structure prediction by ZEFSAII (Michael W. Deem and Ramdas Pophale) SiO2 
 PCOD8322258
Probable space group: P 32 1 2
;
_chemical_formula_sum "Si O2"
_cell_formula_units_Z 24
_cell_length_a 10.251795
_cell_length_b 10.251795
_cell_length_c 11.683301
_cell_angle_alpha 90.000000
_cell_angle_beta 90.000000
_cell_angle_gamma 120.000000
_cell_volume 1063.398452
_symmetry_space_group_name_H-M "P 32 1 2"
_symmetry_group_IT_number 153
_symmetry_cell_setting 'hexagonal'
loop_
_space_group_symop_operation_xyz
x,y,z
-y,x-y,2/3+z
-x+y,-x,1/3+z
-y,-x,1/3-z
-x+y,y,2/3-z
x,x-y,-z
loop_
_atom_site_type_symbol
_atom_site_label
_atom_site_fract_x
_atom_site_fract_y
_atom_site_fract_z
Si Si1 0.524550 0.459631 0.894635
Si Si2 0.726140 0.529073 0.093238
Si Si3 0.218962 0.701395 0.891237
Si Si4 0.750598 0.009376 0.728666
O O1 0.514945 0.371287 0.777387
O O2 0.495955 0.596413 0.870634
O O3 0.686102 0.521325 0.958646
O O4 0.401155 0.341353 0.980008
O O5 0.582677 0.417324 0.166667
O O6 0.774383 0.694314 0.143920
O O7 0.385538 0.771075 0.833334
O O8 0.175937 0.828286 0.926917
O O9 0.205703 0.602852 0.000000
O O10 0.917468 0.082533 0.666667
#
# Coordination Sequence:
#
# PCOD8322258 Si02
#       4
#     6   6   6   6
#     4  10  20  36  57  96 128 169 219 281 341 394
#     4   9  18  34  61  88 127 167 214 275 329 406
#     4  12  23  36  61 101 139 170 223 296 340 404
#     4   9  19  36  58  90 135 179 210 261 347 418
#
# _framework density 22.569151999999999
#
# number of rings (size 3 to 8) (size 9 to 14) (size 15 to 20)
#    0.000    2.000    2.500    4.500    0.000    2.000 
#    0.000    0.000    0.000    0.000   39.000    0.000 
#    0.000    0.000    0.000    0.000    0.000    0.000 
#
# Total GULP energy -297335.421714 kJ/mol
# GULP energy per Si atom -12388.975905 kJ/mol
# Density = 2.251778 g / cm^3
# Si number density = 22.569152 Si / 1000 Ang^3
#
#
#
# Elastic Constant Matrix: (Units=GPa)
#
#
# Indices 1 2 3 4 5 6 
#
# 1 82.8076 36.7481 37.3637 -0.0001 -0.0654 0.0000
# 2 36.7481 82.8076 37.3637 0.0001 0.0654 0.0000
# 3 37.3637 37.3637 76.0008 0.0000 0.0000 0.0000
# 4 -0.0001 0.0001 0.0000 24.0786 0.0000 0.0654
# 5 -0.0654 0.0654 0.0000 0.0000 24.0786 -0.0001
# 6 0.0000 0.0000 0.0000 0.0654 -0.0001 23.0298
#
#
#
# Elastic Compliance Matrix: (Units=1/GPa)
#
#
# Indices 1 2 3 4 5 6 
#
# 1 0.016893 -0.004818 -0.005936 0.000000 0.000059 0.000000
# 2 -0.004818 0.016893 -0.005936 0.000000 -0.000059 0.000000
# 3 -0.005936 -0.005936 0.018994 0.000000 0.000000 0.000000
# 4 0.000000 0.000000 0.000000 0.041531 0.000000 -0.000118
# 5 0.000059 -0.000059 0.000000 0.000000 0.041531 0.000000
# 6 0.000000 0.000000 0.000000 -0.000118 0.000000 0.043422
#
#
# Mechanical properties :
#
#
# Convention : Reuss Voigt Hill
#
# Bulk Modulus (GPa) = 51.54878 51.61855 51.58367
# Shear Modulus (GPa) = 22.81933 22.91341 22.86637
#
# Velocity S-wave (km/s) = 3.18321 3.18976 3.18649
# Velocity P-wave (km/s) = 6.03327 6.04045 6.03686
#
# Compressibility (1/GPa) = 0.01939910
#
# Stress axis : x y z
#
# Youngs Moduli (GPa) = 59.19632 59.19632 52.64684
#
# Poissons Ratio (x) = 0.28522 0.31252
# Poissons Ratio (y) = 0.28522 0.31252
# Poissons Ratio (z) = 0.35140 0.35140
#
# Static dielectric constant tensor:
#      x y z
#    x 4.161080 0.000000 0.000000 
#    y 0.000000 4.161080 0.000000 
#    z 0.000000 0.000000 4.197870 
# 
# 
# High freq. dielectric constant tensor:
#      x y z
#    x 1.861900 0.000000 0.000000 
#    y 0.000000 1.861900 0.000000 
#    z 0.000000 0.000000 1.892050 
# 
# From -- ./inp_files/2359.got.cif
#   From: 2010.03.12/outbox.cif.g09.slc.cpg/sg153_2_cif.got.tgz:2359.got - 2010.04.03 13:48:33.
