data_PCOD8322940
_publ_section_title
;
Structure prediction by ZEFSAII (Michael W. Deem and Ramdas Pophale) SiO2 
 PCOD8322940
Probable space group: P -3 1 M 
;
_chemical_formula_sum "Si O2"
_cell_formula_units_Z 96
_cell_length_a 18.055887
_cell_length_b 18.055887
_cell_length_c 20.867124
_cell_angle_alpha 90.000000
_cell_angle_beta 90.000000
_cell_angle_gamma 120.000000
_cell_volume 5891.567865
_symmetry_space_group_name_H-M "P -3 1 M "
_symmetry_group_IT_number 162
_symmetry_cell_setting 'hexagonal'
loop_
_space_group_symop_operation_xyz
x,y,z
-y,x-y,z
-x+y,-x,z
-y,-x,-z
-x+y,y,-z
x,x-y,-z
-x,-y,-z
y,-x+y,-z
x-y,x,-z
y,x,z
x-y,-y,z
-x,-x+y,z
loop_
_atom_site_type_symbol
_atom_site_label
_atom_site_fract_x
_atom_site_fract_y
_atom_site_fract_z
Si Si1 0.100188 0.735764 0.882080
Si Si2 0.098365 0.460590 0.242499
Si Si3 0.269357 0.369755 0.121312
Si Si4 0.532817 0.901037 0.996785
Si Si5 0.526691 0.900870 0.234302
Si Si6 0.498652 0.659258 0.630854
Si Si7 0.633782 0.098944 0.501665
Si Si8 0.496701 0.321455 0.628783
O O1 0.112730 0.700360 0.815426
O O2 0.165513 0.838982 0.883754
O O3 0.133451 0.696635 0.937067
O O4 0.000000 0.710700 0.891533
O O5 0.139744 0.563005 0.227990
O O6 0.137577 0.441724 0.306327
O O7 0.000000 0.424966 0.257205
O O8 0.295240 0.295240 0.126421
O O9 0.299040 0.434383 0.181834
O O10 0.314759 0.430354 0.061095
O O11 0.569846 0.000000 0.983159
O O12 0.428902 0.857804 0.000000
O O13 0.552082 0.882933 0.304726
O O14 0.570428 0.000000 0.219525
O O15 0.559004 0.679824 0.567953
O O16 0.421511 0.563525 0.628687
O O17 0.460843 0.722989 0.631748
O O18 0.566836 0.133671 0.500000
O O19 0.698707 0.142916 0.561623
O O20 0.587848 0.000000 0.515432
#
# Coordination Sequence:
#
# PCOD8322940 Si02
#       8
#    12  12  12  12  12  12  12  12
#     4  10  19  31  48  69  92 119 153 190 226 265
#     4   9  17  29  45  63  83 110 143 177 213 257
#     4  10  19  31  48  69  92 119 153 190 226 265
#     4   9  17  30  49  70  90 114 144 177 213 256
#     4   9  17  29  45  63  83 110 143 177 213 257
#     4  10  18  27  39  56  79 104 131 164 205 251
#     4   9  17  28  40  52  68  95 132 170 202 236
#     4  10  18  27  39  56  79 104 131 164 205 251
#
# _framework density 16.294474000000001
#
# number of rings (size 3 to 8) (size 9 to 14) (size 15 to 20)
#    0.000    2.500    0.000    3.250    0.000    6.000 
#    0.000    1.250    0.000    8.750    0.000    0.000 
#    0.000    3.000    0.000    0.000    0.000    0.000 
#
# Total GULP energy -1189381.972789 kJ/mol
# GULP energy per Si atom -12389.395550 kJ/mol
# Density = 1.625739 g / cm^3
# Si number density = 16.294474 Si / 1000 Ang^3
#
#
#
# Elastic Constant Matrix: (Units=GPa)
#
#
# Indices 1 2 3 4 5 6 
#
# 1 55.2955 22.5816 19.4321 0.0000 0.5759 0.0000
# 2 22.5816 55.2955 19.4321 0.0000 -0.5759 0.0000
# 3 19.4321 19.4321 116.7542 0.0000 0.0000 0.0000
# 4 0.0000 0.0000 0.0000 11.7771 0.0000 -0.5759
# 5 0.5759 -0.5759 0.0000 0.0000 11.7771 0.0000
# 6 0.0000 0.0000 0.0000 -0.5759 0.0000 16.3570
#
#
#
# Elastic Compliance Matrix: (Units=1/GPa)
#
#
# Indices 1 2 3 4 5 6 
#
# 1 0.022312 -0.008308 -0.002331 0.000000 -0.001497 0.000000
# 2 -0.008308 0.022312 -0.002331 0.000000 0.001497 0.000000
# 3 -0.002331 -0.002331 0.009341 0.000000 0.000000 0.000000
# 4 0.000000 0.000000 0.000000 0.085057 0.000000 0.002995
# 5 -0.001497 0.001497 0.000000 0.000000 0.085057 0.000000
# 6 0.000000 0.000000 0.000000 0.002995 0.000000 0.061241
#
#
# Mechanical properties :
#
#
# Convention : Reuss Voigt Hill
#
# Bulk Modulus (GPa) = 35.68163 38.91519 37.29841
# Shear Modulus (GPa) = 15.59562 19.04219 17.31890
#
# Velocity S-wave (km/s) = 3.09708 3.42223 3.26371
# Velocity P-wave (km/s) = 5.89362 6.28887 6.09445
#
# Compressibility (1/GPa) = 0.02802563
#
# Stress axis : x y z
#
# Youngs Moduli (GPa) = 44.81831 44.81831 107.05668
#
# Poissons Ratio (x) = 0.37237 0.24952
# Poissons Ratio (y) = 0.37237 0.24952
# Poissons Ratio (z) = 0.10446 0.10446
#
# Static dielectric constant tensor:
#      x y z
#    x 2.850170 0.000000 0.000000 
#    y 0.000000 2.850170 0.000000 
#    z 0.000000 0.000000 3.529920 
# 
# 
# High freq. dielectric constant tensor:
#      x y z
#    x 1.588940 0.000000 0.000000 
#    y 0.000000 1.588940 0.000000 
#    z 0.000000 0.000000 1.658880 
# 
# From -- ./inp_files/3896.got.cif
#   From: 2010.03.12/outbox.cif.g09.slc.cpg/sg162_2_cif.got.tgz:3896.got - 2010.04.02 06:27:41.
