data_PCOD8322569
_publ_section_title
;
Structure prediction by ZEFSAII (Michael W. Deem and Ramdas Pophale) SiO2 
 PCOD8322569
Probable space group: R 3 2
;
_chemical_formula_sum "Si O2"
_cell_formula_units_Z 144
_cell_length_a 30.720778
_cell_length_b 30.720778
_cell_length_c 9.264722
_cell_angle_alpha 90.000000
_cell_angle_beta 90.000000
_cell_angle_gamma 120.000000
_cell_volume 7572.293590
_symmetry_space_group_name_H-M "R 3 2"
_symmetry_group_IT_number 155
_symmetry_cell_setting 'hexagonal'
loop_
_space_group_symop_operation_xyz
x,y,z
-y,x-y,z
-x+y,-x,z
x-y,-y,-z
-x,-x+y,-z
y,x,-z
2/3+x,1/3+y,1/3+z
2/3-y,1/3+x-y,1/3+z
2/3-x+y,1/3-x,1/3+z
2/3+x-y,1/3-y,1/3-z
2/3-x,1/3-x+y,1/3-z
2/3+y,1/3+x,1/3-z
1/3+x,2/3+y,2/3+z
1/3-y,2/3+x-y,2/3+z
1/3-x+y,2/3-x,2/3+z
1/3+x-y,2/3-y,2/3-z
1/3-x,2/3-x+y,2/3-z
1/3+y,2/3+x,2/3-z
loop_
_atom_site_type_symbol
_atom_site_label
_atom_site_fract_x
_atom_site_fract_y
_atom_site_fract_z
Si Si1 0.391246 0.427480 0.136567
Si Si2 0.275785 0.910478 0.687772
Si Si3 0.717650 0.531523 0.745136
Si Si4 0.185625 0.715655 0.260401
Si Si5 0.450148 0.977542 0.154651
Si Si6 0.020781 0.549601 0.656943
Si Si7 0.049315 0.200783 0.076550
Si Si8 0.614965 0.133854 0.258359
O O1 0.333334 0.394612 0.166667
O O2 0.407977 0.486522 0.124012
O O3 0.415495 0.419773 0.279400
O O4 0.409170 0.409170 0.000000
O O5 0.333334 0.951463 0.666667
O O6 0.251921 0.918588 0.833334
O O7 0.249024 0.919880 0.552467
O O8 0.267497 0.853813 0.675842
O O9 0.666667 0.496511 0.833334
O O10 0.754417 0.507914 0.752621
O O11 0.749848 0.584608 0.823426
O O12 0.705774 0.539163 0.579672
O O13 0.172652 0.666667 0.166667
O O14 0.169447 0.702542 0.426674
O O15 0.499776 0.002898 0.251057
O O16 0.470435 0.000000 0.000000
O O17 0.079937 0.588929 0.663670
O O18 0.000000 0.530554 0.500000
O O19 0.089135 0.181834 0.062197
O O20 0.000000 0.157287 0.000000
O O21 0.666667 0.173517 0.333334
#
# Coordination Sequence:
#
# PCOD8322569 Si02
#       8
#    18  18  18  18  18  18  18  18
#     4  11  23  40  61  84 126 173 212 264 318 367
#     4  11  25  41  59  86 128 172 218 265 320 375
#     4  11  24  39  68  98 120 164 219 260 316 384
#     4  10  22  43  64  91 125 166 204 259 324 382
#     4  12  22  41  63  87 126 171 212 266 323 377
#     4  12  25  38  60  92 129 170 216 264 319 378
#     4  10  23  44  62  92 130 163 206 267 319 377
#     4  11  24  40  65  96 125 164 217 260 312 384
#
# _framework density 19.016694999999999
#
# number of rings (size 3 to 8) (size 9 to 14) (size 15 to 20)
#    0.000    1.000    5.000    1.500    7.000    3.000 
#    0.000    0.000    0.000    0.500    0.000    0.000 
#    0.000    0.000    0.000    0.000    0.000    0.000 
#
# Total GULP energy -594995.623645 kJ/mol
# GULP energy per Si atom -12395.742159 kJ/mol
# Density = 1.897341 g / cm^3
# Si number density = 19.016695 Si / 1000 Ang^3
#
#
#
# Elastic Constant Matrix: (Units=GPa)
#
#
# Indices 1 2 3 4 5 6 
#
# 1 106.0027 37.2064 51.5696 -4.8096 -0.1950 0.0793
# 2 37.2064 106.1547 52.2028 4.9282 0.1275 -0.0402
# 3 51.5696 52.2028 136.7478 0.3455 0.0855 -0.0170
# 4 -4.8096 4.9282 0.3455 40.7400 0.1637 -0.0408
# 5 -0.1950 0.1275 0.0855 0.1637 40.4314 -4.4884
# 6 0.0793 -0.0402 -0.0170 -0.0408 -4.4884 34.0082
#
#
#
# Elastic Compliance Matrix: (Units=1/GPa)
#
#
# Indices 1 2 3 4 5 6 
#
# 1 0.012176 -0.002573 -0.003614 0.001779 0.000065 -0.000023
# 2 -0.002573 0.012218 -0.003689 -0.001750 -0.000035 0.000012
# 3 -0.003614 -0.003689 0.010084 -0.000066 -0.000026 0.000006
# 4 0.001779 -0.001750 -0.000066 0.024969 -0.000085 0.000012
# 5 0.000065 -0.000035 -0.000026 -0.000085 0.025102 0.003313
# 6 -0.000023 0.000012 0.000006 0.000012 0.003313 0.029842
#
#
# Mechanical properties :
#
#
# Convention : Reuss Voigt Hill
#
# Bulk Modulus (GPa) = 67.91122 70.09589 69.00355
# Shear Modulus (GPa) = 35.95810 36.89768 36.42789
#
# Velocity S-wave (km/s) = 4.35313 4.40964 4.38148
# Velocity P-wave (km/s) = 7.81378 7.92886 7.87153
#
# Compressibility (1/GPa) = 0.01472511
#
# Stress axis : x y z
#
# Youngs Moduli (GPa) = 82.12962 81.84949 99.16544
#
# Poissons Ratio (x) = 0.21060 0.35839
# Poissons Ratio (y) = 0.21132 0.36584
# Poissons Ratio (z) = 0.29682 0.30196
#
# Static dielectric constant tensor:
#      x y z
#    x 3.553480 -0.000260 0.001970 
#    y -0.000260 3.553830 -0.000420 
#    z 0.001970 -0.000420 2.769240 
# 
# 
# High freq. dielectric constant tensor:
#      x y z
#    x 1.732870 0.000000 -0.000020 
#    y 0.000000 1.732880 0.000000 
#    z -0.000020 0.000000 1.750710 
# 
# From -- ./inp_files/3067.got.cif
#   From: 2010.03.12/outbox.cif.g09.slc.cpg/sg155_2_cif.got.tgz:3067.got - 2010.04.03 13:54:13.
