data_PCOD8322500
_publ_section_title
;
Structure prediction by ZEFSAII (Michael W. Deem and Ramdas Pophale) SiO2 
 PCOD8322500
Probable space group: R 3 2
;
_chemical_formula_sum "Si O2"
_cell_formula_units_Z 126
_cell_length_a 20.268849
_cell_length_b 20.268849
_cell_length_c 16.528771
_cell_angle_alpha 90.000000
_cell_angle_beta 90.000000
_cell_angle_gamma 120.000000
_cell_volume 5880.704661
_symmetry_space_group_name_H-M "R 3 2"
_symmetry_group_IT_number 155
_symmetry_cell_setting 'hexagonal'
loop_
_space_group_symop_operation_xyz
x,y,z
-y,x-y,z
-x+y,-x,z
x-y,-y,-z
-x,-x+y,-z
y,x,-z
2/3+x,1/3+y,1/3+z
2/3-y,1/3+x-y,1/3+z
2/3-x+y,1/3-x,1/3+z
2/3+x-y,1/3-y,1/3-z
2/3-x,1/3-x+y,1/3-z
2/3+y,1/3+x,1/3-z
1/3+x,2/3+y,2/3+z
1/3-y,2/3+x-y,2/3+z
1/3-x+y,2/3-x,2/3+z
1/3+x-y,2/3-y,2/3-z
1/3-x,2/3-x+y,2/3-z
1/3+y,2/3+x,2/3-z
loop_
_atom_site_type_symbol
_atom_site_label
_atom_site_fract_x
_atom_site_fract_y
_atom_site_fract_z
Si Si1 0.552307 0.021203 0.907772
Si Si2 0.510413 0.137179 0.250878
Si Si3 0.614740 0.456925 0.692492
Si Si4 0.154617 0.695992 0.492954
Si Si5 0.956495 0.838282 0.645980
Si Si6 0.588016 0.565326 0.801957
Si Si7 0.859189 0.754053 0.187582
O O1 0.614913 0.110727 0.909636
O O2 0.468642 0.003971 0.880919
O O3 0.569180 0.967355 0.847311
O O4 0.549511 0.000000 0.000000
O O5 0.515293 0.181959 0.333334
O O6 0.593054 0.149405 0.224850
O O7 0.478806 0.168821 0.181824
O O8 0.451301 0.046800 0.261849
O O9 0.703746 0.489639 0.686117
O O10 0.580437 0.367467 0.711045
O O11 0.599392 0.498638 0.765577
O O12 0.572815 0.469574 0.616178
O O13 0.187809 0.703930 0.404062
O O14 0.106448 0.607430 0.517227
O O15 0.666667 0.636066 0.833334
O O16 0.798701 0.666667 0.166667
#
# Coordination Sequence:
#
# PCOD8322500 Si02
#       7
#    18  18  18  18  18  18  18
#     4   9  19  38  60  81 121 166 212 255 311 384
#     4  11  23  41  64  95 127 166 222 275 330 388
#     4  11  22  38  63  97 129 169 218 263 328 396
#     4   9  21  41  63  91 120 168 216 261 328 397
#     4  10  19  38  63  89 128 168 213 258 320 394
#     4  11  22  36  58  94 127 164 207 266 323 381
#     4  11  23  43  67  95 129 169 219 273 335 394
#
# _framework density 21.426003999999999
#
# number of rings (size 3 to 8) (size 9 to 14) (size 15 to 20)
#    0.000    1.714    2.857    1.571    0.000    1.714 
#    6.000    0.000    3.143    0.000    0.000    0.000 
#    0.000    0.000    0.000    0.000    0.000    0.000 
#
# Total GULP energy -520415.910998 kJ/mol
# GULP energy per Si atom -12390.855024 kJ/mol
# Density = 2.137724 g / cm^3
# Si number density = 21.426004 Si / 1000 Ang^3
#
#
#
# Elastic Constant Matrix: (Units=GPa)
#
#
# Indices 1 2 3 4 5 6 
#
# 1 80.4728 20.5873 13.2523 1.0248 0.0000 0.0000
# 2 20.5873 80.4728 13.2523 -1.0248 0.0000 0.0000
# 3 13.2523 13.2523 48.2410 0.0000 0.0000 0.0000
# 4 1.0248 -1.0248 0.0000 21.6499 0.0000 0.0000
# 5 0.0000 0.0000 0.0000 0.0000 21.6499 1.0248
# 6 0.0000 0.0000 0.0000 0.0000 1.0248 29.9428
#
#
#
# Elastic Compliance Matrix: (Units=1/GPa)
#
#
# Indices 1 2 3 4 5 6 
#
# 1 0.013694 -0.003031 -0.002929 -0.000792 0.000000 0.000000
# 2 -0.003031 0.013694 -0.002929 0.000792 0.000000 0.000000
# 3 -0.002929 -0.002929 0.022339 0.000000 0.000000 0.000000
# 4 -0.000792 0.000792 0.000000 0.046265 0.000000 0.000000
# 5 0.000000 0.000000 0.000000 0.000000 0.046265 -0.001583
# 6 0.000000 0.000000 0.000000 0.000000 -0.001583 0.033451
#
#
# Mechanical properties :
#
#
# Convention : Reuss Voigt Hill
#
# Bulk Modulus (GPa) = 31.30081 33.70784 32.50432
# Shear Modulus (GPa) = 24.49336 25.45483 24.97409
#
# Velocity S-wave (km/s) = 3.38473 3.45053 3.41779
# Velocity P-wave (km/s) = 5.46953 5.62505 5.54783
#
# Compressibility (1/GPa) = 0.03194806
#
# Stress axis : x y z
#
# Youngs Moduli (GPa) = 73.02203 73.02203 44.76537
#
# Poissons Ratio (x) = 0.22134 0.13113
# Poissons Ratio (y) = 0.22134 0.13113
# Poissons Ratio (z) = 0.21391 0.21391
#
# Static dielectric constant tensor:
#      x y z
#    x 4.184190 0.000000 0.000000 
#    y 0.000000 4.184190 0.000000 
#    z 0.000000 0.000000 3.666720 
# 
# 
# High freq. dielectric constant tensor:
#      x y z
#    x 1.842570 0.000000 0.000000 
#    y 0.000000 1.842570 0.000000 
#    z 0.000000 0.000000 1.828400 
# 
# From -- ./inp_files/6258.got.cif
#   From: 2010.03.12/outbox.cif.g09.slc.cpg/sg155_4_cif.got.tgz:6258.got - 2010.04.03 13:54:13.
