data_PCOD8322346
_publ_section_title
;
Structure prediction by ZEFSAII (Michael W. Deem and Ramdas Pophale) SiO2 
 PCOD8322346
Probable space group: P 32 2 1
;
_chemical_formula_sum "Si O2"
_cell_formula_units_Z 36
_cell_length_a 8.867461
_cell_length_b 8.867461
_cell_length_c 25.659020
_cell_angle_alpha 90.000000
_cell_angle_beta 90.000000
_cell_angle_gamma 120.000000
_cell_volume 1747.307219
_symmetry_space_group_name_H-M "P 32 2 1"
_symmetry_group_IT_number 154
_symmetry_cell_setting 'hexagonal'
loop_
_space_group_symop_operation_xyz
x,y,z
-y,x-y,2/3+z
-x+y,-x,1/3+z
x-y,-y,1/3-z
-x,-x+y,2/3-z
y,x,-z
loop_
_atom_site_type_symbol
_atom_site_label
_atom_site_fract_x
_atom_site_fract_y
_atom_site_fract_z
Si Si1 0.195329 0.181332 0.560346
Si Si2 0.080621 0.596833 0.052146
Si Si3 0.341699 0.569070 0.439946
Si Si4 0.449540 0.090527 0.056026
Si Si5 0.533579 0.225018 0.441950
Si Si6 0.875131 0.924930 0.381315
O O1 0.220204 0.220204 0.500000
O O2 0.376971 0.199300 0.582327
O O3 0.168525 0.339386 0.580191
O O4 0.034667 0.988436 0.569396
O O5 0.268705 0.630467 0.072567
O O6 0.078968 0.773418 0.040799
O O7 0.937876 0.497827 0.097247
O O8 0.028993 0.482264 0.000020
O O9 0.527003 0.573842 0.435288
O O10 0.285813 0.582526 0.498543
O O11 0.610360 0.277222 0.072837
O O12 0.274881 0.104463 0.053374
O O13 0.000000 0.021659 0.333334
#
# Coordination Sequence:
#
# PCOD8322346 Si02
#       6
#     6   6   6   6   6   6
#     4   9  19  37  60  83 114 150 191 246 303 364
#     4  11  22  37  61  87 120 161 203 250 312 385
#     4   9  20  38  60  85 119 160 198 243 312 383
#     4  10  20  38  60  82 115 162 205 248 307 376
#     4  10  20  38  61  86 118 159 200 250 310 377
#     4  11  22  36  57  85 114 150 200 253 307 369
#
# _framework density 20.603128999999999
#
# number of rings (size 3 to 8) (size 9 to 14) (size 15 to 20)
#    0.000    2.000    0.000    6.500    0.000    5.333 
#    0.000    5.833    0.000    0.000    0.000    0.000 
#    0.000    0.000    0.000    0.000    0.000    0.000 
#
# Total GULP energy -446052.817617 kJ/mol
# GULP energy per Si atom -12390.356045 kJ/mol
# Density = 2.055624 g / cm^3
# Si number density = 20.603129 Si / 1000 Ang^3
#
#
#
# Elastic Constant Matrix: (Units=GPa)
#
#
# Indices 1 2 3 4 5 6 
#
# 1 118.9591 44.8926 29.5136 4.0598 0.0003 0.0000
# 2 44.8926 118.9591 29.5136 -4.0598 -0.0003 0.0000
# 3 29.5136 29.5136 52.5150 0.0000 0.0000 0.0000
# 4 4.0598 -4.0598 0.0000 23.3754 0.0000 -0.0003
# 5 0.0003 -0.0003 0.0000 0.0000 23.3754 4.0598
# 6 0.0000 0.0000 0.0000 -0.0003 4.0598 37.0333
#
#
#
# Elastic Compliance Matrix: (Units=1/GPa)
#
#
# Indices 1 2 3 4 5 6 
#
# 1 0.010708 -0.003056 -0.004301 -0.002390 0.000000 0.000000
# 2 -0.003056 0.010708 -0.004301 0.002390 0.000000 0.000000
# 3 -0.004301 -0.004301 0.023876 0.000000 0.000000 0.000000
# 4 -0.002390 0.002390 0.000000 0.043610 0.000000 0.000000
# 5 0.000000 0.000000 0.000000 0.000000 0.043610 -0.004781
# 6 0.000000 0.000000 0.000000 0.000000 -0.004781 0.027527
#
#
# Mechanical properties :
#
#
# Convention : Reuss Voigt Hill
#
# Bulk Modulus (GPa) = 45.49949 55.36365 50.43157
# Shear Modulus (GPa) = 26.22202 29.19103 27.70652
#
# Velocity S-wave (km/s) = 3.57139 3.76816 3.67109
# Velocity P-wave (km/s) = 6.25605 6.77214 6.51920
#
# Compressibility (1/GPa) = 0.02197827
#
# Stress axis : x y z
#
# Youngs Moduli (GPa) = 93.38894 93.38894 41.88278
#
# Poissons Ratio (x) = 0.28535 0.18012
# Poissons Ratio (y) = 0.28535 0.18012
# Poissons Ratio (z) = 0.40163 0.40163
#
# Static dielectric constant tensor:
#      x y z
#    x 4.028490 0.000000 0.000000 
#    y 0.000000 4.028490 0.000000 
#    z 0.000000 0.000000 3.675840 
# 
# 
# High freq. dielectric constant tensor:
#      x y z
#    x 1.793630 0.000000 0.000000 
#    y 0.000000 1.793630 0.000000 
#    z 0.000000 0.000000 1.805780 
# 
# From -- ./inp_files/3616.got.cif
#   From: 2010.03.12/outbox.cif.g09.slc.cpg/sg154_2_cif.got.tgz:3616.got - 2010.04.03 13:51:21.
