data_PCOD8322949
_publ_section_title
;
Structure prediction by ZEFSAII (Michael W. Deem and Ramdas Pophale) SiO2 
 PCOD8322949
Probable space group: P -3 1 M 
;
_chemical_formula_sum "Si O2"
_cell_formula_units_Z 96
_cell_length_a 18.536750
_cell_length_b 18.536750
_cell_length_c 19.456763
_cell_angle_alpha 90.000000
_cell_angle_beta 90.000000
_cell_angle_gamma 120.000000
_cell_volume 5789.864580
_symmetry_space_group_name_H-M "P -3 1 M "
_symmetry_group_IT_number 162
_symmetry_cell_setting 'hexagonal'
loop_
_space_group_symop_operation_xyz
x,y,z
-y,x-y,z
-x+y,-x,z
-y,-x,-z
-x+y,y,-z
x,x-y,-z
-x,-y,-z
y,-x+y,-z
x-y,x,-z
y,x,z
x-y,-y,z
-x,-x+y,z
loop_
_atom_site_type_symbol
_atom_site_label
_atom_site_fract_x
_atom_site_fract_y
_atom_site_fract_z
Si Si1 0.808309 0.904155 0.918243
Si Si2 0.367941 0.460948 0.574536
Si Si3 0.905091 0.534031 0.853426
Si Si4 0.808432 0.616862 0.918721
Si Si5 0.332052 0.829385 0.287654
Si Si6 0.497334 0.667949 0.712346
Si Si7 0.460948 0.367940 0.425464
Si Si8 0.371060 0.905091 0.853426
O O1 0.856212 0.856212 0.891139
O O2 0.712539 0.856270 0.890746
O O3 0.856213 0.000000 0.891139
O O4 0.808530 0.904265 0.000000
O O5 0.382763 0.382763 0.577240
O O6 0.311073 0.453828 0.639465
O O7 0.455522 0.544478 0.582318
O O8 0.327069 0.460590 0.500000
O O9 0.852059 0.565791 0.894127
O O10 0.899143 0.541550 0.770922
O O11 0.874865 0.437432 0.872476
O O12 0.000000 0.592321 0.875505
O O13 0.713733 0.565791 0.894127
O O14 0.809432 0.618864 0.000000
O O15 0.250638 0.749362 0.259853
O O16 0.402543 0.805086 0.299399
O O17 0.546172 0.688927 0.639465
O O18 0.541550 0.642408 0.770922
O O19 0.382763 0.382763 0.422760
O O20 0.407678 0.000000 0.875505
#
# Coordination Sequence:
#
# PCOD8322949 Si02
#       8
#    12  12  12  12  12  12  12  12
#     4   9  17  30  51  78 106 131 153 184 236 308
#     4   8  14  25  41  61  86 118 156 195 233 277
#     4  10  21  37  55  73  96 131 172 208 245 294
#     4  11  22  37  54  77 101 127 160 209 262 300
#     4  10  18  29  45  66  92 123 158 198 243 287
#     4  10  18  29  45  66  92 123 158 198 243 287
#     4   8  14  25  41  61  86 118 156 195 233 277
#     4  10  21  37  55  73  96 131 172 208 245 294
#
# _framework density 16.580698999999999
#
# number of rings (size 3 to 8) (size 9 to 14) (size 15 to 20)
#    0.000    2.500    1.250    2.625    0.000    6.000 
#    0.750    1.250    0.000    1.500    0.000    0.000 
#    0.000    0.000    0.000    0.000    0.000    0.000 
#
# Total GULP energy -1189632.493708 kJ/mol
# GULP energy per Si atom -12392.005143 kJ/mol
# Density = 1.654296 g / cm^3
# Si number density = 16.580699 Si / 1000 Ang^3
#
#
#
# Elastic Constant Matrix: (Units=GPa)
#
#
# Indices 1 2 3 4 5 6 
#
# 1 93.8529 51.2927 32.6243 0.0000 0.0000 0.0000
# 2 51.2927 93.8529 32.6243 0.0000 0.0000 0.0000
# 3 32.6243 32.6243 70.8893 0.0000 0.0000 0.0000
# 4 0.0000 0.0000 0.0000 19.9741 0.0000 0.0000
# 5 0.0000 0.0000 0.0000 0.0000 19.9741 0.0000
# 6 0.0000 0.0000 0.0000 0.0000 0.0000 21.2801
#
#
#
# Elastic Compliance Matrix: (Units=1/GPa)
#
#
# Indices 1 2 3 4 5 6 
#
# 1 0.016091 -0.007405 -0.003998 0.000000 0.000000 0.000000
# 2 -0.007405 0.016091 -0.003998 0.000000 0.000000 0.000000
# 3 -0.003998 -0.003998 0.017786 0.000000 0.000000 0.000000
# 4 0.000000 0.000000 0.000000 0.050065 0.000000 0.000000
# 5 0.000000 0.000000 0.000000 0.000000 0.050065 0.000000
# 6 0.000000 0.000000 0.000000 0.000000 0.000000 0.046992
#
#
# Mechanical properties :
#
#
# Convention : Reuss Voigt Hill
#
# Bulk Modulus (GPa) = 52.16863 54.63087 53.39975
# Shear Modulus (GPa) = 21.34190 21.71593 21.52891
#
# Velocity S-wave (km/s) = 3.59158 3.62292 3.60729
# Velocity P-wave (km/s) = 6.98076 7.10779 7.04457
#
# Compressibility (1/GPa) = 0.01916861
#
# Stress axis : x y z
#
# Youngs Moduli (GPa) = 62.14480 62.14480 56.22341
#
# Poissons Ratio (x) = 0.46016 0.22477
# Poissons Ratio (y) = 0.46016 0.22477
# Poissons Ratio (z) = 0.24844 0.24844
#
# Static dielectric constant tensor:
#      x y z
#    x 3.049610 0.000000 0.000000 
#    y 0.000000 3.049610 0.000000 
#    z 0.000000 0.000000 3.184940 
# 
# 
# High freq. dielectric constant tensor:
#      x y z
#    x 1.621200 0.000000 0.000000 
#    y 0.000000 1.621200 0.000000 
#    z 0.000000 0.000000 1.634220 
# 
# From -- ./inp_files/3916.got.cif
#   From: 2010.03.12/outbox.cif.g09.slc.cpg/sg162_2_cif.got.tgz:3916.got - 2010.04.02 06:27:41.
