data_PCOD8322692
_publ_section_title
;
Structure prediction by ZEFSAII (Michael W. Deem and Ramdas Pophale) SiO2 
 PCOD8322692
Probable space group: P 3 M 1
;
_chemical_formula_sum "Si O2"
_cell_formula_units_Z 48
_cell_length_a 12.536626
_cell_length_b 12.536626
_cell_length_c 20.326950
_cell_angle_alpha 90.000000
_cell_angle_beta 90.000000
_cell_angle_gamma 120.000000
_cell_volume 2766.713508
_symmetry_space_group_name_H-M "P 3 M 1"
_symmetry_group_IT_number 156
_symmetry_cell_setting 'hexagonal'
loop_
_space_group_symop_operation_xyz
x,y,z
-y,x-y,z
-x+y,-x,z
-x+y,y,z
x,x-y,z
-y,-x,z
loop_
_atom_site_type_symbol
_atom_site_label
_atom_site_fract_x
_atom_site_fract_y
_atom_site_fract_z
Si Si1 0.580805 0.913651 0.485230
Si Si2 0.248451 0.250026 0.608395
Si Si3 0.420859 0.087293 0.218375
Si Si4 0.751320 0.751519 0.855511
Si Si5 0.915423 0.333737 0.978636
Si Si6 0.331708 0.416713 0.730797
Si Si7 0.422134 0.088484 0.368017
Si Si8 0.085787 0.665639 0.101861
O O1 0.459711 0.919421 0.502899
O O2 0.544212 0.772106 0.482464
O O3 0.681630 0.987897 0.540348
O O4 0.637134 0.974481 0.414927
O O5 0.106303 0.212605 0.614763
O O6 0.326779 0.337332 0.668046
O O7 0.257798 0.128899 0.611275
O O8 0.562646 0.125291 0.207237
O O9 0.408077 0.204039 0.199235
O O10 0.379043 0.045714 0.293328
O O11 0.332959 0.973097 0.172075
O O12 0.877864 0.755727 0.839674
O O13 0.688919 0.678582 0.921761
O O14 0.659508 0.682516 0.796123
O O15 0.779710 0.889855 0.863882
O O16 0.910179 0.455090 0.960783
O O17 0.777481 0.222520 0.985701
O O18 0.984848 0.346730 0.046538
O O19 0.227438 0.454876 0.725792
O O20 0.462146 0.537855 0.732541
O O21 0.565290 0.130579 0.376738
O O22 0.405922 0.202961 0.387757
O O23 0.128462 0.564231 0.100837
O O24 0.202551 0.797450 0.088652
#
# Coordination Sequence:
#
# PCOD8322692 Si02
#       8
#     6   6   6   6   6   6   6   6
#     4  10  20  33  50  72  99 131 165 201 241 287
#     4  10  20  34  53  75  99 128 163 204 247 292
#     4   9  17  30  50  74  98 125 159 201 246 291
#     4  10  20  34  53  76 103 135 169 204 241 285
#     4  10  20  34  53  76 101 129 162 202 247 293
#     4  10  20  34  53  76 102 132 166 204 245 289
#     4   9  17  30  49  73  99 127 160 199 244 291
#     4  10  20  33  49  70  97 129 164 201 243 290
#
# _framework density 17.349104000000001
#
# number of rings (size 3 to 8) (size 9 to 14) (size 15 to 20)
#    0.000    2.250    0.000    3.250    0.000    1.500 
#    0.000    3.750    0.000   14.500    0.000    0.000 
#    0.000    0.000    0.000    0.000    0.000    0.000 
#
# Total GULP energy -595353.222403 kJ/mol
# GULP energy per Si atom -12403.192133 kJ/mol
# Density = 1.730962 g / cm^3
# Si number density = 17.349104 Si / 1000 Ang^3
#
#
#
# Elastic Constant Matrix: (Units=GPa)
#
#
# Indices 1 2 3 4 5 6 
#
# 1 101.4507 60.9981 47.4062 -2.3595 -0.0005 0.0000
# 2 60.9981 101.4507 47.4062 2.3595 0.0005 0.0000
# 3 47.4062 47.4062 95.7210 0.0000 0.0000 0.0000
# 4 -2.3595 2.3595 0.0000 23.0702 0.0000 0.0005
# 5 -0.0005 0.0005 0.0000 0.0000 23.0702 -2.3595
# 6 0.0000 0.0000 0.0000 0.0005 -2.3595 20.2263
#
#
#
# Elastic Compliance Matrix: (Units=1/GPa)
#
#
# Indices 1 2 3 4 5 6 
#
# 1 0.016839 -0.008180 -0.004288 0.002559 0.000001 0.000000
# 2 -0.008180 0.016839 -0.004288 -0.002559 -0.000001 0.000000
# 3 -0.004288 -0.004288 0.014695 0.000000 0.000000 0.000000
# 4 0.002559 -0.002559 0.000000 0.043869 0.000000 -0.000001
# 5 0.000001 -0.000001 0.000000 0.000000 0.043869 0.005118
# 6 0.000000 0.000000 0.000000 -0.000001 0.005118 0.050038
#
#
# Mechanical properties :
#
#
# Convention : Reuss Voigt Hill
#
# Bulk Modulus (GPa) = 67.29978 67.80482 67.55230
# Shear Modulus (GPa) = 22.26039 22.79411 22.52725
#
# Velocity S-wave (km/s) = 3.58590 3.62864 3.60733
# Velocity P-wave (km/s) = 7.48470 7.53150 7.50813
#
# Compressibility (1/GPa) = 0.01485889
#
# Stress axis : x y z
#
# Youngs Moduli (GPa) = 59.38711 59.38711 68.05260
#
# Poissons Ratio (x) = 0.48579 0.29182
# Poissons Ratio (y) = 0.48579 0.29182
# Poissons Ratio (z) = 0.25466 0.25466
#
# Static dielectric constant tensor:
#      x y z
#    x 3.148370 0.000000 0.000000 
#    y 0.000000 3.148370 0.000000 
#    z 0.000000 0.000000 3.440620 
# 
# 
# High freq. dielectric constant tensor:
#      x y z
#    x 1.668240 0.000000 0.000000 
#    y 0.000000 1.668240 0.000000 
#    z 0.000000 0.000000 1.686560 
# 
# From -- ./inp_files/1095.got.cif
#   From: 2010.03.12/outbox.cif.g09.slc.cpg/sg156_cif.got.tgz:1095.got - 2010.04.03 13:58:47.
