data_PCOD8322412
_publ_section_title
;
Structure prediction by ZEFSAII (Michael W. Deem and Ramdas Pophale) SiO2 
 PCOD8322412
Probable space group: P 32 2 1
;
_chemical_formula_sum "Si O2"
_cell_formula_units_Z 24
_cell_length_a 15.006210
_cell_length_b 15.006210
_cell_length_c 5.168337
_cell_angle_alpha 90.000000
_cell_angle_beta 90.000000
_cell_angle_gamma 120.000000
_cell_volume 1007.914041
_symmetry_space_group_name_H-M "P 32 2 1"
_symmetry_group_IT_number 154
_symmetry_cell_setting 'hexagonal'
loop_
_space_group_symop_operation_xyz
x,y,z
-y,x-y,2/3+z
-x+y,-x,1/3+z
x-y,-y,1/3-z
-x,-x+y,2/3-z
y,x,-z
loop_
_atom_site_type_symbol
_atom_site_label
_atom_site_fract_x
_atom_site_fract_y
_atom_site_fract_z
Si Si1 0.067726 0.882982 0.088165
Si Si2 0.932872 0.450910 0.575257
Si Si3 0.388430 0.275284 0.398377
Si Si4 0.285457 0.731412 0.589484
O O1 0.000000 0.822553 0.333334
O O2 0.137951 0.000000 0.166667
O O3 0.145194 0.836813 0.049616
O O4 0.000000 0.873841 0.833334
O O5 0.894400 0.533981 0.526909
O O6 0.828602 0.339966 0.608268
O O7 0.000000 0.451266 0.333334
O O8 0.000000 0.477191 0.833334
O O9 0.311086 0.311086 0.500000
O O10 0.455516 0.266673 0.625619
O O11 0.246863 0.619874 0.468461
#
# Coordination Sequence:
#
# PCOD8322412 Si02
#       4
#     6   6   6   6
#     4  11  23  44  75 108 145 187 241 300 365 441
#     4  11  24  45  71 104 148 194 244 300 368 439
#     4  10  23  46  71 104 144 194 238 297 366 440
#     4  12  24  45  74 109 147 192 252 306 368 436
#
# _framework density 23.811553
#
# number of rings (size 3 to 8) (size 9 to 14) (size 15 to 20)
#    0.000    1.000    2.500    5.250    0.000    2.000 
#    0.000   12.500    0.000    6.000    0.000    0.000 
#    0.000    0.000    0.000    0.000    0.000    0.000 
#
# Total GULP energy -297508.953924 kJ/mol
# GULP energy per Si atom -12396.206413 kJ/mol
# Density = 2.375736 g / cm^3
# Si number density = 23.811553 Si / 1000 Ang^3
#
#
#
# Elastic Constant Matrix: (Units=GPa)
#
#
# Indices 1 2 3 4 5 6 
#
# 1 124.7102 63.1446 41.1983 -1.9204 0.0000 0.0000
# 2 63.1446 124.7102 41.1983 1.9204 0.0000 0.0000
# 3 41.1983 41.1983 119.8833 0.0000 0.0000 0.0000
# 4 -1.9204 1.9204 0.0000 37.4163 0.0000 0.0000
# 5 0.0000 0.0000 0.0000 0.0000 37.4163 -1.9204
# 6 0.0000 0.0000 0.0000 0.0000 -1.9204 30.7828
#
#
#
# Elastic Compliance Matrix: (Units=1/GPa)
#
#
# Indices 1 2 3 4 5 6 
#
# 1 0.011282 -0.005013 -0.002154 0.000836 0.000000 0.000000
# 2 -0.005013 0.011282 -0.002154 -0.000836 0.000000 0.000000
# 3 -0.002154 -0.002154 0.009822 0.000000 0.000000 0.000000
# 4 0.000836 -0.000836 0.000000 0.026812 0.000000 0.000000
# 5 0.000000 0.000000 0.000000 0.000000 0.026812 0.001673
# 6 0.000000 0.000000 0.000000 0.000000 0.001673 0.032590
#
#
# Mechanical properties :
#
#
# Convention : Reuss Voigt Hill
#
# Bulk Modulus (GPa) = 72.77019 73.37625 73.07322
# Shear Modulus (GPa) = 35.25514 36.04054 35.64784
#
# Velocity S-wave (km/s) = 3.85202 3.89469 3.87341
# Velocity P-wave (km/s) = 7.10009 7.14892 7.12455
#
# Compressibility (1/GPa) = 0.01374189
#
# Stress axis : x y z
#
# Youngs Moduli (GPa) = 88.64031 88.64031 101.81287
#
# Poissons Ratio (x) = 0.44440 0.21931
# Poissons Ratio (y) = 0.44440 0.21931
# Poissons Ratio (z) = 0.19094 0.19094
#
# Static dielectric constant tensor:
#      x y z
#    x 4.580850 0.000000 0.000000 
#    y 0.000000 4.580850 0.000000 
#    z 0.000000 0.000000 7.025260 
# 
# 
# High freq. dielectric constant tensor:
#      x y z
#    x 1.949470 0.000000 0.000000 
#    y 0.000000 1.949470 0.000000 
#    z 0.000000 0.000000 1.939400 
# 
# From -- ./inp_files/186.got.cif
#   From: 2010.03.12/outbox.cif.g09.slc.cpg/sg154_1_cif.got.tgz:186.got - 2010.04.03 13:51:21.
