data_PCOD8322599
_publ_section_title
;
Structure prediction by ZEFSAII (Michael W. Deem and Ramdas Pophale) SiO2 
 PCOD8322599
Probable space group: R 3 2
;
_chemical_formula_sum "Si O2"
_cell_formula_units_Z 63
_cell_length_a 19.553575
_cell_length_b 19.553575
_cell_length_c 8.201302
_cell_angle_alpha 90.000000
_cell_angle_beta 90.000000
_cell_angle_gamma 120.000000
_cell_volume 2715.599869
_symmetry_space_group_name_H-M "R 3 2"
_symmetry_group_IT_number 155
_symmetry_cell_setting 'hexagonal'
loop_
_space_group_symop_operation_xyz
x,y,z
-y,x-y,z
-x+y,-x,z
x-y,-y,-z
-x,-x+y,-z
y,x,-z
2/3+x,1/3+y,1/3+z
2/3-y,1/3+x-y,1/3+z
2/3-x+y,1/3-x,1/3+z
2/3+x-y,1/3-y,1/3-z
2/3-x,1/3-x+y,1/3-z
2/3+y,1/3+x,1/3-z
1/3+x,2/3+y,2/3+z
1/3-y,2/3+x-y,2/3+z
1/3-x+y,2/3-x,2/3+z
1/3+x-y,2/3-y,2/3-z
1/3-x,2/3-x+y,2/3-z
1/3+y,2/3+x,2/3-z
loop_
_atom_site_type_symbol
_atom_site_label
_atom_site_fract_x
_atom_site_fract_y
_atom_site_fract_z
Si Si1 0.211451 0.749686 0.916565
Si Si2 0.000000 0.913140 0.500000
Si Si3 0.289168 0.333334 0.833334
Si Si4 0.145601 0.478934 0.666667
Si Si5 0.906847 0.221722 0.488821
O O1 0.130775 0.720601 0.818973
O O2 0.289532 0.786685 0.802562
O O3 0.203567 0.671995 0.003737
O O4 0.220445 0.810047 0.059102
O O5 0.921196 0.921196 0.500000
O O6 0.333334 0.331117 0.666667
O O7 0.133496 0.397154 0.602367
O O8 0.867013 0.200347 0.666667
O O9 0.000000 0.280584 0.500000
#
# Coordination Sequence:
#
# PCOD8322599 Si02
#       5
#    18   9   9   9  18
#     4  12  25  48  74 109 146 193 253 305 373 445
#     4  10  27  48  72  99 146 202 254 294 354 453
#     4  12  29  52  78 107 150 200 252 308 370 453
#     4  12  22  40  72 116 144 182 238 316 388 426
#     4  12  21  35  69 108 150 185 227 310 378 435
#
# _framework density 23.199296
#
# number of rings (size 3 to 8) (size 9 to 14) (size 15 to 20)
#    0.286    0.000    7.143    1.714    0.000    5.714 
#    0.000    0.000    0.000    0.000    0.000    0.000 
#    0.000    0.000    0.000    0.000    0.000    0.000 
#
# Total GULP energy -260373.329731 kJ/mol
# GULP energy per Si atom -12398.729987 kJ/mol
# Density = 2.314649 g / cm^3
# Si number density = 23.199296 Si / 1000 Ang^3
#
#
#
# Elastic Constant Matrix: (Units=GPa)
#
#
# Indices 1 2 3 4 5 6 
#
# 1 67.8113 49.5768 42.3211 0.5578 0.0046 -0.0036
# 2 49.5768 67.8005 42.2802 -0.5632 -0.0097 -0.0001
# 3 42.3211 42.2802 159.5410 -0.0220 -0.0233 -0.0064
# 4 0.5578 -0.5632 -0.0220 40.2181 -0.0096 -0.0037
# 5 0.0046 -0.0097 -0.0233 -0.0096 40.2049 0.5618
# 6 -0.0036 -0.0001 -0.0064 -0.0037 0.5618 9.1141
#
#
#
# Elastic Compliance Matrix: (Units=1/GPa)
#
#
# Indices 1 2 3 4 5 6 
#
# 1 0.032721 -0.022186 -0.002800 -0.000766 -0.000011 0.000011
# 2 -0.022186 0.032715 -0.002784 0.000764 0.000009 -0.000011
# 3 -0.002800 -0.002784 0.007749 0.000004 0.000004 0.000004
# 4 -0.000766 0.000764 0.000004 0.024886 0.000006 0.000009
# 5 -0.000011 0.000009 0.000004 0.000006 0.024894 -0.001534
# 6 0.000011 -0.000011 0.000004 0.000009 -0.001534 0.109815
#
#
# Mechanical properties :
#
#
# Convention : Reuss Voigt Hill
#
# Bulk Modulus (GPa) = 56.68095 62.61214 59.64655
# Shear Modulus (GPa) = 16.99508 28.63906 22.81707
#
# Velocity S-wave (km/s) = 2.70954 3.51733 3.13952
# Velocity P-wave (km/s) = 5.85440 6.59870 6.23766
#
# Compressibility (1/GPa) = 0.01764261
#
# Stress axis : x y z
#
# Youngs Moduli (GPa) = 30.56114 30.56709 129.05351
#
# Poissons Ratio (x) = 0.67817 0.36140
# Poissons Ratio (y) = 0.67804 0.35933
# Poissons Ratio (z) = 0.08558 0.08511
#
# Static dielectric constant tensor:
#      x y z
#    x 4.075190 0.000000 -0.000010 
#    y 0.000000 4.075200 0.000000 
#    z -0.000010 0.000000 4.446700 
# 
# 
# High freq. dielectric constant tensor:
#      x y z
#    x 1.910120 0.000000 0.000000 
#    y 0.000000 1.910120 0.000000 
#    z 0.000000 0.000000 1.928380 
# 
# From -- ./inp_files/2062.got.cif
#   From: 2010.03.12/outbox.cif.g09.slc.cpg/sg155_2_cif.got.tgz:2062.got - 2010.04.03 13:54:13.
