data_PCOD8322628
_publ_section_title
;
Structure prediction by ZEFSAII (Michael W. Deem and Ramdas Pophale) SiO2 
 PCOD8322628
Probable space group: R 3 2
;
_chemical_formula_sum "Si O2"
_cell_formula_units_Z 75
_cell_length_a 11.456064
_cell_length_b 11.456064
_cell_length_c 26.888741
_cell_angle_alpha 90.000000
_cell_angle_beta 90.000000
_cell_angle_gamma 120.000000
_cell_volume 3056.130970
_symmetry_space_group_name_H-M "R 3 2"
_symmetry_group_IT_number 155
_symmetry_cell_setting 'hexagonal'
loop_
_space_group_symop_operation_xyz
x,y,z
-y,x-y,z
-x+y,-x,z
x-y,-y,-z
-x,-x+y,-z
y,x,-z
2/3+x,1/3+y,1/3+z
2/3-y,1/3+x-y,1/3+z
2/3-x+y,1/3-x,1/3+z
2/3+x-y,1/3-y,1/3-z
2/3-x,1/3-x+y,1/3-z
2/3+y,1/3+x,1/3-z
1/3+x,2/3+y,2/3+z
1/3-y,2/3+x-y,2/3+z
1/3-x+y,2/3-x,2/3+z
1/3+x-y,2/3-y,2/3-z
1/3-x,2/3-x+y,2/3-z
1/3+y,2/3+x,2/3-z
loop_
_atom_site_type_symbol
_atom_site_label
_atom_site_fract_x
_atom_site_fract_y
_atom_site_fract_z
Si Si1 0.333334 0.666667 0.739793
Si Si2 0.666667 0.875778 0.333334
Si Si3 0.000000 0.000000 0.190984
Si Si4 0.590767 0.934245 0.599062
Si Si5 0.117176 0.430402 0.919006
Si Si6 0.734018 0.734018 0.500000
Si Si7 0.735412 0.000000 0.500000
O O1 0.333334 0.666667 0.798881
O O2 0.362295 0.550693 0.719070
O O3 0.754022 0.835859 0.298191
O O4 0.741073 0.008932 0.370003
O O5 0.122920 0.984010 0.210639
O O6 0.533775 0.035170 0.610616
O O7 0.620505 0.943273 0.541252
O O8 0.994486 0.313064 0.885603
O O9 0.877515 0.754906 0.516043
#
# Coordination Sequence:
#
# PCOD8322628 Si02
#       7
#     6   9   6  18  18   9   9
#     4  12  27  46  88 120 153 207 268 358 399 472
#     4  12  28  48  70 112 162 206 254 326 402 492
#     4  12  21  48  79 112 141 205 262 324 402 475
#     4  12  26  49  76 114 156 205 270 324 411 481
#     4  12  24  47  75 108 151 205 259 323 402 487
#     4  12  24  44  74 110 146 194 258 330 388 476
#     4  12  24  48  74 116 154 198 262 336 398 476
#
# _framework density 24.540834
#
# number of rings (size 3 to 8) (size 9 to 14) (size 15 to 20)
#    0.000    0.000    4.800    6.720    0.000    4.800 
#    0.000    0.000    0.000    0.000    0.000    0.000 
#    0.000    0.000    0.000    0.000    0.000    0.000 
#
# Total GULP energy -309730.996788 kJ/mol
# GULP energy per Si atom -12389.239872 kJ/mol
# Density = 2.448498 g / cm^3
# Si number density = 24.540834 Si / 1000 Ang^3
#
#
#
# Elastic Constant Matrix: (Units=GPa)
#
#
# Indices 1 2 3 4 5 6 
#
# 1 103.1104 31.6884 28.8655 5.5137 0.0001 0.0000
# 2 31.6884 103.1115 28.8657 -5.5139 -0.0001 0.0000
# 3 28.8655 28.8657 125.1317 0.0001 0.0000 0.0000
# 4 5.5137 -5.5139 0.0001 40.6431 0.0000 -0.0001
# 5 0.0001 -0.0001 0.0000 0.0000 40.6432 5.5138
# 6 0.0000 0.0000 0.0000 -0.0001 5.5138 35.7115
#
#
#
# Elastic Compliance Matrix: (Units=1/GPa)
#
#
# Indices 1 2 3 4 5 6 
#
# 1 0.011266 -0.003035 -0.001899 -0.001940 0.000000 0.000000
# 2 -0.003035 0.011266 -0.001899 0.001940 0.000000 0.000000
# 3 -0.001899 -0.001899 0.008868 0.000000 0.000000 0.000000
# 4 -0.001940 0.001940 0.000000 0.025131 0.000000 0.000000
# 5 0.000000 0.000000 0.000000 0.000000 0.025131 -0.003880
# 6 0.000000 0.000000 0.000000 0.000000 -0.003880 0.028601
#
#
# Mechanical properties :
#
#
# Convention : Reuss Voigt Hill
#
# Bulk Modulus (GPa) = 56.38429 56.68808 56.53618
# Shear Modulus (GPa) = 38.50914 39.52852 39.01883
#
# Velocity S-wave (km/s) = 3.96559 4.01774 3.99175
# Velocity P-wave (km/s) = 6.63276 6.68376 6.65831
#
# Compressibility (1/GPa) = 0.01773544
#
# Stress axis : x y z
#
# Youngs Moduli (GPa) = 88.76063 88.76142 112.76928
#
# Poissons Ratio (x) = 0.26935 0.21414
# Poissons Ratio (y) = 0.26935 0.21414
# Poissons Ratio (z) = 0.16855 0.16855
#
# Static dielectric constant tensor:
#      x y z
#    x 4.563150 0.000000 0.000000 
#    y 0.000000 4.563150 0.000000 
#    z 0.000000 0.000000 4.636670 
# 
# 
# High freq. dielectric constant tensor:
#      x y z
#    x 1.973880 0.000000 0.000000 
#    y 0.000000 1.973880 0.000000 
#    z 0.000000 0.000000 1.989850 
# 
# From -- ./inp_files/8332.got.cif
#   From: 2010.03.12/outbox.cif.g09.slc.cpg/sg155_5_cif.got.tgz:8332.got - 2010.04.03 13:54:13.
