data_PCOD8322926
_publ_section_title
;
Structure prediction by ZEFSAII (Michael W. Deem and Ramdas Pophale) SiO2 
 PCOD8322926
Probable space group: P -3 1 M 
;
_chemical_formula_sum "Si O2"
_cell_formula_units_Z 84
_cell_length_a 33.782939
_cell_length_b 33.782939
_cell_length_c 5.235776
_cell_angle_alpha 90.000000
_cell_angle_beta 90.000000
_cell_angle_gamma 120.000000
_cell_volume 5174.954644
_symmetry_space_group_name_H-M "P -3 1 M "
_symmetry_group_IT_number 162
_symmetry_cell_setting 'hexagonal'
loop_
_space_group_symop_operation_xyz
x,y,z
-y,x-y,z
-x+y,-x,z
-y,-x,-z
-x+y,y,-z
x,x-y,-z
-x,-y,-z
y,-x+y,-z
x-y,x,-z
y,x,z
x-y,-y,z
-x,-x+y,z
loop_
_atom_site_type_symbol
_atom_site_label
_atom_site_fract_x
_atom_site_fract_y
_atom_site_fract_z
Si Si1 0.558300 0.802892 0.738543
Si Si2 0.388803 0.093003 0.132912
Si Si3 0.528659 0.334260 0.558299
Si Si4 0.946526 0.318994 0.631173
Si Si5 0.665617 0.422119 0.953648
Si Si6 0.388525 0.909221 0.583698
Si Si7 0.597141 0.544081 0.085830
O O1 0.581674 0.790837 0.500000
O O2 0.592331 0.853707 0.833882
O O3 0.513703 0.797688 0.598696
O O4 0.545880 0.772940 0.000000
O O5 0.355401 0.065601 0.370572
O O6 0.429843 0.081802 0.118343
O O7 0.359167 0.074390 0.873028
O O8 0.562084 0.335510 0.335327
O O9 0.513195 0.369528 0.466154
O O10 0.553269 0.349574 0.833208
O O11 0.920832 0.348074 0.617066
O O12 0.000000 0.352343 0.664795
O O13 0.631582 0.368419 0.000000
O O14 0.716931 0.433861 0.000000
O O15 0.422082 0.938075 0.349154
O O16 0.417361 0.926275 0.847616
O O17 0.580103 0.580103 0.043080
#
# Coordination Sequence:
#
# PCOD8322926 Si02
#       7
#    12  12  12  12  12  12  12
#     4  12  23  33  49  72 104 138 161 181 225 272
#     4  10  18  29  40  63  96 131 159 199 215 258
#     4  12  23  40  60  84 106 127 153 180 221 269
#     4  10  17  28  46  68 100 135 159 190 230 259
#     4  12  27  47  66  84 100 123 153 188 224 269
#     4  10  18  29  47  73 107 127 147 191 214 253
#     4  10  17  28  46  69 104 139 161 188 225 254
#
# _framework density 16.232026999999999
#
# number of rings (size 3 to 8) (size 9 to 14) (size 15 to 20)
#    0.000    1.143    2.857    9.143    4.000    0.000 
#    0.000    1.429    0.000    0.000    0.000    0.000 
#    0.000   66.286    0.000    0.000    0.000    0.000 
#
# Total GULP energy -1040725.680979 kJ/mol
# GULP energy per Si atom -12389.591440 kJ/mol
# Density = 1.619508 g / cm^3
# Si number density = 16.232027 Si / 1000 Ang^3
#
#
#
# Elastic Constant Matrix: (Units=GPa)
#
#
# Indices 1 2 3 4 5 6 
#
# 1 33.4376 26.7719 22.6219 0.0000 2.3786 0.0000
# 2 26.7719 33.4376 22.6219 0.0000 -2.3786 0.0000
# 3 22.6219 22.6219 174.1160 0.0000 0.0000 0.0000
# 4 0.0000 0.0000 0.0000 22.7982 0.0000 -2.3786
# 5 2.3786 -2.3786 0.0000 0.0000 22.7982 0.0000
# 6 0.0000 0.0000 0.0000 -2.3786 0.0000 3.3328
#
#
#
# Elastic Compliance Matrix: (Units=1/GPa)
#
#
# Indices 1 2 3 4 5 6 
#
# 1 0.090248 -0.071843 -0.002391 0.000000 -0.016911 0.000000
# 2 -0.071843 0.090248 -0.002391 0.000000 0.016911 0.000000
# 3 -0.002391 -0.002391 0.006365 0.000000 0.000000 0.000000
# 4 0.000000 0.000000 0.000000 0.047392 0.000000 0.033823
# 5 -0.016911 0.016911 0.000000 0.000000 0.047392 0.000000
# 6 0.000000 0.000000 0.000000 0.033823 0.000000 0.324183
#
#
# Mechanical properties :
#
#
# Convention : Reuss Voigt Hill
#
# Bulk Modulus (GPa) = 29.75256 42.78030 36.26643
# Shear Modulus (GPa) = 6.49113 21.05089 13.77101
#
# Velocity S-wave (km/s) = 2.00191 3.60512 2.91586
# Velocity P-wave (km/s) = 4.86958 6.61377 5.80753
#
# Compressibility (1/GPa) = 0.03361056
#
# Stress axis : x y z
#
# Youngs Moduli (GPa) = 11.08052 11.08052 157.11705
#
# Poissons Ratio (x) = 0.79606 0.37572
# Poissons Ratio (y) = 0.79606 0.37572
# Poissons Ratio (z) = 0.02650 0.02650
#
# Static dielectric constant tensor:
#      x y z
#    x 2.774130 0.000000 0.000000 
#    y 0.000000 2.774130 0.000000 
#    z 0.000000 0.000000 5.658760 
# 
# 
# High freq. dielectric constant tensor:
#      x y z
#    x 1.575400 0.000000 0.000000 
#    y 0.000000 1.575400 0.000000 
#    z 0.000000 0.000000 1.676790 
# 
# From -- ./inp_files/783.got.cif
#   From: 2010.03.12/outbox.cif.g09.slc.cpg/sg162_1_cif.got.tgz:783.got - 2010.04.02 06:27:41.
