data_PCOD8322499
_publ_section_title
;
Structure prediction by ZEFSAII (Michael W. Deem and Ramdas Pophale) SiO2 
 PCOD8322499
Probable space group: R 3 2
;
_chemical_formula_sum "Si O2"
_cell_formula_units_Z 123
_cell_length_a 19.581884
_cell_length_b 19.581884
_cell_length_c 19.510799
_cell_angle_alpha 90.000000
_cell_angle_beta 90.000000
_cell_angle_gamma 120.000000
_cell_volume 6479.099264
_symmetry_space_group_name_H-M "R 3 2"
_symmetry_group_IT_number 155
_symmetry_cell_setting 'hexagonal'
loop_
_space_group_symop_operation_xyz
x,y,z
-y,x-y,z
-x+y,-x,z
x-y,-y,-z
-x,-x+y,-z
y,x,-z
2/3+x,1/3+y,1/3+z
2/3-y,1/3+x-y,1/3+z
2/3-x+y,1/3-x,1/3+z
2/3+x-y,1/3-y,1/3-z
2/3-x,1/3-x+y,1/3-z
2/3+y,1/3+x,1/3-z
1/3+x,2/3+y,2/3+z
1/3-y,2/3+x-y,2/3+z
1/3-x+y,2/3-x,2/3+z
1/3+x-y,2/3-y,2/3-z
1/3-x,2/3-x+y,2/3-z
1/3+y,2/3+x,2/3-z
loop_
_atom_site_type_symbol
_atom_site_label
_atom_site_fract_x
_atom_site_fract_y
_atom_site_fract_z
Si Si1 0.537304 0.537304 0.500000
Si Si2 0.118703 0.241515 0.325966
Si Si3 0.135361 0.443082 0.088388
Si Si4 0.440960 0.592963 0.841901
Si Si5 0.099513 0.168740 0.798074
Si Si6 0.424002 0.069965 0.258510
Si Si7 0.882125 0.039137 0.356563
Si Si8 0.000000 0.000000 0.419675
O O1 0.523868 0.454064 0.527958
O O2 0.567931 0.602978 0.558297
O O3 0.170049 0.333334 0.333334
O O4 0.086554 0.222738 0.248556
O O5 0.177815 0.208422 0.346079
O O6 0.044149 0.204562 0.375415
O O7 0.132699 0.466032 0.166667
O O8 0.064541 0.357493 0.069862
O O9 0.219580 0.448983 0.069626
O O10 0.348889 0.528867 0.832299
O O11 0.456109 0.681168 0.833028
O O12 0.495679 0.587234 0.782663
O O13 0.081552 0.147081 0.718709
O O14 0.443206 0.109873 0.333334
O O15 0.920720 0.993810 0.392856
O O16 0.000000 0.000000 0.500000
#
# Coordination Sequence:
#
# PCOD8322499 Si02
#       8
#     9  18  18  18  18  18  18   6
#     4  10  22  40  62  92 116 156 200 258 314 356
#     4  11  23  36  57  86 124 160 207 251 300 363
#     4  12  22  35  59  88 126 164 203 247 301 358
#     4  10  21  40  61  89 114 152 206 252 315 363
#     4  10  19  38  63  86 113 153 206 252 304 367
#     4  11  23  38  60  91 122 153 203 258 312 368
#     4  11  21  36  57  84 118 165 203 242 294 357
#     4  12  21  36  51  87 126 159 196 245 286 351
#
# _framework density 18.984120000000001
#
# number of rings (size 3 to 8) (size 9 to 14) (size 15 to 20)
#    0.000    1.171    3.659    3.805    4.098    0.000 
#    0.000    5.854    0.000    0.000    0.000    0.000 
#    0.000    0.000    0.000    0.000    0.000    0.000 
#
# Total GULP energy -508289.473347 kJ/mol
# GULP energy per Si atom -12397.304228 kJ/mol
# Density = 1.894091 g / cm^3
# Si number density = 18.984120 Si / 1000 Ang^3
#
#
#
# Elastic Constant Matrix: (Units=GPa)
#
#
# Indices 1 2 3 4 5 6 
#
# 1 103.2583 39.4631 38.3285 -3.1790 0.0011 0.0000
# 2 39.4631 103.2583 38.3285 3.1790 -0.0011 0.0000
# 3 38.3285 38.3285 122.3576 0.0000 0.0000 0.0000
# 4 -3.1790 3.1790 0.0000 22.8585 0.0000 -0.0011
# 5 0.0011 -0.0011 0.0000 0.0000 22.8585 -3.1790
# 6 0.0000 0.0000 0.0000 -0.0011 -3.1790 31.8976
#
#
#
# Elastic Compliance Matrix: (Units=1/GPa)
#
#
# Indices 1 2 3 4 5 6 
#
# 1 0.012160 -0.003736 -0.002639 0.002211 -0.000001 0.000000
# 2 -0.003736 0.012160 -0.002639 -0.002211 0.000001 0.000000
# 3 -0.002639 -0.002639 0.009826 0.000000 0.000000 0.000000
# 4 0.002211 -0.002211 0.000000 0.044362 0.000000 0.000001
# 5 -0.000001 0.000001 0.000000 0.000000 0.044362 0.004421
# 6 0.000000 0.000000 0.000000 0.000001 0.004421 0.031791
#
#
# Mechanical properties :
#
#
# Convention : Reuss Voigt Hill
#
# Bulk Modulus (GPa) = 62.03970 62.34603 62.19287
# Shear Modulus (GPa) = 28.08032 29.70651 28.89342
#
# Velocity S-wave (km/s) = 3.85014 3.96006 3.90549
# Velocity P-wave (km/s) = 7.24676 7.33634 7.29169
#
# Compressibility (1/GPa) = 0.01611871
#
# Stress axis : x y z
#
# Youngs Moduli (GPa) = 82.23863 82.23863 101.77099
#
# Poissons Ratio (x) = 0.30722 0.26855
# Poissons Ratio (y) = 0.30722 0.26855
# Poissons Ratio (z) = 0.21701 0.21701
#
# Static dielectric constant tensor:
#      x y z
#    x 3.513510 0.000000 0.000000 
#    y 0.000000 3.513510 0.000000 
#    z 0.000000 0.000000 3.549510 
# 
# 
# High freq. dielectric constant tensor:
#      x y z
#    x 1.733940 0.000000 0.000000 
#    y 0.000000 1.733940 0.000000 
#    z 0.000000 0.000000 1.737900 
# 
# From -- ./inp_files/6306.got.cif
#   From: 2010.03.12/outbox.cif.g09.slc.cpg/sg155_4_cif.got.tgz:6306.got - 2010.04.03 13:54:13.
