data_PCOD8322350
_publ_section_title
;
Structure prediction by ZEFSAII (Michael W. Deem and Ramdas Pophale) SiO2 
 PCOD8322350
Probable space group: P 32 2 1
;
_chemical_formula_sum "Si O2"
_cell_formula_units_Z 45
_cell_length_a 14.228314
_cell_length_b 14.228314
_cell_length_c 11.539537
_cell_angle_alpha 90.000000
_cell_angle_beta 90.000000
_cell_angle_gamma 120.000000
_cell_volume 2023.139818
_symmetry_space_group_name_H-M "P 32 2 1"
_symmetry_group_IT_number 154
_symmetry_cell_setting 'hexagonal'
loop_
_space_group_symop_operation_xyz
x,y,z
-y,x-y,2/3+z
-x+y,-x,1/3+z
x-y,-y,1/3-z
-x,-x+y,2/3-z
y,x,-z
loop_
_atom_site_type_symbol
_atom_site_label
_atom_site_fract_x
_atom_site_fract_y
_atom_site_fract_z
Si Si1 0.309625 0.523817 0.950669
Si Si2 0.111654 0.527203 0.872985
Si Si3 0.822254 0.863341 0.822400
Si Si4 0.000765 0.000000 0.666667
Si Si5 0.270822 0.384099 0.155812
Si Si6 0.680383 0.104779 0.944197
Si Si7 0.321999 0.190805 0.482622
Si Si8 0.766561 0.471888 0.974826
O O1 0.186247 0.500794 0.954957
O O2 0.334259 0.515256 0.815221
O O3 0.308884 0.427545 0.025368
O O4 0.393592 0.638215 0.008191
O O5 0.182960 0.591426 0.760178
O O6 0.000000 0.419980 0.833334
O O7 0.069772 0.593539 0.951375
O O8 0.701782 0.844610 0.825269
O O9 0.817908 0.751527 0.852266
O O10 0.882143 0.901182 0.699269
O O11 0.903988 0.959390 0.906139
O O12 0.332651 0.326357 0.205920
O O13 0.304846 0.492345 0.229762
O O14 0.794361 0.159589 0.015669
O O15 0.258824 0.258824 0.500000
O O16 0.420354 0.220705 0.569354
#
# Coordination Sequence:
#
# PCOD8322350 Si02
#       8
#     6   6   6   3   6   6   6   6
#     4  12  28  43  66 104 140 178 226 290 364 418
#     4  11  22  46  75  95 123 180 238 290 339 412
#     4  11  23  39  65 102 135 185 229 292 353 430
#     4  10  20  38  64  94 140 180 232 276 356 420
#     4  12  24  44  65  97 141 179 224 284 359 426
#     4  11  23  45  67  93 140 180 223 277 353 419
#     4  11  20  44  74 103 133 181 244 293 341 424
#     4  11  22  45  73  96 130 177 233 289 343 410
#
# _framework density 22.242652
#
# number of rings (size 3 to 8) (size 9 to 14) (size 15 to 20)
#    0.000    0.800    4.000    5.200    1.867    2.133 
#    7.200    0.000    0.000    0.000    0.000    0.000 
#    0.000    0.000    0.000    0.000    0.000    0.000 
#
# Total GULP energy -557659.761358 kJ/mol
# GULP energy per Si atom -12392.439141 kJ/mol
# Density = 2.219203 g / cm^3
# Si number density = 22.242652 Si / 1000 Ang^3
#
#
#
# Elastic Constant Matrix: (Units=GPa)
#
#
# Indices 1 2 3 4 5 6 
#
# 1 92.9876 32.4526 31.1635 0.9569 0.0000 0.0000
# 2 32.4526 92.9876 31.1635 -0.9569 0.0000 0.0000
# 3 31.1635 31.1635 112.1759 0.0000 0.0000 0.0000
# 4 0.9569 -0.9569 0.0000 35.9833 0.0000 0.0000
# 5 0.0000 0.0000 0.0000 0.0000 35.9833 0.9569
# 6 0.0000 0.0000 0.0000 0.0000 0.9569 30.2675
#
#
#
# Elastic Compliance Matrix: (Units=1/GPa)
#
#
# Indices 1 2 3 4 5 6 
#
# 1 0.012891 -0.003642 -0.002569 -0.000440 0.000000 0.000000
# 2 -0.003642 0.012891 -0.002569 0.000440 0.000000 0.000000
# 3 -0.002569 -0.002569 0.010342 0.000000 0.000000 0.000000
# 4 -0.000440 0.000440 0.000000 0.027814 0.000000 0.000000
# 5 0.000000 0.000000 0.000000 0.000000 0.027814 -0.000879
# 6 0.000000 0.000000 0.000000 0.000000 -0.000879 0.033067
#
#
# Mechanical properties :
#
#
# Convention : Reuss Voigt Hill
#
# Bulk Modulus (GPa) = 53.87381 54.19004 54.03192
# Shear Modulus (GPa) = 33.65462 34.00490 33.82976
#
# Velocity S-wave (km/s) = 3.89404 3.91425 3.90416
# Velocity P-wave (km/s) = 6.67020 6.69660 6.68341
#
# Compressibility (1/GPa) = 0.01856190
#
# Stress axis : x y z
#
# Youngs Moduli (GPa) = 77.57405 77.57405 96.69179
#
# Poissons Ratio (x) = 0.28255 0.24843
# Poissons Ratio (y) = 0.28255 0.24843
# Poissons Ratio (z) = 0.19931 0.19931
#
# Static dielectric constant tensor:
#      x y z
#    x 3.908500 0.000000 0.000000 
#    y 0.000000 3.908500 0.000000 
#    z 0.000000 0.000000 4.692370 
# 
# 
# High freq. dielectric constant tensor:
#      x y z
#    x 1.865620 0.000000 0.000000 
#    y 0.000000 1.865620 0.000000 
#    z 0.000000 0.000000 1.893620 
# 
# From -- ./inp_files/1801.got.cif
#   From: 2010.03.12/outbox.cif.g09.slc.cpg/sg154_1_cif.got.tgz:1801.got - 2010.04.03 13:51:21.
