data_PCOD8322104
_publ_section_title
;
Structure prediction by ZEFSAII (Michael W. Deem and Ramdas Pophale) SiO2 
 PCOD8322104
Probable space group: P 31 2 1
;
_chemical_formula_sum "Si O2"
_cell_formula_units_Z 42
_cell_length_a 9.021933
_cell_length_b 9.021933
_cell_length_c 28.312132
_cell_angle_alpha 90.000000
_cell_angle_beta 90.000000
_cell_angle_gamma 120.000000
_cell_volume 1995.732829
_symmetry_space_group_name_H-M "P 31 2 1"
_symmetry_group_IT_number 152
_symmetry_cell_setting 'hexagonal'
loop_
_space_group_symop_operation_xyz
x,y,z
-y,x-y,1/3+z
-x+y,-x,2/3+z
x-y,-y,2/3-z
-x,-x+y,1/3-z
y,x,-z
loop_
_atom_site_type_symbol
_atom_site_label
_atom_site_fract_x
_atom_site_fract_y
_atom_site_fract_z
Si Si1 0.011269 0.536193 0.546746
Si Si2 0.380776 0.358959 0.380517
Si Si3 0.053334 0.822454 0.854196
Si Si4 0.624438 0.028749 0.057106
Si Si5 0.660525 0.268434 0.371029
Si Si6 0.680292 0.347880 0.599901
Si Si7 0.270293 0.126875 0.465204
O O1 0.101271 0.596204 0.597423
O O2 0.088511 0.424743 0.522794
O O3 0.031716 0.689152 0.513668
O O4 0.808506 0.431694 0.556200
O O5 0.299219 0.320728 0.327744
O O6 0.570814 0.384289 0.378908
O O7 0.383846 0.523086 0.403956
O O8 0.274032 0.190816 0.412025
O O9 0.108296 0.773468 0.903400
O O10 0.907246 0.863858 0.866187
O O11 0.213519 0.000000 0.833334
O O12 0.469022 0.849600 0.072941
O O13 0.535837 0.143947 0.052208
O O14 0.642529 0.218460 0.315871
O O15 0.269654 0.269654 0.500000
#
# Coordination Sequence:
#
# PCOD8322104 Si02
#       7
#     6   6   6   6   6   6   6
#     4  11  23  40  65  91 125 171 205 262 325 373
#     4   9  21  40  66  93 120 160 213 266 306 374
#     4  11  26  41  60  90 133 170 211 261 313 390
#     4  10  21  39  64  91 126 164 206 260 314 371
#     4   9  21  39  64  94 126 155 212 263 316 373
#     4  10  20  39  66  94 121 165 211 255 316 383
#     4  10  23  42  62  92 124 161 216 260 316 383
#
# _framework density 21.044899999999998
#
# number of rings (size 3 to 8) (size 9 to 14) (size 15 to 20)
#    0.000    2.000    1.429    0.429    6.000    1.714 
#    2.571    0.000    6.286    0.000    0.000    0.000 
#    0.000    0.000    0.000    0.000    0.000    0.000 
#
# Total GULP energy -520480.198824 kJ/mol
# GULP energy per Si atom -12392.385686 kJ/mol
# Density = 2.099700 g / cm^3
# Si number density = 21.044900 Si / 1000 Ang^3
#
#
#
# Elastic Constant Matrix: (Units=GPa)
#
#
# Indices 1 2 3 4 5 6 
#
# 1 84.3726 26.1363 35.7591 3.8028 0.0000 0.0000
# 2 26.1363 84.3726 35.7591 -3.8028 0.0000 0.0000
# 3 35.7591 35.7591 80.1167 0.0000 0.0000 0.0000
# 4 3.8028 -3.8028 0.0000 30.6535 0.0000 0.0000
# 5 0.0000 0.0000 0.0000 0.0000 30.6535 3.8028
# 6 0.0000 0.0000 0.0000 0.0000 3.8028 29.1181
#
#
#
# Elastic Compliance Matrix: (Units=1/GPa)
#
#
# Indices 1 2 3 4 5 6 
#
# 1 0.015089 -0.002365 -0.005679 -0.002165 0.000000 0.000000
# 2 -0.002365 0.015089 -0.005679 0.002165 0.000000 0.000000
# 3 -0.005679 -0.005679 0.017552 0.000000 0.000000 0.000000
# 4 -0.002165 0.002165 0.000000 0.033160 0.000000 0.000000
# 5 0.000000 0.000000 0.000000 0.000000 0.033160 -0.004331
# 6 0.000000 0.000000 0.000000 0.000000 -0.004331 0.034908
#
#
# Mechanical properties :
#
#
# Convention : Reuss Voigt Hill
#
# Bulk Modulus (GPa) = 49.30218 49.35230 49.32724
# Shear Modulus (GPa) = 27.29744 28.16554 27.73149
#
# Velocity S-wave (km/s) = 3.60544 3.66232 3.63399
# Velocity P-wave (km/s) = 6.38829 6.43314 6.41076
#
# Compressibility (1/GPa) = 0.02028308
#
# Stress axis : x y z
#
# Youngs Moduli (GPa) = 66.27158 66.27158 56.97450
#
# Poissons Ratio (x) = 0.15672 0.32359
# Poissons Ratio (y) = 0.15672 0.32359
# Poissons Ratio (z) = 0.37639 0.37639
#
# Static dielectric constant tensor:
#      x y z
#    x 3.788190 0.000000 0.000000 
#    y 0.000000 3.788190 0.000000 
#    z 0.000000 0.000000 4.061370 
# 
# 
# High freq. dielectric constant tensor:
#      x y z
#    x 1.817640 0.000000 0.000000 
#    y 0.000000 1.817640 0.000000 
#    z 0.000000 0.000000 1.831170 
# 
# From -- ./inp_files/3733.got.cif
#   From: 2010.03.12/outbox.cif.g09.slc.cpg/sg152_2_cif.got.tgz:3733.got - 2010.04.03 13:45:27.
