data_PCOD8322910
_publ_section_title
;
Structure prediction by ZEFSAII (Michael W. Deem and Ramdas Pophale) SiO2 
 PCOD8322910
Probable space group: R 3 C
;
_chemical_formula_sum "Si O2"
_cell_formula_units_Z 84
_cell_length_a 17.947543
_cell_length_b 17.947543
_cell_length_c 12.960682
_cell_angle_alpha 90.000000
_cell_angle_beta 90.000000
_cell_angle_gamma 120.000000
_cell_volume 3615.501048
_symmetry_space_group_name_H-M "R 3 C"
_symmetry_group_IT_number 161
_symmetry_cell_setting 'hexagonal'
loop_
_space_group_symop_operation_xyz
x,y,z
-y,x-y,z
-x+y,-x,z
-x+y,y,1/2+z
x,x-y,1/2+z
-y,-x,1/2+z
2/3+x,1/3+y,1/3+z
2/3-y,1/3+x-y,1/3+z
2/3-x+y,1/3-x,1/3+z
2/3-x+y,1/3+y,5/6+z
2/3+x,1/3+x-y,5/6+z
2/3-y,1/3-x,5/6+z
1/3+x,2/3+y,2/3+z
1/3-y,2/3+x-y,2/3+z
1/3-x+y,2/3-x,2/3+z
1/3-x+y,2/3+y,1/6+z
1/3+x,2/3+x-y,1/6+z
1/3-y,2/3-x,1/6+z
loop_
_atom_site_type_symbol
_atom_site_label
_atom_site_fract_x
_atom_site_fract_y
_atom_site_fract_z
Si Si1 0.219923 0.480658 0.262520
Si Si2 0.000000 0.000000 0.635884
Si Si3 0.666668 0.333334 0.228407
Si Si4 0.030589 0.258256 0.047845
Si Si5 0.598106 0.986063 0.441368
Si Si6 0.057927 0.180485 0.417081
O O1 0.270815 0.566636 0.335029
O O2 0.276144 0.435413 0.244813
O O3 0.132630 0.409567 0.318226
O O4 0.195611 0.500340 0.150747
O O5 0.000000 0.000000 0.515600
O O6 0.710070 0.432737 0.190509
O O7 0.068427 0.313706 0.152300
O O8 0.013644 0.313912 0.963700
O O9 0.095318 0.231904 0.995976
O O10 0.518269 0.907855 0.496628
#
# Coordination Sequence:
#
# PCOD8322910 Si02
#       6
#    18   6   6  18  18  18
#     4  11  22  45  75  98 146 196 247 310 368 446
#     4   9  18  42  76  96 129 202 240 300 361 438
#     4   9  18  45  78  94 138 195 238 312 351 448
#     4  12  26  48  72 110 152 200 254 302 388 451
#     4  12  28  44  73 114 155 199 244 321 382 455
#     4  11  22  50  72 104 148 194 253 309 374 442
#
# _framework density 23.233294999999998
#
# number of rings (size 3 to 8) (size 9 to 14) (size 15 to 20)
#    0.000    0.857    8.571    1.286    3.000    0.000 
#    7.714    0.000    0.000    0.000    0.000    0.000 
#    0.000    0.000    0.000    0.000    0.000    0.000 
#
# Total GULP energy -347040.548004 kJ/mol
# GULP energy per Si atom -12394.305286 kJ/mol
# Density = 2.318041 g / cm^3
# Si number density = 23.233295 Si / 1000 Ang^3
#
#
#
# Elastic Constant Matrix: (Units=GPa)
#
#
# Indices 1 2 3 4 5 6 
#
# 1 151.4843 62.7713 20.0292 2.6928 0.0000 0.0000
# 2 62.7713 151.4859 20.0301 -2.6933 0.0000 0.0000
# 3 20.0292 20.0301 65.2469 0.0000 0.0000 0.0000
# 4 2.6928 -2.6933 0.0000 15.4208 0.0000 0.0000
# 5 0.0000 0.0000 0.0000 0.0000 15.4217 2.6928
# 6 0.0000 0.0000 0.0000 0.0000 2.6928 44.3569
#
#
#
# Elastic Compliance Matrix: (Units=1/GPa)
#
#
# Indices 1 2 3 4 5 6 
#
# 1 0.008172 -0.003221 -0.001520 -0.001990 0.000000 0.000000
# 2 -0.003221 0.008172 -0.001520 0.001990 0.000000 0.000000
# 3 -0.001520 -0.001520 0.016260 0.000000 0.000000 0.000000
# 4 -0.001990 0.001990 0.000000 0.065542 0.000000 0.000000
# 5 0.000000 0.000000 0.000000 0.000000 0.065538 -0.003979
# 6 0.000000 0.000000 0.000000 0.000000 -0.003979 0.022786
#
#
# Mechanical properties :
#
#
# Convention : Reuss Voigt Hill
#
# Bulk Modulus (GPa) = 49.79449 63.76425 56.77937
# Shear Modulus (GPa) = 24.30885 32.73233 28.52059
#
# Velocity S-wave (km/s) = 3.23816 3.75754 3.50748
# Velocity P-wave (km/s) = 5.95481 6.80664 6.39492
#
# Compressibility (1/GPa) = 0.02008254
#
# Stress axis : x y z
#
# Youngs Moduli (GPa) = 122.36498 122.36571 61.50200
#
# Poissons Ratio (x) = 0.39411 0.09348
# Poissons Ratio (y) = 0.39411 0.09349
# Poissons Ratio (z) = 0.18599 0.18601
#
# Static dielectric constant tensor:
#      x y z
#    x 5.982750 0.000000 0.000000 
#    y 0.000000 5.982580 0.000000 
#    z 0.000000 0.000000 3.920820 
# 
# 
# High freq. dielectric constant tensor:
#      x y z
#    x 1.934390 0.000000 0.000000 
#    y 0.000000 1.934390 0.000000 
#    z 0.000000 0.000000 1.898080 
# 
# From -- ./inp_files/838.got.cif
#   From: 2010.03.12/outbox.cif.g09.slc.cpg/sg161_cif.got.tgz:838.got - 2010.04.02 06:27:14.
