data_PCOD8322835
_publ_section_title
;
Structure prediction by ZEFSAII (Michael W. Deem and Ramdas Pophale) SiO2 
 PCOD8322835
Probable space group: P 3 1 C
;
_chemical_formula_sum "Si O2"
_cell_formula_units_Z 28
_cell_length_a 10.850699
_cell_length_b 10.850699
_cell_length_c 13.761803
_cell_angle_alpha 90.000000
_cell_angle_beta 90.000000
_cell_angle_gamma 120.000000
_cell_volume 1403.205896
_symmetry_space_group_name_H-M "P 3 1 C"
_symmetry_group_IT_number 159
_symmetry_cell_setting 'hexagonal'
loop_
_space_group_symop_operation_xyz
x,y,z
-y,x-y,z
-x+y,-x,z
y,x,1/2+z
x-y,-y,1/2+z
-x,-x+y,1/2+z
loop_
_atom_site_type_symbol
_atom_site_label
_atom_site_fract_x
_atom_site_fract_y
_atom_site_fract_z
Si Si1 0.292013 0.004563 0.035530
Si Si2 0.333335 0.666668 0.581583
Si Si3 0.978947 0.491170 0.879382
Si Si4 0.333334 0.666668 0.353008
Si Si5 0.009933 0.713858 0.037557
Si Si6 0.474457 0.512631 0.670581
O O1 0.289602 0.150208 0.045856
O O2 0.365749 0.980263 0.130611
O O3 0.132445 0.876358 0.024983
O O4 0.381122 0.009131 0.940295
O O5 0.333334 0.666667 0.467807
O O6 0.366291 0.546984 0.613970
O O7 0.829398 0.423294 0.819716
O O8 0.079600 0.540251 0.784384
O O9 0.010073 0.626928 0.942455
O O10 0.052098 0.651496 0.132645
#
# Coordination Sequence:
#
# PCOD8322835 Si02
#       6
#     6   2   6   2   6   6
#     4  11  23  42  62  90 123 161 206 254 306 365
#     4  12  18  45  69  82 116 175 210 237 306 385
#     4  11  23  40  65  91 122 160 206 252 306 373
#     4  12  18  45  69  82 116 175 210 237 306 385
#     4  11  23  42  62  90 123 161 206 254 306 365
#     4  11  23  40  65  91 122 160 206 252 306 373
#
# _framework density 19.954305000000002
#
# number of rings (size 3 to 8) (size 9 to 14) (size 15 to 20)
#    0.000    0.857    8.571    0.429    6.000    0.000 
#   10.286    0.000    0.000    5.143    0.000    0.000 
#    0.000    0.000    0.000    0.000    0.000    0.000 
#
# Total GULP energy -346997.280335 kJ/mol
# GULP energy per Si atom -12392.760012 kJ/mol
# Density = 1.990889 g / cm^3
# Si number density = 19.954305 Si / 1000 Ang^3
#
#
#
# Elastic Constant Matrix: (Units=GPa)
#
#
# Indices 1 2 3 4 5 6 
#
# 1 105.0692 26.1709 18.3630 0.0012 -0.3761 0.0005
# 2 26.1709 105.0697 18.3634 -0.0005 0.3765 0.0000
# 3 18.3630 18.3634 97.6486 0.0013 0.0007 0.0003
# 4 0.0012 -0.0005 0.0013 39.2588 0.0015 0.3753
# 5 -0.3761 0.3765 0.0007 0.0015 39.2570 -0.0009
# 6 0.0005 0.0000 0.0003 0.3753 -0.0009 39.4490
#
#
#
# Elastic Compliance Matrix: (Units=1/GPa)
#
#
# Indices 1 2 3 4 5 6 
#
# 1 0.010359 -0.002316 -0.001512 0.000000 0.000121 0.000000
# 2 -0.002316 0.010359 -0.001513 0.000000 -0.000122 0.000000
# 3 -0.001512 -0.001513 0.010810 0.000000 0.000000 0.000000
# 4 0.000000 0.000000 0.000000 0.025474 -0.000001 -0.000242
# 5 0.000121 -0.000122 0.000000 -0.000001 0.025475 0.000001
# 6 0.000000 0.000000 0.000000 -0.000242 0.000001 0.025352
#
#
# Mechanical properties :
#
#
# Convention : Reuss Voigt Hill
#
# Bulk Modulus (GPa) = 47.97213 48.17576 48.07395
# Shear Modulus (GPa) = 39.85309 39.91896 39.88603
#
# Velocity S-wave (km/s) = 4.47387 4.47757 4.47572
# Velocity P-wave (km/s) = 7.12605 7.13631 7.13118
#
# Compressibility (1/GPa) = 0.02084544
#
# Stress axis : x y z
#
# Youngs Moduli (GPa) = 96.53177 96.53213 92.50981
#
# Poissons Ratio (x) = 0.22361 0.13992
# Poissons Ratio (y) = 0.22361 0.13992
# Poissons Ratio (z) = 0.14600 0.14601
#
# Static dielectric constant tensor:
#      x y z
#    x 3.698410 0.000000 -0.000010 
#    y 0.000000 3.698410 -0.000020 
#    z -0.000010 -0.000020 3.601140 
# 
# 
# High freq. dielectric constant tensor:
#      x y z
#    x 1.782370 0.000000 0.000000 
#    y 0.000000 1.782370 0.000000 
#    z 0.000000 0.000000 1.774870 
# 
# From -- ./inp_files/784.got.cif
#   From: 2010.03.12/outbox.cif.g09.slc.cpg/sg159_cif.got.tgz:784.got - 2010.04.03 14:00:19.
