data_PCOD8322142
_publ_section_title
;
Structure prediction by ZEFSAII (Michael W. Deem and Ramdas Pophale) SiO2 
 PCOD8322142
Probable space group: P 31 2 1
;
_chemical_formula_sum "Si O2"
_cell_formula_units_Z 30
_cell_length_a 9.249568
_cell_length_b 9.249568
_cell_length_c 20.132126
_cell_angle_alpha 90.000000
_cell_angle_beta 90.000000
_cell_angle_gamma 120.000000
_cell_volume 1491.637079
_symmetry_space_group_name_H-M "P 31 2 1"
_symmetry_group_IT_number 152
_symmetry_cell_setting 'hexagonal'
loop_
_space_group_symop_operation_xyz
x,y,z
-y,x-y,1/3+z
-x+y,-x,2/3+z
x-y,-y,2/3-z
-x,-x+y,1/3-z
y,x,-z
loop_
_atom_site_type_symbol
_atom_site_label
_atom_site_fract_x
_atom_site_fract_y
_atom_site_fract_z
Si Si1 0.238127 0.406178 0.034536
Si Si2 0.439248 0.727217 0.958091
Si Si3 0.972822 0.433724 0.536510
Si Si4 0.405201 0.313105 0.240060
Si Si5 0.358951 0.098009 0.765687
O O1 0.349416 0.469159 0.101741
O O2 0.040918 0.317559 0.042518
O O3 0.270858 0.270858 0.000000
O O4 0.283108 0.563813 0.988179
O O5 0.555194 0.671450 0.918878
O O6 0.366385 0.807383 0.907147
O O7 0.541020 0.853453 0.017540
O O8 0.045745 0.513192 0.464317
O O9 0.836946 0.238412 0.530488
O O10 0.220223 0.284744 0.241487
O O11 0.305556 0.000000 0.833334
#
# Coordination Sequence:
#
# PCOD8322142 Si02
#       5
#     6   6   6   6   6
#     4   9  20  40  63  86 117 163 203 252 315 373
#     4  10  23  41  65  91 121 169 214 255 308 381
#     4  10  21  41  67  89 123 167 212 252 311 381
#     4  11  22  40  67  93 126 163 212 259 315 379
#     4  12  23  39  61  94 127 159 202 265 315 368
#
# _framework density 20.112131999999999
#
# number of rings (size 3 to 8) (size 9 to 14) (size 15 to 20)
#    0.000    1.600    2.000    4.200    2.800    3.200 
#    0.000    1.000    0.000    0.000    0.000    0.000 
#    0.000    0.000    0.000    0.000    0.000    0.000 
#
# Total GULP energy -372022.936442 kJ/mol
# GULP energy per Si atom -12400.764548 kJ/mol
# Density = 2.006636 g / cm^3
# Si number density = 20.112132 Si / 1000 Ang^3
#
#
#
# Elastic Constant Matrix: (Units=GPa)
#
#
# Indices 1 2 3 4 5 6 
#
# 1 120.2083 62.7717 19.9593 -2.5455 -0.0001 0.0000
# 2 62.7717 120.2083 19.9593 2.5455 0.0001 0.0000
# 3 19.9593 19.9593 38.9826 0.0000 0.0000 0.0000
# 4 -2.5455 2.5455 0.0000 25.2057 0.0000 0.0001
# 5 -0.0001 0.0001 0.0000 0.0000 25.2057 -2.5455
# 6 0.0000 0.0000 0.0000 0.0001 -2.5455 28.7183
#
#
#
# Elastic Compliance Matrix: (Units=1/GPa)
#
#
# Indices 1 2 3 4 5 6 
#
# 1 0.011860 -0.005708 -0.003150 0.001774 0.000000 0.000000
# 2 -0.005708 0.011860 -0.003150 -0.001774 0.000000 0.000000
# 3 -0.003150 -0.003150 0.028878 0.000000 0.000000 0.000000
# 4 0.001774 -0.001774 0.000000 0.040032 0.000000 0.000000
# 5 0.000000 0.000000 0.000000 0.000000 0.040032 0.003548
# 6 0.000000 0.000000 0.000000 0.000000 0.003548 0.035135
#
#
# Mechanical properties :
#
#
# Convention : Reuss Voigt Hill
#
# Bulk Modulus (GPa) = 34.98621 53.86441 44.42531
# Shear Modulus (GPa) = 24.83357 27.60656 26.22006
#
# Velocity S-wave (km/s) = 3.51772 3.70892 3.61459
# Velocity P-wave (km/s) = 5.82516 6.72173 6.28944
#
# Compressibility (1/GPa) = 0.02858269
#
# Stress axis : x y z
#
# Youngs Moduli (GPa) = 84.31696 84.31696 34.62829
#
# Poissons Ratio (x) = 0.48126 0.10908
# Poissons Ratio (y) = 0.48126 0.10908
# Poissons Ratio (z) = 0.26560 0.26560
#
# Static dielectric constant tensor:
#      x y z
#    x 3.778580 0.000000 0.000000 
#    y 0.000000 3.778580 0.000000 
#    z 0.000000 0.000000 3.801150 
# 
# 
# High freq. dielectric constant tensor:
#      x y z
#    x 1.784000 0.000000 0.000000 
#    y 0.000000 1.784000 0.000000 
#    z 0.000000 0.000000 1.788440 
# 
# From -- ./inp_files/2963.got.cif
#   From: 2010.03.12/outbox.cif.g09.slc.cpg/sg152_2_cif.got.tgz:2963.got - 2010.04.03 13:45:27.
