data_PCOD8322449
_publ_section_title
;
Structure prediction by ZEFSAII (Michael W. Deem and Ramdas Pophale) SiO2 
 PCOD8322449
Probable space group: P 32 2 1
;
_chemical_formula_sum "Si O2"
_cell_formula_units_Z 42
_cell_length_a 8.784054
_cell_length_b 8.784054
_cell_length_c 27.356079
_cell_angle_alpha 90.000000
_cell_angle_beta 90.000000
_cell_angle_gamma 120.000000
_cell_volume 1827.992775
_symmetry_space_group_name_H-M "P 32 2 1"
_symmetry_group_IT_number 154
_symmetry_cell_setting 'hexagonal'
loop_
_space_group_symop_operation_xyz
x,y,z
-y,x-y,2/3+z
-x+y,-x,1/3+z
x-y,-y,1/3-z
-x,-x+y,2/3-z
y,x,-z
loop_
_atom_site_type_symbol
_atom_site_label
_atom_site_fract_x
_atom_site_fract_y
_atom_site_fract_z
Si Si1 0.000000 0.358588 0.333334
Si Si2 0.965121 0.308318 0.001716
Si Si3 0.627508 0.303163 0.971806
Si Si4 0.691687 0.034884 0.498284
Si Si5 0.179261 0.032259 0.435524
Si Si6 0.324347 0.627505 0.805141
Si Si7 0.000000 0.641403 0.833334
Si Si8 0.179250 0.146997 0.731142
O O1 0.872017 0.402166 0.301615
O O2 0.870058 0.190907 0.365345
O O3 0.986400 0.269106 0.057513
O O4 0.153589 0.482459 0.992235
O O5 0.814977 0.359036 0.995876
O O6 0.928358 0.148752 0.965747
O O7 0.616206 0.232418 0.916666
O O8 0.640971 0.185030 0.504120
O O9 0.730898 0.013589 0.442487
O O10 0.851254 0.071654 0.534253
O O11 0.517545 0.846418 0.507766
O O12 0.320855 0.190914 0.467990
O O13 0.045700 0.091393 0.416666
O O14 0.127984 0.597826 0.801616
#
# Coordination Sequence:
#
# PCOD8322449 Si02
#       8
#     3   6   6   6   6   6   3   6
#     4  12  28  44  76 108 144 196 250 306 382 448
#     4  12  27  49  75 107 150 197 249 310 378 459
#     4  12  29  49  73 110 153 197 253 313 383 456
#     4  12  27  49  75 107 150 197 249 310 378 459
#     4  12  25  48  78 107 147 195 249 311 382 450
#     4  12  29  49  73 110 153 197 253 313 383 456
#     4  12  28  44  76 108 144 196 250 306 382 448
#     4  12  25  48  78 107 147 195 249 311 382 450
#
# _framework density 22.976020999999999
#
# number of rings (size 3 to 8) (size 9 to 14) (size 15 to 20)
#    0.000    0.000    5.714    2.571    8.000    0.000 
#    0.000    0.000    0.000    0.000    0.000    0.000 
#    0.000    0.000    0.000    0.000    0.000    0.000 
#
# Total GULP energy -520896.576633 kJ/mol
# GULP energy per Si atom -12402.299444 kJ/mol
# Density = 2.292373 g / cm^3
# Si number density = 22.976021 Si / 1000 Ang^3
#
#
#
# Elastic Constant Matrix: (Units=GPa)
#
#
# Indices 1 2 3 4 5 6 
#
# 1 138.6982 41.5439 34.1615 0.0012 0.0000 0.0000
# 2 41.5439 138.6982 34.1615 -0.0012 0.0000 0.0000
# 3 34.1615 34.1615 104.8179 0.0000 0.0000 0.0000
# 4 0.0012 -0.0012 0.0000 30.5460 0.0000 0.0000
# 5 0.0000 0.0000 0.0000 0.0000 30.5460 0.0012
# 6 0.0000 0.0000 0.0000 0.0000 0.0012 48.5772
#
#
#
# Elastic Compliance Matrix: (Units=1/GPa)
#
#
# Indices 1 2 3 4 5 6 
#
# 1 0.008312 -0.001981 -0.002063 0.000000 0.000000 0.000000
# 2 -0.001981 0.008312 -0.002063 0.000000 0.000000 0.000000
# 3 -0.002063 -0.002063 0.010885 0.000000 0.000000 0.000000
# 4 0.000000 0.000000 0.000000 0.032738 0.000000 0.000000
# 5 0.000000 0.000000 0.000000 0.000000 0.032738 -0.000001
# 6 0.000000 0.000000 0.000000 0.000000 -0.000001 0.020586
#
#
# Mechanical properties :
#
#
# Convention : Reuss Voigt Hill
#
# Bulk Modulus (GPa) = 65.38902 66.88314 66.13608
# Shear Modulus (GPa) = 38.20243 40.09033 39.14638
#
# Velocity S-wave (km/s) = 4.08206 4.18170 4.13218
# Velocity P-wave (km/s) = 7.12313 7.24491 7.18428
#
# Compressibility (1/GPa) = 0.01529309
#
# Stress axis : x y z
#
# Youngs Moduli (GPa) = 120.31506 120.31506 91.86855
#
# Poissons Ratio (x) = 0.23839 0.18953
# Poissons Ratio (y) = 0.23839 0.18953
# Poissons Ratio (z) = 0.24822 0.24822
#
# Static dielectric constant tensor:
#      x y z
#    x 4.221780 0.000000 0.000000 
#    y 0.000000 4.221780 0.000000 
#    z 0.000000 0.000000 4.239210 
# 
# 
# High freq. dielectric constant tensor:
#      x y z
#    x 1.920910 0.000000 0.000000 
#    y 0.000000 1.920910 0.000000 
#    z 0.000000 0.000000 1.902110 
# 
# From -- ./inp_files/3826.got.cif
#   From: 2010.03.12/outbox.cif.g09.slc.cpg/sg154_2_cif.got.tgz:3826.got - 2010.04.03 13:51:21.
