data_PCOD8322247
_publ_section_title
;
Structure prediction by ZEFSAII (Michael W. Deem and Ramdas Pophale) SiO2 
 PCOD8322247
Probable space group: P 32 1 2
;
_chemical_formula_sum "Si O2"
_cell_formula_units_Z 48
_cell_length_a 12.506168
_cell_length_b 12.506168
_cell_length_c 18.932616
_cell_angle_alpha 90.000000
_cell_angle_beta 90.000000
_cell_angle_gamma 120.000000
_cell_volume 2564.423659
_symmetry_space_group_name_H-M "P 32 1 2"
_symmetry_group_IT_number 153
_symmetry_cell_setting 'hexagonal'
loop_
_space_group_symop_operation_xyz
x,y,z
-y,x-y,2/3+z
-x+y,-x,1/3+z
-y,-x,1/3-z
-x+y,y,2/3-z
x,x-y,-z
loop_
_atom_site_type_symbol
_atom_site_label
_atom_site_fract_x
_atom_site_fract_y
_atom_site_fract_z
Si Si1 0.119313 0.380352 0.265771
Si Si2 0.850613 0.678345 0.536624
Si Si3 0.503373 0.251633 0.330948
Si Si4 0.509811 0.017999 0.649907
Si Si5 0.871199 0.726060 0.751376
Si Si6 0.952674 0.238654 0.721669
Si Si7 0.567273 0.643307 0.124054
Si Si8 0.113728 0.991892 0.304207
O O1 0.206771 0.413542 0.333334
O O2 0.217561 0.411142 0.202678
O O3 0.048717 0.458976 0.253017
O O4 0.011598 0.237974 0.272923
O O5 0.765941 0.570579 0.591474
O O6 0.774770 0.669751 0.466189
O O7 0.899871 0.811152 0.574547
O O8 0.961924 0.656394 0.513262
O O9 0.607295 0.214589 0.333334
O O10 0.564040 0.399745 0.338833
O O11 0.416789 0.196244 0.399557
O O12 0.621661 0.992334 0.639322
O O13 0.416085 0.951200 0.713768
O O14 0.875794 0.751587 0.833334
O O15 0.819065 0.800436 0.706659
O O16 0.851200 0.148801 0.666667
O O17 0.065746 0.211728 0.724393
O O18 0.447323 0.552678 0.166667
O O19 0.004731 0.009461 0.333334
#
# Coordination Sequence:
#
# PCOD8322247 Si02
#       8
#     6   6   6   6   6   6   6   6
#     4   9  18  35  55  72 100 138 175 217 262 316
#     4  10  21  37  55  78 112 145 175 226 281 330
#     4   9  19  35  55  77 104 141 184 222 269 330
#     4   9  19  35  52  74 104 138 173 214 264 318
#     4  10  20  33  53  81 107 136 178 228 277 328
#     4  11  22  34  53  82 113 142 180 225 279 339
#     4  10  19  33  55  80 102 132 177 223 267 313
#     4  10  21  36  55  78 106 146 182 217 272 336
#
# _framework density 18.717656000000002
#
# number of rings (size 3 to 8) (size 9 to 14) (size 15 to 20)
#    0.000    2.250    0.000    4.875    0.000    8.000 
#    0.000    1.875    0.000    9.000    0.000    0.000 
#    0.000    0.000    0.000    0.000    0.000    0.000 
#
# Total GULP energy -594657.666192 kJ/mol
# GULP energy per Si atom -12388.701379 kJ/mol
# Density = 1.867505 g / cm^3
# Si number density = 18.717656 Si / 1000 Ang^3
#
#
#
# Elastic Constant Matrix: (Units=GPa)
#
#
# Indices 1 2 3 4 5 6 
#
# 1 104.5792 56.4944 19.2909 -0.0001 -4.2046 0.0000
# 2 56.4944 104.5792 19.2909 0.0001 4.2046 0.0000
# 3 19.2909 19.2909 59.7171 0.0000 0.0000 0.0000
# 4 -0.0001 0.0001 0.0000 22.0765 0.0000 4.2046
# 5 -4.2046 4.2046 0.0000 0.0000 22.0765 -0.0001
# 6 0.0000 0.0000 0.0000 4.2046 -0.0001 24.0424
#
#
#
# Elastic Compliance Matrix: (Units=1/GPa)
#
#
# Indices 1 2 3 4 5 6 
#
# 1 0.014121 -0.007392 -0.002174 0.000000 0.004097 0.000000
# 2 -0.007392 0.014121 -0.002174 0.000000 -0.004097 0.000000
# 3 -0.002174 -0.002174 0.018150 0.000000 0.000000 0.000000
# 4 0.000000 0.000000 0.000000 0.046858 0.000000 -0.008195
# 5 0.004097 -0.004097 0.000000 0.000000 0.046858 0.000000
# 6 0.000000 0.000000 0.000000 -0.008195 0.000000 0.043026
#
#
# Mechanical properties :
#
#
# Convention : Reuss Voigt Hill
#
# Bulk Modulus (GPa) = 43.64311 51.00310 47.32310
# Shear Modulus (GPa) = 23.33713 25.22568 24.28140
#
# Velocity S-wave (km/s) = 3.53483 3.67508 3.60564
# Velocity P-wave (km/s) = 6.32671 6.73172 6.53235
#
# Compressibility (1/GPa) = 0.02291313
#
# Stress axis : x y z
#
# Youngs Moduli (GPa) = 70.81610 70.81610 55.09632
#
# Poissons Ratio (x) = 0.52348 0.11976
# Poissons Ratio (y) = 0.52348 0.11976
# Poissons Ratio (z) = 0.15394 0.15394
#
# Static dielectric constant tensor:
#      x y z
#    x 3.334900 0.000000 0.000000 
#    y 0.000000 3.334900 0.000000 
#    z 0.000000 0.000000 3.073490 
# 
# 
# High freq. dielectric constant tensor:
#      x y z
#    x 1.722080 0.000000 0.000000 
#    y 0.000000 1.722080 0.000000 
#    z 0.000000 0.000000 1.714760 
# 
# From -- ./inp_files/4049.got.cif
#   From: 2010.03.12/outbox.cif.g09.slc.cpg/sg153_3_cif.got.tgz:4049.got - 2010.04.03 13:48:33.
