data_PCOD8322580
_publ_section_title
;
Structure prediction by ZEFSAII (Michael W. Deem and Ramdas Pophale) SiO2 
 PCOD8322580
Probable space group: R 3 2
;
_chemical_formula_sum "Si O2"
_cell_formula_units_Z 90
_cell_length_a 17.228463
_cell_length_b 17.228463
_cell_length_c 14.797971
_cell_angle_alpha 90.000000
_cell_angle_beta 90.000000
_cell_angle_gamma 120.000000
_cell_volume 3803.871808
_symmetry_space_group_name_H-M "R 3 2"
_symmetry_group_IT_number 155
_symmetry_cell_setting 'hexagonal'
loop_
_space_group_symop_operation_xyz
x,y,z
-y,x-y,z
-x+y,-x,z
x-y,-y,-z
-x,-x+y,-z
y,x,-z
2/3+x,1/3+y,1/3+z
2/3-y,1/3+x-y,1/3+z
2/3-x+y,1/3-x,1/3+z
2/3+x-y,1/3-y,1/3-z
2/3-x,1/3-x+y,1/3-z
2/3+y,1/3+x,1/3-z
1/3+x,2/3+y,2/3+z
1/3-y,2/3+x-y,2/3+z
1/3-x+y,2/3-x,2/3+z
1/3+x-y,2/3-y,2/3-z
1/3-x,2/3-x+y,2/3-z
1/3+y,2/3+x,2/3-z
loop_
_atom_site_type_symbol
_atom_site_label
_atom_site_fract_x
_atom_site_fract_y
_atom_site_fract_z
Si Si1 0.184545 0.021933 0.637299
Si Si2 0.500738 0.145284 0.184242
Si Si3 0.031630 0.666667 0.666667
Si Si4 0.829279 0.517879 0.196035
Si Si5 0.301704 0.000000 0.500000
Si Si6 0.188049 0.165929 0.350908
O O1 0.198294 0.024643 0.743446
O O2 0.159914 0.097707 0.612246
O O3 0.272162 0.043600 0.580039
O O4 0.106748 0.922586 0.609058
O O5 0.506753 0.235627 0.221088
O O6 0.589253 0.149170 0.224277
O O7 0.409704 0.057922 0.216778
O O8 0.104771 0.710267 0.746705
O O9 0.018449 0.743038 0.616556
O O10 0.840318 0.531628 0.089888
#
# Coordination Sequence:
#
# PCOD8322580 Si02
#       6
#    18  18   9  18   9  18
#     4  10  23  43  65  93 127 170 215 256 320 376
#     4  10  23  43  67  90 131 171 208 262 321 379
#     4  12  24  38  66 102 126 162 214 270 312 374
#     4  10  23  43  65  93 127 170 215 256 320 376
#     4  12  24  38  66 102 126 162 214 270 312 374
#     4  10  23  43  67  90 131 171 208 262 321 379
#
# _framework density 23.660104
#
# number of rings (size 3 to 8) (size 9 to 14) (size 15 to 20)
#    0.000    1.600    0.000    3.200   11.200    4.800 
#    7.200    0.000    0.000    0.000    0.000    0.000 
#    0.000    0.000    0.000    0.000    0.000    0.000 
#
# Total GULP energy -371994.375980 kJ/mol
# GULP energy per Si atom -12399.812533 kJ/mol
# Density = 2.360625 g / cm^3
# Si number density = 23.660104 Si / 1000 Ang^3
#
#
#
# Elastic Constant Matrix: (Units=GPa)
#
#
# Indices 1 2 3 4 5 6 
#
# 1 155.8552 63.6960 8.8086 0.6893 0.0001 0.0000
# 2 63.6960 155.8552 8.8086 -0.6893 -0.0001 0.0000
# 3 8.8086 8.8086 43.1851 0.0000 0.0000 0.0000
# 4 0.6893 -0.6893 0.0000 21.8468 0.0000 -0.0001
# 5 0.0001 -0.0001 0.0000 0.0000 21.8468 0.6893
# 6 0.0000 0.0000 0.0000 -0.0001 0.6893 46.0796
#
#
#
# Elastic Compliance Matrix: (Units=1/GPa)
#
#
# Indices 1 2 3 4 5 6 
#
# 1 0.007743 -0.003113 -0.000945 -0.000343 0.000000 0.000000
# 2 -0.003113 0.007743 -0.000945 0.000343 0.000000 0.000000
# 3 -0.000945 -0.000945 0.023541 0.000000 0.000000 0.000000
# 4 -0.000343 0.000343 0.000000 0.045795 0.000000 0.000000
# 5 0.000000 0.000000 0.000000 0.000000 0.045795 -0.000685
# 6 0.000000 0.000000 0.000000 0.000000 -0.000685 0.021712
#
#
# Mechanical properties :
#
#
# Convention : Reuss Voigt Hill
#
# Bulk Modulus (GPa) = 34.45366 57.50245 45.97805
# Shear Modulus (GPa) = 29.06841 36.19343 32.63092
#
# Velocity S-wave (km/s) = 3.50892 3.91541 3.71772
# Velocity P-wave (km/s) = 5.56868 6.69305 6.15659
#
# Compressibility (1/GPa) = 0.02902449
#
# Stress axis : x y z
#
# Youngs Moduli (GPa) = 129.14515 129.14515 42.47825
#
# Poissons Ratio (x) = 0.40199 0.04012
# Poissons Ratio (y) = 0.40199 0.04012
# Poissons Ratio (z) = 0.12198 0.12198
#
# Static dielectric constant tensor:
#      x y z
#    x 4.340890 0.000000 0.000000 
#    y 0.000000 4.340890 0.000000 
#    z 0.000000 0.000000 3.849550 
# 
# 
# High freq. dielectric constant tensor:
#      x y z
#    x 1.945410 0.000000 0.000000 
#    y 0.000000 1.945410 0.000000 
#    z 0.000000 0.000000 1.923360 
# 
# From -- ./inp_files/6171.got.cif
#   From: 2010.03.12/outbox.cif.g09.slc.cpg/sg155_4_cif.got.tgz:6171.got - 2010.04.03 13:54:13.
