data_PCOD8322017
_publ_section_title
;
Structure prediction by ZEFSAII (Michael W. Deem and Ramdas Pophale) SiO2 
 PCOD8322017
Probable space group: P 31 2 1
;
_chemical_formula_sum "Si O2"
_cell_formula_units_Z 45
_cell_length_a 15.173545
_cell_length_b 15.173545
_cell_length_c 13.492806
_cell_angle_alpha 90.000000
_cell_angle_beta 90.000000
_cell_angle_gamma 120.000000
_cell_volume 2690.339089
_symmetry_space_group_name_H-M "P 31 2 1"
_symmetry_group_IT_number 152
_symmetry_cell_setting 'hexagonal'
loop_
_space_group_symop_operation_xyz
x,y,z
-y,x-y,1/3+z
-x+y,-x,2/3+z
x-y,-y,2/3-z
-x,-x+y,1/3-z
y,x,-z
loop_
_atom_site_type_symbol
_atom_site_label
_atom_site_fract_x
_atom_site_fract_y
_atom_site_fract_z
Si Si1 0.299957 0.897995 0.278210
Si Si2 0.401713 0.729364 0.571431
Si Si3 0.601350 0.761826 0.634337
Si Si4 0.000000 0.363416 0.166667
Si Si5 0.246003 0.357898 0.470851
Si Si6 0.563133 0.285344 0.278576
Si Si7 0.432014 0.910281 0.101065
Si Si8 0.443910 0.539690 0.373332
O O1 0.193406 0.829259 0.218787
O O2 0.295410 0.825855 0.367162
O O3 0.400575 0.934128 0.208676
O O4 0.312625 0.000000 0.333334
O O5 0.523717 0.775981 0.564166
O O6 0.367257 0.729166 0.460489
O O7 0.336250 0.616034 0.616587
O O8 0.386039 0.803213 0.646095
O O9 0.672436 0.731828 0.572717
O O10 0.674307 0.861062 0.698818
O O11 0.528033 0.672285 0.707796
O O12 0.919769 0.385274 0.222094
O O13 0.269637 0.269637 0.500000
O O14 0.351969 0.462739 0.446628
O O15 0.527360 0.357487 0.223598
O O16 0.519759 0.005736 0.041182
#
# Coordination Sequence:
#
# PCOD8322017 Si02
#       8
#     6   6   6   3   6   6   6   6
#     4  11  22  34  50  75 114 141 178 234 287 320
#     4  10  19  28  43  67  94 137 180 208 245 309
#     4   8  18  27  46  70 101 126 166 214 253 310
#     4  10  16  28  46  72 102 130 158 218 272 300
#     4  10  19  34  52  77  97 136 182 221 263 323
#     4  11  19  31  47  66 102 147 182 214 260 322
#     4   9  18  32  46  72 103 141 177 214 266 321
#     4  10  18  28  49  70 102 132 180 217 257 312
#
# _framework density 16.726516
#
# number of rings (size 3 to 8) (size 9 to 14) (size 15 to 20)
#    0.000    2.133    2.000    3.200    3.733    0.000 
#    0.000    0.000    0.000    0.000    1.733    0.000 
#    0.000    0.000    0.000    0.000    0.000    0.000 
#
# Total GULP energy -557466.050033 kJ/mol
# GULP energy per Si atom -12388.134445 kJ/mol
# Density = 1.668845 g / cm^3
# Si number density = 16.726516 Si / 1000 Ang^3
#
#
#
# Elastic Constant Matrix: (Units=GPa)
#
#
# Indices 1 2 3 4 5 6 
#
# 1 73.6317 32.7991 38.8307 -2.8953 0.0000 0.0000
# 2 32.7991 73.6317 38.8307 2.8953 0.0000 0.0000
# 3 38.8307 38.8307 80.7356 0.0000 0.0000 0.0000
# 4 -2.8953 2.8953 0.0000 31.8682 0.0000 0.0000
# 5 0.0000 0.0000 0.0000 0.0000 31.8682 -2.8953
# 6 0.0000 0.0000 0.0000 0.0000 -2.8953 20.4163
#
#
#
# Elastic Compliance Matrix: (Units=1/GPa)
#
#
# Indices 1 2 3 4 5 6 
#
# 1 0.019643 -0.005167 -0.006963 0.002254 0.000000 0.000000
# 2 -0.005167 0.019643 -0.006963 -0.002254 0.000000 0.000000
# 3 -0.006963 -0.006963 0.019083 0.000000 0.000000 0.000000
# 4 0.002254 -0.002254 0.000000 0.031789 0.000000 0.000000
# 5 0.000000 0.000000 0.000000 0.000000 0.031789 0.004508
# 6 0.000000 0.000000 0.000000 0.000000 0.004508 0.049620
#
#
# Mechanical properties :
#
#
# Convention : Reuss Voigt Hill
#
# Bulk Modulus (GPa) = 49.53938 49.87997 49.70967
# Shear Modulus (GPa) = 23.09689 24.66643 23.88166
#
# Velocity S-wave (km/s) = 3.72002 3.84434 3.78269
# Velocity P-wave (km/s) = 6.93779 7.04208 6.99013
#
# Compressibility (1/GPa) = 0.02018596
#
# Stress axis : x y z
#
# Youngs Moduli (GPa) = 50.90853 50.90853 52.40130
#
# Poissons Ratio (x) = 0.26304 0.36484
# Poissons Ratio (y) = 0.26304 0.36484
# Poissons Ratio (z) = 0.35445 0.35445
#
# Static dielectric constant tensor:
#      x y z
#    x 3.032680 0.000000 0.000000 
#    y 0.000000 3.032680 0.000000 
#    z 0.000000 0.000000 3.268800 
# 
# 
# High freq. dielectric constant tensor:
#      x y z
#    x 1.616790 0.000000 0.000000 
#    y 0.000000 1.616790 0.000000 
#    z 0.000000 0.000000 1.652740 
# 
# From -- ./inp_files/2174.got.cif
#   From: 2010.03.12/outbox.cif.g09.slc.cpg/sg152_2_cif.got.tgz:2174.got - 2010.04.03 13:45:27.
