data_PCOD8322280
_publ_section_title
;
Structure prediction by ZEFSAII (Michael W. Deem and Ramdas Pophale) SiO2 
 PCOD8322280
Probable space group: P 32 1 2
;
_chemical_formula_sum "Si O2"
_cell_formula_units_Z 36
_cell_length_a 8.752701
_cell_length_b 8.752701
_cell_length_c 24.088856
_cell_angle_alpha 90.000000
_cell_angle_beta 90.000000
_cell_angle_gamma 120.000000
_cell_volume 1598.199509
_symmetry_space_group_name_H-M "P 32 1 2"
_symmetry_group_IT_number 153
_symmetry_cell_setting 'hexagonal'
loop_
_space_group_symop_operation_xyz
x,y,z
-y,x-y,2/3+z
-x+y,-x,1/3+z
-y,-x,1/3-z
-x+y,y,2/3-z
x,x-y,-z
loop_
_atom_site_type_symbol
_atom_site_label
_atom_site_fract_x
_atom_site_fract_y
_atom_site_fract_z
Si Si1 0.172559 0.030940 0.562679
Si Si2 0.523550 0.182621 0.439777
Si Si3 0.504978 0.126017 0.896032
Si Si4 0.538118 0.712512 0.560470
Si Si5 0.954861 0.808915 0.273318
Si Si6 0.289690 0.798862 0.730098
O O1 0.191715 0.857411 0.565365
O O2 0.142756 0.071378 0.500000
O O3 0.343476 0.199022 0.590328
O O4 0.007554 0.998923 0.598844
O O5 0.512357 0.256179 0.500000
O O6 0.693426 0.340203 0.410202
O O7 0.543346 0.010836 0.439594
O O8 0.550038 0.100076 0.833334
O O9 0.323077 0.131777 0.895827
O O10 0.497747 0.974843 0.934449
O O11 0.592599 0.796300 0.500000
O O12 0.346573 0.672023 0.577779
O O13 0.674158 0.858920 0.602882
O O14 0.869401 0.738801 0.333334
O O15 0.231067 0.768934 0.666667
#
# Coordination Sequence:
#
# PCOD8322280 Si02
#       6
#     6   6   6   6   6   6
#     4  11  22  42  66  93 127 172 221 268 324 402
#     4  10  22  40  65  95 122 160 217 269 313 377
#     4  11  22  42  66  93 127 173 221 266 322 395
#     4  12  23  42  68  95 128 174 221 269 328 405
#     4  12  25  42  64  98 134 169 214 274 333 390
#     4  12  25  42  64  98 135 172 218 280 340 393
#
# _framework density 22.525345999999999
#
# number of rings (size 3 to 8) (size 9 to 14) (size 15 to 20)
#    0.000    0.667    0.000   10.500    0.000    0.000 
#    0.000    2.500    0.000    0.000    0.000    0.000 
#    0.000    0.000    0.000    0.000    0.000    0.000 
#
# Total GULP energy -446492.749723 kJ/mol
# GULP energy per Si atom -12402.576381 kJ/mol
# Density = 2.247408 g / cm^3
# Si number density = 22.525346 Si / 1000 Ang^3
#
#
#
# Elastic Constant Matrix: (Units=GPa)
#
#
# Indices 1 2 3 4 5 6 
#
# 1 137.4613 46.0341 3.3964 -0.0013 -3.6347 0.0000
# 2 46.0341 137.4613 3.3964 0.0013 3.6347 0.0000
# 3 3.3964 3.3964 60.3162 0.0000 0.0000 0.0000
# 4 -0.0013 0.0013 0.0000 18.7567 0.0000 3.6347
# 5 -3.6347 3.6347 0.0000 0.0000 18.7567 -0.0013
# 6 0.0000 0.0000 0.0000 3.6347 -0.0013 45.7136
#
#
#
# Elastic Compliance Matrix: (Units=1/GPa)
#
#
# Indices 1 2 3 4 5 6 
#
# 1 0.008285 -0.002824 -0.000308 0.000001 0.002153 0.000000
# 2 -0.002824 0.008285 -0.000308 -0.000001 -0.002153 0.000000
# 3 -0.000308 -0.000308 0.016614 0.000000 0.000000 0.000000
# 4 0.000001 -0.000001 0.000000 0.054149 0.000000 -0.004305
# 5 0.002153 -0.002153 0.000000 0.000000 0.054149 0.000002
# 6 0.000000 0.000000 0.000000 -0.004305 0.000002 0.022218
#
#
# Mechanical properties :
#
#
# Convention : Reuss Voigt Hill
#
# Bulk Modulus (GPa) = 38.01403 48.98810 43.50106
# Shear Modulus (GPa) = 27.87922 35.47287 31.67605
#
# Velocity S-wave (km/s) = 3.52189 3.97268 3.75406
# Velocity P-wave (km/s) = 5.78368 6.54508 6.17613
#
# Compressibility (1/GPa) = 0.02630608
#
# Stress axis : x y z
#
# Youngs Moduli (GPa) = 120.70050 120.70050 60.19045
#
# Poissons Ratio (x) = 0.34084 0.01851
# Poissons Ratio (y) = 0.34084 0.01851
# Poissons Ratio (z) = 0.03712 0.03712
#
# Static dielectric constant tensor:
#      x y z
#    x 4.464430 0.000000 0.000000 
#    y 0.000000 4.464430 0.000000 
#    z 0.000000 0.000000 3.879550 
# 
# 
# High freq. dielectric constant tensor:
#      x y z
#    x 1.910410 0.000000 0.000000 
#    y 0.000000 1.910410 0.000000 
#    z 0.000000 0.000000 1.863650 
# 
# From -- ./inp_files/4704.got.cif
#   From: 2010.03.12/outbox.cif.g09.slc.cpg/sg153_3_cif.got.tgz:4704.got - 2010.04.03 13:48:33.
