data_PCOD8322465
_publ_section_title
;
Structure prediction by ZEFSAII (Michael W. Deem and Ramdas Pophale) SiO2 
 PCOD8322465
Probable space group: R 3 2
;
_chemical_formula_sum "Si O2"
_cell_formula_units_Z 81
_cell_length_a 18.041512
_cell_length_b 18.041512
_cell_length_c 17.590205
_cell_angle_alpha 90.000000
_cell_angle_beta 90.000000
_cell_angle_gamma 120.000000
_cell_volume 4958.466639
_symmetry_space_group_name_H-M "R 3 2"
_symmetry_group_IT_number 155
_symmetry_cell_setting 'hexagonal'
loop_
_space_group_symop_operation_xyz
x,y,z
-y,x-y,z
-x+y,-x,z
x-y,-y,-z
-x,-x+y,-z
y,x,-z
2/3+x,1/3+y,1/3+z
2/3-y,1/3+x-y,1/3+z
2/3-x+y,1/3-x,1/3+z
2/3+x-y,1/3-y,1/3-z
2/3-x,1/3-x+y,1/3-z
2/3+y,1/3+x,1/3-z
1/3+x,2/3+y,2/3+z
1/3-y,2/3+x-y,2/3+z
1/3-x+y,2/3-x,2/3+z
1/3+x-y,2/3-y,2/3-z
1/3-x,2/3-x+y,2/3-z
1/3+y,2/3+x,2/3-z
loop_
_atom_site_type_symbol
_atom_site_label
_atom_site_fract_x
_atom_site_fract_y
_atom_site_fract_z
Si Si1 0.544687 0.544687 0.500000
Si Si2 0.310465 0.262856 0.429327
Si Si3 0.719540 0.127125 0.061641
Si Si4 0.520910 0.161036 0.420103
Si Si5 0.970416 0.824867 0.859751
O O1 0.480221 0.513352 0.429101
O O2 0.631438 0.554117 0.463742
O O3 0.246014 0.246014 0.500000
O O4 0.349052 0.361547 0.410365
O O5 0.252065 0.196761 0.363197
O O6 0.393220 0.252381 0.444470
O O7 0.660395 0.158959 0.103690
O O8 0.495514 0.162180 0.333334
O O9 0.609393 0.158641 0.424998
O O10 0.532738 0.243816 0.464642
#
# Coordination Sequence:
#
# PCOD8322465 Si02
#       5
#     9  18  18  18  18
#     4  10  18  32  42  66  92 138 156 172 238 300
#     4   9  15  27  48  71  88 111 154 200 239 264
#     4   9  15  27  46  65  95 116 150 192 234 278
#     4  11  20  29  47  67  99 125 155 187 236 285
#     4  10  19  29  43  75  93 122 150 196 232 278
#
# _framework density 16.335695000000001
#
# number of rings (size 3 to 8) (size 9 to 14) (size 15 to 20)
#    0.000    2.222    5.556    2.444    3.111    0.000 
#    0.000    0.000    9.778    0.000    0.000    0.000 
#    0.000    0.000    0.000    0.000    0.000    0.000 
#
# Total GULP energy -334496.230980 kJ/mol
# GULP energy per Si atom -12388.749296 kJ/mol
# Density = 1.629851 g / cm^3
# Si number density = 16.335695 Si / 1000 Ang^3
#
#
#
# Elastic Constant Matrix: (Units=GPa)
#
#
# Indices 1 2 3 4 5 6 
#
# 1 54.0783 18.6294 37.4750 3.6456 0.0000 0.0000
# 2 18.6294 54.0783 37.4750 -3.6456 0.0000 0.0000
# 3 37.4750 37.4750 137.9250 0.0000 0.0000 0.0000
# 4 3.6456 -3.6456 0.0000 25.0395 0.0000 0.0000
# 5 0.0000 0.0000 0.0000 0.0000 25.0395 3.6456
# 6 0.0000 0.0000 0.0000 0.0000 3.6456 17.7245
#
#
#
# Elastic Compliance Matrix: (Units=1/GPa)
#
#
# Indices 1 2 3 4 5 6 
#
# 1 0.024093 -0.004988 -0.005191 -0.004234 0.000000 0.000000
# 2 -0.004988 0.024093 -0.005191 0.004234 0.000000 0.000000
# 3 -0.005191 -0.005191 0.010071 0.000000 0.000000 0.000000
# 4 -0.004234 0.004234 0.000000 0.041170 0.000000 0.000000
# 5 0.000000 0.000000 0.000000 0.000000 0.041170 -0.008468
# 6 0.000000 0.000000 0.000000 0.000000 -0.008468 0.058161
#
#
# Mechanical properties :
#
#
# Convention : Reuss Voigt Hill
#
# Bulk Modulus (GPa) = 36.34118 48.13782 42.23950
# Shear Modulus (GPa) = 20.94960 23.72752 22.33856
#
# Velocity S-wave (km/s) = 3.58501 3.81530 3.70194
# Velocity P-wave (km/s) = 6.27942 6.99575 6.64724
#
# Compressibility (1/GPa) = 0.02751700
#
# Stress axis : x y z
#
# Youngs Moduli (GPa) = 41.50661 41.50661 99.29428
#
# Poissons Ratio (x) = 0.20703 0.51542
# Poissons Ratio (y) = 0.20703 0.51542
# Poissons Ratio (z) = 0.21545 0.21545
#
# Static dielectric constant tensor:
#      x y z
#    x 2.955270 0.000000 0.000000 
#    y 0.000000 2.955270 0.000000 
#    z 0.000000 0.000000 4.789250 
# 
# 
# High freq. dielectric constant tensor:
#      x y z
#    x 1.597200 0.000000 0.000000 
#    y 0.000000 1.597200 0.000000 
#    z 0.000000 0.000000 1.631650 
# 
# From -- ./inp_files/6032.got.cif
#   From: 2010.03.12/outbox.cif.g09.slc.cpg/sg155_4_cif.got.tgz:6032.got - 2010.04.03 13:54:13.
