data_PCOD8322538
_publ_section_title
;
Structure prediction by ZEFSAII (Michael W. Deem and Ramdas Pophale) SiO2 
 PCOD8322538
Probable space group: R 3 2
;
_chemical_formula_sum "Si O2"
_cell_formula_units_Z 114
_cell_length_a 21.013469
_cell_length_b 21.013469
_cell_length_c 15.046107
_cell_angle_alpha 90.000000
_cell_angle_beta 90.000000
_cell_angle_gamma 120.000000
_cell_volume 5753.740687
_symmetry_space_group_name_H-M "R 3 2"
_symmetry_group_IT_number 155
_symmetry_cell_setting 'hexagonal'
loop_
_space_group_symop_operation_xyz
x,y,z
-y,x-y,z
-x+y,-x,z
x-y,-y,-z
-x,-x+y,-z
y,x,-z
2/3+x,1/3+y,1/3+z
2/3-y,1/3+x-y,1/3+z
2/3-x+y,1/3-x,1/3+z
2/3+x-y,1/3-y,1/3-z
2/3-x,1/3-x+y,1/3-z
2/3+y,1/3+x,1/3-z
1/3+x,2/3+y,2/3+z
1/3-y,2/3+x-y,2/3+z
1/3-x+y,2/3-x,2/3+z
1/3+x-y,2/3-y,2/3-z
1/3-x,2/3-x+y,2/3-z
1/3+y,2/3+x,2/3-z
loop_
_atom_site_type_symbol
_atom_site_label
_atom_site_fract_x
_atom_site_fract_y
_atom_site_fract_z
Si Si1 0.765688 0.855206 0.658231
Si Si2 0.168057 0.749343 0.832253
Si Si3 0.748981 0.154792 0.815842
Si Si4 0.915552 0.762771 0.837000
Si Si5 0.000000 0.000000 0.606328
Si Si6 0.835952 0.902897 0.334423
Si Si7 0.819971 0.735257 0.007081
O O1 0.783920 0.912765 0.738444
O O2 0.769511 0.894342 0.566327
O O3 0.822899 0.826362 0.652029
O O4 0.685511 0.786906 0.676208
O O5 0.107202 0.773868 0.833334
O O6 0.126309 0.665723 0.801129
O O7 0.231894 0.799487 0.763291
O O8 0.666667 0.089041 0.833334
O O9 0.800169 0.119622 0.799079
O O10 0.754457 0.200625 0.729269
O O11 0.909572 0.816729 0.766765
O O12 0.874532 0.763647 0.924965
O O13 0.082071 0.049012 0.642947
O O14 0.000000 0.000000 0.500000
O O15 0.764175 0.764175 0.000000
#
# Coordination Sequence:
#
# PCOD8322538 Si02
#       7
#    18  18  18  18   6  18  18
#     4  10  22  38  59  84 114 152 194 236 288 355
#     4  10  20  39  62  84 113 150 192 242 295 352
#     4  11  22  38  58  84 117 151 190 239 293 351
#     4  11  23  37  59  88 115 149 194 245 293 348
#     4  12  24  39  63  87 121 170 202 240 297 366
#     4  12  23  38  58  87 121 154 195 241 295 355
#     4  10  22  39  60  84 115 154 195 241 295 353
#
# _framework density 19.813196999999999
#
# number of rings (size 3 to 8) (size 9 to 14) (size 15 to 20)
#    0.000    1.263    0.000    7.105    0.000    1.263 
#    0.000    9.474    0.000    4.421    0.000    0.000 
#    0.000    0.000    0.000    0.000    0.000    0.000 
#
# Total GULP energy -471437.064968 kJ/mol
# GULP energy per Si atom -12406.238552 kJ/mol
# Density = 1.976810 g / cm^3
# Si number density = 19.813197 Si / 1000 Ang^3
#
#
#
# Elastic Constant Matrix: (Units=GPa)
#
#
# Indices 1 2 3 4 5 6 
#
# 1 75.6450 27.0135 10.8624 4.9482 0.0012 0.0000
# 2 27.0135 75.6450 10.8624 -4.9482 -0.0012 0.0000
# 3 10.8624 10.8624 66.3017 0.0000 0.0000 0.0000
# 4 4.9482 -4.9482 0.0000 25.6795 0.0000 -0.0012
# 5 0.0012 -0.0012 0.0000 0.0000 25.6795 4.9482
# 6 0.0000 0.0000 0.0000 -0.0012 4.9482 24.3157
#
#
#
# Elastic Compliance Matrix: (Units=1/GPa)
#
#
# Indices 1 2 3 4 5 6 
#
# 1 0.015746 -0.005656 -0.001653 -0.004124 -0.000001 0.000000
# 2 -0.005656 0.015746 -0.001653 0.004124 0.000001 0.000000
# 3 -0.001653 -0.001653 0.015624 0.000000 0.000000 0.000000
# 4 -0.004124 0.004124 0.000000 0.040531 0.000000 0.000002
# 5 -0.000001 0.000001 0.000000 0.000000 0.040531 -0.008248
# 6 0.000000 0.000000 0.000000 0.000002 -0.008248 0.042804
#
#
# Mechanical properties :
#
#
# Convention : Reuss Voigt Hill
#
# Bulk Modulus (GPa) = 34.25456 35.00758 34.63107
# Shear Modulus (GPa) = 25.17143 26.39186 25.78164
#
# Velocity S-wave (km/s) = 3.56819 3.65366 3.61118
# Velocity P-wave (km/s) = 5.85681 5.95871 5.90798
#
# Compressibility (1/GPa) = 0.02919319
#
# Stress axis : x y z
#
# Youngs Moduli (GPa) = 63.50637 63.50637 64.00296
#
# Poissons Ratio (x) = 0.35916 0.10581
# Poissons Ratio (y) = 0.35916 0.10581
# Poissons Ratio (z) = 0.10499 0.10499
#
# Static dielectric constant tensor:
#      x y z
#    x 3.701070 0.000000 0.000000 
#    y 0.000000 3.701070 0.000000 
#    z 0.000000 0.000000 3.739240 
# 
# 
# High freq. dielectric constant tensor:
#      x y z
#    x 1.778900 0.000000 0.000000 
#    y 0.000000 1.778900 0.000000 
#    z 0.000000 0.000000 1.786630 
# 
# From -- ./inp_files/5198.got.cif
#   From: 2010.03.12/outbox.cif.g09.slc.cpg/sg155_3_cif.got.tgz:5198.got - 2010.04.03 13:54:13.
