data_PCOD8322201
_publ_section_title
;
Structure prediction by ZEFSAII (Michael W. Deem and Ramdas Pophale) SiO2 
 PCOD8322201
Probable space group: P 31 2 1
;
_chemical_formula_sum "Si O2"
_cell_formula_units_Z 36
_cell_length_a 11.433340
_cell_length_b 11.433340
_cell_length_c 14.789260
_cell_angle_alpha 90.000000
_cell_angle_beta 90.000000
_cell_angle_gamma 120.000000
_cell_volume 1674.261586
_symmetry_space_group_name_H-M "P 31 2 1"
_symmetry_group_IT_number 152
_symmetry_cell_setting 'hexagonal'
loop_
_space_group_symop_operation_xyz
x,y,z
-y,x-y,1/3+z
-x+y,-x,2/3+z
x-y,-y,2/3-z
-x,-x+y,1/3-z
y,x,-z
loop_
_atom_site_type_symbol
_atom_site_label
_atom_site_fract_x
_atom_site_fract_y
_atom_site_fract_z
Si Si1 0.251833 0.401657 0.212970
Si Si2 0.931128 0.305369 0.959620
Si Si3 0.727972 0.152182 0.807289
Si Si4 0.841885 0.618537 0.659685
Si Si5 0.304494 0.705262 0.542739
Si Si6 0.874833 0.552283 0.943150
O O1 0.128369 0.351562 0.281335
O O2 0.203292 0.403419 0.111524
O O3 0.374572 0.550168 0.240509
O O4 0.319765 0.308768 0.221658
O O5 0.857679 0.209767 0.872652
O O6 0.916706 0.438206 0.961571
O O7 0.084064 0.335886 0.953743
O O8 0.668431 0.252114 0.814701
O O9 0.763314 0.151925 0.701598
O O10 0.614784 0.000000 0.833334
O O11 0.804806 0.476530 0.709553
O O12 0.000000 0.726744 0.666667
O O13 0.258293 0.747922 0.451661
#
# Coordination Sequence:
#
# PCOD8322201 Si02
#       6
#     6   6   6   6   6   6
#     4  12  23  39  70  95 129 175 220 276 337 397
#     4  11  25  41  67 101 131 180 226 269 341 405
#     4  11  23  40  66  98 137 172 215 278 334 401
#     4  12  26  46  66  94 141 178 225 279 331 403
#     4  11  24  40  65 103 135 169 218 278 344 396
#     4  11  22  40  63 102 135 166 223 277 341 396
#
# _framework density 21.502016000000001
#
# number of rings (size 3 to 8) (size 9 to 14) (size 15 to 20)
#    0.000    0.667    6.667    1.500    4.667    0.000 
#    0.000    2.500    0.000    1.000    0.000    0.000 
#    0.000    0.000    0.000    0.000    0.000    0.000 
#
# Total GULP energy -446243.998586 kJ/mol
# GULP energy per Si atom -12395.666627 kJ/mol
# Density = 2.145308 g / cm^3
# Si number density = 21.502016 Si / 1000 Ang^3
#
#
#
# Elastic Constant Matrix: (Units=GPa)
#
#
# Indices 1 2 3 4 5 6 
#
# 1 75.4847 27.1075 30.7157 2.0667 0.0000 0.0000
# 2 27.1075 75.4847 30.7157 -2.0667 0.0000 0.0000
# 3 30.7157 30.7157 142.6354 0.0000 0.0000 0.0000
# 4 2.0667 -2.0667 0.0000 32.5842 0.0000 0.0000
# 5 0.0000 0.0000 0.0000 0.0000 32.5842 2.0667
# 6 0.0000 0.0000 0.0000 0.0000 2.0667 24.1886
#
#
#
# Elastic Compliance Matrix: (Units=1/GPa)
#
#
# Indices 1 2 3 4 5 6 
#
# 1 0.015987 -0.004797 -0.002410 -0.001318 0.000000 0.000000
# 2 -0.004797 0.015987 -0.002410 0.001318 0.000000 0.000000
# 3 -0.002410 -0.002410 0.008049 0.000000 0.000000 0.000000
# 4 -0.001318 0.001318 0.000000 0.030857 0.000000 0.000000
# 5 0.000000 0.000000 0.000000 0.000000 0.030857 -0.002636
# 6 0.000000 0.000000 0.000000 0.000000 -0.002636 0.041567
#
#
# Mechanical properties :
#
#
# Convention : Reuss Voigt Hill
#
# Bulk Modulus (GPa) = 48.09947 52.29806 50.19877
# Shear Modulus (GPa) = 29.50447 31.54246 30.52347
#
# Velocity S-wave (km/s) = 3.70830 3.83424 3.77180
# Velocity P-wave (km/s) = 6.38386 6.63152 6.50887
#
# Compressibility (1/GPa) = 0.02079025
#
# Stress axis : x y z
#
# Youngs Moduli (GPa) = 62.55126 62.55126 124.24310
#
# Poissons Ratio (x) = 0.30003 0.29940
# Poissons Ratio (y) = 0.30003 0.29940
# Poissons Ratio (z) = 0.15073 0.15073
#
# Static dielectric constant tensor:
#      x y z
#    x 3.745500 0.000000 0.000000 
#    y 0.000000 3.745500 0.000000 
#    z 0.000000 0.000000 4.149170 
# 
# 
# High freq. dielectric constant tensor:
#      x y z
#    x 1.825010 0.000000 0.000000 
#    y 0.000000 1.825010 0.000000 
#    z 0.000000 0.000000 1.867070 
# 
# From -- ./inp_files/2028.got.cif
#   From: 2010.03.12/outbox.cif.g09.slc.cpg/sg152_2_cif.got.tgz:2028.got - 2010.04.03 13:45:27.
