data_PCOD8322982
_publ_section_title
;
Structure prediction by ZEFSAII (Michael W. Deem and Ramdas Pophale) SiO2 
 PCOD8322982
Probable space group: P -3 1 M 
;
_chemical_formula_sum "Si O2"
_cell_formula_units_Z 70
_cell_length_a 17.296375
_cell_length_b 17.296375
_cell_length_c 18.106188
_cell_angle_alpha 90.000000
_cell_angle_beta 90.000000
_cell_angle_gamma 120.000000
_cell_volume 4691.026024
_symmetry_space_group_name_H-M "P -3 1 M "
_symmetry_group_IT_number 162
_symmetry_cell_setting 'hexagonal'
loop_
_space_group_symop_operation_xyz
x,y,z
-y,x-y,z
-x+y,-x,z
-y,-x,-z
-x+y,y,-z
x,x-y,-z
-x,-y,-z
y,-x+y,-z
x-y,x,-z
y,x,z
x-y,-y,z
-x,-x+y,z
loop_
_atom_site_type_symbol
_atom_site_label
_atom_site_fract_x
_atom_site_fract_y
_atom_site_fract_z
Si Si1 0.780015 0.101926 0.210385
Si Si2 0.104543 0.894072 0.340126
Si Si3 0.897457 0.102544 0.500000
Si Si4 0.333334 0.666667 0.910477
Si Si5 0.099975 0.899529 0.082137
Si Si6 0.103446 0.461312 0.016182
Si Si7 0.782930 0.529510 0.113636
O O1 0.842915 0.133108 0.282169
O O2 0.836078 0.111517 0.137820
O O3 0.748226 0.173630 0.193177
O O4 0.698768 0.000000 0.220444
O O5 0.121387 0.863477 0.421962
O O6 0.000000 0.863511 0.330167
O O7 0.162788 0.000000 0.326073
O O8 0.000000 0.140943 0.485990
O O9 0.253170 0.575316 0.878707
O O10 0.333334 0.666667 0.000000
O O11 0.000000 0.883605 0.084017
O O12 0.167063 0.000000 0.106693
O O13 0.121238 0.878763 0.000000
O O14 0.158373 0.459062 0.087750
O O15 0.000000 0.391620 0.030874
O O16 0.120635 0.560318 0.000000
O O17 0.136817 0.429438 0.945792
#
# Coordination Sequence:
#
# PCOD8322982 Si02
#       7
#    12  12   6   4  12  12  12
#     4  10  21  30  39  59  87 117 141 175 220 261
#     4   9  16  27  42  62  88 120 156 187 219 255
#     4   8  13  22  40  62  84 112 150 192 220 250
#     4  12  18  36  54  69  72 106 146 187 240 279
#     4   9  17  27  37  48  68 105 151 184 204 229
#     4  10  19  30  47  67  82 104 142 187 228 261
#     4  11  19  33  47  61  85 109 143 179 220 276
#
# _framework density 14.922108
#
# number of rings (size 3 to 8) (size 9 to 14) (size 15 to 20)
#    0.000    2.229    3.429    1.457    2.400    3.429 
#    0.000    1.714    0.000    0.000    0.000    0.000 
#    0.000    1.371    0.000    8.571    0.000    0.000 
#
# Total GULP energy -867323.320990 kJ/mol
# GULP energy per Si atom -12390.333157 kJ/mol
# Density = 1.488814 g / cm^3
# Si number density = 14.922108 Si / 1000 Ang^3
#
#
#
# Elastic Constant Matrix: (Units=GPa)
#
#
# Indices 1 2 3 4 5 6 
#
# 1 62.9333 27.6219 31.4920 0.0000 -2.8525 -0.0001
# 2 27.6219 62.9329 31.4920 0.0000 2.8526 -0.0001
# 3 31.4920 31.4920 93.6521 0.0000 0.0000 0.0000
# 4 0.0000 0.0000 0.0000 16.2747 0.0000 2.8526
# 5 -2.8525 2.8526 0.0000 0.0000 16.2747 0.0000
# 6 -0.0001 -0.0001 0.0000 2.8526 0.0000 17.6555
#
#
#
# Elastic Compliance Matrix: (Units=1/GPa)
#
#
# Indices 1 2 3 4 5 6 
#
# 1 0.021780 -0.007365 -0.004847 0.000000 0.005108 0.000000
# 2 -0.007365 0.021780 -0.004847 0.000000 -0.005108 0.000000
# 3 -0.004847 -0.004847 0.013938 0.000000 0.000000 0.000000
# 4 0.000000 0.000000 0.000000 0.063236 0.000000 -0.010217
# 5 0.005108 -0.005108 0.000000 0.000000 0.063236 0.000000
# 6 0.000000 0.000000 0.000000 -0.010217 0.000000 0.058290
#
#
# Mechanical properties :
#
#
# Convention : Reuss Voigt Hill
#
# Bulk Modulus (GPa) = 42.77518 44.52557 43.65038
# Shear Modulus (GPa) = 17.59511 18.63516 18.11514
#
# Velocity S-wave (km/s) = 3.43757 3.53771 3.48800
# Velocity P-wave (km/s) = 6.66961 6.82573 6.74813
#
# Compressibility (1/GPa) = 0.02337804
#
# Stress axis : x y z
#
# Youngs Moduli (GPa) = 45.91461 45.91429 71.74838
#
# Poissons Ratio (x) = 0.33817 0.34777
# Poissons Ratio (y) = 0.33818 0.34777
# Poissons Ratio (z) = 0.22255 0.22255
#
# Static dielectric constant tensor:
#      x y z
#    x 2.868930 0.000000 0.000000 
#    y 0.000000 2.868930 0.000000 
#    z 0.000000 0.000000 2.831570 
# 
# 
# High freq. dielectric constant tensor:
#      x y z
#    x 1.558950 0.000000 0.000000 
#    y 0.000000 1.558950 0.000000 
#    z 0.000000 0.000000 1.540440 
# 
# From -- ./inp_files/3611.got.cif
#   From: 2010.03.12/outbox.cif.g09.slc.cpg/sg162_2_cif.got.tgz:3611.got - 2010.04.02 06:27:41.
