data_PCOD8322573
_publ_section_title
;
Structure prediction by ZEFSAII (Michael W. Deem and Ramdas Pophale) SiO2 
 PCOD8322573
Probable space group: R 3 2
;
_chemical_formula_sum "Si O2"
_cell_formula_units_Z 108
_cell_length_a 22.187645
_cell_length_b 22.187645
_cell_length_c 12.703531
_cell_angle_alpha 90.000000
_cell_angle_beta 90.000000
_cell_angle_gamma 120.000000
_cell_volume 5415.985595
_symmetry_space_group_name_H-M "R 3 2"
_symmetry_group_IT_number 155
_symmetry_cell_setting 'hexagonal'
loop_
_space_group_symop_operation_xyz
x,y,z
-y,x-y,z
-x+y,-x,z
x-y,-y,-z
-x,-x+y,-z
y,x,-z
2/3+x,1/3+y,1/3+z
2/3-y,1/3+x-y,1/3+z
2/3-x+y,1/3-x,1/3+z
2/3+x-y,1/3-y,1/3-z
2/3-x,1/3-x+y,1/3-z
2/3+y,1/3+x,1/3-z
1/3+x,2/3+y,2/3+z
1/3-y,2/3+x-y,2/3+z
1/3-x+y,2/3-x,2/3+z
1/3+x-y,2/3-y,2/3-z
1/3-x,2/3-x+y,2/3-z
1/3+y,2/3+x,2/3-z
loop_
_atom_site_type_symbol
_atom_site_label
_atom_site_fract_x
_atom_site_fract_y
_atom_site_fract_z
Si Si1 0.746168 0.577686 0.328447
Si Si2 0.118066 0.592388 0.451890
Si Si3 0.878019 0.077102 0.811396
Si Si4 0.255205 0.073338 0.629514
Si Si5 0.692054 0.065075 0.562454
Si Si6 0.070331 0.488531 0.275194
O O1 0.666667 0.560040 0.333334
O O2 0.773937 0.566844 0.217241
O O3 0.747759 0.524762 0.414691
O O4 0.792730 0.657413 0.360576
O O5 0.196818 0.670158 0.865378
O O6 0.060648 0.616503 0.429523
O O7 0.121014 0.553813 0.347594
O O8 0.918072 0.120349 0.707481
O O9 0.805188 0.077831 0.825223
O O10 0.333334 0.120307 0.666667
O O11 0.247937 0.096225 0.511846
O O12 0.238045 0.994021 0.629587
O O13 0.730063 0.063397 0.666667
O O14 0.684919 0.000000 0.500000
#
# Coordination Sequence:
#
# PCOD8322573 Si02
#       6
#    18  18  18  18  18  18
#     4  12  23  41  65  93 133 173 213 270 322 387
#     4  10  25  38  60  94 129 171 211 262 318 391
#     4  10  24  39  62  89 131 166 212 260 323 384
#     4  11  22  42  64  93 128 169 213 264 323 386
#     4  10  23  34  58  88 127 170 203 252 314 382
#     4  11  24  39  66  94 130 166 215 265 324 392
#
# _framework density 19.940968000000002
#
# number of rings (size 3 to 8) (size 9 to 14) (size 15 to 20)
#    1.000    0.333    1.667    4.000    4.667    0.667 
#    0.000    0.000    0.000    9.333    0.000    0.000 
#    0.000    0.000    0.000    0.000    0.000    0.000 
#
# Total GULP energy -446038.124936 kJ/mol
# GULP energy per Si atom -12389.947915 kJ/mol
# Density = 1.989558 g / cm^3
# Si number density = 19.940968 Si / 1000 Ang^3
#
#
#
# Elastic Constant Matrix: (Units=GPa)
#
#
# Indices 1 2 3 4 5 6 
#
# 1 66.7417 5.6177 29.7431 -2.7870 0.0000 0.0000
# 2 5.6177 66.7417 29.7431 2.7870 0.0000 0.0000
# 3 29.7431 29.7431 139.3979 0.0000 0.0000 0.0000
# 4 -2.7870 2.7870 0.0000 28.1844 0.0000 0.0000
# 5 0.0000 0.0000 0.0000 0.0000 28.1844 -2.7870
# 6 0.0000 0.0000 0.0000 0.0000 -2.7870 30.5620
#
#
#
# Elastic Compliance Matrix: (Units=1/GPa)
#
#
# Indices 1 2 3 4 5 6 
#
# 1 0.016634 0.000125 -0.003576 0.001632 0.000000 0.000000
# 2 0.000125 0.016634 -0.003576 -0.001633 0.000000 0.000000
# 3 -0.003576 -0.003576 0.008700 0.000000 0.000000 0.000000
# 4 0.001632 -0.001633 0.000000 0.035804 0.000000 0.000000
# 5 0.000000 0.000000 0.000000 0.000000 0.035804 0.003265
# 6 0.000000 0.000000 0.000000 0.000000 0.003265 0.033018
#
#
# Mechanical properties :
#
#
# Convention : Reuss Voigt Hill
#
# Bulk Modulus (GPa) = 35.82286 44.78771 40.30528
# Shear Modulus (GPa) = 29.42008 31.23798 30.32903
#
# Velocity S-wave (km/s) = 3.84521 3.96223 3.90415
# Velocity P-wave (km/s) = 6.14147 6.59100 6.37020
#
# Compressibility (1/GPa) = 0.02791513
#
# Stress axis : x y z
#
# Youngs Moduli (GPa) = 60.11650 60.11647 114.94625
#
# Poissons Ratio (x) = -0.00753 0.41105
# Poissons Ratio (y) = -0.00753 0.41105
# Poissons Ratio (z) = 0.21498 0.21498
#
# Static dielectric constant tensor:
#      x y z
#    x 3.516330 0.000000 0.000000 
#    y 0.000000 3.516330 0.000000 
#    z 0.000000 0.000000 3.668530 
# 
# 
# High freq. dielectric constant tensor:
#      x y z
#    x 1.764980 0.000000 0.000000 
#    y 0.000000 1.764980 0.000000 
#    z 0.000000 0.000000 1.789110 
# 
# From -- ./inp_files/4099.got.cif
#   From: 2010.03.12/outbox.cif.g09.slc.cpg/sg155_3_cif.got.tgz:4099.got - 2010.04.03 13:54:13.
