data_PCOD8322540
_publ_section_title
;
Structure prediction by ZEFSAII (Michael W. Deem and Ramdas Pophale) SiO2 
 PCOD8322540
Probable space group: R 3 2
;
_chemical_formula_sum "Si O2"
_cell_formula_units_Z 135
_cell_length_a 27.597035
_cell_length_b 27.597035
_cell_length_c 10.359458
_cell_angle_alpha 90.000000
_cell_angle_beta 90.000000
_cell_angle_gamma 120.000000
_cell_volume 6832.702543
_symmetry_space_group_name_H-M "R 3 2"
_symmetry_group_IT_number 155
_symmetry_cell_setting 'hexagonal'
loop_
_space_group_symop_operation_xyz
x,y,z
-y,x-y,z
-x+y,-x,z
x-y,-y,-z
-x,-x+y,-z
y,x,-z
2/3+x,1/3+y,1/3+z
2/3-y,1/3+x-y,1/3+z
2/3-x+y,1/3-x,1/3+z
2/3+x-y,1/3-y,1/3-z
2/3-x,1/3-x+y,1/3-z
2/3+y,1/3+x,1/3-z
1/3+x,2/3+y,2/3+z
1/3-y,2/3+x-y,2/3+z
1/3-x+y,2/3-x,2/3+z
1/3+x-y,2/3-y,2/3-z
1/3-x,2/3-x+y,2/3-z
1/3+y,2/3+x,2/3-z
loop_
_atom_site_type_symbol
_atom_site_label
_atom_site_fract_x
_atom_site_fract_y
_atom_site_fract_z
Si Si1 0.015593 0.159210 0.853265
Si Si2 0.601110 0.103630 0.844839
Si Si3 0.054018 0.772514 0.924349
Si Si4 0.800054 0.518833 0.094529
Si Si5 0.261703 0.499956 0.409511
Si Si6 0.531732 0.469054 0.237470
Si Si7 0.896450 0.286598 0.245288
Si Si8 0.666667 0.854750 0.333334
O O1 0.077212 0.170605 0.832766
O O2 0.016881 0.218685 0.827632
O O3 0.972515 0.108694 0.758543
O O4 0.000000 0.140171 0.000000
O O5 0.666667 0.126540 0.833334
O O6 0.583514 0.111718 0.701256
O O7 0.581126 0.137306 0.936884
O O8 0.574768 0.042137 0.910876
O O9 0.070348 0.737014 0.833334
O O10 0.038414 0.813480 0.848192
O O11 0.105383 0.806116 0.022349
O O12 0.000000 0.727448 0.000000
O O13 0.795895 0.458501 0.075441
O O14 0.243966 0.458650 0.532208
O O15 0.576980 0.514676 0.329120
O O16 0.528231 0.497242 0.103551
O O17 0.921109 0.254442 0.166667
O O18 0.946166 0.333334 0.333334
#
# Coordination Sequence:
#
# PCOD8322540 Si02
#       8
#    18  18  18  18  18  18  18   9
#     4  11  22  38  66  97 125 165 214 265 323 382
#     4   9  21  39  62  90 125 173 209 259 321 380
#     4  12  24  39  61  91 124 168 219 264 317 387
#     4  11  22  40  68  91 129 171 214 261 324 398
#     4  10  20  41  64  91 129 165 209 260 323 389
#     4  11  20  40  64  84 119 162 209 255 316 384
#     4  11  23  41  64  89 125 164 209 265 322 382
#     4  10  22  36  62  90 120 156 218 262 302 376
#
# _framework density 19.757921
#
# number of rings (size 3 to 8) (size 9 to 14) (size 15 to 20)
#    0.000    1.333    5.333    1.200    1.867    0.533 
#    3.200    2.000    0.000    0.000    0.000    0.000 
#    0.000    0.000    0.000    0.000    0.000    0.000 
#
# Total GULP energy -557530.400490 kJ/mol
# GULP energy per Si atom -12389.564455 kJ/mol
# Density = 1.971295 g / cm^3
# Si number density = 19.757921 Si / 1000 Ang^3
#
#
#
# Elastic Constant Matrix: (Units=GPa)
#
#
# Indices 1 2 3 4 5 6 
#
# 1 89.8290 46.9320 44.2493 -4.0322 -0.0803 0.0017
# 2 46.9320 89.9859 44.4507 3.8733 0.1132 0.0238
# 3 44.2493 44.4507 107.9057 -0.1957 -0.0507 0.0154
# 4 -4.0322 3.8733 -0.1957 26.7935 -0.1776 -0.0283
# 5 -0.0803 0.1132 -0.0507 -0.1776 26.3361 -4.0858
# 6 0.0017 0.0238 0.0154 -0.0283 -4.0858 21.4591
#
#
#
# Elastic Compliance Matrix: (Units=1/GPa)
#
#
# Indices 1 2 3 4 5 6 
#
# 1 0.016939 -0.006979 -0.004065 0.003529 0.000103 0.000034
# 2 -0.006979 0.016942 -0.004124 -0.003530 -0.000133 -0.000045
# 3 -0.004065 -0.004124 0.012633 0.000077 0.000030 0.000002
# 4 0.003529 -0.003530 0.000077 0.038367 0.000302 0.000112
# 5 0.000103 -0.000133 0.000030 0.000302 0.039130 0.007451
# 6 0.000034 -0.000045 0.000002 0.000112 0.007451 0.048019
#
#
# Mechanical properties :
#
#
# Convention : Reuss Voigt Hill
#
# Bulk Modulus (GPa) = 61.80733 62.10941 61.95837
# Shear Modulus (GPa) = 24.06655 25.05699 24.56177
#
# Velocity S-wave (km/s) = 3.49387 3.56504 3.52964
# Velocity P-wave (km/s) = 6.90119 6.96057 6.93094
#
# Compressibility (1/GPa) = 0.01617931
#
# Stress axis : x y z
#
# Youngs Moduli (GPa) = 59.03443 59.02611 79.15653
#
# Poissons Ratio (x) = 0.41192 0.32178
# Poissons Ratio (y) = 0.41198 0.32641
# Poissons Ratio (z) = 0.23998 0.24340
#
# Static dielectric constant tensor:
#      x y z
#    x 4.177640 -0.003120 -0.000130 
#    y -0.003120 4.205480 0.000060 
#    z -0.000130 0.000060 3.893550 
# 
# 
# High freq. dielectric constant tensor:
#      x y z
#    x 1.759120 0.000000 0.000000 
#    y 0.000000 1.759120 0.000000 
#    z 0.000000 0.000000 1.781460 
# 
# From -- ./inp_files/4290.got.cif
#   From: 2010.03.12/outbox.cif.g09.slc.cpg/sg155_3_cif.got.tgz:4290.got - 2010.04.03 13:54:13.
