data_PCOD8322083
_publ_section_title
;
Structure prediction by ZEFSAII (Michael W. Deem and Ramdas Pophale) SiO2 
 PCOD8322083
Probable space group: P 31 2 1
;
_chemical_formula_sum "Si O2"
_cell_formula_units_Z 39
_cell_length_a 8.846053
_cell_length_b 8.846053
_cell_length_c 27.988144
_cell_angle_alpha 90.000000
_cell_angle_beta 90.000000
_cell_angle_gamma 120.000000
_cell_volume 1896.722541
_symmetry_space_group_name_H-M "P 31 2 1"
_symmetry_group_IT_number 152
_symmetry_cell_setting 'hexagonal'
loop_
_space_group_symop_operation_xyz
x,y,z
-y,x-y,1/3+z
-x+y,-x,2/3+z
x-y,-y,2/3-z
-x,-x+y,1/3-z
y,x,-z
loop_
_atom_site_type_symbol
_atom_site_label
_atom_site_fract_x
_atom_site_fract_y
_atom_site_fract_z
Si Si1 0.287441 0.000000 0.333334
Si Si2 0.666942 0.841635 0.237390
Si Si3 0.506792 0.324031 0.623199
Si Si4 0.841381 0.170613 0.538980
Si Si5 0.459645 0.866862 0.404314
Si Si6 0.848950 0.017038 0.746319
Si Si7 0.013888 0.545209 0.942702
O O1 0.329956 0.875902 0.365184
O O2 0.115223 0.882057 0.303509
O O3 0.676671 0.888184 0.181689
O O4 0.856065 0.884648 0.256105
O O5 0.511867 0.646360 0.246876
O O6 0.616098 0.966594 0.266009
O O7 0.695744 0.478479 0.605040
O O8 0.361834 0.296390 0.582844
O O9 0.458707 0.349281 0.676583
O O10 0.528761 0.156248 0.625678
O O11 0.856889 0.360635 0.545908
O O12 0.032212 0.187329 0.546525
O O13 0.695305 0.028055 0.574758
#
# Coordination Sequence:
#
# PCOD8322083 Si02
#       7
#     3   6   6   6   6   6   6
#     4  10  20  38  56  84 114 150 186 230 298 344
#     4  11  22  37  59  88 115 153 194 238 292 349
#     4  10  20  36  55  85 112 145 191 235 293 335
#     4  10  21  40  58  81 117 157 193 231 292 363
#     4  10  21  36  60  85 116 149 192 245 288 349
#     4  10  21  36  59  81 114 153 188 237 289 346
#     4  10  22  37  59  82 114 148 186 240 285 343
#
# _framework density 20.561783999999999
#
# number of rings (size 3 to 8) (size 9 to 14) (size 15 to 20)
#    0.000    1.846    0.000    5.077    0.000    5.538 
#    0.000    0.000    0.000    9.231    0.000    0.000 
#    0.000    0.000    0.000    0.000    0.000    0.000 
#
# Total GULP energy -483299.834529 kJ/mol
# GULP energy per Si atom -12392.303449 kJ/mol
# Density = 2.051498 g / cm^3
# Si number density = 20.561784 Si / 1000 Ang^3
#
#
#
# Elastic Constant Matrix: (Units=GPa)
#
#
# Indices 1 2 3 4 5 6 
#
# 1 105.6673 42.2122 33.3513 3.6985 0.0000 0.0000
# 2 42.2122 105.6673 33.3513 -3.6985 0.0000 0.0000
# 3 33.3513 33.3513 75.9932 0.0000 0.0000 0.0000
# 4 3.6985 -3.6985 0.0000 21.0578 0.0000 0.0000
# 5 0.0000 0.0000 0.0000 0.0000 21.0578 3.6985
# 6 0.0000 0.0000 0.0000 0.0000 3.6985 31.7276
#
#
#
# Elastic Compliance Matrix: (Units=1/GPa)
#
#
# Indices 1 2 3 4 5 6 
#
# 1 0.012260 -0.003829 -0.003700 -0.002826 0.000000 0.000000
# 2 -0.003829 0.012260 -0.003700 0.002826 0.000000 0.000000
# 3 -0.003700 -0.003700 0.016407 0.000000 0.000000 0.000000
# 4 -0.002826 0.002826 0.000000 0.048481 0.000000 0.000000
# 5 0.000000 0.000000 0.000000 0.000000 0.048481 -0.005651
# 6 0.000000 0.000000 0.000000 0.000000 -0.005651 0.032177
#
#
# Mechanical properties :
#
#
# Convention : Reuss Voigt Hill
#
# Bulk Modulus (GPa) = 54.14623 56.12861 55.13742
# Shear Modulus (GPa) = 25.16602 26.66282 25.91442
#
# Velocity S-wave (km/s) = 3.50226 3.60490 3.55395
# Velocity P-wave (km/s) = 6.53796 6.68460 6.61169
#
# Compressibility (1/GPa) = 0.01846851
#
# Stress axis : x y z
#
# Youngs Moduli (GPa) = 81.56652 81.56652 60.94968
#
# Poissons Ratio (x) = 0.31229 0.22553
# Poissons Ratio (y) = 0.31229 0.22553
# Poissons Ratio (z) = 0.30182 0.30182
#
# Static dielectric constant tensor:
#      x y z
#    x 3.980900 0.000000 0.000000 
#    y 0.000000 3.980900 0.000000 
#    z 0.000000 0.000000 3.630240 
# 
# 
# High freq. dielectric constant tensor:
#      x y z
#    x 1.808430 0.000000 0.000000 
#    y 0.000000 1.808430 0.000000 
#    z 0.000000 0.000000 1.790420 
# 
# From -- ./inp_files/3618.got.cif
#   From: 2010.03.12/outbox.cif.g09.slc.cpg/sg152_2_cif.got.tgz:3618.got - 2010.04.03 13:45:27.
