data_PCOD8322113
_publ_section_title
;
Structure prediction by ZEFSAII (Michael W. Deem and Ramdas Pophale) SiO2 
 PCOD8322113
Probable space group: P 31 2 1
;
_chemical_formula_sum "Si O2"
_cell_formula_units_Z 48
_cell_length_a 15.779560
_cell_length_b 15.779560
_cell_length_c 11.099022
_cell_angle_alpha 90.000000
_cell_angle_beta 90.000000
_cell_angle_gamma 120.000000
_cell_volume 2393.343984
_symmetry_space_group_name_H-M "P 31 2 1"
_symmetry_group_IT_number 152
_symmetry_cell_setting 'hexagonal'
loop_
_space_group_symop_operation_xyz
x,y,z
-y,x-y,1/3+z
-x+y,-x,2/3+z
x-y,-y,2/3-z
-x,-x+y,1/3-z
y,x,-z
loop_
_atom_site_type_symbol
_atom_site_label
_atom_site_fract_x
_atom_site_fract_y
_atom_site_fract_z
Si Si1 0.270074 0.306005 0.370584
Si Si2 0.673841 0.559250 0.025845
Si Si3 0.896713 0.827492 0.398886
Si Si4 0.485495 0.260776 0.560570
Si Si5 0.458831 0.793641 0.308053
Si Si6 0.371901 0.228233 0.199327
Si Si7 0.285429 0.603369 0.210860
Si Si8 0.905723 0.069186 0.441332
O O1 0.251351 0.251351 0.500000
O O2 0.171219 0.269697 0.292620
O O3 0.304953 0.418469 0.395518
O O4 0.350120 0.294176 0.292892
O O5 0.729973 0.572657 0.154409
O O6 0.582675 0.450501 0.018086
O O7 0.637253 0.637253 0.000000
O O8 0.751271 0.569380 0.926645
O O9 0.815294 0.815294 0.500000
O O10 0.877096 0.861693 0.271333
O O11 0.003034 0.908789 0.450040
O O12 0.567249 0.351418 0.483187
O O13 0.538070 0.240509 0.671471
O O14 0.565064 0.857092 0.247347
O O15 0.392950 0.697344 0.228583
O O16 0.465765 0.756127 0.440801
O O17 0.272825 0.137190 0.152231
O O18 0.837972 0.000000 0.333334
#
# Coordination Sequence:
#
# PCOD8322113 Si02
#       8
#     6   6   6   6   6   6   6   6
#     4  11  23  38  61  94 128 173 212 261 329 378
#     4  11  24  39  63  96 125 167 215 268 315 378
#     4   9  20  37  56  84 121 166 212 264 307 371
#     4  10  22  41  66  92 129 167 217 258 322 389
#     4  10  20  41  66  91 124 164 213 261 323 385
#     4  11  23  40  65  93 132 164 208 271 323 374
#     4   9  20  40  70  90 120 172 208 260 325 381
#     4   9  20  37  58  85 121 163 213 257 308 373
#
# _framework density 20.055620999999999
#
# number of rings (size 3 to 8) (size 9 to 14) (size 15 to 20)
#    0.000    2.000    2.500    0.000    3.500    7.000 
#    0.000    6.250    0.000    0.000    0.000    0.000 
#    0.000    0.000    0.000    0.000    0.000    0.000 
#
# Total GULP energy -594912.856995 kJ/mol
# GULP energy per Si atom -12394.017854 kJ/mol
# Density = 2.000997 g / cm^3
# Si number density = 20.055621 Si / 1000 Ang^3
#
#
#
# Elastic Constant Matrix: (Units=GPa)
#
#
# Indices 1 2 3 4 5 6 
#
# 1 85.4381 42.5402 40.9990 -3.1031 0.0000 0.0000
# 2 42.5402 85.4381 40.9990 3.1031 0.0000 0.0000
# 3 40.9990 40.9990 95.5961 0.0000 0.0000 0.0000
# 4 -3.1031 3.1031 0.0000 35.3894 0.0000 0.0000
# 5 0.0000 0.0000 0.0000 0.0000 35.3894 -3.1031
# 6 0.0000 0.0000 0.0000 0.0000 -3.1031 21.4489
#
#
#
# Elastic Compliance Matrix: (Units=1/GPa)
#
#
# Indices 1 2 3 4 5 6 
#
# 1 0.017193 -0.006418 -0.004621 0.002070 0.000000 0.000000
# 2 -0.006418 0.017193 -0.004621 -0.002070 0.000000 0.000000
# 3 -0.004621 -0.004621 0.014424 0.000000 0.000000 0.000000
# 4 0.002070 -0.002070 0.000000 0.028620 0.000000 0.000000
# 5 0.000000 0.000000 0.000000 0.000000 0.028620 0.004141
# 6 0.000000 0.000000 0.000000 0.000000 0.004141 0.047221
#
#
# Mechanical properties :
#
#
# Convention : Reuss Voigt Hill
#
# Bulk Modulus (GPa) = 57.17688 57.28321 57.23004
# Shear Modulus (GPa) = 26.25762 27.90783 27.08273
#
# Velocity S-wave (km/s) = 3.62227 3.73436 3.67874
# Velocity P-wave (km/s) = 6.78715 6.87154 6.82948
#
# Compressibility (1/GPa) = 0.01748959
#
# Stress axis : x y z
#
# Youngs Moduli (GPa) = 58.16449 58.16449 69.32723
#
# Poissons Ratio (x) = 0.37330 0.32036
# Poissons Ratio (y) = 0.37330 0.32036
# Poissons Ratio (z) = 0.26878 0.26878
#
# Static dielectric constant tensor:
#      x y z
#    x 3.480380 0.000000 0.000000 
#    y 0.000000 3.480380 0.000000 
#    z 0.000000 0.000000 3.919640 
# 
# 
# High freq. dielectric constant tensor:
#      x y z
#    x 1.768080 0.000000 0.000000 
#    y 0.000000 1.768080 0.000000 
#    z 0.000000 0.000000 1.796810 
# 
# From -- ./inp_files/1892.got.cif
#   From: 2010.03.12/outbox.cif.g09.slc.cpg/sg152_1_cif.got.tgz:1892.got - 2010.04.03 13:45:27.
