data_PCOD8322515
_publ_section_title
;
Structure prediction by ZEFSAII (Michael W. Deem and Ramdas Pophale) SiO2 
 PCOD8322515
Probable space group: R 3 2
;
_chemical_formula_sum "Si O2"
_cell_formula_units_Z 135
_cell_length_a 25.743512
_cell_length_b 25.743512
_cell_length_c 12.599429
_cell_angle_alpha 90.000000
_cell_angle_beta 90.000000
_cell_angle_gamma 120.000000
_cell_volume 7231.311731
_symmetry_space_group_name_H-M "R 3 2"
_symmetry_group_IT_number 155
_symmetry_cell_setting 'hexagonal'
loop_
_space_group_symop_operation_xyz
x,y,z
-y,x-y,z
-x+y,-x,z
x-y,-y,-z
-x,-x+y,-z
y,x,-z
2/3+x,1/3+y,1/3+z
2/3-y,1/3+x-y,1/3+z
2/3-x+y,1/3-x,1/3+z
2/3+x-y,1/3-y,1/3-z
2/3-x,1/3-x+y,1/3-z
2/3+y,1/3+x,1/3-z
1/3+x,2/3+y,2/3+z
1/3-y,2/3+x-y,2/3+z
1/3-x+y,2/3-x,2/3+z
1/3+x-y,2/3-y,2/3-z
1/3-x,2/3-x+y,2/3-z
1/3+y,2/3+x,2/3-z
loop_
_atom_site_type_symbol
_atom_site_label
_atom_site_fract_x
_atom_site_fract_y
_atom_site_fract_z
Si Si1 0.136692 0.806426 0.027870
Si Si2 0.737257 0.070590 0.166667
Si Si3 0.208150 0.743148 0.059938
Si Si4 0.387290 0.067059 0.599864
Si Si5 0.475464 0.273550 0.698198
Si Si6 0.231295 0.290516 0.235348
Si Si7 0.169500 0.497886 0.288162
Si Si8 0.900654 0.274354 0.369878
O O1 0.181148 0.780597 0.004113
O O2 0.100442 0.777137 0.135040
O O3 0.171552 0.878891 0.035199
O O4 0.092026 0.785679 0.928376
O O5 0.676192 0.066987 0.128168
O O6 0.190850 0.742039 0.183258
O O7 0.185199 0.677241 0.015872
O O8 0.277477 0.773562 0.028161
O O9 0.333334 0.063912 0.666667
O O10 0.447977 0.126851 0.629009
O O11 0.362845 0.069434 0.484415
O O12 0.397365 0.010830 0.621769
O O13 0.424945 0.256608 0.608912
O O14 0.510056 0.236150 0.685430
O O15 0.263668 0.333334 0.333334
O O16 0.145719 0.479052 0.166667
O O17 0.896135 0.333334 0.333334
#
# Coordination Sequence:
#
# PCOD8322515 Si02
#       8
#    18   9  18  18  18  18  18  18
#     4  12  24  40  63  90 123 168 206 250 315 370
#     4  12  28  40  62  88 130 168 202 262 312 376
#     4  10  20  38  57  86 118 164 199 249 316 368
#     4  11  21  34  56  84 117 156 198 246 299 357
#     4  10  21  36  58  87 118 152 203 259 301 366
#     4  12  23  40  64  94 122 158 212 260 309 363
#     4  10  20  35  57  83 120 153 201 248 307 365
#     4  11  24  38  58  86 123 164 206 249 298 372
#
# _framework density 18.668811999999999
#
# number of rings (size 3 to 8) (size 9 to 14) (size 15 to 20)
#    0.000    1.067    4.000    4.400    3.733    1.067 
#    0.800    0.000    0.000    0.000    0.000    0.000 
#    0.000    0.000    0.000    0.800    0.000    0.267 
#
# Total GULP energy -557597.238234 kJ/mol
# GULP energy per Si atom -12391.049739 kJ/mol
# Density = 1.862632 g / cm^3
# Si number density = 18.668812 Si / 1000 Ang^3
#
#
#
# Elastic Constant Matrix: (Units=GPa)
#
#
# Indices 1 2 3 4 5 6 
#
# 1 96.8766 46.3298 38.4881 8.0307 -0.0005 -0.0003
# 2 46.3298 96.8760 38.4857 -8.0313 0.0007 -0.0004
# 3 38.4881 38.4857 91.4312 -0.0016 0.0001 -0.0010
# 4 8.0307 -8.0313 -0.0016 10.5653 -0.0004 0.0008
# 5 -0.0005 0.0007 0.0001 -0.0004 10.5655 8.0310
# 6 -0.0003 -0.0004 -0.0010 0.0008 8.0310 25.2727
#
#
#
# Elastic Compliance Matrix: (Units=1/GPa)
#
#
# Indices 1 2 3 4 5 6 
#
# 1 0.017555 -0.008530 -0.003800 -0.019828 0.000001 0.000000
# 2 -0.008530 0.017554 -0.003798 0.019827 -0.000001 0.000000
# 3 -0.003800 -0.003798 0.014135 0.000003 0.000000 0.000001
# 4 -0.019828 0.019827 0.000003 0.124792 0.000006 -0.000006
# 5 0.000001 -0.000001 0.000000 0.000006 0.124789 -0.039655
# 6 0.000000 0.000000 0.000001 -0.000006 -0.039655 0.052170
#
#
# Mechanical properties :
#
#
# Convention : Reuss Voigt Hill
#
# Bulk Modulus (GPa) = 58.85992 59.08788 58.97390
# Shear Modulus (GPa) = 12.85633 20.07272 16.46452
#
# Velocity S-wave (km/s) = 2.62707 3.28258 2.97295
# Velocity P-wave (km/s) = 6.38740 6.78870 6.59110
#
# Compressibility (1/GPa) = 0.01698949
#
# Stress axis : x y z
#
# Youngs Moduli (GPa) = 56.96428 56.96630 70.74438
#
# Poissons Ratio (x) = 0.48590 0.26881
# Poissons Ratio (y) = 0.48589 0.26869
# Poissons Ratio (z) = 0.21645 0.21636
#
# Static dielectric constant tensor:
#      x y z
#    x 3.599110 0.000010 0.000000 
#    y 0.000010 3.599120 0.000000 
#    z 0.000000 0.000000 3.513380 
# 
# 
# High freq. dielectric constant tensor:
#      x y z
#    x 1.717630 0.000000 0.000000 
#    y 0.000000 1.717630 0.000000 
#    z 0.000000 0.000000 1.722780 
# 
# From -- ./inp_files/4287.got.cif
#   From: 2010.03.12/outbox.cif.g09.slc.cpg/sg155_3_cif.got.tgz:4287.got - 2010.04.03 13:54:13.
