data_PCOD8322586
_publ_section_title
;
Structure prediction by ZEFSAII (Michael W. Deem and Ramdas Pophale) SiO2 
 PCOD8322586
Probable space group: R 3 2
;
_chemical_formula_sum "Si O2"
_cell_formula_units_Z 105
_cell_length_a 14.907098
_cell_length_b 14.907098
_cell_length_c 27.676824
_cell_angle_alpha 90.000000
_cell_angle_beta 90.000000
_cell_angle_gamma 120.000000
_cell_volume 5326.391648
_symmetry_space_group_name_H-M "R 3 2"
_symmetry_group_IT_number 155
_symmetry_cell_setting 'hexagonal'
loop_
_space_group_symop_operation_xyz
x,y,z
-y,x-y,z
-x+y,-x,z
x-y,-y,-z
-x,-x+y,-z
y,x,-z
2/3+x,1/3+y,1/3+z
2/3-y,1/3+x-y,1/3+z
2/3-x+y,1/3-x,1/3+z
2/3+x-y,1/3-y,1/3-z
2/3-x,1/3-x+y,1/3-z
2/3+y,1/3+x,1/3-z
1/3+x,2/3+y,2/3+z
1/3-y,2/3+x-y,2/3+z
1/3-x+y,2/3-x,2/3+z
1/3+x-y,2/3-y,2/3-z
1/3-x,2/3-x+y,2/3-z
1/3+y,2/3+x,2/3-z
loop_
_atom_site_type_symbol
_atom_site_label
_atom_site_fract_x
_atom_site_fract_y
_atom_site_fract_z
Si Si1 0.107435 0.641391 0.911251
Si Si2 0.333334 0.349503 0.666667
Si Si3 0.457742 0.013902 0.323684
Si Si4 0.800924 0.230242 0.893956
Si Si5 0.808589 0.782578 0.251485
Si Si6 0.291947 0.291947 0.500000
Si Si7 0.000000 0.000000 0.556274
Si Si8 0.657776 0.666667 0.166667
O O1 0.122989 0.544693 0.918313
O O2 0.221783 0.739122 0.911637
O O3 0.063573 0.642222 0.857978
O O4 0.030902 0.637913 0.953923
O O5 0.425942 0.464252 0.674886
O O6 0.419169 0.961088 0.272094
O O7 0.379133 0.936535 0.363243
O O8 0.452379 0.119045 0.333334
O O9 0.705139 0.119082 0.879468
O O10 0.754536 0.306028 0.905648
O O11 0.876078 0.247214 0.849140
O O12 0.741327 0.704480 0.209145
O O13 0.000000 0.000000 0.500000
#
# Coordination Sequence:
#
# PCOD8322586 Si02
#       8
#    18   9  18  18  18   9   6   9
#     4  11  24  42  66  93 131 171 224 275 338 406
#     4  10  24  42  66  94 126 174 220 268 342 400
#     4  11  24  43  67  95 132 170 222 272 337 406
#     4  12  23  39  65  97 131 176 216 273 338 400
#     4  11  25  41  65  93 128 170 217 274 328 408
#     4  12  21  41  70  94 132 178 222 277 339 410
#     4  12  24  36  60 102 138 162 225 276 327 403
#     4  12  21  39  64  92 124 168 212 261 329 390
#
# _framework density 19.713159000000001
#
# number of rings (size 3 to 8) (size 9 to 14) (size 15 to 20)
#    0.000    0.686    6.857    0.857    1.200    2.743 
#    0.514    0.000    0.000    0.000    0.000    0.000 
#    0.000    0.000    0.000    0.000    0.000    0.000 
#
# Total GULP energy -433603.034331 kJ/mol
# GULP energy per Si atom -12388.658124 kJ/mol
# Density = 1.966829 g / cm^3
# Si number density = 19.713159 Si / 1000 Ang^3
#
#
#
# Elastic Constant Matrix: (Units=GPa)
#
#
# Indices 1 2 3 4 5 6 
#
# 1 118.0200 42.2143 49.0633 -4.1919 0.0019 0.0000
# 2 42.2143 118.0200 49.0633 4.1919 -0.0019 0.0000
# 3 49.0633 49.0633 104.6141 0.0000 0.0000 0.0000
# 4 -4.1919 4.1919 0.0000 30.7873 0.0000 -0.0019
# 5 0.0019 -0.0019 0.0000 0.0000 30.7873 -4.1919
# 6 0.0000 0.0000 0.0000 -0.0019 -4.1919 37.9028
#
#
#
# Elastic Compliance Matrix: (Units=1/GPa)
#
#
# Indices 1 2 3 4 5 6 
#
# 1 0.011074 -0.002319 -0.004106 0.001824 -0.000001 0.000000
# 2 -0.002319 0.011074 -0.004106 -0.001824 0.000001 0.000000
# 3 -0.004106 -0.004106 0.013411 0.000000 0.000000 0.000000
# 4 0.001824 -0.001824 0.000000 0.032978 0.000000 0.000002
# 5 -0.000001 0.000001 0.000000 0.000000 0.032978 0.003647
# 6 0.000000 0.000000 0.000000 0.000002 0.003647 0.026787
#
#
# Mechanical properties :
#
#
# Convention : Reuss Voigt Hill
#
# Bulk Modulus (GPa) = 68.98216 69.03732 69.00974
# Shear Modulus (GPa) = 32.42623 33.24970 32.83796
#
# Velocity S-wave (km/s) = 4.06014 4.11137 4.08584
# Velocity P-wave (km/s) = 7.55305 7.59176 7.57243
#
# Compressibility (1/GPa) = 0.01449650
#
# Stress axis : x y z
#
# Youngs Moduli (GPa) = 90.29817 90.29817 74.56792
#
# Poissons Ratio (x) = 0.20939 0.30620
# Poissons Ratio (y) = 0.20939 0.30620
# Poissons Ratio (z) = 0.37079 0.37079
#
# Static dielectric constant tensor:
#      x y z
#    x 3.629080 0.000000 0.000000 
#    y 0.000000 3.629080 0.000000 
#    z 0.000000 0.000000 3.604810 
# 
# 
# High freq. dielectric constant tensor:
#      x y z
#    x 1.772070 0.000000 0.000000 
#    y 0.000000 1.772070 0.000000 
#    z 0.000000 0.000000 1.778060 
# 
# From -- ./inp_files/8468.got.cif
#   From: 2010.03.12/outbox.cif.g09.slc.cpg/sg155_5_cif.got.tgz:8468.got - 2010.04.03 13:54:13.
