data_PCOD8322905
_publ_section_title
;
Structure prediction by ZEFSAII (Michael W. Deem and Ramdas Pophale) SiO2 
 PCOD8322905
Probable space group: R 3 C
;
_chemical_formula_sum "Si O2"
_cell_formula_units_Z 66
_cell_length_a 13.580651
_cell_length_b 13.580651
_cell_length_c 19.159312
_cell_angle_alpha 90.000000
_cell_angle_beta 90.000000
_cell_angle_gamma 120.000000
_cell_volume 3060.213445
_symmetry_space_group_name_H-M "R 3 C"
_symmetry_group_IT_number 161
_symmetry_cell_setting 'hexagonal'
loop_
_space_group_symop_operation_xyz
x,y,z
-y,x-y,z
-x+y,-x,z
-x+y,y,1/2+z
x,x-y,1/2+z
-y,-x,1/2+z
2/3+x,1/3+y,1/3+z
2/3-y,1/3+x-y,1/3+z
2/3-x+y,1/3-x,1/3+z
2/3-x+y,1/3+y,5/6+z
2/3+x,1/3+x-y,5/6+z
2/3-y,1/3-x,5/6+z
1/3+x,2/3+y,2/3+z
1/3-y,2/3+x-y,2/3+z
1/3-x+y,2/3-x,2/3+z
1/3-x+y,2/3+y,1/6+z
1/3+x,2/3+x-y,1/6+z
1/3-y,2/3-x,1/6+z
loop_
_atom_site_type_symbol
_atom_site_label
_atom_site_fract_x
_atom_site_fract_y
_atom_site_fract_z
Si Si1 0.647968 0.981302 0.320275
Si Si2 0.000000 0.000000 0.237666
Si Si3 0.742271 0.872487 0.549223
Si Si4 0.539152 0.463550 0.591326
Si Si5 0.666667 0.333334 0.402884
O O1 0.530456 0.964003 0.288927
O O2 0.630673 0.863793 0.351623
O O3 0.689291 0.076847 0.381594
O O4 0.743511 0.022628 0.258955
O O5 0.915587 0.875576 0.268529
O O6 0.000000 0.000000 0.153608
O O7 0.666667 0.882848 0.486942
O O8 0.875578 0.959994 0.538686
#
# Coordination Sequence:
#
# PCOD8322905 Si02
#       5
#    18   6  18  18   6
#     4  10  24  46  68 104 136 180 228 278 346 398
#     4  12  24  45  70 104 139 180 229 278 340 408
#     4  10  26  43  72 101 139 180 226 284 337 408
#     4  10  26  43  72 101 139 180 226 284 337 408
#     4  12  24  45  70 104 139 180 229 278 340 408
#
# _framework density 21.567122000000001
#
# number of rings (size 3 to 8) (size 9 to 14) (size 15 to 20)
#    1.636    0.000    2.727    0.000    7.636    4.364 
#    0.000    2.727    0.000    0.000    0.000    0.000 
#    0.000    0.000    0.000    0.000    0.000    0.000 
#
# Total GULP energy -272558.565131 kJ/mol
# GULP energy per Si atom -12389.025688 kJ/mol
# Density = 2.151803 g / cm^3
# Si number density = 21.567122 Si / 1000 Ang^3
#
#
#
# Elastic Constant Matrix: (Units=GPa)
#
#
# Indices 1 2 3 4 5 6 
#
# 1 149.2452 71.0879 67.5345 19.1730 0.0000 0.0000
# 2 71.0879 149.2461 67.5344 -19.1732 0.0000 0.0000
# 3 67.5345 67.5344 79.1757 0.0000 0.0000 0.0000
# 4 19.1730 -19.1732 0.0000 42.6148 0.0000 0.0000
# 5 0.0000 0.0000 0.0000 0.0000 42.6150 19.1730
# 6 0.0000 0.0000 0.0000 0.0000 19.1730 39.0786
#
#
#
# Elastic Compliance Matrix: (Units=1/GPa)
#
#
# Indices 1 2 3 4 5 6 
#
# 1 0.012966 -0.003453 -0.008114 -0.007387 0.000000 0.000000
# 2 -0.003453 0.012966 -0.008114 0.007387 0.000000 0.000000
# 3 -0.008114 -0.008114 0.026472 0.000000 0.000000 0.000000
# 4 -0.007387 0.007387 0.000000 0.030113 0.000000 0.000000
# 5 0.000000 0.000000 0.000000 0.000000 0.030113 -0.014774
# 6 0.000000 0.000000 0.000000 0.000000 -0.014774 0.032838
#
#
# Mechanical properties :
#
#
# Convention : Reuss Voigt Hill
#
# Bulk Modulus (GPa) = 76.67875 87.77561 82.22718
# Shear Modulus (GPa) = 26.43026 36.29570 31.36298
#
# Velocity S-wave (km/s) = 3.50450 4.10679 3.81754
# Velocity P-wave (km/s) = 7.21152 7.95454 7.59213
#
# Compressibility (1/GPa) = 0.01304142
#
# Stress axis : x y z
#
# Youngs Moduli (GPa) = 77.12578 77.12648 37.77572
#
# Poissons Ratio (x) = 0.26633 0.30651
# Poissons Ratio (y) = 0.26633 0.30651
# Poissons Ratio (z) = 0.62580 0.62580
#
# Static dielectric constant tensor:
#      x y z
#    x 3.841230 0.000000 0.000000 
#    y 0.000000 3.841210 0.000000 
#    z 0.000000 0.000000 3.545760 
# 
# 
# High freq. dielectric constant tensor:
#      x y z
#    x 1.850320 0.000000 0.000000 
#    y 0.000000 1.850320 0.000000 
#    z 0.000000 0.000000 1.817800 
# 
# From -- ./inp_files/1216.got.cif
#   From: 2010.03.12/outbox.cif.g09.slc.cpg/sg161_cif.got.tgz:1216.got - 2010.04.02 06:27:14.
