data_PCOD8322868
_publ_section_title
;
Structure prediction by ZEFSAII (Michael W. Deem and Ramdas Pophale) SiO2 
 PCOD8322868
Probable space group: R 3 M
;
_chemical_formula_sum "Si O2"
_cell_formula_units_Z 126
_cell_length_a 17.285189
_cell_length_b 17.285189
_cell_length_c 25.367561
_cell_angle_alpha 90.000000
_cell_angle_beta 90.000000
_cell_angle_gamma 120.000000
_cell_volume 6563.834318
_symmetry_space_group_name_H-M "R 3 M"
_symmetry_group_IT_number 160
_symmetry_cell_setting 'hexagonal'
loop_
_space_group_symop_operation_xyz
x,y,z
-y,x-y,z
-x+y,-x,z
-x+y,y,z
x,x-y,z
-y,-x,z
2/3+x,1/3+y,1/3+z
2/3-y,1/3+x-y,1/3+z
2/3-x+y,1/3-x,1/3+z
2/3-x+y,1/3+y,1/3+z
2/3+x,1/3+x-y,1/3+z
2/3-y,1/3-x,1/3+z
1/3+x,2/3+y,2/3+z
1/3-y,2/3+x-y,2/3+z
1/3-x+y,2/3-x,2/3+z
1/3-x+y,2/3+y,2/3+z
1/3+x,2/3+x-y,2/3+z
1/3-y,2/3-x,2/3+z
loop_
_atom_site_type_symbol
_atom_site_label
_atom_site_fract_x
_atom_site_fract_y
_atom_site_fract_z
Si Si1 0.510176 0.841676 0.561079
Si Si2 0.175779 0.999424 0.419087
Si Si3 0.355994 0.092892 0.842822
Si Si4 0.722041 0.619830 0.654304
Si Si5 0.331393 0.845528 0.771267
Si Si6 0.721483 0.616913 0.538983
Si Si7 0.099525 0.376647 0.665570
O O1 0.431533 0.863066 0.550791
O O2 0.470352 0.735176 0.562660
O O3 0.581322 0.884608 0.512709
O O4 0.556748 0.883430 0.616951
O O5 0.194375 0.097188 0.436729
O O6 0.232883 0.964399 0.451819
O O7 0.208754 0.004428 0.359575
O O8 0.070287 0.929714 0.425024
O O9 0.382412 0.191206 0.864777
O O10 0.397059 0.047371 0.879560
O O11 0.827990 0.655980 0.663252
O O12 0.691359 0.573052 0.596602
O O13 0.705000 0.702950 0.662328
O O14 0.426880 0.853760 0.767385
O O15 0.258119 0.741882 0.773545
O O16 0.321795 0.891915 0.825017
O O17 0.318378 0.892018 0.720380
O O18 0.817756 0.635511 0.522698
O O19 0.170577 0.341154 0.663236
#
# Coordination Sequence:
#
# PCOD8322868 Si02
#       7
#    18  18  18  18  18  18  18
#     4  10  20  34  54  81 113 149 188 230 277 329
#     4  10  21  37  58  83 111 145 187 234 282 332
#     4  10  20  35  55  78 105 140 183 232 282 326
#     4  10  21  37  57  82 112 150 189 229 277 328
#     4  10  21  36  55  81 114 149 185 225 274 333
#     4  10  20  35  54  80 112 146 185 227 274 331
#     4  10  20  36  58  83 111 147 189 233 277 325
#
# _framework density 19.196096000000001
#
# number of rings (size 3 to 8) (size 9 to 14) (size 15 to 20)
#    0.000    2.000    1.429    2.143    0.000    3.429 
#    0.000    2.143    0.000    2.286    0.000    0.000 
#    0.000    0.000    0.000    0.000    0.000    0.000 
#
# Total GULP energy -520381.124014 kJ/mol
# GULP energy per Si atom -12390.026762 kJ/mol
# Density = 1.915241 g / cm^3
# Si number density = 19.196096 Si / 1000 Ang^3
#
#
#
# Elastic Constant Matrix: (Units=GPa)
#
#
# Indices 1 2 3 4 5 6 
#
# 1 106.2494 53.5087 52.3765 -1.5524 0.0000 0.0000
# 2 53.5087 106.2494 52.3765 1.5524 0.0000 0.0000
# 3 52.3765 52.3765 119.4138 0.0000 0.0000 0.0000
# 4 -1.5524 1.5524 0.0000 23.1327 0.0000 0.0000
# 5 0.0000 0.0000 0.0000 0.0000 23.1327 -1.5524
# 6 0.0000 0.0000 0.0000 0.0000 -1.5524 26.3703
#
#
#
# Elastic Compliance Matrix: (Units=1/GPa)
#
#
# Indices 1 2 3 4 5 6 
#
# 1 0.013911 -0.005125 -0.003854 0.001277 0.000000 0.000000
# 2 -0.005125 0.013911 -0.003854 -0.001277 0.000000 0.000000
# 3 -0.003854 -0.003854 0.011755 0.000000 0.000000 0.000000
# 4 0.001277 -0.001277 0.000000 0.043400 0.000000 0.000000
# 5 0.000000 0.000000 0.000000 0.000000 0.043400 0.002555
# 6 0.000000 0.000000 0.000000 0.000000 0.002555 0.038072
#
#
# Mechanical properties :
#
#
# Convention : Reuss Voigt Hill
#
# Bulk Modulus (GPa) = 71.87830 72.04845 71.96338
# Shear Modulus (GPa) = 25.67367 26.10386 25.88877
#
# Velocity S-wave (km/s) = 3.66107 3.69162 3.67638
# Velocity P-wave (km/s) = 7.44290 7.46894 7.45593
#
# Compressibility (1/GPa) = 0.01391240
#
# Stress axis : x y z
#
# Youngs Moduli (GPa) = 71.88472 71.88472 85.07067
#
# Poissons Ratio (x) = 0.36839 0.32785
# Poissons Ratio (y) = 0.36839 0.32785
# Poissons Ratio (z) = 0.27703 0.27703
#
# Static dielectric constant tensor:
#      x y z
#    x 3.507430 0.000000 0.000000 
#    y 0.000000 3.507430 0.000000 
#    z 0.000000 0.000000 3.785020 
# 
# 
# High freq. dielectric constant tensor:
#      x y z
#    x 1.738310 0.000000 0.000000 
#    y 0.000000 1.738310 0.000000 
#    z 0.000000 0.000000 1.753810 
# 
# From -- ./inp_files/3795.got.cif
#   From: 2010.03.12/outbox.cif.g09.slc.cpg/sg160_2_cif.got.tgz:3795.got - 2010.04.02 06:26:15.
