data_PCOD8322883
_publ_section_title
;
Structure prediction by ZEFSAII (Michael W. Deem and Ramdas Pophale) SiO2 
 PCOD8322883
Probable space group: R 3 M
;
_chemical_formula_sum "Si O2"
_cell_formula_units_Z 42
_cell_length_a 21.000000
_cell_length_b 21.000000
_cell_length_c 18.000000
_cell_angle_alpha 90.000000
_cell_angle_beta 90.000000
_cell_angle_gamma 120.000000
_cell_volume 6874.509655
_symmetry_space_group_name_H-M "R 3 M"
_symmetry_group_IT_number 160
_symmetry_cell_setting 'hexagonal'
loop_
_space_group_symop_operation_xyz
x,y,z
-y,x-y,z
-x+y,-x,z
-x+y,y,z
x,x-y,z
-y,-x,z
2/3+x,1/3+y,1/3+z
2/3-y,1/3+x-y,1/3+z
2/3-x+y,1/3-x,1/3+z
2/3-x+y,1/3+y,1/3+z
2/3+x,1/3+x-y,1/3+z
2/3-y,1/3-x,1/3+z
1/3+x,2/3+y,2/3+z
1/3-y,2/3+x-y,2/3+z
1/3-x+y,2/3-x,2/3+z
1/3-x+y,2/3+y,2/3+z
1/3+x,2/3+x-y,2/3+z
1/3-y,2/3-x,2/3+z
loop_
_atom_site_type_symbol
_atom_site_label
_atom_site_fract_x
_atom_site_fract_y
_atom_site_fract_z
Si Si1 0.528459 0.618343 0.397831
Si Si2 0.857283 0.000263 0.143648
Si Si3 0.431146 0.288231 0.894371
Si Si4 0.130735 0.408166 0.543278
Si Si5 0.813906 0.333240 0.643999
Si Si6 0.263336 0.013171 0.038715
Si Si7 0.941143 0.207844 0.427246
O O1 0.445046 0.554955 0.416132
O O2 0.532091 0.650690 0.313766
O O3 0.556690 0.676680 0.466399
O O4 0.578147 0.581461 0.388611
O O5 0.841366 0.920683 0.120646
O O6 0.819592 0.024635 0.083381
O O7 0.826608 0.999159 0.226275
O O8 0.944378 0.055623 0.143181
O O9 0.459968 0.229984 0.879636
O O10 0.345802 0.247282 0.872734
O O11 0.464747 0.358572 0.839756
O O12 0.218056 0.436112 0.551402
O O13 0.098388 0.427425 0.617670
O O14 0.796674 0.398337 0.658612
O O15 0.741713 0.258288 0.665061
O O16 0.879076 0.341494 0.696045
O O17 0.271026 0.947348 0.075023
O O18 0.858324 0.141677 0.424037
#
# Coordination Sequence:
#
# PCOD8322883 Si02
#       7
#    18  18  18  18  18  18  18
#     4  10  21  37  62  86 109 149 194 237 290 347
#     4  10  20  35  54  76 106 145 186 225 269 327
#     4   9  19  38  58  81 114 152 192 236 287 345
#     4  10  21  39  61  83 109 148 195 236 288 348
#     4   9  19  34  54  80 111 149 188 226 274 333
#     4  11  22  37  53  81 118 152 184 237 287 346
#     4  11  22  34  54  85 119 153 189 235 285 338
#
# _framework density 6.1095269999999999
#
# number of rings (size 3 to 8) (size 9 to 14) (size 15 to 20)
#    0.000    2.000    1.429    3.286    2.000    2.857 
#    0.000    0.000    0.000    0.571    0.000    0.000 
#    0.000    0.000    0.000    0.000    0.000    0.000 
#
# Total GULP energy -520403.349510 kJ/mol
# GULP energy per Si atom -12390.555941 kJ/mol
# Density = 0.609562 g / cm^3
# Si number density = 6.109527 Si / 1000 Ang^3
#
#
#
# Elastic Constant Matrix: (Units=GPa)
#
#
# Indices 1 2 3 4 5 6 
#
# 1 56.2782 13.2847 37.1826 -2.1180 -0.0003 0.0000
# 2 13.2847 56.2782 37.1826 2.1180 0.0003 0.0000
# 3 37.1826 37.1826 138.6497 0.0000 0.0000 0.0000
# 4 -2.1180 2.1180 0.0000 36.3677 0.0000 0.0003
# 5 -0.0003 0.0003 0.0000 0.0000 36.3677 -2.1180
# 6 0.0000 0.0000 0.0000 0.0003 -2.1180 21.4967
#
#
#
# Elastic Compliance Matrix: (Units=1/GPa)
#
#
# Indices 1 2 3 4 5 6 
#
# 1 0.021773 -0.001620 -0.005405 0.001362 0.000000 0.000000
# 2 -0.001620 0.021773 -0.005405 -0.001362 0.000000 0.000000
# 3 -0.005405 -0.005405 0.010111 0.000000 0.000000 0.000000
# 4 0.001362 -0.001362 0.000000 0.027656 0.000000 0.000000
# 5 0.000000 0.000000 0.000000 0.000000 0.027656 0.002725
# 6 0.000000 0.000000 0.000000 0.000000 0.002725 0.046787
#
#
# Mechanical properties :
#
#
# Convention : Reuss Voigt Hill
#
# Bulk Modulus (GPa) = 34.72322 47.38954 41.05638
# Shear Modulus (GPa) = 26.28605 29.75017 28.01811
#
# Velocity S-wave (km/s) = 3.79113 4.03321 3.91405
# Velocity P-wave (km/s) = 6.17653 6.89933 6.54791
#
# Compressibility (1/GPa) = 0.02879917
#
# Stress axis : x y z
#
# Youngs Moduli (GPa) = 45.92759 45.92759 98.90009
#
# Poissons Ratio (x) = 0.07441 0.53452
# Poissons Ratio (y) = 0.07441 0.53452
# Poissons Ratio (z) = 0.24822 0.24822
#
# Static dielectric constant tensor:
#      x y z
#    x 3.320370 0.000000 0.000000 
#    y 0.000000 3.320370 0.000000 
#    z 0.000000 0.000000 3.834690 
# 
# 
# High freq. dielectric constant tensor:
#      x y z
#    x 1.704960 0.000000 0.000000 
#    y 0.000000 1.704960 0.000000 
#    z 0.000000 0.000000 1.738080 
# 
# From -- ./inp_files/2887.got.cif
#   From: 2010.03.12/outbox.ucp.g09.slc.cvg/sg160_2_cif.got.tgz:2887.got - 2010.05.04 20:37:23.
