data_PCOD8322143
_publ_section_title
;
Structure prediction by ZEFSAII (Michael W. Deem and Ramdas Pophale) SiO2 
 PCOD8322143
Probable space group: P 31 2 1
;
_chemical_formula_sum "Si O2"
_cell_formula_units_Z 30
_cell_length_a 11.796541
_cell_length_b 11.796541
_cell_length_c 11.896011
_cell_angle_alpha 90.000000
_cell_angle_beta 90.000000
_cell_angle_gamma 120.000000
_cell_volume 1433.644100
_symmetry_space_group_name_H-M "P 31 2 1"
_symmetry_group_IT_number 152
_symmetry_cell_setting 'hexagonal'
loop_
_space_group_symop_operation_xyz
x,y,z
-y,x-y,1/3+z
-x+y,-x,2/3+z
x-y,-y,2/3-z
-x,-x+y,1/3-z
y,x,-z
loop_
_atom_site_type_symbol
_atom_site_label
_atom_site_fract_x
_atom_site_fract_y
_atom_site_fract_z
Si Si1 0.446320 0.043832 0.621454
Si Si2 0.462988 0.242270 0.024282
Si Si3 0.477753 0.136039 0.380385
Si Si4 0.138118 0.314735 0.201955
Si Si5 0.914234 0.635199 0.919245
O O1 0.444562 0.122826 0.512101
O O2 0.408042 0.103329 0.725632
O O3 0.588104 0.062799 0.642891
O O4 0.352654 0.888057 0.607314
O O5 0.611020 0.368695 0.021744
O O6 0.384543 0.272524 0.119401
O O7 0.395292 0.224533 0.904195
O O8 0.374889 0.165816 0.318014
O O9 0.458911 0.000000 0.333334
O O10 0.222149 0.264267 0.271150
O O11 0.000000 0.188139 0.166667
#
# Coordination Sequence:
#
# PCOD8322143 Si02
#       5
#     6   6   6   6   6
#     4  10  23  41  63  96 129 162 215 266 324 384
#     4  10  21  42  68  89 126 169 219 259 317 391
#     4  11  22  40  65  95 127 169 210 263 318 388
#     4  10  23  43  63  93 127 170 215 263 317 388
#     4  11  23  39  67  94 127 170 210 263 325 387
#
# _framework density 20.925694
#
# number of rings (size 3 to 8) (size 9 to 14) (size 15 to 20)
#    0.000    1.600    2.000    3.000    2.800    2.400 
#    7.200    4.000    0.000    0.000    0.000    0.000 
#    0.000    0.000    0.000    0.000    0.000    0.000 
#
# Total GULP energy -372010.956531 kJ/mol
# GULP energy per Si atom -12400.365218 kJ/mol
# Density = 2.087807 g / cm^3
# Si number density = 20.925694 Si / 1000 Ang^3
#
#
#
# Elastic Constant Matrix: (Units=GPa)
#
#
# Indices 1 2 3 4 5 6 
#
# 1 120.1154 57.4413 46.7807 -6.5686 0.0000 0.0000
# 2 57.4413 120.1154 46.7807 6.5686 0.0000 0.0000
# 3 46.7807 46.7807 81.0149 0.0000 0.0000 0.0000
# 4 -6.5686 6.5686 0.0000 29.7054 0.0000 0.0000
# 5 0.0000 0.0000 0.0000 0.0000 29.7054 -6.5686
# 6 0.0000 0.0000 0.0000 0.0000 -6.5686 31.3370
#
#
#
# Elastic Compliance Matrix: (Units=1/GPa)
#
#
# Indices 1 2 3 4 5 6 
#
# 1 0.012413 -0.004318 -0.004674 0.003700 0.000000 0.000000
# 2 -0.004318 0.012413 -0.004674 -0.003700 0.000000 0.000000
# 3 -0.004674 -0.004674 0.017742 0.000000 0.000000 0.000000
# 4 0.003700 -0.003700 0.000000 0.035300 0.000000 0.000000
# 5 0.000000 0.000000 0.000000 0.000000 0.035300 0.007399
# 6 0.000000 0.000000 0.000000 0.000000 0.007399 0.033462
#
#
# Mechanical properties :
#
#
# Convention : Reuss Voigt Hill
#
# Bulk Modulus (GPa) = 65.64100 69.25011 67.44556
# Shear Modulus (GPa) = 27.92645 29.49910 28.71278
#
# Velocity S-wave (km/s) = 3.65712 3.75868 3.70825
# Velocity P-wave (km/s) = 7.01922 7.21125 7.11588
#
# Compressibility (1/GPa) = 0.01523438
#
# Stress axis : x y z
#
# Youngs Moduli (GPa) = 80.56015 80.56015 56.36441
#
# Poissons Ratio (x) = 0.34786 0.26347
# Poissons Ratio (y) = 0.34786 0.26347
# Poissons Ratio (z) = 0.37657 0.37657
#
# Static dielectric constant tensor:
#      x y z
#    x 3.765020 0.000000 0.000000 
#    y 0.000000 3.765020 0.000000 
#    z 0.000000 0.000000 3.786280 
# 
# 
# High freq. dielectric constant tensor:
#      x y z
#    x 1.813050 0.000000 0.000000 
#    y 0.000000 1.813050 0.000000 
#    z 0.000000 0.000000 1.825500 
# 
# From -- ./inp_files/1962.got.cif
#   From: 2010.03.12/outbox.cif.g09.slc.cpg/sg152_1_cif.got.tgz:1962.got - 2010.04.03 13:45:27.
