data_PCOD8322981
_publ_section_title
;
Structure prediction by ZEFSAII (Michael W. Deem and Ramdas Pophale) SiO2 
 PCOD8322981
Probable space group: P -3 1 M 
;
_chemical_formula_sum "Si O2"
_cell_formula_units_Z 60
_cell_length_a 17.757224
_cell_length_b 17.757224
_cell_length_c 12.841407
_cell_angle_alpha 90.000000
_cell_angle_beta 90.000000
_cell_angle_gamma 120.000000
_cell_volume 3506.657816
_symmetry_space_group_name_H-M "P -3 1 M "
_symmetry_group_IT_number 162
_symmetry_cell_setting 'hexagonal'
loop_
_space_group_symop_operation_xyz
x,y,z
-y,x-y,z
-x+y,-x,z
-y,-x,-z
-x+y,y,-z
x,x-y,-z
-x,-y,-z
y,-x+y,-z
x-y,x,-z
y,x,z
x-y,-y,z
-x,-x+y,z
loop_
_atom_site_type_symbol
_atom_site_label
_atom_site_fract_x
_atom_site_fract_y
_atom_site_fract_z
Si Si1 0.101158 0.633583 0.509494
Si Si2 0.897067 0.526783 0.125892
Si Si3 0.370448 0.102762 0.684212
Si Si4 0.364378 0.263936 0.703942
Si Si5 0.463517 0.361154 0.896402
O O1 0.145319 0.572660 0.500000
O O2 0.134626 0.704298 0.418091
O O3 0.119861 0.679817 0.621081
O O4 0.000000 0.572499 0.489575
O O5 0.864429 0.564127 0.217816
O O6 0.859229 0.423077 0.139704
O O7 0.000000 0.576974 0.133354
O O8 0.865362 0.541989 0.012935
O O9 0.322400 0.160304 0.685150
O O10 0.298810 0.000000 0.685287
O O11 0.287607 0.287607 0.697788
O O12 0.410399 0.283607 0.816335
O O13 0.423276 0.423276 0.899912
#
# Coordination Sequence:
#
# PCOD8322981 Si02
#       5
#    12  12  12  12  12
#     4   9  17  30  49  70  88 108 138 177 223 276
#     4   8  14  26  45  67  88 111 142 181 226 277
#     4  10  19  30  46  68  93 122 158 198 234 268
#     4  10  19  30  46  68  93 122 158 198 234 268
#     4   8  14  26  45  67  88 111 142 181 226 277
#
# _framework density 17.110308
#
# number of rings (size 3 to 8) (size 9 to 14) (size 15 to 20)
#    0.000    3.000    0.000    3.000    0.000    5.600 
#    0.000    0.000    0.000   11.600    0.000    0.000 
#    0.000    4.800    0.000   10.000    0.000    0.000 
#
# Total GULP energy -743339.628642 kJ/mol
# GULP energy per Si atom -12388.993811 kJ/mol
# Density = 1.707136 g / cm^3
# Si number density = 17.110308 Si / 1000 Ang^3
#
#
#
# Elastic Constant Matrix: (Units=GPa)
#
#
# Indices 1 2 3 4 5 6 
#
# 1 54.7088 24.0000 10.6987 0.0000 2.1084 0.0000
# 2 24.0000 54.7088 10.6987 0.0000 -2.1084 0.0000
# 3 10.6987 10.6987 86.0376 0.0000 0.0000 0.0000
# 4 0.0000 0.0000 0.0000 10.0809 0.0000 -2.1084
# 5 2.1084 -2.1084 0.0000 0.0000 10.0809 0.0000
# 6 0.0000 0.0000 0.0000 -2.1084 0.0000 15.3544
#
#
#
# Elastic Compliance Matrix: (Units=1/GPa)
#
#
# Indices 1 2 3 4 5 6 
#
# 1 0.023338 -0.010189 -0.001635 0.000000 -0.007012 0.000000
# 2 -0.010189 0.023338 -0.001635 0.000000 0.007012 0.000000
# 3 -0.001635 -0.001635 0.012029 0.000000 0.000000 0.000000
# 4 0.000000 0.000000 0.000000 0.102130 0.000000 0.014024
# 5 -0.007012 0.007012 0.000000 0.000000 0.102130 0.000000
# 6 0.000000 0.000000 0.000000 0.014024 0.000000 0.067054
#
#
# Mechanical properties :
#
#
# Convention : Reuss Voigt Hill
#
# Bulk Modulus (GPa) = 31.45833 31.80556 31.63194
# Shear Modulus (GPa) = 13.60419 17.10710 15.35565
#
# Velocity S-wave (km/s) = 2.82279 3.16541 2.99900
# Velocity P-wave (km/s) = 5.38978 5.65585 5.52442
#
# Compressibility (1/GPa) = 0.03178809
#
# Stress axis : x y z
#
# Youngs Moduli (GPa) = 42.84820 42.84820 83.12912
#
# Poissons Ratio (x) = 0.43656 0.13593
# Poissons Ratio (y) = 0.43656 0.13593
# Poissons Ratio (z) = 0.07006 0.07006
#
# Static dielectric constant tensor:
#      x y z
#    x 2.966840 0.000000 0.000000 
#    y 0.000000 2.966840 0.000000 
#    z 0.000000 0.000000 3.622560 
# 
# 
# High freq. dielectric constant tensor:
#      x y z
#    x 1.624520 0.000000 0.000000 
#    y 0.000000 1.624520 0.000000 
#    z 0.000000 0.000000 1.683810 
# 
# From -- ./inp_files/2326.got.cif
#   From: 2010.03.12/outbox.cif.g09.slc.cpg/sg162_2_cif.got.tgz:2326.got - 2010.04.02 06:27:41.
