data_PCOD8322228
_publ_section_title
;
Structure prediction by ZEFSAII (Michael W. Deem and Ramdas Pophale) SiO2 
 PCOD8322228
Probable space group: P 31 2 1
;
_chemical_formula_sum "Si O2"
_cell_formula_units_Z 15
_cell_length_a 11.565633
_cell_length_b 11.565633
_cell_length_c 4.904141
_cell_angle_alpha 90.000000
_cell_angle_beta 90.000000
_cell_angle_gamma 120.000000
_cell_volume 568.109948
_symmetry_space_group_name_H-M "P 31 2 1"
_symmetry_group_IT_number 152
_symmetry_cell_setting 'hexagonal'
loop_
_space_group_symop_operation_xyz
x,y,z
-y,x-y,1/3+z
-x+y,-x,2/3+z
x-y,-y,2/3-z
-x,-x+y,1/3-z
y,x,-z
loop_
_atom_site_type_symbol
_atom_site_label
_atom_site_fract_x
_atom_site_fract_y
_atom_site_fract_z
Si Si1 0.869514 0.359977 0.018407
Si Si2 0.577858 0.806969 0.149464
Si Si3 0.866877 0.000000 0.333334
O O1 0.870318 0.311525 0.714047
O O2 0.869979 0.498306 0.000005
O O3 0.755656 0.248343 0.220009
O O4 0.000000 0.378294 0.166667
O O5 0.736157 0.912042 0.149806
O O6 0.899703 0.899703 0.500000
#
# Coordination Sequence:
#
# PCOD8322228 Si02
#       3
#     6   6   3
#     4  12  28  50  83 121 163 215 276 349 413 493
#     4  12  29  54  83 126 167 219 285 351 429 500
#     4  12  34  56  84 124 180 234 286 344 438 534
#
# _framework density 26.403341000000001
#
# number of rings (size 3 to 8) (size 9 to 14) (size 15 to 20)
#    0.000    0.000    0.000    7.200   22.400    0.000 
#    0.000    0.000    0.000    0.000    0.000    0.000 
#    0.000    0.000    0.000    0.000    0.000    0.000 
#
# Total GULP energy -185958.008516 kJ/mol
# GULP energy per Si atom -12397.200568 kJ/mol
# Density = 2.634325 g / cm^3
# Si number density = 26.403341 Si / 1000 Ang^3
#
#
#
# Elastic Constant Matrix: (Units=GPa)
#
#
# Indices 1 2 3 4 5 6 
#
# 1 158.1843 60.3090 49.9823 -2.2216 0.0000 0.0000
# 2 60.3090 158.1843 49.9823 2.2216 0.0000 0.0000
# 3 49.9823 49.9823 137.0619 0.0000 0.0000 0.0000
# 4 -2.2216 2.2216 0.0000 40.7946 0.0000 0.0000
# 5 0.0000 0.0000 0.0000 0.0000 40.7946 -2.2216
# 6 0.0000 0.0000 0.0000 0.0000 -2.2216 48.9376
#
#
#
# Elastic Compliance Matrix: (Units=1/GPa)
#
#
# Indices 1 2 3 4 5 6 
#
# 1 0.007868 -0.002375 -0.002003 0.000558 0.000000 0.000000
# 2 -0.002375 0.007868 -0.002003 -0.000558 0.000000 0.000000
# 3 -0.002003 -0.002003 0.008757 0.000000 0.000000 0.000000
# 4 0.000558 -0.000558 0.000000 0.024574 0.000000 0.000000
# 5 0.000000 0.000000 0.000000 0.000000 0.024574 0.001116
# 6 0.000000 0.000000 0.000000 0.000000 0.001116 0.020485
#
#
# Mechanical properties :
#
#
# Convention : Reuss Voigt Hill
#
# Bulk Modulus (GPa) = 85.24659 85.99753 85.62206
# Shear Modulus (GPa) = 45.12740 45.64917 45.38828
#
# Velocity S-wave (km/s) = 4.13868 4.16253 4.15062
# Velocity P-wave (km/s) = 7.42931 7.46617 7.44776
#
# Compressibility (1/GPa) = 0.01173067
#
# Stress axis : x y z
#
# Youngs Moduli (GPa) = 127.09930 127.09930 114.19405
#
# Poissons Ratio (x) = 0.30180 0.22876
# Poissons Ratio (y) = 0.30180 0.22876
# Poissons Ratio (z) = 0.25461 0.25461
#
# Static dielectric constant tensor:
#      x y z
#    x 4.737200 0.000000 0.000000 
#    y 0.000000 4.737200 0.000000 
#    z 0.000000 0.000000 5.245160 
# 
# 
# High freq. dielectric constant tensor:
#      x y z
#    x 2.065220 0.000000 0.000000 
#    y 0.000000 2.065220 0.000000 
#    z 0.000000 0.000000 2.071110 
# 
# From -- ./inp_files/76.got.cif
#   From: 2010.03.12/outbox.cif.g09.slc.cpg/sg152_1_cif.got.tgz:76.got - 2010.04.03 13:45:27.
