data_PCOD8322974
_publ_section_title
;
Structure prediction by ZEFSAII (Michael W. Deem and Ramdas Pophale) SiO2 
 PCOD8322974
Probable space group: P -3 1 M 
;
_chemical_formula_sum "Si O2"
_cell_formula_units_Z 48
_cell_length_a 26.204646
_cell_length_b 26.204646
_cell_length_c 5.131498
_cell_angle_alpha 90.000000
_cell_angle_beta 90.000000
_cell_angle_gamma 120.000000
_cell_volume 3051.626587
_symmetry_space_group_name_H-M "P -3 1 M "
_symmetry_group_IT_number 162
_symmetry_cell_setting 'hexagonal'
loop_
_space_group_symop_operation_xyz
x,y,z
-y,x-y,z
-x+y,-x,z
-y,-x,-z
-x+y,y,-z
x,x-y,-z
-x,-y,-z
y,-x+y,-z
x-y,x,-z
y,x,z
x-y,-y,z
-x,-x+y,z
loop_
_atom_site_type_symbol
_atom_site_label
_atom_site_fract_x
_atom_site_fract_y
_atom_site_fract_z
Si Si1 0.200893 0.513581 0.032791
Si Si2 0.624864 0.485994 0.544453
Si Si3 0.755479 0.623896 0.022260
Si Si4 0.307873 0.931264 0.533129
O O1 0.186346 0.525579 0.320591
O O2 0.171663 0.444894 0.970488
O O3 0.271503 0.543006 0.000000
O O4 0.174871 0.538038 0.813611
O O5 0.554362 0.445639 0.500000
O O6 0.642866 0.554276 0.550372
O O7 0.738662 0.637253 0.303233
O O8 0.826534 0.653067 0.000000
O O9 0.730090 0.648024 0.796879
O O10 0.342140 0.000000 0.476027
#
# Coordination Sequence:
#
# PCOD8322974 Si02
#       4
#    12  12  12  12
#     4   9  17  30  47  61  74  97 134 177 210 246
#     4  10  19  30  45  63  83 110 138 165 213 283
#     4   9  17  30  47  65  83 109 144 175 208 249
#     4  10  19  30  45  67  92 114 140 179 222 256
#
# _framework density 15.729316000000001
#
# number of rings (size 3 to 8) (size 9 to 14) (size 15 to 20)
#    0.000    2.500    0.000    3.000    0.000    6.500 
#    0.000    0.000    0.000   19.000    0.000    0.000 
#    0.000    0.000    0.000    0.000    0.000    0.000 
#
# Total GULP energy -595039.661343 kJ/mol
# GULP energy per Si atom -12396.659611 kJ/mol
# Density = 1.569352 g / cm^3
# Si number density = 15.729316 Si / 1000 Ang^3
#
#
#
# Elastic Constant Matrix: (Units=GPa)
#
#
# Indices 1 2 3 4 5 6 
#
# 1 49.9599 29.8907 7.7599 0.0002 0.1643 0.0000
# 2 29.8907 49.9599 7.7599 -0.0002 -0.1643 0.0000
# 3 7.7599 7.7599 79.0473 0.0000 0.0000 0.0000
# 4 0.0002 -0.0002 0.0000 16.6393 0.0000 -0.1643
# 5 0.1643 -0.1643 0.0000 0.0000 16.6393 0.0002
# 6 0.0000 0.0000 0.0000 -0.1643 0.0002 10.0346
#
#
#
# Elastic Compliance Matrix: (Units=1/GPa)
#
#
# Indices 1 2 3 4 5 6 
#
# 1 0.031301 -0.018534 -0.001253 -0.000001 -0.000492 0.000000
# 2 -0.018534 0.031301 -0.001253 0.000001 0.000492 0.000000
# 3 -0.001253 -0.001253 0.012897 0.000000 0.000000 0.000000
# 4 -0.000001 0.000001 0.000000 0.060109 0.000000 0.000984
# 5 -0.000492 0.000492 0.000000 0.000000 0.060109 -0.000001
# 6 0.000000 0.000000 0.000000 0.000984 -0.000001 0.099671
#
#
# Mechanical properties :
#
#
# Convention : Reuss Voigt Hill
#
# Bulk Modulus (GPa) = 29.92447 29.97644 29.95045
# Shear Modulus (GPa) = 14.34274 17.56641 15.95457
#
# Velocity S-wave (km/s) = 3.02296 3.34547 3.18830
# Velocity P-wave (km/s) = 5.59020 5.83284 5.71281
#
# Compressibility (1/GPa) = 0.03341747
#
# Stress axis : x y z
#
# Youngs Moduli (GPa) = 31.94759 31.94759 77.53907
#
# Poissons Ratio (x) = 0.59213 0.09718
# Poissons Ratio (y) = 0.59213 0.09718
# Poissons Ratio (z) = 0.04004 0.04004
#
# Static dielectric constant tensor:
#      x y z
#    x 2.765630 0.000000 0.000000 
#    y 0.000000 2.765630 0.000000 
#    z 0.000000 0.000000 3.171210 
# 
# 
# High freq. dielectric constant tensor:
#      x y z
#    x 1.566850 0.000000 0.000000 
#    y 0.000000 1.566850 0.000000 
#    z 0.000000 0.000000 1.628900 
# 
# From -- ./inp_files/498.got.cif
#   From: 2010.03.12/outbox.cif.g09.slc.cpg/sg162_1_cif.got.tgz:498.got - 2010.04.02 06:27:41.
