data_PCOD8322148
_publ_section_title
;
Structure prediction by ZEFSAII (Michael W. Deem and Ramdas Pophale) SiO2 
 PCOD8322148
Probable space group: P 31 2 1
;
_chemical_formula_sum "Si O2"
_cell_formula_units_Z 45
_cell_length_a 16.563444
_cell_length_b 16.563444
_cell_length_c 10.810175
_cell_angle_alpha 90.000000
_cell_angle_beta 90.000000
_cell_angle_gamma 120.000000
_cell_volume 2568.411724
_symmetry_space_group_name_H-M "P 31 2 1"
_symmetry_group_IT_number 152
_symmetry_cell_setting 'hexagonal'
loop_
_space_group_symop_operation_xyz
x,y,z
-y,x-y,1/3+z
-x+y,-x,2/3+z
x-y,-y,2/3-z
-x,-x+y,1/3-z
y,x,-z
loop_
_atom_site_type_symbol
_atom_site_label
_atom_site_fract_x
_atom_site_fract_y
_atom_site_fract_z
Si Si1 0.397895 0.617224 0.355080
Si Si2 0.611170 0.611170 0.000000
Si Si3 0.345020 0.900887 0.872998
Si Si4 0.531454 0.071053 0.550279
Si Si5 0.180985 0.764146 0.007299
Si Si6 0.804073 0.221208 0.713594
Si Si7 0.687857 0.269083 0.536296
Si Si8 0.343154 0.360301 0.639620
O O1 0.478967 0.617431 0.433839
O O2 0.330669 0.512244 0.311418
O O3 0.448137 0.685116 0.239383
O O4 0.339630 0.651241 0.435354
O O5 0.557150 0.549642 0.120078
O O6 0.714907 0.623442 0.992448
O O7 0.360005 0.000000 0.833334
O O8 0.396802 0.904520 0.997456
O O9 0.235042 0.836415 0.897623
O O10 0.604025 0.170039 0.487813
O O11 0.584785 0.017722 0.594754
O O12 0.231152 0.807344 0.138476
O O13 0.073614 0.740557 0.999884
O O14 0.735611 0.255208 0.658279
O O15 0.758079 0.110851 0.681460
O O16 0.386562 0.386562 0.500000
#
# Coordination Sequence:
#
# PCOD8322148 Si02
#       8
#     6   3   6   6   6   6   6   6
#     4  12  20  33  53  77 110 149 188 223 269 324
#     4  12  22  32  58  78 112 146 176 234 288 324
#     4  12  24  35  51  80 111 143 193 236 270 321
#     4  11  21  37  51  78 116 143 187 223 271 326
#     4  11  20  37  55  75 106 144 191 227 273 327
#     4  10  22  37  54  80 109 140 182 233 282 326
#     4  11  21  34  51  79 111 148 182 224 267 328
#     4   9  20  37  59  76 104 148 184 229 273 328
#
# _framework density 17.520554000000001
#
# number of rings (size 3 to 8) (size 9 to 14) (size 15 to 20)
#    0.000    1.067    4.000    5.200    3.733    1.067 
#    0.000    0.000    0.000    0.000    0.000    2.800 
#    0.000    0.000    0.000    0.000    0.000    0.000 
#
# Total GULP energy -557900.876257 kJ/mol
# GULP energy per Si atom -12397.797250 kJ/mol
# Density = 1.748068 g / cm^3
# Si number density = 17.520554 Si / 1000 Ang^3
#
#
#
# Elastic Constant Matrix: (Units=GPa)
#
#
# Indices 1 2 3 4 5 6 
#
# 1 393.5507 -235.5149 36.7071 43.5288 -0.0049 0.0000
# 2 -235.5149 393.5507 36.7071 -43.5288 0.0049 0.0000
# 3 36.7071 36.7071 62.3272 0.0000 0.0000 0.0000
# 4 43.5288 -43.5288 0.0000 33.6655 0.0000 0.0049
# 5 -0.0049 0.0049 0.0000 0.0000 33.6655 43.5288
# 6 0.0000 0.0000 0.0000 0.0049 43.5288 314.5328
#
#
#
# Elastic Compliance Matrix: (Units=1/GPa)
#
#
# Indices 1 2 3 4 5 6 
#
# 1 0.005323 0.003387 -0.005130 -0.002503 0.000000 0.000000
# 2 0.003387 0.005323 -0.005130 0.002503 0.000000 0.000000
# 3 -0.005130 -0.005130 0.022087 0.000000 0.000000 0.000000
# 4 -0.002503 0.002503 0.000000 0.036178 0.000000 -0.000001
# 5 0.000000 0.000000 0.000000 0.000000 0.036178 -0.005007
# 6 0.000000 0.000000 0.000000 -0.000001 -0.005007 0.003872
#
#
# Mechanical properties :
#
#
# Convention : Reuss Voigt Hill
#
# Bulk Modulus (GPa) = 52.66460 58.35858 55.51159
# Shear Modulus (GPa) = 38.74868 143.80805 91.27837
#
# Velocity S-wave (km/s) = 4.70788 9.06961 7.22572
# Velocity P-wave (km/s) = 7.72504 11.96069 10.06812
#
# Compressibility (1/GPa) = 0.01898809
#
# Stress axis : x y z
#
# Youngs Moduli (GPa) = 187.84709 187.84709 45.27531
#
# Poissons Ratio (x) = -0.63631 0.23227
# Poissons Ratio (y) = -0.63631 0.23227
# Poissons Ratio (z) = 0.96369 0.96369
#
# Static dielectric constant tensor:
#      x y z
#    x 2.154250 0.000000 0.000000 
#    y 0.000000 2.154250 0.000000 
#    z 0.000000 0.000000 3.522280 
# 
# 
# High freq. dielectric constant tensor:
#      x y z
#    x 1.659880 0.000000 0.000000 
#    y 0.000000 1.659880 0.000000 
#    z 0.000000 0.000000 1.677460 
# 
# From -- ./inp_files/1875.got.cif
#   From: 2010.03.12/outbox.cif.g09.slc.cpg/sg152_1_cif.got.tgz:1875.got - 2010.04.03 13:45:27.
