data_PCOD8322725
_publ_section_title
;
Structure prediction by ZEFSAII (Michael W. Deem and Ramdas Pophale) SiO2 
 PCOD8322725
Probable space group: P 3 1 M
;
_chemical_formula_sum "Si O2"
_cell_formula_units_Z 32
_cell_length_a 14.701559
_cell_length_b 14.701559
_cell_length_c 8.465059
_cell_angle_alpha 90.000000
_cell_angle_beta 90.000000
_cell_angle_gamma 120.000000
_cell_volume 1584.482341
_symmetry_space_group_name_H-M "P 3 1 M"
_symmetry_group_IT_number 157
_symmetry_cell_setting 'hexagonal'
loop_
_space_group_symop_operation_xyz
x,y,z
-y,x-y,z
-x+y,-x,z
y,x,z
x-y,-y,z
-x,-x+y,z
loop_
_atom_site_type_symbol
_atom_site_label
_atom_site_fract_x
_atom_site_fract_y
_atom_site_fract_z
Si Si1 0.597588 0.116952 0.791160
Si Si2 0.000000 0.000000 0.787367
Si Si3 0.000000 0.204798 0.659898
Si Si4 0.743772 0.573767 0.162911
Si Si5 0.000000 0.000000 0.160358
Si Si6 0.170004 0.426233 0.784813
Si Si7 0.116952 0.597588 0.156564
Si Si8 0.204798 0.000000 0.287826
O O1 0.502613 0.128906 0.719023
O O2 0.711486 0.191843 0.717422
O O3 0.574640 0.000000 0.762889
O O4 0.602966 0.146002 0.973862
O O5 0.103961 0.000000 0.730339
O O6 0.000000 0.000000 0.973862
O O7 0.896689 0.207269 0.714232
O O8 0.000000 0.195585 0.473862
O O9 0.626293 0.497387 0.228701
O O10 0.808157 0.519643 0.230302
O O11 0.792731 0.689420 0.233492
O O12 0.748025 0.585131 0.973862
O O13 0.896039 0.896039 0.217385
O O14 0.000000 0.574640 0.184835
#
# Coordination Sequence:
#
# PCOD8322725 Si02
#       8
#     6   1   3   6   1   6   6   3
#     4   9  17  30  54  90 120 148 199 256 294 342
#     4  12  28  50  73  90 109 158 217 264 310 368
#     4  12  26  44  63  92 129 162 201 260 320 382
#     4  10  19  36  62  91 123 163 208 255 306 362
#     4  12  28  50  73  90 109 158 217 264 310 368
#     4  10  19  36  62  91 123 163 208 255 306 362
#     4   9  17  30  54  90 120 148 199 256 294 342
#     4  12  26  44  63  92 129 162 201 260 320 382
#
# _framework density 20.195868999999998
#
# number of rings (size 3 to 8) (size 9 to 14) (size 15 to 20)
#    0.000    1.875    1.875    3.000    2.625    3.000 
#    0.000    1.875    0.000    0.000    0.000    0.000 
#    0.000    0.000    0.000    0.000    0.000    0.000 
#
# Total GULP energy -396677.797757 kJ/mol
# GULP energy per Si atom -12396.181180 kJ/mol
# Density = 2.014990 g / cm^3
# Si number density = 20.195869 Si / 1000 Ang^3
#
#
#
# Elastic Constant Matrix: (Units=GPa)
#
#
# Indices 1 2 3 4 5 6 
#
# 1 159.2779 88.7562 39.5902 0.0000 0.0000 0.0000
# 2 88.7562 159.2779 39.5902 0.0000 0.0000 0.0000
# 3 39.5902 39.5902 72.7445 0.0000 0.0000 0.0000
# 4 0.0000 0.0000 0.0000 3.5463 0.0000 0.0000
# 5 0.0000 0.0000 0.0000 0.0000 3.5463 0.0000
# 6 0.0000 0.0000 0.0000 0.0000 0.0000 35.2608
#
#
#
# Elastic Compliance Matrix: (Units=1/GPa)
#
#
# Indices 1 2 3 4 5 6 
#
# 1 0.009530 -0.004650 -0.002656 0.000000 0.000000 0.000000
# 2 -0.004650 0.009530 -0.002656 0.000000 0.000000 0.000000
# 3 -0.002656 -0.002656 0.016637 0.000000 0.000000 0.000000
# 4 0.000000 0.000000 0.000000 0.281987 0.000000 0.000000
# 5 0.000000 0.000000 0.000000 0.000000 0.281987 0.000000
# 6 0.000000 0.000000 0.000000 0.000000 0.000000 0.028360
#
#
# Mechanical properties :
#
#
# Convention : Reuss Voigt Hill
#
# Bulk Modulus (GPa) = 63.39601 80.79706 72.09653
# Shear Modulus (GPa) = 7.65449 23.36158 15.50804
#
# Velocity S-wave (km/s) = 1.94894 3.40479 2.77407
# Velocity P-wave (km/s) = 6.04344 7.45321 6.78504
#
# Compressibility (1/GPa) = 0.01577386
#
# Stress axis : x y z
#
# Youngs Moduli (GPa) = 104.93462 104.93462 60.10604
#
# Poissons Ratio (x) = 0.48798 0.15962
# Poissons Ratio (y) = 0.48798 0.15962
# Poissons Ratio (z) = 0.27866 0.27866
#
# Static dielectric constant tensor:
#      x y z
#    x 3.898070 0.000000 0.000000 
#    y 0.000000 3.898070 0.000000 
#    z 0.000000 0.000000 3.214590 
# 
# 
# High freq. dielectric constant tensor:
#      x y z
#    x 1.806700 0.000000 0.000000 
#    y 0.000000 1.806700 0.000000 
#    z 0.000000 0.000000 1.735520 
# 
# From -- ./inp_files/390.got.cif
#   From: 2010.03.12/outbox.cif.g09.slc.cpg/sg157_cif.got.tgz:390.got - 2010.04.03 13:59:21.
