data_PCOD8322860
_publ_section_title
;
Structure prediction by ZEFSAII (Michael W. Deem and Ramdas Pophale) SiO2 
 PCOD8322860
Probable space group: R 3 M
;
_chemical_formula_sum "Si O2"
_cell_formula_units_Z 144
_cell_length_a 20.948099
_cell_length_b 20.948099
_cell_length_c 22.054095
_cell_angle_alpha 90.000000
_cell_angle_beta 90.000000
_cell_angle_gamma 120.000000
_cell_volume 8381.256038
_symmetry_space_group_name_H-M "R 3 M"
_symmetry_group_IT_number 160
_symmetry_cell_setting 'hexagonal'
loop_
_space_group_symop_operation_xyz
x,y,z
-y,x-y,z
-x+y,-x,z
-x+y,y,z
x,x-y,z
-y,-x,z
2/3+x,1/3+y,1/3+z
2/3-y,1/3+x-y,1/3+z
2/3-x+y,1/3-x,1/3+z
2/3-x+y,1/3+y,1/3+z
2/3+x,1/3+x-y,1/3+z
2/3-y,1/3-x,1/3+z
1/3+x,2/3+y,2/3+z
1/3-y,2/3+x-y,2/3+z
1/3-x+y,2/3-x,2/3+z
1/3-x+y,2/3+y,2/3+z
1/3+x,2/3+x-y,2/3+z
1/3-y,2/3-x,2/3+z
loop_
_atom_site_type_symbol
_atom_site_label
_atom_site_fract_x
_atom_site_fract_y
_atom_site_fract_z
Si Si1 0.644287 0.660732 0.681017
Si Si2 0.146337 0.147418 0.629187
Si Si3 0.863375 0.581714 0.074953
Si Si4 0.130341 0.404476 0.518913
Si Si5 0.857606 0.001032 0.089218
Si Si6 0.025593 0.439028 0.787175
Si Si7 0.953214 0.603263 0.903007
Si Si8 0.473914 0.164568 0.292287
O O1 0.677934 0.744585 0.705888
O O2 0.627649 0.606200 0.738899
O O3 0.702485 0.663319 0.631295
O O4 0.566908 0.628707 0.647376
O O5 0.074537 0.149073 0.606171
O O6 0.166875 0.178696 0.697189
O O7 0.211549 0.194544 0.581997
O O8 0.128471 0.064236 0.629944
O O9 0.796859 0.593717 0.097356
O O10 0.903128 0.568323 0.131168
O O11 0.194187 0.388373 0.495849
O O12 0.167561 0.469177 0.569103
O O13 0.064663 0.330673 0.548135
O O14 0.873190 0.936595 0.110637
O O15 0.777976 0.983425 0.114000
O O16 0.862177 0.007368 0.016025
O O17 0.921234 0.078767 0.116235
O O18 0.014960 0.507480 0.770669
O O19 0.999783 0.412682 0.854740
O O20 0.464834 0.232417 0.269645
#
# Coordination Sequence:
#
# PCOD8322860 Si02
#       8
#    18  18  18  18  18  18  18  18
#     4   9  18  32  50  73 100 129 171 209 259 304
#     4  10  20  35  54  75  99 131 171 215 260 308
#     4  10  20  33  50  74 103 133 170 207 252 304
#     4  11  20  32  49  72 104 136 171 207 249 304
#     4   9  17  29  46  69  98 134 173 211 251 296
#     4  10  19  34  52  74 106 139 171 215 269 320
#     4  10  20  34  52  77 101 134 172 215 264 315
#     4   9  18  31  47  70  99 134 171 207 248 291
#
# _framework density 17.181196
#
# number of rings (size 3 to 8) (size 9 to 14) (size 15 to 20)
#    0.000    2.250    1.250    3.250    0.000    5.000 
#    0.000    1.250    0.000    3.500    0.000    0.000 
#    0.000    0.000    0.000    3.375    0.000    0.000 
#
# Total GULP energy -594928.365479 kJ/mol
# GULP energy per Si atom -12394.340947 kJ/mol
# Density = 1.714209 g / cm^3
# Si number density = 17.181196 Si / 1000 Ang^3
#
#
#
# Elastic Constant Matrix: (Units=GPa)
#
#
# Indices 1 2 3 4 5 6 
#
# 1 69.4527 24.8116 27.6389 0.5629 0.0001 0.0000
# 2 24.8116 69.4527 27.6389 -0.5629 -0.0001 0.0000
# 3 27.6389 27.6389 79.4158 0.0000 0.0000 0.0000
# 4 0.5629 -0.5629 0.0000 23.0008 0.0000 -0.0001
# 5 0.0001 -0.0001 0.0000 0.0000 23.0008 0.5629
# 6 0.0000 0.0000 0.0000 -0.0001 0.5629 22.3206
#
#
#
# Elastic Compliance Matrix: (Units=1/GPa)
#
#
# Indices 1 2 3 4 5 6 
#
# 1 0.017872 -0.004543 -0.004639 -0.000549 0.000000 0.000000
# 2 -0.004543 0.017872 -0.004639 0.000549 0.000000 0.000000
# 3 -0.004639 -0.004639 0.015821 0.000000 0.000000 0.000000
# 4 -0.000549 0.000549 0.000000 0.043504 0.000000 0.000000
# 5 0.000000 0.000000 0.000000 0.000000 0.043504 -0.001097
# 6 0.000000 0.000000 0.000000 0.000000 -0.001097 0.044829
#
#
# Mechanical properties :
#
#
# Convention : Reuss Voigt Hill
#
# Bulk Modulus (GPa) = 41.80054 42.05558 41.92806
# Shear Modulus (GPa) = 22.82937 22.87990 22.85463
#
# Velocity S-wave (km/s) = 3.64915 3.65318 3.65116
# Velocity P-wave (km/s) = 6.49131 6.50578 6.49855
#
# Compressibility (1/GPa) = 0.02392314
#
# Stress axis : x y z
#
# Youngs Moduli (GPa) = 55.95439 55.95439 63.20804
#
# Poissons Ratio (x) = 0.25420 0.29321
# Poissons Ratio (y) = 0.25420 0.29321
# Poissons Ratio (z) = 0.25956 0.25956
#
# Static dielectric constant tensor:
#      x y z
#    x 3.108960 0.000000 0.000000 
#    y 0.000000 3.108960 0.000000 
#    z 0.000000 0.000000 3.300780 
# 
# 
# High freq. dielectric constant tensor:
#      x y z
#    x 1.653360 0.000000 0.000000 
#    y 0.000000 1.653360 0.000000 
#    z 0.000000 0.000000 1.656710 
# 
# From -- ./inp_files/3418.got.cif
#   From: 2010.03.12/outbox.cif.g09.slc.cpg/sg160_2_cif.got.tgz:3418.got - 2010.04.02 06:26:15.
