data_PCOD8322288
_publ_section_title
;
Structure prediction by ZEFSAII (Michael W. Deem and Ramdas Pophale) SiO2 
 PCOD8322288
Probable space group: P 32 1 2
;
_chemical_formula_sum "Si O2"
_cell_formula_units_Z 36
_cell_length_a 8.789217
_cell_length_b 8.789217
_cell_length_c 26.135450
_cell_angle_alpha 90.000000
_cell_angle_beta 90.000000
_cell_angle_gamma 120.000000
_cell_volume 1748.481284
_symmetry_space_group_name_H-M "P 32 1 2"
_symmetry_group_IT_number 153
_symmetry_cell_setting 'hexagonal'
loop_
_space_group_symop_operation_xyz
x,y,z
-y,x-y,2/3+z
-x+y,-x,1/3+z
-y,-x,1/3-z
-x+y,y,2/3-z
x,x-y,-z
loop_
_atom_site_type_symbol
_atom_site_label
_atom_site_fract_x
_atom_site_fract_y
_atom_site_fract_z
Si Si1 0.942872 0.389485 0.779248
Si Si2 0.556337 0.934465 0.215621
Si Si3 0.398960 0.997588 0.759013
Si Si4 0.746437 0.389124 0.058504
Si Si5 0.271708 0.643740 0.722553
Si Si6 0.278736 0.003956 0.871472
O O1 0.758941 0.369929 0.763352
O O2 0.909619 0.190419 0.789709
O O3 0.005226 0.512233 0.829571
O O4 0.079129 0.476033 0.732179
O O5 0.389821 0.749498 0.231103
O O6 0.728346 0.907595 0.212514
O O7 0.589176 0.066007 0.262097
O O8 0.425842 0.178032 0.734941
O O9 0.333678 0.984248 0.815503
O O10 0.588164 0.007888 0.755174
O O11 0.262269 0.823780 0.727580
O O12 0.694232 0.347116 0.000000
O O13 0.353075 0.646926 0.666667
#
# Coordination Sequence:
#
# PCOD8322288 Si02
#       6
#     6   6   6   6   6   6
#     4  11  21  38  63  89 114 161 212 249 303 382
#     4  11  21  38  60  88 120 159 202 254 308 370
#     4   9  17  34  57  81 113 153 202 247 287 356
#     4  11  22  37  59  88 122 155 198 255 319 368
#     4  11  22  37  59  88 122 158 203 255 312 367
#     4   9  18  34  58  85 112 150 202 251 289 358
#
# _framework density 20.589296000000001
#
# number of rings (size 3 to 8) (size 9 to 14) (size 15 to 20)
#    0.000    1.667    3.333    2.500    0.000    0.000 
#    0.000    5.000    0.000    2.000    0.000    0.000 
#    0.000    0.000    0.000    0.000    0.000    0.000 
#
# Total GULP energy -446031.947373 kJ/mol
# GULP energy per Si atom -12389.776316 kJ/mol
# Density = 2.054243 g / cm^3
# Si number density = 20.589296 Si / 1000 Ang^3
#
#
#
# Elastic Constant Matrix: (Units=GPa)
#
#
# Indices 1 2 3 4 5 6 
#
# 1 114.3248 43.9660 28.3328 0.0000 9.0222 0.0000
# 2 43.9660 114.3248 28.3328 0.0000 -9.0222 0.0000
# 3 28.3328 28.3328 94.7160 0.0000 0.0000 0.0000
# 4 0.0000 0.0000 0.0000 29.2279 0.0000 -9.0222
# 5 9.0222 -9.0222 0.0000 0.0000 29.2279 0.0000
# 6 0.0000 0.0000 0.0000 -9.0222 0.0000 35.1794
#
#
#
# Elastic Compliance Matrix: (Units=1/GPa)
#
#
# Indices 1 2 3 4 5 6 
#
# 1 0.011255 -0.004180 -0.002116 0.000000 -0.004764 0.000000
# 2 -0.004180 0.011255 -0.002116 0.000000 0.004764 0.000000
# 3 -0.002116 -0.002116 0.011824 0.000000 0.000000 0.000000
# 4 0.000000 0.000000 0.000000 0.037155 0.000000 0.009529
# 5 -0.004764 0.004764 0.000000 0.000000 0.037155 0.000000
# 6 0.000000 0.000000 0.000000 0.009529 0.000000 0.030870
#
#
# Mechanical properties :
#
#
# Convention : Reuss Voigt Hill
#
# Bulk Modulus (GPa) = 57.11459 58.29211 57.70335
# Shear Modulus (GPa) = 30.83077 33.57598 32.20338
#
# Velocity S-wave (km/s) = 3.87385 4.04263 3.95914
# Velocity P-wave (km/s) = 6.91441 7.08264 6.99903
#
# Compressibility (1/GPa) = 0.01750866
#
# Stress axis : x y z
#
# Youngs Moduli (GPa) = 88.84983 88.84983 84.57327
#
# Poissons Ratio (x) = 0.37138 0.17899
# Poissons Ratio (y) = 0.37138 0.17899
# Poissons Ratio (z) = 0.18804 0.18804
#
# Static dielectric constant tensor:
#      x y z
#    x 3.974110 0.000000 0.000000 
#    y 0.000000 3.974110 0.000000 
#    z 0.000000 0.000000 3.547780 
# 
# 
# High freq. dielectric constant tensor:
#      x y z
#    x 1.793040 0.000000 0.000000 
#    y 0.000000 1.793040 0.000000 
#    z 0.000000 0.000000 1.801930 
# 
# From -- ./inp_files/4703.got.cif
#   From: 2010.03.12/outbox.cif.g09.slc.cpg/sg153_3_cif.got.tgz:4703.got - 2010.04.03 13:48:33.
