data_PCOD8322098
_publ_section_title
;
Structure prediction by ZEFSAII (Michael W. Deem and Ramdas Pophale) SiO2 
 PCOD8322098
Probable space group: P 31 2 1
;
_chemical_formula_sum "Si O2"
_cell_formula_units_Z 24
_cell_length_a 7.579714
_cell_length_b 7.579714
_cell_length_c 27.760612
_cell_angle_alpha 90.000000
_cell_angle_beta 90.000000
_cell_angle_gamma 120.000000
_cell_volume 1381.227784
_symmetry_space_group_name_H-M "P 31 2 1"
_symmetry_group_IT_number 152
_symmetry_cell_setting 'hexagonal'
loop_
_space_group_symop_operation_xyz
x,y,z
-y,x-y,1/3+z
-x+y,-x,2/3+z
x-y,-y,2/3-z
-x,-x+y,1/3-z
y,x,-z
loop_
_atom_site_type_symbol
_atom_site_label
_atom_site_fract_x
_atom_site_fract_y
_atom_site_fract_z
Si Si1 0.315581 0.940170 0.948692
Si Si2 0.322226 0.344199 0.556513
Si Si3 0.712915 0.311128 0.955509
Si Si4 0.915857 0.142690 0.612760
O O1 0.466020 0.179907 0.960912
O O2 0.416856 0.877958 0.904817
O O3 0.096551 0.904692 0.934044
O O4 0.300952 0.805129 0.993991
O O5 0.318463 0.318463 0.500000
O O6 0.418625 0.217940 0.582098
O O7 0.093487 0.260474 0.574589
O O8 0.782191 0.536885 0.938708
O O9 0.000000 0.185317 0.666667
#
# Coordination Sequence:
#
# PCOD8322098 Si02
#       4
#     6   6   6   6
#     4  10  20  38  64  87 119 156 200 246 288 364
#     4  10  24  44  56  89 130 149 199 262 293 350
#     4  10  20  39  61  91 116 159 203 240 297 358
#     4  12  20  39  66  90 115 162 205 242 297 366
#
# _framework density 17.375845999999999
#
# number of rings (size 3 to 8) (size 9 to 14) (size 15 to 20)
#    1.500    0.000    7.500    0.000    0.000    2.000 
#    9.000    0.000    0.000    0.000    0.000    0.000 
#    0.000    0.000    0.000    0.000    0.000    0.000 
#
# Total GULP energy -297410.847095 kJ/mol
# GULP energy per Si atom -12392.118629 kJ/mol
# Density = 1.733630 g / cm^3
# Si number density = 17.375846 Si / 1000 Ang^3
#
#
#
# Elastic Constant Matrix: (Units=GPa)
#
#
# Indices 1 2 3 4 5 6 
#
# 1 66.8447 -11.9326 30.7936 -7.1399 -0.0006 0.0000
# 2 -11.9326 66.8447 30.7936 7.1399 0.0006 0.0000
# 3 30.7936 30.7936 -3.3105 0.0000 0.0000 0.0000
# 4 -7.1399 7.1399 0.0000 24.1827 0.0000 0.0006
# 5 -0.0006 0.0006 0.0000 0.0000 24.1827 -7.1399
# 6 0.0000 0.0000 0.0000 0.0006 -7.1399 39.3887
#
#
#
# Elastic Compliance Matrix: (Units=1/GPa)
#
#
# Indices 1 2 3 4 5 6 
#
# 1 0.007502 -0.005909 0.014817 0.003960 0.000000 0.000000
# 2 -0.005909 0.007502 0.014817 -0.003960 0.000000 0.000000
# 3 0.014817 0.014817 -0.026422 0.000000 0.000000 0.000000
# 4 0.003960 -0.003960 0.000000 0.043690 0.000000 -0.000001
# 5 0.000000 0.000000 0.000000 0.000000 0.043690 0.007920
# 6 0.000000 0.000000 0.000000 -0.000001 0.007920 0.026824
#
#
# Mechanical properties :
#
#
# Convention : Reuss Voigt Hill
#
# Bulk Modulus (GPa) = 27.75354 25.52088 26.63721
# Shear Modulus (GPa) = 74.24080 22.93243 48.58662
#
# Velocity S-wave (km/s) = 6.54364 3.63683 5.29366
# Velocity P-wave (km/s) = 8.54982 5.68813 7.26134
#
# Compressibility (1/GPa) = 0.03603144
#
# Stress axis : x y z
#
# Youngs Moduli (GPa) = 133.29173 133.29173 -37.84728
#
# Poissons Ratio (x) = 0.78768 0.56078
# Poissons Ratio (y) = 0.78768 0.56078
# Poissons Ratio (z) = -1.97497 -1.97497
#
# Static dielectric constant tensor:
#      x y z
#    x 3.056400 0.000000 0.000000 
#    y 0.000000 3.056400 0.000000 
#    z 0.000000 0.000000 3.006640 
# 
# 
# High freq. dielectric constant tensor:
#      x y z
#    x 1.671580 0.000000 0.000000 
#    y 0.000000 1.671580 0.000000 
#    z 0.000000 0.000000 1.654450 
# 
# From -- ./inp_files/2905.got.cif
#   From: 2010.03.12/outbox.cif.g09.slc.cpg/sg152_2_cif.got.tgz:2905.got - 2010.04.03 13:45:27.
