data_PCOD8322965
_publ_section_title
;
Structure prediction by ZEFSAII (Michael W. Deem and Ramdas Pophale) SiO2 
 PCOD8322965
Probable space group: P -3 1 M 
;
_chemical_formula_sum "Si O2"
_cell_formula_units_Z 40
_cell_length_a 12.981551
_cell_length_b 12.981551
_cell_length_c 17.565953
_cell_angle_alpha 90.000000
_cell_angle_beta 90.000000
_cell_angle_gamma 120.000000
_cell_volume 2563.631008
_symmetry_space_group_name_H-M "P -3 1 M "
_symmetry_group_IT_number 162
_symmetry_cell_setting 'hexagonal'
loop_
_space_group_symop_operation_xyz
x,y,z
-y,x-y,z
-x+y,-x,z
-y,-x,-z
-x+y,y,-z
x,x-y,-z
-x,-y,-z
y,-x+y,-z
x-y,x,-z
y,x,z
x-y,-y,z
-x,-x+y,z
loop_
_atom_site_type_symbol
_atom_site_label
_atom_site_fract_x
_atom_site_fract_y
_atom_site_fract_z
Si Si1 0.553504 0.865803 0.217177
Si Si2 0.465135 0.137851 0.956853
Si Si3 0.666668 0.333334 0.410243
Si Si4 0.655877 0.135916 0.691082
O O1 0.516234 0.823056 0.130925
O O2 0.437706 0.858453 0.253360
O O3 0.589469 0.780081 0.262502
O O4 0.664875 0.000000 0.221919
O O5 0.376520 0.000000 0.965734
O O6 0.588747 0.177493 0.000000
O O7 0.403186 0.201593 0.000000
O O8 0.666668 0.333334 0.500000
O O9 0.783616 0.329231 0.382610
O O10 0.613360 0.000000 0.666460
#
# Coordination Sequence:
#
# PCOD8322965 Si02
#       4
#    12  12   4  12
#     4   9  17  28  42  62  85 110 146 184 213 251
#     4  10  19  28  40  60  85 113 144 181 224 264
#     4   9  18  30  45  72 100 113 133 168 201 249
#     4   9  17  30  47  64  86 117 143 169 211 253
#
# _framework density 15.602869
#
# number of rings (size 3 to 8) (size 9 to 14) (size 15 to 20)
#    0.000    2.700    0.000    2.700    0.000    4.200 
#    0.000    0.000    0.000    0.900    0.000    0.000 
#    0.000    1.200    0.000    0.000    0.000    0.000 
#
# Total GULP energy -495867.468853 kJ/mol
# GULP energy per Si atom -12396.686721 kJ/mol
# Density = 1.556736 g / cm^3
# Si number density = 15.602869 Si / 1000 Ang^3
#
#
#
# Elastic Constant Matrix: (Units=GPa)
#
#
# Indices 1 2 3 4 5 6 
#
# 1 73.7500 41.0794 46.1561 -0.0001 1.5209 -0.0001
# 2 41.0794 73.7494 46.1556 -0.0001 -1.5212 -0.0002
# 3 46.1561 46.1556 130.3466 -0.0004 -0.0003 -0.0002
# 4 -0.0001 -0.0001 -0.0004 14.8354 -0.0001 -1.5210
# 5 1.5209 -1.5212 -0.0003 -0.0001 14.8355 0.0000
# 6 -0.0001 -0.0002 -0.0002 -1.5210 0.0000 16.3352
#
#
#
# Elastic Compliance Matrix: (Units=1/GPa)
#
#
# Indices 1 2 3 4 5 6 
#
# 1 0.021539 -0.009365 -0.004311 0.000000 -0.003168 0.000000
# 2 -0.009365 0.021539 -0.004311 0.000000 0.003169 0.000000
# 3 -0.004311 -0.004311 0.010725 0.000000 0.000000 0.000000
# 4 0.000000 0.000000 0.000000 0.068056 0.000000 0.006337
# 5 -0.003168 0.003169 0.000000 0.000000 0.068055 0.000000
# 6 0.000000 0.000000 0.000000 0.006337 0.000000 0.061808
#
#
# Mechanical properties :
#
#
# Convention : Reuss Voigt Hill
#
# Bulk Modulus (GPa) = 56.08655 60.51426 58.30040
# Shear Modulus (GPa) = 17.02776 18.83156 17.92966
#
# Velocity S-wave (km/s) = 3.30710 3.47786 3.39355
# Velocity P-wave (km/s) = 7.11385 7.41590 7.26645
#
# Compressibility (1/GPa) = 0.01782959
#
# Stress axis : x y z
#
# Youngs Moduli (GPa) = 46.42755 46.42733 93.24163
#
# Poissons Ratio (x) = 0.43479 0.40196
# Poissons Ratio (y) = 0.43479 0.40195
# Poissons Ratio (z) = 0.20015 0.20014
#
# Static dielectric constant tensor:
#      x y z
#    x 3.054510 0.000000 0.000000 
#    y 0.000000 3.054520 0.000000 
#    z 0.000000 0.000000 2.912560 
# 
# 
# High freq. dielectric constant tensor:
#      x y z
#    x 1.584580 0.000000 0.000000 
#    y 0.000000 1.584580 0.000000 
#    z 0.000000 0.000000 1.595550 
# 
# From -- ./inp_files/2778.got.cif
#   From: 2010.03.12/outbox.cif.g09.slc.cpg/sg162_2_cif.got.tgz:2778.got - 2010.04.02 06:27:41.
