data_PCOD8322796
_publ_section_title
;
Structure prediction by ZEFSAII (Michael W. Deem and Ramdas Pophale) SiO2 
 PCOD8322796
Probable space group: P 3 1 C
;
_chemical_formula_sum "Si O2"
_cell_formula_units_Z 40
_cell_length_a 18.992227
_cell_length_b 18.992227
_cell_length_c 8.643443
_cell_angle_alpha 90.000000
_cell_angle_beta 90.000000
_cell_angle_gamma 120.000000
_cell_volume 2700.033726
_symmetry_space_group_name_H-M "P 3 1 C"
_symmetry_group_IT_number 159
_symmetry_cell_setting 'hexagonal'
loop_
_space_group_symop_operation_xyz
x,y,z
-y,x-y,z
-x+y,-x,z
y,x,1/2+z
x-y,-y,1/2+z
-x,-x+y,1/2+z
loop_
_atom_site_type_symbol
_atom_site_label
_atom_site_fract_x
_atom_site_fract_y
_atom_site_fract_z
Si Si1 0.638740 0.085165 0.783650
Si Si2 0.333334 0.666668 0.649337
Si Si3 0.515931 0.599453 0.148983
Si Si4 0.244841 0.752190 0.148198
Si Si5 0.333334 0.666668 0.283916
Si Si6 0.638740 0.085165 0.149604
Si Si7 0.244841 0.752189 0.785056
Si Si8 0.484070 0.083523 0.284270
O O1 0.567759 0.102336 0.728652
O O2 0.725779 0.156555 0.720418
O O3 0.624222 1.000000 0.716627
O O4 0.639810 0.082284 0.966627
O O5 0.333334 0.666667 0.466627
O O6 0.269641 0.690894 0.711159
O O7 0.535936 0.690498 0.189310
O O8 0.589820 0.589819 0.216626
O O9 0.507060 0.582683 0.966626
O O10 0.269642 0.690896 0.222095
O O11 0.236731 0.737543 0.966627
O O12 0.725779 0.156556 0.212836
O O13 0.567759 0.102337 0.204602
O O14 0.309502 0.845437 0.743942
#
# Coordination Sequence:
#
# PCOD8322796 Si02
#       8
#     6   2   6   6   2   6   6   6
#     4  11  21  32  47  64  87 114 148 187 225 270
#     4  12  22  29  43  66  85 113 154 192 226 266
#     4  10  20  32  47  63  87 115 145 184 226 268
#     4  11  21  33  47  63  88 118 148 188 230 265
#     4  12  22  29  43  66  85 113 154 192 226 266
#     4  11  21  32  47  64  87 114 148 187 225 270
#     4  11  21  33  47  63  88 118 148 188 230 265
#     4  10  20  32  47  63  87 115 145 184 226 268
#
# _framework density 14.814629
#
# number of rings (size 3 to 8) (size 9 to 14) (size 15 to 20)
#    0.000    1.200    3.000    7.200    0.000    3.600 
#    0.000    0.000    0.000    0.000    0.000    0.000 
#    0.000    0.000    0.000    0.900    0.000   14.400 
#
# Total GULP energy -496036.274514 kJ/mol
# GULP energy per Si atom -12400.906863 kJ/mol
# Density = 1.478091 g / cm^3
# Si number density = 14.814629 Si / 1000 Ang^3
#
#
#
# Elastic Constant Matrix: (Units=GPa)
#
#
# Indices 1 2 3 4 5 6 
#
# 1 76.1581 28.5332 32.2283 0.0000 -0.0002 0.0003
# 2 28.5332 76.1585 32.2285 0.0000 0.0003 0.0001
# 3 32.2283 32.2285 109.1596 0.0001 0.0000 0.0002
# 4 0.0000 0.0000 0.0001 20.0851 0.0004 0.0003
# 5 -0.0002 0.0003 0.0000 0.0004 20.0846 0.0000
# 6 0.0003 0.0001 0.0002 0.0003 0.0000 23.8125
#
#
#
# Elastic Compliance Matrix: (Units=1/GPa)
#
#
# Indices 1 2 3 4 5 6 
#
# 1 0.016336 -0.004662 -0.003447 0.000000 0.000000 0.000000
# 2 -0.004662 0.016336 -0.003447 0.000000 0.000000 0.000000
# 3 -0.003447 -0.003447 0.011196 0.000000 0.000000 0.000000
# 4 0.000000 0.000000 0.000000 0.049788 -0.000001 -0.000001
# 5 0.000000 0.000000 0.000000 -0.000001 0.049789 0.000000
# 6 0.000000 0.000000 0.000000 -0.000001 0.000000 0.041995
#
#
# Mechanical properties :
#
#
# Convention : Reuss Voigt Hill
#
# Bulk Modulus (GPa) = 48.17559 49.71734 48.94647
# Shear Modulus (GPa) = 23.20525 24.02886 23.61706
#
# Velocity S-wave (km/s) = 3.96204 4.03174 3.99704
# Velocity P-wave (km/s) = 7.31573 7.43678 7.37650
#
# Compressibility (1/GPa) = 0.02075740
#
# Stress axis : x y z
#
# Youngs Moduli (GPa) = 61.21577 61.21611 89.31715
#
# Poissons Ratio (x) = 0.28537 0.30784
# Poissons Ratio (y) = 0.28537 0.30784
# Poissons Ratio (z) = 0.21099 0.21099
#
# Static dielectric constant tensor:
#      x y z
#    x 2.913800 0.000000 0.000000 
#    y 0.000000 2.913800 0.000000 
#    z 0.000000 0.000000 3.026340 
# 
# 
# High freq. dielectric constant tensor:
#      x y z
#    x 1.541170 0.000000 0.000000 
#    y 0.000000 1.541170 0.000000 
#    z 0.000000 0.000000 1.592220 
# 
# From -- ./inp_files/475.got.cif
#   From: 2010.03.12/outbox.cif.g09.slc.cpg/sg159_cif.got.tgz:475.got - 2010.04.03 14:00:19.
