data_PCOD8322185
_publ_section_title
;
Structure prediction by ZEFSAII (Michael W. Deem and Ramdas Pophale) SiO2 
 PCOD8322185
Probable space group: P 31 2 1
;
_chemical_formula_sum "Si O2"
_cell_formula_units_Z 24
_cell_length_a 14.782922
_cell_length_b 14.782922
_cell_length_c 5.192112
_cell_angle_alpha 90.000000
_cell_angle_beta 90.000000
_cell_angle_gamma 120.000000
_cell_volume 982.641846
_symmetry_space_group_name_H-M "P 31 2 1"
_symmetry_group_IT_number 152
_symmetry_cell_setting 'hexagonal'
loop_
_space_group_symop_operation_xyz
x,y,z
-y,x-y,1/3+z
-x+y,-x,2/3+z
x-y,-y,2/3-z
-x,-x+y,1/3-z
y,x,-z
loop_
_atom_site_type_symbol
_atom_site_label
_atom_site_fract_x
_atom_site_fract_y
_atom_site_fract_z
Si Si1 0.934142 0.814392 0.420109
Si Si2 0.068773 0.540096 0.423506
Si Si3 0.730083 0.447125 0.768554
Si Si4 0.116901 0.382955 0.247271
O O1 0.878129 0.878129 0.500000
O O2 0.853737 0.693601 0.336094
O O3 0.000000 0.812422 0.666667
O O4 0.000000 0.868437 0.166667
O O5 0.168317 0.656390 0.377860
O O6 0.115666 0.460760 0.467384
O O7 0.000000 0.536052 0.666667
O O8 0.000000 0.507501 0.166667
O O9 0.753280 0.382895 0.551879
O O10 0.728142 0.546351 0.658993
O O11 0.000000 0.304454 0.166667
#
# Coordination Sequence:
#
# PCOD8322185 Si02
#       4
#     6   6   6   6
#     4  11  24  44  72 105 142 184 235 294 360 435
#     4  11  25  46  72 105 146 191 242 300 367 437
#     4  12  24  45  73 107 145 192 251 304 368 437
#     4  10  24  47  70 102 143 192 236 297 366 437
#
# _framework density 24.423953000000001
#
# number of rings (size 3 to 8) (size 9 to 14) (size 15 to 20)
#    0.000    1.000    2.500    4.500    0.000    9.000 
#    0.000    6.250    0.000    1.500    0.000    0.000 
#    0.000    0.000    0.000    0.000    0.000    0.000 
#
# Total GULP energy -297483.249121 kJ/mol
# GULP energy per Si atom -12395.135380 kJ/mol
# Density = 2.436836 g / cm^3
# Si number density = 24.423953 Si / 1000 Ang^3
#
#
#
# Elastic Constant Matrix: (Units=GPa)
#
#
# Indices 1 2 3 4 5 6 
#
# 1 106.5871 39.8743 29.9435 -6.6859 0.0000 0.0000
# 2 39.8743 106.5871 29.9435 6.6859 0.0000 0.0000
# 3 29.9435 29.9435 108.1001 0.0000 0.0000 0.0000
# 4 -6.6859 6.6859 0.0000 34.3905 0.0000 0.0000
# 5 0.0000 0.0000 0.0000 0.0000 34.3905 -6.6859
# 6 0.0000 0.0000 0.0000 0.0000 -6.6859 33.3564
#
#
#
# Elastic Compliance Matrix: (Units=1/GPa)
#
#
# Indices 1 2 3 4 5 6 
#
# 1 0.011649 -0.003949 -0.002133 0.003032 0.000000 0.000000
# 2 -0.003949 0.011649 -0.002133 -0.003032 0.000000 0.000000
# 3 -0.002133 -0.002133 0.010432 0.000000 0.000000 0.000000
# 4 0.003032 -0.003032 0.000000 0.030257 0.000000 0.000000
# 5 0.000000 0.000000 0.000000 0.000000 0.030257 0.006065
# 6 0.000000 0.000000 0.000000 0.000000 0.006065 0.031195
#
#
# Mechanical properties :
#
#
# Convention : Reuss Voigt Hill
#
# Bulk Modulus (GPa) = 57.80149 57.86632 57.83390
# Shear Modulus (GPa) = 33.86760 35.19502 34.53131
#
# Velocity S-wave (km/s) = 3.72782 3.80017 3.76417
# Velocity P-wave (km/s) = 6.49970 6.55736 6.52860
#
# Compressibility (1/GPa) = 0.01730059
#
# Stress axis : x y z
#
# Youngs Moduli (GPa) = 85.84706 85.84706 95.85649
#
# Poissons Ratio (x) = 0.33899 0.20445
# Poissons Ratio (y) = 0.33899 0.20445
# Poissons Ratio (z) = 0.18310 0.18310
#
# Static dielectric constant tensor:
#      x y z
#    x 4.896150 0.000000 0.000000 
#    y 0.000000 4.896150 0.000000 
#    z 0.000000 0.000000 3.962380 
# 
# 
# High freq. dielectric constant tensor:
#      x y z
#    x 1.983530 0.000000 0.000000 
#    y 0.000000 1.983530 0.000000 
#    z 0.000000 0.000000 1.951600 
# 
# From -- ./inp_files/181.got.cif
#   From: 2010.03.12/outbox.cif.g09.slc.cpg/sg152_1_cif.got.tgz:181.got - 2010.04.03 13:45:27.
