data_PCOD8322355
_publ_section_title
;
Structure prediction by ZEFSAII (Michael W. Deem and Ramdas Pophale) SiO2 
 PCOD8322355
Probable space group: P 32 2 1
;
_chemical_formula_sum "Si O2"
_cell_formula_units_Z 33
_cell_length_a 11.301533
_cell_length_b 11.301533
_cell_length_c 14.598829
_cell_angle_alpha 90.000000
_cell_angle_beta 90.000000
_cell_angle_gamma 120.000000
_cell_volume 1614.817206
_symmetry_space_group_name_H-M "P 32 2 1"
_symmetry_group_IT_number 154
_symmetry_cell_setting 'hexagonal'
loop_
_space_group_symop_operation_xyz
x,y,z
-y,x-y,2/3+z
-x+y,-x,1/3+z
x-y,-y,1/3-z
-x,-x+y,2/3-z
y,x,-z
loop_
_atom_site_type_symbol
_atom_site_label
_atom_site_fract_x
_atom_site_fract_y
_atom_site_fract_z
Si Si1 0.828806 0.754946 0.098022
Si Si2 0.000000 0.813026 0.833334
Si Si3 0.993331 0.400828 0.554735
Si Si4 0.562016 0.831176 0.269159
Si Si5 0.292683 0.372600 0.794475
Si Si6 0.887514 0.323579 0.757529
O O1 0.708202 0.614085 0.141740
O O2 0.971436 0.756540 0.105269
O O3 0.838722 0.874126 0.161470
O O4 0.785201 0.785201 0.000000
O O5 0.970678 0.707226 0.749546
O O6 0.997027 0.541303 0.534657
O O7 0.937154 0.331618 0.653672
O O8 0.151241 0.444463 0.546915
O O9 0.559194 0.810168 0.378368
O O10 0.432778 0.837804 0.230651
O O11 0.230724 0.397764 0.887651
O O12 0.000000 0.350243 0.833334
#
# Coordination Sequence:
#
# PCOD8322355 Si02
#       6
#     6   3   6   6   6   6
#     4  11  24  44  67  93 134 169 220 275 330 396
#     4  10  20  38  66  98 118 168 216 270 316 382
#     4  10  25  42  64  98 129 172 224 264 337 398
#     4  10  20  40  66  91 126 167 223 262 321 401
#     4  11  24  42  65  96 133 173 218 272 341 395
#     4  11  22  40  66  94 129 172 216 276 326 394
#
# _framework density 20.435751
#
# number of rings (size 3 to 8) (size 9 to 14) (size 15 to 20)
#    0.000    1.455    4.545    0.000    3.818    0.727 
#    3.273    0.000    0.000    0.000    0.000    0.000 
#    0.000    0.000    0.000    0.000    0.000    0.000 
#
# Total GULP energy -408911.113891 kJ/mol
# GULP energy per Si atom -12391.245875 kJ/mol
# Density = 2.038924 g / cm^3
# Si number density = 20.435751 Si / 1000 Ang^3
#
#
#
# Elastic Constant Matrix: (Units=GPa)
#
#
# Indices 1 2 3 4 5 6 
#
# 1 107.7971 53.1927 30.2708 1.5593 0.0000 0.0000
# 2 53.1927 107.7971 30.2708 -1.5593 0.0000 0.0000
# 3 30.2708 30.2708 62.0054 0.0000 0.0000 0.0000
# 4 1.5593 -1.5593 0.0000 28.7983 0.0000 0.0000
# 5 0.0000 0.0000 0.0000 0.0000 28.7983 1.5593
# 6 0.0000 0.0000 0.0000 0.0000 1.5593 27.3022
#
#
#
# Elastic Compliance Matrix: (Units=1/GPa)
#
#
# Indices 1 2 3 4 5 6 
#
# 1 0.012989 -0.005381 -0.003714 -0.000995 0.000000 0.000000
# 2 -0.005381 0.012989 -0.003714 0.000995 0.000000 0.000000
# 3 -0.003714 -0.003714 0.019754 0.000000 0.000000 0.000000
# 4 -0.000995 0.000995 0.000000 0.034832 0.000000 0.000000
# 5 0.000000 0.000000 0.000000 0.000000 0.034832 -0.001989
# 6 0.000000 0.000000 0.000000 0.000000 -0.001989 0.036741
#
#
# Mechanical properties :
#
#
# Convention : Reuss Voigt Hill
#
# Bulk Modulus (GPa) = 49.71766 56.11867 52.91817
# Shear Modulus (GPa) = 27.10591 27.90414 27.50503
#
# Velocity S-wave (km/s) = 3.64592 3.69922 3.67267
# Velocity P-wave (km/s) = 6.48886 6.76508 6.62841
#
# Compressibility (1/GPa) = 0.02011358
#
# Stress axis : x y z
#
# Youngs Moduli (GPa) = 76.98606 76.98606 50.62178
#
# Poissons Ratio (x) = 0.41426 0.18803
# Poissons Ratio (y) = 0.41426 0.18803
# Poissons Ratio (z) = 0.28596 0.28596
#
# Static dielectric constant tensor:
#      x y z
#    x 3.726820 0.000000 0.000000 
#    y 0.000000 3.726820 0.000000 
#    z 0.000000 0.000000 3.733060 
# 
# 
# High freq. dielectric constant tensor:
#      x y z
#    x 1.799060 0.000000 0.000000 
#    y 0.000000 1.799060 0.000000 
#    z 0.000000 0.000000 1.795290 
# 
# From -- ./inp_files/1986.got.cif
#   From: 2010.03.12/outbox.cif.g09.slc.cpg/sg154_1_cif.got.tgz:1986.got - 2010.04.03 13:51:21.
