data_PCOD8322037
_publ_section_title
;
Structure prediction by ZEFSAII (Michael W. Deem and Ramdas Pophale) SiO2 
 PCOD8322037
Probable space group: P 31 2 1
;
_chemical_formula_sum "Si O2"
_cell_formula_units_Z 30
_cell_length_a 16.342033
_cell_length_b 16.342033
_cell_length_c 6.367298
_cell_angle_alpha 90.000000
_cell_angle_beta 90.000000
_cell_angle_gamma 120.000000
_cell_volume 1472.644684
_symmetry_space_group_name_H-M "P 31 2 1"
_symmetry_group_IT_number 152
_symmetry_cell_setting 'hexagonal'
loop_
_space_group_symop_operation_xyz
x,y,z
-y,x-y,1/3+z
-x+y,-x,2/3+z
x-y,-y,2/3-z
-x,-x+y,1/3-z
y,x,-z
loop_
_atom_site_type_symbol
_atom_site_label
_atom_site_fract_x
_atom_site_fract_y
_atom_site_fract_z
Si Si1 0.496515 0.113728 0.155392
Si Si2 0.245744 0.904363 0.220231
Si Si3 0.335211 0.000000 0.833334
Si Si4 0.097176 0.702919 0.288810
Si Si5 0.603222 0.355494 0.525935
Si Si6 0.582464 0.000000 0.333334
O O1 0.449059 0.125623 0.368773
O O2 0.560876 0.067328 0.190997
O O3 0.559605 0.210955 0.031081
O O4 0.411177 0.043493 0.013115
O O5 0.143768 0.816394 0.277269
O O6 0.262055 0.000000 0.333334
O O7 0.246081 0.920678 0.966381
O O8 0.168594 0.672077 0.191408
O O9 0.071514 0.672939 0.530342
O O10 0.000000 0.653859 0.166667
O O11 0.610420 0.270934 0.639947
#
# Coordination Sequence:
#
# PCOD8322037 Si02
#       6
#     6   6   3   6   6   3
#     4  11  21  37  59  91 125 180 217 275 328 405
#     4  10  23  40  66  92 124 171 233 278 338 414
#     4  10  18  38  66  88 126 164 234 272 336 390
#     4  12  27  43  64  97 135 178 223 289 349 411
#     4  12  27  40  62  92 137 185 237 279 339 418
#     4  12  24  40  62  90 134 168 216 276 348 400
#
# _framework density 20.371513
#
# number of rings (size 3 to 8) (size 9 to 14) (size 15 to 20)
#    0.000    0.800    5.000    3.600    8.400    3.200 
#    0.000    0.000    0.000    0.000    5.200    0.000 
#    0.000    0.000    0.000    0.000    0.000    0.000 
#
# Total GULP energy -371832.379480 kJ/mol
# GULP energy per Si atom -12394.412649 kJ/mol
# Density = 2.032515 g / cm^3
# Si number density = 20.371513 Si / 1000 Ang^3
#
#
#
# Elastic Constant Matrix: (Units=GPa)
#
#
# Indices 1 2 3 4 5 6 
#
# 1 118.5857 46.6409 47.0988 2.6036 0.0000 0.0000
# 2 46.6409 118.5857 47.0988 -2.6036 0.0000 0.0000
# 3 47.0988 47.0988 126.6357 0.0000 0.0000 0.0000
# 4 2.6036 -2.6036 0.0000 34.2852 0.0000 0.0000
# 5 0.0000 0.0000 0.0000 0.0000 34.2852 2.6036
# 6 0.0000 0.0000 0.0000 0.0000 2.6036 35.9724
#
#
#
# Elastic Compliance Matrix: (Units=1/GPa)
#
#
# Indices 1 2 3 4 5 6 
#
# 1 0.010829 -0.003148 -0.002857 -0.001061 0.000000 0.000000
# 2 -0.003148 0.010829 -0.002857 0.001061 0.000000 0.000000
# 3 -0.002857 -0.002857 0.010022 0.000000 0.000000 0.000000
# 4 -0.001061 0.001061 0.000000 0.029328 0.000000 0.000000
# 5 0.000000 0.000000 0.000000 0.000000 0.029328 -0.002123
# 6 0.000000 0.000000 0.000000 0.000000 -0.002123 0.027953
#
#
# Mechanical properties :
#
#
# Convention : Reuss Voigt Hill
#
# Bulk Modulus (GPa) = 71.65055 71.72045 71.68550
# Shear Modulus (GPa) = 35.54601 35.77314 35.65957
#
# Velocity S-wave (km/s) = 4.18172 4.19506 4.18839
# Velocity P-wave (km/s) = 7.65271 7.66468 7.65870
#
# Compressibility (1/GPa) = 0.01395663
#
# Stress axis : x y z
#
# Youngs Moduli (GPa) = 92.34762 92.34762 99.78419
#
# Poissons Ratio (x) = 0.29068 0.28506
# Poissons Ratio (y) = 0.29068 0.28506
# Poissons Ratio (z) = 0.26381 0.26381
#
# Static dielectric constant tensor:
#      x y z
#    x 3.687900 0.000000 0.000000 
#    y 0.000000 3.687900 0.000000 
#    z 0.000000 0.000000 4.354490 
# 
# 
# High freq. dielectric constant tensor:
#      x y z
#    x 1.773690 0.000000 0.000000 
#    y 0.000000 1.773690 0.000000 
#    z 0.000000 0.000000 1.816590 
# 
# From -- ./inp_files/367.got.cif
#   From: 2010.03.12/outbox.cif.g09.slc.cpg/sg152_1_cif.got.tgz:367.got - 2010.04.03 13:45:27.
