data_PCOD8322608
_publ_section_title
;
Structure prediction by ZEFSAII (Michael W. Deem and Ramdas Pophale) SiO2 
 PCOD8322608
Probable space group: R 3 2
;
_chemical_formula_sum "Si O2"
_cell_formula_units_Z 60
_cell_length_a 17.724900
_cell_length_b 17.724900
_cell_length_c 10.858941
_cell_angle_alpha 90.000000
_cell_angle_beta 90.000000
_cell_angle_gamma 120.000000
_cell_volume 2954.511553
_symmetry_space_group_name_H-M "R 3 2"
_symmetry_group_IT_number 155
_symmetry_cell_setting 'hexagonal'
loop_
_space_group_symop_operation_xyz
x,y,z
-y,x-y,z
-x+y,-x,z
x-y,-y,-z
-x,-x+y,-z
y,x,-z
2/3+x,1/3+y,1/3+z
2/3-y,1/3+x-y,1/3+z
2/3-x+y,1/3-x,1/3+z
2/3+x-y,1/3-y,1/3-z
2/3-x,1/3-x+y,1/3-z
2/3+y,1/3+x,1/3-z
1/3+x,2/3+y,2/3+z
1/3-y,2/3+x-y,2/3+z
1/3-x+y,2/3-x,2/3+z
1/3+x-y,2/3-y,2/3-z
1/3-x,2/3-x+y,2/3-z
1/3+y,2/3+x,2/3-z
loop_
_atom_site_type_symbol
_atom_site_label
_atom_site_fract_x
_atom_site_fract_y
_atom_site_fract_z
Si Si1 0.433433 0.194302 0.852102
Si Si2 0.860421 0.010054 0.699955
Si Si3 0.629520 0.909422 0.543676
Si Si4 0.333333 0.666667 0.519552
O O1 0.438759 0.105426 0.833334
O O2 0.471087 0.242889 0.724523
O O3 0.335098 0.176215 0.881693
O O4 0.496870 0.252777 0.962663
O O5 0.779040 0.004607 0.771525
O O6 0.932701 0.027941 0.802166
O O7 0.584393 0.917727 0.666667
O O8 0.713377 0.000000 0.500000
O O9 0.333334 0.666668 0.666667
#
# Coordination Sequence:
#
# PCOD8322608 Si02
#       4
#    18  18  18   6
#     4  11  21  36  63  94 128 161 213 274 329 390
#     4  11  22  36  61  92 122 163 215 272 327 382
#     4  12  21  38  63  96 132 167 218 276 329 394
#     4  12  24  40  56  85 129 165 211 272 331 393
#
# _framework density 20.307924
#
# number of rings (size 3 to 8) (size 9 to 14) (size 15 to 20)
#    0.000    0.600    9.000    1.800    0.000    0.000 
#    0.000    0.000    0.000   12.600    0.000    0.000 
#    0.000    0.000    0.000    0.000    0.000    0.000 
#
# Total GULP energy -247859.717600 kJ/mol
# GULP energy per Si atom -12392.985880 kJ/mol
# Density = 2.026170 g / cm^3
# Si number density = 20.307924 Si / 1000 Ang^3
#
#
#
# Elastic Constant Matrix: (Units=GPa)
#
#
# Indices 1 2 3 4 5 6 
#
# 1 86.7861 31.6340 41.0893 10.1117 0.0000 0.0000
# 2 31.6340 86.7858 41.0893 -10.1118 0.0000 0.0000
# 3 41.0893 41.0893 146.8556 -0.0001 0.0001 0.0000
# 4 10.1117 -10.1118 -0.0001 27.5272 0.0000 0.0000
# 5 0.0000 0.0000 0.0001 0.0000 27.5273 10.1117
# 6 0.0000 0.0000 0.0000 0.0000 10.1117 27.5759
#
#
#
# Elastic Compliance Matrix: (Units=1/GPa)
#
#
# Indices 1 2 3 4 5 6 
#
# 1 0.015717 -0.005237 -0.002932 -0.007697 0.000000 0.000000
# 2 -0.005237 0.015717 -0.002932 0.007697 0.000000 0.000000
# 3 -0.002932 -0.002932 0.008450 0.000000 0.000000 0.000000
# 4 -0.007697 0.007697 0.000000 0.041983 0.000000 0.000000
# 5 0.000000 0.000000 0.000000 0.000000 0.041982 -0.015394
# 6 0.000000 0.000000 0.000000 0.000000 -0.015394 0.041908
#
#
# Mechanical properties :
#
#
# Convention : Reuss Voigt Hill
#
# Bulk Modulus (GPa) = 56.55948 60.89473 58.72710
# Shear Modulus (GPa) = 25.79265 30.30040 28.04653
#
# Velocity S-wave (km/s) = 3.56768 3.86689 3.72030
# Velocity P-wave (km/s) = 6.69944 7.07022 6.88733
#
# Compressibility (1/GPa) = 0.01768050
#
# Stress axis : x y z
#
# Youngs Moduli (GPa) = 63.62665 63.62637 118.34123
#
# Poissons Ratio (x) = 0.33324 0.34698
# Poissons Ratio (y) = 0.33324 0.34698
# Poissons Ratio (z) = 0.18656 0.18655
#
# Static dielectric constant tensor:
#      x y z
#    x 3.526430 0.000000 0.000000 
#    y 0.000000 3.526450 0.000000 
#    z 0.000000 0.000000 3.853560 
# 
# 
# High freq. dielectric constant tensor:
#      x y z
#    x 1.771800 0.000000 0.000000 
#    y 0.000000 1.771800 0.000000 
#    z 0.000000 0.000000 1.809670 
# 
# From -- ./inp_files/3563.got.cif
#   From: 2010.03.12/outbox.cif.g09.slc.cpg/sg155_2_cif.got.tgz:3563.got - 2010.04.03 13:54:13.
