data_PCOD8322990
_publ_section_title
;
Structure prediction by ZEFSAII (Michael W. Deem and Ramdas Pophale) SiO2 
 PCOD8322990
Probable space group: P -3 1 M 
;
_chemical_formula_sum "Si O2"
_cell_formula_units_Z 96
_cell_length_a 23.919509
_cell_length_b 23.919509
_cell_length_c 11.945216
_cell_angle_alpha 90.000000
_cell_angle_beta 90.000000
_cell_angle_gamma 120.000000
_cell_volume 5918.738604
_symmetry_space_group_name_H-M "P -3 1 M "
_symmetry_group_IT_number 162
_symmetry_cell_setting 'hexagonal'
loop_
_space_group_symop_operation_xyz
x,y,z
-y,x-y,z
-x+y,-x,z
-y,-x,-z
-x+y,y,-z
x,x-y,-z
-x,-y,-z
y,-x+y,-z
x-y,x,-z
y,x,z
x-y,-y,z
-x,-x+y,z
loop_
_atom_site_type_symbol
_atom_site_label
_atom_site_fract_x
_atom_site_fract_y
_atom_site_fract_z
Si Si1 0.683908 0.194436 0.005319
Si Si2 0.515832 0.149458 0.764279
Si Si3 0.880339 0.637975 0.006549
Si Si4 0.288323 0.925972 0.237897
Si Si5 0.291068 0.363681 0.237813
Si Si6 0.180494 0.818840 0.375013
Si Si7 0.148791 0.511450 0.238294
Si Si8 0.485714 0.743135 0.374908
O O1 0.731975 0.168189 0.034729
O O2 0.645762 0.164148 0.892683
O O3 0.727599 0.272401 0.000000
O O4 0.635373 0.174162 0.109146
O O5 0.440254 0.097541 0.754472
O O6 0.561502 0.119512 0.729970
O O7 0.535722 0.211357 0.686696
O O8 0.920045 0.648161 0.893456
O O9 0.836003 0.672006 0.000000
O O10 0.928339 0.662424 0.112344
O O11 0.221839 0.885256 0.306424
O O12 0.339456 0.902340 0.266356
O O13 0.320336 0.000000 0.274945
O O14 0.327775 0.327775 0.283914
O O15 0.228187 0.341632 0.313952
O O16 0.165950 0.834051 0.500000
O O17 0.221924 0.784085 0.379694
O O18 0.215425 0.538087 0.306610
O O19 0.456274 0.728137 0.500000
#
# Coordination Sequence:
#
# PCOD8322990 Si02
#       8
#    12  12  12  12  12  12  12  12
#     4   9  15  28  47  63  82 113 153 192 236 295
#     4  10  19  31  47  66  91 120 152 198 254 301
#     4   9  15  28  49  70  94 123 154 188 228 278
#     4  10  19  31  50  74  97 125 160 195 235 288
#     4  10  19  31  50  74  97 125 160 195 235 288
#     4   9  18  33  51  69  91 122 158 194 231 275
#     4  10  19  31  47  66  91 120 152 198 254 301
#     4   9  18  33  49  61  79 114 157 196 239 294
#
# _framework density 16.219671999999999
#
# number of rings (size 3 to 8) (size 9 to 14) (size 15 to 20)
#    0.000    2.500    2.500    0.750    0.000    1.500 
#    0.750    0.000    0.000    4.500    0.000    7.000 
#    0.000    0.000    0.000    0.375    0.000    3.250 
#
# Total GULP energy -1189734.593935 kJ/mol
# GULP energy per Si atom -12393.068687 kJ/mol
# Density = 1.618276 g / cm^3
# Si number density = 16.219672 Si / 1000 Ang^3
#
#
#
# Elastic Constant Matrix: (Units=GPa)
#
#
# Indices 1 2 3 4 5 6 
#
# 1 75.1119 51.0980 27.5968 0.0000 -0.2905 0.0000
# 2 51.0980 75.1119 27.5968 0.0000 0.2905 0.0000
# 3 27.5968 27.5968 106.5062 0.0000 0.0000 0.0000
# 4 0.0000 0.0000 0.0000 3.6258 0.0000 0.2905
# 5 -0.2905 0.2905 0.0000 0.0000 3.6258 0.0000
# 6 0.0000 0.0000 0.0000 0.2905 0.0000 12.0069
#
#
#
# Elastic Compliance Matrix: (Units=1/GPa)
#
#
# Indices 1 2 3 4 5 6 
#
# 1 0.025330 -0.016394 -0.002315 0.000000 0.003343 0.000000
# 2 -0.016394 0.025330 -0.002315 0.000000 -0.003343 0.000000
# 3 -0.002315 -0.002315 0.010589 0.000000 0.000000 0.000000
# 4 0.000000 0.000000 0.000000 0.276333 0.000000 -0.006686
# 5 0.003343 -0.003343 0.000000 0.000000 0.276333 0.000000
# 6 0.000000 0.000000 0.000000 -0.006686 0.000000 0.083447
#
#
# Mechanical properties :
#
#
# Convention : Reuss Voigt Hill
#
# Bulk Modulus (GPa) = 52.08542 52.14592 52.11567
# Shear Modulus (GPa) = 6.70412 13.88095 10.29253
#
# Velocity S-wave (km/s) = 2.03526 2.92860 2.52180
# Velocity P-wave (km/s) = 6.14046 6.60720 6.37810
#
# Compressibility (1/GPa) = 0.01919923
#
# Stress axis : x y z
#
# Youngs Moduli (GPa) = 39.47936 39.47936 94.43773
#
# Poissons Ratio (x) = 0.64722 0.21866
# Poissons Ratio (y) = 0.64722 0.21866
# Poissons Ratio (z) = 0.09141 0.09141
#
# Static dielectric constant tensor:
#      x y z
#    x 2.795160 0.000000 0.000000 
#    y 0.000000 2.795160 0.000000 
#    z 0.000000 0.000000 3.301630 
# 
# 
# High freq. dielectric constant tensor:
#      x y z
#    x 1.589820 0.000000 0.000000 
#    y 0.000000 1.589820 0.000000 
#    z 0.000000 0.000000 1.633930 
# 
# From -- ./inp_files/2669.got.cif
#   From: 2010.03.12/outbox.cif.g09.slc.cpg/sg162_2_cif.got.tgz:2669.got - 2010.04.02 06:27:41.
