data_PCOD8322714
_publ_section_title
;
Structure prediction by ZEFSAII (Michael W. Deem and Ramdas Pophale) SiO2 
 PCOD8322714
Probable space group: P 3 1 M
;
_chemical_formula_sum "Si O2"
_cell_formula_units_Z 42
_cell_length_a 16.377443
_cell_length_b 16.377443
_cell_length_c 11.846577
_cell_angle_alpha 90.000000
_cell_angle_beta 90.000000
_cell_angle_gamma 120.000000
_cell_volume 2751.792651
_symmetry_space_group_name_H-M "P 3 1 M"
_symmetry_group_IT_number 157
_symmetry_cell_setting 'hexagonal'
loop_
_space_group_symop_operation_xyz
x,y,z
-y,x-y,z
-x+y,-x,z
y,x,z
x-y,-y,z
-x,-x+y,z
loop_
_atom_site_type_symbol
_atom_site_label
_atom_site_fract_x
_atom_site_fract_y
_atom_site_fract_z
Si Si1 0.555451 0.110902 0.925120
Si Si2 0.711544 0.106614 0.057679
Si Si3 0.605208 0.893812 0.319078
Si Si4 0.606604 0.393396 0.692294
Si Si5 0.893812 0.288604 0.319079
Si Si6 0.106614 0.395070 0.057679
Si Si7 0.555249 0.110498 0.456274
O O1 0.571644 0.143288 0.796746
O O2 0.500000 0.000000 0.928493
O O3 0.654279 0.146634 0.988661
O O4 0.492356 0.146634 0.988662
O O5 0.687103 0.108119 0.188405
O O6 0.823053 0.176947 0.034684
O O7 0.683277 0.000000 0.020964
O O8 0.644496 0.822248 0.343492
O O9 0.509023 0.857836 0.388294
O O10 0.685233 0.000000 0.354444
O O11 0.559128 0.279564 0.696933
O O12 0.577731 0.422269 0.578343
O O13 0.891881 0.312897 0.188405
O O14 0.857836 0.348813 0.388294
O O15 0.000000 0.314767 0.354444
O O16 0.000000 0.316723 0.020964
O O17 0.500000 0.000000 0.472463
#
# Coordination Sequence:
#
# PCOD8322714 Si02
#       7
#     6   6   6   6   6   6   6
#     4  10  18  30  45  61  84 114 148 181 217 257
#     4   9  17  29  46  66  88 113 143 181 221 261
#     4   9  17  29  46  66  88 113 143 181 221 261
#     4  10  21  30  40  56  84 116 144 178 211 254
#     4   9  17  29  46  66  88 113 143 181 221 261
#     4   9  17  29  46  66  88 113 143 181 221 261
#     4  10  18  30  45  61  84 114 148 181 217 257
#
# _framework density 15.262778000000001
#
# number of rings (size 3 to 8) (size 9 to 14) (size 15 to 20)
#    0.286    2.286    0.000    3.000    0.000    3.429 
#    1.714    0.000    0.000    0.571    0.000    4.000 
#    0.000    0.000    0.000    0.000    0.000   59.429 
#
# Total GULP energy -520587.018315 kJ/mol
# GULP energy per Si atom -12394.929008 kJ/mol
# Density = 1.522804 g / cm^3
# Si number density = 15.262778 Si / 1000 Ang^3
#
#
#
# Elastic Constant Matrix: (Units=GPa)
#
#
# Indices 1 2 3 4 5 6 
#
# 1 63.9957 49.8409 29.8219 0.0000 0.0000 0.0000
# 2 49.8409 63.9957 29.8219 0.0000 0.0000 0.0000
# 3 29.8219 29.8219 66.7627 0.0000 0.0000 0.0000
# 4 0.0000 0.0000 0.0000 18.7582 0.0000 0.0000
# 5 0.0000 0.0000 0.0000 0.0000 18.7582 0.0000
# 6 0.0000 0.0000 0.0000 0.0000 0.0000 7.0774
#
#
#
# Elastic Compliance Matrix: (Units=1/GPa)
#
#
# Indices 1 2 3 4 5 6 
#
# 1 0.041058 -0.029590 -0.005123 0.000000 0.000000 0.000000
# 2 -0.029590 0.041058 -0.005123 0.000000 0.000000 0.000000
# 3 -0.005123 -0.005123 0.019555 0.000000 0.000000 0.000000
# 4 0.000000 0.000000 0.000000 0.053310 0.000000 0.000000
# 5 0.000000 0.000000 0.000000 0.000000 0.053310 0.000000
# 6 0.000000 0.000000 0.000000 0.000000 0.000000 0.141296
#
#
# Mechanical properties :
#
#
# Convention : Reuss Voigt Hill
#
# Bulk Modulus (GPa) = 45.45284 45.96927 45.71105
# Shear Modulus (GPa) = 11.45236 14.60338 13.02787
#
# Velocity S-wave (km/s) = 2.74222 3.09657 2.92476
# Velocity P-wave (km/s) = 6.31436 6.55507 6.43584
#
# Compressibility (1/GPa) = 0.02200082
#
# Stress axis : x y z
#
# Youngs Moduli (GPa) = 24.35566 24.35566 51.13774
#
# Poissons Ratio (x) = 0.72067 0.26197
# Poissons Ratio (y) = 0.72067 0.26197
# Poissons Ratio (z) = 0.12477 0.12477
#
# Static dielectric constant tensor:
#      x y z
#    x 3.003380 0.000000 0.000000 
#    y 0.000000 3.003380 0.000000 
#    z 0.000000 0.000000 2.906850 
# 
# 
# High freq. dielectric constant tensor:
#      x y z
#    x 1.576090 0.000000 0.000000 
#    y 0.000000 1.576090 0.000000 
#    z 0.000000 0.000000 1.582470 
# 
# From -- ./inp_files/576.got.cif
#   From: 2010.03.12/outbox.cif.g09.slc.cpg/sg157_cif.got.tgz:576.got - 2010.04.03 13:59:21.
