data_PCOD8322494
_publ_section_title
;
Structure prediction by ZEFSAII (Michael W. Deem and Ramdas Pophale) SiO2 
 PCOD8322494
Probable space group: R 3 2
;
_chemical_formula_sum "Si O2"
_cell_formula_units_Z 81
_cell_length_a 17.431603
_cell_length_b 17.431603
_cell_length_c 17.405363
_cell_angle_alpha 90.000000
_cell_angle_beta 90.000000
_cell_angle_gamma 120.000000
_cell_volume 4580.241419
_symmetry_space_group_name_H-M "R 3 2"
_symmetry_group_IT_number 155
_symmetry_cell_setting 'hexagonal'
loop_
_space_group_symop_operation_xyz
x,y,z
-y,x-y,z
-x+y,-x,z
x-y,-y,-z
-x,-x+y,-z
y,x,-z
2/3+x,1/3+y,1/3+z
2/3-y,1/3+x-y,1/3+z
2/3-x+y,1/3-x,1/3+z
2/3+x-y,1/3-y,1/3-z
2/3-x,1/3-x+y,1/3-z
2/3+y,1/3+x,1/3-z
1/3+x,2/3+y,2/3+z
1/3-y,2/3+x-y,2/3+z
1/3-x+y,2/3-x,2/3+z
1/3+x-y,2/3-y,2/3-z
1/3-x,2/3-x+y,2/3-z
1/3+y,2/3+x,2/3-z
loop_
_atom_site_type_symbol
_atom_site_label
_atom_site_fract_x
_atom_site_fract_y
_atom_site_fract_z
Si Si1 0.389699 0.521614 0.876399
Si Si2 0.591889 0.034360 0.279204
Si Si3 0.690943 0.777179 0.954265
Si Si4 0.527727 0.719919 0.853860
Si Si5 0.000000 0.591383 0.000000
O O1 0.407898 0.475890 0.805213
O O2 0.438921 0.626860 0.865671
O O3 0.285648 0.486478 0.883028
O O4 0.425323 0.494885 0.952002
O O5 0.666667 0.111802 0.333334
O O6 0.497412 0.001643 0.317358
O O7 0.611726 0.952766 0.274939
O O8 0.605019 0.719475 0.902915
O O9 0.775869 0.843036 0.902037
O O10 0.708582 0.708582 0.000000
#
# Coordination Sequence:
#
# PCOD8322494 Si02
#       5
#    18  18  18  18   9
#     4  12  22  38  58  89 113 154 189 239 291 342
#     4  10  19  35  61  82 114 146 193 237 278 343
#     4  11  21  38  55  83 117 150 181 238 294 347
#     4  11  23  36  57  83 120 146 187 238 295 338
#     4  10  22  36  58  80 116 152 202 228 264 348
#
# _framework density 17.684659
#
# number of rings (size 3 to 8) (size 9 to 14) (size 15 to 20)
#    0.667    0.444    6.667    1.111    4.667    0.000 
#    0.000    0.000    0.000    0.000    0.000    0.000 
#    0.000    0.000    0.000    0.000    0.000    0.000 
#
# Total GULP energy -334749.161073 kJ/mol
# GULP energy per Si atom -12398.117077 kJ/mol
# Density = 1.764441 g / cm^3
# Si number density = 17.684659 Si / 1000 Ang^3
#
#
#
# Elastic Constant Matrix: (Units=GPa)
#
#
# Indices 1 2 3 4 5 6 
#
# 1 67.6555 13.8775 27.2421 -3.5484 0.0000 0.0000
# 2 13.8775 67.6555 27.2421 3.5484 0.0000 0.0000
# 3 27.2421 27.2421 83.6047 0.0000 0.0000 0.0000
# 4 -3.5484 3.5484 0.0000 29.7454 0.0000 0.0000
# 5 0.0000 0.0000 0.0000 0.0000 29.7454 -3.5484
# 6 0.0000 0.0000 0.0000 0.0000 -3.5484 26.8890
#
#
#
# Elastic Compliance Matrix: (Units=1/GPa)
#
#
# Indices 1 2 3 4 5 6 
#
# 1 0.017286 -0.001607 -0.005109 0.002254 0.000000 0.000000
# 2 -0.001607 0.017286 -0.005109 -0.002254 0.000000 0.000000
# 3 -0.005109 -0.005109 0.015290 0.000000 0.000000 0.000000
# 4 0.002254 -0.002254 0.000000 0.034156 0.000000 0.000000
# 5 0.000000 0.000000 0.000000 0.000000 0.034156 0.004507
# 6 0.000000 0.000000 0.000000 0.000000 0.004507 0.037785
#
#
# Mechanical properties :
#
#
# Convention : Reuss Voigt Hill
#
# Bulk Modulus (GPa) = 38.14926 39.51543 38.83235
# Shear Modulus (GPa) = 26.54690 27.31289 26.92989
#
# Velocity S-wave (km/s) = 3.87864 3.93420 3.90652
# Velocity P-wave (km/s) = 6.45579 6.55974 6.50797
#
# Compressibility (1/GPa) = 0.02621283
#
# Stress axis : x y z
#
# Youngs Moduli (GPa) = 57.85136 57.85136 65.40028
#
# Poissons Ratio (x) = 0.09295 0.33412
# Poissons Ratio (y) = 0.09295 0.33412
# Poissons Ratio (z) = 0.29556 0.29556
#
# Static dielectric constant tensor:
#      x y z
#    x 3.146970 0.000000 0.000000 
#    y 0.000000 3.146970 0.000000 
#    z 0.000000 0.000000 3.231900 
# 
# 
# High freq. dielectric constant tensor:
#      x y z
#    x 1.674730 0.000000 0.000000 
#    y 0.000000 1.674730 0.000000 
#    z 0.000000 0.000000 1.681860 
# 
# From -- ./inp_files/6882.got.cif
#   From: 2010.03.12/outbox.cif.g09.slc.cpg/sg155_4_cif.got.tgz:6882.got - 2010.04.03 13:54:13.
