data_PCOD8322776
_publ_section_title
;
Structure prediction by ZEFSAII (Michael W. Deem and Ramdas Pophale) SiO2 
 PCOD8322776
Probable space group: P 3 C 1
;
_chemical_formula_sum "Si O2"
_cell_formula_units_Z 28
_cell_length_a 10.670515
_cell_length_b 10.670515
_cell_length_c 14.216489
_cell_angle_alpha 90.000000
_cell_angle_beta 90.000000
_cell_angle_gamma 120.000000
_cell_volume 1401.824824
_symmetry_space_group_name_H-M "P 3 C 1"
_symmetry_group_IT_number 158
_symmetry_cell_setting 'hexagonal'
loop_
_space_group_symop_operation_xyz
x,y,z
-y,x-y,z
-x+y,-x,z
-x+y,y,1/2+z
x,x-y,1/2+z
-y,-x,1/2+z
loop_
_atom_site_type_symbol
_atom_site_label
_atom_site_fract_x
_atom_site_fract_y
_atom_site_fract_z
Si Si1 0.666668 0.333333 0.414416
Si Si2 0.697892 0.974936 0.801533
Si Si3 0.497244 0.484543 0.655964
Si Si4 0.987299 0.484542 0.447103
Si Si5 0.666668 0.333334 0.688657
Si Si6 0.716452 0.015879 0.301533
O O1 0.819251 0.364546 0.453980
O O2 0.666668 0.333334 0.301536
O O3 0.593063 0.938208 0.711124
O O4 0.593062 0.938208 0.891942
O O5 0.827533 0.140384 0.801532
O O6 0.763400 0.868826 0.801535
O O7 0.472308 0.527691 0.551534
O O8 0.545299 0.364550 0.649091
O O9 0.621248 0.624788 0.709351
O O10 0.003534 0.624785 0.393716
#
# Coordination Sequence:
#
# PCOD8322776 Si02
#       6
#     2   6   6   6   2   6
#     4  12  16  35  67 100 113 139 190 260 307 340
#     4  11  23  40  60  88 123 159 198 242 296 359
#     4  11  21  38  65  91 116 149 197 253 301 347
#     4  11  21  38  65  91 116 149 197 253 301 347
#     4  12  16  35  67 100 113 139 190 260 307 340
#     4  11  23  40  60  88 123 159 198 242 296 359
#
# _framework density 19.973966000000001
#
# number of rings (size 3 to 8) (size 9 to 14) (size 15 to 20)
#    0.000    0.857    8.571    1.714    0.000    1.714 
#   10.286    0.000    0.000    5.143    0.000    0.000 
#    0.000    0.000    0.000    0.000    0.000    0.000 
#
# Total GULP energy -347156.631857 kJ/mol
# GULP energy per Si atom -12398.451138 kJ/mol
# Density = 1.992850 g / cm^3
# Si number density = 19.973966 Si / 1000 Ang^3
#
#
#
# Elastic Constant Matrix: (Units=GPa)
#
#
# Indices 1 2 3 4 5 6 
#
# 1 85.2182 18.4560 33.2643 -0.0006 0.0000 0.0000
# 2 18.4560 85.2180 33.2643 0.0006 0.0000 0.0000
# 3 33.2643 33.2643 182.6316 0.0000 0.0000 0.0000
# 4 -0.0006 0.0006 0.0000 14.1136 0.0000 0.0000
# 5 0.0000 0.0000 0.0000 0.0000 14.1137 -0.0002
# 6 0.0000 0.0000 0.0000 0.0000 -0.0002 33.3809
#
#
#
# Elastic Compliance Matrix: (Units=1/GPa)
#
#
# Indices 1 2 3 4 5 6 
#
# 1 0.012950 -0.002028 -0.001989 0.000001 0.000000 0.000000
# 2 -0.002028 0.012950 -0.001989 -0.000001 0.000000 0.000000
# 3 -0.001989 -0.001989 0.006200 0.000000 0.000000 0.000000
# 4 0.000001 -0.000001 0.000000 0.070853 0.000000 0.000000
# 5 0.000000 0.000000 0.000000 0.000000 0.070853 0.000001
# 6 0.000000 0.000000 0.000000 0.000000 0.000001 0.029957
#
#
# Mechanical properties :
#
#
# Convention : Reuss Voigt Hill
#
# Bulk Modulus (GPa) = 49.78307 58.11522 53.94915
# Shear Modulus (GPa) = 22.47448 30.19385 26.33417
#
# Velocity S-wave (km/s) = 3.35802 3.89223 3.63495
# Velocity P-wave (km/s) = 6.32560 7.02552 6.68472
#
# Compressibility (1/GPa) = 0.02008715
#
# Stress axis : x y z
#
# Youngs Moduli (GPa) = 77.21792 77.21771 161.28566
#
# Poissons Ratio (x) = 0.15661 0.32085
# Poissons Ratio (y) = 0.15661 0.32085
# Poissons Ratio (z) = 0.15361 0.15361
#
# Static dielectric constant tensor:
#      x y z
#    x 3.515840 0.000000 0.000000 
#    y 0.000000 3.515860 0.000020 
#    z 0.000000 0.000020 3.887950 
# 
# 
# High freq. dielectric constant tensor:
#      x y z
#    x 1.765510 0.000000 0.000000 
#    y 0.000000 1.765510 0.000000 
#    z 0.000000 0.000000 1.782420 
# 
# From -- ./inp_files/407.got.cif
#   From: 2010.03.12/outbox.cif.g09.slc.cpg/sg158_cif.got.tgz:407.got - 2010.04.03 13:59:47.
