data_PCOD8322460
_publ_section_title
;
Structure prediction by ZEFSAII (Michael W. Deem and Ramdas Pophale) SiO2 
 PCOD8322460
Probable space group: R 3 2
;
_chemical_formula_sum "Si O2"
_cell_formula_units_Z 105
_cell_length_a 16.039127
_cell_length_b 16.039127
_cell_length_c 21.165265
_cell_angle_alpha 90.000000
_cell_angle_beta 90.000000
_cell_angle_gamma 120.000000
_cell_volume 4715.370200
_symmetry_space_group_name_H-M "R 3 2"
_symmetry_group_IT_number 155
_symmetry_cell_setting 'hexagonal'
loop_
_space_group_symop_operation_xyz
x,y,z
-y,x-y,z
-x+y,-x,z
x-y,-y,-z
-x,-x+y,-z
y,x,-z
2/3+x,1/3+y,1/3+z
2/3-y,1/3+x-y,1/3+z
2/3-x+y,1/3-x,1/3+z
2/3+x-y,1/3-y,1/3-z
2/3-x,1/3-x+y,1/3-z
2/3+y,1/3+x,1/3-z
1/3+x,2/3+y,2/3+z
1/3-y,2/3+x-y,2/3+z
1/3-x+y,2/3-x,2/3+z
1/3+x-y,2/3-y,2/3-z
1/3-x,2/3-x+y,2/3-z
1/3+y,2/3+x,2/3-z
loop_
_atom_site_type_symbol
_atom_site_label
_atom_site_fract_x
_atom_site_fract_y
_atom_site_fract_z
Si Si1 0.531060 0.028854 0.255843
Si Si2 0.948040 0.456890 0.108174
Si Si3 0.185795 0.001808 0.574913
Si Si4 0.304516 0.358003 0.907034
Si Si5 0.000000 0.000000 0.424466
Si Si6 0.291941 0.083930 0.236455
Si Si7 0.562954 0.666667 0.666667
O O1 0.525918 0.050064 0.182743
O O2 0.624871 0.020147 0.273474
O O3 0.534142 0.113066 0.301640
O O4 0.432192 0.930499 0.272772
O O5 0.932829 0.538263 0.075374
O O6 0.863870 0.345564 0.095574
O O7 0.043812 0.468113 0.075538
O O8 0.103157 0.021394 0.601535
O O9 0.182396 0.000000 0.500000
O O10 0.293724 0.333334 0.833334
O O11 0.215448 0.368959 0.931527
O O12 0.000000 0.000000 0.500000
O O13 0.333334 0.102453 0.166667
O O14 0.361334 0.060719 0.276651
#
# Coordination Sequence:
#
# PCOD8322460 Si02
#       7
#    18  18  18  18   6  18   9
#     4  10  19  35  58  94 122 171 213 264 325 390
#     4  10  17  37  62  90 121 168 217 261 329 399
#     4   9  15  26  50  81 118 155 200 255 311 384
#     4   9  21  36  63  95 132 166 215 274 329 393
#     4   9  15  21  42  84 120 147 192 255 321 364
#     4  11  21  41  63  93 127 173 218 270 334 403
#     4  12  22  36  68  90 124 168 214 266 322 400
#
# _framework density 22.267603000000001
#
# number of rings (size 3 to 8) (size 9 to 14) (size 15 to 20)
#    0.000    2.057    3.429    1.543    0.000    4.800 
#    1.029    1.714    0.000    2.743    0.000    0.000 
#    0.000    0.000    0.000    0.000    0.000    0.000 
#
# Total GULP energy -433610.650142 kJ/mol
# GULP energy per Si atom -12388.875718 kJ/mol
# Density = 2.221692 g / cm^3
# Si number density = 22.267603 Si / 1000 Ang^3
#
#
#
# Elastic Constant Matrix: (Units=GPa)
#
#
# Indices 1 2 3 4 5 6 
#
# 1 158.2081 89.1373 21.6475 0.4142 0.0000 0.0000
# 2 89.1373 158.2081 21.6475 -0.4142 0.0000 0.0000
# 3 21.6475 21.6475 27.7732 0.0000 0.0000 0.0000
# 4 0.4142 -0.4142 0.0000 24.0794 0.0000 0.0000
# 5 0.0000 0.0000 0.0000 0.0000 24.0794 0.4142
# 6 0.0000 0.0000 0.0000 0.0000 0.4142 34.5354
#
#
#
# Elastic Compliance Matrix: (Units=1/GPa)
#
#
# Indices 1 2 3 4 5 6 
#
# 1 0.009581 -0.004900 -0.003649 -0.000249 0.000000 0.000000
# 2 -0.004900 0.009581 -0.003649 0.000249 0.000000 0.000000
# 3 -0.003649 -0.003649 0.041694 0.000000 0.000000 0.000000
# 4 -0.000249 0.000249 0.000000 0.041538 0.000000 0.000000
# 5 0.000000 0.000000 0.000000 0.000000 0.041538 -0.000498
# 6 0.000000 0.000000 0.000000 0.000000 -0.000498 0.028962
#
#
# Mechanical properties :
#
#
# Convention : Reuss Voigt Hill
#
# Bulk Modulus (GPa) = 27.42621 67.67267 47.54944
# Shear Modulus (GPa) = 23.87276 30.65598 27.26437
#
# Velocity S-wave (km/s) = 3.27782 3.71443 3.50293
# Velocity P-wave (km/s) = 5.16419 6.98946 6.14498
#
# Compressibility (1/GPa) = 0.03646147
#
# Stress axis : x y z
#
# Youngs Moduli (GPa) = 104.37030 104.37030 23.98400
#
# Poissons Ratio (x) = 0.51137 0.08752
# Poissons Ratio (y) = 0.51137 0.08752
# Poissons Ratio (z) = 0.38086 0.38086
#
# Static dielectric constant tensor:
#      x y z
#    x 4.210080 0.000000 0.000000 
#    y 0.000000 4.210080 0.000000 
#    z 0.000000 0.000000 3.775470 
# 
# 
# High freq. dielectric constant tensor:
#      x y z
#    x 1.866110 0.000000 0.000000 
#    y 0.000000 1.866110 0.000000 
#    z 0.000000 0.000000 1.869250 
# 
# From -- ./inp_files/7006.got.cif
#   From: 2010.03.12/outbox.cif.g09.slc.cpg/sg155_4_cif.got.tgz:7006.got - 2010.04.03 13:54:13.
