data_PCOD8322118
_publ_section_title
;
Structure prediction by ZEFSAII (Michael W. Deem and Ramdas Pophale) SiO2 
 PCOD8322118
Probable space group: P 31 2 1
;
_chemical_formula_sum "Si O2"
_cell_formula_units_Z 36
_cell_length_a 11.727483
_cell_length_b 11.727483
_cell_length_c 13.722134
_cell_angle_alpha 90.000000
_cell_angle_beta 90.000000
_cell_angle_gamma 120.000000
_cell_volume 1634.413391
_symmetry_space_group_name_H-M "P 31 2 1"
_symmetry_group_IT_number 152
_symmetry_cell_setting 'hexagonal'
loop_
_space_group_symop_operation_xyz
x,y,z
-y,x-y,1/3+z
-x+y,-x,2/3+z
x-y,-y,2/3-z
-x,-x+y,1/3-z
y,x,-z
loop_
_atom_site_type_symbol
_atom_site_label
_atom_site_fract_x
_atom_site_fract_y
_atom_site_fract_z
Si Si1 0.723241 0.783329 0.857921
Si Si2 0.637884 0.297822 0.763241
Si Si3 0.167467 0.699050 0.062881
Si Si4 0.832721 0.000000 0.333334
Si Si5 0.715882 0.117775 0.666801
Si Si6 0.980126 0.980126 0.500000
Si Si7 0.809772 0.601776 0.799264
O O1 0.636627 0.797693 0.773524
O O2 0.689970 0.824658 0.960870
O O3 0.700432 0.635756 0.844113
O O4 0.878547 0.873601 0.847281
O O5 0.504027 0.280885 0.714722
O O6 0.624571 0.223049 0.866556
O O7 0.688085 0.236900 0.680606
O O8 0.740915 0.451659 0.767837
O O9 0.009014 0.615333 0.058111
O O10 0.878825 0.923511 0.409277
O O11 0.694407 0.887503 0.290891
O O12 0.712323 0.086442 0.552616
#
# Coordination Sequence:
#
# PCOD8322118 Si02
#       7
#     6   6   6   3   6   3   6
#     4  10  21  40  70 104 133 194 241 300 367 432
#     4  11  24  45  65 105 140 188 245 300 354 445
#     4  11  24  44  74 104 142 195 255 300 371 444
#     4  10  26  40  72 108 148 194 232 308 380 434
#     4  11  23  46  74 101 140 199 244 305 367 453
#     4  10  20  42  68 102 146 180 252 300 356 450
#     4  11  25  43  66 106 146 187 235 304 377 434
#
# _framework density 22.026251999999999
#
# number of rings (size 3 to 8) (size 9 to 14) (size 15 to 20)
#    0.000    1.333    3.333    2.000    7.000    1.333 
#    6.000    0.000    0.000    0.000    0.000    0.000 
#    0.000    0.000    0.000    0.000    0.000    0.000 
#
# Total GULP energy -446019.402654 kJ/mol
# GULP energy per Si atom -12389.427852 kJ/mol
# Density = 2.197612 g / cm^3
# Si number density = 22.026252 Si / 1000 Ang^3
#
#
#
# Elastic Constant Matrix: (Units=GPa)
#
#
# Indices 1 2 3 4 5 6 
#
# 1 104.8723 45.2409 50.6931 5.7198 0.0001 0.0000
# 2 45.2409 104.8723 50.6931 -5.7198 -0.0001 0.0000
# 3 50.6931 50.6931 122.6289 0.0000 0.0000 0.0000
# 4 5.7198 -5.7198 0.0000 38.0502 0.0000 -0.0001
# 5 0.0001 -0.0001 0.0000 0.0000 38.0502 5.7198
# 6 0.0000 0.0000 0.0000 -0.0001 5.7198 29.8157
#
#
#
# Elastic Compliance Matrix: (Units=1/GPa)
#
#
# Indices 1 2 3 4 5 6 
#
# 1 0.013255 -0.004013 -0.003821 -0.002596 0.000000 0.000000
# 2 -0.004013 0.013255 -0.003821 0.002596 0.000000 0.000000
# 3 -0.003821 -0.003821 0.011313 0.000000 0.000000 0.000000
# 4 -0.002596 0.002596 0.000000 0.027061 0.000000 0.000000
# 5 0.000000 0.000000 0.000000 0.000000 0.027061 -0.005191
# 6 0.000000 0.000000 0.000000 0.000000 -0.005191 0.034535
#
#
# Mechanical properties :
#
#
# Convention : Reuss Voigt Hill
#
# Bulk Modulus (GPa) = 68.89268 69.51417 69.20342
# Shear Modulus (GPa) = 32.33580 33.56632 32.95106
#
# Velocity S-wave (km/s) = 3.83568 3.90798 3.87200
# Velocity P-wave (km/s) = 7.13877 7.21050 7.17472
#
# Compressibility (1/GPa) = 0.01451533
#
# Stress axis : x y z
#
# Youngs Moduli (GPa) = 75.44419 75.44419 88.39084
#
# Poissons Ratio (x) = 0.30274 0.33770
# Poissons Ratio (y) = 0.30274 0.33770
# Poissons Ratio (z) = 0.28824 0.28824
#
# Static dielectric constant tensor:
#      x y z
#    x 4.043750 0.000000 0.000000 
#    y 0.000000 4.043750 0.000000 
#    z 0.000000 0.000000 4.316150 
# 
# 
# High freq. dielectric constant tensor:
#      x y z
#    x 1.859620 0.000000 0.000000 
#    y 0.000000 1.859620 0.000000 
#    z 0.000000 0.000000 1.876750 
# 
# From -- ./inp_files/2077.got.cif
#   From: 2010.03.12/outbox.cif.g09.slc.cpg/sg152_2_cif.got.tgz:2077.got - 2010.04.03 13:45:27.
