data_PCOD8322899
_publ_section_title
;
Structure prediction by ZEFSAII (Michael W. Deem and Ramdas Pophale) SiO2 
 PCOD8322899
Probable space group: R 3 C
;
_chemical_formula_sum "Si O2"
_cell_formula_units_Z 120
_cell_length_a 15.884175
_cell_length_b 15.884175
_cell_length_c 25.777167
_cell_angle_alpha 90.000000
_cell_angle_beta 90.000000
_cell_angle_gamma 120.000000
_cell_volume 5632.421442
_symmetry_space_group_name_H-M "R 3 C"
_symmetry_group_IT_number 161
_symmetry_cell_setting 'hexagonal'
loop_
_space_group_symop_operation_xyz
x,y,z
-y,x-y,z
-x+y,-x,z
-x+y,y,1/2+z
x,x-y,1/2+z
-y,-x,1/2+z
2/3+x,1/3+y,1/3+z
2/3-y,1/3+x-y,1/3+z
2/3-x+y,1/3-x,1/3+z
2/3-x+y,1/3+y,5/6+z
2/3+x,1/3+x-y,5/6+z
2/3-y,1/3-x,5/6+z
1/3+x,2/3+y,2/3+z
1/3-y,2/3+x-y,2/3+z
1/3-x+y,2/3-x,2/3+z
1/3-x+y,2/3+y,1/6+z
1/3+x,2/3+x-y,1/6+z
1/3-y,2/3-x,1/6+z
loop_
_atom_site_type_symbol
_atom_site_label
_atom_site_fract_x
_atom_site_fract_y
_atom_site_fract_z
Si Si1 0.408796 0.547985 0.088594
Si Si2 0.924540 0.118685 0.698732
Si Si3 0.000000 0.000000 0.872326
Si Si4 0.845746 0.041544 0.080357
Si Si5 0.276685 0.290412 0.870506
Si Si6 0.137539 0.512416 0.706968
Si Si7 0.666668 0.333334 0.081663
Si Si8 0.652937 0.610015 0.583487
O O1 0.331135 0.571217 0.062137
O O2 0.513860 0.630352 0.067975
O O3 0.414610 0.554312 0.150315
O O4 0.373756 0.437706 0.072214
O O5 0.918721 0.112360 0.637010
O O6 0.959583 0.228965 0.715113
O O7 0.819479 0.036319 0.719353
O O8 0.002204 0.095452 0.725185
O O9 0.000000 0.000000 0.810328
O O10 0.750902 0.047276 0.063751
O O11 0.930564 0.108915 0.040737
O O12 0.821649 0.930565 0.079922
O O13 0.370295 0.286056 0.890241
O O14 0.261040 0.261040 0.810330
#
# Coordination Sequence:
#
# PCOD8322899 Si02
#       8
#    18  18   6  18  18  18   6  18
#     4  10  22  42  61  92 130 165 212 270 311 377
#     4  10  22  42  61  92 130 165 212 270 311 377
#     4  12  24  36  67  95 130 168 213 258 331 377
#     4  11  23  40  65  94 128 166 212 261 322 384
#     4   9  21  42  65  89 126 169 215 263 320 377
#     4  11  23  40  65  94 128 166 212 261 322 384
#     4  12  24  36  67  95 130 168 213 258 331 377
#     4   9  21  42  65  89 126 169 215 263 320 377
#
# _framework density 21.305223000000002
#
# number of rings (size 3 to 8) (size 9 to 14) (size 15 to 20)
#    0.000    1.800    0.000    3.000    4.200    1.200 
#    5.400    0.000    0.000    0.000    0.000    0.000 
#    0.000    0.000    0.000    0.000    0.000    0.000 
#
# Total GULP energy -496069.118988 kJ/mol
# GULP energy per Si atom -12401.727975 kJ/mol
# Density = 2.125673 g / cm^3
# Si number density = 21.305223 Si / 1000 Ang^3
#
#
#
# Elastic Constant Matrix: (Units=GPa)
#
#
# Indices 1 2 3 4 5 6 
#
# 1 137.3998 69.8798 48.3262 -4.8590 0.0000 0.0000
# 2 69.8798 137.3994 48.3261 4.8587 0.0000 0.0000
# 3 48.3262 48.3261 62.9037 0.0000 0.0000 0.0000
# 4 -4.8590 4.8587 0.0000 34.2369 0.0000 0.0000
# 5 0.0000 0.0000 0.0000 0.0000 34.2372 -4.8592
# 6 0.0000 0.0000 0.0000 0.0000 -4.8592 33.7604
#
#
#
# Elastic Compliance Matrix: (Units=1/GPa)
#
#
# Indices 1 2 3 4 5 6 
#
# 1 0.011318 -0.003801 -0.005775 0.002146 0.000000 0.000000
# 2 -0.003801 0.011318 -0.005775 -0.002146 0.000000 0.000000
# 3 -0.005775 -0.005775 0.024771 0.000000 0.000000 0.000000
# 4 0.002146 -0.002146 0.000000 0.029817 0.000000 0.000000
# 5 0.000000 0.000000 0.000000 0.000000 0.029817 0.004292
# 6 0.000000 0.000000 0.000000 0.000000 0.004292 0.030238
#
#
# Mechanical properties :
#
#
# Convention : Reuss Voigt Hill
#
# Bulk Modulus (GPa) = 59.86319 74.52968 67.19644
# Shear Modulus (GPa) = 28.80990 31.85829 30.33410
#
# Velocity S-wave (km/s) = 3.68128 3.87114 3.77740
# Velocity P-wave (km/s) = 6.79912 7.41881 7.11571
#
# Compressibility (1/GPa) = 0.01670475
#
# Stress axis : x y z
#
# Youngs Moduli (GPa) = 88.35247 88.35232 40.36972
#
# Poissons Ratio (x) = 0.33582 0.23315
# Poissons Ratio (y) = 0.33582 0.23314
# Poissons Ratio (z) = 0.51026 0.51026
#
# Static dielectric constant tensor:
#      x y z
#    x 3.918120 0.000000 0.000000 
#    y 0.000000 3.918130 0.000000 
#    z 0.000000 0.000000 3.670920 
# 
# 
# High freq. dielectric constant tensor:
#      x y z
#    x 1.844880 0.000000 0.000000 
#    y 0.000000 1.844880 0.000000 
#    z 0.000000 0.000000 1.829590 
# 
# From -- ./inp_files/1965.got.cif
#   From: 2010.03.12/outbox.cif.g09.slc.cpg/sg161_cif.got.tgz:1965.got - 2010.04.02 06:27:14.
