data_PCOD8322716
_publ_section_title
;
Structure prediction by ZEFSAII (Michael W. Deem and Ramdas Pophale) SiO2 
 PCOD8322716
Probable space group: P 3 1 M
;
_chemical_formula_sum "Si O2"
_cell_formula_units_Z 42
_cell_length_a 14.628643
_cell_length_b 14.628643
_cell_length_c 12.253165
_cell_angle_alpha 90.000000
_cell_angle_beta 90.000000
_cell_angle_gamma 120.000000
_cell_volume 2270.842409
_symmetry_space_group_name_H-M "P 3 1 M"
_symmetry_group_IT_number 157
_symmetry_cell_setting 'hexagonal'
loop_
_space_group_symop_operation_xyz
x,y,z
-y,x-y,z
-x+y,-x,z
y,x,z
x-y,-y,z
-x,-x+y,z
loop_
_atom_site_type_symbol
_atom_site_label
_atom_site_fract_x
_atom_site_fract_y
_atom_site_fract_z
Si Si1 0.121162 0.761923 0.638180
Si Si2 0.268696 0.879637 0.809752
Si Si3 0.593089 0.472638 0.439226
Si Si4 0.753014 0.876137 0.980849
Si Si5 0.876517 0.435124 0.680862
Si Si6 0.238080 0.119443 0.230518
Si Si7 0.246288 0.422435 0.392957
O O1 0.196264 0.868554 0.704075
O O2 0.145063 0.676404 0.698759
O O3 0.149696 0.779813 0.511883
O O4 0.000000 0.729380 0.652443
O O5 0.344638 0.830140 0.776448
O O6 0.345576 0.000000 0.838540
O O7 0.188896 0.830990 0.912994
O O8 0.565577 0.565577 0.439456
O O9 0.614569 0.444870 0.561610
O O10 0.497942 0.371281 0.380574
O O11 0.699036 0.510363 0.371140
O O12 0.833923 0.833923 0.952256
O O13 0.719891 0.855282 0.106983
O O14 0.809290 0.000000 0.950664
O O15 0.000000 0.478767 0.672210
O O16 0.139578 0.139578 0.236230
O O17 0.331259 0.205385 0.304116
O O18 0.197690 0.000000 0.270742
#
# Coordination Sequence:
#
# PCOD8322716 Si02
#       7
#     6   6   6   6   6   6   6
#     4  10  19  31  49  75 106 134 166 208 260 316
#     4  10  18  31  51  74 102 135 171 212 255 308
#     4  10  19  32  49  74 104 133 170 215 262 312
#     4   9  18  32  53  77 103 135 175 216 256 303
#     4   8  16  30  45  67  98 130 163 204 249 301
#     4  10  20  35  55  79 107 141 180 220 261 312
#     4  11  20  33  53  76 103 138 177 217 266 314
#
# _framework density 18.495339000000001
#
# number of rings (size 3 to 8) (size 9 to 14) (size 15 to 20)
#    0.000    2.286    1.429    3.571    0.000    1.714 
#    0.857    0.000    3.143    0.286    0.000    0.000 
#    0.000    0.000    0.000    0.000    0.000    0.000 
#
# Total GULP energy -520415.595111 kJ/mol
# GULP energy per Si atom -12390.847503 kJ/mol
# Density = 1.845324 g / cm^3
# Si number density = 18.495339 Si / 1000 Ang^3
#
#
#
# Elastic Constant Matrix: (Units=GPa)
#
#
# Indices 1 2 3 4 5 6 
#
# 1 57.7135 11.2526 29.7878 0.0000 -8.8234 0.0000
# 2 11.2526 57.7135 29.7878 0.0000 8.8234 0.0000
# 3 29.7878 29.7878 79.7293 0.0000 0.0000 0.0000
# 4 0.0000 0.0000 0.0000 29.4932 0.0000 8.8234
# 5 -8.8234 8.8234 0.0000 0.0000 29.4932 0.0000
# 6 0.0000 0.0000 0.0000 8.8234 0.0000 23.2304
#
#
#
# Elastic Compliance Matrix: (Units=1/GPa)
#
#
# Indices 1 2 3 4 5 6 
#
# 1 0.022846 -0.001437 -0.007999 0.000000 0.007265 0.000000
# 2 -0.001437 0.022846 -0.007999 0.000000 -0.007265 0.000000
# 3 -0.007999 -0.007999 0.018519 0.000000 0.000000 0.000000
# 4 0.000000 0.000000 0.000000 0.038253 0.000000 -0.014529
# 5 0.007265 -0.007265 0.000000 0.000000 0.038253 0.000000
# 6 0.000000 0.000000 0.000000 -0.014529 0.000000 0.048565
#
#
# Mechanical properties :
#
#
# Convention : Reuss Voigt Hill
#
# Bulk Modulus (GPa) = 34.07956 37.42363 35.75160
# Shear Modulus (GPa) = 21.37369 24.73192 23.05280
#
# Velocity S-wave (km/s) = 3.40314 3.66074 3.53429
# Velocity P-wave (km/s) = 5.82304 6.17625 6.00224
#
# Compressibility (1/GPa) = 0.02934310
#
# Stress axis : x y z
#
# Youngs Moduli (GPa) = 43.77098 43.77098 53.99740
#
# Poissons Ratio (x) = 0.06288 0.43192
# Poissons Ratio (y) = 0.06288 0.43192
# Poissons Ratio (z) = 0.35012 0.35012
#
# Static dielectric constant tensor:
#      x y z
#    x 3.460750 0.000000 0.000000 
#    y 0.000000 3.460750 0.000000 
#    z 0.000000 0.000000 3.270260 
# 
# 
# High freq. dielectric constant tensor:
#      x y z
#    x 1.714270 0.000000 0.000000 
#    y 0.000000 1.714270 0.000000 
#    z 0.000000 0.000000 1.687170 
# 
# From -- ./inp_files/566.got.cif
#   From: 2010.03.12/outbox.cif.g09.slc.cpg/sg157_cif.got.tgz:566.got - 2010.04.03 13:59:21.
