data_PCOD8322664
_publ_section_title
;
Structure prediction by ZEFSAII (Michael W. Deem and Ramdas Pophale) SiO2 
 PCOD8322664
Probable space group: P 3 M 1
;
_chemical_formula_sum "Si O2"
_cell_formula_units_Z 48
_cell_length_a 12.770513
_cell_length_b 12.770513
_cell_length_c 20.164938
_cell_angle_alpha 90.000000
_cell_angle_beta 90.000000
_cell_angle_gamma 120.000000
_cell_volume 2848.027705
_symmetry_space_group_name_H-M "P 3 M 1"
_symmetry_group_IT_number 156
_symmetry_cell_setting 'hexagonal'
loop_
_space_group_symop_operation_xyz
x,y,z
-y,x-y,z
-x+y,-x,z
-x+y,y,z
x,x-y,z
-y,-x,z
loop_
_atom_site_type_symbol
_atom_site_label
_atom_site_fract_x
_atom_site_fract_y
_atom_site_fract_z
Si Si1 0.088851 0.421760 0.928840
Si Si2 0.332932 0.910576 0.550325
Si Si3 0.000066 0.241480 0.193885
Si Si4 0.000080 0.755025 0.429299
Si Si5 0.907319 0.333583 0.664763
Si Si6 0.999934 0.240328 0.042918
Si Si7 0.421686 0.090018 0.307976
Si Si8 0.425153 0.092095 0.815781
O O1 0.220632 0.441263 0.921264
O O2 0.100748 0.550374 0.935470
O O3 0.015667 0.351010 0.863525
O O4 0.022690 0.349180 0.995018
O O5 0.455031 0.910062 0.533141
O O6 0.226294 0.773707 0.557721
O O7 0.307996 0.981017 0.492862
O O8 0.342644 0.978736 0.618940
O O9 0.127696 0.255392 0.214548
O O10 0.001159 0.282447 0.118316
O O11 0.971940 0.327477 0.239298
O O12 0.898523 0.101478 0.204057
O O13 0.115066 0.884935 0.414745
O O14 0.886119 0.772237 0.442529
O O15 0.980356 0.670372 0.366915
O O16 0.866241 0.433121 0.655941
O O17 0.794651 0.205350 0.644001
O O18 0.947861 0.331689 0.740169
O O19 0.872687 0.127314 0.023362
O O20 0.100795 0.201589 0.033228
O O21 0.537982 0.075964 0.316230
O O22 0.462684 0.231342 0.308768
O O23 0.562439 0.124878 0.826899
O O24 0.417250 0.208625 0.835307
#
# Coordination Sequence:
#
# PCOD8322664 Si02
#       8
#     6   6   6   6   6   6   6   6
#     4  10  20  32  46  65  92 127 163 196 231 276
#     4  10  20  33  49  70  98 132 166 196 228 271
#     4   9  17  30  50  74  97 121 152 194 241 285
#     4  10  20  34  53  75  97 122 155 198 245 288
#     4   9  17  30  49  72  95 119 150 191 239 285
#     4   9  17  30  49  72  95 120 153 195 242 286
#     4  10  20  33  49  69  95 126 157 189 227 275
#     4   9  17  30  49  71  93 117 148 191 241 288
#
# _framework density 16.853769
#
# number of rings (size 3 to 8) (size 9 to 14) (size 15 to 20)
#    0.000    2.500    0.000    2.500    0.000    3.000 
#    0.000    1.250    0.000    9.000    0.000    0.000 
#    0.000    0.000    0.000    0.000    0.000    0.000 
#
# Total GULP energy -595290.601432 kJ/mol
# GULP energy per Si atom -12401.887530 kJ/mol
# Density = 1.681541 g / cm^3
# Si number density = 16.853769 Si / 1000 Ang^3
#
#
#
# Elastic Constant Matrix: (Units=GPa)
#
#
# Indices 1 2 3 4 5 6 
#
# 1 110.3656 67.6705 67.3675 0.7388 0.0000 0.0000
# 2 67.6705 110.3656 67.3675 -0.7388 0.0000 0.0000
# 3 67.3675 67.3675 111.5502 0.0000 0.0000 0.0000
# 4 0.7388 -0.7388 0.0000 26.0428 0.0000 0.0000
# 5 0.0000 0.0000 0.0000 0.0000 26.0428 0.7388
# 6 0.0000 0.0000 0.0000 0.0000 0.7388 21.3476
#
#
#
# Elastic Compliance Matrix: (Units=1/GPa)
#
#
# Indices 1 2 3 4 5 6 
#
# 1 0.016895 -0.006550 -0.006247 -0.000665 0.000000 0.000000
# 2 -0.006550 0.016895 -0.006247 0.000665 0.000000 0.000000
# 3 -0.006247 -0.006247 0.016510 0.000000 0.000000 0.000000
# 4 -0.000665 0.000665 0.000000 0.038436 0.000000 0.000000
# 5 0.000000 0.000000 0.000000 0.000000 0.038436 -0.001330
# 6 0.000000 0.000000 0.000000 0.000000 -0.001330 0.046890
#
#
# Mechanical properties :
#
#
# Convention : Reuss Voigt Hill
#
# Bulk Modulus (GPa) = 81.89784 81.89915 81.89849
# Shear Modulus (GPa) = 23.12436 23.34502 23.23469
#
# Velocity S-wave (km/s) = 3.70815 3.72580 3.71698
# Velocity P-wave (km/s) = 8.18734 8.19806 8.19270
#
# Compressibility (1/GPa) = 0.01221033
#
# Stress axis : x y z
#
# Youngs Moduli (GPa) = 59.18960 59.18960 60.56754
#
# Poissons Ratio (x) = 0.38769 0.37839
# Poissons Ratio (y) = 0.38769 0.37839
# Poissons Ratio (z) = 0.36978 0.36978
#
# Static dielectric constant tensor:
#      x y z
#    x 3.082190 0.000000 0.000000 
#    y 0.000000 3.082190 0.000000 
#    z 0.000000 0.000000 3.345870 
# 
# 
# High freq. dielectric constant tensor:
#      x y z
#    x 1.646830 0.000000 0.000000 
#    y 0.000000 1.646830 0.000000 
#    z 0.000000 0.000000 1.661460 
# 
# From -- ./inp_files/1085.got.cif
#   From: 2010.03.12/outbox.cif.g09.slc.cpg/sg156_cif.got.tgz:1085.got - 2010.04.03 13:58:47.
