data_PCOD8322966
_publ_section_title
;
Structure prediction by ZEFSAII (Michael W. Deem and Ramdas Pophale) SiO2 
 PCOD8322966
Probable space group: P -3 1 M 
;
_chemical_formula_sum "Si O2"
_cell_formula_units_Z 84
_cell_length_a 20.232870
_cell_length_b 20.232870
_cell_length_c 13.601765
_cell_angle_alpha 90.000000
_cell_angle_beta 90.000000
_cell_angle_gamma 120.000000
_cell_volume 4822.151838
_symmetry_space_group_name_H-M "P -3 1 M "
_symmetry_group_IT_number 162
_symmetry_cell_setting 'hexagonal'
loop_
_space_group_symop_operation_xyz
x,y,z
-y,x-y,z
-x+y,-x,z
-y,-x,-z
-x+y,y,-z
x,x-y,-z
-x,-y,-z
y,-x+y,-z
x-y,x,-z
y,x,z
x-y,-y,z
-x,-x+y,z
loop_
_atom_site_type_symbol
_atom_site_label
_atom_site_fract_x
_atom_site_fract_y
_atom_site_fract_z
Si Si1 0.690563 0.775813 0.961147
Si Si2 0.846100 0.192149 0.755719
Si Si3 0.350683 0.440028 0.336431
Si Si4 0.309398 0.396914 0.862318
Si Si5 0.268850 0.178587 0.588500
Si Si6 0.670590 0.088305 0.557605
Si Si7 0.490521 0.579464 0.272881
O O1 0.756850 0.756850 0.983220
O O2 0.675715 0.770934 0.845785
O O3 0.721930 0.860965 0.000000
O O4 0.613584 0.716029 0.022679
O O5 0.856654 0.263801 0.694206
O O6 0.760511 0.142113 0.793765
O O7 0.864094 0.136797 0.688033
O O8 0.379205 0.379205 0.315544
O O9 0.355048 0.458325 0.452142
O O10 0.399946 0.520271 0.277740
O O11 0.336399 0.336399 0.833601
O O12 0.378523 0.482093 0.834282
O O13 0.234754 0.117377 0.500000
O O14 0.214691 0.214691 0.604402
O O15 0.356929 0.239528 0.562471
O O16 0.644076 0.126862 0.641754
O O17 0.630378 0.000000 0.582003
O O18 0.527384 0.527384 0.295817
#
# Coordination Sequence:
#
# PCOD8322966 Si02
#       7
#    12  12  12  12  12  12  12
#     4   9  19  33  52  76 101 130 167 221 281 331
#     4  11  19  30  49  73 103 133 169 219 266 313
#     4  10  19  28  43  72 105 133 163 202 252 304
#     4   9  17  32  51  71  95 129 174 215 261 318
#     4  11  21  33  52  79 107 139 176 219 272 328
#     4   9  16  28  45  69  98 129 166 203 243 296
#     4   9  16  28  47  69  97 132 166 200 240 301
#
# _framework density 17.419608
#
# number of rings (size 3 to 8) (size 9 to 14) (size 15 to 20)
#    0.000    2.286    2.857    1.286    0.000    2.857 
#    0.000    0.714    0.000    4.286    0.000    1.000 
#    0.000    0.000    0.000    0.000    0.000    0.000 
#
# Total GULP energy -1040788.981308 kJ/mol
# GULP energy per Si atom -12390.345016 kJ/mol
# Density = 1.737996 g / cm^3
# Si number density = 17.419608 Si / 1000 Ang^3
#
#
#
# Elastic Constant Matrix: (Units=GPa)
#
#
# Indices 1 2 3 4 5 6 
#
# 1 77.4944 29.0212 40.3259 -0.0001 2.0853 0.0000
# 2 29.0212 77.4944 40.3259 0.0001 -2.0853 0.0000
# 3 40.3259 40.3259 109.0429 0.0000 0.0000 0.0000
# 4 -0.0001 0.0001 0.0000 19.2784 0.0000 -2.0853
# 5 2.0853 -2.0853 0.0000 0.0000 19.2784 -0.0001
# 6 0.0000 0.0000 0.0000 -2.0853 -0.0001 24.2366
#
#
#
# Elastic Compliance Matrix: (Units=1/GPa)
#
#
# Indices 1 2 3 4 5 6 
#
# 1 0.016932 -0.003892 -0.004822 0.000000 -0.002253 0.000000
# 2 -0.003892 0.016932 -0.004822 0.000000 0.002253 0.000000
# 3 -0.004822 -0.004822 0.012737 0.000000 0.000000 0.000000
# 4 0.000000 0.000000 0.000000 0.052359 0.000000 0.004505
# 5 -0.002253 0.002253 0.000000 0.000000 0.052359 0.000000
# 6 0.000000 0.000000 0.000000 0.004505 0.000000 0.041648
#
#
# Mechanical properties :
#
#
# Convention : Reuss Voigt Hill
#
# Bulk Modulus (GPa) = 51.20957 53.70861 52.45909
# Shear Modulus (GPa) = 22.07031 22.84924 22.45978
#
# Velocity S-wave (km/s) = 3.56333 3.62566 3.59463
# Velocity P-wave (km/s) = 6.81111 6.95891 6.88541
#
# Compressibility (1/GPa) = 0.01952760
#
# Stress axis : x y z
#
# Youngs Moduli (GPa) = 59.06078 59.06078 78.50892
#
# Poissons Ratio (x) = 0.22987 0.37859
# Poissons Ratio (y) = 0.22987 0.37859
# Poissons Ratio (z) = 0.28481 0.28481
#
# Static dielectric constant tensor:
#      x y z
#    x 3.099480 0.000000 0.000000 
#    y 0.000000 3.099480 0.000000 
#    z 0.000000 0.000000 3.486080 
# 
# 
# High freq. dielectric constant tensor:
#      x y z
#    x 1.645030 0.000000 0.000000 
#    y 0.000000 1.645030 0.000000 
#    z 0.000000 0.000000 1.682070 
# 
# From -- ./inp_files/2544.got.cif
#   From: 2010.03.12/outbox.cif.g09.slc.cpg/sg162_2_cif.got.tgz:2544.got - 2010.04.02 06:27:41.
