data_PCOD8322578
_publ_section_title
;
Structure prediction by ZEFSAII (Michael W. Deem and Ramdas Pophale) SiO2 
 PCOD8322578
Probable space group: R 3 2
;
_chemical_formula_sum "Si O2"
_cell_formula_units_Z 93
_cell_length_a 13.911010
_cell_length_b 13.911010
_cell_length_c 25.822357
_cell_angle_alpha 90.000000
_cell_angle_beta 90.000000
_cell_angle_gamma 120.000000
_cell_volume 4327.567378
_symmetry_space_group_name_H-M "R 3 2"
_symmetry_group_IT_number 155
_symmetry_cell_setting 'hexagonal'
loop_
_space_group_symop_operation_xyz
x,y,z
-y,x-y,z
-x+y,-x,z
x-y,-y,-z
-x,-x+y,-z
y,x,-z
2/3+x,1/3+y,1/3+z
2/3-y,1/3+x-y,1/3+z
2/3-x+y,1/3-x,1/3+z
2/3+x-y,1/3-y,1/3-z
2/3-x,1/3-x+y,1/3-z
2/3+y,1/3+x,1/3-z
1/3+x,2/3+y,2/3+z
1/3-y,2/3+x-y,2/3+z
1/3-x+y,2/3-x,2/3+z
1/3+x-y,2/3-y,2/3-z
1/3-x,2/3-x+y,2/3-z
1/3+y,2/3+x,2/3-z
loop_
_atom_site_type_symbol
_atom_site_label
_atom_site_fract_x
_atom_site_fract_y
_atom_site_fract_z
Si Si1 0.481684 0.559034 0.341687
Si Si2 0.333334 0.666667 0.464642
Si Si3 0.833631 0.833631 0.000000
Si Si4 0.191245 0.857912 0.333334
Si Si5 0.632597 0.196947 0.753852
Si Si6 0.883492 0.518813 0.089112
Si Si7 0.666667 0.333334 0.410175
Si Si8 0.000000 0.726644 0.500000
O O1 0.555240 0.504865 0.326650
O O2 0.555739 0.690215 0.334406
O O3 0.377791 0.521958 0.302904
O O4 0.425382 0.514954 0.397449
O O5 0.458109 0.729231 0.441401
O O6 0.333334 0.666667 0.527538
O O7 0.899484 0.887296 0.053061
O O8 0.136545 0.785915 0.385160
O O9 0.757358 0.302683 0.760801
O O10 0.602545 0.098571 0.794021
O O11 0.944914 0.580385 0.140940
#
# Coordination Sequence:
#
# PCOD8322578 Si02
#       8
#    18   6   9   9  18  18   6   9
#     4  11  22  43  71 101 132 175 244 298 351 428
#     4  12  28  46  72  96 156 181 232 294 385 416
#     4   9  24  42  75  96 132 190 247 282 350 441
#     4  11  24  46  69 104 128 186 239 296 364 427
#     4  10  23  41  71  98 140 183 229 305 359 422
#     4  12  26  44  70 102 141 182 229 300 357 441
#     4  10  25  48  66  99 144 198 223 292 358 428
#     4  12  26  40  64 106 138 182 236 274 364 436
#
# _framework density 21.490133
#
# number of rings (size 3 to 8) (size 9 to 14) (size 15 to 20)
#    0.387    0.774    1.935    4.065    5.419    3.097 
#    0.000    0.000    0.000    0.000    0.000    0.000 
#    0.000    0.000    0.000    0.000    0.000    0.000 
#
# Total GULP energy -384184.120257 kJ/mol
# GULP energy per Si atom -12393.036137 kJ/mol
# Density = 2.144122 g / cm^3
# Si number density = 21.490133 Si / 1000 Ang^3
#
#
#
# Elastic Constant Matrix: (Units=GPa)
#
#
# Indices 1 2 3 4 5 6 
#
# 1 98.1490 53.4919 45.3818 2.7982 0.0001 0.0000
# 2 53.4919 98.1481 45.3817 -2.7986 -0.0001 0.0000
# 3 45.3818 45.3817 122.8552 -0.0001 0.0000 0.0000
# 4 2.7982 -2.7986 -0.0001 36.8318 0.0000 -0.0001
# 5 0.0001 -0.0001 0.0000 0.0000 36.8323 2.7981
# 6 0.0000 0.0000 0.0000 -0.0001 2.7981 22.3283
#
#
#
# Elastic Compliance Matrix: (Units=1/GPa)
#
#
# Indices 1 2 3 4 5 6 
#
# 1 0.015537 -0.007071 -0.003127 -0.001718 0.000000 0.000000
# 2 -0.007071 0.015538 -0.003127 0.001718 0.000000 0.000000
# 3 -0.003127 -0.003127 0.010450 0.000000 0.000000 0.000000
# 4 -0.001718 0.001718 0.000000 0.027411 0.000000 0.000000
# 5 0.000000 0.000000 0.000000 0.000000 0.027411 -0.003435
# 6 0.000000 0.000000 0.000000 0.000000 -0.003435 0.045217
#
#
# Mechanical properties :
#
#
# Convention : Reuss Voigt Hill
#
# Bulk Modulus (GPa) = 67.23452 67.51814 67.37633
# Shear Modulus (GPa) = 28.87274 30.85827 29.86550
#
# Velocity S-wave (km/s) = 3.66940 3.79347 3.73195
# Velocity P-wave (km/s) = 7.02188 7.11854 7.07038
#
# Compressibility (1/GPa) = 0.01487331
#
# Stress axis : x y z
#
# Youngs Moduli (GPa) = 64.36107 64.36039 95.69223
#
# Poissons Ratio (x) = 0.45509 0.29927
# Poissons Ratio (y) = 0.45509 0.29927
# Poissons Ratio (z) = 0.20128 0.20128
#
# Static dielectric constant tensor:
#      x y z
#    x 3.824840 0.000000 0.000000 
#    y 0.000000 3.824850 0.000010 
#    z 0.000000 0.000010 3.870240 
# 
# 
# High freq. dielectric constant tensor:
#      x y z
#    x 1.846340 0.000000 0.000000 
#    y 0.000000 1.846340 0.000000 
#    z 0.000000 0.000000 1.840970 
# 
# From -- ./inp_files/7945.got.cif
#   From: 2010.03.12/outbox.cif.g09.slc.cpg/sg155_4_cif.got.tgz:7945.got - 2010.04.03 13:54:13.
