data_PCOD8322471
_publ_section_title
;
Structure prediction by ZEFSAII (Michael W. Deem and Ramdas Pophale) SiO2 
 PCOD8322471
Probable space group: R 3 2
;
_chemical_formula_sum "Si O2"
_cell_formula_units_Z 108
_cell_length_a 17.070280
_cell_length_b 17.070280
_cell_length_c 22.972062
_cell_angle_alpha 90.000000
_cell_angle_beta 90.000000
_cell_angle_gamma 120.000000
_cell_volume 5797.114804
_symmetry_space_group_name_H-M "R 3 2"
_symmetry_group_IT_number 155
_symmetry_cell_setting 'hexagonal'
loop_
_space_group_symop_operation_xyz
x,y,z
-y,x-y,z
-x+y,-x,z
x-y,-y,-z
-x,-x+y,-z
y,x,-z
2/3+x,1/3+y,1/3+z
2/3-y,1/3+x-y,1/3+z
2/3-x+y,1/3-x,1/3+z
2/3+x-y,1/3-y,1/3-z
2/3-x,1/3-x+y,1/3-z
2/3+y,1/3+x,1/3-z
1/3+x,2/3+y,2/3+z
1/3-y,2/3+x-y,2/3+z
1/3-x+y,2/3-x,2/3+z
1/3+x-y,2/3-y,2/3-z
1/3-x,2/3-x+y,2/3-z
1/3+y,2/3+x,2/3-z
loop_
_atom_site_type_symbol
_atom_site_label
_atom_site_fract_x
_atom_site_fract_y
_atom_site_fract_z
Si Si1 0.994592 0.519519 0.813744
Si Si2 0.866909 0.068967 0.252422
Si Si3 0.000000 0.487541 0.000000
Si Si4 0.333334 0.280321 0.166667
Si Si5 0.871782 0.397942 0.097472
Si Si6 0.586261 0.137577 0.915050
Si Si7 0.578862 0.449246 0.717427
O O1 0.900229 0.471489 0.849839
O O2 0.966749 0.472816 0.750661
O O3 0.035932 0.626353 0.805213
O O4 0.068592 0.501240 0.843970
O O5 0.794358 0.085547 0.217806
O O6 0.881127 0.106887 0.317711
O O7 0.963999 0.126619 0.221332
O O8 0.838371 0.964408 0.253057
O O9 0.064958 0.467973 0.957383
O O10 0.943606 0.517751 0.957864
O O11 0.508350 0.156590 0.938089
O O12 0.685608 0.221681 0.922248
#
# Coordination Sequence:
#
# PCOD8322471 Si02
#       7
#    18  18   9   9  18  18  18
#     4  10  22  37  54  78 123 157 188 231 311 348
#     4  11  21  37  61  84 113 146 211 242 292 343
#     4  10  18  34  50  80 116 150 178 230 302 334
#     4  10  22  40  56  82 114 162 200 242 286 350
#     4  10  21  38  56  81 111 154 186 255 288 352
#     4  11  21  33  53  84 120 149 190 231 287 360
#     4  12  20  34  57  89 113 158 193 241 282 362
#
# _framework density 18.629956
#
# number of rings (size 3 to 8) (size 9 to 14) (size 15 to 20)
#    0.000    1.333    5.000    1.167    0.000    0.667 
#    6.000    1.667    0.000    0.000    0.000    0.000 
#    0.000    2.667    0.000    0.000    0.000    0.000 
#
# Total GULP energy -446218.891485 kJ/mol
# GULP energy per Si atom -12394.969208 kJ/mol
# Density = 1.858755 g / cm^3
# Si number density = 18.629956 Si / 1000 Ang^3
#
#
#
# Elastic Constant Matrix: (Units=GPa)
#
#
# Indices 1 2 3 4 5 6 
#
# 1 93.8655 38.4630 52.4362 5.2434 0.0001 0.0000
# 2 38.4630 93.8655 52.4362 -5.2434 -0.0001 0.0000
# 3 52.4362 52.4362 107.5996 0.0000 0.0000 0.0000
# 4 5.2434 -5.2434 0.0000 26.0821 0.0000 -0.0001
# 5 0.0001 -0.0001 0.0000 0.0000 26.0821 5.2434
# 6 0.0000 0.0000 0.0000 -0.0001 5.2434 27.7012
#
#
#
# Elastic Compliance Matrix: (Units=1/GPa)
#
#
# Indices 1 2 3 4 5 6 
#
# 1 0.015538 -0.003226 -0.006000 -0.003772 0.000000 0.000000
# 2 -0.003226 0.015538 -0.006000 0.003772 0.000000 0.000000
# 3 -0.006000 -0.006000 0.015142 0.000000 0.000000 0.000000
# 4 -0.003772 0.003772 0.000000 0.039857 0.000000 0.000000
# 5 0.000000 0.000000 0.000000 0.000000 0.039857 -0.007544
# 6 0.000000 0.000000 0.000000 0.000000 -0.007544 0.037528
#
#
# Mechanical properties :
#
#
# Convention : Reuss Voigt Hill
#
# Bulk Modulus (GPa) = 63.42866 64.66684 64.04775
# Shear Modulus (GPa) = 25.10466 26.10610 25.60538
#
# Velocity S-wave (km/s) = 3.67487 3.74745 3.71134
# Velocity P-wave (km/s) = 7.21989 7.31513 7.26766
#
# Compressibility (1/GPa) = 0.01576574
#
# Stress axis : x y z
#
# Youngs Moduli (GPa) = 64.35870 64.35870 66.04304
#
# Poissons Ratio (x) = 0.20761 0.39626
# Poissons Ratio (y) = 0.20761 0.39626
# Poissons Ratio (z) = 0.38615 0.38615
#
# Static dielectric constant tensor:
#      x y z
#    x 3.427200 0.000000 0.000000 
#    y 0.000000 3.427200 0.000000 
#    z 0.000000 0.000000 3.489800 
# 
# 
# High freq. dielectric constant tensor:
#      x y z
#    x 1.712020 0.000000 0.000000 
#    y 0.000000 1.712020 0.000000 
#    z 0.000000 0.000000 1.723720 
# 
# From -- ./inp_files/7501.got.cif
#   From: 2010.03.12/outbox.cif.g09.slc.cpg/sg155_4_cif.got.tgz:7501.got - 2010.04.03 13:54:13.
