data_PCOD8322970
_publ_section_title
;
Structure prediction by ZEFSAII (Michael W. Deem and Ramdas Pophale) SiO2 
 PCOD8322970
Probable space group: P -3 1 M 
;
_chemical_formula_sum "Si O2"
_cell_formula_units_Z 96
_cell_length_a 18.851293
_cell_length_b 18.851293
_cell_length_c 20.218793
_cell_angle_alpha 90.000000
_cell_angle_beta 90.000000
_cell_angle_gamma 120.000000
_cell_volume 6222.546416
_symmetry_space_group_name_H-M "P -3 1 M "
_symmetry_group_IT_number 162
_symmetry_cell_setting 'hexagonal'
loop_
_space_group_symop_operation_xyz
x,y,z
-y,x-y,z
-x+y,-x,z
-y,-x,-z
-x+y,y,-z
x,x-y,-z
-x,-y,-z
y,-x+y,-z
x-y,x,-z
y,x,z
x-y,-y,z
-x,-x+y,z
loop_
_atom_site_type_symbol
_atom_site_label
_atom_site_fract_x
_atom_site_fract_y
_atom_site_fract_z
Si Si1 0.668528 0.169799 0.427992
Si Si2 0.092476 0.345378 0.077239
Si Si3 0.538899 0.629048 0.703077
Si Si4 0.252902 0.345378 0.077239
Si Si5 0.502481 0.331556 0.162198
Si Si6 0.829075 0.497519 0.837802
Si Si7 0.629048 0.090149 0.703077
Si Si8 0.498729 0.830201 0.572008
O O1 0.677030 0.119286 0.366980
O O2 0.582164 0.164327 0.424275
O O3 0.736069 0.263931 0.419778
O O4 0.677710 0.135770 0.500000
O O5 0.158664 0.317328 0.097486
O O6 0.112576 0.429042 0.113679
O O7 0.000000 0.273934 0.095805
O O8 0.098937 0.364997 0.000000
O O9 0.614224 0.614224 0.718625
O O10 0.530303 0.680351 0.762629
O O11 0.456216 0.543784 0.696371
O O12 0.273934 0.273934 0.095805
O O13 0.316466 0.429042 0.113679
O O14 0.531608 0.265804 0.149162
O O15 0.577742 0.422258 0.148796
O O16 0.849952 0.530303 0.762629
O O17 0.677030 0.119286 0.633020
O O18 0.614224 0.000000 0.718625
#
# Coordination Sequence:
#
# PCOD8322970 Si02
#       8
#    12  12  12  12  12  12  12  12
#     4   9  16  25  37  52  70  93 122 157 198 245
#     4   9  18  32  49  68  89 114 143 174 210 252
#     4   9  17  27  38  53  73  98 129 166 207 248
#     4   9  18  32  49  68  89 114 143 174 210 252
#     4  10  19  30  44  62  85 113 145 180 216 253
#     4  10  19  30  44  62  85 113 145 180 216 253
#     4   9  17  27  38  53  73  98 129 166 207 248
#     4   9  16  25  37  52  70  93 122 157 198 245
#
# _framework density 15.427768
#
# number of rings (size 3 to 8) (size 9 to 14) (size 15 to 20)
#    0.000    2.750    0.000    2.000    0.000    3.500 
#    0.000    6.250    0.000    1.750    0.000    1.750 
#    0.000    0.000    0.000    0.000    0.000    0.000 
#
# Total GULP energy -1189641.094579 kJ/mol
# GULP energy per Si atom -12392.094735 kJ/mol
# Density = 1.539265 g / cm^3
# Si number density = 15.427768 Si / 1000 Ang^3
#
#
#
# Elastic Constant Matrix: (Units=GPa)
#
#
# Indices 1 2 3 4 5 6 
#
# 1 65.5595 42.5993 36.1676 0.0000 0.0000 0.0000
# 2 42.5993 65.5595 36.1676 0.0000 0.0000 0.0000
# 3 36.1676 36.1676 71.9097 0.0000 0.0000 0.0000
# 4 0.0000 0.0000 0.0000 19.6063 0.0000 0.0000
# 5 0.0000 0.0000 0.0000 0.0000 19.6063 0.0000
# 6 0.0000 0.0000 0.0000 0.0000 0.0000 11.4801
#
#
#
# Elastic Compliance Matrix: (Units=1/GPa)
#
#
# Indices 1 2 3 4 5 6 
#
# 1 0.028743 -0.014811 -0.007007 0.000000 0.000000 0.000000
# 2 -0.014811 0.028743 -0.007007 0.000000 0.000000 0.000000
# 3 -0.007007 -0.007007 0.020955 0.000000 0.000000 0.000000
# 4 0.000000 0.000000 0.000000 0.051004 0.000000 0.000000
# 5 0.000000 0.000000 0.000000 0.000000 0.051004 0.000000
# 6 0.000000 0.000000 0.000000 0.000000 0.000000 0.087107
#
#
# Mechanical properties :
#
#
# Convention : Reuss Voigt Hill
#
# Bulk Modulus (GPa) = 48.09972 48.09974 48.09973
# Shear Modulus (GPa) = 15.05405 16.01148 15.53276
#
# Velocity S-wave (km/s) = 3.12713 3.22504 3.17646
# Velocity P-wave (km/s) = 6.65460 6.71661 6.68568
#
# Compressibility (1/GPa) = 0.02079014
#
# Stress axis : x y z
#
# Youngs Moduli (GPa) = 34.79130 34.79130 47.72131
#
# Poissons Ratio (x) = 0.51529 0.33439
# Poissons Ratio (y) = 0.51529 0.33439
# Poissons Ratio (z) = 0.24379 0.24379
#
# Static dielectric constant tensor:
#      x y z
#    x 2.849200 0.000000 0.000000 
#    y 0.000000 2.849200 0.000000 
#    z 0.000000 0.000000 3.330130 
# 
# 
# High freq. dielectric constant tensor:
#      x y z
#    x 1.563020 0.000000 0.000000 
#    y 0.000000 1.563020 0.000000 
#    z 0.000000 0.000000 1.609080 
# 
# From -- ./inp_files/3884.got.cif
#   From: 2010.03.12/outbox.cif.g09.slc.cpg/sg162_2_cif.got.tgz:3884.got - 2010.04.02 06:27:41.
