data_PCOD8322877
_publ_section_title
;
Structure prediction by ZEFSAII (Michael W. Deem and Ramdas Pophale) SiO2 
 PCOD8322877
Probable space group: R 3 M
;
_chemical_formula_sum "Si O2"
_cell_formula_units_Z 108
_cell_length_a 19.841182
_cell_length_b 19.841182
_cell_length_c 15.386324
_cell_angle_alpha 90.000000
_cell_angle_beta 90.000000
_cell_angle_gamma 120.000000
_cell_volume 5245.665419
_symmetry_space_group_name_H-M "R 3 M"
_symmetry_group_IT_number 160
_symmetry_cell_setting 'hexagonal'
loop_
_space_group_symop_operation_xyz
x,y,z
-y,x-y,z
-x+y,-x,z
-x+y,y,z
x,x-y,z
-y,-x,z
2/3+x,1/3+y,1/3+z
2/3-y,1/3+x-y,1/3+z
2/3-x+y,1/3-x,1/3+z
2/3-x+y,1/3+y,1/3+z
2/3+x,1/3+x-y,1/3+z
2/3-y,1/3-x,1/3+z
1/3+x,2/3+y,2/3+z
1/3-y,2/3+x-y,2/3+z
1/3-x+y,2/3-x,2/3+z
1/3-x+y,2/3+y,2/3+z
1/3+x,2/3+x-y,2/3+z
1/3-y,2/3-x,2/3+z
loop_
_atom_site_type_symbol
_atom_site_label
_atom_site_fract_x
_atom_site_fract_y
_atom_site_fract_z
Si Si1 0.953653 0.201998 0.813063
Si Si2 0.175746 0.509148 0.306633
Si Si3 0.706058 0.565380 0.493255
Si Si4 0.332397 0.824876 0.651153
Si Si5 0.823162 0.335351 0.666492
Si Si6 0.930139 0.344272 0.820771
O O1 0.864326 0.135675 0.816550
O O2 0.999167 0.185728 0.737339
O O3 0.954760 0.281538 0.794626
O O4 0.996515 0.207618 0.903299
O O5 0.253719 0.507437 0.282660
O O6 0.193600 0.596800 0.297370
O O7 0.106891 0.453231 0.242037
O O8 0.768791 0.537582 0.491621
O O9 0.656496 0.532688 0.404529
O O10 0.653580 0.525563 0.578194
O O11 0.749693 0.657940 0.501214
O O12 0.412826 0.825652 0.648226
O O13 0.263774 0.736227 0.645904
O O14 0.791787 0.395894 0.666059
O O15 0.751253 0.248748 0.678326
O O16 0.882072 0.355110 0.745006
#
# Coordination Sequence:
#
# PCOD8322877 Si02
#       6
#    18  18  18  18  18  18
#     4  10  23  40  60  90 124 162 204 248 306 371
#     4  11  23  41  65  92 122 161 210 263 312 360
#     4  10  23  40  60  90 124 162 204 248 306 371
#     4  10  21  40  64  92 123 160 206 256 306 358
#     4  11  23  41  65  92 122 161 210 263 312 360
#     4  12  24  40  60  90 126 168 204 246 308 374
#
# _framework density 20.588426999999999
#
# number of rings (size 3 to 8) (size 9 to 14) (size 15 to 20)
#    0.000    1.333    0.000    5.500    4.667    2.667 
#    0.000    6.667    0.000    0.000    0.000    0.000 
#    0.000    0.000    0.000    0.000    0.000    0.000 
#
# Total GULP energy -446582.412838 kJ/mol
# GULP energy per Si atom -12405.067023 kJ/mol
# Density = 2.054157 g / cm^3
# Si number density = 20.588427 Si / 1000 Ang^3
#
#
#
# Elastic Constant Matrix: (Units=GPa)
#
#
# Indices 1 2 3 4 5 6 
#
# 1 81.8269 16.3118 24.5235 3.9412 0.0001 0.0000
# 2 16.3118 81.8269 24.5235 -3.9412 -0.0001 0.0000
# 3 24.5235 24.5235 135.1358 0.0000 0.0000 0.0000
# 4 3.9412 -3.9412 0.0000 27.9087 0.0000 -0.0001
# 5 0.0001 -0.0001 0.0000 0.0000 27.9087 3.9412
# 6 0.0000 0.0000 0.0000 -0.0001 3.9412 32.7575
#
#
#
# Elastic Compliance Matrix: (Units=1/GPa)
#
#
# Indices 1 2 3 4 5 6 
#
# 1 0.013367 -0.002161 -0.002034 -0.002193 0.000000 0.000000
# 2 -0.002161 0.013367 -0.002034 0.002193 0.000000 0.000000
# 3 -0.002034 -0.002034 0.008138 0.000000 0.000000 0.000000
# 4 -0.002193 0.002193 0.000000 0.036450 0.000000 0.000000
# 5 0.000000 0.000000 0.000000 0.000000 0.036450 -0.004385
# 6 0.000000 0.000000 0.000000 0.000000 -0.004385 0.031055
#
#
# Mechanical properties :
#
#
# Convention : Reuss Voigt Hill
#
# Bulk Modulus (GPa) = 44.61162 47.72304 46.16733
# Shear Modulus (GPa) = 31.49505 33.27702 32.38604
#
# Velocity S-wave (km/s) = 3.91544 4.02468 3.97044
# Velocity P-wave (km/s) = 6.49278 6.69532 6.59483
#
# Compressibility (1/GPa) = 0.02241568
#
# Stress axis : x y z
#
# Youngs Moduli (GPa) = 74.81254 74.81254 122.87958
#
# Poissons Ratio (x) = 0.16165 0.24989
# Poissons Ratio (y) = 0.16165 0.24989
# Poissons Ratio (z) = 0.15214 0.15214
#
# Static dielectric constant tensor:
#      x y z
#    x 3.621430 0.000000 0.000000 
#    y 0.000000 3.621430 0.000000 
#    z 0.000000 0.000000 4.086410 
# 
# 
# High freq. dielectric constant tensor:
#      x y z
#    x 1.804120 0.000000 0.000000 
#    y 0.000000 1.804120 0.000000 
#    z 0.000000 0.000000 1.826100 
# 
# From -- ./inp_files/2246.got.cif
#   From: 2010.03.12/outbox.cif.g09.slc.cpg/sg160_2_cif.got.tgz:2246.got - 2010.04.02 06:26:15.
