data_PCOD8322685
_publ_section_title
;
Structure prediction by ZEFSAII (Michael W. Deem and Ramdas Pophale) SiO2 
 PCOD8322685
Probable space group: P 3 M 1
;
_chemical_formula_sum "Si O2"
_cell_formula_units_Z 48
_cell_length_a 12.550291
_cell_length_b 12.550291
_cell_length_c 20.309833
_cell_angle_alpha 90.000000
_cell_angle_beta 90.000000
_cell_angle_gamma 120.000000
_cell_volume 2770.413378
_symmetry_space_group_name_H-M "P 3 M 1"
_symmetry_group_IT_number 156
_symmetry_cell_setting 'hexagonal'
loop_
_space_group_symop_operation_xyz
x,y,z
-y,x-y,z
-x+y,-x,z
-x+y,y,z
x,x-y,z
-y,-x,z
loop_
_atom_site_type_symbol
_atom_site_label
_atom_site_fract_x
_atom_site_fract_y
_atom_site_fract_z
Si Si1 0.999721 0.753055 0.056750
Si Si2 0.333628 0.421687 0.790086
Si Si3 0.418129 0.085079 0.179274
Si Si4 0.333408 0.915779 0.302618
Si Si5 0.333699 0.417623 0.549875
Si Si6 0.750370 0.751922 0.426606
Si Si7 0.419998 0.085540 0.672947
Si Si8 0.089202 0.666550 0.939393
O O1 0.894427 0.788853 0.052964
O O2 0.972049 0.650841 0.111250
O O3 0.126000 0.874001 0.075495
O O4 0.006793 0.698596 0.986361
O O5 0.202681 0.405361 0.770988
O O6 0.435333 0.564668 0.780113
O O7 0.361954 0.336051 0.743311
O O8 0.335960 0.380002 0.864858
O O9 0.556149 0.112297 0.172636
O O10 0.422380 0.211190 0.196632
O O11 0.343949 0.988739 0.236325
O O12 0.453721 0.907442 0.316956
O O13 0.220999 0.779002 0.295064
O O14 0.315566 0.987142 0.362651
O O15 0.220553 0.441105 0.555826
O O16 0.453364 0.546637 0.534994
O O17 0.317232 0.326756 0.490797
O O18 0.344143 0.357774 0.617203
O O19 0.870787 0.741574 0.425426
O O20 0.788779 0.894390 0.427361
O O21 0.563473 0.126946 0.670067
O O22 0.405414 0.202707 0.661533
O O23 0.072369 0.536185 0.960626
O O24 0.233061 0.766940 0.945778
#
# Coordination Sequence:
#
# PCOD8322685 Si02
#       8
#     6   6   6   6   6   6   6   6
#     4  10  20  33  49  69  95 128 165 203 243 289
#     4   9  17  30  50  74  98 124 156 198 245 291
#     4  10  20  34  52  73  98 128 162 202 247 295
#     4  10  20  34  53  76 102 131 163 201 244 289
#     4  10  20  34  54  78 102 128 160 202 249 294
#     4  10  20  34  52  74 101 133 167 200 236 281
#     4  10  20  33  49  69  96 130 165 200 238 284
#     4   9  17  30  49  73  98 124 156 196 244 293
#
# _framework density 17.325935000000001
#
# number of rings (size 3 to 8) (size 9 to 14) (size 15 to 20)
#    0.000    2.250    0.000    3.250    0.000    1.500 
#    0.000    2.500    0.000   14.500    0.000    0.000 
#    0.000    0.000    0.000    0.000    0.000    0.000 
#
# Total GULP energy -595363.648830 kJ/mol
# GULP energy per Si atom -12403.409351 kJ/mol
# Density = 1.728650 g / cm^3
# Si number density = 17.325935 Si / 1000 Ang^3
#
#
#
# Elastic Constant Matrix: (Units=GPa)
#
#
# Indices 1 2 3 4 5 6 
#
# 1 103.5510 61.1790 55.2985 -0.8490 0.0002 0.0000
# 2 61.1790 103.5510 55.2985 0.8490 -0.0002 0.0000
# 3 55.2985 55.2985 108.0308 0.0000 0.0000 0.0000
# 4 -0.8490 0.8490 0.0000 23.8408 0.0000 -0.0002
# 5 0.0002 -0.0002 0.0000 0.0000 23.8408 -0.8490
# 6 0.0000 0.0000 0.0000 -0.0002 -0.8490 21.1860
#
#
#
# Elastic Compliance Matrix: (Units=1/GPa)
#
#
# Indices 1 2 3 4 5 6 
#
# 1 0.016442 -0.007193 -0.004734 0.000842 0.000000 0.000000
# 2 -0.007193 0.016442 -0.004734 -0.000842 0.000000 0.000000
# 3 -0.004734 -0.004734 0.014104 0.000000 0.000000 0.000000
# 4 0.000842 -0.000842 0.000000 0.042005 0.000000 0.000000
# 5 0.000000 0.000000 0.000000 0.000000 0.042005 0.001683
# 6 0.000000 0.000000 0.000000 0.000000 0.001683 0.047268
#
#
# Mechanical properties :
#
#
# Convention : Reuss Voigt Hill
#
# Bulk Modulus (GPa) = 73.18449 73.18722 73.18586
# Shear Modulus (GPa) = 23.13289 23.33065 23.23177
#
# Velocity S-wave (km/s) = 3.65795 3.67355 3.66576
# Velocity P-wave (km/s) = 7.75708 7.76701 7.76205
#
# Compressibility (1/GPa) = 0.01366410
#
# Stress axis : x y z
#
# Youngs Moduli (GPa) = 60.82101 60.82101 70.90431
#
# Poissons Ratio (x) = 0.43746 0.33569
# Poissons Ratio (y) = 0.43746 0.33569
# Poissons Ratio (z) = 0.28795 0.28795
#
# Static dielectric constant tensor:
#      x y z
#    x 3.152730 0.000000 0.000000 
#    y 0.000000 3.152730 0.000000 
#    z 0.000000 0.000000 3.425400 
# 
# 
# High freq. dielectric constant tensor:
#      x y z
#    x 1.669380 0.000000 0.000000 
#    y 0.000000 1.669380 0.000000 
#    z 0.000000 0.000000 1.684070 
# 
# From -- ./inp_files/1107.got.cif
#   From: 2010.03.12/outbox.cif.g09.slc.cpg/sg156_cif.got.tgz:1107.got - 2010.04.03 13:58:47.
