data_PCOD8322719
_publ_section_title
;
Structure prediction by ZEFSAII (Michael W. Deem and Ramdas Pophale) SiO2 
 PCOD8322719
Probable space group: P 3 1 M
;
_chemical_formula_sum "Si O2"
_cell_formula_units_Z 42
_cell_length_a 15.331443
_cell_length_b 15.331443
_cell_length_c 10.392074
_cell_angle_alpha 90.000000
_cell_angle_beta 90.000000
_cell_angle_gamma 120.000000
_cell_volume 2115.431309
_symmetry_space_group_name_H-M "P 3 1 M"
_symmetry_group_IT_number 157
_symmetry_cell_setting 'hexagonal'
loop_
_space_group_symop_operation_xyz
x,y,z
-y,x-y,z
-x+y,-x,z
y,x,z
x-y,-y,z
-x,-x+y,z
loop_
_atom_site_type_symbol
_atom_site_label
_atom_site_fract_x
_atom_site_fract_y
_atom_site_fract_z
Si Si1 0.114758 0.754344 0.626250
Si Si2 0.116881 0.229225 0.392966
Si Si3 0.564823 0.118664 0.250823
Si Si4 0.116844 0.429856 0.036715
Si Si5 0.639512 0.885210 0.159768
Si Si6 0.313089 0.883151 0.749212
Si Si7 0.564896 0.118658 0.535101
O O1 0.128880 0.832665 0.516769
O O2 0.191720 0.818904 0.739333
O O3 0.147320 0.677473 0.570372
O O4 0.000000 0.695638 0.679385
O O5 0.133201 0.133201 0.392711
O O6 0.167464 0.296589 0.269480
O O7 0.000000 0.193826 0.392915
O O8 0.520202 0.160152 0.141318
O O9 0.677374 0.147373 0.215347
O O10 0.564326 0.163350 0.392978
O O11 0.496119 0.000000 0.256262
O O12 0.181091 0.372731 0.046599
O O13 0.000000 0.349911 0.062157
O O14 0.131276 0.475676 0.892987
O O15 0.695716 0.000000 0.106788
O O16 0.360181 0.839830 0.644693
O O17 0.350013 0.000000 0.723727
O O18 0.496122 0.000000 0.529716
#
# Coordination Sequence:
#
# PCOD8322719 Si02
#       7
#     6   6   6   6   6   6   6
#     4  10  20  36  59  87 118 154 202 247 291 354
#     4  10  19  32  54  88 126 162 199 248 300 350
#     4   9  18  35  58  82 109 143 189 243 295 349
#     4  10  22  38  57  85 119 156 199 244 297 359
#     4  10  20  36  59  87 118 154 202 247 291 354
#     4  10  22  38  57  85 119 156 199 244 297 359
#     4   9  18  35  58  82 109 143 189 243 295 349
#
# _framework density 19.854108
#
# number of rings (size 3 to 8) (size 9 to 14) (size 15 to 20)
#    0.000    2.286    1.429    1.000    2.000    1.714 
#    1.714    2.857    0.000    0.571    0.000    0.000 
#    0.000    0.000    0.000    0.000    0.000    0.000 
#
# Total GULP energy -520624.178794 kJ/mol
# GULP energy per Si atom -12395.813781 kJ/mol
# Density = 1.980892 g / cm^3
# Si number density = 19.854108 Si / 1000 Ang^3
#
#
#
# Elastic Constant Matrix: (Units=GPa)
#
#
# Indices 1 2 3 4 5 6 
#
# 1 102.7118 43.5638 53.0637 0.0000 -0.0705 0.0000
# 2 43.5638 102.7118 53.0637 0.0000 0.0705 0.0000
# 3 53.0637 53.0637 129.8645 0.0000 0.0000 0.0000
# 4 0.0000 0.0000 0.0000 22.9864 0.0000 0.0705
# 5 -0.0705 0.0705 0.0000 0.0000 22.9864 0.0000
# 6 0.0000 0.0000 0.0000 0.0705 0.0000 29.5740
#
#
#
# Elastic Compliance Matrix: (Units=1/GPa)
#
#
# Indices 1 2 3 4 5 6 
#
# 1 0.013312 -0.003595 -0.003970 0.000000 0.000052 0.000000
# 2 -0.003595 0.013312 -0.003970 0.000000 -0.000052 0.000000
# 3 -0.003970 -0.003970 0.010945 0.000000 0.000000 0.000000
# 4 0.000000 0.000000 0.000000 0.043504 0.000000 -0.000104
# 5 0.000052 -0.000052 0.000000 0.000000 0.043504 0.000000
# 6 0.000000 0.000000 0.000000 -0.000104 0.000000 0.033814
#
#
# Mechanical properties :
#
#
# Convention : Reuss Voigt Hill
#
# Bulk Modulus (GPa) = 68.97810 70.51894 69.74852
# Shear Modulus (GPa) = 26.83905 27.48247 27.16076
#
# Velocity S-wave (km/s) = 3.68069 3.72455 3.70268
# Velocity P-wave (km/s) = 7.27195 7.35473 7.31345
#
# Compressibility (1/GPa) = 0.01449735
#
# Stress axis : x y z
#
# Youngs Moduli (GPa) = 75.12014 75.12014 91.36516
#
# Poissons Ratio (x) = 0.27005 0.36277
# Poissons Ratio (y) = 0.27005 0.36277
# Poissons Ratio (z) = 0.29826 0.29826
#
# Static dielectric constant tensor:
#      x y z
#    x 3.582120 0.000000 0.000000 
#    y 0.000000 3.582120 0.000000 
#    z 0.000000 0.000000 3.783870 
# 
# 
# High freq. dielectric constant tensor:
#      x y z
#    x 1.767640 0.000000 0.000000 
#    y 0.000000 1.767640 0.000000 
#    z 0.000000 0.000000 1.767480 
# 
# From -- ./inp_files/593.got.cif
#   From: 2010.03.12/outbox.cif.g09.slc.cpg/sg157_cif.got.tgz:593.got - 2010.04.03 13:59:21.
