data_PCOD8322727
_publ_section_title
;
Structure prediction by ZEFSAII (Michael W. Deem and Ramdas Pophale) SiO2 
 PCOD8322727
Probable space group: P 3 1 M
;
_chemical_formula_sum "Si O2"
_cell_formula_units_Z 48
_cell_length_a 18.217921
_cell_length_b 18.217921
_cell_length_c 10.187655
_cell_angle_alpha 90.000000
_cell_angle_beta 90.000000
_cell_angle_gamma 120.000000
_cell_volume 2928.211824
_symmetry_space_group_name_H-M "P 3 1 M"
_symmetry_group_IT_number 157
_symmetry_cell_setting 'hexagonal'
loop_
_space_group_symop_operation_xyz
x,y,z
-y,x-y,z
-x+y,-x,z
y,x,z
x-y,-y,z
-x,-x+y,z
loop_
_atom_site_type_symbol
_atom_site_label
_atom_site_fract_x
_atom_site_fract_y
_atom_site_fract_z
Si Si1 0.333497 0.837648 0.463970
Si Si2 0.639295 0.902076 0.681932
Si Si3 0.499528 0.165873 0.172243
Si Si4 0.371953 0.468223 0.900536
Si Si5 0.162352 0.666503 0.463970
Si Si6 0.165873 0.666345 0.172243
Si Si7 0.468223 0.096270 0.900536
Si Si8 0.360705 0.097924 0.681932
O O1 0.336215 0.872619 0.316177
O O2 0.260890 0.739110 0.473323
O O3 0.422945 0.845889 0.503563
O O4 0.313882 0.896057 0.557772
O O5 0.576910 0.866272 0.808706
O O6 0.582175 0.896057 0.557772
O O7 0.677883 0.838942 0.664937
O O8 0.715290 0.000000 0.696290
O O9 0.599012 0.198024 0.171698
O O10 0.487204 0.243602 0.138234
O O11 0.450416 0.099550 0.055524
O O12 0.427175 0.427175 0.857375
O O13 0.429570 0.570430 0.875623
O O14 0.350867 0.450416 0.055524
O O15 0.127381 0.663785 0.316177
O O16 0.423090 0.133728 0.808707
O O17 0.427175 0.000000 0.857375
O O18 0.284710 0.000000 0.696290
#
# Coordination Sequence:
#
# PCOD8322727 Si02
#       8
#     6   6   6   6   6   6   6   6
#     4   9  17  28  43  64  91 123 155 184 211 241
#     4  10  20  33  48  65  85 110 141 179 223 268
#     4   9  16  26  40  59  85 117 151 181 206 233
#     4   9  17  28  42  62  88 116 145 176 209 248
#     4   9  17  28  43  64  91 123 155 184 211 241
#     4   9  16  26  40  59  85 117 151 181 206 233
#     4   9  17  28  42  62  88 116 145 176 209 248
#     4  10  20  33  48  65  85 110 141 179 223 268
#
# _framework density 16.392254999999999
#
# number of rings (size 3 to 8) (size 9 to 14) (size 15 to 20)
#    0.000    2.750    0.000    2.000    0.000    4.500 
#    0.000    2.500    0.000    8.250    0.000    0.000 
#    0.000    0.000    0.000    0.000    0.000   32.500 
#
# Total GULP energy -594715.184526 kJ/mol
# GULP energy per Si atom -12389.899678 kJ/mol
# Density = 1.635495 g / cm^3
# Si number density = 16.392255 Si / 1000 Ang^3
#
#
#
# Elastic Constant Matrix: (Units=GPa)
#
#
# Indices 1 2 3 4 5 6 
#
# 1 61.5706 32.6254 27.6798 0.0000 0.0000 0.0000
# 2 32.6254 61.5706 27.6798 0.0000 0.0000 0.0000
# 3 27.6798 27.6798 99.9998 0.0000 0.0000 0.0000
# 4 0.0000 0.0000 0.0000 20.5182 0.0000 0.0000
# 5 0.0000 0.0000 0.0000 0.0000 20.5182 0.0000
# 6 0.0000 0.0000 0.0000 0.0000 0.0000 14.4726
#
#
#
# Elastic Compliance Matrix: (Units=1/GPa)
#
#
# Indices 1 2 3 4 5 6 
#
# 1 0.023613 -0.010935 -0.003509 0.000000 0.000000 0.000000
# 2 -0.010935 0.023613 -0.003509 0.000000 0.000000 0.000000
# 3 -0.003509 -0.003509 0.011943 0.000000 0.000000 0.000000
# 4 0.000000 0.000000 0.000000 0.048737 0.000000 0.000000
# 5 0.000000 0.000000 0.000000 0.000000 0.048737 0.000000
# 6 0.000000 0.000000 0.000000 0.000000 0.000000 0.069096
#
#
# Mechanical properties :
#
#
# Convention : Reuss Voigt Hill
#
# Bulk Modulus (GPa) = 42.98772 44.34563 43.66668
# Shear Modulus (GPa) = 18.55969 20.11222 19.33595
#
# Velocity S-wave (km/s) = 3.36850 3.50656 3.43823
# Velocity P-wave (km/s) = 6.43509 6.59592 6.51600
#
# Compressibility (1/GPa) = 0.02326245
#
# Stress axis : x y z
#
# Youngs Moduli (GPa) = 42.34896 42.34896 83.73221
#
# Poissons Ratio (x) = 0.46307 0.29385
# Poissons Ratio (y) = 0.46307 0.29385
# Poissons Ratio (z) = 0.14862 0.14862
#
# Static dielectric constant tensor:
#      x y z
#    x 2.831700 0.000000 0.000000 
#    y 0.000000 2.831700 0.000000 
#    z 0.000000 0.000000 3.370130 
# 
# 
# High freq. dielectric constant tensor:
#      x y z
#    x 1.599330 0.000000 0.000000 
#    y 0.000000 1.599330 0.000000 
#    z 0.000000 0.000000 1.651370 
# 
# From -- ./inp_files/513.got.cif
#   From: 2010.03.12/outbox.cif.g09.slc.cpg/sg157_cif.got.tgz:513.got - 2010.04.03 13:59:21.
