data_PCOD8322240
_publ_section_title
;
Structure prediction by ZEFSAII (Michael W. Deem and Ramdas Pophale) SiO2 
 PCOD8322240
Probable space group: P 32 1 2
;
_chemical_formula_sum "Si O2"
_cell_formula_units_Z 36
_cell_length_a 8.167788
_cell_length_b 8.167788
_cell_length_c 28.531206
_cell_angle_alpha 90.000000
_cell_angle_beta 90.000000
_cell_angle_gamma 120.000000
_cell_volume 1648.388875
_symmetry_space_group_name_H-M "P 32 1 2"
_symmetry_group_IT_number 153
_symmetry_cell_setting 'hexagonal'
loop_
_space_group_symop_operation_xyz
x,y,z
-y,x-y,2/3+z
-x+y,-x,1/3+z
-y,-x,1/3-z
-x+y,y,2/3-z
x,x-y,-z
loop_
_atom_site_type_symbol
_atom_site_label
_atom_site_fract_x
_atom_site_fract_y
_atom_site_fract_z
Si Si1 0.561493 0.280747 0.000000
Si Si2 0.571167 0.428834 0.166667
Si Si3 0.479035 0.451616 0.806556
Si Si4 0.318447 0.242753 0.087016
Si Si5 0.636653 0.667736 0.964102
Si Si6 0.925916 0.785562 0.885558
Si Si7 0.550881 0.686320 0.434003
O O1 0.428034 0.296960 0.038447
O O2 0.682153 0.180149 0.017554
O O3 0.439452 0.415836 0.123351
O O4 0.784831 0.531319 0.147611
O O5 0.689877 0.575374 0.788208
O O6 0.324843 0.434916 0.768678
O O7 0.445235 0.544000 0.853410
O O8 0.116104 0.225299 0.084020
O O9 0.277390 0.038828 0.103011
O O10 0.419339 0.559613 0.946449
O O11 0.762956 0.774755 0.918851
O O12 0.666301 0.833151 0.000000
O O13 0.937967 0.875934 0.833334
#
# Coordination Sequence:
#
# PCOD8322240 Si02
#       7
#     3   3   6   6   6   6   6
#     4  10  24  50  66  92 140 184 224 286 352 422
#     4  10  20  40  64  96 128 176 222 278 336 400
#     4  10  18  37  66  90 128 169 214 270 337 388
#     4  10  24  40  66  97 135 171 227 283 339 411
#     4  11  25  47  69  95 135 180 226 283 347 419
#     4  12  24  41  64 100 139 173 225 287 336 404
#     4   9  20  40  64  95 127 168 218 274 335 408
#
# _framework density 21.839507000000001
#
# number of rings (size 3 to 8) (size 9 to 14) (size 15 to 20)
#    0.000    1.667    2.500    2.000    8.167    2.667 
#    3.000    0.000    1.833    0.000    0.000    0.000 
#    0.000    0.000    0.000    0.000    0.000    0.000 
#
# Total GULP energy -445991.422546 kJ/mol
# GULP energy per Si atom -12388.650626 kJ/mol
# Density = 2.178980 g / cm^3
# Si number density = 21.839507 Si / 1000 Ang^3
#
#
#
# Elastic Constant Matrix: (Units=GPa)
#
#
# Indices 1 2 3 4 5 6 
#
# 1 69.5688 13.3661 28.7717 0.0001 2.8434 0.0000
# 2 13.3661 69.5688 28.7717 -0.0001 -2.8434 0.0000
# 3 28.7717 28.7717 99.7013 0.0000 0.0000 0.0000
# 4 0.0001 -0.0001 0.0000 29.0170 0.0000 -2.8434
# 5 2.8434 -2.8434 0.0000 0.0000 29.0170 0.0001
# 6 0.0000 0.0000 0.0000 -2.8434 0.0001 28.1013
#
#
#
# Elastic Compliance Matrix: (Units=1/GPa)
#
#
# Indices 1 2 3 4 5 6 
#
# 1 0.016524 -0.001447 -0.004351 0.000000 -0.001761 0.000000
# 2 -0.001447 0.016524 -0.004351 0.000000 0.001761 0.000000
# 3 -0.004351 -0.004351 0.012541 0.000000 0.000000 0.000000
# 4 0.000000 0.000000 0.000000 0.034808 0.000000 0.003522
# 5 -0.001761 0.001761 0.000000 0.000000 0.034808 0.000000
# 6 0.000000 0.000000 0.000000 0.003522 0.000000 0.035942
#
#
# Mechanical properties :
#
#
# Convention : Reuss Voigt Hill
#
# Bulk Modulus (GPa) = 39.54001 42.29531 40.91766
# Shear Modulus (GPa) = 27.79738 28.42237 28.10988
#
# Velocity S-wave (km/s) = 3.57151 3.61143 3.59153
# Velocity P-wave (km/s) = 5.92888 6.06617 5.99792
#
# Compressibility (1/GPa) = 0.02529084
#
# Stress axis : x y z
#
# Youngs Moduli (GPa) = 60.51939 60.51939 79.73846
#
# Poissons Ratio (x) = 0.08759 0.34692
# Poissons Ratio (y) = 0.08759 0.34692
# Poissons Ratio (z) = 0.26330 0.26330
#
# Static dielectric constant tensor:
#      x y z
#    x 3.832280 0.000000 0.000000 
#    y 0.000000 3.832280 0.000000 
#    z 0.000000 0.000000 4.034360 
# 
# 
# High freq. dielectric constant tensor:
#      x y z
#    x 1.849300 0.000000 0.000000 
#    y 0.000000 1.849300 0.000000 
#    z 0.000000 0.000000 1.854620 
# 
# From -- ./inp_files/5023.got.cif
#   From: 2010.03.12/outbox.cif.g09.slc.cpg/sg153_3_cif.got.tgz:5023.got - 2010.04.03 13:48:33.
