data_PCOD8322211
_publ_section_title
;
Structure prediction by ZEFSAII (Michael W. Deem and Ramdas Pophale) SiO2 
 PCOD8322211
Probable space group: P 31 2 1
;
_chemical_formula_sum "Si O2"
_cell_formula_units_Z 18
_cell_length_a 8.330381
_cell_length_b 8.330381
_cell_length_c 11.793034
_cell_angle_alpha 90.000000
_cell_angle_beta 90.000000
_cell_angle_gamma 120.000000
_cell_volume 708.738315
_symmetry_space_group_name_H-M "P 31 2 1"
_symmetry_group_IT_number 152
_symmetry_cell_setting 'hexagonal'
loop_
_space_group_symop_operation_xyz
x,y,z
-y,x-y,1/3+z
-x+y,-x,2/3+z
x-y,-y,2/3-z
-x,-x+y,1/3-z
y,x,-z
loop_
_atom_site_type_symbol
_atom_site_label
_atom_site_fract_x
_atom_site_fract_y
_atom_site_fract_z
Si Si1 0.498296 0.269770 0.829423
Si Si2 0.349956 0.910197 0.212407
Si Si3 0.975153 0.213992 0.336235
O O1 0.479224 0.450379 0.822477
O O2 0.692764 0.288894 0.789277
O O3 0.332093 0.142146 0.747730
O O4 0.443699 0.191159 0.959935
O O5 0.351140 0.000000 0.333334
O O6 0.220953 0.949596 0.130171
O O7 0.912427 0.000000 0.333334
#
# Coordination Sequence:
#
# PCOD8322211 Si02
#       3
#     6   6   6
#     4  11  25  45  73 107 148 198 252 312 379 457
#     4  12  23  44  76 111 152 198 252 315 386 454
#     4  11  25  49  74 104 149 199 255 314 378 454
#
# _framework density 25.397241999999999
#
# number of rings (size 3 to 8) (size 9 to 14) (size 15 to 20)
#    0.000    0.667    0.000    9.000    0.000    0.000 
#    0.000   45.000    0.000    0.000    0.000    0.000 
#    0.000    0.000    0.000    0.000    0.000    0.000 
#
# Total GULP energy -223011.938905 kJ/mol
# GULP energy per Si atom -12389.552161 kJ/mol
# Density = 2.533944 g / cm^3
# Si number density = 25.397242 Si / 1000 Ang^3
#
#
#
# Elastic Constant Matrix: (Units=GPa)
#
#
# Indices 1 2 3 4 5 6 
#
# 1 139.5625 85.4413 79.8723 2.1111 0.0000 0.0000
# 2 85.4413 139.5625 79.8723 -2.1111 0.0000 0.0000
# 3 79.8723 79.8723 155.9074 0.0000 0.0000 0.0000
# 4 2.1111 -2.1111 0.0000 36.6372 0.0000 0.0000
# 5 0.0000 0.0000 0.0000 0.0000 36.6372 2.1111
# 6 0.0000 0.0000 0.0000 0.0000 2.1111 27.0606
#
#
#
# Elastic Compliance Matrix: (Units=1/GPa)
#
#
# Indices 1 2 3 4 5 6 
#
# 1 0.012773 -0.005788 -0.003578 -0.001069 0.000000 0.000000
# 2 -0.005788 0.012773 -0.003578 0.001069 0.000000 0.000000
# 3 -0.003578 -0.003578 0.010081 0.000000 0.000000 0.000000
# 4 -0.001069 0.001069 0.000000 0.027418 0.000000 0.000000
# 5 0.000000 0.000000 0.000000 0.000000 0.027418 -0.002139
# 6 0.000000 0.000000 0.000000 0.000000 -0.002139 0.037121
#
#
# Mechanical properties :
#
#
# Convention : Reuss Voigt Hill
#
# Bulk Modulus (GPa) = 102.70396 102.82270 102.76333
# Shear Modulus (GPa) = 31.90454 32.72343 32.31398
#
# Velocity S-wave (km/s) = 3.54817 3.59341 3.57086
# Velocity P-wave (km/s) = 7.57052 7.60200 7.58628
#
# Compressibility (1/GPa) = 0.00973672
#
# Stress axis : x y z
#
# Youngs Moduli (GPa) = 78.29206 78.29206 99.20095
#
# Poissons Ratio (x) = 0.45314 0.35498
# Poissons Ratio (y) = 0.45314 0.35498
# Poissons Ratio (z) = 0.28016 0.28016
#
# Static dielectric constant tensor:
#      x y z
#    x 4.675550 0.000000 0.000000 
#    y 0.000000 4.675550 0.000000 
#    z 0.000000 0.000000 5.401180 
# 
# 
# High freq. dielectric constant tensor:
#      x y z
#    x 2.016770 0.000000 0.000000 
#    y 0.000000 2.016770 0.000000 
#    z 0.000000 0.000000 2.034470 
# 
# From -- ./inp_files/1519.got.cif
#   From: 2010.03.12/outbox.cif.g09.slc.cpg/sg152_1_cif.got.tgz:1519.got - 2010.04.03 13:45:27.
