data_PCOD8322984
_publ_section_title
;
Structure prediction by ZEFSAII (Michael W. Deem and Ramdas Pophale) SiO2 
 PCOD8322984
Probable space group: P -3 1 M 
;
_chemical_formula_sum "Si O2"
_cell_formula_units_Z 84
_cell_length_a 19.250227
_cell_length_b 19.250227
_cell_length_c 11.938524
_cell_angle_alpha 90.000000
_cell_angle_beta 90.000000
_cell_angle_gamma 120.000000
_cell_volume 3831.360158
_symmetry_space_group_name_H-M "P -3 1 M "
_symmetry_group_IT_number 162
_symmetry_cell_setting 'hexagonal'
loop_
_space_group_symop_operation_xyz
x,y,z
-y,x-y,z
-x+y,-x,z
-y,-x,-z
-x+y,y,-z
x,x-y,-z
-x,-y,-z
y,-x+y,-z
x-y,x,-z
y,x,z
x-y,-y,z
-x,-x+y,z
loop_
_atom_site_type_symbol
_atom_site_label
_atom_site_fract_x
_atom_site_fract_y
_atom_site_fract_z
Si Si1 0.788142 0.142932 0.357027
Si Si2 0.820695 0.731032 0.100974
Si Si3 0.708348 0.553132 0.052691
Si Si4 0.094133 0.511235 0.244891
Si Si5 0.090420 0.431690 0.815594
Si Si6 0.310253 0.906973 0.426135
Si Si7 0.092112 0.907909 0.325945
O O1 0.747620 0.126946 0.235451
O O2 0.717694 0.125206 0.447319
O O3 0.857918 0.234470 0.346933
O O4 0.835840 0.095753 0.393241
O O5 0.750354 0.750354 0.081343
O O6 0.776701 0.635338 0.107605
O O7 0.873525 0.775653 0.207537
O O8 0.882999 0.765997 0.000000
O O9 0.647886 0.501943 0.150497
O O10 0.754288 0.508576 0.000000
O O11 0.661450 0.565481 0.949762
O O12 0.126430 0.606410 0.240198
O O13 0.107314 0.486977 0.371215
O O14 0.000000 0.458506 0.212488
O O15 0.000000 0.384702 0.776843
O O16 0.336909 0.000000 0.420438
O O17 0.000000 0.886838 0.319357
O O18 0.144420 0.000000 0.374644
#
# Coordination Sequence:
#
# PCOD8322984 Si02
#       7
#    12  12  12  12  12  12  12
#     4  11  22  37  61  89 117 152 199 250 295 348
#     4  10  19  30  48  74 108 152 202 254 304 355
#     4  11  21  34  56  84 115 151 190 234 286 350
#     4  10  21  37  58  84 115 149 186 233 292 353
#     4  11  22  36  58  87 117 148 186 237 293 347
#     4  10  21  39  62  87 116 151 193 242 295 349
#     4  11  22  36  54  80 119 165 213 262 313 365
#
# _framework density 21.924327999999999
#
# number of rings (size 3 to 8) (size 9 to 14) (size 15 to 20)
#    0.000    1.429    0.000    7.429    0.000    4.000 
#    0.000    2.143    0.000   10.286    0.000    5.000 
#    0.000    0.000    0.000    0.000    0.000    0.286 
#
# Total GULP energy -1040726.263686 kJ/mol
# GULP energy per Si atom -12389.598377 kJ/mol
# Density = 2.187443 g / cm^3
# Si number density = 21.924328 Si / 1000 Ang^3
#
#
#
# Elastic Constant Matrix: (Units=GPa)
#
#
# Indices 1 2 3 4 5 6 
#
# 1 87.9447 35.1014 23.3689 0.0000 -7.7227 0.0000
# 2 35.1014 87.9447 23.3689 0.0000 7.7227 0.0000
# 3 23.3689 23.3689 84.1809 0.0000 0.0000 0.0000
# 4 0.0000 0.0000 0.0000 27.6039 0.0000 7.7227
# 5 -7.7227 7.7227 0.0000 0.0000 27.6039 0.0000
# 6 0.0000 0.0000 0.0000 7.7227 0.0000 26.4217
#
#
#
# Elastic Compliance Matrix: (Units=1/GPa)
#
#
# Indices 1 2 3 4 5 6 
#
# 1 0.014847 -0.005762 -0.002522 0.000000 0.005766 0.000000
# 2 -0.005762 0.014847 -0.002522 0.000000 -0.005766 0.000000
# 3 -0.002522 -0.002522 0.013279 0.000000 0.000000 0.000000
# 4 0.000000 0.000000 0.000000 0.039453 0.000000 -0.011532
# 5 0.005766 -0.005766 0.000000 0.000000 0.039453 0.000000
# 6 0.000000 0.000000 0.000000 -0.011532 0.000000 0.041218
#
#
# Mechanical properties :
#
#
# Convention : Reuss Voigt Hill
#
# Bulk Modulus (GPa) = 46.81357 47.08318 46.94837
# Shear Modulus (GPa) = 26.06470 28.20799 27.13634
#
# Velocity S-wave (km/s) = 3.45171 3.59082 3.52195
# Velocity P-wave (km/s) = 6.10610 6.22205 6.16435
#
# Compressibility (1/GPa) = 0.02136133
#
# Stress axis : x y z
#
# Youngs Moduli (GPa) = 67.35334 67.35334 75.30446
#
# Poissons Ratio (x) = 0.38810 0.18992
# Poissons Ratio (y) = 0.38810 0.18992
# Poissons Ratio (z) = 0.16987 0.16987
#
# Static dielectric constant tensor:
#      x y z
#    x 4.282200 0.000000 0.000000 
#    y 0.000000 4.282200 0.000000 
#    z 0.000000 0.000000 3.930790 
# 
# 
# High freq. dielectric constant tensor:
#      x y z
#    x 1.852300 0.000000 0.000000 
#    y 0.000000 1.852300 0.000000 
#    z 0.000000 0.000000 1.869520 
# 
# From -- ./inp_files/2541.got.cif
#   From: 2010.03.12/outbox.cif.g09.slc.cpg/sg162_2_cif.got.tgz:2541.got - 2010.04.02 06:27:41.
