data_PCOD8322316
_publ_section_title
;
Structure prediction by ZEFSAII (Michael W. Deem and Ramdas Pophale) SiO2 
 PCOD8322316
Probable space group: P 32 2 1
;
_chemical_formula_sum "Si O2"
_cell_formula_units_Z 36
_cell_length_a 9.193254
_cell_length_b 9.193254
_cell_length_c 25.128261
_cell_angle_alpha 90.000000
_cell_angle_beta 90.000000
_cell_angle_gamma 120.000000
_cell_volume 1839.211123
_symmetry_space_group_name_H-M "P 32 2 1"
_symmetry_group_IT_number 154
_symmetry_cell_setting 'hexagonal'
loop_
_space_group_symop_operation_xyz
x,y,z
-y,x-y,2/3+z
-x+y,-x,1/3+z
x-y,-y,1/3-z
-x,-x+y,2/3-z
y,x,-z
loop_
_atom_site_type_symbol
_atom_site_label
_atom_site_fract_x
_atom_site_fract_y
_atom_site_fract_z
Si Si1 0.023380 0.650937 0.947438
Si Si2 0.659200 0.321989 0.438614
Si Si3 0.336713 0.341476 0.740799
Si Si4 0.644092 0.358807 0.559381
Si Si5 0.012186 0.147669 0.391598
Si Si6 0.990276 0.482961 0.274098
O O1 0.885386 0.475234 0.923246
O O2 0.999893 0.801348 0.919970
O O3 0.205926 0.678088 0.936870
O O4 0.991117 0.643471 0.010397
O O5 0.606202 0.348286 0.496879
O O6 0.848248 0.470115 0.425213
O O7 0.643711 0.142228 0.435563
O O8 0.321143 0.492005 0.763870
O O9 0.173022 0.157643 0.756686
O O10 0.627767 0.183770 0.579524
O O11 0.000000 0.071457 0.333334
O O12 0.004802 0.317731 0.388940
O O13 0.000000 0.555476 0.333334
#
# Coordination Sequence:
#
# PCOD8322316 Si02
#       6
#     6   6   6   6   6   6
#     4  10  19  35  56  79 107 144 184 227 281 345
#     4  11  21  34  54  82 112 142 184 237 283 330
#     4  10  19  35  57  80 105 145 189 226 273 343
#     4  11  21  34  54  82 113 143 181 236 290 330
#     4   7  14  29  52  75  98 132 179 219 257 319
#     4   9  17  33  53  74 102 144 187 221 263 335
#
# _framework density 19.573608
#
# number of rings (size 3 to 8) (size 9 to 14) (size 15 to 20)
#    0.000    2.333    0.000    6.500    0.000    0.000 
#    0.000    1.667    0.000    8.000    0.000    0.000 
#    0.000    0.000    0.000    0.000    0.000    0.000 
#
# Total GULP energy -446044.205978 kJ/mol
# GULP energy per Si atom -12390.116833 kJ/mol
# Density = 1.952906 g / cm^3
# Si number density = 19.573608 Si / 1000 Ang^3
#
#
#
# Elastic Constant Matrix: (Units=GPa)
#
#
# Indices 1 2 3 4 5 6 
#
# 1 97.0318 34.2759 1.2621 0.0590 0.0000 0.0000
# 2 34.2759 97.0318 1.2621 -0.0590 0.0000 0.0000
# 3 1.2621 1.2621 62.4529 0.0000 0.0000 0.0000
# 4 0.0590 -0.0590 0.0000 23.6840 0.0000 0.0000
# 5 0.0000 0.0000 0.0000 0.0000 23.6840 0.0590
# 6 0.0000 0.0000 0.0000 0.0000 0.0590 31.3780
#
#
#
# Elastic Compliance Matrix: (Units=1/GPa)
#
#
# Indices 1 2 3 4 5 6 
#
# 1 0.011777 -0.004158 -0.000154 -0.000040 0.000000 0.000000
# 2 -0.004158 0.011777 -0.000154 0.000040 0.000000 0.000000
# 3 -0.000154 -0.000154 0.016018 0.000000 0.000000 0.000000
# 4 -0.000040 0.000040 0.000000 0.042223 0.000000 0.000000
# 5 0.000000 0.000000 0.000000 0.000000 0.042223 -0.000079
# 6 0.000000 0.000000 0.000000 0.000000 -0.000079 0.031870
#
#
# Mechanical properties :
#
#
# Convention : Reuss Voigt Hill
#
# Bulk Modulus (GPa) = 32.63735 36.67963 34.65849
# Shear Modulus (GPa) = 28.56615 30.39695 29.48155
#
# Velocity S-wave (km/s) = 3.82438 3.94503 3.88518
# Velocity P-wave (km/s) = 6.01760 6.28737 6.15397
#
# Compressibility (1/GPa) = 0.03063975
#
# Stress axis : x y z
#
# Youngs Moduli (GPa) = 84.91312 84.91312 62.42866
#
# Poissons Ratio (x) = 0.35308 0.00961
# Poissons Ratio (y) = 0.35308 0.00961
# Poissons Ratio (z) = 0.01307 0.01307
#
# Static dielectric constant tensor:
#      x y z
#    x 3.677230 0.000000 0.000000 
#    y 0.000000 3.677230 0.000000 
#    z 0.000000 0.000000 3.465320 
# 
# 
# High freq. dielectric constant tensor:
#      x y z
#    x 1.753230 0.000000 0.000000 
#    y 0.000000 1.753230 0.000000 
#    z 0.000000 0.000000 1.751660 
# 
# From -- ./inp_files/3463.got.cif
#   From: 2010.03.12/outbox.cif.g09.slc.cpg/sg154_2_cif.got.tgz:3463.got - 2010.04.03 13:51:21.
