data_PCOD8322448
_publ_section_title
;
Structure prediction by ZEFSAII (Michael W. Deem and Ramdas Pophale) SiO2 
 PCOD8322448
Probable space group: P 32 2 1
;
_chemical_formula_sum "Si O2"
_cell_formula_units_Z 33
_cell_length_a 10.925708
_cell_length_b 10.925708
_cell_length_c 13.816485
_cell_angle_alpha 90.000000
_cell_angle_beta 90.000000
_cell_angle_gamma 120.000000
_cell_volume 1428.326127
_symmetry_space_group_name_H-M "P 32 2 1"
_symmetry_group_IT_number 154
_symmetry_cell_setting 'hexagonal'
loop_
_space_group_symop_operation_xyz
x,y,z
-y,x-y,2/3+z
-x+y,-x,1/3+z
x-y,-y,1/3-z
-x,-x+y,2/3-z
y,x,-z
loop_
_atom_site_type_symbol
_atom_site_label
_atom_site_fract_x
_atom_site_fract_y
_atom_site_fract_z
Si Si1 0.377290 0.744176 0.246146
Si Si2 0.843760 0.677479 0.668293
Si Si3 0.721423 0.891649 0.892116
Si Si4 0.481328 0.811647 0.761372
Si Si5 0.000000 0.362135 0.833334
Si Si6 0.608496 0.608496 0.000000
Si Si7 0.090068 0.090068 0.500000
O O1 0.520944 0.762687 0.289733
O O2 0.263213 0.718863 0.326345
O O3 0.312366 0.608863 0.178055
O O4 0.394197 0.874565 0.184953
O O5 0.740883 0.701242 0.594280
O O6 0.903584 0.785904 0.758363
O O7 0.978952 0.695237 0.609884
O O8 0.646313 0.873080 0.788234
O O9 0.886034 0.936251 0.888298
O O10 0.631298 0.753996 0.956902
O O11 0.443247 0.936252 0.752478
#
# Coordination Sequence:
#
# PCOD8322448 Si02
#       7
#     6   6   6   6   3   3   3
#     4  12  27  49  73 112 148 204 254 321 388 467
#     4  12  27  45  79 108 154 204 257 328 386 482
#     4  12  27  48  76 110 151 198 253 316 390 468
#     4  12  28  49  78 108 152 196 262 319 391 463
#     4  12  28  48  74 116 158 201 271 326 400 474
#     4  12  26  50  76 110 146 202 250 316 384 468
#     4  12  24  52  76 112 152 209 255 316 404 476
#
# _framework density 23.103967999999998
#
# number of rings (size 3 to 8) (size 9 to 14) (size 15 to 20)
#    0.000    0.000    5.455    3.273   10.182    0.000 
#    3.273    0.000    0.000    0.000    0.000    0.000 
#    0.000    0.000    0.000    0.000    0.000    0.000 
#
# Total GULP energy -409235.038335 kJ/mol
# GULP energy per Si atom -12401.061768 kJ/mol
# Density = 2.305138 g / cm^3
# Si number density = 23.103968 Si / 1000 Ang^3
#
#
#
# Elastic Constant Matrix: (Units=GPa)
#
#
# Indices 1 2 3 4 5 6 
#
# 1 76.1991 23.9356 17.8617 -4.8514 0.0001 0.0000
# 2 23.9356 76.1991 17.8617 4.8514 -0.0001 0.0000
# 3 17.8617 17.8617 96.9130 0.0000 0.0000 0.0000
# 4 -4.8514 4.8514 0.0000 45.7743 0.0000 -0.0001
# 5 0.0001 -0.0001 0.0000 0.0000 45.7743 -4.8514
# 6 0.0000 0.0000 0.0000 -0.0001 -4.8514 26.1318
#
#
#
# Elastic Compliance Matrix: (Units=1/GPa)
#
#
# Indices 1 2 3 4 5 6 
#
# 1 0.015104 -0.004414 -0.001970 0.002069 0.000000 0.000000
# 2 -0.004414 0.015104 -0.001970 -0.002069 0.000000 0.000000
# 3 -0.001970 -0.001970 0.011045 0.000000 0.000000 0.000000
# 4 0.002069 -0.002069 0.000000 0.022285 0.000000 0.000000
# 5 0.000000 0.000000 0.000000 0.000000 0.022285 0.004137
# 6 0.000000 0.000000 0.000000 0.000000 0.004137 0.039036
#
#
# Mechanical properties :
#
#
# Convention : Reuss Voigt Hill
#
# Bulk Modulus (GPa) = 40.74477 40.95881 40.85179
# Shear Modulus (GPa) = 33.38959 36.17955 34.78457
#
# Velocity S-wave (km/s) = 3.80569 3.96150 3.88437
# Velocity P-wave (km/s) = 6.08150 6.22022 6.15125
#
# Compressibility (1/GPa) = 0.02454303
#
# Stress axis : x y z
#
# Youngs Moduli (GPa) = 66.20929 66.20929 90.54085
#
# Poissons Ratio (x) = 0.29226 0.17838
# Poissons Ratio (y) = 0.29226 0.17838
# Poissons Ratio (z) = 0.13044 0.13044
#
# Static dielectric constant tensor:
#      x y z
#    x 4.234890 0.000000 0.000000 
#    y 0.000000 4.234890 0.000000 
#    z 0.000000 0.000000 4.332680 
# 
# 
# High freq. dielectric constant tensor:
#      x y z
#    x 1.921380 0.000000 0.000000 
#    y 0.000000 1.921380 0.000000 
#    z 0.000000 0.000000 1.922520 
# 
# From -- ./inp_files/1930.got.cif
#   From: 2010.03.12/outbox.cif.g09.slc.cpg/sg154_1_cif.got.tgz:1930.got - 2010.04.03 13:51:21.
