data_PCOD8322399
_publ_section_title
;
Structure prediction by ZEFSAII (Michael W. Deem and Ramdas Pophale) SiO2 
 PCOD8322399
Probable space group: P 32 2 1
;
_chemical_formula_sum "Si O2"
_cell_formula_units_Z 39
_cell_length_a 8.968980
_cell_length_b 8.968980
_cell_length_c 26.967838
_cell_angle_alpha 90.000000
_cell_angle_beta 90.000000
_cell_angle_gamma 120.000000
_cell_volume 1878.723525
_symmetry_space_group_name_H-M "P 32 2 1"
_symmetry_group_IT_number 154
_symmetry_cell_setting 'hexagonal'
loop_
_space_group_symop_operation_xyz
x,y,z
-y,x-y,2/3+z
-x+y,-x,1/3+z
x-y,-y,1/3-z
-x,-x+y,2/3-z
y,x,-z
loop_
_atom_site_type_symbol
_atom_site_label
_atom_site_fract_x
_atom_site_fract_y
_atom_site_fract_z
Si Si1 0.912758 0.573260 0.538552
Si Si2 0.575187 0.232753 0.292450
Si Si3 0.511247 0.856659 0.273921
Si Si4 0.125496 0.000000 0.166667
Si Si5 0.954166 0.342738 0.278112
Si Si6 0.839535 0.989986 0.112328
Si Si7 0.570780 0.248441 0.786987
O O1 0.825232 0.532008 0.592301
O O2 0.854935 0.691174 0.509389
O O3 0.838114 0.397628 0.506886
O O4 0.116532 0.665122 0.545319
O O5 0.552231 0.272724 0.348549
O O6 0.775316 0.342961 0.277627
O O7 0.507947 0.029862 0.286700
O O8 0.703062 0.895294 0.260468
O O9 0.391525 0.766153 0.226278
O O10 0.040542 0.045541 0.119302
O O11 0.000000 0.310480 0.333334
O O12 0.105915 0.519932 0.256236
O O13 0.950342 0.203867 0.240343
O O14 0.764400 0.000000 0.166667
#
# Coordination Sequence:
#
# PCOD8322399 Si02
#       7
#     6   6   6   3   6   6   6
#     4  12  26  41  70  98 139 173 229 284 339 401
#     4  11  25  45  67 100 134 184 221 276 344 415
#     4  11  24  42  69  97 137 173 227 272 345 405
#     4  10  22  44  60 102 128 174 236 268 336 408
#     4  11  22  45  68  98 138 180 221 277 345 404
#     4   9  22  40  69  96 133 180 226 273 335 413
#     4  12  25  43  67 102 132 177 227 287 339 398
#
# _framework density 20.758776999999998
#
# number of rings (size 3 to 8) (size 9 to 14) (size 15 to 20)
#    0.462    0.615    3.077    2.769   10.769    0.000 
#    2.769    0.000    0.000    0.000    0.000    0.000 
#    0.000    0.000    0.000    0.000    0.000    0.000 
#
# Total GULP energy -483546.356485 kJ/mol
# GULP energy per Si atom -12398.624525 kJ/mol
# Density = 2.071153 g / cm^3
# Si number density = 20.758777 Si / 1000 Ang^3
#
#
#
# Elastic Constant Matrix: (Units=GPa)
#
#
# Indices 1 2 3 4 5 6 
#
# 1 100.5938 38.2454 20.3114 -1.8813 -0.0003 0.0000
# 2 38.2454 100.5938 20.3114 1.8813 0.0003 0.0000
# 3 20.3114 20.3114 77.5020 0.0000 0.0000 0.0000
# 4 -1.8813 1.8813 0.0000 41.3744 0.0000 0.0003
# 5 -0.0003 0.0003 0.0000 0.0000 41.3744 -1.8813
# 6 0.0000 0.0000 0.0000 0.0003 -1.8813 31.1742
#
#
#
# Elastic Compliance Matrix: (Units=1/GPa)
#
#
# Indices 1 2 3 4 5 6 
#
# 1 0.011942 -0.004141 -0.002044 0.000731 0.000000 0.000000
# 2 -0.004141 0.011942 -0.002044 -0.000731 0.000000 0.000000
# 3 -0.002044 -0.002044 0.013974 0.000000 0.000000 0.000000
# 4 0.000731 -0.000731 0.000000 0.024236 0.000000 0.000000
# 5 0.000000 0.000000 0.000000 0.000000 0.024236 0.001463
# 6 0.000000 0.000000 0.000000 0.000000 0.001463 0.032166
#
#
# Mechanical properties :
#
#
# Convention : Reuss Voigt Hill
#
# Bulk Modulus (GPa) = 46.73244 48.49176 47.61210
# Shear Modulus (GPa) = 35.18920 36.10603 35.64762
#
# Velocity S-wave (km/s) = 4.12168 4.17503 4.14844
# Velocity P-wave (km/s) = 6.72399 6.83019 6.77730
#
# Compressibility (1/GPa) = 0.02139841
#
# Stress axis : x y z
#
# Youngs Moduli (GPa) = 83.73881 83.73881 71.55909
#
# Poissons Ratio (x) = 0.34678 0.14629
# Poissons Ratio (y) = 0.34678 0.14629
# Poissons Ratio (z) = 0.17119 0.17119
#
# Static dielectric constant tensor:
#      x y z
#    x 3.734740 0.000000 0.000000 
#    y 0.000000 3.734740 0.000000 
#    z 0.000000 0.000000 3.738170 
# 
# 
# High freq. dielectric constant tensor:
#      x y z
#    x 1.813910 0.000000 0.000000 
#    y 0.000000 1.813910 0.000000 
#    z 0.000000 0.000000 1.815410 
# 
# From -- ./inp_files/3724.got.cif
#   From: 2010.03.12/outbox.cif.g09.slc.cpg/sg154_2_cif.got.tgz:3724.got - 2010.04.03 13:51:21.
