data_PCOD8322801
_publ_section_title
;
Structure prediction by ZEFSAII (Michael W. Deem and Ramdas Pophale) SiO2 
 PCOD8322801
Probable space group: P 3 1 C
;
_chemical_formula_sum "Si O2"
_cell_formula_units_Z 28
_cell_length_a 13.616621
_cell_length_b 13.616621
_cell_length_c 8.772301
_cell_angle_alpha 90.000000
_cell_angle_beta 90.000000
_cell_angle_gamma 120.000000
_cell_volume 1408.584341
_symmetry_space_group_name_H-M "P 3 1 C"
_symmetry_group_IT_number 159
_symmetry_cell_setting 'hexagonal'
loop_
_space_group_symop_operation_xyz
x,y,z
-y,x-y,z
-x+y,-x,z
y,x,1/2+z
x-y,-y,1/2+z
-x,-x+y,1/2+z
loop_
_atom_site_type_symbol
_atom_site_label
_atom_site_fract_x
_atom_site_fract_y
_atom_site_fract_z
Si Si1 0.879779 0.341392 0.806840
Si Si2 0.461614 0.120224 0.448650
Si Si3 0.116184 0.880193 0.949639
Si Si4 0.333334 0.666667 0.447103
Si Si5 0.666668 0.333335 0.308381
Si Si6 0.880195 0.116185 0.805856
O O1 0.882120 0.363623 0.627745
O O2 0.789604 0.366417 0.885740
O O3 0.849327 0.213166 0.842981
O O4 0.000002 0.429630 0.877743
O O5 0.363839 0.150675 0.412512
O O6 0.576812 0.210398 0.369747
O O7 0.999999 0.781616 0.877749
O O8 0.146281 0.999999 0.877747
O O9 0.100412 0.887770 0.127747
O O10 0.333334 0.666667 0.627742
#
# Coordination Sequence:
#
# PCOD8322801 Si02
#       6
#     6   6   6   2   2   6
#     4  10  22  41  62  86 117 152 194 244 292 344
#     4  10  22  41  62  86 117 152 194 244 292 344
#     4  10  20  34  55  82 115 153 193 238 287 340
#     4  12  25  41  64  90 118 155 193 234 289 350
#     4  12  25  41  64  90 118 155 193 234 289 350
#     4  10  20  34  55  82 115 153 193 238 287 340
#
# _framework density 19.878112000000002
#
# number of rings (size 3 to 8) (size 9 to 14) (size 15 to 20)
#    0.000    1.714    0.000    4.286    0.000    6.857 
#    0.000    4.286    0.000    0.000    0.000    0.000 
#    0.000    0.000    0.000    0.000    0.000    0.000 
#
# Total GULP energy -347380.373566 kJ/mol
# GULP energy per Si atom -12406.441913 kJ/mol
# Density = 1.983287 g / cm^3
# Si number density = 19.878112 Si / 1000 Ang^3
#
#
#
# Elastic Constant Matrix: (Units=GPa)
#
#
# Indices 1 2 3 4 5 6 
#
# 1 113.1202 59.0649 61.4589 0.0000 0.0003 0.0003
# 2 59.0649 113.1203 61.4590 0.0001 -0.0002 -0.0002
# 3 61.4589 61.4590 130.1307 -0.0001 -0.0001 0.0001
# 4 0.0000 0.0001 -0.0001 35.1252 0.0001 -0.0002
# 5 0.0003 -0.0002 -0.0001 0.0001 35.1252 0.0000
# 6 0.0003 -0.0002 0.0001 -0.0002 0.0000 27.0274
#
#
#
# Elastic Compliance Matrix: (Units=1/GPa)
#
#
# Indices 1 2 3 4 5 6 
#
# 1 0.013631 -0.004869 -0.004138 0.000000 0.000000 0.000000
# 2 -0.004869 0.013631 -0.004138 0.000000 0.000000 0.000000
# 3 -0.004138 -0.004138 0.011593 0.000000 0.000000 0.000000
# 4 0.000000 0.000000 0.000000 0.028470 0.000000 0.000000
# 5 0.000000 0.000000 0.000000 0.000000 0.028470 0.000000
# 6 0.000000 0.000000 0.000000 0.000000 0.000000 0.037000
#
#
# Mechanical properties :
#
#
# Convention : Reuss Voigt Hill
#
# Bulk Modulus (GPa) = 79.58901 80.03740 79.81321
# Shear Modulus (GPa) = 30.62384 31.08144 30.85264
#
# Velocity S-wave (km/s) = 3.92928 3.95853 3.94393
# Velocity P-wave (km/s) = 7.79173 7.82590 7.80884
#
# Compressibility (1/GPa) = 0.01256455
#
# Stress axis : x y z
#
# Youngs Moduli (GPa) = 73.36406 73.36409 86.25695
#
# Poissons Ratio (x) = 0.35720 0.35693
# Poissons Ratio (y) = 0.35720 0.35694
# Poissons Ratio (z) = 0.30358 0.30358
#
# Static dielectric constant tensor:
#      x y z
#    x 3.600040 0.000010 0.000000 
#    y 0.000010 3.600050 -0.000010 
#    z 0.000000 -0.000010 3.742160 
# 
# 
# High freq. dielectric constant tensor:
#      x y z
#    x 1.775050 0.000000 0.000000 
#    y 0.000000 1.775050 0.000000 
#    z 0.000000 0.000000 1.793500 
# 
# From -- ./inp_files/367.got.cif
#   From: 2010.03.12/outbox.cif.g09.slc.cpg/sg159_cif.got.tgz:367.got - 2010.04.03 14:00:19.
