data_PCOD8322214
_publ_section_title
;
Structure prediction by ZEFSAII (Michael W. Deem and Ramdas Pophale) SiO2 
 PCOD8322214
Probable space group: P 31 2 1
;
_chemical_formula_sum "Si O2"
_cell_formula_units_Z 48
_cell_length_a 10.847987
_cell_length_b 10.847987
_cell_length_c 21.526025
_cell_angle_alpha 90.000000
_cell_angle_beta 90.000000
_cell_angle_gamma 120.000000
_cell_volume 2193.778542
_symmetry_space_group_name_H-M "P 31 2 1"
_symmetry_group_IT_number 152
_symmetry_cell_setting 'hexagonal'
loop_
_space_group_symop_operation_xyz
x,y,z
-y,x-y,1/3+z
-x+y,-x,2/3+z
x-y,-y,2/3-z
-x,-x+y,1/3-z
y,x,-z
loop_
_atom_site_type_symbol
_atom_site_label
_atom_site_fract_x
_atom_site_fract_y
_atom_site_fract_z
Si Si1 0.647371 0.176813 0.593700
Si Si2 0.369992 0.037373 0.263729
Si Si3 0.600935 0.021417 0.472740
Si Si4 0.715735 0.224331 0.112250
Si Si5 0.554906 0.371256 0.549225
Si Si6 0.271788 0.113196 0.503341
Si Si7 0.607929 0.741259 0.254205
Si Si8 0.427284 0.031735 0.696135
O O1 0.804238 0.196512 0.596132
O O2 0.631961 0.317538 0.598512
O O3 0.556631 0.069221 0.648340
O O4 0.587592 0.121703 0.524526
O O5 0.508384 0.054974 0.229712
O O6 0.380061 0.000000 0.333334
O O7 0.222154 0.917298 0.233462
O O8 0.613659 0.897364 0.510006
O O9 0.724920 0.106585 0.422389
O O10 0.775938 0.370339 0.149300
O O11 0.553114 0.168457 0.092000
O O12 0.822754 0.257206 0.053869
O O13 0.392365 0.253765 0.536744
O O14 0.560325 0.509449 0.578292
O O15 0.132117 0.132117 0.500000
O O16 0.252050 0.977196 0.540684
O O17 0.651003 0.718755 0.324010
#
# Coordination Sequence:
#
# PCOD8322214 Si02
#       8
#     6   6   6   6   6   6   6   6
#     4  12  23  43  71 101 144 182 232 295 362 410
#     4  12  26  43  70 108 134 183 251 286 343 439
#     4  12  22  45  72  95 145 193 222 286 360 432
#     4  12  23  45  70 100 143 183 236 290 360 426
#     4  12  23  44  69 106 142 180 231 299 370 411
#     4  12  24  45  67 101 143 190 229 289 364 423
#     4  12  24  45  70 101 147 186 236 288 362 419
#     4  12  27  40  71 115 135 177 240 313 346 414
#
# _framework density 21.880056
#
# number of rings (size 3 to 8) (size 9 to 14) (size 15 to 20)
#    0.000    0.000    8.750    1.875    7.000    0.000 
#    0.000    1.250    0.000    0.750    0.000    0.000 
#    0.000    0.000    0.000    0.000    0.000    0.000 
#
# Total GULP energy -594965.384771 kJ/mol
# GULP energy per Si atom -12395.112183 kJ/mol
# Density = 2.183026 g / cm^3
# Si number density = 21.880056 Si / 1000 Ang^3
#
#
#
# Elastic Constant Matrix: (Units=GPa)
#
#
# Indices 1 2 3 4 5 6 
#
# 1 90.7793 33.9920 28.9548 -5.5175 0.0006 0.0000
# 2 33.9920 90.7793 28.9548 5.5175 -0.0006 0.0000
# 3 28.9548 28.9548 101.2212 0.0000 0.0000 0.0000
# 4 -5.5175 5.5175 0.0000 36.0458 0.0000 -0.0006
# 5 0.0006 -0.0006 0.0000 0.0000 36.0458 -5.5175
# 6 0.0000 0.0000 0.0000 -0.0006 -5.5175 28.3937
#
#
#
# Elastic Compliance Matrix: (Units=1/GPa)
#
#
# Indices 1 2 3 4 5 6 
#
# 1 0.013696 -0.004454 -0.002644 0.002778 0.000000 0.000000
# 2 -0.004454 0.013696 -0.002644 -0.002778 0.000000 0.000000
# 3 -0.002644 -0.002644 0.011392 0.000000 0.000000 0.000000
# 4 0.002778 -0.002778 0.000000 0.028593 0.000000 0.000001
# 5 0.000000 0.000000 0.000000 0.000000 0.028593 0.005556
# 6 0.000000 0.000000 0.000000 0.000001 0.005556 0.036299
#
#
# Mechanical properties :
#
#
# Convention : Reuss Voigt Hill
#
# Bulk Modulus (GPa) = 51.81185 51.84256 51.82721
# Shear Modulus (GPa) = 31.60889 32.82226 32.21558
#
# Velocity S-wave (km/s) = 3.80497 3.87731 3.84131
# Velocity P-wave (km/s) = 6.56011 6.61741 6.58883
#
# Compressibility (1/GPa) = 0.01930060
#
# Stress axis : x y z
#
# Youngs Moduli (GPa) = 73.01660 73.01660 87.78254
#
# Poissons Ratio (x) = 0.32521 0.23206
# Poissons Ratio (y) = 0.32521 0.23206
# Poissons Ratio (z) = 0.19303 0.19303
#
# Static dielectric constant tensor:
#      x y z
#    x 4.094970 0.000000 0.000000 
#    y 0.000000 4.094970 0.000000 
#    z 0.000000 0.000000 4.062040 
# 
# 
# High freq. dielectric constant tensor:
#      x y z
#    x 1.849000 0.000000 0.000000 
#    y 0.000000 1.849000 0.000000 
#    z 0.000000 0.000000 1.866270 
# 
# From -- ./inp_files/2839.got.cif
#   From: 2010.03.12/outbox.cif.g09.slc.cpg/sg152_2_cif.got.tgz:2839.got - 2010.04.03 13:45:27.
