data_PCOD8322151
_publ_section_title
;
Structure prediction by ZEFSAII (Michael W. Deem and Ramdas Pophale) SiO2 
 PCOD8322151
Probable space group: P 31 2 1
;
_chemical_formula_sum "Si O2"
_cell_formula_units_Z 36
_cell_length_a 12.392245
_cell_length_b 12.392245
_cell_length_c 13.405353
_cell_angle_alpha 90.000000
_cell_angle_beta 90.000000
_cell_angle_gamma 120.000000
_cell_volume 1782.825628
_symmetry_space_group_name_H-M "P 31 2 1"
_symmetry_group_IT_number 152
_symmetry_cell_setting 'hexagonal'
loop_
_space_group_symop_operation_xyz
x,y,z
-y,x-y,1/3+z
-x+y,-x,2/3+z
x-y,-y,2/3-z
-x,-x+y,1/3-z
y,x,-z
loop_
_atom_site_type_symbol
_atom_site_label
_atom_site_fract_x
_atom_site_fract_y
_atom_site_fract_z
Si Si1 0.286130 0.862649 0.290586
Si Si2 0.330461 0.910931 0.748771
Si Si3 0.842221 0.568775 0.443714
Si Si4 0.670621 0.126249 0.567051
Si Si5 0.299211 0.713432 0.601934
Si Si6 0.418945 0.122828 0.602648
O O1 0.157897 0.779499 0.351573
O O2 0.354847 0.782912 0.304643
O O3 0.254505 0.876914 0.177015
O O4 0.371900 0.000000 0.333334
O O5 0.199292 0.839373 0.809722
O O6 0.352302 0.805802 0.697586
O O7 0.434078 0.000000 0.833334
O O8 0.327082 0.992139 0.656608
O O9 0.745370 0.421508 0.462534
O O10 0.823221 0.596617 0.329317
O O11 0.982676 0.605403 0.463840
O O12 0.737838 0.208660 0.469541
O O13 0.562174 0.152156 0.607432
#
# Coordination Sequence:
#
# PCOD8322151 Si02
#       6
#     6   6   6   6   6   6
#     4  11  24  39  61  93 136 173 210 265 322 389
#     4  10  22  38  60  86 129 165 207 262 316 387
#     4  11  23  39  60  94 127 169 216 255 325 387
#     4  11  23  37  61  95 128 173 211 261 326 391
#     4  11  22  35  59  89 135 168 209 254 316 386
#     4  10  22  39  58  91 128 166 209 259 318 384
#
# _framework density 20.192664000000001
#
# number of rings (size 3 to 8) (size 9 to 14) (size 15 to 20)
#    0.000    1.333    3.333    2.000    9.333    0.667 
#    0.000    0.000    0.000    0.000   39.000    0.000 
#    0.000    0.000    0.000    0.000    0.000    0.000 
#
# Total GULP energy -446029.009190 kJ/mol
# GULP energy per Si atom -12389.694700 kJ/mol
# Density = 2.014670 g / cm^3
# Si number density = 20.192664 Si / 1000 Ang^3
#
#
#
# Elastic Constant Matrix: (Units=GPa)
#
#
# Indices 1 2 3 4 5 6 
#
# 1 62.5954 30.0188 28.0748 -2.3479 0.0000 0.0000
# 2 30.0188 62.5954 28.0748 2.3479 0.0000 0.0000
# 3 28.0748 28.0748 116.9389 0.0000 0.0000 0.0000
# 4 -2.3479 2.3479 0.0000 30.2038 0.0000 0.0000
# 5 0.0000 0.0000 0.0000 0.0000 30.2038 -2.3479
# 6 0.0000 0.0000 0.0000 0.0000 -2.3479 16.2883
#
#
#
# Elastic Compliance Matrix: (Units=1/GPa)
#
#
# Indices 1 2 3 4 5 6 
#
# 1 0.021841 -0.009204 -0.003034 0.002413 0.000000 0.000000
# 2 -0.009204 0.021841 -0.003034 -0.002413 0.000000 0.000000
# 3 -0.003034 -0.003034 0.010008 0.000000 0.000000 0.000000
# 4 0.002413 -0.002413 0.000000 0.033484 0.000000 0.000000
# 5 0.000000 0.000000 0.000000 0.000000 0.033484 0.004826
# 6 0.000000 0.000000 0.000000 0.000000 0.004826 0.062089
#
#
# Mechanical properties :
#
#
# Convention : Reuss Voigt Hill
#
# Bulk Modulus (GPa) = 43.20318 46.05182 44.62750
# Shear Modulus (GPa) = 22.62390 25.73659 24.18024
#
# Velocity S-wave (km/s) = 3.35087 3.57396 3.46421
# Velocity P-wave (km/s) = 6.03432 6.31559 6.17656
#
# Compressibility (1/GPa) = 0.02314644
#
# Stress axis : x y z
#
# Youngs Moduli (GPa) = 45.78593 45.78593 99.91786
#
# Poissons Ratio (x) = 0.42141 0.30314
# Poissons Ratio (y) = 0.42141 0.30314
# Poissons Ratio (z) = 0.13891 0.13891
#
# Static dielectric constant tensor:
#      x y z
#    x 3.492640 0.000000 0.000000 
#    y 0.000000 3.492640 0.000000 
#    z 0.000000 0.000000 3.995010 
# 
# 
# High freq. dielectric constant tensor:
#      x y z
#    x 1.759770 0.000000 0.000000 
#    y 0.000000 1.759770 0.000000 
#    z 0.000000 0.000000 1.814310 
# 
# From -- ./inp_files/2047.got.cif
#   From: 2010.03.12/outbox.cif.g09.slc.cpg/sg152_2_cif.got.tgz:2047.got - 2010.04.03 13:45:27.
