data_PCOD8323680
_publ_section_title
;
Structure prediction by ZEFSAII (Michael W. Deem and Ramdas Pophale) SiO2 
 PCOD8323680
Probable space group: P -3 M 1
;
_chemical_formula_sum "Si O2"
_cell_formula_units_Z 66
_cell_length_a 12.452723
_cell_length_b 12.452723
_cell_length_c 28.523409
_cell_angle_alpha 90.000000
_cell_angle_beta 90.000000
_cell_angle_gamma 120.000000
_cell_volume 3830.546304
_symmetry_space_group_name_H-M "P -3 M 1"
_symmetry_group_IT_number 164
_symmetry_cell_setting 'hexagonal'
loop_
_space_group_symop_operation_xyz
x,y,z
-y,x-y,z
-x+y,-x,z
x-y,-y,-z
-x,-x+y,-z
y,x,-z
-x,-y,-z
y,-x+y,-z
x-y,x,-z
-x+y,y,z
x,x-y,z
-y,-x,z
loop_
_atom_site_type_symbol
_atom_site_label
_atom_site_fract_x
_atom_site_fract_y
_atom_site_fract_z
Si Si1 0.750529 0.001507 0.777151
Si Si2 0.415959 0.082486 0.866178
Si Si3 0.665401 0.583860 0.044256
Si Si4 0.246958 0.000000 0.500000
Si Si5 0.001162 0.748389 0.398736
Si Si6 0.416018 0.083419 0.688489
O O1 0.894703 0.105297 0.779142
O O2 0.674566 0.019441 0.818572
O O3 0.690268 0.006755 0.728315
O O4 0.738193 0.869097 0.782600
O O5 0.554938 0.109876 0.861572
O O6 0.422125 0.211063 0.876266
O O7 0.343696 0.991594 0.908635
O O8 0.794968 0.589935 0.043714
O O9 0.558580 0.441421 0.041343
O O10 0.659495 0.659495 0.000000
O O11 0.316906 0.012297 0.549527
O O12 0.113363 0.886638 0.509025
O O13 0.868917 0.737834 0.389956
O O14 0.021329 0.664856 0.361190
O O15 0.107545 0.892456 0.393663
O O16 0.536887 0.073774 0.697233
O O17 0.454368 0.227184 0.689897
#
# Coordination Sequence:
#
# PCOD8323680 Si02
#       6
#    12  12  12   6  12  12
#     4  10  20  34  53  76 101 127 156 194 241 291
#     4  10  20  34  54  78 104 134 167 203 240 282
#     4  10  20  34  53  76 103 135 170 209 251 295
#     4   8  13  22  39  66  96 122 148 182 230 284
#     4   9  16  27  46  71  97 122 150 189 237 287
#     4  10  20  33  49  68  92 124 161 200 238 278
#
# _framework density 17.229918000000001
#
# number of rings (size 3 to 8) (size 9 to 14) (size 15 to 20)
#    0.000    2.364    0.000    3.182    0.000    1.455 
#    0.000    5.909    0.000   12.000    0.000    0.000 
#    0.000    0.000    0.000    0.000    0.000    0.000 
#
# Total GULP energy -818209.794673 kJ/mol
# GULP energy per Si atom -12397.118101 kJ/mol
# Density = 1.719070 g / cm^3
# Si number density = 17.229918 Si / 1000 Ang^3
#
#
#
# Elastic Constant Matrix: (Units=GPa)
#
#
# Indices 1 2 3 4 5 6 
#
# 1 83.6213 50.1759 41.7560 -2.2937 0.0000 0.0000
# 2 50.1759 83.6213 41.7560 2.2937 0.0000 0.0000
# 3 41.7560 41.7560 121.5804 0.0000 0.0000 0.0000
# 4 -2.2937 2.2937 0.0000 24.7742 0.0000 0.0000
# 5 0.0000 0.0000 0.0000 0.0000 24.7742 -2.2937
# 6 0.0000 0.0000 0.0000 0.0000 -2.2937 16.7227
#
#
#
# Elastic Compliance Matrix: (Units=1/GPa)
#
#
# Indices 1 2 3 4 5 6 
#
# 1 0.019899 -0.010385 -0.003267 0.002804 0.000000 0.000000
# 2 -0.010385 0.019899 -0.003267 -0.002804 0.000000 0.000000
# 3 -0.003267 -0.003267 0.010469 0.000000 0.000000 0.000000
# 4 0.002804 -0.002804 0.000000 0.040884 0.000000 0.000000
# 5 0.000000 0.000000 0.000000 0.000000 0.040884 0.005608
# 6 0.000000 0.000000 0.000000 0.000000 0.005608 0.060568
#
#
# Mechanical properties :
#
#
# Convention : Reuss Voigt Hill
#
# Bulk Modulus (GPa) = 60.87622 61.79985 61.33804
# Shear Modulus (GPa) = 21.55932 23.59653 22.57793
#
# Velocity S-wave (km/s) = 3.54117 3.70470 3.62386
# Velocity P-wave (km/s) = 7.21999 7.36515 7.29293
#
# Compressibility (1/GPa) = 0.01642678
#
# Stress axis : x y z
#
# Youngs Moduli (GPa) = 50.25444 50.25444 95.51769
#
# Poissons Ratio (x) = 0.52191 0.31208
# Poissons Ratio (y) = 0.52191 0.31208
# Poissons Ratio (z) = 0.16420 0.16420
#
# Static dielectric constant tensor:
#      x y z
#    x 3.032530 0.000000 0.000000 
#    y 0.000000 3.032530 0.000000 
#    z 0.000000 0.000000 3.564830 
# 
# 
# High freq. dielectric constant tensor:
#      x y z
#    x 1.651220 0.000000 0.000000 
#    y 0.000000 1.651220 0.000000 
#    z 0.000000 0.000000 1.693220 
# 
# From -- ./inp_files/5497.got.cif
#   From: 2010.03.12/outbox.cif.g09.slc.cpg/sg164_3_cif.got.tgz:5497.got - 2010.04.02 06:32:59.
