data_PCOD8323264
_publ_section_title
;
Structure prediction by ZEFSAII (Michael W. Deem and Ramdas Pophale) SiO2 
 PCOD8323264
Probable space group: P -3 1 C
;
_chemical_formula_sum "Si O2"
_cell_formula_units_Z 30
_cell_length_a 8.357042
_cell_length_b 8.357042
_cell_length_c 22.278385
_cell_angle_alpha 90.000000
_cell_angle_beta 90.000000
_cell_angle_gamma 120.000000
_cell_volume 1347.471245
_symmetry_space_group_name_H-M "P -3 1 C"
_symmetry_group_IT_number 163
_symmetry_cell_setting 'hexagonal'
loop_
_space_group_symop_operation_xyz
x,y,z
-y,x-y,z
-x+y,-x,z
-y,-x,1/2-z
-x+y,y,1/2-z
x,x-y,1/2-z
-x,-y,-z
y,-x+y,-z
x-y,x,-z
y,x,1/2+z
x-y,-y,1/2+z
-x,-x+y,1/2+z
loop_
_atom_site_type_symbol
_atom_site_label
_atom_site_fract_x
_atom_site_fract_y
_atom_site_fract_z
Si Si1 0.333335 0.666668 0.079147
Si Si2 0.640186 0.651648 0.634491
Si Si3 0.000000 0.000000 0.678964
Si Si4 0.905650 0.452825 0.750000
Si Si5 0.666668 0.333335 0.437280
O O1 0.535246 0.725772 0.104812
O O2 0.333334 0.666667 0.008317
O O3 0.505450 0.536718 0.690902
O O4 0.522318 0.682703 0.584625
O O5 0.800589 0.849660 0.655052
O O6 0.000000 0.000000 0.750000
O O7 0.772317 0.544633 0.750000
#
# Coordination Sequence:
#
# PCOD8323264 Si02
#       5
#     4  12   4   6   4
#     4  12  24  52  74  97 147 189 244 290 349 417
#     4  12  25  46  71 106 141 186 234 294 357 419
#     4  12  30  42  73 107 148 174 234 292 371 424
#     4  10  20  40  72  96 136 176 222 286 362 414
#     4  12  30  43  71 106 141 195 244 284 343 432
#
# _framework density 22.263928
#
# number of rings (size 3 to 8) (size 9 to 14) (size 15 to 20)
#    0.400    0.000    4.000    4.800    5.600    0.000 
#    0.000    2.000    0.000    0.000    0.000    0.000 
#    0.000    0.000    0.000    0.000    0.000    0.000 
#
# Total GULP energy -372109.859557 kJ/mol
# GULP energy per Si atom -12403.661985 kJ/mol
# Density = 2.221325 g / cm^3
# Si number density = 22.263928 Si / 1000 Ang^3
#
#
#
# Elastic Constant Matrix: (Units=GPa)
#
#
# Indices 1 2 3 4 5 6 
#
# 1 77.7639 24.9239 37.8553 0.0002 0.4279 0.0005
# 2 24.9239 77.7644 37.8552 0.0003 -0.4276 0.0000
# 3 37.8553 37.8552 190.2751 -0.0022 -0.0013 0.0000
# 4 0.0002 0.0003 -0.0022 54.6969 0.0004 -0.4275
# 5 0.4279 -0.4276 -0.0013 0.0004 54.6964 0.0004
# 6 0.0005 0.0000 0.0000 -0.4275 0.0004 26.4198
#
#
#
# Elastic Compliance Matrix: (Units=1/GPa)
#
#
# Indices 1 2 3 4 5 6 
#
# 1 0.015170 -0.003758 -0.002270 0.000000 -0.000148 0.000000
# 2 -0.003758 0.015170 -0.002270 0.000000 0.000148 0.000000
# 3 -0.002270 -0.002270 0.006159 0.000000 0.000000 0.000000
# 4 0.000000 0.000000 0.000000 0.018285 0.000000 0.000296
# 5 -0.000148 0.000148 0.000000 0.000000 0.018285 0.000000
# 6 0.000000 0.000000 0.000000 0.000296 0.000000 0.037855
#
#
# Mechanical properties :
#
#
# Convention : Reuss Voigt Hill
#
# Bulk Modulus (GPa) = 50.24735 60.78580 55.51658
# Shear Modulus (GPa) = 37.27047 43.50723 40.38885
#
# Velocity S-wave (km/s) = 4.09593 4.42538 4.26384
# Velocity P-wave (km/s) = 6.70722 7.31257 7.01642
#
# Compressibility (1/GPa) = 0.01990155
#
# Stress axis : x y z
#
# Youngs Moduli (GPa) = 65.92021 65.92077 162.36499
#
# Poissons Ratio (x) = 0.24770 0.36865
# Poissons Ratio (y) = 0.24770 0.36864
# Poissons Ratio (z) = 0.14967 0.14967
#
# Static dielectric constant tensor:
#      x y z
#    x 3.923230 -0.000010 0.000000 
#    y -0.000010 3.923220 0.000000 
#    z 0.000000 0.000000 4.055590 
# 
# 
# High freq. dielectric constant tensor:
#      x y z
#    x 1.874540 0.000000 0.000000 
#    y 0.000000 1.874540 0.000000 
#    z 0.000000 0.000000 1.883840 
# 
# From -- ./inp_files/3765.got.cif
#   From: 2010.03.12/outbox.cif.g09.slc.cpg/sg163_2_cif.got.tgz:3765.got - 2010.04.02 06:30:25.
