data_PCOD8323686
_publ_section_title
;
Structure prediction by ZEFSAII (Michael W. Deem and Ramdas Pophale) SiO2 
 PCOD8323686
Probable space group: P -3 M 1
;
_chemical_formula_sum "Si O2"
_cell_formula_units_Z 66
_cell_length_a 12.666340
_cell_length_b 12.666340
_cell_length_c 27.855976
_cell_angle_alpha 90.000000
_cell_angle_beta 90.000000
_cell_angle_gamma 120.000000
_cell_volume 3870.359391
_symmetry_space_group_name_H-M "P -3 M 1"
_symmetry_group_IT_number 164
_symmetry_cell_setting 'hexagonal'
loop_
_space_group_symop_operation_xyz
x,y,z
-y,x-y,z
-x+y,-x,z
x-y,-y,-z
-x,-x+y,-z
y,x,-z
-x,-y,-z
y,-x+y,-z
x-y,x,-z
-x+y,y,z
x,x-y,z
-y,-x,z
loop_
_atom_site_type_symbol
_atom_site_label
_atom_site_fract_x
_atom_site_fract_y
_atom_site_fract_z
Si Si1 0.089032 0.666749 0.959892
Si Si2 0.912509 0.579159 0.410680
Si Si3 0.333292 0.912482 0.321543
Si Si4 0.577154 0.666464 0.852171
Si Si5 0.754922 0.000497 0.767045
Si Si6 0.000000 0.754211 0.500000
O O1 0.110788 0.555394 0.969426
O O2 0.215289 0.784712 0.968126
O O3 0.038676 0.660725 0.905990
O O4 0.000000 0.670446 0.000000
O O5 0.779096 0.558192 0.400481
O O6 0.900424 0.450212 0.423064
O O7 0.976907 0.668567 0.454773
O O8 0.994089 0.640221 0.364314
O O9 0.443641 0.887282 0.313093
O O10 0.214056 0.785945 0.334674
O O11 0.315733 0.971587 0.273848
O O12 0.537421 0.768711 0.848922
O O13 0.461079 0.538922 0.837073
O O14 0.688671 0.696667 0.817139
O O15 0.751848 0.875924 0.753974
O O16 0.894186 0.105814 0.771623
O O17 0.885425 0.770850 0.511483
#
# Coordination Sequence:
#
# PCOD8323686 Si02
#       6
#    12  12  12  12  12   6
#     4   9  17  29  46  67  91 119 151 188 229 273
#     4  10  20  34  52  74 100 129 161 197 237 280
#     4  10  20  34  52  73  97 125 157 194 235 279
#     4   9  17  30  48  69  91 117 151 191 233 274
#     4  10  20  33  49  69  94 124 156 190 229 275
#     4  10  20  34  52  74 100 130 164 200 238 280
#
# _framework density 17.052681
#
# number of rings (size 3 to 8) (size 9 to 14) (size 15 to 20)
#    0.000    2.364    0.000    2.909    0.000    2.182 
#    0.000    0.000    0.000   18.000    0.000    0.000 
#    0.000    0.000    0.000    0.000    0.000    0.000 
#
# Total GULP energy -818484.222704 kJ/mol
# GULP energy per Si atom -12401.276102 kJ/mol
# Density = 1.701387 g / cm^3
# Si number density = 17.052681 Si / 1000 Ang^3
#
#
#
# Elastic Constant Matrix: (Units=GPa)
#
#
# Indices 1 2 3 4 5 6 
#
# 1 103.0894 57.8750 63.1798 2.5868 0.0000 0.0000
# 2 57.8750 103.0894 63.1798 -2.5868 0.0000 0.0000
# 3 63.1798 63.1798 104.1894 0.0000 0.0000 0.0000
# 4 2.5868 -2.5868 0.0000 28.5558 0.0000 0.0000
# 5 0.0000 0.0000 0.0000 0.0000 28.5558 2.5868
# 6 0.0000 0.0000 0.0000 0.0000 2.5868 22.6072
#
#
#
# Elastic Compliance Matrix: (Units=1/GPa)
#
#
# Indices 1 2 3 4 5 6 
#
# 1 0.017103 -0.005246 -0.007190 -0.002025 0.000000 0.000000
# 2 -0.005246 0.017103 -0.007190 0.002025 0.000000 0.000000
# 3 -0.007190 -0.007190 0.018318 0.000000 0.000000 0.000000
# 4 -0.002025 0.002025 0.000000 0.035386 0.000000 0.000000
# 5 0.000000 0.000000 0.000000 0.000000 0.035386 -0.004049
# 6 0.000000 0.000000 0.000000 0.000000 -0.004049 0.044697
#
#
# Mechanical properties :
#
#
# Convention : Reuss Voigt Hill
#
# Bulk Modulus (GPa) = 75.34821 75.42638 75.38730
# Shear Modulus (GPa) = 23.62203 24.35265 23.98734
#
# Velocity S-wave (km/s) = 3.72592 3.78310 3.75462
# Velocity P-wave (km/s) = 7.92410 7.96303 7.94359
#
# Compressibility (1/GPa) = 0.01327171
#
# Stress axis : x y z
#
# Youngs Moduli (GPa) = 58.47063 58.47063 54.59224
#
# Poissons Ratio (x) = 0.30673 0.39251
# Poissons Ratio (y) = 0.30673 0.39251
# Poissons Ratio (z) = 0.42039 0.42039
#
# Static dielectric constant tensor:
#      x y z
#    x 3.196120 0.000000 0.000000 
#    y 0.000000 3.196120 0.000000 
#    z 0.000000 0.000000 3.380160 
# 
# 
# High freq. dielectric constant tensor:
#      x y z
#    x 1.661340 0.000000 0.000000 
#    y 0.000000 1.661340 0.000000 
#    z 0.000000 0.000000 1.669310 
# 
# From -- ./inp_files/5412.got.cif
#   From: 2010.03.12/outbox.cif.g09.slc.cpg/sg164_3_cif.got.tgz:5412.got - 2010.04.02 06:32:59.
