data_PCOD8323459
_publ_section_title
;
Structure prediction by ZEFSAII (Michael W. Deem and Ramdas Pophale) SiO2 
 PCOD8323459
Probable space group: P -3 M 1
;
_chemical_formula_sum "Si O2"
_cell_formula_units_Z 90
_cell_length_a 17.721874
_cell_length_b 17.721874
_cell_length_c 19.059035
_cell_angle_alpha 90.000000
_cell_angle_beta 90.000000
_cell_angle_gamma 120.000000
_cell_volume 5183.830925
_symmetry_space_group_name_H-M "P -3 M 1"
_symmetry_group_IT_number 164
_symmetry_cell_setting 'hexagonal'
loop_
_space_group_symop_operation_xyz
x,y,z
-y,x-y,z
-x+y,-x,z
x-y,-y,-z
-x,-x+y,-z
y,x,-z
-x,-y,-z
y,-x+y,-z
x-y,x,-z
-x+y,y,z
x,x-y,z
-y,-x,z
loop_
_atom_site_type_symbol
_atom_site_label
_atom_site_fract_x
_atom_site_fract_y
_atom_site_fract_z
Si Si1 0.501231 0.832741 0.098122
Si Si2 0.971215 0.573124 0.664503
Si Si3 0.628022 0.088000 0.043550
Si Si4 0.303589 0.066167 0.128493
Si Si5 0.332655 0.492645 0.616315
Si Si6 0.089802 0.734144 0.211044
Si Si7 0.826027 0.826027 0.000000
Si Si8 0.332902 0.494938 0.453944
O O1 0.430052 0.860104 0.116643
O O2 0.466274 0.733137 0.120927
O O3 0.587328 0.895327 0.141389
O O4 0.520531 0.838511 0.014886
O O5 0.962371 0.481186 0.685442
O O6 0.921406 0.597234 0.721972
O O7 0.924514 0.565953 0.590379
O O8 0.072949 0.646720 0.658766
O O9 0.550128 0.100256 0.076348
O O10 0.690058 0.091664 0.106132
O O11 0.588126 0.000000 0.000000
O O12 0.305155 0.152578 0.154610
O O13 0.238511 0.021947 0.064326
O O14 0.267800 0.000250 0.194420
O O15 0.240982 0.481963 0.642275
O O16 0.407982 0.592019 0.629374
O O17 0.328316 0.468346 0.534773
O O18 0.168077 0.831924 0.224899
O O19 0.838074 0.919037 0.021051
O O20 0.240667 0.481334 0.427827
O O21 0.403888 0.596113 0.443191
#
# Coordination Sequence:
#
# PCOD8323459 Si02
#       8
#    12  12  12  12  12  12   6  12
#     4  10  19  31  48  70  96 125 157 193 232 278
#     4  10  20  32  48  70  97 130 165 200 234 275
#     4  10  18  30  50  73  95 120 153 194 240 286
#     4  11  21  34  52  72  93 121 158 201 243 290
#     4   9  17  30  50  74 100 128 160 198 238 280
#     4  11  22  35  49  67  94 127 161 195 235 283
#     4  10  19  32  51  74  98 118 144 188 247 306
#     4   9  16  28  47  73 102 131 161 194 235 280
#
# _framework density 17.361677
#
# number of rings (size 3 to 8) (size 9 to 14) (size 15 to 20)
#    0.000    2.000    2.000    2.467    0.000    5.867 
#    0.000    0.000    0.000    4.800    0.000    0.933 
#    0.000    0.000    0.000    0.000    0.000   18.267 
#
# Total GULP energy -1115883.237575 kJ/mol
# GULP energy per Si atom -12398.702640 kJ/mol
# Density = 1.732216 g / cm^3
# Si number density = 17.361677 Si / 1000 Ang^3
#
#
#
# Elastic Constant Matrix: (Units=GPa)
#
#
# Indices 1 2 3 4 5 6 
#
# 1 98.5045 52.8031 30.5280 0.2061 0.0000 0.0000
# 2 52.8031 98.5045 30.5280 -0.2061 0.0000 0.0000
# 3 30.5280 30.5280 43.5670 0.0000 0.0000 0.0000
# 4 0.2061 -0.2061 0.0000 23.0006 0.0000 0.0000
# 5 0.0000 0.0000 0.0000 0.0000 23.0006 0.2061
# 6 0.0000 0.0000 0.0000 0.0000 0.2061 22.8507
#
#
#
# Elastic Compliance Matrix: (Units=1/GPa)
#
#
# Indices 1 2 3 4 5 6 
#
# 1 0.015549 -0.006334 -0.006457 -0.000196 0.000000 0.000000
# 2 -0.006334 0.015549 -0.006457 0.000196 0.000000 0.000000
# 3 -0.006457 -0.006457 0.032002 0.000000 0.000000 0.000000
# 4 -0.000196 0.000196 0.000000 0.043481 0.000000 0.000000
# 5 0.000000 0.000000 0.000000 0.000000 0.043481 -0.000392
# 6 0.000000 0.000000 0.000000 0.000000 -0.000392 0.043766
#
#
# Mechanical properties :
#
#
# Convention : Reuss Voigt Hill
#
# Bulk Modulus (GPa) = 40.64398 52.03268 46.33833
# Shear Modulus (GPa) = 20.78803 22.21818 21.50310
#
# Velocity S-wave (km/s) = 3.46403 3.58121 3.52311
# Velocity P-wave (km/s) = 6.28175 6.86549 6.58009
#
# Compressibility (1/GPa) = 0.02460389
#
# Stress axis : x y z
#
# Youngs Moduli (GPa) = 64.31395 64.31395 31.24822
#
# Poissons Ratio (x) = 0.40738 0.20176
# Poissons Ratio (y) = 0.40738 0.20176
# Poissons Ratio (z) = 0.41526 0.41526
#
# Static dielectric constant tensor:
#      x y z
#    x 3.323320 0.000000 0.000000 
#    y 0.000000 3.323320 0.000000 
#    z 0.000000 0.000000 3.011160 
# 
# 
# High freq. dielectric constant tensor:
#      x y z
#    x 1.670520 0.000000 0.000000 
#    y 0.000000 1.670520 0.000000 
#    z 0.000000 0.000000 1.642060 
# 
# From -- ./inp_files/4273.got.cif
#   From: 2010.03.12/outbox.cif.g09.slc.cpg/sg164_3_cif.got.tgz:4273.got - 2010.04.02 06:32:59.
