data_PCOD8323034
_publ_section_title
;
Structure prediction by ZEFSAII (Michael W. Deem and Ramdas Pophale) SiO2 
 PCOD8323034
Probable space group: P -3 1 M 
;
_chemical_formula_sum "Si O2"
_cell_formula_units_Z 52
_cell_length_a 13.532958
_cell_length_b 13.532958
_cell_length_c 19.137216
_cell_angle_alpha 90.000000
_cell_angle_beta 90.000000
_cell_angle_gamma 120.000000
_cell_volume 3035.252730
_symmetry_space_group_name_H-M "P -3 1 M "
_symmetry_group_IT_number 162
_symmetry_cell_setting 'hexagonal'
loop_
_space_group_symop_operation_xyz
x,y,z
-y,x-y,z
-x+y,-x,z
-y,-x,-z
-x+y,y,-z
x,x-y,-z
-x,-y,-z
y,-x+y,-z
x-y,x,-z
y,x,z
x-y,-y,z
-x,-x+y,z
loop_
_atom_site_type_symbol
_atom_site_label
_atom_site_fract_x
_atom_site_fract_y
_atom_site_fract_z
Si Si1 0.132828 0.867173 0.500000
Si Si2 0.393615 0.393615 0.278436
Si Si3 0.790743 0.578837 0.365369
Si Si4 0.766524 0.000000 0.850474
Si Si5 0.000000 0.627387 0.725633
Si Si6 0.771710 0.000000 0.001996
Si Si7 0.762670 0.000000 0.154270
Si Si8 0.666668 0.333334 0.418163
O O1 0.187313 0.846392 0.568291
O O2 0.000000 0.813585 0.513303
O O3 0.426653 0.315423 0.323052
O O4 0.510058 0.510058 0.263120
O O5 0.328575 0.328575 0.207906
O O6 0.725453 0.619142 0.314830
O O7 0.695670 0.455965 0.391411
O O8 0.776961 0.887705 0.835881
O O9 0.670915 0.000000 0.802667
O O10 0.714117 0.000000 0.927863
O O11 0.712247 0.000000 0.075891
O O12 0.791426 0.895713 0.000000
O O13 0.666668 0.333334 0.500000
#
# Coordination Sequence:
#
# PCOD8323034 Si02
#       8
#     6   6  12   6   6   6   6   4
#     4  12  25  40  60  84 114 151 182 230 292 350
#     4  12  24  38  58  83 115 151 190 239 286 337
#     4  12  24  39  59  83 114 146 189 237 288 342
#     4  10  19  34  58  89 120 152 186 230 287 347
#     4  12  24  38  58  83 115 151 190 239 286 337
#     4   8  15  28  51  84 120 150 184 226 276 340
#     4  10  19  34  58  89 120 152 186 230 287 347
#     4  12  24  39  63  90 105 142 197 247 294 336
#
# _framework density 17.132017000000001
#
# number of rings (size 3 to 8) (size 9 to 14) (size 15 to 20)
#    0.000    0.923    8.077    0.462    0.000    1.846 
#    0.000    4.038    0.000    0.000    0.000    0.000 
#    0.000    0.000    0.000    0.000    0.000    0.000 
#
# Total GULP energy -644471.461319 kJ/mol
# GULP energy per Si atom -12393.681948 kJ/mol
# Density = 1.709302 g / cm^3
# Si number density = 17.132017 Si / 1000 Ang^3
#
#
#
# Elastic Constant Matrix: (Units=GPa)
#
#
# Indices 1 2 3 4 5 6 
#
# 1 92.3344 26.9098 47.5224 -0.0003 1.0154 -0.0001
# 2 26.9098 92.3341 47.5220 -0.0002 -1.0155 -0.0001
# 3 47.5224 47.5220 148.0530 -0.0001 0.0001 -0.0002
# 4 -0.0003 -0.0002 -0.0001 33.4181 -0.0001 -1.0156
# 5 1.0154 -1.0155 0.0001 -0.0001 33.4181 -0.0001
# 6 -0.0001 -0.0001 -0.0002 -1.0156 -0.0001 32.7124
#
#
#
# Elastic Compliance Matrix: (Units=1/GPa)
#
#
# Indices 1 2 3 4 5 6 
#
# 1 0.013284 -0.002015 -0.003617 0.000000 -0.000465 0.000000
# 2 -0.002015 0.013284 -0.003617 0.000000 0.000465 0.000000
# 3 -0.003617 -0.003617 0.009076 0.000000 0.000000 0.000000
# 4 0.000000 0.000000 0.000000 0.029952 0.000000 0.000930
# 5 -0.000465 0.000465 0.000000 0.000000 0.029952 0.000000
# 6 0.000000 0.000000 0.000000 0.000930 0.000000 0.030598
#
#
# Mechanical properties :
#
#
# Convention : Reuss Voigt Hill
#
# Bulk Modulus (GPa) = 58.32214 64.06998 61.19606
# Shear Modulus (GPa) = 33.25313 33.96089 33.60701
#
# Velocity S-wave (km/s) = 4.41045 4.45714 4.43386
# Velocity P-wave (km/s) = 7.74937 7.99794 7.87464
#
# Compressibility (1/GPa) = 0.01714615
#
# Stress axis : x y z
#
# Youngs Moduli (GPa) = 75.27706 75.27696 110.17507
#
# Poissons Ratio (x) = 0.15168 0.39853
# Poissons Ratio (y) = 0.15168 0.39853
# Poissons Ratio (z) = 0.27230 0.27229
#
# Static dielectric constant tensor:
#      x y z
#    x 3.184530 0.000040 0.000000 
#    y 0.000040 3.184580 0.000010 
#    z 0.000000 0.000010 3.638830 
# 
# 
# High freq. dielectric constant tensor:
#      x y z
#    x 1.660010 0.000000 0.000000 
#    y 0.000000 1.660010 0.000000 
#    z 0.000000 0.000000 1.680700 
# 
# From -- ./inp_files/3774.got.cif
#   From: 2010.03.12/outbox.cif.g09.slc.cpg/sg162_2_cif.got.tgz:3774.got - 2010.04.02 06:27:41.
