data_PCOD8323312
_publ_section_title
;
Structure prediction by ZEFSAII (Michael W. Deem and Ramdas Pophale) SiO2 
 PCOD8323312
Probable space group: P -3 1 C
;
_chemical_formula_sum "Si O2"
_cell_formula_units_Z 54
_cell_length_a 11.739285
_cell_length_b 11.739285
_cell_length_c 21.171741
_cell_angle_alpha 90.000000
_cell_angle_beta 90.000000
_cell_angle_gamma 120.000000
_cell_volume 2526.797839
_symmetry_space_group_name_H-M "P -3 1 C"
_symmetry_group_IT_number 163
_symmetry_cell_setting 'hexagonal'
loop_
_space_group_symop_operation_xyz
x,y,z
-y,x-y,z
-x+y,-x,z
-y,-x,1/2-z
-x+y,y,1/2-z
x,x-y,1/2-z
-x,-y,-z
y,-x+y,-z
x-y,x,-z
y,x,1/2+z
x-y,-y,1/2+z
-x,-x+y,1/2+z
loop_
_atom_site_type_symbol
_atom_site_label
_atom_site_fract_x
_atom_site_fract_y
_atom_site_fract_z
Si Si1 0.417649 0.835298 0.750000
Si Si2 0.000000 0.000000 0.425178
Si Si3 0.503998 0.541235 0.142677
Si Si4 0.333335 0.666668 0.348880
Si Si5 0.674168 0.092862 0.528389
Si Si6 0.771712 0.718804 0.581298
Si Si7 0.666668 0.333334 0.998876
O O1 0.258692 0.741309 0.750000
O O2 0.440865 0.924759 0.811237
O O3 0.000785 0.870702 0.400516
O O4 0.000000 0.000000 0.500000
O O5 0.410090 0.591215 0.173775
O O6 0.457702 0.479188 0.071561
O O7 0.653223 0.661979 0.135234
O O8 0.333334 0.666667 0.423588
O O9 0.701940 0.994152 0.488118
O O10 0.670984 0.202328 0.481466
O O11 0.789700 0.156721 0.579978
#
# Coordination Sequence:
#
# PCOD8323312 Si02
#       7
#     6   4  12   4  12  12   4
#     4  10  28  52  60  94 130 166 220 268 330 404
#     4  12  24  39  54  96 147 184 216 246 327 408
#     4  11  22  44  71  93 130 169 223 279 330 378
#     4   9  18  40  70 105 114 156 226 289 307 371
#     4  11  20  36  61  99 134 172 216 263 326 388
#     4  12  22  39  62  96 141 178 214 268 318 402
#     4   9  18  33  49  91 141 148 220 261 295 389
#
# _framework density 21.370923000000001
#
# number of rings (size 3 to 8) (size 9 to 14) (size 15 to 20)
#    0.222    0.889    8.889    0.667    0.000    4.444 
#    0.000    0.000    0.000    0.000    0.000    0.000 
#    0.000    0.000    0.000    0.000    0.000    0.000 
#
# Total GULP energy -669345.749496 kJ/mol
# GULP energy per Si atom -12395.291657 kJ/mol
# Density = 2.132228 g / cm^3
# Si number density = 21.370923 Si / 1000 Ang^3
#
#
#
# Elastic Constant Matrix: (Units=GPa)
#
#
# Indices 1 2 3 4 5 6 
#
# 1 130.9900 64.4722 27.6897 0.0000 -2.5844 -0.0002
# 2 64.4722 130.9896 27.6896 -0.0003 2.5843 -0.0001
# 3 27.6897 27.6896 29.2210 -0.0001 0.0000 -0.0001
# 4 0.0000 -0.0003 -0.0001 28.3791 0.0000 2.5842
# 5 -2.5844 2.5843 0.0000 0.0000 28.3790 -0.0001
# 6 -0.0002 -0.0001 -0.0001 2.5842 -0.0001 33.2589
#
#
#
# Elastic Compliance Matrix: (Units=1/GPa)
#
#
# Indices 1 2 3 4 5 6 
#
# 1 0.011067 -0.004073 -0.006627 0.000000 0.001379 0.000000
# 2 -0.004073 0.011067 -0.006627 0.000000 -0.001379 0.000000
# 3 -0.006627 -0.006627 0.046782 0.000000 0.000000 0.000000
# 4 0.000000 0.000000 0.000000 0.035488 0.000000 -0.002757
# 5 0.001379 -0.001379 0.000000 0.000000 0.035488 0.000000
# 6 0.000000 0.000000 0.000000 -0.002757 0.000000 0.030281
#
#
# Mechanical properties :
#
#
# Convention : Reuss Voigt Hill
#
# Bulk Modulus (GPa) = 29.18823 58.98930 44.08876
# Shear Modulus (GPa) = 23.12132 29.42667 26.27399
#
# Velocity S-wave (km/s) = 3.29280 3.71475 3.51012
# Velocity P-wave (km/s) = 5.30512 6.78688 6.09122
#
# Compressibility (1/GPa) = 0.03426039
#
# Stress axis : x y z
#
# Youngs Moduli (GPa) = 90.35683 90.35661 21.37580
#
# Poissons Ratio (x) = 0.36807 0.14166
# Poissons Ratio (y) = 0.36807 0.14166
# Poissons Ratio (z) = 0.59882 0.59882
#
# Static dielectric constant tensor:
#      x y z
#    x 4.246060 0.000000 0.000000 
#    y 0.000000 4.246060 0.000000 
#    z 0.000000 0.000000 3.165600 
# 
# 
# High freq. dielectric constant tensor:
#      x y z
#    x 1.853110 0.000000 0.000000 
#    y 0.000000 1.853110 0.000000 
#    z 0.000000 0.000000 1.770840 
# 
# From -- ./inp_files/4082.got.cif
#   From: 2010.03.12/outbox.cif.g09.slc.cpg/sg163_3_cif.got.tgz:4082.got - 2010.04.02 06:30:25.
