data_PCOD8323546
_publ_section_title
;
Structure prediction by ZEFSAII (Michael W. Deem and Ramdas Pophale) SiO2 
 PCOD8323546
Probable space group: P -3 M 1
;
_chemical_formula_sum "Si O2"
_cell_formula_units_Z 72
_cell_length_a 23.388567
_cell_length_b 23.388567
_cell_length_c 8.715988
_cell_angle_alpha 90.000000
_cell_angle_beta 90.000000
_cell_angle_gamma 120.000000
_cell_volume 4129.091271
_symmetry_space_group_name_H-M "P -3 M 1"
_symmetry_group_IT_number 164
_symmetry_cell_setting 'hexagonal'
loop_
_space_group_symop_operation_xyz
x,y,z
-y,x-y,z
-x+y,-x,z
x-y,-y,-z
-x,-x+y,-z
y,x,-z
-x,-y,-z
y,-x+y,-z
x-y,x,-z
-x+y,y,z
x,x-y,z
-y,-x,z
loop_
_atom_site_type_symbol
_atom_site_label
_atom_site_fract_x
_atom_site_fract_y
_atom_site_fract_z
Si Si1 0.248881 0.988426 0.178651
Si Si2 0.132588 0.000107 0.677406
Si Si3 0.063253 0.367330 0.601328
Si Si4 0.741429 0.130775 0.697570
Si Si5 0.086201 0.607292 0.152981
Si Si6 0.598272 0.068766 0.189610
O O1 0.241974 0.918009 0.209374
O O2 0.182060 0.988154 0.219230
O O3 0.308613 0.045214 0.277891
O O4 0.263255 0.000000 0.000000
O O5 0.068660 0.931341 0.724135
O O6 0.151572 0.000000 0.500000
O O7 0.116232 0.058116 0.708715
O O8 0.118811 0.373415 0.483904
O O9 0.094495 0.437396 0.688322
O O10 0.000000 0.354487 0.500000
O O11 0.795377 0.204624 0.739225
O O12 0.671605 0.123956 0.742391
O O13 0.106280 0.553140 0.204355
O O14 0.008843 0.578339 0.172402
O O15 0.104146 0.625515 0.974047
O O16 0.541873 0.083746 0.250250
#
# Coordination Sequence:
#
# PCOD8323546 Si02
#       6
#    12  12  12  12  12  12
#     4  11  22  36  54  74 103 136 175 215 268 326
#     4  10  21  38  58  76  94 122 166 219 271 323
#     4  10  19  31  48  73 106 138 168 205 247 307
#     4  11  22  35  51  76 110 145 179 217 262 313
#     4   9  17  31  54  80 107 136 169 208 253 306
#     4   9  16  29  52  81 108 133 161 204 259 308
#
# _framework density 17.437251
#
# number of rings (size 3 to 8) (size 9 to 14) (size 15 to 20)
#    0.000    2.000    3.333    4.167    0.000    5.000 
#    0.000    2.500    0.000    1.333    0.000    0.000 
#    0.000    1.333    0.000    0.000    0.000    0.000 
#
# Total GULP energy -892749.419619 kJ/mol
# GULP energy per Si atom -12399.297495 kJ/mol
# Density = 1.739756 g / cm^3
# Si number density = 17.437251 Si / 1000 Ang^3
#
#
#
# Elastic Constant Matrix: (Units=GPa)
#
#
# Indices 1 2 3 4 5 6 
#
# 1 81.2723 50.6130 40.6065 -3.8207 0.0000 0.0000
# 2 50.6130 81.2723 40.6065 3.8207 0.0000 0.0000
# 3 40.6065 40.6065 105.9055 0.0000 0.0000 0.0000
# 4 -3.8207 3.8207 0.0000 18.6091 0.0000 0.0000
# 5 0.0000 0.0000 0.0000 0.0000 18.6091 -3.8207
# 6 0.0000 0.0000 0.0000 0.0000 -3.8207 15.3297
#
#
#
# Elastic Compliance Matrix: (Units=1/GPa)
#
#
# Indices 1 2 3 4 5 6 
#
# 1 0.022151 -0.012225 -0.003806 0.007058 0.000000 0.000000
# 2 -0.012225 0.022151 -0.003806 -0.007058 0.000000 0.000000
# 3 -0.003806 -0.003806 0.012361 0.000000 0.000000 0.000000
# 4 0.007058 -0.007058 0.000000 0.056635 0.000000 0.000000
# 5 0.000000 0.000000 0.000000 0.000000 0.056635 0.014116
# 6 0.000000 0.000000 0.000000 0.000000 0.014116 0.068751
#
#
# Mechanical properties :
#
#
# Convention : Reuss Voigt Hill
#
# Bulk Modulus (GPa) = 58.86019 59.12246 58.99133
# Shear Modulus (GPa) = 17.60438 19.61784 18.61111
#
# Velocity S-wave (km/s) = 3.18084 3.35782 3.27053
# Velocity P-wave (km/s) = 6.87889 7.00091 6.94016
#
# Compressibility (1/GPa) = 0.01698941
#
# Stress axis : x y z
#
# Youngs Moduli (GPa) = 45.14522 45.14522 80.90062
#
# Poissons Ratio (x) = 0.55189 0.30789
# Poissons Ratio (y) = 0.55189 0.30789
# Poissons Ratio (z) = 0.17181 0.17181
#
# Static dielectric constant tensor:
#      x y z
#    x 3.120030 0.000000 0.000000 
#    y 0.000000 3.120030 0.000000 
#    z 0.000000 0.000000 3.500180 
# 
# 
# High freq. dielectric constant tensor:
#      x y z
#    x 1.650830 0.000000 0.000000 
#    y 0.000000 1.650830 0.000000 
#    z 0.000000 0.000000 1.681460 
# 
# From -- ./inp_files/1955.got.cif
#   From: 2010.03.12/outbox.cif.g09.slc.cpg/sg164_1_cif.got.tgz:1955.got - 2010.04.02 06:32:59.
