data_PCOD8323072
_publ_section_title
;
Structure prediction by ZEFSAII (Michael W. Deem and Ramdas Pophale) SiO2 
 PCOD8323072
Probable space group: P -3 1 M 
;
_chemical_formula_sum "Si O2"
_cell_formula_units_Z 60
_cell_length_a 14.201255
_cell_length_b 14.201255
_cell_length_c 16.704930
_cell_angle_alpha 90.000000
_cell_angle_beta 90.000000
_cell_angle_gamma 120.000000
_cell_volume 2917.620107
_symmetry_space_group_name_H-M "P -3 1 M "
_symmetry_group_IT_number 162
_symmetry_cell_setting 'hexagonal'
loop_
_space_group_symop_operation_xyz
x,y,z
-y,x-y,z
-x+y,-x,z
-y,-x,-z
-x+y,y,-z
x,x-y,-z
-x,-y,-z
y,-x+y,-z
x-y,x,-z
y,x,z
x-y,-y,z
-x,-x+y,z
loop_
_atom_site_type_symbol
_atom_site_label
_atom_site_fract_x
_atom_site_fract_y
_atom_site_fract_z
Si Si1 0.727130 0.549736 0.287379
Si Si2 0.758305 0.879441 0.203871
Si Si3 0.122687 0.516258 0.787752
Si Si4 0.122642 0.730375 0.067670
Si Si5 0.873941 0.333272 0.466973
O O1 0.799135 0.677652 0.271397
O O2 0.801615 0.494034 0.279852
O O3 0.634547 0.498770 0.218708
O O4 0.668806 0.528752 0.371988
O O5 0.850337 0.850337 0.183363
O O6 0.697206 0.871546 0.121988
O O7 0.814361 0.000000 0.240029
O O8 0.153378 0.498102 0.877529
O O9 0.000000 0.421637 0.769843
O O10 0.000000 0.657776 0.031939
O O11 0.214192 0.785809 0.000000
O O12 0.787475 0.212526 0.500000
O O13 0.846160 0.423080 0.500000
O O14 0.000000 0.368932 0.488413
#
# Coordination Sequence:
#
# PCOD8323072 Si02
#       5
#    12  12  12  12  12
#     4  11  21  38  60  84 113 148 188 232 282 337
#     4  10  20  34  55  82 113 151 193 236 280 329
#     4  10  21  37  59  86 115 149 190 235 283 335
#     4   9  18  33  54  81 114 150 188 233 283 332
#     4  11  24  40  61  90 121 153 191 239 294 353
#
# _framework density 20.564705
#
# number of rings (size 3 to 8) (size 9 to 14) (size 15 to 20)
#    0.000    1.800    0.000    6.200    0.000    3.200 
#    0.000    4.000    0.000   14.200    0.000    0.000 
#    0.000    0.800    0.000    0.000    0.000    0.000 
#
# Total GULP energy -743891.373060 kJ/mol
# GULP energy per Si atom -12398.189551 kJ/mol
# Density = 2.051790 g / cm^3
# Si number density = 20.564705 Si / 1000 Ang^3
#
#
#
# Elastic Constant Matrix: (Units=GPa)
#
#
# Indices 1 2 3 4 5 6 
#
# 1 126.1913 63.0257 54.6026 0.0000 -1.8635 0.0000
# 2 63.0257 126.1913 54.6026 0.0000 1.8635 0.0000
# 3 54.6026 54.6026 101.3872 0.0000 0.0000 0.0000
# 4 0.0000 0.0000 0.0000 23.5617 0.0000 1.8635
# 5 -1.8635 1.8635 0.0000 0.0000 23.5617 0.0000
# 6 0.0000 0.0000 0.0000 1.8635 0.0000 31.5828
#
#
#
# Elastic Compliance Matrix: (Units=1/GPa)
#
#
# Indices 1 2 3 4 5 6 
#
# 1 0.011787 -0.004119 -0.004130 0.000000 0.001258 0.000000
# 2 -0.004119 0.011787 -0.004130 0.000000 -0.001258 0.000000
# 3 -0.004130 -0.004130 0.014312 0.000000 0.000000 0.000000
# 4 0.000000 0.000000 0.000000 0.042641 0.000000 -0.002516
# 5 0.001258 -0.001258 0.000000 0.000000 0.042641 0.000000
# 6 0.000000 0.000000 0.000000 -0.002516 0.000000 0.031811
#
#
# Mechanical properties :
#
#
# Convention : Reuss Voigt Hill
#
# Bulk Modulus (GPa) = 76.16788 77.58131 76.87459
# Shear Modulus (GPa) = 27.15749 27.84386 27.50067
#
# Velocity S-wave (km/s) = 3.63793 3.68362 3.66084
# Velocity P-wave (km/s) = 7.40031 7.47659 7.43855
#
# Compressibility (1/GPa) = 0.01312889
#
# Stress axis : x y z
#
# Youngs Moduli (GPa) = 84.83887 84.83887 69.87372
#
# Poissons Ratio (x) = 0.34942 0.28857
# Poissons Ratio (y) = 0.34942 0.28857
# Poissons Ratio (z) = 0.35038 0.35038
#
# Static dielectric constant tensor:
#      x y z
#    x 3.889510 0.000000 0.000000 
#    y 0.000000 3.889510 0.000000 
#    z 0.000000 0.000000 3.453610 
# 
# 
# High freq. dielectric constant tensor:
#      x y z
#    x 1.812140 0.000000 0.000000 
#    y 0.000000 1.812140 0.000000 
#    z 0.000000 0.000000 1.779280 
# 
# From -- ./inp_files/2921.got.cif
#   From: 2010.03.12/outbox.cif.g09.slc.cpg/sg162_2_cif.got.tgz:2921.got - 2010.04.02 06:27:41.
