data_PCOD8323216
_publ_section_title
;
Structure prediction by ZEFSAII (Michael W. Deem and Ramdas Pophale) SiO2 
 PCOD8323216
Probable space group: P -3 1 C
;
_chemical_formula_sum "Si O2"
_cell_formula_units_Z 72
_cell_length_a 23.896110
_cell_length_b 23.896110
_cell_length_c 9.010404
_cell_angle_alpha 90.000000
_cell_angle_beta 90.000000
_cell_angle_gamma 120.000000
_cell_volume 4455.837182
_symmetry_space_group_name_H-M "P -3 1 C"
_symmetry_group_IT_number 163
_symmetry_cell_setting 'hexagonal'
loop_
_space_group_symop_operation_xyz
x,y,z
-y,x-y,z
-x+y,-x,z
-y,-x,1/2-z
-x+y,y,1/2-z
x,x-y,1/2-z
-x,-y,-z
y,-x+y,-z
x-y,x,-z
y,x,1/2+z
x-y,-y,1/2+z
-x,-x+y,1/2+z
loop_
_atom_site_type_symbol
_atom_site_label
_atom_site_fract_x
_atom_site_fract_y
_atom_site_fract_z
Si Si1 0.181416 0.818585 0.418274
Si Si2 0.364180 0.068767 0.073569
Si Si3 0.635819 0.704588 0.926434
Si Si4 0.853953 0.489140 0.078976
Si Si5 0.510860 0.364813 0.421024
Si Si6 0.516158 0.258080 0.585118
O O1 0.167523 0.832478 0.250000
O O2 0.224104 0.885047 0.507486
O O3 0.114954 0.775897 0.507484
O O4 0.219689 0.780312 0.414994
O O5 0.355187 0.064195 0.250002
O O6 0.438694 0.094297 0.026159
O O7 0.321082 0.999999 0.000003
O O8 0.561306 0.655604 0.973843
O O9 0.838050 0.491378 0.250000
O O10 0.882648 0.441324 0.049785
O O11 0.785658 0.459562 0.995385
O O12 0.540438 0.326098 0.504617
O O13 0.544897 0.272449 0.750000
#
# Coordination Sequence:
#
# PCOD8323216 Si02
#       6
#    12  12  12  12  12  12
#     4   9  17  31  49  67  89 117 148 184 225 268
#     4  10  19  31  48  70  94 121 154 189 228 278
#     4  10  19  31  48  70  94 121 154 189 228 278
#     4   9  18  32  47  62  84 116 152 190 235 288
#     4   9  18  32  47  62  84 116 152 190 235 288
#     4   9  17  29  45  63  81 105 141 186 235 282
#
# _framework density 16.158580000000001
#
# number of rings (size 3 to 8) (size 9 to 14) (size 15 to 20)
#    0.000    2.667    0.000    2.000    0.000    6.667 
#    1.000    0.000    0.000    0.000    0.000    0.000 
#    0.000    0.000    0.000    0.500    0.000    7.000 
#
# Total GULP energy -892623.249167 kJ/mol
# GULP energy per Si atom -12397.545127 kJ/mol
# Density = 1.612180 g / cm^3
# Si number density = 16.158580 Si / 1000 Ang^3
#
#
#
# Elastic Constant Matrix: (Units=GPa)
#
#
# Indices 1 2 3 4 5 6 
#
# 1 88.6197 55.2395 44.6884 0.0000 0.0000 0.0000
# 2 55.2395 88.6197 44.6884 0.0000 0.0000 0.0000
# 3 44.6884 44.6884 89.3701 0.0000 0.0000 0.0000
# 4 0.0000 0.0000 0.0000 23.4653 0.0000 0.0000
# 5 0.0000 0.0000 0.0000 0.0000 23.4653 0.0000
# 6 0.0000 0.0000 0.0000 0.0000 0.0000 16.6901
#
#
#
# Elastic Compliance Matrix: (Units=1/GPa)
#
#
# Indices 1 2 3 4 5 6 
#
# 1 0.020021 -0.009937 -0.005042 0.000000 0.000000 0.000000
# 2 -0.009937 0.020021 -0.005042 0.000000 0.000000 0.000000
# 3 -0.005042 -0.005042 0.016232 0.000000 0.000000 0.000000
# 4 0.000000 0.000000 0.000000 0.042616 0.000000 0.000000
# 5 0.000000 0.000000 0.000000 0.000000 0.042616 0.000000
# 6 0.000000 0.000000 0.000000 0.000000 0.000000 0.059916
#
#
# Mechanical properties :
#
#
# Convention : Reuss Voigt Hill
#
# Bulk Modulus (GPa) = 61.61183 61.76022 61.68603
# Shear Modulus (GPa) = 20.25312 20.85703 20.55508
#
# Velocity S-wave (km/s) = 3.54418 3.59663 3.57050
# Velocity P-wave (km/s) = 7.41354 7.45332 7.43345
#
# Compressibility (1/GPa) = 0.01623065
#
# Stress axis : x y z
#
# Youngs Moduli (GPa) = 49.94773 49.94773 61.60614
#
# Poissons Ratio (x) = 0.49633 0.31064
# Poissons Ratio (y) = 0.49633 0.31064
# Poissons Ratio (z) = 0.25185 0.25185
#
# Static dielectric constant tensor:
#      x y z
#    x 2.906450 0.000000 0.000000 
#    y 0.000000 2.906450 0.000000 
#    z 0.000000 0.000000 3.246750 
# 
# 
# High freq. dielectric constant tensor:
#      x y z
#    x 1.594000 0.000000 0.000000 
#    y 0.000000 1.594000 0.000000 
#    z 0.000000 0.000000 1.636010 
# 
# From -- ./inp_files/1251.got.cif
#   From: 2010.03.12/outbox.cif.g09.slc.cpg/sg163_1_cif.got.tgz:1251.got - 2010.04.02 06:30:25.
