data_PCOD8323640
_publ_section_title
;
Structure prediction by ZEFSAII (Michael W. Deem and Ramdas Pophale) SiO2 
 PCOD8323640
Probable space group: P -3 M 1
;
_chemical_formula_sum "Si O2"
_cell_formula_units_Z 60
_cell_length_a 12.621395
_cell_length_b 12.621395
_cell_length_c 25.456930
_cell_angle_alpha 90.000000
_cell_angle_beta 90.000000
_cell_angle_gamma 120.000000
_cell_volume 3511.974690
_symmetry_space_group_name_H-M "P -3 M 1"
_symmetry_group_IT_number 164
_symmetry_cell_setting 'hexagonal'
loop_
_space_group_symop_operation_xyz
x,y,z
-y,x-y,z
-x+y,-x,z
x-y,-y,-z
-x,-x+y,-z
y,x,-z
-x,-y,-z
y,-x+y,-z
x-y,x,-z
-x+y,y,z
x,x-y,z
-y,-x,z
loop_
_atom_site_type_symbol
_atom_site_label
_atom_site_fract_x
_atom_site_fract_y
_atom_site_fract_z
Si Si1 0.089085 0.421877 0.211068
Si Si2 0.753295 0.752115 0.695841
Si Si3 0.913410 0.331478 0.598605
Si Si4 0.752269 0.752269 0.000000
Si Si5 0.421737 0.333323 0.908205
Si Si6 0.000000 0.751600 0.500000
O O1 0.230877 0.461753 0.219180
O O2 0.075186 0.537593 0.226065
O O3 0.003525 0.308045 0.248115
O O4 0.046492 0.378340 0.151486
O O5 0.895505 0.791010 0.692457
O O6 0.675831 0.653906 0.651449
O O7 0.741931 0.870966 0.687702
O O8 0.925739 0.462870 0.594910
O O9 0.770851 0.229150 0.598242
O O10 0.983869 0.314764 0.550118
O O11 0.682946 0.679345 0.052433
O O12 0.884297 0.768594 0.001001
O O13 0.452445 0.226223 0.917696
O O14 0.542011 0.457990 0.921734
O O15 0.884212 0.768424 0.490388
#
# Coordination Sequence:
#
# PCOD8323640 Si02
#       6
#    12  12  12   6  12   6
#     4   9  17  30  50  74  97 121 152 194 242 288
#     4  10  20  33  50  72  99 131 165 201 239 282
#     4  10  20  34  53  76 101 129 162 202 246 289
#     4  10  20  32  46  66  94 128 162 194 232 280
#     4   9  17  30  49  72  95 120 153 195 241 285
#     4  10  20  34  54  78 104 134 166 200 238 284
#
# _framework density 17.084405
#
# number of rings (size 3 to 8) (size 9 to 14) (size 15 to 20)
#    0.000    2.400    0.000    2.800    0.000    2.400 
#    0.000    4.000    0.000   11.200    0.000    0.000 
#    0.000    0.000    0.000    0.000    0.000    0.000 
#
# Total GULP energy -744107.523186 kJ/mol
# GULP energy per Si atom -12401.792053 kJ/mol
# Density = 1.704552 g / cm^3
# Si number density = 17.084405 Si / 1000 Ang^3
#
#
#
# Elastic Constant Matrix: (Units=GPa)
#
#
# Indices 1 2 3 4 5 6 
#
# 1 99.5276 58.2432 58.8068 0.8515 0.0000 0.0000
# 2 58.2432 99.5276 58.8068 -0.8515 0.0000 0.0000
# 3 58.8068 58.8068 119.0371 0.0000 0.0000 0.0000
# 4 0.8515 -0.8515 0.0000 25.1167 0.0000 0.0000
# 5 0.0000 0.0000 0.0000 0.0000 25.1167 0.8515
# 6 0.0000 0.0000 0.0000 0.0000 0.8515 20.6422
#
#
#
# Elastic Compliance Matrix: (Units=1/GPa)
#
#
# Indices 1 2 3 4 5 6 
#
# 1 0.017145 -0.007111 -0.004957 -0.000822 0.000000 0.000000
# 2 -0.007111 0.017145 -0.004957 0.000822 0.000000 0.000000
# 3 -0.004957 -0.004957 0.013298 0.000000 0.000000 0.000000
# 4 -0.000822 0.000822 0.000000 0.039870 0.000000 0.000000
# 5 0.000000 0.000000 0.000000 0.000000 0.039870 -0.001645
# 6 0.000000 0.000000 0.000000 0.000000 -0.001645 0.048512
#
#
# Mechanical properties :
#
#
# Convention : Reuss Voigt Hill
#
# Bulk Modulus (GPa) = 73.86543 74.42291 74.14417
# Shear Modulus (GPa) = 23.32066 23.65748 23.48907
#
# Velocity S-wave (km/s) = 3.69863 3.72525 3.71196
# Velocity P-wave (km/s) = 7.84661 7.88415 7.86540
#
# Compressibility (1/GPa) = 0.01353813
#
# Stress axis : x y z
#
# Youngs Moduli (GPa) = 58.32683 58.32683 75.19830
#
# Poissons Ratio (x) = 0.41478 0.37274
# Poissons Ratio (y) = 0.41478 0.37274
# Poissons Ratio (z) = 0.28911 0.28911
#
# Static dielectric constant tensor:
#      x y z
#    x 3.080510 0.000000 0.000000 
#    y 0.000000 3.080510 0.000000 
#    z 0.000000 0.000000 3.469420 
# 
# 
# High freq. dielectric constant tensor:
#      x y z
#    x 1.651910 0.000000 0.000000 
#    y 0.000000 1.651910 0.000000 
#    z 0.000000 0.000000 1.677440 
# 
# From -- ./inp_files/5209.got.cif
#   From: 2010.03.12/outbox.cif.g09.slc.cpg/sg164_3_cif.got.tgz:5209.got - 2010.04.02 06:32:59.
