data_PCOD8323642
_publ_section_title
;
Structure prediction by ZEFSAII (Michael W. Deem and Ramdas Pophale) SiO2 
 PCOD8323642
Probable space group: P -3 M 1
;
_chemical_formula_sum "Si O2"
_cell_formula_units_Z 96
_cell_length_a 17.842132
_cell_length_b 17.842132
_cell_length_c 22.101239
_cell_angle_alpha 90.000000
_cell_angle_beta 90.000000
_cell_angle_gamma 120.000000
_cell_volume 6093.134275
_symmetry_space_group_name_H-M "P -3 M 1"
_symmetry_group_IT_number 164
_symmetry_cell_setting 'hexagonal'
loop_
_space_group_symop_operation_xyz
x,y,z
-y,x-y,z
-x+y,-x,z
x-y,-y,-z
-x,-x+y,-z
y,x,-z
-x,-y,-z
y,-x+y,-z
x-y,x,-z
-x+y,y,z
x,x-y,z
-y,-x,z
loop_
_atom_site_type_symbol
_atom_site_label
_atom_site_fract_x
_atom_site_fract_y
_atom_site_fract_z
Si Si1 0.495254 0.333435 0.283773
Si Si2 0.333435 0.838181 0.283773
Si Si3 0.634408 0.532429 0.500000
Si Si4 0.160245 0.666972 0.854562
Si Si5 0.634428 0.732993 0.612110
Si Si6 0.493274 0.160246 0.854562
Si Si7 0.901436 0.267008 0.612110
Si Si8 0.589180 0.000000 0.068155
O O1 0.525699 0.262850 0.291303
O O2 0.574005 0.425996 0.303656
O O3 0.467432 0.335389 0.214916
O O4 0.412883 0.310333 0.325189
O O5 0.425995 0.851990 0.303656
O O6 0.262849 0.737152 0.291302
O O7 0.335392 0.867959 0.214916
O O8 0.310334 0.897452 0.325189
O O9 0.574821 0.574821 0.500000
O O10 0.572147 0.427854 0.500000
O O11 0.694218 0.562800 0.440706
O O12 0.694216 0.562799 0.559295
O O13 0.179965 0.589983 0.867115
O O14 0.244903 0.755098 0.871902
O O15 0.084462 0.660876 0.896994
O O16 0.673945 0.836973 0.613627
O O17 0.711996 0.711996 0.601686
O O18 0.589984 0.179967 0.867116
O O19 0.489804 0.244902 0.871901
O O20 0.423588 0.084462 0.896995
O O21 0.836972 0.163029 0.613627
O O22 0.500001 0.000002 0.068797
O O23 0.620904 0.000000 0.000000
#
# Coordination Sequence:
#
# PCOD8323642 Si02
#       8
#    12  12  12  12  12  12  12  12
#     4   9  17  28  44  66  90 116 146 182 221 263
#     4   9  17  28  44  66  90 116 146 182 221 263
#     4   9  17  30  47  68  92 118 148 181 217 264
#     4   9  17  29  45  64  87 116 150 185 221 262
#     4  10  20  32  47  67  91 120 155 193 233 273
#     4   9  17  29  45  64  87 116 150 185 221 262
#     4  10  20  32  47  67  91 120 155 193 233 273
#     4   9  18  30  42  60  86 113 144 182 220 259
#
# _framework density 15.755439000000001
#
# number of rings (size 3 to 8) (size 9 to 14) (size 15 to 20)
#    0.000    2.750    0.000    1.625    1.750    4.000 
#    0.000    0.000    0.000    5.250    0.000    0.000 
#    0.000    3.000    0.000    0.375    0.000    1.625 
#
# Total GULP energy -1190312.123675 kJ/mol
# GULP energy per Si atom -12399.084622 kJ/mol
# Density = 1.571958 g / cm^3
# Si number density = 15.755439 Si / 1000 Ang^3
#
#
#
# Elastic Constant Matrix: (Units=GPa)
#
#
# Indices 1 2 3 4 5 6 
#
# 1 80.9934 46.9068 42.1257 0.0000 0.0000 0.0000
# 2 46.9068 80.9934 42.1257 0.0000 0.0000 0.0000
# 3 42.1257 42.1257 96.2330 0.0000 0.0000 0.0000
# 4 0.0000 0.0000 0.0000 20.0389 0.0000 0.0000
# 5 0.0000 0.0000 0.0000 0.0000 20.0389 0.0000
# 6 0.0000 0.0000 0.0000 0.0000 0.0000 17.0433
#
#
#
# Elastic Compliance Matrix: (Units=1/GPa)
#
#
# Indices 1 2 3 4 5 6 
#
# 1 0.020162 -0.009175 -0.004809 0.000000 0.000000 0.000000
# 2 -0.009175 0.020162 -0.004809 0.000000 0.000000 0.000000
# 3 -0.004809 -0.004809 0.014602 0.000000 0.000000 0.000000
# 4 0.000000 0.000000 0.000000 0.049903 0.000000 0.000000
# 5 0.000000 0.000000 0.000000 0.000000 0.049903 0.000000
# 6 0.000000 0.000000 0.000000 0.000000 0.000000 0.058674
#
#
# Mechanical properties :
#
#
# Convention : Reuss Voigt Hill
#
# Bulk Modulus (GPa) = 57.67730 57.83735 57.75732
# Shear Modulus (GPa) = 19.47248 19.89501 19.68374
#
# Velocity S-wave (km/s) = 3.51938 3.55736 3.53842
# Velocity P-wave (km/s) = 7.29397 7.32545 7.30973
#
# Compressibility (1/GPa) = 0.01733784
#
# Stress axis : x y z
#
# Youngs Moduli (GPa) = 49.59868 49.59868 68.48370
#
# Poissons Ratio (x) = 0.45508 0.32936
# Poissons Ratio (y) = 0.45508 0.32936
# Poissons Ratio (z) = 0.23854 0.23854
#
# Static dielectric constant tensor:
#      x y z
#    x 2.811350 0.000000 0.000000 
#    y 0.000000 2.811350 0.000000 
#    z 0.000000 0.000000 3.167820 
# 
# 
# High freq. dielectric constant tensor:
#      x y z
#    x 1.579900 0.000000 0.000000 
#    y 0.000000 1.579900 0.000000 
#    z 0.000000 0.000000 1.615970 
# 
# From -- ./inp_files/5114.got.cif
#   From: 2010.03.12/outbox.cif.g09.slc.cpg/sg164_3_cif.got.tgz:5114.got - 2010.04.02 06:32:59.
