data_PCOD8323495
_publ_section_title
;
Structure prediction by ZEFSAII (Michael W. Deem and Ramdas Pophale) SiO2 
 PCOD8323495
Probable space group: P -3 M 1
;
_chemical_formula_sum "Si O2"
_cell_formula_units_Z 84
_cell_length_a 17.312455
_cell_length_b 17.312455
_cell_length_c 20.558277
_cell_angle_alpha 90.000000
_cell_angle_beta 90.000000
_cell_angle_gamma 120.000000
_cell_volume 5336.231476
_symmetry_space_group_name_H-M "P -3 M 1"
_symmetry_group_IT_number 164
_symmetry_cell_setting 'hexagonal'
loop_
_space_group_symop_operation_xyz
x,y,z
-y,x-y,z
-x+y,-x,z
x-y,-y,-z
-x,-x+y,-z
y,x,-z
-x,-y,-z
y,-x+y,-z
x-y,x,-z
-x+y,y,z
x,x-y,z
-y,-x,z
loop_
_atom_site_type_symbol
_atom_site_label
_atom_site_fract_x
_atom_site_fract_y
_atom_site_fract_z
Si Si1 0.904797 0.272320 0.642685
Si Si2 0.762036 0.698849 0.189531
Si Si3 0.666216 0.158530 0.379049
Si Si4 0.176991 0.178449 0.688265
Si Si5 0.596191 0.581094 0.267861
Si Si6 0.488553 0.154789 0.524985
Si Si7 0.178359 0.000055 0.925946
O O1 0.807452 0.192549 0.659205
O O2 0.907494 0.315023 0.572703
O O3 0.975545 0.236697 0.640864
O O4 0.922972 0.341414 0.701831
O O5 0.830579 0.661158 0.188126
O O6 0.795809 0.780102 0.240065
O O7 0.663861 0.617137 0.206931
O O8 0.757475 0.737957 0.119424
O O9 0.598079 0.196158 0.375956
O O10 0.763358 0.236643 0.360102
O O11 0.641470 0.081681 0.327754
O O12 0.663457 0.120737 0.451436
O O13 0.091687 0.183373 0.661721
O O14 0.151820 0.075910 0.691345
O O15 0.503720 0.496281 0.244737
O O16 0.572843 0.145686 0.545693
O O17 0.516402 0.258201 0.530469
O O18 0.075464 0.924537 0.915622
O O19 0.188144 0.094072 0.906646
O O20 0.208287 0.000000 0.000000
#
# Coordination Sequence:
#
# PCOD8323495 Si02
#       7
#    12  12  12  12  12  12  12
#     4   9  18  30  42  58  82 109 138 177 223 265
#     4   9  17  28  42  62  91 120 143 171 207 249
#     4   9  17  28  44  65  87 109 133 166 211 264
#     4   9  16  26  41  61  84 112 145 178 211 249
#     4  10  19  30  45  63  83 111 144 177 213 251
#     4   9  16  27  43  62  83 106 133 168 214 268
#     4   9  16  26  43  70 102 131 154 175 203 242
#
# _framework density 15.741446
#
# number of rings (size 3 to 8) (size 9 to 14) (size 15 to 20)
#    0.000    2.857    0.000    1.857    0.000    3.429 
#    0.000    3.571    0.000    1.857    0.000    0.000 
#    0.000    0.000    0.000   52.714    0.000    0.000 
#
# Total GULP energy -1041386.113575 kJ/mol
# GULP energy per Si atom -12397.453733 kJ/mol
# Density = 1.570562 g / cm^3
# Si number density = 15.741446 Si / 1000 Ang^3
#
#
#
# Elastic Constant Matrix: (Units=GPa)
#
#
# Indices 1 2 3 4 5 6 
#
# 1 89.0102 46.9166 44.4348 -1.1695 0.0000 0.0000
# 2 46.9166 89.0102 44.4348 1.1695 0.0000 0.0000
# 3 44.4348 44.4348 81.5325 0.0000 0.0000 0.0000
# 4 -1.1695 1.1695 0.0000 21.6593 0.0000 0.0000
# 5 0.0000 0.0000 0.0000 0.0000 21.6593 -1.1695
# 6 0.0000 0.0000 0.0000 0.0000 -1.1695 21.0468
#
#
#
# Elastic Compliance Matrix: (Units=1/GPa)
#
#
# Indices 1 2 3 4 5 6 
#
# 1 0.017629 -0.006199 -0.006229 0.001287 0.000000 0.000000
# 2 -0.006199 0.017629 -0.006229 -0.001287 0.000000 0.000000
# 3 -0.006229 -0.006229 0.019055 0.000000 0.000000 0.000000
# 4 0.001287 -0.001287 0.000000 0.046308 0.000000 0.000000
# 5 0.000000 0.000000 0.000000 0.000000 0.046308 0.002573
# 6 0.000000 0.000000 0.000000 0.000000 0.002573 0.047656
#
#
# Mechanical properties :
#
#
# Convention : Reuss Voigt Hill
#
# Bulk Modulus (GPa) = 58.83212 59.01392 58.92302
# Shear Modulus (GPa) = 21.04681 21.12419 21.08550
#
# Velocity S-wave (km/s) = 3.66051 3.66723 3.66387
# Velocity P-wave (km/s) = 7.43781 7.44999 7.44390
#
# Compressibility (1/GPa) = 0.01699752
#
# Stress axis : x y z
#
# Youngs Moduli (GPa) = 56.72546 56.72546 52.48089
#
# Poissons Ratio (x) = 0.35166 0.32690
# Poissons Ratio (y) = 0.35166 0.32690
# Poissons Ratio (z) = 0.35334 0.35334
#
# Static dielectric constant tensor:
#      x y z
#    x 3.018300 0.000000 0.000000 
#    y 0.000000 3.018300 0.000000 
#    z 0.000000 0.000000 2.906090 
# 
# 
# High freq. dielectric constant tensor:
#      x y z
#    x 1.600750 0.000000 0.000000 
#    y 0.000000 1.600750 0.000000 
#    z 0.000000 0.000000 1.577560 
# 
# From -- ./inp_files/4627.got.cif
#   From: 2010.03.12/outbox.cif.g09.slc.cpg/sg164_3_cif.got.tgz:4627.got - 2010.04.02 06:32:59.
