data_PCOD8323460
_publ_section_title
;
Structure prediction by ZEFSAII (Michael W. Deem and Ramdas Pophale) SiO2 
 PCOD8323460
Probable space group: P -3 M 1
;
_chemical_formula_sum "Si O2"
_cell_formula_units_Z 84
_cell_length_a 17.037362
_cell_length_b 17.037362
_cell_length_c 18.425563
_cell_angle_alpha 90.000000
_cell_angle_beta 90.000000
_cell_angle_gamma 120.000000
_cell_volume 4631.867216
_symmetry_space_group_name_H-M "P -3 M 1"
_symmetry_group_IT_number 164
_symmetry_cell_setting 'hexagonal'
loop_
_space_group_symop_operation_xyz
x,y,z
-y,x-y,z
-x+y,-x,z
x-y,-y,-z
-x,-x+y,-z
y,x,-z
-x,-y,-z
y,-x+y,-z
x-y,x,-z
-x+y,y,z
x,x-y,z
-y,-x,z
loop_
_atom_site_type_symbol
_atom_site_label
_atom_site_fract_x
_atom_site_fract_y
_atom_site_fract_z
Si Si1 0.817171 0.000938 0.291094
Si Si2 0.298553 0.237829 0.431101
Si Si3 0.408021 0.991710 0.914907
Si Si4 0.331348 0.842940 0.310788
Si Si5 0.912482 0.652173 0.809878
Si Si6 0.846684 0.335552 0.198358
Si Si7 0.610208 0.044968 0.341936
O O1 0.907171 0.092830 0.267351
O O2 0.788689 0.007137 0.373164
O O3 0.836239 0.918120 0.286626
O O4 0.734811 0.987268 0.239254
O O5 0.286114 0.286114 0.500000
O O6 0.299071 0.149536 0.458981
O O7 0.396479 0.303698 0.394523
O O8 0.513410 0.026819 0.894360
O O9 0.348221 0.890105 0.881931
O O10 0.366438 0.049180 0.882156
O O11 0.399811 0.000000 0.000000
O O12 0.406450 0.812900 0.302688
O O13 0.240321 0.759680 0.347376
O O14 0.305506 0.862728 0.232272
O O15 0.370700 0.936710 0.355064
O O16 0.840432 0.680864 0.835292
O O17 0.807333 0.403667 0.208016
O O18 0.766493 0.233508 0.209510
O O19 0.926292 0.359955 0.257907
O O20 0.537530 0.075060 0.364554
#
# Coordination Sequence:
#
# PCOD8323460 Si02
#       7
#    12  12  12  12  12  12  12
#     4  10  20  35  54  78 105 137 175 220 271 320
#     4  11  22  35  54  79 108 141 177 216 263 319
#     4  10  20  34  51  72 103 140 172 208 259 314
#     4  10  18  30  50  75 103 132 167 210 256 303
#     4  10  19  32  52  74 100 132 172 217 260 308
#     4  10  19  33  54  79 105 134 172 217 265 314
#     4  10  20  35  56  78 104 138 175 220 265 312
#
# _framework density 18.135235000000002
#
# number of rings (size 3 to 8) (size 9 to 14) (size 15 to 20)
#    0.000    1.857    2.857    1.714    0.000    3.143 
#    0.000    0.000    0.000    2.857    0.000    1.000 
#    0.000    2.857    0.000    0.000    0.000    0.143 
#
# Total GULP energy -1041137.976081 kJ/mol
# GULP energy per Si atom -12394.499715 kJ/mol
# Density = 1.809396 g / cm^3
# Si number density = 18.135235 Si / 1000 Ang^3
#
#
#
# Elastic Constant Matrix: (Units=GPa)
#
#
# Indices 1 2 3 4 5 6 
#
# 1 90.5679 32.1414 36.4120 -2.1863 0.0000 0.0000
# 2 32.1414 90.5679 36.4120 2.1863 0.0000 0.0000
# 3 36.4120 36.4120 88.8404 0.0000 0.0000 0.0000
# 4 -2.1863 2.1863 0.0000 21.0844 0.0000 0.0000
# 5 0.0000 0.0000 0.0000 0.0000 21.0844 -2.1863
# 6 0.0000 0.0000 0.0000 0.0000 -2.1863 29.2132
#
#
#
# Elastic Compliance Matrix: (Units=1/GPa)
#
#
# Indices 1 2 3 4 5 6 
#
# 1 0.014009 -0.003240 -0.004414 0.001789 0.000000 0.000000
# 2 -0.003240 0.014009 -0.004414 -0.001789 0.000000 0.000000
# 3 -0.004414 -0.004414 0.014874 0.000000 0.000000 0.000000
# 4 0.001789 -0.001789 0.000000 0.047799 0.000000 0.000000
# 5 0.000000 0.000000 0.000000 0.000000 0.047799 0.003577
# 6 0.000000 0.000000 0.000000 0.000000 0.003577 0.034499
#
#
# Mechanical properties :
#
#
# Convention : Reuss Voigt Hill
#
# Bulk Modulus (GPa) = 53.31369 53.32298 53.31833
# Shear Modulus (GPa) = 24.58488 25.27715 24.93102
#
# Velocity S-wave (km/s) = 3.68590 3.73743 3.71175
# Velocity P-wave (km/s) = 6.89755 6.93479 6.91619
#
# Compressibility (1/GPa) = 0.01875691
#
# Stress axis : x y z
#
# Youngs Moduli (GPa) = 71.38248 71.38248 67.23104
#
# Poissons Ratio (x) = 0.23130 0.29673
# Poissons Ratio (y) = 0.23130 0.29673
# Poissons Ratio (z) = 0.31506 0.31506
#
# Static dielectric constant tensor:
#      x y z
#    x 3.452370 0.000000 0.000000 
#    y 0.000000 3.452370 0.000000 
#    z 0.000000 0.000000 3.013690 
# 
# 
# High freq. dielectric constant tensor:
#      x y z
#    x 1.709300 0.000000 0.000000 
#    y 0.000000 1.709300 0.000000 
#    z 0.000000 0.000000 1.667660 
# 
# From -- ./inp_files/3580.got.cif
#   From: 2010.03.12/outbox.cif.g09.slc.cpg/sg164_2_cif.got.tgz:3580.got - 2010.04.02 06:32:59.
