data_PCOD8323095
_publ_section_title
;
Structure prediction by ZEFSAII (Michael W. Deem and Ramdas Pophale) SiO2 
 PCOD8323095
Probable space group: P -3 1 M 
;
_chemical_formula_sum "Si O2"
_cell_formula_units_Z 48
_cell_length_a 14.467871
_cell_length_b 14.467871
_cell_length_c 13.429655
_cell_angle_alpha 90.000000
_cell_angle_beta 90.000000
_cell_angle_gamma 120.000000
_cell_volume 2434.471773
_symmetry_space_group_name_H-M "P -3 1 M "
_symmetry_group_IT_number 162
_symmetry_cell_setting 'hexagonal'
loop_
_space_group_symop_operation_xyz
x,y,z
-y,x-y,z
-x+y,-x,z
-y,-x,-z
-x+y,y,-z
x,x-y,-z
-x,-y,-z
y,-x+y,-z
x-y,x,-z
y,x,z
x-y,-y,z
-x,-x+y,z
loop_
_atom_site_type_symbol
_atom_site_label
_atom_site_fract_x
_atom_site_fract_y
_atom_site_fract_z
Si Si1 0.389465 0.268288 0.916157
Si Si2 0.268288 0.389465 0.583843
Si Si3 0.883491 0.120793 0.250000
Si Si4 0.447552 0.788564 0.750000
O O1 0.339571 0.339571 0.958583
O O2 0.303633 0.174442 0.848281
O O3 0.492717 0.345461 0.849575
O O4 0.422880 0.211440 0.000000
O O5 0.211441 0.422881 0.500000
O O6 0.339571 0.339571 0.541416
O O7 0.174442 0.303633 0.651718
O O8 0.345461 0.492716 0.650425
O O9 0.000000 0.131764 0.250000
O O10 0.791824 0.000000 0.250000
O O11 0.327335 0.769393 0.750000
#
# Coordination Sequence:
#
# PCOD8323095 Si02
#       4
#    12  12  12  12
#     4  10  20  36  57  84 114 146 185 233 284 341
#     4  10  20  36  57  84 114 146 185 233 284 341
#     4   9  17  30  49  75 110 148 184 222 270 330
#     4   9  21  40  59  75 109 150 185 232 286 326
#
# _framework density 19.716802999999999
#
# number of rings (size 3 to 8) (size 9 to 14) (size 15 to 20)
#    0.500    2.000    0.000    4.000    0.000    2.000 
#    0.000   17.500    0.000    8.000    0.000    0.000 
#    0.000    0.000    0.000    0.000    0.000    0.000 
#
# Total GULP energy -594926.131460 kJ/mol
# GULP energy per Si atom -12394.294405 kJ/mol
# Density = 1.967193 g / cm^3
# Si number density = 19.716803 Si / 1000 Ang^3
#
#
#
# Elastic Constant Matrix: (Units=GPa)
#
#
# Indices 1 2 3 4 5 6 
#
# 1 65.0977 1.6507 5.2163 -0.0002 0.0000 0.0000
# 2 1.6507 65.0977 5.2163 0.0002 0.0000 0.0000
# 3 5.2163 5.2163 81.4909 0.0000 0.0000 0.0000
# 4 -0.0002 0.0002 0.0000 17.5599 0.0000 0.0000
# 5 0.0000 0.0000 0.0000 0.0000 17.5599 -0.0002
# 6 0.0000 0.0000 0.0000 0.0000 -0.0002 31.7235
#
#
#
# Elastic Compliance Matrix: (Units=1/GPa)
#
#
# Indices 1 2 3 4 5 6 
#
# 1 0.015447 -0.000314 -0.000969 0.000000 0.000000 0.000000
# 2 -0.000314 0.015447 -0.000969 0.000000 0.000000 0.000000
# 3 -0.000969 -0.000969 0.012395 0.000000 0.000000 0.000000
# 4 0.000000 0.000000 0.000000 0.056948 0.000000 0.000000
# 5 0.000000 0.000000 0.000000 0.000000 0.056948 0.000000
# 6 0.000000 0.000000 0.000000 0.000000 0.000000 0.031522
#
#
# Mechanical properties :
#
#
# Convention : Reuss Voigt Hill
#
# Bulk Modulus (GPa) = 25.78207 26.20590 25.99399
# Shear Modulus (GPa) = 24.25540 26.67552 25.46546
#
# Velocity S-wave (km/s) = 3.51121 3.68221 3.59773
# Velocity P-wave (km/s) = 5.43532 5.60342 5.52001
#
# Compressibility (1/GPa) = 0.03878664
#
# Stress axis : x y z
#
# Youngs Moduli (GPa) = 64.73704 64.73704 80.67560
#
# Poissons Ratio (x) = 0.02033 0.07815
# Poissons Ratio (y) = 0.02033 0.07815
# Poissons Ratio (z) = 0.06271 0.06271
#
# Static dielectric constant tensor:
#      x y z
#    x 3.469610 0.000000 0.000000 
#    y 0.000000 3.469610 0.000000 
#    z 0.000000 0.000000 3.464250 
# 
# 
# High freq. dielectric constant tensor:
#      x y z
#    x 1.761770 0.000000 0.000000 
#    y 0.000000 1.761770 0.000000 
#    z 0.000000 0.000000 1.760000 
# 
# From -- ./inp_files/2066.got.cif
#   From: 2010.03.12/outbox.cif.g09.slc.cpg/sg162_2_cif.got.tgz:2066.got - 2010.04.02 06:27:41.
