data_PCOD8323389
_publ_section_title
;
Structure prediction by ZEFSAII (Michael W. Deem and Ramdas Pophale) SiO2 
 PCOD8323389
Probable space group: P -3 M 1
;
_chemical_formula_sum "Si O2"
_cell_formula_units_Z 96
_cell_length_a 18.048325
_cell_length_b 18.048325
_cell_length_c 20.594921
_cell_angle_alpha 90.000000
_cell_angle_beta 90.000000
_cell_angle_gamma 120.000000
_cell_volume 5809.845289
_symmetry_space_group_name_H-M "P -3 M 1"
_symmetry_group_IT_number 164
_symmetry_cell_setting 'hexagonal'
loop_
_space_group_symop_operation_xyz
x,y,z
-y,x-y,z
-x+y,-x,z
x-y,-y,-z
-x,-x+y,-z
y,x,-z
-x,-y,-z
y,-x+y,-z
x-y,x,-z
-x+y,y,z
x,x-y,z
-y,-x,z
loop_
_atom_site_type_symbol
_atom_site_label
_atom_site_fract_x
_atom_site_fract_y
_atom_site_fract_z
Si Si1 0.635803 0.734196 0.752519
Si Si2 0.166636 0.497952 0.500002
Si Si3 0.668925 0.164626 0.862770
Si Si4 0.100299 0.633015 0.365320
Si Si5 0.905226 0.365084 0.999995
Si Si6 0.467298 0.100326 0.365308
Si Si7 0.668925 0.504299 0.137223
Si Si8 0.364198 0.265806 0.752508
O O1 0.673747 0.836874 0.759050
O O2 0.570975 0.702444 0.691622
O O3 0.581222 0.684222 0.815540
O O4 0.712868 0.712870 0.744543
O O5 0.267998 0.535995 0.499979
O O6 0.142859 0.571430 0.500011
O O7 0.126645 0.443619 0.434324
O O8 0.126687 0.443635 0.565693
O O9 0.573427 0.146854 0.851914
O O10 0.736350 0.263651 0.847736
O O11 0.685535 0.144808 0.935888
O O12 0.684219 0.103005 0.815526
O O13 0.141106 0.570553 0.356988
O O14 0.131454 0.702439 0.308396
O O15 0.999987 0.575262 0.362022
O O16 0.912502 0.456251 0.999986
O O17 0.855186 0.314471 0.064101
O O18 0.000000 0.377103 0.000000
O O19 0.570566 0.141131 0.356972
O O20 0.736351 0.472702 0.152259
O O21 0.573427 0.426574 0.148083
O O22 0.326258 0.163129 0.759037
#
# Coordination Sequence:
#
# PCOD8323389 Si02
#       8
#    12  12  12  12  12  12  12  12
#     4  10  20  33  49  68  89 114 145 183 226 271
#     4  10  18  27  39  57  84 117 151 183 213 246
#     4  10  19  30  45  66  93 124 156 189 223 260
#     4   9  17  29  45  64  86 114 147 181 218 260
#     4   9  17  28  42  60  84 119 161 197 225 254
#     4   9  17  29  45  64  86 114 147 181 218 260
#     4  10  19  30  45  66  93 124 156 189 223 260
#     4  10  20  33  49  68  89 114 145 183 226 271
#
# _framework density 16.523675999999998
#
# number of rings (size 3 to 8) (size 9 to 14) (size 15 to 20)
#    0.000    2.375    0.000    3.375    0.000    4.000 
#    0.000    1.250    0.000    8.250    0.000    0.000 
#    0.000    0.000    0.000    0.000    0.000   52.000 
#
# Total GULP energy -1189994.091152 kJ/mol
# GULP energy per Si atom -12395.771783 kJ/mol
# Density = 1.648607 g / cm^3
# Si number density = 16.523676 Si / 1000 Ang^3
#
#
#
# Elastic Constant Matrix: (Units=GPa)
#
#
# Indices 1 2 3 4 5 6 
#
# 1 59.5745 34.7303 25.0960 0.0003 0.0000 0.0000
# 2 34.7303 59.5745 25.0960 -0.0003 0.0000 0.0000
# 3 25.0960 25.0960 118.6732 0.0000 0.0000 0.0000
# 4 0.0003 -0.0003 0.0000 13.9656 0.0000 0.0000
# 5 0.0000 0.0000 0.0000 0.0000 13.9656 0.0003
# 6 0.0000 0.0000 0.0000 0.0000 0.0003 12.4221
#
#
#
# Elastic Compliance Matrix: (Units=1/GPa)
#
#
# Indices 1 2 3 4 5 6 
#
# 1 0.026100 -0.014151 -0.002527 -0.000001 0.000000 0.000000
# 2 -0.014151 0.026100 -0.002527 0.000001 0.000000 0.000000
# 3 -0.002527 -0.002527 0.009495 0.000000 0.000000 0.000000
# 4 -0.000001 0.000001 0.000000 0.071605 0.000000 0.000000
# 5 0.000000 0.000000 0.000000 0.000000 0.071605 -0.000002
# 6 0.000000 0.000000 0.000000 0.000000 -0.000002 0.080502
#
#
# Mechanical properties :
#
#
# Convention : Reuss Voigt Hill
#
# Bulk Modulus (GPa) = 42.94528 45.29631 44.12080
# Shear Modulus (GPa) = 15.07945 18.26398 16.67171
#
# Velocity S-wave (km/s) = 3.02420 3.32824 3.17986
# Velocity P-wave (km/s) = 6.18393 6.49939 6.34362
#
# Compressibility (1/GPa) = 0.02328545
#
# Stress axis : x y z
#
# Youngs Moduli (GPa) = 38.31446 38.31446 105.31638
#
# Poissons Ratio (x) = 0.54219 0.26612
# Poissons Ratio (y) = 0.54219 0.26612
# Poissons Ratio (z) = 0.09681 0.09681
#
# Static dielectric constant tensor:
#      x y z
#    x 2.892190 0.000000 0.000000 
#    y 0.000000 2.892190 0.000000 
#    z 0.000000 0.000000 3.489880 
# 
# 
# High freq. dielectric constant tensor:
#      x y z
#    x 1.606960 0.000000 0.000000 
#    y 0.000000 1.606960 0.000000 
#    z 0.000000 0.000000 1.659660 
# 
# From -- ./inp_files/4751.got.cif
#   From: 2010.03.12/outbox.cif.g09.slc.cpg/sg164_3_cif.got.tgz:4751.got - 2010.04.02 06:32:59.
