data_PCOD8323004
_publ_section_title
;
Structure prediction by ZEFSAII (Michael W. Deem and Ramdas Pophale) SiO2 
 PCOD8323004
Probable space group: P -3 1 M 
;
_chemical_formula_sum "Si O2"
_cell_formula_units_Z 84
_cell_length_a 14.373263
_cell_length_b 14.373263
_cell_length_c 25.951165
_cell_angle_alpha 90.000000
_cell_angle_beta 90.000000
_cell_angle_gamma 120.000000
_cell_volume 4642.995206
_symmetry_space_group_name_H-M "P -3 1 M "
_symmetry_group_IT_number 162
_symmetry_cell_setting 'hexagonal'
loop_
_space_group_symop_operation_xyz
x,y,z
-y,x-y,z
-x+y,-x,z
-y,-x,-z
-x+y,y,-z
x,x-y,-z
-x,-y,-z
y,-x+y,-z
x-y,x,-z
y,x,z
x-y,-y,z
-x,-x+y,z
loop_
_atom_site_type_symbol
_atom_site_label
_atom_site_fract_x
_atom_site_fract_y
_atom_site_fract_z
Si Si1 0.568678 0.121874 0.211069
Si Si2 0.434001 0.877735 0.095497
Si Si3 0.202703 0.784288 0.057912
Si Si4 0.415286 0.216061 0.757981
Si Si5 0.124892 0.876568 0.554338
Si Si6 0.125464 0.253725 0.666328
Si Si7 0.873762 0.127192 0.148080
O O1 0.586707 0.169207 0.153284
O O2 0.677751 0.188640 0.243017
O O3 0.470409 0.126321 0.237850
O O4 0.542798 0.000000 0.209241
O O5 0.324158 0.809191 0.064746
O O6 0.531623 0.873728 0.067773
O O7 0.460006 0.000000 0.097275
O O8 0.172877 0.853817 0.095433
O O9 0.186705 0.813296 0.000000
O O10 0.352721 0.180166 0.704709
O O11 0.336054 0.156483 0.805281
O O12 0.158940 0.841060 0.500000
O O13 0.169448 0.860802 0.609101
O O14 0.000000 0.809559 0.561962
O O15 0.158339 0.000000 0.547261
O O16 0.181202 0.181202 0.671240
O O17 0.000000 0.177997 0.679743
O O18 0.000000 0.179989 0.158075
O O19 0.822179 0.000000 0.144366
#
# Coordination Sequence:
#
# PCOD8323004 Si02
#       7
#    12  12  12  12  12  12  12
#     4  11  21  37  59  80 102 133 170 212 268 324
#     4  11  22  40  61  81 105 134 170 215 268 319
#     4  12  25  40  62  88 112 138 172 217 270 325
#     4  12  23  38  59  82 109 138 176 227 276 328
#     4   8  13  22  39  67 106 151 194 230 264 305
#     4  10  19  31  50  80 118 157 191 224 264 315
#     4  12  25  42  61  82 111 147 183 216 256 315
#
# _framework density 18.091768999999999
#
# number of rings (size 3 to 8) (size 9 to 14) (size 15 to 20)
#    0.000    1.143    2.857    4.857    0.000    4.571 
#    0.000    1.429    0.000    0.857    0.000    1.000 
#    0.000    5.714    0.000    0.000    0.000    0.000 
#
# Total GULP energy -1041373.312414 kJ/mol
# GULP energy per Si atom -12397.301338 kJ/mol
# Density = 1.805059 g / cm^3
# Si number density = 18.091769 Si / 1000 Ang^3
#
#
#
# Elastic Constant Matrix: (Units=GPa)
#
#
# Indices 1 2 3 4 5 6 
#
# 1 70.2023 16.6109 34.0797 0.0000 -1.6851 0.0000
# 2 16.6109 70.2023 34.0797 0.0000 1.6851 0.0000
# 3 34.0797 34.0797 151.0584 0.0000 0.0000 0.0000
# 4 0.0000 0.0000 0.0000 22.1702 0.0000 1.6851
# 5 -1.6851 1.6851 0.0000 0.0000 22.1702 0.0000
# 6 0.0000 0.0000 0.0000 1.6851 0.0000 26.7957
#
#
#
# Elastic Compliance Matrix: (Units=1/GPa)
#
#
# Indices 1 2 3 4 5 6 
#
# 1 0.016374 -0.002375 -0.003158 0.000000 0.001425 0.000000
# 2 -0.002375 0.016374 -0.003158 0.000000 -0.001425 0.000000
# 3 -0.003158 -0.003158 0.008045 0.000000 0.000000 0.000000
# 4 0.000000 0.000000 0.000000 0.045322 0.000000 -0.002850
# 5 0.001425 -0.001425 0.000000 0.000000 0.045322 0.000000
# 6 0.000000 0.000000 0.000000 -0.002850 0.000000 0.037499
#
#
# Mechanical properties :
#
#
# Convention : Reuss Voigt Hill
#
# Bulk Modulus (GPa) = 42.71786 51.22261 46.97024
# Shear Modulus (GPa) = 25.75690 28.00671 26.88181
#
# Velocity S-wave (km/s) = 3.77726 3.93878 3.85887
# Velocity P-wave (km/s) = 6.53350 7.00424 6.77296
#
# Compressibility (1/GPa) = 0.02340941
#
# Stress axis : x y z
#
# Youngs Moduli (GPa) = 61.07263 61.07263 124.30159
#
# Poissons Ratio (x) = 0.14507 0.39256
# Poissons Ratio (y) = 0.14507 0.39256
# Poissons Ratio (z) = 0.19288 0.19288
#
# Static dielectric constant tensor:
#      x y z
#    x 3.232630 0.000000 0.000000 
#    y 0.000000 3.232630 0.000000 
#    z 0.000000 0.000000 3.702480 
# 
# 
# High freq. dielectric constant tensor:
#      x y z
#    x 1.690500 0.000000 0.000000 
#    y 0.000000 1.690500 0.000000 
#    z 0.000000 0.000000 1.699760 
# 
# From -- ./inp_files/3958.got.cif
#   From: 2010.03.12/outbox.cif.g09.slc.cpg/sg162_2_cif.got.tgz:3958.got - 2010.04.02 06:27:41.
