data_PCOD8323664
_publ_section_title
;
Structure prediction by ZEFSAII (Michael W. Deem and Ramdas Pophale) SiO2 
 PCOD8323664
Probable space group: P -3 M 1
;
_chemical_formula_sum "Si O2"
_cell_formula_units_Z 66
_cell_length_a 12.471129
_cell_length_b 12.471129
_cell_length_c 28.474562
_cell_angle_alpha 90.000000
_cell_angle_beta 90.000000
_cell_angle_gamma 120.000000
_cell_volume 3835.299000
_symmetry_space_group_name_H-M "P -3 M 1"
_symmetry_group_IT_number 164
_symmetry_cell_setting 'hexagonal'
loop_
_space_group_symop_operation_xyz
x,y,z
-y,x-y,z
-x+y,-x,z
x-y,-y,-z
-x,-x+y,-z
y,x,-z
-x,-y,-z
y,-x+y,-z
x-y,x,-z
-x+y,y,z
x,x-y,z
-y,-x,z
loop_
_atom_site_type_symbol
_atom_site_label
_atom_site_fract_x
_atom_site_fract_y
_atom_site_fract_z
Si Si1 0.081562 0.667077 0.044312
Si Si2 0.334110 0.417354 0.688657
Si Si3 0.249470 0.998498 0.133627
Si Si4 0.753246 0.753246 0.500000
Si Si5 0.416525 0.083180 0.777382
Si Si6 0.251914 0.250744 0.398663
O O1 0.096282 0.548141 0.048126
O O2 0.216317 0.783684 0.038248
O O3 0.014787 0.674839 0.090973
O O4 0.000000 0.661357 0.000000
O O5 0.206056 0.412111 0.699343
O O6 0.440690 0.559311 0.687137
O O7 0.357178 0.341585 0.728745
O O8 0.332928 0.354878 0.639249
O O9 0.106059 0.893942 0.131278
O O10 0.310990 0.991250 0.181840
O O11 0.260278 0.130139 0.130129
O O12 0.886629 0.773258 0.508968
O O13 0.683552 0.695310 0.549633
O O14 0.542508 0.085015 0.789034
O O15 0.446677 0.223339 0.774037
O O16 0.131183 0.262365 0.389598
O O17 0.213211 0.106606 0.394634
#
# Coordination Sequence:
#
# PCOD8323664 Si02
#       6
#    12  12  12   6  12  12
#     4  10  20  34  53  76 103 135 170 209 251 295
#     4  10  20  33  48  66  91 125 162 197 232 274
#     4  10  20  34  52  74 100 129 161 197 238 284
#     4   8  13  22  39  64  92 118 144 180 230 286
#     4  10  20  34  53  75  98 124 155 194 239 286
#     4   9  16  27  45  69  94 118 147 187 237 288
#
# _framework density 17.208566999999999
#
# number of rings (size 3 to 8) (size 9 to 14) (size 15 to 20)
#    0.000    2.364    0.000    3.182    0.000    1.455 
#    0.000    2.273    0.000   14.182    0.000    0.000 
#    0.000    0.000    0.000    0.000    0.000    0.000 
#
# Total GULP energy -818206.405400 kJ/mol
# GULP energy per Si atom -12397.066748 kJ/mol
# Density = 1.716940 g / cm^3
# Si number density = 17.208567 Si / 1000 Ang^3
#
#
#
# Elastic Constant Matrix: (Units=GPa)
#
#
# Indices 1 2 3 4 5 6 
#
# 1 68.7818 32.5835 37.6665 0.0800 0.0000 0.0000
# 2 32.5835 68.7818 37.6665 -0.0800 0.0000 0.0000
# 3 37.6665 37.6665 121.0807 0.0000 0.0000 0.0000
# 4 0.0800 -0.0800 0.0000 25.8410 0.0000 0.0000
# 5 0.0000 0.0000 0.0000 0.0000 25.8410 0.0800
# 6 0.0000 0.0000 0.0000 0.0000 0.0800 18.0992
#
#
#
# Elastic Compliance Matrix: (Units=1/GPa)
#
#
# Indices 1 2 3 4 5 6 
#
# 1 0.020229 -0.007397 -0.003992 -0.000086 0.000000 0.000000
# 2 -0.007397 0.020229 -0.003992 0.000086 0.000000 0.000000
# 3 -0.003992 -0.003992 0.010743 0.000000 0.000000 0.000000
# 4 -0.000086 0.000086 0.000000 0.038699 0.000000 0.000000
# 5 0.000000 0.000000 0.000000 0.000000 0.038699 -0.000171
# 6 0.000000 0.000000 0.000000 0.000000 -0.000171 0.055252
#
#
# Mechanical properties :
#
#
# Convention : Reuss Voigt Hill
#
# Bulk Modulus (GPa) = 48.92573 52.71971 50.82272
# Shear Modulus (GPa) = 22.58106 24.00473 23.29289
#
# Velocity S-wave (km/s) = 3.62636 3.73893 3.68307
# Velocity P-wave (km/s) = 6.78430 7.02436 6.90537
#
# Compressibility (1/GPa) = 0.02043914
#
# Stress axis : x y z
#
# Youngs Moduli (GPa) = 49.43402 49.43402 93.08748
#
# Poissons Ratio (x) = 0.36566 0.37159
# Poissons Ratio (y) = 0.36566 0.37159
# Poissons Ratio (z) = 0.19733 0.19733
#
# Static dielectric constant tensor:
#      x y z
#    x 3.087390 0.000000 0.000000 
#    y 0.000000 3.087390 0.000000 
#    z 0.000000 0.000000 3.501160 
# 
# 
# High freq. dielectric constant tensor:
#      x y z
#    x 1.657390 0.000000 0.000000 
#    y 0.000000 1.657390 0.000000 
#    z 0.000000 0.000000 1.688190 
# 
# From -- ./inp_files/5498.got.cif
#   From: 2010.03.12/outbox.cif.g09.slc.cpg/sg164_3_cif.got.tgz:5498.got - 2010.04.02 06:32:59.
