data_PCOD8323800
_publ_section_title
;
Structure prediction by ZEFSAII (Michael W. Deem and Ramdas Pophale) SiO2 
 PCOD8323800
Probable space group: P -3 M 1
;
_chemical_formula_sum "Si O2"
_cell_formula_units_Z 84
_cell_length_a 17.066337
_cell_length_b 17.066337
_cell_length_c 16.219642
_cell_angle_alpha 90.000000
_cell_angle_beta 90.000000
_cell_angle_gamma 120.000000
_cell_volume 4091.217141
_symmetry_space_group_name_H-M "P -3 M 1"
_symmetry_group_IT_number 164
_symmetry_cell_setting 'hexagonal'
loop_
_space_group_symop_operation_xyz
x,y,z
-y,x-y,z
-x+y,-x,z
x-y,-y,-z
-x,-x+y,-z
y,x,-z
-x,-y,-z
y,-x+y,-z
x-y,x,-z
-x+y,y,z
x,x-y,z
-y,-x,z
loop_
_atom_site_type_symbol
_atom_site_label
_atom_site_fract_x
_atom_site_fract_y
_atom_site_fract_z
Si Si1 0.976274 0.574708 0.376143
Si Si2 0.274498 0.046920 0.420173
Si Si3 0.598434 0.023726 0.876144
Si Si4 0.184061 0.000000 0.750000
Si Si5 0.489055 0.152512 0.720688
Si Si6 0.336543 0.847488 0.779313
Si Si7 0.227579 0.953081 0.079827
O O1 0.959507 0.479754 0.414726
O O2 0.950912 0.631230 0.438905
O O3 0.908511 0.554103 0.300515
O O4 0.082563 0.636694 0.354654
O O5 0.295343 0.147672 0.411455
O O6 0.232897 0.993860 0.333602
O O7 0.210266 0.000000 0.500000
O O8 0.520247 0.040493 0.914728
O O9 0.645592 0.091490 0.800517
O O10 0.680319 0.049088 0.938906
O O11 0.554131 0.917437 0.854656
O O12 0.085865 0.914136 0.744584
O O13 0.171730 0.085865 0.755416
O O14 0.232897 0.993860 0.833601
O O15 0.597813 0.195626 0.720871
O O16 0.464507 0.232254 0.715057
O O17 0.402188 0.804375 0.779129
O O18 0.232254 0.767747 0.784945
O O19 0.147671 0.852330 0.088546
O O20 0.210265 0.000000 0.000000
#
# Coordination Sequence:
#
# PCOD8323800 Si02
#       7
#    12  12  12  12  12  12  12
#     4   9  19  33  50  75 107 145 186 226 274 330
#     4  11  23  38  59  86 113 145 186 228 273 327
#     4   9  19  33  50  75 107 145 186 226 274 330
#     4  10  21  38  59  84 116 150 184 226 275 328
#     4   9  16  28  49  78 111 146 185 229 275 324
#     4   9  16  28  49  78 111 146 185 229 275 324
#     4  11  23  38  59  86 113 145 186 228 273 327
#
# _framework density 20.531787000000001
#
# number of rings (size 3 to 8) (size 9 to 14) (size 15 to 20)
#    0.000    2.286    0.000    5.571    0.000    5.143 
#    0.000    0.000    0.000    5.143    0.000    2.000 
#    0.000    0.000    0.000    0.000    0.000    0.000 
#
# Total GULP energy -1040716.059248 kJ/mol
# GULP energy per Si atom -12389.476896 kJ/mol
# Density = 2.048506 g / cm^3
# Si number density = 20.531787 Si / 1000 Ang^3
#
#
#
# Elastic Constant Matrix: (Units=GPa)
#
#
# Indices 1 2 3 4 5 6 
#
# 1 109.0486 43.0355 22.9739 2.5266 0.0000 0.0000
# 2 43.0355 109.0486 22.9739 -2.5266 0.0000 0.0000
# 3 22.9739 22.9739 106.9152 0.0000 0.0000 0.0000
# 4 2.5266 -2.5266 0.0000 18.7753 0.0000 0.0000
# 5 0.0000 0.0000 0.0000 0.0000 18.7753 2.5266
# 6 0.0000 0.0000 0.0000 0.0000 2.5266 33.0065
#
#
#
# Elastic Compliance Matrix: (Units=1/GPa)
#
#
# Indices 1 2 3 4 5 6 
#
# 1 0.011169 -0.004137 -0.001511 -0.002060 0.000000 0.000000
# 2 -0.004137 0.011169 -0.001511 0.002060 0.000000 0.000000
# 3 -0.001511 -0.001511 0.010003 0.000000 0.000000 0.000000
# 4 -0.002060 0.002060 0.000000 0.053816 0.000000 0.000000
# 5 0.000000 0.000000 0.000000 0.000000 0.053816 -0.004119
# 6 0.000000 0.000000 0.000000 0.000000 -0.004119 0.030612
#
#
# Mechanical properties :
#
#
# Convention : Reuss Voigt Hill
#
# Bulk Modulus (GPa) = 55.48705 55.88655 55.68680
# Shear Modulus (GPa) = 26.19035 29.84672 28.01853
#
# Velocity S-wave (km/s) = 3.57543 3.81686 3.69811
# Velocity P-wave (km/s) = 6.64293 6.83397 6.73913
#
# Compressibility (1/GPa) = 0.01802222
#
# Stress axis : x y z
#
# Youngs Moduli (GPa) = 89.53358 89.53358 99.97429
#
# Poissons Ratio (x) = 0.37042 0.15106
# Poissons Ratio (y) = 0.37042 0.15106
# Poissons Ratio (z) = 0.13528 0.13528
#
# Static dielectric constant tensor:
#      x y z
#    x 3.743430 0.000000 0.000000 
#    y 0.000000 3.743430 0.000000 
#    z 0.000000 0.000000 3.635740 
# 
# 
# High freq. dielectric constant tensor:
#      x y z
#    x 1.806010 0.000000 0.000000 
#    y 0.000000 1.806010 0.000000 
#    z 0.000000 0.000000 1.782820 
# 
# From -- ./inp_files/3543.got.cif
#   From: 2010.03.12/outbox.cif.g09.slc.cpg/sg164_2_cif.got.tgz:3543.got - 2010.04.02 06:32:59.
