data_PCOD8323757
_publ_section_title
;
Structure prediction by ZEFSAII (Michael W. Deem and Ramdas Pophale) SiO2 
 PCOD8323757
Probable space group: P -3 M 1
;
_chemical_formula_sum "Si O2"
_cell_formula_units_Z 84
_cell_length_a 17.179424
_cell_length_b 17.179424
_cell_length_c 17.111753
_cell_angle_alpha 90.000000
_cell_angle_beta 90.000000
_cell_angle_gamma 120.000000
_cell_volume 4373.632937
_symmetry_space_group_name_H-M "P -3 M 1"
_symmetry_group_IT_number 164
_symmetry_cell_setting 'hexagonal'
loop_
_space_group_symop_operation_xyz
x,y,z
-y,x-y,z
-x+y,-x,z
x-y,-y,-z
-x,-x+y,-z
y,x,-z
-x,-y,-z
y,-x+y,-z
x-y,x,-z
-x+y,y,z
x,x-y,z
-y,-x,z
loop_
_atom_site_type_symbol
_atom_site_label
_atom_site_fract_x
_atom_site_fract_y
_atom_site_fract_z
Si Si1 0.486994 0.332569 0.633672
Si Si2 0.936095 0.243341 0.932150
Si Si3 0.999780 0.178159 0.410649
Si Si4 0.326659 0.973531 0.666776
Si Si5 0.667307 0.156407 0.452342
Si Si6 0.332227 0.844511 0.976176
Si Si7 0.272769 0.906865 0.831941
O O1 0.491763 0.245882 0.660615
O O2 0.581786 0.418215 0.653900
O O3 0.408975 0.335790 0.682325
O O4 0.462107 0.327208 0.542578
O O5 0.856867 0.143134 0.914482
O O6 0.995493 0.282378 0.854296
O O7 0.897084 0.307195 0.959840
O O8 0.000000 0.240783 0.000000
O O9 0.926150 0.073851 0.400120
O O10 0.976021 0.237301 0.354576
O O11 0.000000 0.208173 0.500000
O O12 0.096079 0.192157 0.386594
O O13 0.356021 0.930850 0.597547
O O14 0.308080 0.913446 0.744041
O O15 0.592045 0.184090 0.439980
O O16 0.761573 0.238428 0.423311
O O17 0.431153 0.862305 0.994614
O O18 0.261590 0.738411 0.980625
O O19 0.330332 0.881020 0.889650
O O20 0.167875 0.832126 0.839042
#
# Coordination Sequence:
#
# PCOD8323757 Si02
#       7
#    12  12  12  12  12  12  12
#     4  10  21  37  56  77 102 136 179 227 279 330
#     4   9  18  34  57  81 105 134 170 212 257 306
#     4  10  20  34  52  74 101 135 177 227 282 335
#     4  12  22  34  53  78 107 139 181 227 265 313
#     4  10  20  35  54  76 104 138 178 226 278 327
#     4   9  18  34  57  84 111 140 174 212 255 304
#     4  10  22  37  52  75 109 145 175 207 254 310
#
# _framework density 19.206
#
# number of rings (size 3 to 8) (size 9 to 14) (size 15 to 20)
#    0.000    2.000    0.000    5.286    0.000   10.000 
#    0.000    0.000    0.000    4.286    0.000    2.000 
#    0.000    0.000    0.000    0.000    0.000    0.000 
#
# Total GULP energy -1041875.807550 kJ/mol
# GULP energy per Si atom -12403.283423 kJ/mol
# Density = 1.916229 g / cm^3
# Si number density = 19.206000 Si / 1000 Ang^3
#
#
#
# Elastic Constant Matrix: (Units=GPa)
#
#
# Indices 1 2 3 4 5 6 
#
# 1 98.6312 38.3170 21.3880 -2.3354 0.0000 0.0000
# 2 38.3170 98.6312 21.3880 2.3354 0.0000 0.0000
# 3 21.3880 21.3880 41.9085 0.0000 0.0000 0.0000
# 4 -2.3354 2.3354 0.0000 18.7250 0.0000 0.0000
# 5 0.0000 0.0000 0.0000 0.0000 18.7250 -2.3354
# 6 0.0000 0.0000 0.0000 0.0000 -2.3354 30.1571
#
#
#
# Elastic Compliance Matrix: (Units=1/GPa)
#
#
# Indices 1 2 3 4 5 6 
#
# 1 0.012714 -0.004027 -0.004433 0.002088 0.000000 0.000000
# 2 -0.004027 0.012714 -0.004433 -0.002088 0.000000 0.000000
# 3 -0.004433 -0.004433 0.028387 0.000000 0.000000 0.000000
# 4 0.002088 -0.002088 0.000000 0.053925 0.000000 0.000000
# 5 0.000000 0.000000 0.000000 0.000000 0.053925 0.004176
# 6 0.000000 0.000000 0.000000 0.000000 0.004176 0.033483
#
#
# Mechanical properties :
#
#
# Convention : Reuss Voigt Hill
#
# Bulk Modulus (GPa) = 35.67994 44.59522 40.13758
# Shear Modulus (GPa) = 21.71278 24.05993 22.88636
#
# Velocity S-wave (km/s) = 3.36597 3.54323 3.45574
# Velocity P-wave (km/s) = 5.80725 6.32528 6.07179
#
# Compressibility (1/GPa) = 0.02802695
#
# Stress axis : x y z
#
# Youngs Moduli (GPa) = 78.65239 78.65239 35.22786
#
# Poissons Ratio (x) = 0.31676 0.15618
# Poissons Ratio (y) = 0.31676 0.15618
# Poissons Ratio (z) = 0.34869 0.34869
#
# Static dielectric constant tensor:
#      x y z
#    x 3.507010 0.000000 0.000000 
#    y 0.000000 3.507010 0.000000 
#    z 0.000000 0.000000 3.282470 
# 
# 
# High freq. dielectric constant tensor:
#      x y z
#    x 1.752430 0.000000 0.000000 
#    y 0.000000 1.752430 0.000000 
#    z 0.000000 0.000000 1.720520 
# 
# From -- ./inp_files/3579.got.cif
#   From: 2010.03.12/outbox.cif.g09.slc.cpg/sg164_2_cif.got.tgz:3579.got - 2010.04.02 06:32:59.
