data_PCOD8323796
_publ_section_title
;
Structure prediction by ZEFSAII (Michael W. Deem and Ramdas Pophale) SiO2 
 PCOD8323796
Probable space group: P -3 M 1
;
_chemical_formula_sum "Si O2"
_cell_formula_units_Z 60
_cell_length_a 27.219740
_cell_length_b 27.219740
_cell_length_c 5.038429
_cell_angle_alpha 90.000000
_cell_angle_beta 90.000000
_cell_angle_gamma 120.000000
_cell_volume 3232.910783
_symmetry_space_group_name_H-M "P -3 M 1"
_symmetry_group_IT_number 164
_symmetry_cell_setting 'hexagonal'
loop_
_space_group_symop_operation_xyz
x,y,z
-y,x-y,z
-x+y,-x,z
x-y,-y,-z
-x,-x+y,-z
y,x,-z
-x,-y,-z
y,-x+y,-z
x-y,x,-z
-x+y,y,z
x,x-y,z
-y,-x,z
loop_
_atom_site_type_symbol
_atom_site_label
_atom_site_fract_x
_atom_site_fract_y
_atom_site_fract_z
Si Si1 0.225122 0.666555 0.461116
Si Si2 0.368996 0.062074 0.419375
Si Si3 0.327700 0.830275 0.958925
Si Si4 0.132181 0.375847 0.075515
Si Si5 0.416651 0.470669 0.817194
O O1 0.210651 0.605326 0.557238
O O2 0.290682 0.709319 0.513216
O O3 0.186247 0.680612 0.648528
O O4 0.213599 0.667017 0.149428
O O5 0.369127 0.104693 0.637316
O O6 0.428522 0.060059 0.395998
O O7 0.319049 0.000000 0.500000
O O8 0.352652 0.082223 0.146530
O O9 0.384518 0.890906 0.003585
O O10 0.269991 0.827777 0.033633
O O11 0.174492 0.348983 0.064348
O O12 0.474656 0.525345 0.694653
O O13 0.433206 0.433206 0.000000
#
# Coordination Sequence:
#
# PCOD8323796 Si02
#       5
#    12  12  12  12  12
#     4  12  24  39  55  72  93 119 154 195 244 298
#     4  11  22  38  57  81 111 139 170 217 271 315
#     4  11  23  38  56  74  98 125 157 201 250 301
#     4  11  22  38  59  81 105 138 177 213 256 313
#     4  10  21  37  55  77 104 134 169 208 260 330
#
# _framework density 18.559127
#
# number of rings (size 3 to 8) (size 9 to 14) (size 15 to 20)
#    0.000    1.000    0.000    9.800    0.000    0.400 
#    0.000    9.000    0.000    0.000    0.000    0.000 
#    0.000    0.000    0.000    0.000    0.000    0.000 
#
# Total GULP energy -743358.491962 kJ/mol
# GULP energy per Si atom -12389.308199 kJ/mol
# Density = 1.851689 g / cm^3
# Si number density = 18.559127 Si / 1000 Ang^3
#
#
#
# Elastic Constant Matrix: (Units=GPa)
#
#
# Indices 1 2 3 4 5 6 
#
# 1 71.9278 38.0623 27.2409 3.6872 0.0000 0.0000
# 2 38.0623 71.9278 27.2409 -3.6872 0.0000 0.0000
# 3 27.2409 27.2409 95.7883 0.0000 0.0000 0.0000
# 4 3.6872 -3.6872 0.0000 21.7793 0.0000 0.0000
# 5 0.0000 0.0000 0.0000 0.0000 21.7793 3.6872
# 6 0.0000 0.0000 0.0000 0.0000 3.6872 16.9328
#
#
#
# Elastic Compliance Matrix: (Units=1/GPa)
#
#
# Indices 1 2 3 4 5 6 
#
# 1 0.020621 -0.010038 -0.003010 -0.005190 0.000000 0.000000
# 2 -0.010038 0.020621 -0.003010 0.005190 0.000000 0.000000
# 3 -0.003010 -0.003010 0.012151 0.000000 0.000000 0.000000
# 4 -0.005190 0.005190 0.000000 0.047673 0.000000 0.000000
# 5 0.000000 0.000000 0.000000 0.000000 0.047673 -0.010381
# 6 0.000000 0.000000 0.000000 0.000000 -0.010381 0.061318
#
#
# Mechanical properties :
#
#
# Convention : Reuss Voigt Hill
#
# Bulk Modulus (GPa) = 46.99631 47.19247 47.09439
# Shear Modulus (GPa) = 20.05917 21.90493 20.98205
#
# Velocity S-wave (km/s) = 3.29116 3.43924 3.36602
# Velocity P-wave (km/s) = 6.31029 6.42297 6.36688
#
# Compressibility (1/GPa) = 0.02127827
#
# Stress axis : x y z
#
# Youngs Moduli (GPa) = 48.49519 48.49519 82.29497
#
# Poissons Ratio (x) = 0.48680 0.24767
# Poissons Ratio (y) = 0.48680 0.24767
# Poissons Ratio (z) = 0.14595 0.14595
#
# Static dielectric constant tensor:
#      x y z
#    x 3.401700 0.000000 0.000000 
#    y 0.000000 3.401700 0.000000 
#    z 0.000000 0.000000 3.524360 
# 
# 
# High freq. dielectric constant tensor:
#      x y z
#    x 1.693370 0.000000 0.000000 
#    y 0.000000 1.693370 0.000000 
#    z 0.000000 0.000000 1.732660 
# 
# From -- ./inp_files/687.got.cif
#   From: 2010.03.12/outbox.cif.g09.slc.cpg/sg164_1_cif.got.tgz:687.got - 2010.04.02 06:32:59.
