data_PCOD8323008
_publ_section_title
;
Structure prediction by ZEFSAII (Michael W. Deem and Ramdas Pophale) SiO2 
 PCOD8323008
Probable space group: P -3 1 M 
;
_chemical_formula_sum "Si O2"
_cell_formula_units_Z 90
_cell_length_a 16.980783
_cell_length_b 16.980783
_cell_length_c 18.459426
_cell_angle_alpha 90.000000
_cell_angle_beta 90.000000
_cell_angle_gamma 120.000000
_cell_volume 4609.610692
_symmetry_space_group_name_H-M "P -3 1 M "
_symmetry_group_IT_number 162
_symmetry_cell_setting 'hexagonal'
loop_
_space_group_symop_operation_xyz
x,y,z
-y,x-y,z
-x+y,-x,z
-y,-x,-z
-x+y,y,-z
x,x-y,-z
-x,-y,-z
y,-x+y,-z
x-y,x,-z
y,x,z
x-y,-y,z
-x,-x+y,z
loop_
_atom_site_type_symbol
_atom_site_label
_atom_site_fract_x
_atom_site_fract_y
_atom_site_fract_z
Si Si1 0.608731 0.217462 0.500000
Si Si2 0.104933 0.795417 0.186298
Si Si3 0.669974 0.771567 0.557272
Si Si4 0.503053 0.894897 0.370466
Si Si5 0.518121 0.106662 0.074760
Si Si6 0.769069 0.104769 0.937280
Si Si7 0.899296 0.104809 0.676628
Si Si8 0.380696 0.891952 0.791485
O O1 0.718622 0.281379 0.500000
O O2 0.578933 0.156688 0.572518
O O3 0.167406 0.876413 0.131979
O O4 0.121681 0.839185 0.264807
O O5 0.138252 0.722070 0.186711
O O6 0.000000 0.749716 0.161938
O O7 0.632939 0.816470 0.500000
O O8 0.712444 0.712444 0.522368
O O9 0.587539 0.706427 0.609585
O O10 0.749699 0.856072 0.599633
O O11 0.470010 0.855436 0.288971
O O12 0.531129 0.000000 0.374166
O O13 0.437603 0.128844 0.080707
O O14 0.581266 0.147920 0.146432
O O15 0.482223 0.000000 0.074439
O O16 0.574346 0.148692 0.000000
O O17 0.725583 0.000000 0.961024
O O18 0.830597 0.169404 0.000000
O O19 0.000000 0.119318 0.688583
O O20 0.825295 0.000000 0.681730
O O21 0.438056 0.000000 0.787063
#
# Coordination Sequence:
#
# PCOD8323008 Si02
#       8
#     6  12  12  12  12  12  12  12
#     4  10  23  40  56  80 116 152 186 230 291 362
#     4  10  19  35  58  83 113 154 197 241 291 343
#     4  10  19  32  52  78 110 147 193 243 288 337
#     4  10  19  37  61  84 109 147 195 239 289 351
#     4   9  18  34  57  83 109 138 179 231 290 346
#     4  11  22  36  55  84 116 153 197 242 287 343
#     4  10  19  32  50  78 115 156 198 245 297 347
#     4   9  17  34  60  85 108 140 184 237 292 351
#
# _framework density 19.524425000000001
#
# number of rings (size 3 to 8) (size 9 to 14) (size 15 to 20)
#    0.133    2.000    1.333    2.733    0.000    2.133 
#    2.400    0.000    0.000   14.933    0.000    0.000 
#    0.000    0.000    0.000    0.000    0.000    0.000 
#
# Total GULP energy -1115737.558167 kJ/mol
# GULP energy per Si atom -12397.083980 kJ/mol
# Density = 1.947999 g / cm^3
# Si number density = 19.524425 Si / 1000 Ang^3
#
#
#
# Elastic Constant Matrix: (Units=GPa)
#
#
# Indices 1 2 3 4 5 6 
#
# 1 78.8005 42.6217 44.5798 -0.0001 5.1952 0.0000
# 2 42.6217 78.8005 44.5798 0.0001 -5.1952 0.0000
# 3 44.5798 44.5798 135.9012 0.0000 0.0000 0.0000
# 4 -0.0001 0.0001 0.0000 27.2438 0.0000 -5.1952
# 5 5.1952 -5.1952 0.0000 0.0000 27.2438 -0.0001
# 6 0.0000 0.0000 0.0000 -5.1952 -0.0001 18.0894
#
#
#
# Elastic Compliance Matrix: (Units=1/GPa)
#
#
# Indices 1 2 3 4 5 6 
#
# 1 0.020045 -0.009197 -0.003559 0.000000 -0.005576 0.000000
# 2 -0.009197 0.020045 -0.003559 0.000000 0.005576 0.000000
# 3 -0.003559 -0.003559 0.009693 0.000000 0.000000 0.000000
# 4 0.000000 0.000000 0.000000 0.038832 0.000000 0.011152
# 5 -0.005576 0.005576 0.000000 0.000000 0.038832 0.000000
# 6 0.000000 0.000000 0.000000 0.011152 0.000000 0.058484
#
#
# Mechanical properties :
#
#
# Convention : Reuss Voigt Hill
#
# Bulk Modulus (GPa) = 58.28940 61.89609 60.09274
# Shear Modulus (GPa) = 22.29364 25.29680 23.79522
#
# Velocity S-wave (km/s) = 3.38277 3.60342 3.49483
# Velocity P-wave (km/s) = 6.72138 7.00596 6.86514
#
# Compressibility (1/GPa) = 0.01715578
#
# Stress axis : x y z
#
# Youngs Moduli (GPa) = 49.88668 49.88668 103.16654
#
# Poissons Ratio (x) = 0.45878 0.36715
# Poissons Ratio (y) = 0.45878 0.36715
# Poissons Ratio (z) = 0.17754 0.17754
#
# Static dielectric constant tensor:
#      x y z
#    x 3.484620 0.000000 0.000000 
#    y 0.000000 3.484620 0.000000 
#    z 0.000000 0.000000 3.785920 
# 
# 
# High freq. dielectric constant tensor:
#      x y z
#    x 1.744750 0.000000 0.000000 
#    y 0.000000 1.744750 0.000000 
#    z 0.000000 0.000000 1.768380 
# 
# From -- ./inp_files/3651.got.cif
#   From: 2010.03.12/outbox.cif.g09.slc.cpg/sg162_2_cif.got.tgz:3651.got - 2010.04.02 06:27:41.
