data_PCOD8323974
_publ_section_title
;
Structure prediction by ZEFSAII (Michael W. Deem and Ramdas Pophale) SiO2 
 PCOD8323974
Probable space group: P -3 C 1
;
_chemical_formula_sum "Si O2"
_cell_formula_units_Z 56
_cell_length_a 12.951185
_cell_length_b 12.951185
_cell_length_c 25.966371
_cell_angle_alpha 90.000000
_cell_angle_beta 90.000000
_cell_angle_gamma 120.000000
_cell_volume 3771.906370
_symmetry_space_group_name_H-M "P -3 C 1"
_symmetry_group_IT_number 165
_symmetry_cell_setting 'hexagonal'
loop_
_space_group_symop_operation_xyz
x,y,z
-y,x-y,z
-x+y,-x,z
x-y,-y,1/2-z
-x,-x+y,1/2-z
y,x,1/2-z
-x,-y,-z
y,-x+y,-z
x-y,x,-z
-x+y,y,1/2+z
x,x-y,1/2+z
-y,-x,1/2+z
loop_
_atom_site_type_symbol
_atom_site_label
_atom_site_fract_x
_atom_site_fract_y
_atom_site_fract_z
Si Si1 0.488503 0.136028 0.368718
Si Si2 0.303616 0.438141 0.190296
Si Si3 0.136027 0.488502 0.368718
Si Si4 0.666667 0.333334 0.060742
Si Si5 0.865475 0.303616 0.690296
Si Si6 0.666667 0.333334 0.939259
O O1 0.585621 0.150072 0.326658
O O2 0.409914 0.186948 0.342499
O O3 0.554326 0.210137 0.419713
O O4 0.401379 0.000001 0.385235
O O5 0.279154 0.445982 0.250000
O O6 0.332771 0.332771 0.179422
O O7 0.210136 0.554324 0.419712
O O8 0.150071 0.585621 0.326658
O O9 0.186947 0.409913 0.342498
O O10 0.666668 0.333334 0.000000
#
# Coordination Sequence:
#
# PCOD8323974 Si02
#       6
#    12  12  12   4  12   4
#     4   9  17  28  42  60  83 111 138 166 207 251
#     4   9  16  25  39  61  86 109 134 163 194 236
#     4   9  17  28  42  60  83 111 138 166 207 251
#     4   9  18  30  43  62  85 105 135 180 217 251
#     4   9  16  25  39  61  86 109 134 163 194 236
#     4   9  18  30  43  62  85 105 135 180 217 251
#
# _framework density 14.846603
#
# number of rings (size 3 to 8) (size 9 to 14) (size 15 to 20)
#    0.000    3.000    0.000    2.143    0.000    3.429 
#    0.000    0.000    0.000    0.857    0.000    0.000 
#    0.000    1.714    0.000    0.000    0.000    0.000 
#
# Total GULP energy -694347.719677 kJ/mol
# GULP energy per Si atom -12399.066423 kJ/mol
# Density = 1.481281 g / cm^3
# Si number density = 14.846603 Si / 1000 Ang^3
#
#
#
# Elastic Constant Matrix: (Units=GPa)
#
#
# Indices 1 2 3 4 5 6 
#
# 1 89.2882 51.2146 54.7549 -0.0001 0.0000 0.0000
# 2 51.2146 89.2883 54.7549 -0.0001 0.0000 0.0000
# 3 54.7549 54.7549 117.0161 0.0000 0.0000 0.0000
# 4 -0.0001 -0.0001 0.0000 13.7842 0.0000 0.0000
# 5 0.0000 0.0000 0.0000 0.0000 13.7843 0.0000
# 6 0.0000 0.0000 0.0000 0.0000 0.0000 19.0372
#
#
#
# Elastic Compliance Matrix: (Units=1/GPa)
#
#
# Indices 1 2 3 4 5 6 
#
# 1 0.018734 -0.007531 -0.005242 0.000000 0.000000 0.000000
# 2 -0.007531 0.018734 -0.005242 0.000000 0.000000 0.000000
# 3 -0.005242 -0.005242 0.013452 0.000000 0.000000 0.000000
# 4 0.000000 0.000000 0.000000 0.072547 0.000000 0.000000
# 5 0.000000 0.000000 0.000000 0.000000 0.072546 0.000000
# 6 0.000000 0.000000 0.000000 0.000000 0.000000 0.052529
#
#
# Mechanical properties :
#
#
# Convention : Reuss Voigt Hill
#
# Bulk Modulus (GPa) = 67.16306 68.56014 67.86160
# Shear Modulus (GPa) = 17.26903 18.31235 17.79069
#
# Velocity S-wave (km/s) = 3.41422 3.51584 3.46540
# Velocity P-wave (km/s) = 7.80248 7.92217 7.86255
#
# Compressibility (1/GPa) = 0.01488914
#
# Stress axis : x y z
#
# Youngs Moduli (GPa) = 53.37879 53.37881 74.33939
#
# Poissons Ratio (x) = 0.40199 0.38971
# Poissons Ratio (y) = 0.40199 0.38971
# Poissons Ratio (z) = 0.27983 0.27983
#
# Static dielectric constant tensor:
#      x y z
#    x 2.913380 0.000000 0.000000 
#    y 0.000000 2.913380 0.000000 
#    z 0.000000 0.000000 2.633840 
# 
# 
# High freq. dielectric constant tensor:
#      x y z
#    x 1.555840 0.000000 0.000000 
#    y 0.000000 1.555840 0.000000 
#    z 0.000000 0.000000 1.553610 
# 
# From -- ./inp_files/2655.got.cif
#   From: 2010.03.12/outbox.cif.g09.slc.cpg/sg165_2_cif.got.tgz:2655.got - 2010.04.02 06:36:38.
