data_PCOD8323103
_publ_section_title
;
Structure prediction by ZEFSAII (Michael W. Deem and Ramdas Pophale) SiO2 
 PCOD8323103
Probable space group: P -3 1 M 
;
_chemical_formula_sum "Si O2"
_cell_formula_units_Z 48
_cell_length_a 16.992454
_cell_length_b 16.992454
_cell_length_c 9.843806
_cell_angle_alpha 90.000000
_cell_angle_beta 90.000000
_cell_angle_gamma 120.000000
_cell_volume 2461.534254
_symmetry_space_group_name_H-M "P -3 1 M "
_symmetry_group_IT_number 162
_symmetry_cell_setting 'hexagonal'
loop_
_space_group_symop_operation_xyz
x,y,z
-y,x-y,z
-x+y,-x,z
-y,-x,-z
-x+y,y,-z
x,x-y,-z
-x,-y,-z
y,-x+y,-z
x-y,x,-z
y,x,z
x-y,-y,z
-x,-x+y,z
loop_
_atom_site_type_symbol
_atom_site_label
_atom_site_fract_x
_atom_site_fract_y
_atom_site_fract_z
Si Si1 0.803299 0.606597 0.500000
Si Si2 0.893647 0.659916 0.221331
Si Si3 0.390230 0.900277 0.380095
Si Si4 0.403238 0.891486 0.865172
Si Si5 0.783268 0.891634 0.000000
O O1 0.872620 0.665636 0.380494
O O2 0.832137 0.543594 0.579101
O O3 0.852294 0.556983 0.161932
O O4 0.860218 0.717331 0.131834
O O5 0.000000 0.706006 0.207441
O O6 0.456999 0.913997 0.500000
O O7 0.414580 0.856703 0.254526
O O8 0.404497 0.000000 0.343033
O O9 0.453674 0.000000 0.867136
O O10 0.426696 0.853392 0.000000
O O11 0.846778 0.846778 0.010844
#
# Coordination Sequence:
#
# PCOD8323103 Si02
#       5
#     6  12  12  12   6
#     4  12  22  34  58  90 121 158 199 248 290 358
#     4  10  22  39  59  89 120 152 201 252 298 359
#     4  10  20  37  56  79 114 157 193 231 289 351
#     4   9  18  35  59  84 113 149 191 239 290 345
#     4  10  23  42  64  90 124 162 204 256 317 376
#
# _framework density 19.500033999999999
#
# number of rings (size 3 to 8) (size 9 to 14) (size 15 to 20)
#    0.000    2.000    2.500    0.875    3.500    2.000 
#    0.750    0.000    0.000    0.000    3.250    4.375 
#    0.000    0.000    0.000    0.000    0.000    0.000 
#
# Total GULP energy -594904.755594 kJ/mol
# GULP energy per Si atom -12393.849075 kJ/mol
# Density = 1.945565 g / cm^3
# Si number density = 19.500034 Si / 1000 Ang^3
#
#
#
# Elastic Constant Matrix: (Units=GPa)
#
#
# Indices 1 2 3 4 5 6 
#
# 1 58.0822 50.7514 39.1921 -0.0003 -0.6484 0.0000
# 2 50.7514 58.0822 39.1921 0.0003 0.6484 0.0000
# 3 39.1921 39.1921 159.5695 0.0000 0.0000 0.0000
# 4 -0.0003 0.0003 0.0000 33.5567 0.0000 0.6484
# 5 -0.6484 0.6484 0.0000 0.0000 33.5567 -0.0003
# 6 0.0000 0.0000 0.0000 0.6484 -0.0003 3.6654
#
#
#
# Elastic Compliance Matrix: (Units=1/GPa)
#
#
# Indices 1 2 3 4 5 6 
#
# 1 0.074021 -0.062858 -0.002742 0.000001 0.002645 0.000000
# 2 -0.062858 0.074021 -0.002742 -0.000001 -0.002645 0.000000
# 3 -0.002742 -0.002742 0.007614 0.000000 0.000000 0.000000
# 4 0.000001 -0.000001 0.000000 0.029902 0.000000 -0.005290
# 5 0.002645 -0.002645 0.000000 0.000000 0.029902 0.000002
# 6 0.000000 0.000000 0.000000 -0.005290 0.000002 0.273757
#
#
# Mechanical properties :
#
#
# Convention : Reuss Voigt Hill
#
# Bulk Modulus (GPa) = 52.70746 59.33392 56.02069
# Shear Modulus (GPa) = 7.90859 23.92900 15.91879
#
# Velocity S-wave (km/s) = 2.01606 3.50684 2.86028
# Velocity P-wave (km/s) = 5.70153 6.84769 6.30072
#
# Compressibility (1/GPa) = 0.01897265
#
# Stress axis : x y z
#
# Youngs Moduli (GPa) = 13.50972 13.50972 131.34252
#
# Poissons Ratio (x) = 0.84919 0.36011
# Poissons Ratio (y) = 0.84919 0.36011
# Poissons Ratio (z) = 0.03704 0.03704
#
# Static dielectric constant tensor:
#      x y z
#    x 3.528890 0.000000 0.000000 
#    y 0.000000 3.528890 0.000000 
#    z 0.000000 0.000000 3.289000 
# 
# 
# High freq. dielectric constant tensor:
#      x y z
#    x 1.743550 0.000000 0.000000 
#    y 0.000000 1.743550 0.000000 
#    z 0.000000 0.000000 1.774350 
# 
# From -- ./inp_files/1279.got.cif
#   From: 2010.03.12/outbox.cif.g09.slc.cpg/sg162_1_cif.got.tgz:1279.got - 2010.04.02 06:27:41.
