data_PCOD8323999
_publ_section_title
;
Structure prediction by ZEFSAII (Michael W. Deem and Ramdas Pophale) SiO2 
 PCOD8323999
Probable space group: R -3 M
;
_chemical_formula_sum "Si O2"
_cell_formula_units_Z 216
_cell_length_a 26.136004
_cell_length_b 26.136004
_cell_length_c 19.659526
_cell_angle_alpha 90.000000
_cell_angle_beta 90.000000
_cell_angle_gamma 120.000000
_cell_volume 11630.062541
_symmetry_space_group_name_H-M "R -3 M"
_symmetry_group_IT_number 166
_symmetry_cell_setting 'hexagonal'
loop_
_space_group_symop_operation_xyz
x,y,z
-y,x-y,z
-x+y,-x,z
x-y,-y,-z
-x,-x+y,-z
y,x,-z
-x,-y,-z
y,-x+y,-z
x-y,x,-z
-x+y,y,z
x,x-y,z
-y,-x,z
2/3+x,1/3+y,1/3+z
2/3-y,1/3+x-y,1/3+z
2/3-x+y,1/3-x,1/3+z
2/3+x-y,1/3-y,1/3-z
2/3-x,1/3-x+y,1/3-z
2/3+y,1/3+x,1/3-z
2/3-x,1/3-y,1/3-z
2/3+y,1/3-x+y,1/3-z
2/3+x-y,1/3+x,1/3-z
2/3-x+y,1/3+y,1/3+z
2/3+x,1/3+x-y,1/3+z
2/3-y,1/3-x,1/3+z
1/3+x,2/3+y,2/3+z
1/3-y,2/3+x-y,2/3+z
1/3-x+y,2/3-x,2/3+z
1/3+x-y,2/3-y,2/3-z
1/3-x,2/3-x+y,2/3-z
1/3+y,2/3+x,2/3-z
1/3-x,2/3-y,2/3-z
1/3+y,2/3-x+y,2/3-z
1/3+x-y,2/3+x,2/3-z
1/3-x+y,2/3+y,2/3+z
1/3+x,2/3+x-y,2/3+z
1/3-y,2/3-x,2/3+z
loop_
_atom_site_type_symbol
_atom_site_label
_atom_site_fract_x
_atom_site_fract_y
_atom_site_fract_z
Si Si1 0.151729 0.961412 0.205323
Si Si2 0.882932 0.999986 0.075355
Si Si3 0.939249 0.250051 0.823468
Si Si4 0.662443 0.691970 0.737645
Si Si5 0.175823 0.942152 0.544293
Si Si6 0.605752 0.091907 0.631426
O O1 0.084585 0.915416 0.229083
O O2 0.185463 0.924182 0.199575
O O3 0.153205 0.985904 0.130129
O O4 0.182090 0.014432 0.258907
O O5 0.937405 0.062596 0.095218
O O6 0.904658 0.952329 0.076389
O O7 0.857575 0.000000 0.000000
O O8 0.882315 0.247174 0.856244
O O9 0.960247 0.293162 0.757323
O O10 0.997962 0.277115 0.872561
O O11 0.631439 0.666667 0.666667
O O12 0.700511 0.763269 0.733503
O O13 0.107160 0.892840 0.532732
O O14 0.189481 0.959124 0.623351
O O15 0.190765 0.000000 0.500000
O O16 0.540531 0.081062 0.622092
#
# Coordination Sequence:
#
# PCOD8323999 Si02
#       6
#    36  36  36  36  36  36
#     4  10  21  35  52  77 111 146 184 232 282 332
#     4   9  17  31  50  72  98 133 178 227 274 321
#     4  10  19  33  54  80 105 144 180 225 277 335
#     4  10  17  33  55  76 109 142 181 226 278 331
#     4  11  21  37  59  85 114 146 190 233 282 341
#     4  10  21  36  56  82 114 153 191 235 287 350
#
# _framework density 18.572557
#
# number of rings (size 3 to 8) (size 9 to 14) (size 15 to 20)
#    0.000    2.000    3.333    1.167    0.000    2.000 
#    0.000    7.500    0.000    6.000    0.000    0.000 
#    0.000    0.000    0.000    0.000    0.000    0.000 
#
# Total GULP energy -892386.108010 kJ/mol
# GULP energy per Si atom -12394.251500 kJ/mol
# Density = 1.853029 g / cm^3
# Si number density = 18.572557 Si / 1000 Ang^3
#
#
#
# Elastic Constant Matrix: (Units=GPa)
#
#
# Indices 1 2 3 4 5 6 
#
# 1 62.1336 16.5879 22.7229 3.4799 -0.0002 0.0000
# 2 16.5879 62.1336 22.7229 -3.4799 0.0002 0.0000
# 3 22.7229 22.7229 74.7754 0.0000 0.0000 0.0000
# 4 3.4799 -3.4799 0.0000 27.1405 0.0000 0.0002
# 5 -0.0002 0.0002 0.0000 0.0000 27.1405 3.4799
# 6 0.0000 0.0000 0.0000 0.0002 3.4799 22.7729
#
#
#
# Elastic Compliance Matrix: (Units=1/GPa)
#
#
# Indices 1 2 3 4 5 6 
#
# 1 0.018900 -0.003495 -0.004682 -0.002871 0.000000 0.000000
# 2 -0.003495 0.018900 -0.004682 0.002871 0.000000 0.000000
# 3 -0.004682 -0.004682 0.016219 0.000000 0.000000 0.000000
# 4 -0.002871 0.002871 0.000000 0.037582 0.000000 0.000000
# 5 0.000000 0.000000 0.000000 0.000000 0.037582 -0.005743
# 6 0.000000 0.000000 0.000000 0.000000 -0.005743 0.044789
#
#
# Mechanical properties :
#
#
# Convention : Reuss Voigt Hill
#
# Bulk Modulus (GPa) = 35.33081 35.90111 35.61596
# Shear Modulus (GPa) = 23.90956 24.54471 24.22713
#
# Velocity S-wave (km/s) = 3.59187 3.63927 3.61565
# Velocity P-wave (km/s) = 6.02217 6.08533 6.05383
#
# Compressibility (1/GPa) = 0.02830391
#
# Stress axis : x y z
#
# Youngs Moduli (GPa) = 52.90956 52.90956 61.65746
#
# Poissons Ratio (x) = 0.18489 0.28865
# Poissons Ratio (y) = 0.18489 0.28865
# Poissons Ratio (z) = 0.24770 0.24770
#
# Static dielectric constant tensor:
#      x y z
#    x 3.282550 0.000000 0.000000 
#    y 0.000000 3.282550 0.000000 
#    z 0.000000 0.000000 3.608420 
# 
# 
# High freq. dielectric constant tensor:
#      x y z
#    x 1.709190 0.000000 0.000000 
#    y 0.000000 1.709190 0.000000 
#    z 0.000000 0.000000 1.727720 
# 
# From -- ./inp_files/7182.got.cif
#   From: 2010.03.12/outbox.cif.g09.slc.cpg/sg166_4_cif.got.tgz:7182.got - 2010.04.02 06:38:31.
