data_PCOD8323265
_publ_section_title
;
Structure prediction by ZEFSAII (Michael W. Deem and Ramdas Pophale) SiO2 
 PCOD8323265
Probable space group: P -3 1 C
;
_chemical_formula_sum "Si O2"
_cell_formula_units_Z 72
_cell_length_a 14.921062
_cell_length_b 14.921062
_cell_length_c 17.093867
_cell_angle_alpha 90.000000
_cell_angle_beta 90.000000
_cell_angle_gamma 120.000000
_cell_volume 3295.872647
_symmetry_space_group_name_H-M "P -3 1 C"
_symmetry_group_IT_number 163
_symmetry_cell_setting 'hexagonal'
loop_
_space_group_symop_operation_xyz
x,y,z
-y,x-y,z
-x+y,-x,z
-y,-x,1/2-z
-x+y,y,1/2-z
x,x-y,1/2-z
-x,-y,-z
y,-x+y,-z
x-y,x,-z
y,x,1/2+z
x-y,-y,1/2+z
-x,-x+y,1/2+z
loop_
_atom_site_type_symbol
_atom_site_label
_atom_site_fract_x
_atom_site_fract_y
_atom_site_fract_z
Si Si1 0.942397 0.176985 0.664752
Si Si2 0.622426 0.516829 0.409849
Si Si3 0.206639 0.047155 0.360284
Si Si4 0.292943 0.452991 0.896622
Si Si5 0.276967 0.290414 0.486666
Si Si6 0.062922 0.371263 0.761663
O O1 0.037961 0.156641 0.648218
O O2 0.909176 0.206162 0.582243
O O3 0.962829 0.272687 0.722343
O O4 0.853570 0.061054 0.690484
O O5 0.524041 0.407796 0.431558
O O6 0.718233 0.495621 0.407195
O O7 0.642136 0.597819 0.478870
O O8 0.603220 0.560075 0.326246
O O9 0.320421 0.114276 0.319782
O O10 0.212412 0.013312 0.448355
O O11 0.243194 0.342708 0.943240
O O12 0.305979 0.445595 0.803622
#
# Coordination Sequence:
#
# PCOD8323265 Si02
#       6
#    12  12  12  12  12  12
#     4  11  20  33  51  76 107 144 182 219 257 311
#     4  11  21  36  55  78 102 133 173 221 272 326
#     4  11  20  33  51  76 107 144 182 219 257 311
#     4  11  21  36  55  78 102 133 173 221 272 326
#     4  10  21  36  53  74 106 140 174 216 269 322
#     4  10  21  34  50  72 104 136 169 212 265 312
#
# _framework density 21.845503999999998
#
# number of rings (size 3 to 8) (size 9 to 14) (size 15 to 20)
#    0.000    1.333    0.000   10.167    0.000    0.000 
#    0.000    5.000    0.000    0.000    0.000    0.000 
#    0.000    0.000    0.000   60.667    0.000    0.000 
#
# Total GULP energy -892007.928894 kJ/mol
# GULP energy per Si atom -12388.999012 kJ/mol
# Density = 2.179578 g / cm^3
# Si number density = 21.845504 Si / 1000 Ang^3
#
#
#
# Elastic Constant Matrix: (Units=GPa)
#
#
# Indices 1 2 3 4 5 6 
#
# 1 57.6523 4.2260 7.8801 0.0000 2.1513 0.0000
# 2 4.2260 57.6523 7.8801 0.0000 -2.1513 0.0000
# 3 7.8801 7.8801 75.2961 0.0000 0.0000 0.0000
# 4 0.0000 0.0000 0.0000 30.0365 0.0000 -2.1513
# 5 2.1513 -2.1513 0.0000 0.0000 30.0365 0.0000
# 6 0.0000 0.0000 0.0000 -2.1513 0.0000 26.7131
#
#
#
# Elastic Compliance Matrix: (Units=1/GPa)
#
#
# Indices 1 2 3 4 5 6 
#
# 1 0.017715 -0.001111 -0.001738 0.000000 -0.001348 0.000000
# 2 -0.001111 0.017715 -0.001738 0.000000 0.001348 0.000000
# 3 -0.001738 -0.001738 0.013645 0.000000 0.000000 0.000000
# 4 0.000000 0.000000 0.000000 0.033486 0.000000 0.002697
# 5 -0.001348 0.001348 0.000000 0.000000 0.033486 0.000000
# 6 0.000000 0.000000 0.000000 0.002697 0.000000 0.037652
#
#
# Mechanical properties :
#
#
# Convention : Reuss Voigt Hill
#
# Bulk Modulus (GPa) = 25.06219 25.61925 25.34072
# Shear Modulus (GPa) = 28.38149 28.73152 28.55651
#
# Velocity S-wave (km/s) = 3.60834 3.63052 3.61945
# Velocity P-wave (km/s) = 5.37192 5.41546 5.39373
#
# Compressibility (1/GPa) = 0.03990075
#
# Stress axis : x y z
#
# Youngs Moduli (GPa) = 56.45048 56.45048 73.28903
#
# Poissons Ratio (x) = 0.06273 0.12735
# Poissons Ratio (y) = 0.06273 0.12735
# Poissons Ratio (z) = 0.09809 0.09809
#
# Static dielectric constant tensor:
#      x y z
#    x 3.755670 0.000000 0.000000 
#    y 0.000000 3.755670 0.000000 
#    z 0.000000 0.000000 4.329370 
# 
# 
# High freq. dielectric constant tensor:
#      x y z
#    x 1.838080 0.000000 0.000000 
#    y 0.000000 1.838080 0.000000 
#    z 0.000000 0.000000 1.889790 
# 
# From -- ./inp_files/3144.got.cif
#   From: 2010.03.12/outbox.cif.g09.slc.cpg/sg163_2_cif.got.tgz:3144.got - 2010.04.02 06:30:25.
