data_PCOD8323638
_publ_section_title
;
Structure prediction by ZEFSAII (Michael W. Deem and Ramdas Pophale) SiO2 
 PCOD8323638
Probable space group: P -3 M 1
;
_chemical_formula_sum "Si O2"
_cell_formula_units_Z 66
_cell_length_a 12.597436
_cell_length_b 12.597436
_cell_length_c 27.988214
_cell_angle_alpha 90.000000
_cell_angle_beta 90.000000
_cell_angle_gamma 120.000000
_cell_volume 3846.538989
_symmetry_space_group_name_H-M "P -3 M 1"
_symmetry_group_IT_number 164
_symmetry_cell_setting 'hexagonal'
loop_
_space_group_symop_operation_xyz
x,y,z
-y,x-y,z
-x+y,-x,z
x-y,-y,-z
-x,-x+y,-z
y,x,-z
-x,-y,-z
y,-x+y,-z
x-y,x,-z
-x+y,y,z
x,x-y,z
-y,-x,z
loop_
_atom_site_type_symbol
_atom_site_label
_atom_site_fract_x
_atom_site_fract_y
_atom_site_fract_z
Si Si1 0.581105 0.664869 0.544377
Si Si2 0.087877 0.666836 0.083814
Si Si3 0.754209 0.001262 0.723286
Si Si4 0.085891 0.666937 0.365873
Si Si5 0.248150 0.248150 0.000000
Si Si6 0.088172 0.420896 0.192225
O O1 0.656908 0.656908 0.500000
O O2 0.590644 0.795322 0.544032
O O3 0.439195 0.560806 0.540554
O O4 0.641903 0.651996 0.592428
O O5 0.083816 0.541908 0.072079
O O6 0.225847 0.774154 0.074962
O O7 0.995509 0.678388 0.047710
O O8 0.046055 0.669541 0.138037
O O9 0.739331 0.869666 0.714472
O O10 0.681843 0.028325 0.682693
O O11 0.692845 0.000903 0.773798
O O12 0.897647 0.102354 0.722879
O O13 0.112649 0.556325 0.359598
O O14 0.212582 0.787419 0.378941
O O15 0.231749 0.115875 0.000385
O O16 0.229670 0.459340 0.200201
O O17 0.075331 0.537666 0.205167
#
# Coordination Sequence:
#
# PCOD8323638 Si02
#       6
#    12  12  12  12   6  12
#     4  10  20  34  53  76 103 135 169 205 244 288
#     4   9  17  30  49  72  95 120 153 195 242 287
#     4  10  20  33  49  70  98 132 167 200 235 279
#     4  10  20  34  54  78 102 128 160 202 249 294
#     4  10  20  32  46  66  94 128 162 194 230 276
#     4   9  17  30  50  74  97 121 152 195 244 289
#
# _framework density 17.158280000000001
#
# number of rings (size 3 to 8) (size 9 to 14) (size 15 to 20)
#    0.000    2.364    0.000    2.909    0.000    2.182 
#    0.000    3.636    0.000   10.909    0.000    0.000 
#    0.000    0.000    0.000    0.000    0.000    0.000 
#
# Total GULP energy -818533.384638 kJ/mol
# GULP energy per Si atom -12402.020979 kJ/mol
# Density = 1.711923 g / cm^3
# Si number density = 17.158280 Si / 1000 Ang^3
#
#
#
# Elastic Constant Matrix: (Units=GPa)
#
#
# Indices 1 2 3 4 5 6 
#
# 1 98.0889 55.3719 52.5618 2.7224 0.0000 0.0000
# 2 55.3719 98.0889 52.5618 -2.7224 0.0000 0.0000
# 3 52.5618 52.5618 109.0448 0.0000 0.0000 0.0000
# 4 2.7224 -2.7224 0.0000 23.6310 0.0000 0.0000
# 5 0.0000 0.0000 0.0000 0.0000 23.6310 2.7224
# 6 0.0000 0.0000 0.0000 0.0000 2.7224 21.3585
#
#
#
# Elastic Compliance Matrix: (Units=1/GPa)
#
#
# Indices 1 2 3 4 5 6 
#
# 1 0.016744 -0.007015 -0.004689 -0.002737 0.000000 0.000000
# 2 -0.007015 0.016744 -0.004689 0.002737 0.000000 0.000000
# 3 -0.004689 -0.004689 0.013691 0.000000 0.000000 0.000000
# 4 -0.002737 0.002737 0.000000 0.042948 0.000000 0.000000
# 5 0.000000 0.000000 0.000000 0.000000 0.042948 -0.005474
# 6 0.000000 0.000000 0.000000 0.000000 -0.005474 0.047518
#
#
# Mechanical properties :
#
#
# Convention : Reuss Voigt Hill
#
# Bulk Modulus (GPa) = 69.48790 69.57931 69.53361
# Shear Modulus (GPa) = 22.91717 23.37256 23.14487
#
# Velocity S-wave (km/s) = 3.65860 3.69477 3.67673
# Velocity P-wave (km/s) = 7.64416 7.67080 7.65749
#
# Compressibility (1/GPa) = 0.01439099
#
# Stress axis : x y z
#
# Youngs Moduli (GPa) = 59.72394 59.72394 73.03895
#
# Poissons Ratio (x) = 0.41897 0.34251
# Poissons Ratio (y) = 0.41897 0.34251
# Poissons Ratio (z) = 0.28007 0.28007
#
# Static dielectric constant tensor:
#      x y z
#    x 3.114820 0.000000 0.000000 
#    y 0.000000 3.114820 0.000000 
#    z 0.000000 0.000000 3.455780 
# 
# 
# High freq. dielectric constant tensor:
#      x y z
#    x 1.656770 0.000000 0.000000 
#    y 0.000000 1.656770 0.000000 
#    z 0.000000 0.000000 1.679720 
# 
# From -- ./inp_files/5432.got.cif
#   From: 2010.03.12/outbox.cif.g09.slc.cpg/sg164_3_cif.got.tgz:5432.got - 2010.04.02 06:32:59.
