data_PCOD8323789
_publ_section_title
;
Structure prediction by ZEFSAII (Michael W. Deem and Ramdas Pophale) SiO2 
 PCOD8323789
Probable space group: P -3 M 1
;
_chemical_formula_sum "Si O2"
_cell_formula_units_Z 72
_cell_length_a 22.205799
_cell_length_b 22.205799
_cell_length_c 10.083503
_cell_angle_alpha 90.000000
_cell_angle_beta 90.000000
_cell_angle_gamma 120.000000
_cell_volume 4306.008396
_symmetry_space_group_name_H-M "P -3 M 1"
_symmetry_group_IT_number 164
_symmetry_cell_setting 'hexagonal'
loop_
_space_group_symop_operation_xyz
x,y,z
-y,x-y,z
-x+y,-x,z
x-y,-y,-z
-x,-x+y,-z
y,x,-z
-x,-y,-z
y,-x+y,-z
x-y,x,-z
-x+y,y,z
x,x-y,z
-y,-x,z
loop_
_atom_site_type_symbol
_atom_site_label
_atom_site_fract_x
_atom_site_fract_y
_atom_site_fract_z
Si Si1 0.320192 0.917632 0.004667
Si Si2 0.936098 0.735304 0.595006
Si Si3 0.473404 0.080470 0.750002
Si Si4 0.085818 0.612428 0.750002
Si Si5 0.063902 0.799209 0.095006
Si Si6 0.597437 0.917632 0.495333
O O1 0.344206 0.887341 0.123584
O O2 0.241247 0.899239 0.031208
O O3 0.334123 0.885365 0.873365
O O4 0.366591 0.000000 0.000000
O O5 0.880912 0.761824 0.591335
O O6 0.959239 0.734986 0.750001
O O7 0.899238 0.657989 0.531215
O O8 0.000000 0.786318 0.500000
O O9 0.554790 0.109579 0.750011
O O10 0.456872 0.112659 0.623579
O O11 0.430685 0.997168 0.750001
O O12 0.113471 0.556736 0.750002
O O13 0.114635 0.665877 0.626638
O O14 0.119086 0.880915 0.091337
O O15 0.000000 0.786321 0.000000
O O16 0.633407 0.000000 0.500000
#
# Coordination Sequence:
#
# PCOD8323789 Si02
#       6
#    12  12  12  12  12  12
#     4   9  16  26  40  62  90 126 159 193 230 274
#     4  10  21  36  53  74  98 126 164 209 258 317
#     4   9  14  22  37  58  87 124 160 181 210 254
#     4   9  16  24  37  60  93 128 162 189 210 250
#     4  10  21  36  53  74  98 126 164 209 258 317
#     4   9  16  26  40  62  90 126 159 193 230 274
#
# _framework density 16.720821999999998
#
# number of rings (size 3 to 8) (size 9 to 14) (size 15 to 20)
#    0.000    2.667    1.667    1.000    7.000    4.667 
#    0.000    0.000    0.000    0.333    0.000    0.000 
#    0.000    0.000    0.000   20.000    0.000   13.333 
#
# Total GULP energy -891986.964488 kJ/mol
# GULP energy per Si atom -12388.707840 kJ/mol
# Density = 1.668276 g / cm^3
# Si number density = 16.720822 Si / 1000 Ang^3
#
#
#
# Elastic Constant Matrix: (Units=GPa)
#
#
# Indices 1 2 3 4 5 6 
#
# 1 53.5026 26.1222 40.0090 0.0012 0.0000 0.0000
# 2 26.1222 53.5026 40.0090 -0.0012 0.0000 0.0000
# 3 40.0090 40.0090 154.6904 0.0000 0.0000 0.0000
# 4 0.0012 -0.0012 0.0000 24.7681 0.0000 0.0000
# 5 0.0000 0.0000 0.0000 0.0000 24.7681 0.0012
# 6 0.0000 0.0000 0.0000 0.0000 0.0012 13.6902
#
#
#
# Elastic Compliance Matrix: (Units=1/GPa)
#
#
# Indices 1 2 3 4 5 6 
#
# 1 0.026746 -0.009776 -0.004389 -0.000002 0.000000 0.000000
# 2 -0.009776 0.026746 -0.004389 0.000002 0.000000 0.000000
# 3 -0.004389 -0.004389 0.008735 0.000000 0.000000 0.000000
# 4 -0.000002 0.000002 0.000000 0.040375 0.000000 0.000000
# 5 0.000000 0.000000 0.000000 0.000000 0.040375 -0.000004
# 6 0.000000 0.000000 0.000000 0.000000 -0.000004 0.073045
#
#
# Mechanical properties :
#
#
# Convention : Reuss Voigt Hill
#
# Bulk Modulus (GPa) = 39.81206 52.66398 46.23802
# Shear Modulus (GPa) = 19.12031 23.01565 21.06798
#
# Velocity S-wave (km/s) = 3.38524 3.71410 3.55348
# Velocity P-wave (km/s) = 6.25631 7.06804 6.67452
#
# Compressibility (1/GPa) = 0.02511802
#
# Stress axis : x y z
#
# Youngs Moduli (GPa) = 37.38882 37.38882 114.48382
#
# Poissons Ratio (x) = 0.36553 0.50247
# Poissons Ratio (y) = 0.36553 0.50247
# Poissons Ratio (z) = 0.16410 0.16410
#
# Static dielectric constant tensor:
#      x y z
#    x 2.784720 0.000000 0.000000 
#    y 0.000000 2.784720 0.000000 
#    z 0.000000 0.000000 3.588840 
# 
# 
# High freq. dielectric constant tensor:
#      x y z
#    x 1.598510 0.000000 0.000000 
#    y 0.000000 1.598510 0.000000 
#    z 0.000000 0.000000 1.670330 
# 
# From -- ./inp_files/1915.got.cif
#   From: 2010.03.12/outbox.cif.g09.slc.cpg/sg164_1_cif.got.tgz:1915.got - 2010.04.02 06:32:59.
