data_PCOD8323538
_publ_section_title
;
Structure prediction by ZEFSAII (Michael W. Deem and Ramdas Pophale) SiO2 
 PCOD8323538
Probable space group: P -3 M 1
;
_chemical_formula_sum "Si O2"
_cell_formula_units_Z 96
_cell_length_a 17.676767
_cell_length_b 17.676767
_cell_length_c 21.492237
_cell_angle_alpha 90.000000
_cell_angle_beta 90.000000
_cell_angle_gamma 120.000000
_cell_volume 5815.913352
_symmetry_space_group_name_H-M "P -3 M 1"
_symmetry_group_IT_number 164
_symmetry_cell_setting 'hexagonal'
loop_
_space_group_symop_operation_xyz
x,y,z
-y,x-y,z
-x+y,-x,z
x-y,-y,-z
-x,-x+y,-z
y,x,-z
-x,-y,-z
y,-x+y,-z
x-y,x,-z
-x+y,y,z
x,x-y,z
-y,-x,z
loop_
_atom_site_type_symbol
_atom_site_label
_atom_site_fract_x
_atom_site_fract_y
_atom_site_fract_z
Si Si1 0.696431 0.132705 0.417945
Si Si2 0.499694 0.666254 0.448980
Si Si3 0.825797 0.825849 0.070858
Si Si4 0.939928 0.235668 0.818402
Si Si5 0.022411 0.423507 0.245606
Si Si6 0.955080 0.654478 0.631040
Si Si7 0.831404 0.334174 0.283114
Si Si8 0.825671 0.823189 0.703150
O O1 0.799224 0.200777 0.423588
O O2 0.647068 0.134827 0.479580
O O3 0.656166 0.151848 0.357018
O O4 0.684209 0.038046 0.411984
O O5 0.458647 0.729324 0.447500
O O6 0.428117 0.571884 0.420333
O O7 0.591395 0.717428 0.412214
O O8 0.854339 0.927170 0.080359
O O9 0.742920 0.764427 0.113823
O O10 0.907580 0.815160 0.089941
O O11 0.796637 0.796637 0.000000
O O12 0.839616 0.160385 0.811550
O O13 0.942112 0.327785 0.808648
O O14 0.999395 0.220323 0.768374
O O15 0.052532 0.526266 0.235855
O O16 0.055068 0.408087 0.311322
O O17 0.918130 0.364137 0.243776
O O18 0.961217 0.745132 0.652102
O O19 0.791483 0.395742 0.266261
O O20 0.764654 0.235347 0.263166
O O21 0.809984 0.904992 0.689081
O O22 0.929548 0.859096 0.705533
#
# Coordination Sequence:
#
# PCOD8323538 Si02
#       8
#    12  12  12  12  12  12  12  12
#     4   9  18  30  45  65  85 107 136 173 219 269
#     4  11  22  34  47  63  84 109 139 179 229 281
#     4   9  16  26  42  67 100 134 162 185 213 256
#     4   9  18  30  46  68  93 122 153 186 223 260
#     4   9  18  31  46  63  85 115 149 185 224 262
#     4  10  19  32  48  65  86 112 146 182 218 262
#     4   9  16  26  41  62  87 113 140 170 209 259
#     4  10  19  31  48  70  96 123 150 179 211 251
#
# _framework density 16.506436000000001
#
# number of rings (size 3 to 8) (size 9 to 14) (size 15 to 20)
#    0.000    2.500    0.000    2.750    0.000    6.500 
#    0.000    2.500    0.000    0.625    0.000    0.000 
#    0.000    6.000    0.000    0.250    0.000    0.000 
#
# Total GULP energy -1189629.575368 kJ/mol
# GULP energy per Si atom -12391.974743 kJ/mol
# Density = 1.646887 g / cm^3
# Si number density = 16.506436 Si / 1000 Ang^3
#
#
#
# Elastic Constant Matrix: (Units=GPa)
#
#
# Indices 1 2 3 4 5 6 
#
# 1 78.2431 46.6592 36.2268 -1.4332 0.0000 0.0000
# 2 46.6592 78.2431 36.2268 1.4332 0.0000 0.0000
# 3 36.2268 36.2268 59.7722 0.0000 0.0000 0.0000
# 4 -1.4332 1.4332 0.0000 19.0498 0.0000 0.0000
# 5 0.0000 0.0000 0.0000 0.0000 19.0498 -1.4332
# 6 0.0000 0.0000 0.0000 0.0000 -1.4332 15.7919
#
#
#
# Elastic Compliance Matrix: (Units=1/GPa)
#
#
# Indices 1 2 3 4 5 6 
#
# 1 0.022113 -0.009766 -0.007483 0.002398 0.000000 0.000000
# 2 -0.009766 0.022113 -0.007483 -0.002398 0.000000 0.000000
# 3 -0.007483 -0.007483 0.025801 0.000000 0.000000 0.000000
# 4 0.002398 -0.002398 0.000000 0.052855 0.000000 0.000000
# 5 0.000000 0.000000 0.000000 0.000000 0.052855 0.004797
# 6 0.000000 0.000000 0.000000 0.000000 0.004797 0.063759
#
#
# Mechanical properties :
#
#
# Convention : Reuss Voigt Hill
#
# Bulk Modulus (GPa) = 48.63316 50.49820 49.56568
# Shear Modulus (GPa) = 16.90237 17.25467 17.07852
#
# Velocity S-wave (km/s) = 3.20345 3.23666 3.22010
# Velocity P-wave (km/s) = 6.57342 6.68038 6.62712
#
# Compressibility (1/GPa) = 0.02056210
#
# Stress axis : x y z
#
# Youngs Moduli (GPa) = 45.22156 45.22156 38.75770
#
# Poissons Ratio (x) = 0.44164 0.29004
# Poissons Ratio (y) = 0.44164 0.29004
# Poissons Ratio (z) = 0.33841 0.33841
#
# Static dielectric constant tensor:
#      x y z
#    x 3.066280 0.000000 0.000000 
#    y 0.000000 3.066280 0.000000 
#    z 0.000000 0.000000 2.929360 
# 
# 
# High freq. dielectric constant tensor:
#      x y z
#    x 1.631530 0.000000 0.000000 
#    y 0.000000 1.631530 0.000000 
#    z 0.000000 0.000000 1.601010 
# 
# From -- ./inp_files/4693.got.cif
#   From: 2010.03.12/outbox.cif.g09.slc.cpg/sg164_3_cif.got.tgz:4693.got - 2010.04.02 06:32:59.
