data_PCOD8323017
_publ_section_title
;
Structure prediction by ZEFSAII (Michael W. Deem and Ramdas Pophale) SiO2 
 PCOD8323017
Probable space group: P -3 1 M 
;
_chemical_formula_sum "Si O2"
_cell_formula_units_Z 48
_cell_length_a 21.532238
_cell_length_b 21.532238
_cell_length_c 6.731222
_cell_angle_alpha 90.000000
_cell_angle_beta 90.000000
_cell_angle_gamma 120.000000
_cell_volume 2702.731410
_symmetry_space_group_name_H-M "P -3 1 M "
_symmetry_group_IT_number 162
_symmetry_cell_setting 'hexagonal'
loop_
_space_group_symop_operation_xyz
x,y,z
-y,x-y,z
-x+y,-x,z
-y,-x,-z
-x+y,y,-z
x,x-y,-z
-x,-y,-z
y,-x+y,-z
x-y,x,-z
y,x,z
x-y,-y,z
-x,-x+y,z
loop_
_atom_site_type_symbol
_atom_site_label
_atom_site_fract_x
_atom_site_fract_y
_atom_site_fract_z
Si Si1 0.083057 0.300047 0.444101
Si Si2 0.411346 0.332525 0.274906
Si Si3 0.665695 0.191768 0.535499
Si Si4 0.577904 0.725379 0.119197
O O1 0.132317 0.264634 0.500000
O O2 0.090280 0.349432 0.630329
O O3 0.115407 0.350453 0.251361
O O4 0.000000 0.238257 0.408303
O O5 0.397091 0.397091 0.322608
O O6 0.487877 0.355547 0.366954
O O7 0.411091 0.323463 0.039082
O O8 0.744720 0.255281 0.500000
O O9 0.609506 0.219012 0.500000
O O10 0.670019 0.162091 0.752520
O O11 0.563222 0.781611 0.000000
#
# Coordination Sequence:
#
# PCOD8323017 Si02
#       4
#    12  12  12  12
#     4  10  19  32  54  84 114 142 178 222 268 321
#     4  10  20  36  58  82 107 137 175 227 281 319
#     4  11  23  39  56  77 108 144 182 222 264 322
#     4  11  18  36  58  79 106 138 178 226 270 317
#
# _framework density 17.759812
#
# number of rings (size 3 to 8) (size 9 to 14) (size 15 to 20)
#    0.000    1.500    5.000    2.500    0.000    2.500 
#    0.000    1.250    0.000    0.250    0.000    0.000 
#    0.000    1.000    0.000    0.000    0.000    0.000 
#
# Total GULP energy -595032.433960 kJ/mol
# GULP energy per Si atom -12396.509041 kJ/mol
# Density = 1.771939 g / cm^3
# Si number density = 17.759812 Si / 1000 Ang^3
#
#
#
# Elastic Constant Matrix: (Units=GPa)
#
#
# Indices 1 2 3 4 5 6 
#
# 1 58.0316 45.3900 35.5306 0.0003 2.7566 0.0000
# 2 45.3900 58.0316 35.5306 -0.0003 -2.7566 0.0000
# 3 35.5306 35.5306 122.4153 0.0000 0.0000 0.0000
# 4 0.0003 -0.0003 0.0000 19.8776 0.0000 -2.7566
# 5 2.7566 -2.7566 0.0000 0.0000 19.8776 0.0003
# 6 0.0000 0.0000 0.0000 -2.7566 0.0003 6.3208
#
#
#
# Elastic Compliance Matrix: (Units=1/GPa)
#
#
# Indices 1 2 3 4 5 6 
#
# 1 0.048137 -0.036059 -0.003506 -0.000001 -0.011676 0.000000
# 2 -0.036059 0.048137 -0.003506 0.000001 0.011676 0.000000
# 3 -0.003506 -0.003506 0.010204 0.000000 0.000000 0.000000
# 4 -0.000001 0.000001 0.000000 0.053546 0.000000 0.023352
# 5 -0.011676 0.011676 0.000000 0.000000 0.053546 -0.000002
# 6 0.000000 0.000000 0.000000 0.023352 -0.000002 0.168391
#
#
# Mechanical properties :
#
#
# Convention : Reuss Voigt Hill
#
# Bulk Modulus (GPa) = 49.17067 52.37567 50.77317
# Shear Modulus (GPa) = 10.52897 17.35037 13.93967
#
# Velocity S-wave (km/s) = 2.43750 3.12900 2.80465
# Velocity P-wave (km/s) = 5.97231 6.52758 6.25611
#
# Compressibility (1/GPa) = 0.02033733
#
# Stress axis : x y z
#
# Youngs Moduli (GPa) = 20.77414 20.77414 98.00208
#
# Poissons Ratio (x) = 0.74909 0.34355
# Poissons Ratio (y) = 0.74909 0.34355
# Poissons Ratio (z) = 0.07282 0.07282
#
# Static dielectric constant tensor:
#      x y z
#    x 3.241690 0.000000 0.000000 
#    y 0.000000 3.241690 0.000000 
#    z 0.000000 0.000000 3.630060 
# 
# 
# High freq. dielectric constant tensor:
#      x y z
#    x 1.671220 0.000000 0.000000 
#    y 0.000000 1.671220 0.000000 
#    z 0.000000 0.000000 1.700820 
# 
# From -- ./inp_files/482.got.cif
#   From: 2010.03.12/outbox.cif.g09.slc.cpg/sg162_1_cif.got.tgz:482.got - 2010.04.02 06:27:41.
