data_PCOD8323576
_publ_section_title
;
Structure prediction by ZEFSAII (Michael W. Deem and Ramdas Pophale) SiO2 
 PCOD8323576
Probable space group: P -3 M 1
;
_chemical_formula_sum "Si O2"
_cell_formula_units_Z 96
_cell_length_a 22.120551
_cell_length_b 22.120551
_cell_length_c 12.111860
_cell_angle_alpha 90.000000
_cell_angle_beta 90.000000
_cell_angle_gamma 120.000000
_cell_volume 5132.551965
_symmetry_space_group_name_H-M "P -3 M 1"
_symmetry_group_IT_number 164
_symmetry_cell_setting 'hexagonal'
loop_
_space_group_symop_operation_xyz
x,y,z
-y,x-y,z
-x+y,-x,z
x-y,-y,-z
-x,-x+y,-z
y,x,-z
-x,-y,-z
y,-x+y,-z
x-y,x,-z
-x+y,y,z
x,x-y,z
-y,-x,z
loop_
_atom_site_type_symbol
_atom_site_label
_atom_site_fract_x
_atom_site_fract_y
_atom_site_fract_z
Si Si1 0.666057 0.075760 0.038547
Si Si2 0.432817 0.147523 0.432967
Si Si3 0.474452 0.086952 0.826007
Si Si4 0.720508 0.791325 0.565405
Si Si5 0.928367 0.213526 0.177747
Si Si6 0.397376 0.933074 0.751606
Si Si7 0.804477 0.470195 0.632727
Si Si8 0.000215 0.866891 0.128237
O O1 0.673315 0.115333 0.922233
O O2 0.731095 0.072409 0.092065
O O3 0.634605 0.105030 0.131161
O O4 0.605830 0.000000 0.000000
O O5 0.444602 0.222301 0.388885
O O6 0.356097 0.104775 0.489221
O O7 0.439230 0.103401 0.335081
O O8 0.488979 0.156794 0.522891
O O9 0.540103 0.080206 0.870940
O O10 0.498971 0.144217 0.733487
O O11 0.418198 0.013847 0.768421
O O12 0.773464 0.773464 0.500000
O O13 0.750229 0.875115 0.557934
O O14 0.705680 0.765554 0.693388
O O15 0.855388 0.144613 0.157246
O O16 0.992251 0.200953 0.147168
O O17 0.462291 0.924582 0.714721
O O18 0.739687 0.479374 0.660927
O O19 0.778992 0.389496 0.612372
O O20 0.073217 0.926784 0.180870
O O21 0.935418 0.870836 0.184188
O O22 0.000000 0.880991 0.000000
#
# Coordination Sequence:
#
# PCOD8323576 Si02
#       8
#    12  12  12  12  12  12  12  12
#     4  10  19  32  52  76 109 142 176 218 273 326
#     4  10  21  36  55  81 109 141 184 231 278 335
#     4   9  20  35  53  83 115 143 185 229 269 329
#     4  10  22  38  57  79 110 147 185 231 285 340
#     4  10  20  34  51  76 106 141 183 228 277 333
#     4  10  19  33  56  80 105 140 178 224 275 321
#     4  10  21  37  56  80 112 148 187 231 281 334
#     4   9  17  30  49  73 102 136 178 228 278 328
#
# _framework density 18.704146000000001
#
# number of rings (size 3 to 8) (size 9 to 14) (size 15 to 20)
#    0.000    2.250    1.250    1.375    1.750    3.000 
#    0.000    1.875    0.000    5.625    0.000    0.000 
#    0.000    0.000    0.000    0.000    0.000    0.000 
#
# Total GULP energy -1189335.546026 kJ/mol
# GULP energy per Si atom -12388.911938 kJ/mol
# Density = 1.866157 g / cm^3
# Si number density = 18.704146 Si / 1000 Ang^3
#
#
#
# Elastic Constant Matrix: (Units=GPa)
#
#
# Indices 1 2 3 4 5 6 
#
# 1 40.1120 81.6473 52.7683 23.4615 0.0000 0.0000
# 2 81.6473 40.1120 52.7683 -23.4615 0.0000 0.0000
# 3 52.7683 52.7683 95.3998 0.0000 0.0000 0.0000
# 4 23.4615 -23.4615 0.0000 15.6549 0.0000 0.0000
# 5 0.0000 0.0000 0.0000 0.0000 15.6549 23.4615
# 6 0.0000 0.0000 0.0000 0.0000 23.4615 -20.7676
#
#
#
# Elastic Compliance Matrix: (Units=1/GPa)
#
#
# Indices 1 2 3 4 5 6 
#
# 1 0.003418 0.012358 -0.008727 0.013398 0.000000 0.000000
# 2 0.012358 0.003418 -0.008727 -0.013398 0.000000 0.000000
# 3 -0.008727 -0.008727 0.020136 0.000000 0.000000 0.000000
# 4 0.013398 -0.013398 0.000000 0.023719 0.000000 0.000000
# 5 0.000000 0.000000 0.000000 0.000000 0.023719 0.026796
# 6 0.000000 0.000000 0.000000 0.000000 0.026796 -0.017880
#
#
# Mechanical properties :
#
#
# Convention : Reuss Voigt Hill
#
# Bulk Modulus (GPa) = 59.58304 61.11019 60.34661
# Shear Modulus (GPa) = 69.14110 1.33775 35.23943
#
# Velocity S-wave (km/s) = 6.08653 0.84662 4.34527
# Velocity P-wave (km/s) = 9.01772 5.80505 7.58346
#
# Compressibility (1/GPa) = 0.01678330
#
# Stress axis : x y z
#
# Youngs Moduli (GPa) = 292.52931 292.52932 49.66207
#
# Poissons Ratio (x) = -3.61519 0.43338
# Poissons Ratio (y) = -3.61519 0.43338
# Poissons Ratio (z) = 2.55279 2.55279
#
# Static dielectric constant tensor:
#      x y z
#    x 3.503750 0.000000 0.000000 
#    y 0.000000 3.503750 0.000000 
#    z 0.000000 0.000000 3.486410 
# 
# 
# High freq. dielectric constant tensor:
#      x y z
#    x 1.721130 0.000000 0.000000 
#    y 0.000000 1.721130 0.000000 
#    z 0.000000 0.000000 1.720760 
# 
# From -- ./inp_files/3169.got.cif
#   From: 2010.03.12/outbox.cif.g09.slc.cpg/sg164_2_cif.got.tgz:3169.got - 2010.04.02 06:32:59.
