data_PCOD8323919
_publ_section_title
;
Structure prediction by ZEFSAII (Michael W. Deem and Ramdas Pophale) SiO2 
 PCOD8323919
Probable space group: P -3 C 1
;
_chemical_formula_sum "Si O2"
_cell_formula_units_Z 42
_cell_length_a 15.593086
_cell_length_b 15.593086
_cell_length_c 10.152605
_cell_angle_alpha 90.000000
_cell_angle_beta 90.000000
_cell_angle_gamma 120.000000
_cell_volume 2137.825582
_symmetry_space_group_name_H-M "P -3 C 1"
_symmetry_group_IT_number 165
_symmetry_cell_setting 'hexagonal'
loop_
_space_group_symop_operation_xyz
x,y,z
-y,x-y,z
-x+y,-x,z
x-y,-y,1/2-z
-x,-x+y,1/2-z
y,x,1/2-z
-x,-y,-z
y,-x+y,-z
x-y,x,-z
-x+y,y,1/2+z
x,x-y,1/2+z
-y,-x,1/2+z
loop_
_atom_site_type_symbol
_atom_site_label
_atom_site_fract_x
_atom_site_fract_y
_atom_site_fract_z
Si Si1 0.290384 0.290384 0.250000
Si Si2 0.222750 0.146400 0.482566
Si Si3 0.186728 0.415933 0.887946
Si Si4 0.249500 0.542332 0.148660
O O1 0.263382 0.197035 0.342529
O O2 0.387580 0.309743 0.168625
O O3 0.142984 0.172284 0.541160
O O4 0.314274 0.186634 0.584120
O O5 0.271880 0.478810 0.781657
O O6 0.202567 0.476117 0.021020
O O7 0.369777 0.592323 0.147925
#
# Coordination Sequence:
#
# PCOD8323919 Si02
#       4
#     6  12  12  12
#     4  10  22  40  62  96 140 170 204 274 318 378
#     4  10  22  39  65  92 131 175 215 258 311 390
#     4  11  20  41  63  97 130 168 208 266 328 371
#     4  10  22  40  71  93 122 170 218 268 321 394
#
# _framework density 19.646129999999999
#
# number of rings (size 3 to 8) (size 9 to 14) (size 15 to 20)
#    0.571    1.143    2.857    2.000    0.000    4.571 
#    0.000    1.429    6.286    0.000    0.000    0.000 
#    0.000    0.000    0.000    0.000    0.000    0.000 
#
# Total GULP energy -520671.587584 kJ/mol
# GULP energy per Si atom -12396.942562 kJ/mol
# Density = 1.960141 g / cm^3
# Si number density = 19.646130 Si / 1000 Ang^3
#
#
#
# Elastic Constant Matrix: (Units=GPa)
#
#
# Indices 1 2 3 4 5 6 
#
# 1 101.5488 44.3001 40.8311 8.3746 0.0000 0.0000
# 2 44.3001 101.5488 40.8311 -8.3746 0.0000 0.0000
# 3 40.8311 40.8311 124.4268 0.0000 0.0000 0.0000
# 4 8.3746 -8.3746 0.0000 37.9061 0.0000 0.0000
# 5 0.0000 0.0000 0.0000 0.0000 37.9061 8.3746
# 6 0.0000 0.0000 0.0000 0.0000 8.3746 28.6243
#
#
#
# Elastic Compliance Matrix: (Units=1/GPa)
#
#
# Indices 1 2 3 4 5 6 
#
# 1 0.013537 -0.005138 -0.002756 -0.004126 0.000000 0.000000
# 2 -0.005138 0.013537 -0.002756 0.004126 0.000000 0.000000
# 3 -0.002756 -0.002756 0.009846 0.000000 0.000000 0.000000
# 4 -0.004126 0.004126 0.000000 0.028204 0.000000 0.000000
# 5 0.000000 0.000000 0.000000 0.000000 0.028204 -0.008252
# 6 0.000000 0.000000 0.000000 0.000000 -0.008252 0.037350
#
#
# Mechanical properties :
#
#
# Convention : Reuss Voigt Hill
#
# Bulk Modulus (GPa) = 64.02143 64.38323 64.20233
# Shear Modulus (GPa) = 31.80963 34.32479 33.06721
#
# Velocity S-wave (km/s) = 4.02821 4.18443 4.10706
# Velocity P-wave (km/s) = 7.36840 7.49590 7.43242
#
# Compressibility (1/GPa) = 0.01561977
#
# Stress axis : x y z
#
# Youngs Moduli (GPa) = 73.87024 73.87024 101.56503
#
# Poissons Ratio (x) = 0.37951 0.27995
# Poissons Ratio (y) = 0.37951 0.27995
# Poissons Ratio (z) = 0.20362 0.20362
#
# Static dielectric constant tensor:
#      x y z
#    x 3.589010 0.000000 0.000000 
#    y 0.000000 3.589010 0.000000 
#    z 0.000000 0.000000 3.668870 
# 
# 
# High freq. dielectric constant tensor:
#      x y z
#    x 1.755530 0.000000 0.000000 
#    y 0.000000 1.755530 0.000000 
#    z 0.000000 0.000000 1.782190 
# 
# From -- ./inp_files/971.got.cif
#   From: 2010.03.12/outbox.cif.g09.slc.cpg/sg165_1_cif.got.tgz:971.got - 2010.04.02 06:36:38.
