data_PCOD8323226
_publ_section_title
;
Structure prediction by ZEFSAII (Michael W. Deem and Ramdas Pophale) SiO2 
 PCOD8323226
Probable space group: P -3 1 C
;
_chemical_formula_sum "Si O2"
_cell_formula_units_Z 84
_cell_length_a 14.876156
_cell_length_b 14.876156
_cell_length_c 25.172305
_cell_angle_alpha 90.000000
_cell_angle_beta 90.000000
_cell_angle_gamma 120.000000
_cell_volume 4824.308423
_symmetry_space_group_name_H-M "P -3 1 C"
_symmetry_group_IT_number 163
_symmetry_cell_setting 'hexagonal'
loop_
_space_group_symop_operation_xyz
x,y,z
-y,x-y,z
-x+y,-x,z
-y,-x,1/2-z
-x+y,y,1/2-z
x,x-y,1/2-z
-x,-y,-z
y,-x+y,-z
x-y,x,-z
y,x,1/2+z
x-y,-y,1/2+z
-x,-x+y,1/2+z
loop_
_atom_site_type_symbol
_atom_site_label
_atom_site_fract_x
_atom_site_fract_y
_atom_site_fract_z
Si Si1 0.647990 0.514443 0.861140
Si Si2 0.646715 0.436715 0.486100
Si Si3 0.497982 0.904206 0.623754
Si Si4 0.034721 0.663973 0.841914
Si Si5 0.853677 0.222524 0.305940
Si Si6 0.928138 0.655999 0.735128
Si Si7 0.528661 0.845274 0.403607
O O1 0.591704 0.572091 0.886525
O O2 0.682722 0.552185 0.800660
O O3 0.747654 0.545046 0.897528
O O4 0.565386 0.391315 0.863519
O O5 0.556585 0.315677 0.488615
O O6 0.634054 0.483091 0.432049
O O7 0.640005 0.499648 0.536455
O O8 0.396934 0.902750 0.647557
O O9 0.530889 0.846513 0.666581
O O10 0.116529 0.788018 0.840634
O O11 0.971286 0.626342 0.786727
O O12 0.950349 0.635207 0.888747
O O13 0.795472 0.204529 0.250000
O O14 0.973727 0.251464 0.297098
O O15 0.847621 0.695242 0.750000
#
# Coordination Sequence:
#
# PCOD8323226 Si02
#       7
#    12  12  12  12  12  12  12
#     4  10  20  33  53  78 111 142 182 223 283 327
#     4  10  20  35  55  76 115 149 188 226 274 319
#     4  10  21  35  55  78 113 149 187 227 274 334
#     4  10  21  35  57  81 109 146 192 222 288 340
#     4   9  20  36  54  80 111 145 184 235 275 337
#     4  10  19  36  56  78 109 148 179 234 283 339
#     4  11  19  35  53  79 113 145 185 234 276 334
#
# _framework density 17.411821
#
# number of rings (size 3 to 8) (size 9 to 14) (size 15 to 20)
#    0.286    1.714    2.857    1.143    0.000   11.429 
#    3.429    0.000    0.000    7.714    0.000    0.000 
#    0.000    0.000    0.000   12.429    0.000    0.000 
#
# Total GULP energy -1041023.686021 kJ/mol
# GULP energy per Si atom -12393.139119 kJ/mol
# Density = 1.737219 g / cm^3
# Si number density = 17.411821 Si / 1000 Ang^3
#
#
#
# Elastic Constant Matrix: (Units=GPa)
#
#
# Indices 1 2 3 4 5 6 
#
# 1 85.0657 40.0516 48.6440 0.0000 2.3828 0.0000
# 2 40.0516 85.0657 48.6440 0.0000 -2.3828 0.0000
# 3 48.6440 48.6440 105.8367 0.0000 0.0000 0.0000
# 4 0.0000 0.0000 0.0000 29.4514 0.0000 -2.3828
# 5 2.3828 -2.3828 0.0000 0.0000 29.4514 0.0000
# 6 0.0000 0.0000 0.0000 -2.3828 0.0000 22.5071
#
#
#
# Elastic Compliance Matrix: (Units=1/GPa)
#
#
# Indices 1 2 3 4 5 6 
#
# 1 0.017422 -0.004985 -0.005716 0.000000 -0.001813 0.000000
# 2 -0.004985 0.017422 -0.005716 0.000000 0.001813 0.000000
# 3 -0.005716 -0.005716 0.014703 0.000000 0.000000 0.000000
# 4 0.000000 0.000000 0.000000 0.034248 0.000000 0.003626
# 5 -0.001813 0.001813 0.000000 0.000000 0.034248 0.000000
# 6 0.000000 0.000000 0.000000 0.003626 0.000000 0.044814
#
#
# Mechanical properties :
#
#
# Convention : Reuss Voigt Hill
#
# Bulk Modulus (GPa) = 59.83576 61.18304 60.50940
# Shear Modulus (GPa) = 24.84304 25.52387 25.18346
#
# Velocity S-wave (km/s) = 3.78139 3.83285 3.80721
# Velocity P-wave (km/s) = 7.31470 7.40289 7.35893
#
# Compressibility (1/GPa) = 0.01671241
#
# Stress axis : x y z
#
# Youngs Moduli (GPa) = 57.39771 57.39771 68.01231
#
# Poissons Ratio (x) = 0.28612 0.38879
# Poissons Ratio (y) = 0.28612 0.38879
# Poissons Ratio (z) = 0.32811 0.32811
#
# Static dielectric constant tensor:
#      x y z
#    x 3.287580 0.000000 0.000000 
#    y 0.000000 3.287580 0.000000 
#    z 0.000000 0.000000 3.216130 
# 
# 
# High freq. dielectric constant tensor:
#      x y z
#    x 1.659430 0.000000 0.000000 
#    y 0.000000 1.659430 0.000000 
#    z 0.000000 0.000000 1.672350 
# 
# From -- ./inp_files/3924.got.cif
#   From: 2010.03.12/outbox.cif.g09.slc.cpg/sg163_2_cif.got.tgz:3924.got - 2010.04.02 06:30:25.
