data_PCOD8323993
_publ_section_title
;
Structure prediction by ZEFSAII (Michael W. Deem and Ramdas Pophale) SiO2 
 PCOD8323993
Probable space group: R -3 M
;
_chemical_formula_sum "Si O2"
_cell_formula_units_Z 216
_cell_length_a 25.360010
_cell_length_b 25.360010
_cell_length_c 24.727974
_cell_angle_alpha 90.000000
_cell_angle_beta 90.000000
_cell_angle_gamma 120.000000
_cell_volume 13772.665761
_symmetry_space_group_name_H-M "R -3 M"
_symmetry_group_IT_number 166
_symmetry_cell_setting 'hexagonal'
loop_
_space_group_symop_operation_xyz
x,y,z
-y,x-y,z
-x+y,-x,z
x-y,-y,-z
-x,-x+y,-z
y,x,-z
-x,-y,-z
y,-x+y,-z
x-y,x,-z
-x+y,y,z
x,x-y,z
-y,-x,z
2/3+x,1/3+y,1/3+z
2/3-y,1/3+x-y,1/3+z
2/3-x+y,1/3-x,1/3+z
2/3+x-y,1/3-y,1/3-z
2/3-x,1/3-x+y,1/3-z
2/3+y,1/3+x,1/3-z
2/3-x,1/3-y,1/3-z
2/3+y,1/3-x+y,1/3-z
2/3+x-y,1/3+x,1/3-z
2/3-x+y,1/3+y,1/3+z
2/3+x,1/3+x-y,1/3+z
2/3-y,1/3-x,1/3+z
1/3+x,2/3+y,2/3+z
1/3-y,2/3+x-y,2/3+z
1/3-x+y,2/3-x,2/3+z
1/3+x-y,2/3-y,2/3-z
1/3-x,2/3-x+y,2/3-z
1/3+y,2/3+x,2/3-z
1/3-x,2/3-y,2/3-z
1/3+y,2/3-x+y,2/3-z
1/3+x-y,2/3+x,2/3-z
1/3-x+y,2/3+y,2/3+z
1/3+x,2/3+x-y,2/3+z
1/3-y,2/3-x,2/3+z
loop_
_atom_site_type_symbol
_atom_site_label
_atom_site_fract_x
_atom_site_fract_y
_atom_site_fract_z
Si Si1 0.786709 0.333785 0.072642
Si Si2 0.502908 0.378301 0.166808
Si Si3 0.112975 0.617789 0.712160
Si Si4 0.724831 0.707457 0.213431
Si Si5 0.061861 0.246182 0.689513
Si Si6 0.990799 0.370009 0.713790
O O1 0.793633 0.396817 0.051824
O O2 0.716153 0.283847 0.075545
O O3 0.813916 0.339687 0.132572
O O4 0.822917 0.315360 0.030495
O O5 0.549422 0.450578 0.160814
O O6 0.500657 0.357714 0.228919
O O7 0.438499 0.366801 0.144264
O O8 0.110024 0.555012 0.696643
O O9 0.152825 0.666667 0.666667
O O10 0.045453 0.606710 0.716179
O O11 0.731859 0.666667 0.166667
O O12 0.771753 0.715458 0.260751
O O13 0.653656 0.669170 0.232548
O O14 0.131831 0.263662 0.686463
O O15 0.041172 0.264034 0.633570
O O16 0.999181 0.332515 0.666667
#
# Coordination Sequence:
#
# PCOD8323993 Si02
#       6
#    36  36  36  36  36  36
#     4   9  17  30  48  67  88 114 145 184 228 272
#     4   9  18  31  44  63  90 117 149 188 224 262
#     4  10  19  30  44  62  87 119 153 188 225 265
#     4  10  17  29  46  63  87 118 153 184 218 265
#     4   9  18  30  44  66  92 115 144 185 228 266
#     4   9  17  29  44  63  86 114 144 178 219 263
#
# _framework density 15.683237999999999
#
# number of rings (size 3 to 8) (size 9 to 14) (size 15 to 20)
#    0.000    2.667    1.667    0.667    0.000    1.000 
#    0.000    0.833    0.000    5.167    0.000    0.000 
#    0.000    0.000    0.000    0.000    0.000    8.833 
#
# Total GULP energy -892368.725013 kJ/mol
# GULP energy per Si atom -12394.010070 kJ/mol
# Density = 1.564754 g / cm^3
# Si number density = 15.683238 Si / 1000 Ang^3
#
#
#
# Elastic Constant Matrix: (Units=GPa)
#
#
# Indices 1 2 3 4 5 6 
#
# 1 92.9890 54.7610 35.2754 -1.1578 -0.0003 0.0000
# 2 54.7610 92.9890 35.2754 1.1578 0.0003 0.0000
# 3 35.2754 35.2754 46.7031 0.0000 0.0000 0.0000
# 4 -1.1578 1.1578 0.0000 20.7777 0.0000 0.0003
# 5 -0.0003 0.0003 0.0000 0.0000 20.7777 -1.1578
# 6 0.0000 0.0000 0.0000 0.0003 -1.1578 19.1140
#
#
#
# Elastic Compliance Matrix: (Units=1/GPa)
#
#
# Indices 1 2 3 4 5 6 
#
# 1 0.018417 -0.007831 -0.007996 0.001463 0.000000 0.000000
# 2 -0.007831 0.018417 -0.007996 -0.001463 0.000000 0.000000
# 3 -0.007996 -0.007996 0.033491 0.000000 0.000000 0.000000
# 4 0.001463 -0.001463 0.000000 0.048292 0.000000 -0.000001
# 5 0.000000 0.000000 0.000000 0.000000 0.048292 0.002925
# 6 0.000000 0.000000 0.000000 -0.000001 0.002925 0.052495
#
#
# Mechanical properties :
#
#
# Convention : Reuss Voigt Hill
#
# Bulk Modulus (GPa) = 44.09267 53.70051 48.89659
# Shear Modulus (GPa) = 18.20783 19.29183 18.74983
#
# Velocity S-wave (km/s) = 3.41100 3.51107 3.46140
# Velocity P-wave (km/s) = 6.60975 7.12403 6.87171
#
# Compressibility (1/GPa) = 0.02267951
#
# Stress axis : x y z
#
# Youngs Moduli (GPa) = 54.29818 54.29818 29.85903
#
# Poissons Ratio (x) = 0.42519 0.23875
# Poissons Ratio (y) = 0.42519 0.23875
# Poissons Ratio (z) = 0.43416 0.43416
#
# Static dielectric constant tensor:
#      x y z
#    x 3.004300 0.000000 0.000000 
#    y 0.000000 3.004300 0.000000 
#    z 0.000000 0.000000 3.103870 
# 
# 
# High freq. dielectric constant tensor:
#      x y z
#    x 1.595110 0.000000 0.000000 
#    y 0.000000 1.595110 0.000000 
#    z 0.000000 0.000000 1.590260 
# 
# From -- ./inp_files/8434.got.cif
#   From: 2010.03.12/outbox.cif.g09.slc.cpg/sg166_5_cif.got.tgz:8434.got - 2010.04.02 06:38:31.
