data_PCOD8323609
_publ_section_title
;
Structure prediction by ZEFSAII (Michael W. Deem and Ramdas Pophale) SiO2 
 PCOD8323609
Probable space group: P -3 M 1
;
_chemical_formula_sum "Si O2"
_cell_formula_units_Z 66
_cell_length_a 12.823738
_cell_length_b 12.823738
_cell_length_c 28.139365
_cell_angle_alpha 90.000000
_cell_angle_beta 90.000000
_cell_angle_gamma 120.000000
_cell_volume 4007.506149
_symmetry_space_group_name_H-M "P -3 M 1"
_symmetry_group_IT_number 164
_symmetry_cell_setting 'hexagonal'
loop_
_space_group_symop_operation_xyz
x,y,z
-y,x-y,z
-x+y,-x,z
x-y,-y,-z
-x,-x+y,-z
y,x,-z
-x,-y,-z
y,-x+y,-z
x-y,x,-z
-x+y,y,z
x,x-y,z
-y,-x,z
loop_
_atom_site_type_symbol
_atom_site_label
_atom_site_fract_x
_atom_site_fract_y
_atom_site_fract_z
Si Si1 0.423580 0.089949 0.457188
Si Si2 0.760021 0.760021 0.000000
Si Si3 0.332313 0.421877 0.186342
Si Si4 0.000075 0.760908 0.376084
Si Si5 0.760725 0.760504 0.732151
Si Si6 0.245704 0.244736 0.897321
O O1 0.558193 0.116386 0.450732
O O2 0.427953 0.213977 0.468680
O O3 0.355317 0.000000 0.500000
O O4 0.352542 0.029804 0.408816
O O5 0.703849 0.692122 0.949805
O O6 0.889864 0.779727 0.008838
O O7 0.227466 0.454931 0.183545
O O8 0.457937 0.542064 0.186135
O O9 0.323863 0.351077 0.234535
O O10 0.327858 0.343025 0.141292
O O11 0.127805 0.872196 0.391444
O O12 0.001858 0.721137 0.321990
O O13 0.901039 0.802077 0.382102
O O14 0.900379 0.800758 0.739607
O O15 0.744715 0.872358 0.746508
O O16 0.126174 0.252347 0.888857
O O17 0.211895 0.105948 0.891732
#
# Coordination Sequence:
#
# PCOD8323609 Si02
#       6
#    12   6  12  12  12  12
#     4  10  20  33  49  68  92 123 158 195 231 268
#     4   8  13  22  39  66  96 118 136 166 218 278
#     4  10  20  32  45  61  85 119 156 190 220 254
#     4   9  17  30  49  73  98 121 145 177 222 274
#     4   9  17  30  50  74  96 116 141 180 229 276
#     4   9  16  27  46  71  95 116 140 177 226 276
#
# _framework density 16.469096
#
# number of rings (size 3 to 8) (size 9 to 14) (size 15 to 20)
#    0.000    2.727    0.000    2.091    0.000    3.636 
#    0.000    2.273    0.000    6.182    0.000    0.000 
#    0.000    0.000    0.000    0.000    0.000    0.000 
#
# Total GULP energy -818110.840943 kJ/mol
# GULP energy per Si atom -12395.618802 kJ/mol
# Density = 1.643161 g / cm^3
# Si number density = 16.469096 Si / 1000 Ang^3
#
#
#
# Elastic Constant Matrix: (Units=GPa)
#
#
# Indices 1 2 3 4 5 6 
#
# 1 101.5128 57.1546 65.4088 -0.1008 0.0000 0.0000
# 2 57.1546 101.5128 65.4088 0.1008 0.0000 0.0000
# 3 65.4088 65.4088 130.3399 0.0000 0.0000 0.0000
# 4 -0.1008 0.1008 0.0000 21.1175 0.0000 0.0000
# 5 0.0000 0.0000 0.0000 0.0000 21.1175 -0.1008
# 6 0.0000 0.0000 0.0000 0.0000 -0.1008 22.1791
#
#
#
# Elastic Compliance Matrix: (Units=1/GPa)
#
#
# Indices 1 2 3 4 5 6 
#
# 1 0.016647 -0.005897 -0.005395 0.000108 0.000000 0.000000
# 2 -0.005897 0.016647 -0.005395 -0.000108 0.000000 0.000000
# 3 -0.005395 -0.005395 0.013087 0.000000 0.000000 0.000000
# 4 0.000108 -0.000108 0.000000 0.047355 0.000000 0.000000
# 5 0.000000 0.000000 0.000000 0.000000 0.047355 0.000215
# 6 0.000000 0.000000 0.000000 0.000000 0.000215 0.045088
#
#
# Mechanical properties :
#
#
# Convention : Reuss Voigt Hill
#
# Bulk Modulus (GPa) = 76.87477 78.81222 77.84350
# Shear Modulus (GPa) = 22.33242 22.57573 22.45407
#
# Velocity S-wave (km/s) = 3.68641 3.70644 3.69644
# Velocity P-wave (km/s) = 8.05599 8.14097 8.09859
#
# Compressibility (1/GPa) = 0.01300817
#
# Stress axis : x y z
#
# Youngs Moduli (GPa) = 60.06957 60.06957 76.41189
#
# Poissons Ratio (x) = 0.35422 0.41224
# Poissons Ratio (y) = 0.35422 0.41224
# Poissons Ratio (z) = 0.32407 0.32407
#
# Static dielectric constant tensor:
#      x y z
#    x 2.882940 0.000000 0.000000 
#    y 0.000000 2.882940 0.000000 
#    z 0.000000 0.000000 3.441770 
# 
# 
# High freq. dielectric constant tensor:
#      x y z
#    x 1.615180 0.000000 0.000000 
#    y 0.000000 1.615180 0.000000 
#    z 0.000000 0.000000 1.656010 
# 
# From -- ./inp_files/5510.got.cif
#   From: 2010.03.12/outbox.cif.g09.slc.cpg/sg164_3_cif.got.tgz:5510.got - 2010.04.02 06:32:59.
