data_PCOD8323383
_publ_section_title
;
Structure prediction by ZEFSAII (Michael W. Deem and Ramdas Pophale) SiO2 
 PCOD8323383
Probable space group: P -3 M 1
;
_chemical_formula_sum "Si O2"
_cell_formula_units_Z 54
_cell_length_a 24.300151
_cell_length_b 24.300151
_cell_length_c 5.264417
_cell_angle_alpha 90.000000
_cell_angle_beta 90.000000
_cell_angle_gamma 120.000000
_cell_volume 2692.147552
_symmetry_space_group_name_H-M "P -3 M 1"
_symmetry_group_IT_number 164
_symmetry_cell_setting 'hexagonal'
loop_
_space_group_symop_operation_xyz
x,y,z
-y,x-y,z
-x+y,-x,z
x-y,-y,-z
-x,-x+y,-z
y,x,-z
-x,-y,-z
y,-x+y,-z
x-y,x,-z
-x+y,y,z
x,x-y,z
-y,-x,z
loop_
_atom_site_type_symbol
_atom_site_label
_atom_site_fract_x
_atom_site_fract_y
_atom_site_fract_z
Si Si1 0.255254 0.190334 0.194536
Si Si2 0.462947 0.666027 0.781893
Si Si3 0.833073 0.297652 0.718207
Si Si4 0.875410 0.875410 0.000000
Si Si5 0.095025 0.321262 0.309149
O O1 0.279054 0.139527 0.182798
O O2 0.178074 0.153240 0.221983
O O3 0.289824 0.235282 0.434723
O O4 0.278423 0.228333 0.923384
O O5 0.457627 0.728814 0.782577
O O6 0.392571 0.607430 0.785105
O O7 0.500584 0.663223 0.029094
O O8 0.499283 0.662605 0.531767
O O9 0.768222 0.231779 0.717682
O O10 0.891761 0.284556 0.716650
O O11 0.942499 0.884997 0.897102
O O12 0.159883 0.319766 0.315285
#
# Coordination Sequence:
#
# PCOD8323383 Si02
#       5
#    12  12  12   6  12
#     4   9  18  31  51  73  97 128 165 206 251 289
#     4  10  18  27  38  58  91 135 177 212 248 302
#     4   9  17  27  42  61  85 121 169 217 265 308
#     4  10  21  38  58  84 116 154 187 206 224 266
#     4   9  16  30  49  70  91 119 163 217 267 308
#
# _framework density 20.058333999999999
#
# number of rings (size 3 to 8) (size 9 to 14) (size 15 to 20)
#    0.000    2.667    0.000    2.333    0.000    6.222 
#    0.000    5.556    0.000    0.000    0.000   10.889 
#    0.000    0.000    0.000   70.000    0.000   15.556 
#
# Total GULP energy -669342.986123 kJ/mol
# GULP energy per Si atom -12395.240484 kJ/mol
# Density = 2.001268 g / cm^3
# Si number density = 20.058334 Si / 1000 Ang^3
#
#
#
# Elastic Constant Matrix: (Units=GPa)
#
#
# Indices 1 2 3 4 5 6 
#
# 1 65.8213 43.6464 59.9017 11.5368 0.0000 0.0000
# 2 43.6464 65.8213 59.9017 -11.5368 0.0000 0.0000
# 3 59.9017 59.9017 184.1114 0.0000 0.0000 0.0000
# 4 11.5368 -11.5368 0.0000 20.1454 0.0000 0.0000
# 5 0.0000 0.0000 0.0000 0.0000 20.1454 11.5368
# 6 0.0000 0.0000 0.0000 0.0000 11.5368 11.0875
#
#
#
# Elastic Compliance Matrix: (Units=1/GPa)
#
#
# Indices 1 2 3 4 5 6 
#
# 1 0.062889 -0.048703 -0.004616 -0.063906 0.000000 0.000000
# 2 -0.048703 0.062889 -0.004616 0.063906 0.000000 0.000000
# 3 -0.004616 -0.004616 0.008435 0.000000 0.000000 0.000000
# 4 -0.063906 0.063906 0.000000 0.122835 0.000000 0.000000
# 5 0.000000 0.000000 0.000000 0.000000 0.122835 -0.127813
# 6 0.000000 0.000000 0.000000 0.000000 -0.127813 0.223184
#
#
# Mechanical properties :
#
#
# Convention : Reuss Voigt Hill
#
# Bulk Modulus (GPa) = 54.50947 71.40595 62.95771
# Shear Modulus (GPa) = 6.89607 20.42925 13.66266
#
# Velocity S-wave (km/s) = 1.85620 3.19484 2.61271
# Velocity P-wave (km/s) = 5.64167 7.02038 6.36845
#
# Compressibility (1/GPa) = 0.01834543
#
# Stress axis : x y z
#
# Youngs Moduli (GPa) = 15.90094 15.90094 118.55385
#
# Poissons Ratio (x) = 0.77442 0.54721
# Poissons Ratio (y) = 0.77442 0.54721
# Poissons Ratio (z) = 0.07339 0.07339
#
# Static dielectric constant tensor:
#      x y z
#    x 3.540830 0.000000 0.000000 
#    y 0.000000 3.540830 0.000000 
#    z 0.000000 0.000000 3.987560 
# 
# 
# High freq. dielectric constant tensor:
#      x y z
#    x 1.760290 0.000000 0.000000 
#    y 0.000000 1.760290 0.000000 
#    z 0.000000 0.000000 1.793570 
# 
# From -- ./inp_files/562.got.cif
#   From: 2010.03.12/outbox.cif.g09.slc.cpg/sg164_1_cif.got.tgz:562.got - 2010.04.02 06:32:59.
