data_PCOD8323070
_publ_section_title
;
Structure prediction by ZEFSAII (Michael W. Deem and Ramdas Pophale) SiO2 
 PCOD8323070
Probable space group: P -3 1 M 
;
_chemical_formula_sum "Si O2"
_cell_formula_units_Z 76
_cell_length_a 17.223524
_cell_length_b 17.223524
_cell_length_c 14.997085
_cell_angle_alpha 90.000000
_cell_angle_beta 90.000000
_cell_angle_gamma 120.000000
_cell_volume 3852.844788
_symmetry_space_group_name_H-M "P -3 1 M "
_symmetry_group_IT_number 162
_symmetry_cell_setting 'hexagonal'
loop_
_space_group_symop_operation_xyz
x,y,z
-y,x-y,z
-x+y,-x,z
-y,-x,-z
-x+y,y,-z
x,x-y,-z
-x,-y,-z
y,-x+y,-z
x-y,x,-z
y,x,z
x-y,-y,z
-x,-x+y,z
loop_
_atom_site_type_symbol
_atom_site_label
_atom_site_fract_x
_atom_site_fract_y
_atom_site_fract_z
Si Si1 0.381691 0.104571 0.838341
Si Si2 0.106445 0.732647 0.811475
Si Si3 0.898075 0.265166 0.523757
Si Si4 0.103859 0.468212 0.356108
Si Si5 0.634802 0.531728 0.019221
Si Si6 0.333334 0.666667 0.392424
Si Si7 0.826125 0.498391 0.324268
O O1 0.327714 0.159207 0.824257
O O2 0.415031 0.117054 0.939472
O O3 0.472509 0.151080 0.778419
O O4 0.316954 0.000000 0.814191
O O5 0.144014 0.712361 0.720394
O O6 0.000000 0.700711 0.813066
O O7 0.137818 0.689923 0.889506
O O8 0.839791 0.160210 0.500000
O O9 0.874385 0.321534 0.454127
O O10 0.873507 0.282966 0.621239
O O11 0.000000 0.289038 0.518828
O O12 0.132053 0.570538 0.353116
O O13 0.000000 0.413561 0.334173
O O14 0.565149 0.565149 0.035765
O O15 0.575658 0.424343 0.000000
O O16 0.333334 0.666667 0.500000
O O17 0.435769 0.719940 0.352105
#
# Coordination Sequence:
#
# PCOD8323070 Si02
#       7
#    12  12  12  12  12   4  12
#     4  11  22  35  54  80 107 139 183 227 269 322
#     4  10  20  36  56  77 105 140 179 225 274 320
#     4  11  22  36  54  76 103 135 173 215 259 309
#     4  10  20  34  54  77 102 137 177 212 255 314
#     4   9  18  33  54  78 104 136 173 214 259 313
#     4  12  24  36  54  78 115 152 181 216 258 318
#     4  12  22  35  53  78 110 142 173 212 259 306
#
# _framework density 19.725684999999999
#
# number of rings (size 3 to 8) (size 9 to 14) (size 15 to 20)
#    0.000    1.421    0.000    7.579    0.000    3.789 
#    0.000    0.000    0.000    4.895    0.000    0.000 
#    0.000    8.842    0.000    0.000    0.000    1.895 
#
# Total GULP energy -942191.113382 kJ/mol
# GULP energy per Si atom -12397.251492 kJ/mol
# Density = 1.968079 g / cm^3
# Si number density = 19.725685 Si / 1000 Ang^3
#
#
#
# Elastic Constant Matrix: (Units=GPa)
#
#
# Indices 1 2 3 4 5 6 
#
# 1 129.5178 -17.8710 13.1188 0.0004 -6.0729 -0.0022
# 2 -17.8710 129.5168 13.1188 -0.0006 6.0728 0.0017
# 3 13.1188 13.1188 86.6637 -0.0001 0.0000 -0.0002
# 4 0.0004 -0.0006 -0.0001 23.3991 0.0001 6.0728
# 5 -6.0729 6.0728 0.0000 0.0001 23.3991 0.0013
# 6 -0.0022 0.0017 -0.0002 6.0728 0.0013 73.6930
#
#
#
# Elastic Compliance Matrix: (Units=1/GPa)
#
#
# Indices 1 2 3 4 5 6 
#
# 1 0.008110 0.001177 -0.001406 0.000000 0.001799 0.000000
# 2 0.001177 0.008110 -0.001406 0.000000 -0.001799 0.000000
# 3 -0.001406 -0.001406 0.011964 0.000000 0.000000 0.000000
# 4 0.000000 0.000000 0.000000 0.043671 0.000000 -0.003599
# 5 0.001799 -0.001799 0.000000 0.000000 0.043671 -0.000001
# 6 0.000000 0.000000 0.000000 -0.003599 -0.000001 0.013866
#
#
# Mechanical properties :
#
#
# Convention : Reuss Voigt Hill
#
# Bulk Modulus (GPa) = 40.13563 40.27015 40.20289
# Shear Modulus (GPa) = 35.46932 46.58703 41.02818
#
# Velocity S-wave (km/s) = 4.24504 4.86505 4.56558
# Velocity P-wave (km/s) = 6.66469 7.21233 6.94391
#
# Compressibility (1/GPa) = 0.02491552
#
# Stress axis : x y z
#
# Youngs Moduli (GPa) = 123.30257 123.30161 83.58065
#
# Poissons Ratio (x) = -0.14514 0.11750
# Poissons Ratio (y) = -0.14514 0.11750
# Poissons Ratio (z) = 0.17335 0.17335
#
# Static dielectric constant tensor:
#      x y z
#    x 3.717740 0.000000 0.000000 
#    y 0.000000 3.717740 0.000000 
#    z 0.000000 0.000000 3.796510 
# 
# 
# High freq. dielectric constant tensor:
#      x y z
#    x 1.755450 0.000000 0.000000 
#    y 0.000000 1.755450 0.000000 
#    z 0.000000 0.000000 1.788020 
# 
# From -- ./inp_files/3120.got.cif
#   From: 2010.03.12/outbox.cif.g09.slc.cpg/sg162_2_cif.got.tgz:3120.got - 2010.04.02 06:27:41.
