data_PCOD8323541
_publ_section_title
;
Structure prediction by ZEFSAII (Michael W. Deem and Ramdas Pophale) SiO2 
 PCOD8323541
Probable space group: P -3 M 1
;
_chemical_formula_sum "Si O2"
_cell_formula_units_Z 84
_cell_length_a 17.961364
_cell_length_b 17.961364
_cell_length_c 16.591093
_cell_angle_alpha 90.000000
_cell_angle_beta 90.000000
_cell_angle_gamma 120.000000
_cell_volume 4635.368423
_symmetry_space_group_name_H-M "P -3 M 1"
_symmetry_group_IT_number 164
_symmetry_cell_setting 'hexagonal'
loop_
_space_group_symop_operation_xyz
x,y,z
-y,x-y,z
-x+y,-x,z
x-y,-y,-z
-x,-x+y,-z
y,x,-z
-x,-y,-z
y,-x+y,-z
x-y,x,-z
-x+y,y,z
x,x-y,z
-y,-x,z
loop_
_atom_site_type_symbol
_atom_site_label
_atom_site_fract_x
_atom_site_fract_y
_atom_site_fract_z
Si Si1 0.832241 0.832502 0.814797
Si Si2 0.246420 0.320060 0.933640
Si Si3 0.693674 0.043396 0.580729
Si Si4 0.838583 0.332211 0.157636
Si Si5 0.832479 0.999356 0.372030
Si Si6 0.668673 0.171499 0.497890
Si Si7 0.457125 0.085362 0.330287
O O1 0.865146 0.932573 0.831860
O O2 0.744162 0.771714 0.859914
O O3 0.811641 0.811774 0.721321
O O4 0.906824 0.813648 0.844181
O O5 0.156523 0.313045 0.963911
O O6 0.312259 0.416760 0.904443
O O7 0.293478 0.293478 0.000000
O O8 0.711028 0.139363 0.566864
O O9 0.638526 0.000000 0.500000
O O10 0.778300 0.034608 0.580426
O O11 0.636259 0.000256 0.660313
O O12 0.851370 0.425685 0.137479
O O13 0.738549 0.261452 0.148132
O O14 0.866298 0.325900 0.248433
O O15 0.905872 0.094129 0.401465
O O16 0.867182 0.933591 0.388491
O O17 0.570567 0.141133 0.520404
O O18 0.725477 0.274523 0.499950
O O19 0.676782 0.145488 0.406355
O O20 0.528395 0.056790 0.328117
#
# Coordination Sequence:
#
# PCOD8323541 Si02
#       7
#    12  12  12  12  12  12  12
#     4   9  17  30  49  72  98 127 160 199 242 287
#     4  10  20  33  50  73 101 132 162 193 231 278
#     4  10  20  32  47  66  93 126 161 197 240 291
#     4  10  20  34  53  76 101 128 159 197 242 289
#     4  10  20  33  48  66  90 123 164 208 250 290
#     4  10  19  31  48  70  97 128 163 202 243 287
#     4   9  18  32  50  72  97 124 155 196 244 290
#
# _framework density 18.121535999999999
#
# number of rings (size 3 to 8) (size 9 to 14) (size 15 to 20)
#    0.000    2.286    0.000    3.143    0.000    7.714 
#    0.000    1.429    0.000    3.143    0.000    0.000 
#    0.000    0.000    0.000   12.714    0.000    0.000 
#
# Total GULP energy -1041038.121250 kJ/mol
# GULP energy per Si atom -12393.310967 kJ/mol
# Density = 1.808029 g / cm^3
# Si number density = 18.121536 Si / 1000 Ang^3
#
#
#
# Elastic Constant Matrix: (Units=GPa)
#
#
# Indices 1 2 3 4 5 6 
#
# 1 105.6362 50.2217 45.9395 -4.2371 0.0000 0.0000
# 2 50.2217 105.6362 45.9395 4.2371 0.0000 0.0000
# 3 45.9395 45.9395 61.1098 0.0000 0.0000 0.0000
# 4 -4.2371 4.2371 0.0000 25.2943 0.0000 0.0000
# 5 0.0000 0.0000 0.0000 0.0000 25.2943 -4.2371
# 6 0.0000 0.0000 0.0000 0.0000 -4.2371 27.7073
#
#
#
# Elastic Compliance Matrix: (Units=1/GPa)
#
#
# Indices 1 2 3 4 5 6 
#
# 1 0.015021 -0.003499 -0.008662 0.003102 0.000000 0.000000
# 2 -0.003499 0.015021 -0.008662 -0.003102 0.000000 0.000000
# 3 -0.008662 -0.008662 0.029387 0.000000 0.000000 0.000000
# 4 0.003102 -0.003102 0.000000 0.040574 0.000000 0.000000
# 5 0.000000 0.000000 0.000000 0.000000 0.040574 0.006205
# 6 0.000000 0.000000 0.000000 0.000000 0.006205 0.037040
#
#
# Mechanical properties :
#
#
# Convention : Reuss Voigt Hill
#
# Bulk Modulus (GPa) = 56.22985 61.84264 59.03625
# Shear Modulus (GPa) = 22.20326 24.34463 23.27395
#
# Velocity S-wave (km/s) = 3.50414 3.66923 3.58764
# Velocity P-wave (km/s) = 6.88975 7.22161 7.05763
#
# Compressibility (1/GPa) = 0.01778415
#
# Stress axis : x y z
#
# Youngs Moduli (GPa) = 66.57208 66.57208 34.02823
#
# Poissons Ratio (x) = 0.23293 0.29475
# Poissons Ratio (y) = 0.23293 0.29475
# Poissons Ratio (z) = 0.57665 0.57665
#
# Static dielectric constant tensor:
#      x y z
#    x 3.302060 0.000000 0.000000 
#    y 0.000000 3.302060 0.000000 
#    z 0.000000 0.000000 3.180810 
# 
# 
# High freq. dielectric constant tensor:
#      x y z
#    x 1.703380 0.000000 0.000000 
#    y 0.000000 1.703380 0.000000 
#    z 0.000000 0.000000 1.673800 
# 
# From -- ./inp_files/3583.got.cif
#   From: 2010.03.12/outbox.cif.g09.slc.cpg/sg164_2_cif.got.tgz:3583.got - 2010.04.02 06:32:59.
