data_PCOD8323245
_publ_section_title
;
Structure prediction by ZEFSAII (Michael W. Deem and Ramdas Pophale) SiO2 
 PCOD8323245
Probable space group: P -3 1 C
;
_chemical_formula_sum "Si O2"
_cell_formula_units_Z 60
_cell_length_a 12.385521
_cell_length_b 12.385521
_cell_length_c 24.551489
_cell_angle_alpha 90.000000
_cell_angle_beta 90.000000
_cell_angle_gamma 120.000000
_cell_volume 3261.647537
_symmetry_space_group_name_H-M "P -3 1 C"
_symmetry_group_IT_number 163
_symmetry_cell_setting 'hexagonal'
loop_
_space_group_symop_operation_xyz
x,y,z
-y,x-y,z
-x+y,-x,z
-y,-x,1/2-z
-x+y,y,1/2-z
x,x-y,1/2-z
-x,-y,-z
y,-x+y,-z
x-y,x,-z
y,x,1/2+z
x-y,-y,1/2+z
-x,-x+y,1/2+z
loop_
_atom_site_type_symbol
_atom_site_label
_atom_site_fract_x
_atom_site_fract_y
_atom_site_fract_z
Si Si1 0.579081 0.669266 0.758353
Si Si2 0.014029 0.252636 0.858248
Si Si3 0.014671 0.759595 0.341034
Si Si4 0.920623 0.348729 0.558324
Si Si5 0.094476 0.412740 0.458105
O O1 0.471495 0.528506 0.750000
O O2 0.524433 0.762217 0.750000
O O3 0.629977 0.680251 0.819286
O O4 0.692317 0.706812 0.716929
O O5 0.985918 0.283430 0.918131
O O6 0.126888 0.225446 0.863497
O O7 0.895804 0.132322 0.833132
O O8 0.043788 0.678909 0.382999
O O9 0.898001 0.463936 0.566373
O O10 0.796187 0.232966 0.534617
O O11 0.033417 0.381708 0.517377
#
# Coordination Sequence:
#
# PCOD8323245 Si02
#       5
#    12  12  12  12  12
#     4  10  20  34  52  74 100 130 164 202 244 290
#     4  10  20  34  53  76 102 132 166 205 249 297
#     4  10  20  34  53  76 102 132 166 205 249 297
#     4  10  20  34  52  74 101 133 169 209 253 301
#     4  10  20  34  52  74 101 133 169 209 253 301
#
# _framework density 18.395610999999999
#
# number of rings (size 3 to 8) (size 9 to 14) (size 15 to 20)
#    0.000    2.000    0.000    4.000    0.000    0.000 
#    0.000    2.000    0.000   24.800    0.000    0.000 
#    0.000    0.000    0.000    0.000    0.000    0.000 
#
# Total GULP energy -744310.215126 kJ/mol
# GULP energy per Si atom -12405.170252 kJ/mol
# Density = 1.835374 g / cm^3
# Si number density = 18.395611 Si / 1000 Ang^3
#
#
#
# Elastic Constant Matrix: (Units=GPa)
#
#
# Indices 1 2 3 4 5 6 
#
# 1 67.1778 38.9452 -2.5153 0.0001 7.4652 0.0000
# 2 38.9452 67.1778 -2.5153 -0.0001 -7.4652 0.0000
# 3 -2.5153 -2.5153 25.6077 0.0000 0.0000 0.0000
# 4 0.0001 -0.0001 0.0000 14.1866 0.0000 -7.4652
# 5 7.4652 -7.4652 0.0000 0.0000 14.1866 0.0001
# 6 0.0000 0.0000 0.0000 -7.4652 0.0001 14.1163
#
#
#
# Elastic Compliance Matrix: (Units=1/GPa)
#
#
# Indices 1 2 3 4 5 6 
#
# 1 0.029272 -0.019805 0.000930 0.000000 -0.025826 0.000000
# 2 -0.019805 0.029272 0.000930 0.000000 0.025826 0.000000
# 3 0.000930 0.000930 0.039233 0.000000 0.000000 0.000000
# 4 0.000000 0.000000 0.000000 0.097669 0.000000 0.051651
# 5 -0.025826 0.025826 0.000000 0.000000 0.097669 -0.000001
# 6 0.000000 0.000000 0.000000 0.051651 -0.000001 0.098155
#
#
# Mechanical properties :
#
#
# Convention : Reuss Voigt Hill
#
# Bulk Modulus (GPa) = 16.15843 25.31028 20.73435
# Shear Modulus (GPa) = 11.16590 16.90112 14.03351
#
# Velocity S-wave (km/s) = 2.46638 3.03439 2.76501
# Velocity P-wave (km/s) = 4.11262 5.10543 4.63568
#
# Compressibility (1/GPa) = 0.06188720
#
# Stress axis : x y z
#
# Youngs Moduli (GPa) = 34.16186 34.16186 25.48849
#
# Poissons Ratio (x) = 0.67659 -0.02370
# Poissons Ratio (y) = 0.67659 -0.02370
# Poissons Ratio (z) = -0.03177 -0.03177
#
# Static dielectric constant tensor:
#      x y z
#    x 3.401490 0.000000 0.000000 
#    y 0.000000 3.401490 0.000000 
#    z 0.000000 0.000000 3.254650 
# 
# 
# High freq. dielectric constant tensor:
#      x y z
#    x 1.721280 0.000000 0.000000 
#    y 0.000000 1.721280 0.000000 
#    z 0.000000 0.000000 1.716390 
# 
# From -- ./inp_files/4091.got.cif
#   From: 2010.03.12/outbox.cif.g09.slc.cpg/sg163_3_cif.got.tgz:4091.got - 2010.04.02 06:30:25.
