data_PCOD8323043
_publ_section_title
;
Structure prediction by ZEFSAII (Michael W. Deem and Ramdas Pophale) SiO2 
 PCOD8323043
Probable space group: P -3 1 M 
;
_chemical_formula_sum "Si O2"
_cell_formula_units_Z 54
_cell_length_a 19.248289
_cell_length_b 19.248289
_cell_length_c 9.296205
_cell_angle_alpha 90.000000
_cell_angle_beta 90.000000
_cell_angle_gamma 120.000000
_cell_volume 2982.775624
_symmetry_space_group_name_H-M "P -3 1 M "
_symmetry_group_IT_number 162
_symmetry_cell_setting 'hexagonal'
loop_
_space_group_symop_operation_xyz
x,y,z
-y,x-y,z
-x+y,-x,z
-y,-x,-z
-x+y,y,-z
x,x-y,-z
-x,-y,-z
y,-x+y,-z
x-y,x,-z
y,x,z
x-y,-y,z
-x,-x+y,z
loop_
_atom_site_type_symbol
_atom_site_label
_atom_site_fract_x
_atom_site_fract_y
_atom_site_fract_z
Si Si1 0.204996 0.402422 0.839217
Si Si2 0.598233 0.196466 0.500000
Si Si3 0.090040 0.311953 0.414126
Si Si4 0.683061 0.426067 0.221368
Si Si5 0.092132 0.432299 0.640024
O O1 0.216542 0.339168 0.746558
O O2 0.289960 0.487653 0.845912
O O3 0.134909 0.414668 0.772587
O O4 0.183898 0.367795 0.000000
O O5 0.572100 0.248701 0.397239
O O6 0.612371 0.138589 0.393364
O O7 0.138809 0.277617 0.500000
O O8 0.096402 0.387691 0.497398
O O9 0.000000 0.239387 0.402449
O O10 0.597044 0.349155 0.175834
O O11 0.000000 0.401756 0.683277
#
# Coordination Sequence:
#
# PCOD8323043 Si02
#       5
#    12   6  12  12  12
#     4  11  22  35  51  74 108 140 169 210 260 314
#     4  12  17  32  54  74  92 130 180 234 266 294
#     4   9  19  36  58  81 104 133 171 212 252 302
#     4  10  20  30  49  70  96 133 180 225 265 295
#     4  10  20  34  53  75  98 130 176 221 261 304
#
# _framework density 18.103940999999999
#
# number of rings (size 3 to 8) (size 9 to 14) (size 15 to 20)
#    0.444    1.333    4.444    1.000    0.000    1.778 
#    0.000    0.000    0.000    1.556    0.000    0.000 
#    0.000    0.889    0.000    0.000    0.000    0.000 
#
# Total GULP energy -668974.607983 kJ/mol
# GULP energy per Si atom -12388.418666 kJ/mol
# Density = 1.806274 g / cm^3
# Si number density = 18.103941 Si / 1000 Ang^3
#
#
#
# Elastic Constant Matrix: (Units=GPa)
#
#
# Indices 1 2 3 4 5 6 
#
# 1 70.6078 29.9856 28.2168 -0.0001 1.1371 0.0000
# 2 29.9856 70.6078 28.2168 0.0001 -1.1371 0.0000
# 3 28.2168 28.2168 112.0814 0.0000 0.0000 0.0000
# 4 -0.0001 0.0001 0.0000 15.9898 0.0000 -1.1371
# 5 1.1371 -1.1371 0.0000 0.0000 15.9898 -0.0001
# 6 0.0000 0.0000 0.0000 -1.1371 -0.0001 20.3111
#
#
#
# Elastic Compliance Matrix: (Units=1/GPa)
#
#
# Indices 1 2 3 4 5 6 
#
# 1 0.018146 -0.006570 -0.002914 0.000000 -0.001758 0.000000
# 2 -0.006570 0.018146 -0.002914 0.000000 0.001758 0.000000
# 3 -0.002914 -0.002914 0.010389 0.000000 0.000000 0.000000
# 4 0.000000 0.000000 0.000000 0.062790 0.000000 0.003515
# 5 -0.001758 0.001758 0.000000 0.000000 0.062790 0.000000
# 6 0.000000 0.000000 0.000000 0.003515 0.000000 0.049431
#
#
# Mechanical properties :
#
#
# Convention : Reuss Voigt Hill
#
# Bulk Modulus (GPa) = 45.69502 47.34837 46.52169
# Shear Modulus (GPa) = 19.70189 21.58333 20.64261
#
# Velocity S-wave (km/s) = 3.30247 3.45656 3.38039
# Velocity P-wave (km/s) = 6.31165 6.49159 6.40225
#
# Compressibility (1/GPa) = 0.02188422
#
# Stress axis : x y z
#
# Youngs Moduli (GPa) = 55.10936 55.10936 96.25159
#
# Poissons Ratio (x) = 0.36206 0.28050
# Poissons Ratio (y) = 0.36206 0.28050
# Poissons Ratio (z) = 0.16060 0.16060
#
# Static dielectric constant tensor:
#      x y z
#    x 3.241300 0.000000 0.000000 
#    y 0.000000 3.241300 0.000000 
#    z 0.000000 0.000000 3.178510 
# 
# 
# High freq. dielectric constant tensor:
#      x y z
#    x 1.677200 0.000000 0.000000 
#    y 0.000000 1.677200 0.000000 
#    z 0.000000 0.000000 1.692110 
# 
# From -- ./inp_files/1475.got.cif
#   From: 2010.03.12/outbox.cif.g09.slc.cpg/sg162_1_cif.got.tgz:1475.got - 2010.04.02 06:27:41.
