data_PCOD8323220
_publ_section_title
;
Structure prediction by ZEFSAII (Michael W. Deem and Ramdas Pophale) SiO2 
 PCOD8323220
Probable space group: P -3 1 C
;
_chemical_formula_sum "Si O2"
_cell_formula_units_Z 84
_cell_length_a 17.249883
_cell_length_b 17.249883
_cell_length_c 18.790785
_cell_angle_alpha 90.000000
_cell_angle_beta 90.000000
_cell_angle_gamma 120.000000
_cell_volume 4842.257301
_symmetry_space_group_name_H-M "P -3 1 C"
_symmetry_group_IT_number 163
_symmetry_cell_setting 'hexagonal'
loop_
_space_group_symop_operation_xyz
x,y,z
-y,x-y,z
-x+y,-x,z
-y,-x,1/2-z
-x+y,y,1/2-z
x,x-y,1/2-z
-x,-y,-z
y,-x+y,-z
x-y,x,-z
y,x,1/2+z
x-y,-y,1/2+z
-x,-x+y,1/2+z
loop_
_atom_site_type_symbol
_atom_site_label
_atom_site_fract_x
_atom_site_fract_y
_atom_site_fract_z
Si Si1 0.262793 0.911557 0.583826
Si Si2 0.511217 0.666354 0.460814
Si Si3 0.177967 0.000000 0.500000
Si Si4 0.351236 0.262793 0.083826
Si Si5 0.033873 0.605152 0.169656
Si Si6 0.966127 0.394848 0.669657
Si Si7 0.155137 0.488783 0.039187
O O1 0.312244 0.905292 0.512964
O O2 0.217799 0.972013 0.566558
O O3 0.187092 0.812908 0.608198
O O4 0.331856 0.952723 0.648319
O O5 0.542480 0.661328 0.381143
O O6 0.483326 0.741663 0.462476
O O7 0.426640 0.573360 0.485276
O O8 0.083024 0.916976 0.475415
O O9 0.245786 0.027987 0.433442
O O10 0.379134 0.331856 0.148319
O O11 0.406952 0.312243 0.012964
O O12 0.063929 0.639417 0.250000
O O13 0.999220 0.499610 0.163195
O O14 0.881152 0.338672 0.618858
#
# Coordination Sequence:
#
# PCOD8323220 Si02
#       7
#    12  12  12  12  12  12  12
#     4  10  19  32  53  75  98 128 169 215 255 297
#     4  10  19  32  50  73 100 131 166 206 249 297
#     4  10  19  32  51  76 102 128 160 202 253 302
#     4  10  19  32  53  75  98 128 169 215 255 297
#     4  10  20  33  49  71 102 137 168 202 247 297
#     4  10  20  33  49  71 102 137 168 202 247 297
#     4  10  19  32  50  73 100 131 166 206 249 297
#
# _framework density 17.347280999999999
#
# number of rings (size 3 to 8) (size 9 to 14) (size 15 to 20)
#    0.000    2.000    2.857    1.286    0.000    3.429 
#    0.000    0.000    0.000    2.286    0.000    0.000 
#    0.000    2.286    0.000    0.000    0.000    0.000 
#
# Total GULP energy -1041714.365025 kJ/mol
# GULP energy per Si atom -12401.361488 kJ/mol
# Density = 1.730780 g / cm^3
# Si number density = 17.347281 Si / 1000 Ang^3
#
#
#
# Elastic Constant Matrix: (Units=GPa)
#
#
# Indices 1 2 3 4 5 6 
#
# 1 97.3089 40.9870 21.4482 0.0000 0.0000 0.0000
# 2 40.9870 97.3089 21.4482 0.0000 0.0000 0.0000
# 3 21.4482 21.4482 60.8574 0.0000 0.0000 0.0000
# 4 0.0000 0.0000 0.0000 21.9270 0.0000 0.0000
# 5 0.0000 0.0000 0.0000 0.0000 21.9270 0.0000
# 6 0.0000 0.0000 0.0000 0.0000 0.0000 28.1609
#
#
#
# Elastic Compliance Matrix: (Units=1/GPa)
#
#
# Indices 1 2 3 4 5 6 
#
# 1 0.012937 -0.004818 -0.002861 0.000000 0.000000 0.000000
# 2 -0.004818 0.012937 -0.002861 0.000000 0.000000 0.000000
# 3 -0.002861 -0.002861 0.018449 0.000000 0.000000 0.000000
# 4 0.000000 0.000000 0.000000 0.045606 0.000000 0.000000
# 5 0.000000 0.000000 0.000000 0.000000 0.045606 0.000000
# 6 0.000000 0.000000 0.000000 0.000000 0.000000 0.035510
#
#
# Mechanical properties :
#
#
# Convention : Reuss Voigt Hill
#
# Bulk Modulus (GPa) = 43.02819 47.02690 45.02754
# Shear Modulus (GPa) = 25.01597 25.84244 25.42920
#
# Velocity S-wave (km/s) = 3.80158 3.86386 3.83285
# Velocity P-wave (km/s) = 6.64283 6.86104 6.75282
#
# Compressibility (1/GPa) = 0.02324058
#
# Stress axis : x y z
#
# Youngs Moduli (GPa) = 77.29934 77.29934 54.20463
#
# Poissons Ratio (x) = 0.37246 0.15509
# Poissons Ratio (y) = 0.37246 0.15509
# Poissons Ratio (z) = 0.22117 0.22117
#
# Static dielectric constant tensor:
#      x y z
#    x 3.307950 0.000000 0.000000 
#    y 0.000000 3.307950 0.000000 
#    z 0.000000 0.000000 3.023480 
# 
# 
# High freq. dielectric constant tensor:
#      x y z
#    x 1.677690 0.000000 0.000000 
#    y 0.000000 1.677690 0.000000 
#    z 0.000000 0.000000 1.639570 
# 
# From -- ./inp_files/2680.got.cif
#   From: 2010.03.12/outbox.cif.g09.slc.cpg/sg163_2_cif.got.tgz:2680.got - 2010.04.02 06:30:25.
