data_PCOD8323355
_publ_section_title
;
Structure prediction by ZEFSAII (Michael W. Deem and Ramdas Pophale) SiO2 
 PCOD8323355
Probable space group: P -3 M 1
;
_chemical_formula_sum "Si O2"
_cell_formula_units_Z 72
_cell_length_a 23.067733
_cell_length_b 23.067733
_cell_length_c 12.294883
_cell_angle_alpha 90.000000
_cell_angle_beta 90.000000
_cell_angle_gamma 120.000000
_cell_volume 5665.847277
_symmetry_space_group_name_H-M "P -3 M 1"
_symmetry_group_IT_number 164
_symmetry_cell_setting 'hexagonal'
loop_
_space_group_symop_operation_xyz
x,y,z
-y,x-y,z
-x+y,-x,z
x-y,-y,-z
-x,-x+y,-z
y,x,-z
-x,-y,-z
y,-x+y,-z
x-y,x,-z
-x+y,y,z
x,x-y,z
-y,-x,z
loop_
_atom_site_type_symbol
_atom_site_label
_atom_site_fract_x
_atom_site_fract_y
_atom_site_fract_z
Si Si1 0.820010 0.307513 0.365741
Si Si2 0.533843 0.333488 0.125594
Si Si3 0.204156 0.667257 0.399154
Si Si4 0.606417 0.531125 0.984452
Si Si5 0.388775 0.914436 0.256280
Si Si6 0.037931 0.586580 0.612374
O O1 0.774591 0.225410 0.365379
O O2 0.805634 0.335457 0.255801
O O3 0.799311 0.334865 0.470252
O O4 0.899665 0.337915 0.376952
O O5 0.525593 0.262797 0.086026
O O6 0.606691 0.393310 0.089176
O O7 0.475153 0.344195 0.071732
O O8 0.214722 0.607361 0.358821
O O9 0.265096 0.734905 0.354194
O O10 0.138845 0.663137 0.342628
O O11 0.535114 0.464887 0.992306
O O12 0.639837 0.539169 0.865778
O O13 0.594583 0.594583 0.000000
O O14 0.455442 0.910883 0.265796
O O15 0.407963 0.989314 0.289949
O O16 0.061337 0.530669 0.622010
O O17 0.000000 0.577306 0.500000
#
# Coordination Sequence:
#
# PCOD8323355 Si02
#       6
#    12  12  12  12  12  12
#     4  10  19  28  39  56  76  94 116 148 186 225
#     4  10  19  29  41  55  74  98 124 152 186 228
#     4  10  18  27  37  52  74  98 120 145 182 226
#     4   9  17  29  42  54  68  88 116 151 184 215
#     4   9  17  27  40  56  70  87 117 151 182 217
#     4  10  16  25  42  58  72  91 117 147 179 218
#
# _framework density 12.707719000000001
#
# number of rings (size 3 to 8) (size 9 to 14) (size 15 to 20)
#    0.000    2.333    1.667    2.833    0.000    3.333 
#    0.000    1.667    0.000    2.333    0.000    0.000 
#    0.000    0.000    0.000    0.000    0.000    0.000 
#
# Total GULP energy -892019.440703 kJ/mol
# GULP energy per Si atom -12389.158899 kJ/mol
# Density = 1.267880 g / cm^3
# Si number density = 12.707719 Si / 1000 Ang^3
#
#
#
# Elastic Constant Matrix: (Units=GPa)
#
#
# Indices 1 2 3 4 5 6 
#
# 1 70.3830 38.7703 26.5459 0.9452 0.0000 0.0000
# 2 38.7703 70.3830 26.5459 -0.9452 0.0000 0.0000
# 3 26.5459 26.5459 63.6661 0.0000 0.0000 0.0000
# 4 0.9452 -0.9452 0.0000 14.0624 0.0000 0.0000
# 5 0.0000 0.0000 0.0000 0.0000 14.0624 0.9452
# 6 0.0000 0.0000 0.0000 0.0000 0.9452 15.8063
#
#
#
# Elastic Compliance Matrix: (Units=1/GPa)
#
#
# Indices 1 2 3 4 5 6 
#
# 1 0.021626 -0.010134 -0.004792 -0.002135 0.000000 0.000000
# 2 -0.010134 0.021626 -0.004792 0.002135 0.000000 0.000000
# 3 -0.004792 -0.004792 0.019703 0.000000 0.000000 0.000000
# 4 -0.002135 0.002135 0.000000 0.071399 0.000000 0.000000
# 5 0.000000 0.000000 0.000000 0.000000 0.071399 -0.004270
# 6 0.000000 0.000000 0.000000 0.000000 -0.004270 0.063521
#
#
# Mechanical properties :
#
#
# Convention : Reuss Voigt Hill
#
# Bulk Modulus (GPa) = 42.51659 43.12846 42.82252
# Shear Modulus (GPa) = 15.79534 16.29089 16.04312
#
# Velocity S-wave (km/s) = 3.52941 3.58434 3.55698
# Velocity P-wave (km/s) = 7.08088 7.15140 7.11623
#
# Compressibility (1/GPa) = 0.02352023
#
# Stress axis : x y z
#
# Youngs Moduli (GPa) = 46.23997 46.23997 50.75433
#
# Poissons Ratio (x) = 0.46861 0.24320
# Poissons Ratio (y) = 0.46861 0.24320
# Poissons Ratio (z) = 0.22157 0.22157
#
# Static dielectric constant tensor:
#      x y z
#    x 2.509550 0.000000 0.000000 
#    y 0.000000 2.509550 0.000000 
#    z 0.000000 0.000000 2.767360 
# 
# 
# High freq. dielectric constant tensor:
#      x y z
#    x 1.447140 0.000000 0.000000 
#    y 0.000000 1.447140 0.000000 
#    z 0.000000 0.000000 1.500060 
# 
# From -- ./inp_files/2980.got.cif
#   From: 2010.03.12/outbox.cif.g09.slc.cpg/sg164_2_cif.got.tgz:2980.got - 2010.04.02 06:32:59.
