data_PCOD8323758
_publ_section_title
;
Structure prediction by ZEFSAII (Michael W. Deem and Ramdas Pophale) SiO2 
 PCOD8323758
Probable space group: P -3 M 1
;
_chemical_formula_sum "Si O2"
_cell_formula_units_Z 54
_cell_length_a 12.404419
_cell_length_b 12.404419
_cell_length_c 23.109900
_cell_angle_alpha 90.000000
_cell_angle_beta 90.000000
_cell_angle_gamma 120.000000
_cell_volume 3079.509534
_symmetry_space_group_name_H-M "P -3 M 1"
_symmetry_group_IT_number 164
_symmetry_cell_setting 'hexagonal'
loop_
_space_group_symop_operation_xyz
x,y,z
-y,x-y,z
-x+y,-x,z
x-y,-y,-z
-x,-x+y,-z
y,x,-z
-x,-y,-z
y,-x+y,-z
x-y,x,-z
-x+y,y,z
x,x-y,z
-y,-x,z
loop_
_atom_site_type_symbol
_atom_site_label
_atom_site_fract_x
_atom_site_fract_y
_atom_site_fract_z
Si Si1 0.917531 0.333190 0.888005
Si Si2 0.583975 0.919061 0.776474
Si Si3 0.334647 0.415817 0.333204
Si Si4 0.748618 0.000000 0.000000
Si Si5 0.584590 0.665274 0.554887
O O1 0.890138 0.445069 0.896748
O O2 0.788843 0.211158 0.872534
O O3 0.013391 0.359465 0.836680
O O4 0.978378 0.317323 0.945688
O O5 0.439902 0.879804 0.770433
O O6 0.595012 0.797506 0.772849
O O7 0.663728 0.010433 0.724976
O O8 0.203552 0.407103 0.339226
O O9 0.439914 0.560087 0.331601
O O10 0.352246 0.346332 0.387215
O O11 0.765626 0.882813 0.987243
O O12 0.660697 0.660697 0.500000
O O13 0.590777 0.795389 0.555565
O O14 0.441324 0.558677 0.550752
#
# Coordination Sequence:
#
# PCOD8323758 Si02
#       5
#    12  12  12   6  12
#     4  10  20  34  53  76 102 132 167 209 255 301
#     4  10  20  34  53  76 102 132 166 206 251 299
#     4  10  20  34  54  78 104 134 168 209 254 300
#     4  10  20  34  52  74 102 136 172 208 248 298
#     4  10  20  34  54  78 104 134 168 209 254 300
#
# _framework density 17.535260999999998
#
# number of rings (size 3 to 8) (size 9 to 14) (size 15 to 20)
#    0.000    2.000    0.000    4.000    0.000    0.000 
#    0.000    6.667    0.000   21.333    0.000    0.000 
#    0.000    0.000    0.000    0.000    0.000    0.000 
#
# Total GULP energy -669834.352564 kJ/mol
# GULP energy per Si atom -12404.339862 kJ/mol
# Density = 1.749535 g / cm^3
# Si number density = 17.535261 Si / 1000 Ang^3
#
#
#
# Elastic Constant Matrix: (Units=GPa)
#
#
# Indices 1 2 3 4 5 6 
#
# 1 107.3071 65.1368 35.1111 4.9088 0.0000 0.0000
# 2 65.1368 107.3071 35.1111 -4.9088 0.0000 0.0000
# 3 35.1111 35.1111 76.1987 0.0000 0.0000 0.0000
# 4 4.9088 -4.9088 0.0000 13.9538 0.0000 0.0000
# 5 0.0000 0.0000 0.0000 0.0000 13.9538 4.9088
# 6 0.0000 0.0000 0.0000 0.0000 4.9088 21.0852
#
#
#
# Elastic Compliance Matrix: (Units=1/GPa)
#
#
# Indices 1 2 3 4 5 6 
#
# 1 0.016484 -0.009345 -0.003289 -0.009086 0.000000 0.000000
# 2 -0.009345 0.016484 -0.003289 0.009086 0.000000 0.000000
# 3 -0.003289 -0.003289 0.016155 0.000000 0.000000 0.000000
# 4 -0.009086 0.009086 0.000000 0.078058 0.000000 0.000000
# 5 0.000000 0.000000 0.000000 0.000000 0.078058 -0.018173
# 6 0.000000 0.000000 0.000000 0.000000 -0.018173 0.051657
#
#
# Mechanical properties :
#
#
# Convention : Reuss Voigt Hill
#
# Bulk Modulus (GPa) = 57.88829 62.39233 60.14031
# Shear Modulus (GPa) = 16.97788 20.16215 18.57001
#
# Velocity S-wave (km/s) = 3.11499 3.39456 3.25777
# Velocity P-wave (km/s) = 6.78393 7.14299 6.96578
#
# Compressibility (1/GPa) = 0.01727465
#
# Stress axis : x y z
#
# Youngs Moduli (GPa) = 60.66647 60.66647 61.90083
#
# Poissons Ratio (x) = 0.56694 0.20361
# Poissons Ratio (y) = 0.56694 0.20361
# Poissons Ratio (z) = 0.19955 0.19955
#
# Static dielectric constant tensor:
#      x y z
#    x 3.196230 0.000000 0.000000 
#    y 0.000000 3.196230 0.000000 
#    z 0.000000 0.000000 3.458520 
# 
# 
# High freq. dielectric constant tensor:
#      x y z
#    x 1.680010 0.000000 0.000000 
#    y 0.000000 1.680010 0.000000 
#    z 0.000000 0.000000 1.699750 
# 
# From -- ./inp_files/4436.got.cif
#   From: 2010.03.12/outbox.cif.g09.slc.cpg/sg164_3_cif.got.tgz:4436.got - 2010.04.02 06:32:59.
