data_PCOD8323201
_publ_section_title
;
Structure prediction by ZEFSAII (Michael W. Deem and Ramdas Pophale) SiO2 
 PCOD8323201
Probable space group: P -3 1 C
;
_chemical_formula_sum "Si O2"
_cell_formula_units_Z 40
_cell_length_a 11.860631
_cell_length_b 11.860631
_cell_length_c 13.242212
_cell_angle_alpha 90.000000
_cell_angle_beta 90.000000
_cell_angle_gamma 120.000000
_cell_volume 1613.268884
_symmetry_space_group_name_H-M "P -3 1 C"
_symmetry_group_IT_number 163
_symmetry_cell_setting 'hexagonal'
loop_
_space_group_symop_operation_xyz
x,y,z
-y,x-y,z
-x+y,-x,z
-y,-x,1/2-z
-x+y,y,1/2-z
x,x-y,1/2-z
-x,-y,-z
y,-x+y,-z
x-y,x,-z
y,x,1/2+z
x-y,-y,1/2+z
-x,-x+y,1/2+z
loop_
_atom_site_type_symbol
_atom_site_label
_atom_site_fract_x
_atom_site_fract_y
_atom_site_fract_z
Si Si1 0.000000 0.000000 0.117271
Si Si2 0.333113 0.922047 0.371191
Si Si3 0.300410 0.150205 0.139497
Si Si4 0.922047 0.333113 0.628810
O O1 0.145984 0.072992 0.156986
O O2 0.000000 0.000000 0.000000
O O3 0.202037 0.797963 0.412969
O O4 0.456456 0.912912 0.409444
O O5 0.327540 0.923757 0.250000
O O6 0.344162 0.055865 0.416102
O O7 0.366415 0.183208 0.250000
O O8 0.344162 0.055865 0.083898
#
# Coordination Sequence:
#
# PCOD8323201 Si02
#       4
#     4  12  12  12
#     4  12  22  32  52  78 100 125 172 222 253 290
#     4   9  16  26  44  71 100 127 159 200 246 298
#     4  10  18  32  52  74 102 133 163 202 258 307
#     4   9  16  26  44  71 100 127 159 200 246 298
#
# _framework density 24.79438
#
# number of rings (size 3 to 8) (size 9 to 14) (size 15 to 20)
#    0.000    2.400    3.000    1.500    0.000    2.400 
#    1.800    0.000    0.000    1.800    0.000    0.000 
#    0.000    0.000    0.000    0.000    0.000    0.000 
#
# Total GULP energy -495877.216348 kJ/mol
# GULP energy per Si atom -12396.930409 kJ/mol
# Density = 2.473795 g / cm^3
# Si number density = 24.794380 Si / 1000 Ang^3
#
#
#
# Elastic Constant Matrix: (Units=GPa)
#
#
# Indices 1 2 3 4 5 6 
#
# 1 223.9153 119.7457 -0.4137 0.0000 0.0000 0.0000
# 2 119.7457 223.9153 -0.4137 0.0000 0.0000 0.0000
# 3 -0.4137 -0.4137 34.9553 0.0000 0.0000 0.0000
# 4 0.0000 0.0000 0.0000 13.7045 0.0000 0.0000
# 5 0.0000 0.0000 0.0000 0.0000 13.7045 0.0000
# 6 0.0000 0.0000 0.0000 0.0000 0.0000 52.0848
#
#
#
# Elastic Compliance Matrix: (Units=1/GPa)
#
#
# Indices 1 2 3 4 5 6 
#
# 1 0.006255 -0.003345 0.000034 0.000000 0.000000 0.000000
# 2 -0.003345 0.006255 0.000034 0.000000 0.000000 0.000000
# 3 0.000034 0.000034 0.028609 0.000000 0.000000 0.000000
# 4 0.000000 0.000000 0.000000 0.072968 0.000000 0.000000
# 5 0.000000 0.000000 0.000000 0.000000 0.072968 0.000000
# 6 0.000000 0.000000 0.000000 0.000000 0.000000 0.019199
#
#
# Mechanical properties :
#
#
# Convention : Reuss Voigt Hill
#
# Bulk Modulus (GPa) = 28.92985 80.06918 54.49951
# Shear Modulus (GPa) = 22.28869 40.15662 31.22265
#
# Velocity S-wave (km/s) = 3.00149 4.02877 3.55246
# Velocity P-wave (km/s) = 4.86879 7.34879 6.23337
#
# Compressibility (1/GPa) = 0.03456638
#
# Stress axis : x y z
#
# Youngs Moduli (GPa) = 159.87645 159.87645 34.95432
#
# Poissons Ratio (x) = 0.53477 -0.00120
# Poissons Ratio (y) = 0.53477 -0.00120
# Poissons Ratio (z) = -0.00551 -0.00551
#
# Static dielectric constant tensor:
#      x y z
#    x 4.351130 0.000000 0.000000 
#    y 0.000000 4.351130 0.000000 
#    z 0.000000 0.000000 3.947840 
# 
# 
# High freq. dielectric constant tensor:
#      x y z
#    x 1.979640 0.000000 0.000000 
#    y 0.000000 1.979640 0.000000 
#    z 0.000000 0.000000 1.994640 
# 
# From -- ./inp_files/2878.got.cif
#   From: 2010.03.12/outbox.cif.g09.slc.cpg/sg163_2_cif.got.tgz:2878.got - 2010.04.02 06:30:25.
