data_PCOD8323923
_publ_section_title
;
Structure prediction by ZEFSAII (Michael W. Deem and Ramdas Pophale) SiO2 
 PCOD8323923
Probable space group: P -3 C 1
;
_chemical_formula_sum "Si O2"
_cell_formula_units_Z 48
_cell_length_a 16.440745
_cell_length_b 16.440745
_cell_length_c 9.678698
_cell_angle_alpha 90.000000
_cell_angle_beta 90.000000
_cell_angle_gamma 120.000000
_cell_volume 2265.638194
_symmetry_space_group_name_H-M "P -3 C 1"
_symmetry_group_IT_number 165
_symmetry_cell_setting 'hexagonal'
loop_
_space_group_symop_operation_xyz
x,y,z
-y,x-y,z
-x+y,-x,z
x-y,-y,1/2-z
-x,-x+y,1/2-z
y,x,1/2-z
-x,-y,-z
y,-x+y,-z
x-y,x,-z
-x+y,y,1/2+z
x,x-y,1/2+z
-y,-x,1/2+z
loop_
_atom_site_type_symbol
_atom_site_label
_atom_site_fract_x
_atom_site_fract_y
_atom_site_fract_z
Si Si1 0.344347 0.174234 0.523384
Si Si2 0.517924 0.891694 0.094053
Si Si3 0.890391 0.105859 0.773815
Si Si4 0.375781 0.486814 0.401976
O O1 0.399405 0.280352 0.472389
O O2 0.304929 0.170257 0.676172
O O3 0.253423 0.113084 0.428445
O O4 0.413223 0.131942 0.520851
O O5 0.490337 0.844926 0.247064
O O6 0.554843 0.000938 0.109996
O O7 0.426534 0.844689 0.994230
O O8 0.000000 0.176583 0.750000
O O9 0.867613 0.000000 0.750000
#
# Coordination Sequence:
#
# PCOD8323923 Si02
#       4
#    12  12  12  12
#     4  12  24  42  67  98 134 178 225 280 340 410
#     4  10  22  41  65  94 125 161 210 268 329 397
#     4  12  25  42  66  98 140 188 238 288 335 394
#     4  10  22  41  65  94 125 161 210 268 329 397
#
# _framework density 21.186083
#
# number of rings (size 3 to 8) (size 9 to 14) (size 15 to 20)
#    0.000    1.000    2.500    4.750    3.500    0.000 
#    1.500    2.500    0.000    0.000    0.000    0.000 
#    0.000    0.000    0.000    0.000    0.000    0.000 
#
# Total GULP energy -595398.721423 kJ/mol
# GULP energy per Si atom -12404.140030 kJ/mol
# Density = 2.113786 g / cm^3
# Si number density = 21.186083 Si / 1000 Ang^3
#
#
#
# Elastic Constant Matrix: (Units=GPa)
#
#
# Indices 1 2 3 4 5 6 
#
# 1 88.7792 5.9697 36.9303 -4.1058 0.0000 0.0000
# 2 5.9697 88.7792 36.9303 4.1058 0.0000 0.0000
# 3 36.9303 36.9303 106.0776 0.0000 0.0000 0.0000
# 4 -4.1058 4.1058 0.0000 28.0123 0.0000 0.0000
# 5 0.0000 0.0000 0.0000 0.0000 28.0123 -4.1058
# 6 0.0000 0.0000 0.0000 0.0000 -4.1058 41.4048
#
#
#
# Elastic Compliance Matrix: (Units=1/GPa)
#
#
# Indices 1 2 3 4 5 6 
#
# 1 0.013370 0.001116 -0.005043 0.001796 0.000000 0.000000
# 2 0.001116 0.013370 -0.005043 -0.001796 0.000000 0.000000
# 3 -0.005043 -0.005043 0.012938 0.000000 0.000000 0.000000
# 4 0.001796 -0.001796 0.000000 0.036225 0.000000 0.000000
# 5 0.000000 0.000000 0.000000 0.000000 0.036225 0.003592
# 6 0.000000 0.000000 0.000000 0.000000 0.003592 0.024508
#
#
# Mechanical properties :
#
#
# Convention : Reuss Voigt Hill
#
# Bulk Modulus (GPa) = 46.00397 49.25520 47.62959
# Shear Modulus (GPa) = 30.89801 33.07290 31.98545
#
# Velocity S-wave (km/s) = 3.82306 3.95532 3.88975
# Velocity P-wave (km/s) = 6.42254 6.64520 6.53482
#
# Compressibility (1/GPa) = 0.02173726
#
# Stress axis : x y z
#
# Youngs Moduli (GPa) = 74.79578 74.79578 77.28886
#
# Poissons Ratio (x) = -0.08345 0.38977
# Poissons Ratio (y) = -0.08345 0.38977
# Poissons Ratio (z) = 0.37720 0.37720
#
# Static dielectric constant tensor:
#      x y z
#    x 3.669410 0.000000 0.000000 
#    y 0.000000 3.669410 0.000000 
#    z 0.000000 0.000000 4.337990 
# 
# 
# High freq. dielectric constant tensor:
#      x y z
#    x 1.819870 0.000000 0.000000 
#    y 0.000000 1.819870 0.000000 
#    z 0.000000 0.000000 1.850860 
# 
# From -- ./inp_files/527.got.cif
#   From: 2010.03.12/outbox.cif.g09.slc.cpg/sg165_1_cif.got.tgz:527.got - 2010.04.02 06:36:38.
