data_PCOD8323309
_publ_section_title
;
Structure prediction by ZEFSAII (Michael W. Deem and Ramdas Pophale) SiO2 
 PCOD8323309
Probable space group: P -3 1 C
;
_chemical_formula_sum "Si O2"
_cell_formula_units_Z 84
_cell_length_a 18.006562
_cell_length_b 18.006562
_cell_length_c 13.962752
_cell_angle_alpha 90.000000
_cell_angle_beta 90.000000
_cell_angle_gamma 120.000000
_cell_volume 3920.696793
_symmetry_space_group_name_H-M "P -3 1 C"
_symmetry_group_IT_number 163
_symmetry_cell_setting 'hexagonal'
loop_
_space_group_symop_operation_xyz
x,y,z
-y,x-y,z
-x+y,-x,z
-y,-x,1/2-z
-x+y,y,1/2-z
x,x-y,1/2-z
-x,-y,-z
y,-x+y,-z
x-y,x,-z
y,x,1/2+z
x-y,-y,1/2+z
-x,-x+y,1/2+z
loop_
_atom_site_type_symbol
_atom_site_label
_atom_site_fract_x
_atom_site_fract_y
_atom_site_fract_z
Si Si1 0.796646 0.203355 0.750000
Si Si2 0.540587 0.013810 0.351392
Si Si3 0.406711 0.546953 0.498316
Si Si4 0.216137 0.480938 0.451381
Si Si5 0.807137 0.764867 0.376457
Si Si6 0.054361 0.945640 0.750000
Si Si7 0.696878 0.702193 0.194476
Si Si8 0.299844 0.094454 0.020332
O O1 0.743406 0.211904 0.663074
O O2 0.758362 0.106606 0.787880
O O3 0.495257 0.990513 0.250000
O O4 0.541154 0.096367 0.398508
O O5 0.489396 0.931936 0.417810
O O6 0.635134 0.031717 0.330301
O O7 0.303549 0.492785 0.498019
O O8 0.435541 0.644883 0.474071
O O9 0.132187 0.399838 0.496748
O O10 0.903650 0.834791 0.344167
O O11 0.753049 0.708181 0.286520
O O12 0.821871 0.706436 0.452048
O O13 0.756076 0.807011 0.425303
O O14 0.950816 0.901631 0.750000
O O15 0.758834 0.736737 0.102690
#
# Coordination Sequence:
#
# PCOD8323309 Si02
#       8
#     6  12  12  12  12   6  12  12
#     4  12  24  41  74 106 142 184 230 290 358 425
#     4  11  25  45  73 101 139 189 230 285 364 424
#     4  11  26  45  71 103 144 180 237 291 347 437
#     4  12  25  46  70 105 142 183 231 294 354 421
#     4  12  27  43  70 100 136 183 241 286 351 420
#     4  10  26  45  64  90 136 180 226 290 338 405
#     4  12  24  46  68 105 139 183 233 292 347 419
#     4  12  27  44  71 101 139 186 233 295 350 414
#
# _framework density 21.424764
#
# number of rings (size 3 to 8) (size 9 to 14) (size 15 to 20)
#    0.143    0.286    5.714    2.000    5.000    0.000 
#    0.000    1.429    0.000    0.000    0.000    0.000 
#    0.000    0.000    0.000    0.000    0.000    0.000 
#
# Total GULP energy -1041465.338022 kJ/mol
# GULP energy per Si atom -12398.396881 kJ/mol
# Density = 2.137600 g / cm^3
# Si number density = 21.424764 Si / 1000 Ang^3
#
#
#
# Elastic Constant Matrix: (Units=GPa)
#
#
# Indices 1 2 3 4 5 6 
#
# 1 114.3002 13.3779 39.3131 -0.0002 4.8844 0.0000
# 2 13.3779 114.3002 39.3132 0.0002 -4.8844 0.0000
# 3 39.3131 39.3132 118.6765 0.0000 0.0000 0.0000
# 4 -0.0002 0.0002 0.0000 34.7502 0.0000 -4.8844
# 5 4.8844 -4.8844 0.0000 0.0000 34.7502 -0.0002
# 6 0.0000 0.0000 0.0000 -4.8844 -0.0002 50.4612
#
#
#
# Elastic Compliance Matrix: (Units=1/GPa)
#
#
# Indices 1 2 3 4 5 6 
#
# 1 0.009942 -0.000103 -0.003259 0.000000 -0.001412 0.000000
# 2 -0.000103 0.009942 -0.003259 0.000000 0.001412 0.000000
# 3 -0.003259 -0.003259 0.010586 0.000000 0.000000 0.000000
# 4 0.000000 0.000000 0.000000 0.029174 0.000000 0.002824
# 5 -0.001412 0.001412 0.000000 0.000000 0.029174 0.000000
# 6 0.000000 0.000000 0.000000 0.002824 0.000000 0.020091
#
#
# Mechanical properties :
#
#
# Convention : Reuss Voigt Hill
#
# Bulk Modulus (GPa) = 58.04904 59.03170 58.54037
# Shear Modulus (GPa) = 39.09477 41.01049 40.05263
#
# Velocity S-wave (km/s) = 4.27634 4.37986 4.32841
# Velocity P-wave (km/s) = 7.17886 7.29318 7.23624
#
# Compressibility (1/GPa) = 0.01722681
#
# Stress axis : x y z
#
# Youngs Moduli (GPa) = 100.57991 100.57991 94.46681
#
# Poissons Ratio (x) = 0.01035 0.30791
# Poissons Ratio (y) = 0.01035 0.30791
# Poissons Ratio (z) = 0.32783 0.32783
#
# Static dielectric constant tensor:
#      x y z
#    x 3.577110 0.000000 0.000000 
#    y 0.000000 3.577110 0.000000 
#    z 0.000000 0.000000 3.891800 
# 
# 
# High freq. dielectric constant tensor:
#      x y z
#    x 1.841840 0.000000 0.000000 
#    y 0.000000 1.841840 0.000000 
#    z 0.000000 0.000000 1.848660 
# 
# From -- ./inp_files/2687.got.cif
#   From: 2010.03.12/outbox.cif.g09.slc.cpg/sg163_2_cif.got.tgz:2687.got - 2010.04.02 06:30:25.
