data_PCOD8323315
_publ_section_title
;
Structure prediction by ZEFSAII (Michael W. Deem and Ramdas Pophale) SiO2 
 PCOD8323315
Probable space group: P -3 1 C
;
_chemical_formula_sum "Si O2"
_cell_formula_units_Z 74
_cell_length_a 14.763311
_cell_length_b 14.763311
_cell_length_c 18.708577
_cell_angle_alpha 90.000000
_cell_angle_beta 90.000000
_cell_angle_gamma 120.000000
_cell_volume 3531.335047
_symmetry_space_group_name_H-M "P -3 1 C"
_symmetry_group_IT_number 163
_symmetry_cell_setting 'hexagonal'
loop_
_space_group_symop_operation_xyz
x,y,z
-y,x-y,z
-x+y,-x,z
-y,-x,1/2-z
-x+y,y,1/2-z
x,x-y,1/2-z
-x,-y,-z
y,-x+y,-z
x-y,x,-z
y,x,1/2+z
x-y,-y,1/2+z
-x,-x+y,1/2+z
loop_
_atom_site_type_symbol
_atom_site_label
_atom_site_fract_x
_atom_site_fract_y
_atom_site_fract_z
Si Si1 0.713176 0.001920 0.357824
Si Si2 0.421756 0.528862 0.333021
Si Si3 0.958590 0.641725 0.633604
Si Si4 0.433939 0.196473 0.330716
Si Si5 0.333335 0.666667 0.835838
Si Si6 0.300116 0.150058 0.750000
Si Si7 0.333333 0.666667 0.333965
Si Si8 0.203076 0.207704 0.002537
O O1 0.593595 0.963352 0.342167
O O2 0.762605 0.957068 0.297384
O O3 0.774023 0.126348 0.363662
O O4 0.719263 0.960078 0.435371
O O5 0.449405 0.550596 0.250000
O O6 0.524022 0.592330 0.383245
O O7 0.342914 0.567753 0.359994
O O8 0.872459 0.632396 0.691968
O O9 0.957241 0.705084 0.564286
O O10 0.072789 0.694196 0.667062
O O11 0.457501 0.228751 0.250000
O O12 0.549099 0.257525 0.367449
O O13 0.333334 0.666667 0.750000
O O14 0.333334 0.666667 0.250000
O O15 0.189548 0.097228 0.027031
#
# Coordination Sequence:
#
# PCOD8323315 Si02
#       8
#    12  12  12  12   4   6   4  12
#     4  12  24  40  70  98 136 178 229 282 346 407
#     4  11  21  38  65 102 135 174 222 284 342 408
#     4  12  24  40  70  98 136 178 229 282 346 407
#     4  11  20  38  62  98 129 173 212 272 326 399
#     4   9  21  36  63  97 143 169 216 256 332 409
#     4  12  22  40  68 100 128 176 236 290 326 396
#     4   9  21  33  60  97 137 169 216 277 344 394
#     4  12  27  47  70  92 134 184 228 285 357 424
#
# _framework density 20.955247
#
# number of rings (size 3 to 8) (size 9 to 14) (size 15 to 20)
#    0.000    0.649    6.486    2.108    2.270    1.946 
#    0.000    0.000    0.000    1.946    0.000    0.000 
#    0.000    0.000    0.000    0.000    0.000    0.000 
#
# Total GULP energy -916998.010287 kJ/mol
# GULP energy per Si atom -12391.865004 kJ/mol
# Density = 2.090755 g / cm^3
# Si number density = 20.955247 Si / 1000 Ang^3
#
#
#
# Elastic Constant Matrix: (Units=GPa)
#
#
# Indices 1 2 3 4 5 6 
#
# 1 105.6991 47.2540 24.7801 0.0000 1.6168 -0.0002
# 2 47.2540 105.6988 24.7799 0.0000 -1.6168 0.0000
# 3 24.7801 24.7799 89.1721 0.0000 0.0000 0.0000
# 4 0.0000 0.0000 0.0000 22.4436 0.0000 -1.6167
# 5 1.6168 -1.6168 0.0000 0.0000 22.4437 0.0000
# 6 -0.0002 0.0000 0.0000 -1.6167 0.0000 29.2223
#
#
#
# Elastic Compliance Matrix: (Units=1/GPa)
#
#
# Indices 1 2 3 4 5 6 
#
# 1 0.012182 -0.004997 -0.001997 0.000000 -0.001238 0.000000
# 2 -0.004997 0.012182 -0.001997 0.000000 0.001238 0.000000
# 3 -0.001997 -0.001997 0.012324 0.000000 0.000000 0.000000
# 4 0.000000 0.000000 0.000000 0.044734 0.000000 0.002475
# 5 -0.001238 0.001238 0.000000 0.000000 0.044734 0.000000
# 6 0.000000 0.000000 0.000000 0.002475 0.000000 0.034357
#
#
# Mechanical properties :
#
#
# Convention : Reuss Voigt Hill
#
# Bulk Modulus (GPa) = 53.45503 54.91088 54.18295
# Shear Modulus (GPa) = 27.06662 28.40565 27.73613
#
# Velocity S-wave (km/s) = 3.59784 3.68576 3.64206
# Velocity P-wave (km/s) = 6.54399 6.66137 6.60294
#
# Compressibility (1/GPa) = 0.01870731
#
# Stress axis : x y z
#
# Youngs Moduli (GPa) = 82.09017 82.08996 81.14286
#
# Poissons Ratio (x) = 0.41019 0.16201
# Poissons Ratio (y) = 0.41019 0.16201
# Poissons Ratio (z) = 0.16390 0.16390
#
# Static dielectric constant tensor:
#      x y z
#    x 3.891330 0.000000 -0.000020 
#    y 0.000000 3.891340 0.000010 
#    z -0.000020 0.000010 3.293680 
# 
# 
# High freq. dielectric constant tensor:
#      x y z
#    x 1.831940 0.000000 0.000000 
#    y 0.000000 1.831940 0.000000 
#    z 0.000000 0.000000 1.786130 
# 
# From -- ./inp_files/3657.got.cif
#   From: 2010.03.12/outbox.cif.g09.slc.cpg/sg163_2_cif.got.tgz:3657.got - 2010.04.02 06:30:25.
