data_PCOD8323033
_publ_section_title
;
Structure prediction by ZEFSAII (Michael W. Deem and Ramdas Pophale) SiO2 
 PCOD8323033
Probable space group: P -3 1 M 
;
_chemical_formula_sum "Si O2"
_cell_formula_units_Z 84
_cell_length_a 18.048190
_cell_length_b 18.048190
_cell_length_c 15.085605
_cell_angle_alpha 90.000000
_cell_angle_beta 90.000000
_cell_angle_gamma 120.000000
_cell_volume 4255.598747
_symmetry_space_group_name_H-M "P -3 1 M "
_symmetry_group_IT_number 162
_symmetry_cell_setting 'hexagonal'
loop_
_space_group_symop_operation_xyz
x,y,z
-y,x-y,z
-x+y,-x,z
-y,-x,-z
-x+y,y,-z
x,x-y,-z
-x,-y,-z
y,-x+y,-z
x-y,x,-z
y,x,z
x-y,-y,z
-x,-x+y,z
loop_
_atom_site_type_symbol
_atom_site_label
_atom_site_fract_x
_atom_site_fract_y
_atom_site_fract_z
Si Si1 0.583691 0.101988 0.632540
Si Si2 0.900048 0.678307 0.072768
Si Si3 0.274903 0.175469 0.412037
Si Si4 0.169940 0.500197 0.008876
Si Si5 0.442629 0.094751 0.195284
Si Si6 0.562390 0.898325 0.460055
Si Si7 0.181309 0.904873 0.231725
O O1 0.620335 0.137914 0.730743
O O2 0.515099 0.131396 0.609850
O O3 0.658406 0.136644 0.557695
O O4 0.539197 0.000000 0.635537
O O5 0.874420 0.577921 0.062556
O O6 0.879320 0.705680 0.166958
O O7 0.000000 0.734952 0.054131
O O8 0.850587 0.701173 0.000000
O O9 0.236544 0.118272 0.500000
O O10 0.228761 0.228761 0.392932
O O11 0.376766 0.239335 0.427287
O O12 0.255525 0.113798 0.329175
O O13 0.272585 0.545170 0.000000
O O14 0.138959 0.569480 0.000000
O O15 0.150203 0.463020 0.107526
O O16 0.361009 0.089448 0.241381
O O17 0.423510 0.000000 0.168333
O O18 0.615927 0.000000 0.465081
O O19 0.199125 0.000000 0.201725
#
# Coordination Sequence:
#
# PCOD8323033 Si02
#       7
#    12  12  12  12  12  12  12
#     4   8  14  27  50  79 114 148 186 238 294 353
#     4  11  22  40  64  90 119 155 201 261 319 371
#     4  11  22  36  56  85 120 158 202 253 315 380
#     4  11  23  40  60  86 124 165 200 240 300 369
#     4  10  19  34  57  85 112 149 199 249 300 358
#     4   8  15  29  49  78 113 149 185 233 294 354
#     4  11  22  39  62  86 117 157 207 260 318 379
#
# _framework density 19.738703000000001
#
# number of rings (size 3 to 8) (size 9 to 14) (size 15 to 20)
#    0.000    2.000    2.857    3.571    0.000    4.571 
#    0.000    1.429    0.000    8.571    0.000    0.000 
#   10.000    0.000    0.000    0.000    0.000    0.000 
#
# Total GULP energy -1040959.818073 kJ/mol
# GULP energy per Si atom -12392.378787 kJ/mol
# Density = 1.969378 g / cm^3
# Si number density = 19.738703 Si / 1000 Ang^3
#
#
#
# Elastic Constant Matrix: (Units=GPa)
#
#
# Indices 1 2 3 4 5 6 
#
# 1 82.8480 41.8350 33.6450 0.0000 1.3621 0.0000
# 2 41.8350 82.8480 33.6450 0.0000 -1.3621 0.0000
# 3 33.6450 33.6450 116.3644 0.0000 0.0000 0.0000
# 4 0.0000 0.0000 0.0000 29.8679 0.0000 -1.3621
# 5 1.3621 -1.3621 0.0000 0.0000 29.8679 0.0000
# 6 0.0000 0.0000 0.0000 -1.3621 0.0000 20.5065
#
#
#
# Elastic Compliance Matrix: (Units=1/GPa)
#
#
# Indices 1 2 3 4 5 6 
#
# 1 0.016980 -0.007477 -0.002748 0.000000 -0.001115 0.000000
# 2 -0.007477 0.016980 -0.002748 0.000000 0.001115 0.000000
# 3 -0.002748 -0.002748 0.010183 0.000000 0.000000 0.000000
# 4 0.000000 0.000000 0.000000 0.033582 0.000000 0.002231
# 5 -0.001115 0.001115 0.000000 0.000000 0.033582 0.000000
# 6 0.000000 0.000000 0.000000 0.002231 0.000000 0.048913
#
#
# Mechanical properties :
#
#
# Convention : Reuss Voigt Hill
#
# Bulk Modulus (GPa) = 54.95037 55.59004 55.27020
# Shear Modulus (GPa) = 26.01040 27.57751 26.79396
#
# Velocity S-wave (km/s) = 3.63400 3.74187 3.68833
# Velocity P-wave (km/s) = 6.74591 6.84784 6.79707
#
# Compressibility (1/GPa) = 0.01819824
#
# Stress axis : x y z
#
# Youngs Moduli (GPa) = 58.89310 58.89310 98.20665
#
# Poissons Ratio (x) = 0.44032 0.26984
# Poissons Ratio (y) = 0.44032 0.26984
# Poissons Ratio (z) = 0.16182 0.16182
#
# Static dielectric constant tensor:
#      x y z
#    x 3.538350 0.000000 0.000000 
#    y 0.000000 3.538350 0.000000 
#    z 0.000000 0.000000 3.669000 
# 
# 
# High freq. dielectric constant tensor:
#      x y z
#    x 1.752060 0.000000 0.000000 
#    y 0.000000 1.752060 0.000000 
#    z 0.000000 0.000000 1.773610 
# 
# From -- ./inp_files/3189.got.cif
#   From: 2010.03.12/outbox.cif.g09.slc.cpg/sg162_2_cif.got.tgz:3189.got - 2010.04.02 06:27:41.
