data_PCOD8323527
_publ_section_title
;
Structure prediction by ZEFSAII (Michael W. Deem and Ramdas Pophale) SiO2 
 PCOD8323527
Probable space group: P -3 M 1
;
_chemical_formula_sum "Si O2"
_cell_formula_units_Z 84
_cell_length_a 17.310972
_cell_length_b 17.310972
_cell_length_c 20.603426
_cell_angle_alpha 90.000000
_cell_angle_beta 90.000000
_cell_angle_gamma 120.000000
_cell_volume 5347.034444
_symmetry_space_group_name_H-M "P -3 M 1"
_symmetry_group_IT_number 164
_symmetry_cell_setting 'hexagonal'
loop_
_space_group_symop_operation_xyz
x,y,z
-y,x-y,z
-x+y,-x,z
x-y,-y,-z
-x,-x+y,-z
y,x,-z
-x,-y,-z
y,-x+y,-z
x-y,x,-z
-x+y,y,z
x,x-y,z
-y,-x,z
loop_
_atom_site_type_symbol
_atom_site_label
_atom_site_fract_x
_atom_site_fract_y
_atom_site_fract_z
Si Si1 0.901671 0.541609 0.999652
Si Si2 0.841500 0.330117 0.139598
Si Si3 0.841569 0.511450 0.859625
Si Si4 0.820994 0.820998 0.075540
Si Si5 0.817752 0.001404 0.709618
Si Si6 0.691570 0.000042 0.179982
Si Si7 0.999292 0.178142 0.568439
O O1 0.912467 0.456234 0.999454
O O2 0.849509 0.540511 0.064188
O O3 0.849989 0.540961 0.934979
O O4 0.000000 0.628718 0.000000
O O5 0.856796 0.428398 0.150386
O O6 0.742823 0.257178 0.163148
O O7 0.913536 0.319941 0.181817
O O8 0.742749 0.485497 0.836299
O O9 0.856921 0.428460 0.848893
O O10 0.913380 0.593773 0.817276
O O11 0.913596 0.827193 0.094944
O O12 0.741476 0.742199 0.114805
O O13 0.828786 0.914393 0.094494
O O14 0.799462 0.799462 0.000000
O O15 0.915085 0.084916 0.725986
O O16 0.785301 0.014385 0.637370
O O17 0.823183 0.911592 0.716753
O O18 0.744569 0.998643 0.757509
O O19 0.924080 0.075921 0.559389
O O20 0.000000 0.228525 0.500000
O O21 0.091100 0.182200 0.578221
#
# Coordination Sequence:
#
# PCOD8323527 Si02
#       7
#    12  12  12  12  12  12  12
#     4   9  17  32  50  67  84 106 136 181 236 287
#     4  11  22  36  52  68  87 112 147 189 235 284
#     4  11  22  36  52  68  87 112 147 189 235 284
#     4  10  21  35  49  63  81 111 153 195 229 262
#     4  10  19  31  46  67  96 129 163 194 226 268
#     4  12  23  34  46  68  92 120 148 184 234 280
#     4   8  13  22  39  63  91 123 157 190 221 257
#
# _framework density 15.709642000000001
#
# number of rings (size 3 to 8) (size 9 to 14) (size 15 to 20)
#    0.000    1.857    1.429    4.143    2.000    2.286 
#    0.000    2.857    0.000    0.000    0.000    0.000 
#    0.000    2.286    0.000    0.571    0.000    7.143 
#
# Total GULP energy -1040896.569478 kJ/mol
# GULP energy per Si atom -12391.625827 kJ/mol
# Density = 1.567389 g / cm^3
# Si number density = 15.709642 Si / 1000 Ang^3
#
#
#
# Elastic Constant Matrix: (Units=GPa)
#
#
# Indices 1 2 3 4 5 6 
#
# 1 95.4567 41.3905 39.7244 -0.3248 0.0000 0.0000
# 2 41.3905 95.4567 39.7244 0.3248 0.0000 0.0000
# 3 39.7244 39.7244 91.4230 0.0000 0.0000 0.0000
# 4 -0.3248 0.3248 0.0000 10.0954 0.0000 0.0000
# 5 0.0000 0.0000 0.0000 0.0000 10.0954 -0.3248
# 6 0.0000 0.0000 0.0000 0.0000 -0.3248 27.0331
#
#
#
# Elastic Compliance Matrix: (Units=1/GPa)
#
#
# Indices 1 2 3 4 5 6 
#
# 1 0.014138 -0.004365 -0.004246 0.000595 0.000000 0.000000
# 2 -0.004365 0.014138 -0.004246 -0.000595 0.000000 0.000000
# 3 -0.004246 -0.004246 0.014628 0.000000 0.000000 0.000000
# 4 0.000595 -0.000595 0.000000 0.099093 0.000000 0.000000
# 5 0.000000 0.000000 0.000000 0.000000 0.099093 0.001190
# 6 0.000000 0.000000 0.000000 0.000000 0.001190 0.037006
#
#
# Mechanical properties :
#
#
# Convention : Reuss Voigt Hill
#
# Bulk Modulus (GPa) = 58.17900 58.22389 58.20145
# Shear Modulus (GPa) = 16.15295 20.21127 18.18211
#
# Velocity S-wave (km/s) = 3.21006 3.59074 3.40573
# Velocity P-wave (km/s) = 7.13118 7.37118 7.25217
#
# Compressibility (1/GPa) = 0.01718833
#
# Stress axis : x y z
#
# Youngs Moduli (GPa) = 70.73207 70.73207 68.36035
#
# Poissons Ratio (x) = 0.30876 0.29028
# Poissons Ratio (y) = 0.30876 0.29028
# Poissons Ratio (z) = 0.30035 0.30035
#
# Static dielectric constant tensor:
#      x y z
#    x 2.911920 0.000000 0.000000 
#    y 0.000000 2.911920 0.000000 
#    z 0.000000 0.000000 3.120980 
# 
# 
# High freq. dielectric constant tensor:
#      x y z
#    x 1.597070 0.000000 0.000000 
#    y 0.000000 1.597070 0.000000 
#    z 0.000000 0.000000 1.570390 
# 
# From -- ./inp_files/4685.got.cif
#   From: 2010.03.12/outbox.cif.g09.slc.cpg/sg164_3_cif.got.tgz:4685.got - 2010.04.02 06:32:59.
