data_PCOD8323117
_publ_section_title
;
Structure prediction by ZEFSAII (Michael W. Deem and Ramdas Pophale) SiO2 
 PCOD8323117
Probable space group: P -3 1 M 
;
_chemical_formula_sum "Si O2"
_cell_formula_units_Z 40
_cell_length_a 17.736964
_cell_length_b 17.736964
_cell_length_c 7.554576
_cell_angle_alpha 90.000000
_cell_angle_beta 90.000000
_cell_angle_gamma 120.000000
_cell_volume 2058.255551
_symmetry_space_group_name_H-M "P -3 1 M "
_symmetry_group_IT_number 162
_symmetry_cell_setting 'hexagonal'
loop_
_space_group_symop_operation_xyz
x,y,z
-y,x-y,z
-x+y,-x,z
-y,-x,-z
-x+y,y,-z
x,x-y,-z
-x,-y,-z
y,-x+y,-z
x-y,x,-z
y,x,z
x-y,-y,z
-x,-x+y,z
loop_
_atom_site_type_symbol
_atom_site_label
_atom_site_fract_x
_atom_site_fract_y
_atom_site_fract_z
Si Si1 0.100669 0.736204 0.518344
Si Si2 0.333333 0.666667 0.708502
Si Si3 0.667130 0.169196 0.816973
Si Si4 0.529954 0.899856 0.190176
O O1 0.159029 0.840972 0.500000
O O2 0.127409 0.711730 0.701870
O O3 0.125569 0.692210 0.359536
O O4 0.000000 0.709390 0.517758
O O5 0.333334 0.666667 0.500000
O O6 0.271824 0.703496 0.779082
O O7 0.565349 0.116239 0.766088
O O8 0.684587 0.157919 0.022221
O O9 0.591871 0.000000 0.139560
#
# Coordination Sequence:
#
# PCOD8323117 Si02
#       4
#    12   4  12  12
#     4  11  23  39  58  79 105 136 174 221 272 327
#     4  12  24  34  50  79 112 152 199 232 260 307
#     4  11  21  36  53  75 112 150 185 225 265 299
#     4  10  21  35  54  80 107 143 189 226 265 318
#
# _framework density 19.433931000000001
#
# number of rings (size 3 to 8) (size 9 to 14) (size 15 to 20)
#    0.000    1.200    0.000    9.000    0.000   13.200 
#    0.000    0.000    0.000    0.300    0.000    0.000 
#    0.000    0.000    0.000    9.600    0.000    0.000 
#
# Total GULP energy -496179.195559 kJ/mol
# GULP energy per Si atom -12404.479889 kJ/mol
# Density = 1.938970 g / cm^3
# Si number density = 19.433931 Si / 1000 Ang^3
#
#
#
# Elastic Constant Matrix: (Units=GPa)
#
#
# Indices 1 2 3 4 5 6 
#
# 1 72.7349 18.0464 18.0026 -0.0002 1.0680 -0.0002
# 2 18.0464 72.7347 18.0025 -0.0002 -1.0680 -0.0002
# 3 18.0026 18.0025 88.0239 0.0002 0.0000 -0.0001
# 4 -0.0002 -0.0002 0.0002 11.4612 -0.0002 -1.0677
# 5 1.0680 -1.0680 0.0000 -0.0002 11.4616 0.0001
# 6 -0.0002 -0.0002 -0.0001 -1.0677 0.0001 27.3442
#
#
#
# Elastic Compliance Matrix: (Units=1/GPa)
#
#
# Indices 1 2 3 4 5 6 
#
# 1 0.015170 -0.003182 -0.002452 0.000000 -0.001710 0.000000
# 2 -0.003182 0.015170 -0.002452 0.000000 0.001710 0.000000
# 3 -0.002452 -0.002452 0.012363 0.000000 0.000000 0.000000
# 4 0.000000 0.000000 0.000000 0.087570 0.000001 0.003419
# 5 -0.001710 0.001710 0.000000 0.000001 0.087566 0.000000
# 6 0.000000 0.000000 0.000000 0.003419 0.000000 0.036704
#
#
# Mechanical properties :
#
#
# Convention : Reuss Voigt Hill
#
# Bulk Modulus (GPa) = 37.69005 37.95515 37.82260
# Shear Modulus (GPa) = 17.88528 22.01620 19.95074
#
# Velocity S-wave (km/s) = 3.03696 3.36947 3.20753
# Velocity P-wave (km/s) = 5.63325 5.89156 5.76385
#
# Compressibility (1/GPa) = 0.02653220
#
# Stress axis : x y z
#
# Youngs Moduli (GPa) = 65.91946 65.91934 80.88387
#
# Poissons Ratio (x) = 0.20977 0.19831
# Poissons Ratio (y) = 0.20977 0.19831
# Poissons Ratio (z) = 0.16162 0.16162
#
# Static dielectric constant tensor:
#      x y z
#    x 3.545290 0.000000 0.000000 
#    y 0.000000 3.545290 0.000000 
#    z 0.000000 0.000000 3.677120 
# 
# 
# High freq. dielectric constant tensor:
#      x y z
#    x 1.735410 0.000000 0.000000 
#    y 0.000000 1.735410 0.000000 
#    z 0.000000 0.000000 1.778490 
# 
# From -- ./inp_files/1119.got.cif
#   From: 2010.03.12/outbox.cif.g09.slc.cpg/sg162_1_cif.got.tgz:1119.got - 2010.04.02 06:27:41.
