data_PCOD8323871
_publ_section_title
;
Structure prediction by ZEFSAII (Michael W. Deem and Ramdas Pophale) SiO2 
 PCOD8323871
Probable space group: P -3 C 1
;
_chemical_formula_sum "Si O2"
_cell_formula_units_Z 44
_cell_length_a 12.542300
_cell_length_b 12.542300
_cell_length_c 15.621332
_cell_angle_alpha 90.000000
_cell_angle_beta 90.000000
_cell_angle_gamma 120.000000
_cell_volume 2128.154056
_symmetry_space_group_name_H-M "P -3 C 1"
_symmetry_group_IT_number 165
_symmetry_cell_setting 'hexagonal'
loop_
_space_group_symop_operation_xyz
x,y,z
-y,x-y,z
-x+y,-x,z
x-y,-y,1/2-z
-x,-x+y,1/2-z
y,x,1/2-z
-x,-y,-z
y,-x+y,-z
x-y,x,-z
-x+y,y,1/2+z
x,x-y,1/2+z
-y,-x,1/2+z
loop_
_atom_site_type_symbol
_atom_site_label
_atom_site_fract_x
_atom_site_fract_y
_atom_site_fract_z
Si Si1 0.431221 0.082695 0.174992
Si Si2 0.666668 0.333335 0.456213
Si Si3 0.666668 0.333335 0.162804
Si Si4 0.782065 0.054181 0.507799
Si Si5 0.484031 0.419893 0.418816
O O1 0.534127 0.224116 0.197104
O O2 0.350917 0.083459 0.094817
O O3 0.334717 0.000000 0.250000
O O4 0.509484 0.012839 0.160535
O O5 0.666668 0.333334 0.559249
O O6 0.599192 0.399647 0.415888
O O7 0.707157 0.062213 0.425875
O O8 0.921988 0.152566 0.489790
O O9 0.500000 0.500000 0.500000
#
# Coordination Sequence:
#
# PCOD8323871 Si02
#       5
#    12   4   4  12  12
#     4  11  25  40  61  96 129 161 207 267 324 377
#     4  12  18  34  62  91 114 160 212 247 306 373
#     4  12  21  40  65  88 129 166 206 262 324 382
#     4  11  22  40  64  89 120 166 216 258 306 387
#     4  10  19  33  59  85 117 156 200 249 301 373
#
# _framework density 20.675194000000001
#
# number of rings (size 3 to 8) (size 9 to 14) (size 15 to 20)
#    0.000    1.091    5.455    5.182    0.000    4.364 
#    0.000    1.364    0.000    0.000    0.000    0.000 
#    0.000    0.000    0.000    0.000    0.000    0.000 
#
# Total GULP energy -545259.144556 kJ/mol
# GULP energy per Si atom -12392.253285 kJ/mol
# Density = 2.062814 g / cm^3
# Si number density = 20.675194 Si / 1000 Ang^3
#
#
#
# Elastic Constant Matrix: (Units=GPa)
#
#
# Indices 1 2 3 4 5 6 
#
# 1 131.0499 37.7914 15.2832 1.8582 0.0000 0.0000
# 2 37.7914 131.0479 15.2843 -1.8578 0.0000 0.0000
# 3 15.2832 15.2843 35.4195 -0.0003 0.0000 0.0000
# 4 1.8582 -1.8578 -0.0003 16.5972 0.0000 0.0000
# 5 0.0000 0.0000 0.0000 0.0000 16.5967 1.8583
# 6 0.0000 0.0000 0.0000 0.0000 1.8583 46.6294
#
#
#
# Elastic Compliance Matrix: (Units=1/GPa)
#
#
# Indices 1 2 3 4 5 6 
#
# 1 0.008598 -0.002173 -0.002772 -0.001206 0.000000 0.000000
# 2 -0.002173 0.008598 -0.002772 0.001206 0.000000 0.000000
# 3 -0.002772 -0.002772 0.030626 0.000001 0.000000 0.000000
# 4 -0.001206 0.001206 0.000001 0.060521 0.000000 0.000000
# 5 0.000000 0.000000 0.000000 0.000000 0.060523 -0.002412
# 6 0.000000 0.000000 0.000000 0.000000 -0.002412 0.021542
#
#
# Mechanical properties :
#
#
# Convention : Reuss Voigt Hill
#
# Bulk Modulus (GPa) = 30.87778 48.24833 39.56306
# Shear Modulus (GPa) = 23.08000 31.24191 27.16096
#
# Velocity S-wave (km/s) = 3.34475 3.89148 3.62843
# Velocity P-wave (km/s) = 5.46659 6.60140 6.06062
#
# Compressibility (1/GPa) = 0.03238575
#
# Stress axis : x y z
#
# Youngs Moduli (GPa) = 116.30947 116.30688 32.65248
#
# Poissons Ratio (x) = 0.25276 0.09052
# Poissons Ratio (y) = 0.25276 0.09053
# Poissons Ratio (z) = 0.32242 0.32246
#
# Static dielectric constant tensor:
#      x y z
#    x 4.157450 0.000000 0.000000 
#    y 0.000000 4.157470 -0.000110 
#    z 0.000000 -0.000110 -5.702290 
# 
# 
# High freq. dielectric constant tensor:
#      x y z
#    x 1.815620 0.000000 0.000000 
#    y 0.000000 1.815630 0.000000 
#    z 0.000000 0.000000 1.782530 
# 
# From -- ./inp_files/2111.got.cif
#   From: 2010.03.12/outbox.cif.g09.slc.cpg/sg165_2_cif.got.tgz:2111.got - 2010.04.02 06:36:38.
