data_PCOD8323096
_publ_section_title
;
Structure prediction by ZEFSAII (Michael W. Deem and Ramdas Pophale) SiO2 
 PCOD8323096
Probable space group: P -3 1 M 
;
_chemical_formula_sum "Si O2"
_cell_formula_units_Z 84
_cell_length_a 18.055926
_cell_length_b 18.055926
_cell_length_c 14.972468
_cell_angle_alpha 90.000000
_cell_angle_beta 90.000000
_cell_angle_gamma 120.000000
_cell_volume 4227.304750
_symmetry_space_group_name_H-M "P -3 1 M "
_symmetry_group_IT_number 162
_symmetry_cell_setting 'hexagonal'
loop_
_space_group_symop_operation_xyz
x,y,z
-y,x-y,z
-x+y,-x,z
-y,-x,-z
-x+y,y,-z
x,x-y,-z
-x,-y,-z
y,-x+y,-z
x-y,x,-z
y,x,z
x-y,-y,z
-x,-x+y,z
loop_
_atom_site_type_symbol
_atom_site_label
_atom_site_fract_x
_atom_site_fract_y
_atom_site_fract_z
Si Si1 0.378994 0.901216 0.204257
Si Si2 0.501641 0.170679 0.514672
Si Si3 0.098358 0.362781 0.361497
Si Si4 0.215534 0.311127 0.264135
Si Si5 0.497123 0.828190 0.983343
Si Si6 0.621497 0.526426 0.700911
Si Si7 0.676879 0.775714 0.932868
O O1 0.313061 0.886265 0.281700
O O2 0.322886 0.848737 0.119870
O O3 0.439850 0.864804 0.240272
O O4 0.436446 0.000000 0.176763
O O5 0.569471 0.138941 0.500000
O O6 0.544877 0.272439 0.500000
O O7 0.417046 0.123646 0.453111
O O8 0.476799 0.152043 0.617385
O O9 0.155076 0.318035 0.339783
O O10 0.000000 0.288488 0.369331
O O11 0.236315 0.236315 0.294004
O O12 0.305477 0.396995 0.243371
O O13 0.177882 0.297884 0.164352
O O14 0.430668 0.861336 0.000000
O O15 0.452635 0.726318 0.000000
O O16 0.577332 0.872721 0.050426
O O17 0.548526 0.548526 0.669080
O O18 0.730941 0.730941 0.953921
O O19 0.707081 0.853541 0.000000
#
# Coordination Sequence:
#
# PCOD8323096 Si02
#       7
#    12  12  12  12  12  12  12
#     4  10  21  35  55  83 110 144 194 249 297 349
#     4  12  23  39  58  85 122 159 198 238 289 348
#     4  11  22  37  61  88 114 151 197 244 294 352
#     4  10  21  38  58  84 118 156 196 243 297 356
#     4  11  22  36  52  76 112 154 202 246 293 344
#     4  10  20  36  58  83 113 151 195 243 294 346
#     4  10  21  37  60  86 116 153 194 245 303 357
#
# _framework density 19.870818
#
# number of rings (size 3 to 8) (size 9 to 14) (size 15 to 20)
#    0.000    1.429    2.857    3.714    0.000    4.571 
#    0.000    0.000    0.000    0.429    0.000    0.000 
#    0.000    0.571    0.000    0.000    0.000    0.000 
#
# Total GULP energy -1041196.121070 kJ/mol
# GULP energy per Si atom -12395.191917 kJ/mol
# Density = 1.982559 g / cm^3
# Si number density = 19.870818 Si / 1000 Ang^3
#
#
#
# Elastic Constant Matrix: (Units=GPa)
#
#
# Indices 1 2 3 4 5 6 
#
# 1 81.1225 32.8133 23.6692 0.0001 -1.8708 0.0000
# 2 32.8133 81.1225 23.6692 -0.0001 1.8708 0.0000
# 3 23.6692 23.6692 81.9208 0.0000 0.0000 0.0000
# 4 0.0001 -0.0001 0.0000 29.9893 0.0000 1.8708
# 5 -1.8708 1.8708 0.0000 0.0000 29.9893 0.0001
# 6 0.0000 0.0000 0.0000 1.8708 0.0001 24.1546
#
#
#
# Elastic Compliance Matrix: (Units=1/GPa)
#
#
# Indices 1 2 3 4 5 6 
#
# 1 0.015387 -0.005413 -0.002882 0.000000 0.001298 0.000000
# 2 -0.005413 0.015387 -0.002882 0.000000 -0.001298 0.000000
# 3 -0.002882 -0.002882 0.013872 0.000000 0.000000 0.000000
# 4 0.000000 0.000000 0.000000 0.033507 0.000000 -0.002595
# 5 0.001298 -0.001298 0.000000 0.000000 0.033507 0.000000
# 6 0.000000 0.000000 0.000000 -0.002595 0.000000 0.041601
#
#
# Mechanical properties :
#
#
# Convention : Reuss Voigt Hill
#
# Bulk Modulus (GPa) = 44.85651 44.94104 44.89877
# Shear Modulus (GPa) = 27.31543 27.76093 27.53818
#
# Velocity S-wave (km/s) = 3.71165 3.74180 3.72675
# Velocity P-wave (km/s) = 6.40246 6.42913 6.41581
#
# Compressibility (1/GPa) = 0.02229331
#
# Stress axis : x y z
#
# Youngs Moduli (GPa) = 64.98844 64.98844 72.08666
#
# Poissons Ratio (x) = 0.35179 0.20774
# Poissons Ratio (y) = 0.35179 0.20774
# Poissons Ratio (z) = 0.18729 0.18729
#
# Static dielectric constant tensor:
#      x y z
#    x 3.531650 0.000000 0.000000 
#    y 0.000000 3.531650 0.000000 
#    z 0.000000 0.000000 3.642870 
# 
# 
# High freq. dielectric constant tensor:
#      x y z
#    x 1.759920 0.000000 0.000000 
#    y 0.000000 1.759920 0.000000 
#    z 0.000000 0.000000 1.783980 
# 
# From -- ./inp_files/3160.got.cif
#   From: 2010.03.12/outbox.cif.g09.slc.cpg/sg162_2_cif.got.tgz:3160.got - 2010.04.02 06:27:41.
