data_PCOD8323207
_publ_section_title
;
Structure prediction by ZEFSAII (Michael W. Deem and Ramdas Pophale) SiO2 
 PCOD8323207
Probable space group: P -3 1 C
;
_chemical_formula_sum "Si O2"
_cell_formula_units_Z 72
_cell_length_a 22.795906
_cell_length_b 22.795906
_cell_length_c 9.212290
_cell_angle_alpha 90.000000
_cell_angle_beta 90.000000
_cell_angle_gamma 120.000000
_cell_volume 4145.834370
_symmetry_space_group_name_H-M "P -3 1 C"
_symmetry_group_IT_number 163
_symmetry_cell_setting 'hexagonal'
loop_
_space_group_symop_operation_xyz
x,y,z
-y,x-y,z
-x+y,-x,z
-y,-x,1/2-z
-x+y,y,1/2-z
x,x-y,1/2-z
-x,-y,-z
y,-x+y,-z
x-y,x,-z
y,x,1/2+z
x-y,-y,1/2+z
-x,-x+y,1/2+z
loop_
_atom_site_type_symbol
_atom_site_label
_atom_site_fract_x
_atom_site_fract_y
_atom_site_fract_z
Si Si1 0.538125 0.389055 0.389239
Si Si2 0.065192 0.687468 0.234162
Si Si3 0.248325 0.751347 0.007392
Si Si4 0.197403 0.802598 0.250000
Si Si5 0.073316 0.690376 0.889304
Si Si6 0.204224 0.795777 0.750000
Si Si7 0.856708 0.474454 0.867660
O O1 0.586213 0.413788 0.250000
O O2 0.543827 0.326812 0.460864
O O3 0.460446 0.363888 0.349229
O O4 0.565496 0.453594 0.497696
O O5 0.117663 0.765174 0.289243
O O6 0.090692 0.638511 0.302736
O O7 0.993459 0.667302 0.301796
O O8 0.058746 0.686129 0.060495
O O9 0.257435 0.799705 0.870717
O O10 0.194998 0.753930 0.119229
O O11 0.320311 0.784034 0.084039
O O12 0.130953 0.765003 0.829732
O O13 0.834704 0.417352 0.750000
#
# Coordination Sequence:
#
# PCOD8323207 Si02
#       7
#    12  12  12   6  12   6  12
#     4  11  22  38  56  78 109 140 183 243 300 343
#     4  11  24  37  61  86 109 144 188 220 283 347
#     4  10  20  37  59  71  95 146 183 223 292 351
#     4  10  18  40  60  76 110 138 179 220 266 338
#     4  11  24  39  58  88 106 146 185 222 284 346
#     4  10  20  40  60  76 110 140 175 220 270 332
#     4  11  21  38  58  75 109 141 182 246 293 344
#
# _framework density 17.36683
#
# number of rings (size 3 to 8) (size 9 to 14) (size 15 to 20)
#    0.000    1.333    5.000    3.000    7.000    1.333 
#    1.000    0.000   14.667    0.000    0.000    0.000 
#    0.000    0.000    0.000    0.500    0.000    4.333 
#
# Total GULP energy -892010.200549 kJ/mol
# GULP energy per Si atom -12389.030563 kJ/mol
# Density = 1.732730 g / cm^3
# Si number density = 17.366830 Si / 1000 Ang^3
#
#
#
# Elastic Constant Matrix: (Units=GPa)
#
#
# Indices 1 2 3 4 5 6 
#
# 1 56.0660 83.5313 38.7526 0.0009 -1.4618 0.0000
# 2 83.5313 56.0660 38.7526 -0.0009 1.4618 0.0000
# 3 38.7526 38.7526 118.5454 0.0000 0.0000 0.0000
# 4 0.0009 -0.0009 0.0000 26.2989 0.0000 1.4618
# 5 -1.4618 1.4618 0.0000 0.0000 26.2989 0.0009
# 6 0.0000 0.0000 0.0000 1.4618 0.0009 -13.7327
#
#
#
# Elastic Compliance Matrix: (Units=1/GPa)
#
#
# Indices 1 2 3 4 5 6 
#
# 1 -0.013722 0.022474 -0.002861 0.000001 -0.002012 0.000000
# 2 0.022474 -0.013722 -0.002861 -0.000001 0.002012 0.000000
# 3 -0.002861 -0.002861 0.010306 0.000000 0.000000 0.000000
# 4 0.000001 -0.000001 0.000000 0.037801 0.000000 0.004024
# 5 -0.002012 0.002012 0.000000 0.000000 0.037801 0.000002
# 6 0.000000 0.000000 0.000000 0.004024 0.000002 -0.072391
#
#
# Mechanical properties :
#
#
# Convention : Reuss Voigt Hill
#
# Bulk Modulus (GPa) = 61.10263 61.41671 61.25967
# Shear Modulus (GPa) = -119.12024 12.41573 -53.35225
#
# Velocity S-wave (km/s) = -8.29093 2.67668 -5.54865
# Velocity P-wave (km/s) = 7.50952 6.70776 2.38735
#
# Compressibility (1/GPa) = 0.01636591
#
# Stress axis : x y z
#
# Youngs Moduli (GPa) = -72.87717 -72.87717 97.02966
#
# Poissons Ratio (x) = 1.63781 0.27760
# Poissons Ratio (y) = 1.63781 0.27760
# Poissons Ratio (z) = -0.20850 -0.20850
#
# Static dielectric constant tensor:
#      x y z
#    x 3.036550 0.000000 0.000000 
#    y 0.000000 3.036550 0.000000 
#    z 0.000000 0.000000 3.907550 
# 
# 
# High freq. dielectric constant tensor:
#      x y z
#    x 1.634320 0.000000 0.000000 
#    y 0.000000 1.634320 0.000000 
#    z 0.000000 0.000000 1.706410 
# 
# From -- ./inp_files/1268.got.cif
#   From: 2010.03.12/outbox.cif.g09.slc.cpg/sg163_1_cif.got.tgz:1268.got - 2010.04.02 06:30:25.
