data_PCOD8323536
_publ_section_title
;
Structure prediction by ZEFSAII (Michael W. Deem and Ramdas Pophale) SiO2 
 PCOD8323536
Probable space group: P -3 M 1
;
_chemical_formula_sum "Si O2"
_cell_formula_units_Z 66
_cell_length_a 17.045830
_cell_length_b 17.045830
_cell_length_c 15.371971
_cell_angle_alpha 90.000000
_cell_angle_beta 90.000000
_cell_angle_gamma 120.000000
_cell_volume 3868.089319
_symmetry_space_group_name_H-M "P -3 M 1"
_symmetry_group_IT_number 164
_symmetry_cell_setting 'hexagonal'
loop_
_space_group_symop_operation_xyz
x,y,z
-y,x-y,z
-x+y,-x,z
x-y,-y,-z
-x,-x+y,-z
y,x,-z
-x,-y,-z
y,-x+y,-z
x-y,x,-z
-x+y,y,z
x,x-y,z
-y,-x,z
loop_
_atom_site_type_symbol
_atom_site_label
_atom_site_fract_x
_atom_site_fract_y
_atom_site_fract_z
Si Si1 0.275421 0.371339 0.596491
Si Si2 0.765582 0.709455 0.827642
Si Si3 0.000000 0.814422 0.000000
Si Si4 0.022043 0.421668 0.275912
Si Si5 0.177112 0.178277 0.343675
Si Si6 0.847285 0.512828 0.567591
O O1 0.196634 0.393268 0.621603
O O2 0.352556 0.419947 0.669929
O O3 0.236459 0.263391 0.594967
O O4 0.314583 0.408398 0.501112
O O5 0.836335 0.672669 0.834123
O O6 0.665250 0.626401 0.806569
O O7 0.797858 0.786506 0.754500
O O8 0.760631 0.754383 0.917205
O O9 0.913284 0.826567 0.007628
O O10 0.011114 0.505557 0.242938
O O11 0.108616 0.455153 0.338310
O O12 0.145209 0.072605 0.344585
O O13 0.095543 0.191087 0.380231
O O14 0.744934 0.489867 0.573534
O O15 0.848066 0.424033 0.535628
#
# Coordination Sequence:
#
# PCOD8323536 Si02
#       6
#    12  12   6  12  12  12
#     4   9  18  30  44  66  95 126 161 202 244 282
#     4   9  18  31  47  71 100 126 153 190 237 283
#     4  10  19  32  53  80 108 134 160 190 225 268
#     4  10  19  32  50  70  93 123 159 195 234 283
#     4   9  16  27  44  66  94 128 165 200 235 279
#     4  10  19  31  48  69  93 120 154 198 245 289
#
# _framework density 17.062688000000001
#
# number of rings (size 3 to 8) (size 9 to 14) (size 15 to 20)
#    0.000    2.545    0.000    2.636    0.000    2.909 
#    0.000    3.182    0.000    0.727    0.000    0.000 
#    0.000   52.364    0.000    0.000    0.000    0.000 
#
# Total GULP energy -818476.458330 kJ/mol
# GULP energy per Si atom -12401.158460 kJ/mol
# Density = 1.702385 g / cm^3
# Si number density = 17.062688 Si / 1000 Ang^3
#
#
#
# Elastic Constant Matrix: (Units=GPa)
#
#
# Indices 1 2 3 4 5 6 
#
# 1 113.7404 59.3840 48.3870 -1.1040 0.0000 0.0000
# 2 59.3840 113.7404 48.3870 1.1040 0.0000 0.0000
# 3 48.3870 48.3870 81.5632 0.0000 0.0000 0.0000
# 4 -1.1040 1.1040 0.0000 22.9395 0.0000 0.0000
# 5 0.0000 0.0000 0.0000 0.0000 22.9395 -1.1040
# 6 0.0000 0.0000 0.0000 0.0000 -1.1040 27.1782
#
#
#
# Elastic Compliance Matrix: (Units=1/GPa)
#
#
# Indices 1 2 3 4 5 6 
#
# 1 0.013538 -0.004896 -0.005127 0.000887 0.000000 0.000000
# 2 -0.004896 0.013538 -0.005127 -0.000887 0.000000 0.000000
# 3 -0.005127 -0.005127 0.018343 0.000000 0.000000 0.000000
# 4 0.000887 -0.000887 0.000000 0.043678 0.000000 0.000000
# 5 0.000000 0.000000 0.000000 0.000000 0.043678 0.001774
# 6 0.000000 0.000000 0.000000 0.000000 0.001774 0.036866
#
#
# Mechanical properties :
#
#
# Convention : Reuss Voigt Hill
#
# Bulk Modulus (GPa) = 66.13727 69.03999 67.58863
# Shear Modulus (GPa) = 24.39262 24.80382 24.59822
#
# Velocity S-wave (km/s) = 3.78509 3.81686 3.80101
# Velocity P-wave (km/s) = 7.61236 7.74435 7.67864
#
# Compressibility (1/GPa) = 0.01512007
#
# Stress axis : x y z
#
# Youngs Moduli (GPa) = 73.86844 73.86844 54.51559
#
# Poissons Ratio (x) = 0.36163 0.27949
# Poissons Ratio (y) = 0.36163 0.27949
# Poissons Ratio (z) = 0.37871 0.37871
#
# Static dielectric constant tensor:
#      x y z
#    x 3.282690 0.000000 0.000000 
#    y 0.000000 3.282690 0.000000 
#    z 0.000000 0.000000 2.980090 
# 
# 
# High freq. dielectric constant tensor:
#      x y z
#    x 1.661470 0.000000 0.000000 
#    y 0.000000 1.661470 0.000000 
#    z 0.000000 0.000000 1.630390 
# 
# From -- ./inp_files/3488.got.cif
#   From: 2010.03.12/outbox.cif.g09.slc.cpg/sg164_2_cif.got.tgz:3488.got - 2010.04.02 06:32:59.
