data_PCOD8323166
_publ_section_title
;
Structure prediction by ZEFSAII (Michael W. Deem and Ramdas Pophale) SiO2 
 PCOD8323166
Probable space group: P -3 1 M 
;
_chemical_formula_sum "Si O2"
_cell_formula_units_Z 64
_cell_length_a 14.404300
_cell_length_b 14.404300
_cell_length_c 17.913958
_cell_angle_alpha 90.000000
_cell_angle_beta 90.000000
_cell_angle_gamma 120.000000
_cell_volume 3218.892694
_symmetry_space_group_name_H-M "P -3 1 M "
_symmetry_group_IT_number 162
_symmetry_cell_setting 'hexagonal'
loop_
_space_group_symop_operation_xyz
x,y,z
-y,x-y,z
-x+y,-x,z
-y,-x,-z
-x+y,y,-z
x,x-y,-z
-x,-y,-z
y,-x+y,-z
x-y,x,-z
y,x,z
x-y,-y,z
-x,-x+y,z
loop_
_atom_site_type_symbol
_atom_site_label
_atom_site_fract_x
_atom_site_fract_y
_atom_site_fract_z
Si Si1 0.583572 0.706191 0.308758
Si Si2 0.335500 0.213541 0.419282
Si Si3 0.786501 0.220845 0.149802
Si Si4 0.612337 0.000000 0.918682
Si Si5 0.333334 0.666668 0.087665
Si Si6 0.605107 0.605107 0.903832
Si Si7 0.549547 0.427882 0.419037
O O1 0.626890 0.626890 0.283227
O O2 0.676236 0.801945 0.358814
O O3 0.561085 0.758965 0.237924
O O4 0.471718 0.643071 0.356315
O O5 0.342473 0.171237 0.500000
O O6 0.236687 0.236687 0.416037
O O7 0.445224 0.319268 0.395003
O O8 0.900072 0.276240 0.108264
O O9 0.722297 0.271965 0.116738
O O10 0.712051 0.096098 0.132327
O O11 0.506315 0.000000 0.884363
O O12 0.610485 0.000000 0.007450
O O13 0.333334 0.666667 0.000000
O O14 0.589624 0.410377 0.500000
O O15 0.525056 0.525056 0.428130
#
# Coordination Sequence:
#
# PCOD8323166 Si02
#       7
#    12  12  12   6   4   6  12
#     4  11  24  42  60  87 130 169 209 262 314 374
#     4  11  22  38  64  91 120 159 209 258 313 376
#     4  12  25  41  65 100 136 175 218 268 332 396
#     4  11  22  44  66  99 133 176 214 271 328 407
#     4  12  24  42  66  96 136 170 211 267 327 399
#     4  11  24  40  72  97 134 173 221 264 336 401
#     4   9  18  36  58  82 117 160 201 246 305 373
#
# _framework density 19.882612999999999
#
# number of rings (size 3 to 8) (size 9 to 14) (size 15 to 20)
#    0.000    1.125    4.688    2.250    3.938    0.000 
#    1.125    0.938    0.000    3.750    2.438    1.312 
#    0.000    0.000    0.000    0.000    0.000    0.000 
#
# Total GULP energy -793315.084835 kJ/mol
# GULP energy per Si atom -12395.548201 kJ/mol
# Density = 1.983736 g / cm^3
# Si number density = 19.882613 Si / 1000 Ang^3
#
#
#
# Elastic Constant Matrix: (Units=GPa)
#
#
# Indices 1 2 3 4 5 6 
#
# 1 107.5505 44.6862 44.2454 -0.0002 3.5783 0.0000
# 2 44.6862 107.5507 44.2454 0.0002 -3.5780 0.0000
# 3 44.2454 44.2454 151.9126 -0.0002 0.0001 -0.0001
# 4 -0.0002 0.0002 -0.0002 18.9611 0.0002 -3.5779
# 5 3.5783 -3.5780 0.0001 0.0002 18.9606 0.0001
# 6 0.0000 0.0000 -0.0001 -3.5779 0.0001 31.4322
#
#
#
# Elastic Compliance Matrix: (Units=1/GPa)
#
#
# Indices 1 2 3 4 5 6 
#
# 1 0.012082 -0.004175 -0.002303 0.000000 -0.003068 0.000000
# 2 -0.004175 0.012082 -0.002303 0.000000 0.003068 0.000000
# 3 -0.002303 -0.002303 0.007924 0.000000 0.000000 0.000000
# 4 0.000000 0.000000 0.000000 0.053897 -0.000001 0.006135
# 5 -0.003068 0.003068 0.000000 -0.000001 0.053899 0.000000
# 6 0.000000 0.000000 0.000000 0.006135 0.000000 0.032513
#
#
# Mechanical properties :
#
#
# Convention : Reuss Voigt Hill
#
# Bulk Modulus (GPa) = 68.83814 70.37420 69.60617
# Shear Modulus (GPa) = 25.66726 29.45992 27.56359
#
# Velocity S-wave (km/s) = 3.59686 3.85345 3.72737
# Velocity P-wave (km/s) = 7.20745 7.43441 7.32181
#
# Compressibility (1/GPa) = 0.01452683
#
# Stress axis : x y z
#
# Youngs Moduli (GPa) = 82.76802 82.76817 126.19408
#
# Poissons Ratio (x) = 0.34552 0.29064
# Poissons Ratio (y) = 0.34552 0.29064
# Poissons Ratio (z) = 0.19062 0.19062
#
# Static dielectric constant tensor:
#      x y z
#    x 3.725810 -0.000010 0.000000 
#    y -0.000010 3.725800 -0.000010 
#    z 0.000000 -0.000010 2.845310 
# 
# 
# High freq. dielectric constant tensor:
#      x y z
#    x 1.765110 0.000000 0.000000 
#    y 0.000000 1.765110 0.000000 
#    z 0.000000 0.000000 1.786880 
# 
# From -- ./inp_files/3485.got.cif
#   From: 2010.03.12/outbox.cif.g09.slc.cpg/sg162_2_cif.got.tgz:3485.got - 2010.04.02 06:27:41.
