data_PCOD8323722
_publ_section_title
;
Structure prediction by ZEFSAII (Michael W. Deem and Ramdas Pophale) SiO2 
 PCOD8323722
Probable space group: P -3 M 1
;
_chemical_formula_sum "Si O2"
_cell_formula_units_Z 54
_cell_length_a 12.520529
_cell_length_b 12.520529
_cell_length_c 22.917463
_cell_angle_alpha 90.000000
_cell_angle_beta 90.000000
_cell_angle_gamma 120.000000
_cell_volume 3111.304574
_symmetry_space_group_name_H-M "P -3 M 1"
_symmetry_group_IT_number 164
_symmetry_cell_setting 'hexagonal'
loop_
_space_group_symop_operation_xyz
x,y,z
-y,x-y,z
-x+y,-x,z
x-y,-y,-z
-x,-x+y,-z
y,x,-z
-x,-y,-z
y,-x+y,-z
x-y,x,-z
-x+y,y,z
x,x-y,z
-y,-x,z
loop_
_atom_site_type_symbol
_atom_site_label
_atom_site_fract_x
_atom_site_fract_y
_atom_site_fract_z
Si Si1 0.665067 0.581358 0.779486
Si Si2 0.244974 0.999872 0.565959
Si Si3 0.749349 0.749349 0.000000
Si Si4 0.418688 0.333493 0.329191
Si Si5 0.583590 0.917097 0.889713
O O1 0.797296 0.594592 0.785434
O O2 0.562150 0.437851 0.782188
O O3 0.658440 0.641430 0.718965
O O4 0.647847 0.656214 0.831506
O O5 0.262324 0.131162 0.583775
O O6 0.289931 0.000000 0.500000
O O7 0.327991 0.969011 0.608054
O O8 0.100824 0.899177 0.572083
O O9 0.679590 0.669706 0.056246
O O10 0.882717 0.765433 0.992093
O O11 0.414404 0.207202 0.313295
O O12 0.559937 0.440064 0.330548
O O13 0.451886 0.903772 0.900389
O O14 0.563849 0.781925 0.883073
#
# Coordination Sequence:
#
# PCOD8323722 Si02
#       5
#    12  12   6  12  12
#     4  10  20  34  52  73  97 125 158 197 241 289
#     4   9  17  30  49  72  97 126 161 202 247 293
#     4  10  20  34  52  74 102 136 172 210 252 296
#     4  10  20  33  50  71  97 129 163 200 241 288
#     4  10  20  34  53  76 102 132 166 204 245 291
#
# _framework density 17.356062999999999
#
# number of rings (size 3 to 8) (size 9 to 14) (size 15 to 20)
#    0.000    2.222    0.000    3.333    0.000    1.333 
#    0.000    2.222    0.000   13.778    0.000    0.000 
#    0.000    0.000    0.000    0.000    0.000    0.000 
#
# Total GULP energy -669784.313974 kJ/mol
# GULP energy per Si atom -12403.413222 kJ/mol
# Density = 1.731656 g / cm^3
# Si number density = 17.356063 Si / 1000 Ang^3
#
#
#
# Elastic Constant Matrix: (Units=GPa)
#
#
# Indices 1 2 3 4 5 6 
#
# 1 77.8820 43.9705 47.7963 -1.9056 0.0000 0.0000
# 2 43.9705 77.8820 47.7963 1.9056 0.0000 0.0000
# 3 47.7963 47.7963 116.4980 0.0000 0.0000 0.0000
# 4 -1.9056 1.9056 0.0000 26.4444 0.0000 0.0000
# 5 0.0000 0.0000 0.0000 0.0000 26.4444 -1.9056
# 6 0.0000 0.0000 0.0000 0.0000 -1.9056 16.9557
#
#
#
# Elastic Compliance Matrix: (Units=1/GPa)
#
#
# Indices 1 2 3 4 5 6 
#
# 1 0.020916 -0.008814 -0.004965 0.002142 0.000000 0.000000
# 2 -0.008814 0.020916 -0.004965 -0.002142 0.000000 0.000000
# 3 -0.004965 -0.004965 0.012658 0.000000 0.000000 0.000000
# 4 0.002142 -0.002142 0.000000 0.038124 0.000000 0.000000
# 5 0.000000 0.000000 0.000000 0.000000 0.038124 0.004285
# 6 0.000000 0.000000 0.000000 0.000000 0.004285 0.059459
#
#
# Mechanical properties :
#
#
# Convention : Reuss Voigt Hill
#
# Bulk Modulus (GPa) = 58.81954 61.26535 60.04245
# Shear Modulus (GPa) = 21.42703 22.81551 22.12127
#
# Velocity S-wave (km/s) = 3.51744 3.62961 3.57396
# Velocity P-wave (km/s) = 7.10352 7.27607 7.19031
#
# Compressibility (1/GPa) = 0.01700115
#
# Stress axis : x y z
#
# Youngs Moduli (GPa) = 47.81143 47.81143 79.00205
#
# Poissons Ratio (x) = 0.42140 0.39225
# Poissons Ratio (y) = 0.42140 0.39225
# Poissons Ratio (z) = 0.23738 0.23738
#
# Static dielectric constant tensor:
#      x y z
#    x 3.168640 0.000000 0.000000 
#    y 0.000000 3.168640 0.000000 
#    z 0.000000 0.000000 3.419850 
# 
# 
# High freq. dielectric constant tensor:
#      x y z
#    x 1.672920 0.000000 0.000000 
#    y 0.000000 1.672920 0.000000 
#    z 0.000000 0.000000 1.685390 
# 
# From -- ./inp_files/4834.got.cif
#   From: 2010.03.12/outbox.cif.g09.slc.cpg/sg164_3_cif.got.tgz:4834.got - 2010.04.02 06:32:59.
