data_PCOD8323703
_publ_section_title
;
Structure prediction by ZEFSAII (Michael W. Deem and Ramdas Pophale) SiO2 
 PCOD8323703
Probable space group: P -3 M 1
;
_chemical_formula_sum "Si O2"
_cell_formula_units_Z 60
_cell_length_a 12.673000
_cell_length_b 12.673000
_cell_length_c 25.330066
_cell_angle_alpha 90.000000
_cell_angle_beta 90.000000
_cell_angle_gamma 120.000000
_cell_volume 3523.106915
_symmetry_space_group_name_H-M "P -3 M 1"
_symmetry_group_IT_number 164
_symmetry_cell_setting 'hexagonal'
loop_
_space_group_symop_operation_xyz
x,y,z
-y,x-y,z
-x+y,-x,z
x-y,-y,-z
-x,-x+y,-z
y,x,-z
-x,-y,-z
y,-x+y,-z
x-y,x,-z
-x+y,y,z
x,x-y,z
-y,-x,z
loop_
_atom_site_type_symbol
_atom_site_label
_atom_site_fract_x
_atom_site_fract_y
_atom_site_fract_z
Si Si1 0.911699 0.332855 0.244404
Si Si2 0.912493 0.333339 0.950924
Si Si3 0.245793 0.245832 0.852958
Si Si4 0.422980 0.089662 0.662110
Si Si5 0.578379 0.667781 0.456537
O O1 0.914295 0.457148 0.230124
O O2 0.772655 0.227346 0.249510
O O3 0.982376 0.305416 0.199306
O O4 0.978117 0.341412 0.299447
O O5 0.893170 0.446585 0.939385
O O6 0.782737 0.217264 0.963927
O O7 0.974490 0.312593 0.900339
O O8 0.000000 0.356955 0.000000
O O9 0.118826 0.237651 0.867068
O O10 0.221502 0.110751 0.843511
O O11 0.564934 0.129868 0.666256
O O12 0.410692 0.205346 0.678371
O O13 0.373442 0.044345 0.602873
O O14 0.674494 0.674494 0.500000
O O15 0.557314 0.778657 0.466753
O O16 0.450461 0.549540 0.466404
#
# Coordination Sequence:
#
# PCOD8323703 Si02
#       5
#    12  12  12  12  12
#     4  10  20  33  49  70  97 127 157 190 231 280
#     4  10  20  34  52  74 100 129 161 197 238 284
#     4  10  20  34  52  73  97 126 161 200 239 278
#     4   9  17  30  48  69  92 119 153 193 235 277
#     4   9  17  29  46  68  93 121 153 190 232 277
#
# _framework density 17.030422999999999
#
# number of rings (size 3 to 8) (size 9 to 14) (size 15 to 20)
#    0.000    2.400    0.000    2.800    0.000    2.400 
#    0.000    0.000    0.000   19.000    0.000    0.000 
#    0.000    0.000    0.000    0.000    0.000    0.000 
#
# Total GULP energy -744061.429197 kJ/mol
# GULP energy per Si atom -12401.023820 kJ/mol
# Density = 1.699166 g / cm^3
# Si number density = 17.030423 Si / 1000 Ang^3
#
#
#
# Elastic Constant Matrix: (Units=GPa)
#
#
# Indices 1 2 3 4 5 6 
#
# 1 101.1996 53.8397 59.4369 -4.1497 0.0000 0.0000
# 2 53.8397 101.1996 59.4369 4.1497 0.0000 0.0000
# 3 59.4369 59.4369 101.6108 0.0000 0.0000 0.0000
# 4 -4.1497 4.1497 0.0000 28.2483 0.0000 0.0000
# 5 0.0000 0.0000 0.0000 0.0000 28.2483 -4.1497
# 6 0.0000 0.0000 0.0000 0.0000 -4.1497 23.6799
#
#
#
# Elastic Compliance Matrix: (Units=1/GPa)
#
#
# Indices 1 2 3 4 5 6 
#
# 1 0.016684 -0.004989 -0.006841 0.003184 0.000000 0.000000
# 2 -0.004989 0.016684 -0.006841 -0.003184 0.000000 0.000000
# 3 -0.006841 -0.006841 0.017845 0.000000 0.000000 0.000000
# 4 0.003184 -0.003184 0.000000 0.036336 0.000000 0.000000
# 5 0.000000 0.000000 0.000000 0.000000 0.036336 0.006367
# 6 0.000000 0.000000 0.000000 0.000000 0.006367 0.043346
#
#
# Mechanical properties :
#
#
# Convention : Reuss Voigt Hill
#
# Bulk Modulus (GPa) = 72.09310 72.15966 72.12638
# Shear Modulus (GPa) = 23.90106 24.78841 24.34473
#
# Velocity S-wave (km/s) = 3.75031 3.81929 3.78495
# Velocity P-wave (km/s) = 7.82157 7.86844 7.84504
#
# Compressibility (1/GPa) = 0.01387095
#
# Stress axis : x y z
#
# Youngs Moduli (GPa) = 59.93747 59.93747 56.03858
#
# Poissons Ratio (x) = 0.29901 0.38337
# Poissons Ratio (y) = 0.29901 0.38337
# Poissons Ratio (z) = 0.41004 0.41004
#
# Static dielectric constant tensor:
#      x y z
#    x 3.175220 0.000000 0.000000 
#    y 0.000000 3.175220 0.000000 
#    z 0.000000 0.000000 3.403420 
# 
# 
# High freq. dielectric constant tensor:
#      x y z
#    x 1.658030 0.000000 0.000000 
#    y 0.000000 1.658030 0.000000 
#    z 0.000000 0.000000 1.668920 
# 
# From -- ./inp_files/5189.got.cif
#   From: 2010.03.12/outbox.cif.g09.slc.cpg/sg164_3_cif.got.tgz:5189.got - 2010.04.02 06:32:59.
