data_PCOD8323128
_publ_section_title
;
Structure prediction by ZEFSAII (Michael W. Deem and Ramdas Pophale) SiO2 
 PCOD8323128
Probable space group: P -3 1 M 
;
_chemical_formula_sum "Si O2"
_cell_formula_units_Z 72
_cell_length_a 22.963852
_cell_length_b 22.963852
_cell_length_c 8.619369
_cell_angle_alpha 90.000000
_cell_angle_beta 90.000000
_cell_angle_gamma 120.000000
_cell_volume 3936.367012
_symmetry_space_group_name_H-M "P -3 1 M "
_symmetry_group_IT_number 162
_symmetry_cell_setting 'hexagonal'
loop_
_space_group_symop_operation_xyz
x,y,z
-y,x-y,z
-x+y,-x,z
-y,-x,-z
-x+y,y,-z
x,x-y,-z
-x,-y,-z
y,-x+y,-z
x-y,x,-z
y,x,z
x-y,-y,z
-x,-x+y,z
loop_
_atom_site_type_symbol
_atom_site_label
_atom_site_fract_x
_atom_site_fract_y
_atom_site_fract_z
Si Si1 0.423584 0.923530 0.857707
Si Si2 0.802942 0.413370 0.321591
Si Si3 0.373591 0.190834 0.682267
Si Si4 0.727518 0.484248 0.181356
Si Si5 0.190667 0.269098 0.901652
Si Si6 0.367340 0.293456 0.140423
O O1 0.418232 0.882217 0.702855
O O2 0.351390 0.911077 0.913325
O O3 0.475640 0.000000 0.816049
O O4 0.448582 0.897163 0.000000
O O5 0.786354 0.393177 0.500000
O O6 0.766110 0.453547 0.273063
O O7 0.782505 0.350389 0.209326
O O8 0.373546 0.186773 0.500000
O O9 0.442212 0.253333 0.750559
O O10 0.304663 0.187951 0.741453
O O11 0.373299 0.123592 0.726967
O O12 0.745846 0.491692 0.000000
O O13 0.209759 0.209759 0.874860
O O14 0.120343 0.240686 0.000000
O O15 0.249819 0.330998 0.990955
O O16 0.325404 0.325404 0.214166
#
# Coordination Sequence:
#
# PCOD8323128 Si02
#       6
#    12  12  12  12  12  12
#     4  10  21  37  57  80 106 143 188 228 278 343
#     4  12  25  39  58  81 109 137 179 241 297 346
#     4  11  22  35  55  85 118 147 182 234 286 332
#     4  12  24  41  58  76 102 145 193 235 289 351
#     4   9  19  36  61  90 120 155 193 230 270 325
#     4   9  18  36  58  80 108 146 188 230 274 333
#
# _framework density 18.290979
#
# number of rings (size 3 to 8) (size 9 to 14) (size 15 to 20)
#    0.000    1.500    1.667    4.833    2.333    1.000 
#    0.000    0.000    0.000    0.167    0.000    0.000 
#    0.000    0.667    0.000    0.000    0.000    0.000 
#
# Total GULP energy -892470.157978 kJ/mol
# GULP energy per Si atom -12395.418861 kJ/mol
# Density = 1.824935 g / cm^3
# Si number density = 18.290979 Si / 1000 Ang^3
#
#
#
# Elastic Constant Matrix: (Units=GPa)
#
#
# Indices 1 2 3 4 5 6 
#
# 1 92.9951 37.4418 24.7667 -0.0002 -2.1799 0.0000
# 2 37.4418 92.9951 24.7667 0.0002 2.1799 0.0000
# 3 24.7667 24.7667 95.1697 0.0000 0.0000 0.0000
# 4 -0.0002 0.0002 0.0000 14.4204 0.0000 2.1799
# 5 -2.1799 2.1799 0.0000 0.0000 14.4204 -0.0002
# 6 0.0000 0.0000 0.0000 2.1799 -0.0002 27.7767
#
#
#
# Elastic Compliance Matrix: (Units=1/GPa)
#
#
# Indices 1 2 3 4 5 6 
#
# 1 0.013362 -0.004855 -0.002214 0.000000 0.002754 0.000000
# 2 -0.004855 0.013362 -0.002214 0.000000 -0.002754 0.000000
# 3 -0.002214 -0.002214 0.011660 0.000000 0.000000 0.000000
# 4 0.000000 0.000000 0.000000 0.070179 0.000000 -0.005508
# 5 0.002754 -0.002754 0.000000 0.000000 0.070179 0.000001
# 6 0.000000 0.000000 0.000000 -0.005508 0.000001 0.036434
#
#
# Mechanical properties :
#
#
# Convention : Reuss Voigt Hill
#
# Bulk Modulus (GPa) = 50.45731 50.56782 50.51256
# Shear Modulus (GPa) = 20.80329 24.26914 22.53622
#
# Velocity S-wave (km/s) = 3.37612 3.64653 3.51393
# Velocity P-wave (km/s) = 6.54549 6.74062 6.64377
#
# Compressibility (1/GPa) = 0.01981873
#
# Stress axis : x y z
#
# Youngs Moduli (GPa) = 74.83874 74.83874 85.76453
#
# Poissons Ratio (x) = 0.36333 0.18988
# Poissons Ratio (y) = 0.36333 0.18988
# Poissons Ratio (z) = 0.16569 0.16569
#
# Static dielectric constant tensor:
#      x y z
#    x 3.755130 0.000000 0.000000 
#    y 0.000000 3.755130 0.000000 
#    z 0.000000 0.000000 3.283210 
# 
# 
# High freq. dielectric constant tensor:
#      x y z
#    x 1.711120 0.000000 0.000000 
#    y 0.000000 1.711120 0.000000 
#    z 0.000000 0.000000 1.695330 
# 
# From -- ./inp_files/1765.got.cif
#   From: 2010.03.12/outbox.cif.g09.slc.cpg/sg162_1_cif.got.tgz:1765.got - 2010.04.02 06:27:41.
