data_PCOD8323078
_publ_section_title
;
Structure prediction by ZEFSAII (Michael W. Deem and Ramdas Pophale) SiO2 
 PCOD8323078
Probable space group: P -3 1 M 
;
_chemical_formula_sum "Si O2"
_cell_formula_units_Z 84
_cell_length_a 19.430647
_cell_length_b 19.430647
_cell_length_c 13.957007
_cell_angle_alpha 90.000000
_cell_angle_beta 90.000000
_cell_angle_gamma 120.000000
_cell_volume 4563.493664
_symmetry_space_group_name_H-M "P -3 1 M "
_symmetry_group_IT_number 162
_symmetry_cell_setting 'hexagonal'
loop_
_space_group_symop_operation_xyz
x,y,z
-y,x-y,z
-x+y,-x,z
-y,-x,-z
-x+y,y,-z
x,x-y,-z
-x,-y,-z
y,-x+y,-z
x-y,x,-z
y,x,z
x-y,-y,z
-x,-x+y,z
loop_
_atom_site_type_symbol
_atom_site_label
_atom_site_fract_x
_atom_site_fract_y
_atom_site_fract_z
Si Si1 0.092175 0.761651 0.458069
Si Si2 0.910004 0.171644 0.089431
Si Si3 0.581099 0.908306 0.940775
Si Si4 0.905190 0.501912 0.760961
Si Si5 0.682595 0.908805 0.233015
Si Si6 0.094233 0.616915 0.548437
Si Si7 0.363436 0.905075 0.856084
O O1 0.150981 0.849020 0.500000
O O2 0.101971 0.775127 0.345645
O O3 0.119833 0.699080 0.492151
O O4 0.000000 0.729188 0.489014
O O5 0.896468 0.240562 0.046201
O O6 0.860964 0.135460 0.186587
O O7 0.000000 0.203536 0.120990
O O8 0.888634 0.111367 0.000000
O O9 0.536967 0.870220 0.840516
O O10 0.606372 0.000000 0.934654
O O11 0.523936 0.872906 0.033952
O O12 0.871711 0.507314 0.657122
O O13 0.873556 0.411108 0.793058
O O14 0.000000 0.550005 0.755392
O O15 0.594337 0.871804 0.190995
O O16 0.735729 0.000000 0.202979
O O17 0.128622 0.564311 0.500000
O O18 0.000000 0.565372 0.548279
O O19 0.410373 0.000000 0.855480
#
# Coordination Sequence:
#
# PCOD8323078 Si02
#       7
#    12  12  12  12  12  12  12
#     4  10  22  37  56  81 111 146 191 247 304 356
#     4  11  21  34  53  76 106 142 183 231 289 353
#     4   9  17  27  42  70 104 134 162 203 257 315
#     4   9  16  25  44  72 103 134 162 197 247 307
#     4  10  20  35  53  74 102 141 183 229 294 354
#     4   9  17  31  50  75 106 139 176 217 267 328
#     4   9  15  27  46  70 103 135 163 198 250 320
#
# _framework density 18.406949000000001
#
# number of rings (size 3 to 8) (size 9 to 14) (size 15 to 20)
#    0.000    2.429    1.429    1.714    2.000    5.714 
#    0.000    0.000    0.000    3.000    0.000    0.000 
#    1.429    0.286    0.000    0.000    0.000    0.000 
#
# Total GULP energy -1041007.190117 kJ/mol
# GULP energy per Si atom -12392.942739 kJ/mol
# Density = 1.836505 g / cm^3
# Si number density = 18.406949 Si / 1000 Ang^3
#
#
#
# Elastic Constant Matrix: (Units=GPa)
#
#
# Indices 1 2 3 4 5 6 
#
# 1 66.2329 35.7580 41.1266 0.0001 2.0613 0.0000
# 2 35.7580 66.2329 41.1266 -0.0001 -2.0613 0.0000
# 3 41.1266 41.1266 128.1134 0.0000 0.0000 0.0000
# 4 0.0001 -0.0001 0.0000 25.8216 0.0000 -2.0613
# 5 2.0613 -2.0613 0.0000 0.0000 25.8216 0.0001
# 6 0.0000 0.0000 0.0000 -2.0613 0.0001 15.2375
#
#
#
# Elastic Compliance Matrix: (Units=1/GPa)
#
#
# Indices 1 2 3 4 5 6 
#
# 1 0.023201 -0.009971 -0.004247 0.000000 -0.002648 0.000000
# 2 -0.009971 0.023201 -0.004247 0.000000 0.002648 0.000000
# 3 -0.004247 -0.004247 0.010532 0.000000 0.000000 0.000000
# 4 0.000000 0.000000 0.000000 0.039150 0.000000 0.005296
# 5 -0.002648 0.002648 0.000000 0.000000 0.039150 0.000000
# 6 0.000000 0.000000 0.000000 0.005296 0.000000 0.066344
#
#
# Mechanical properties :
#
#
# Convention : Reuss Voigt Hill
#
# Bulk Modulus (GPa) = 49.98990 55.17795 52.58393
# Shear Modulus (GPa) = 20.39344 22.88067 21.63705
#
# Velocity S-wave (km/s) = 3.33216 3.52951 3.43225
# Velocity P-wave (km/s) = 6.48240 6.83020 6.65857
#
# Compressibility (1/GPa) = 0.02000404
#
# Stress axis : x y z
#
# Youngs Moduli (GPa) = 43.10158 43.10158 94.94588
#
# Poissons Ratio (x) = 0.42977 0.40324
# Poissons Ratio (y) = 0.42977 0.40324
# Poissons Ratio (z) = 0.18305 0.18305
#
# Static dielectric constant tensor:
#      x y z
#    x 3.185450 0.000000 0.000000 
#    y 0.000000 3.185450 0.000000 
#    z 0.000000 0.000000 3.666390 
# 
# 
# High freq. dielectric constant tensor:
#      x y z
#    x 1.678420 0.000000 0.000000 
#    y 0.000000 1.678420 0.000000 
#    z 0.000000 0.000000 1.734170 
# 
# From -- ./inp_files/3183.got.cif
#   From: 2010.03.12/outbox.cif.g09.slc.cpg/sg162_2_cif.got.tgz:3183.got - 2010.04.02 06:27:41.
