data_PCOD8323524
_publ_section_title
;
Structure prediction by ZEFSAII (Michael W. Deem and Ramdas Pophale) SiO2 
 PCOD8323524
Probable space group: P -3 M 1
;
_chemical_formula_sum "Si O2"
_cell_formula_units_Z 60
_cell_length_a 17.476693
_cell_length_b 17.476693
_cell_length_c 15.160665
_cell_angle_alpha 90.000000
_cell_angle_beta 90.000000
_cell_angle_gamma 120.000000
_cell_volume 4010.212606
_symmetry_space_group_name_H-M "P -3 M 1"
_symmetry_group_IT_number 164
_symmetry_cell_setting 'hexagonal'
loop_
_space_group_symop_operation_xyz
x,y,z
-y,x-y,z
-x+y,-x,z
x-y,-y,-z
-x,-x+y,-z
y,x,-z
-x,-y,-z
y,-x+y,-z
x-y,x,-z
-x+y,y,z
x,x-y,z
-y,-x,z
loop_
_atom_site_type_symbol
_atom_site_label
_atom_site_fract_x
_atom_site_fract_y
_atom_site_fract_z
Si Si1 0.666362 0.507787 0.512944
Si Si2 0.175622 0.175778 0.900020
Si Si3 0.666405 0.507123 0.308052
Si Si4 0.301737 0.239246 0.256758
Si Si5 0.062010 0.758502 0.420012
O O1 0.739921 0.479842 0.529674
O O2 0.572440 0.427561 0.543455
O O3 0.665405 0.531170 0.410424
O O4 0.685737 0.592962 0.569786
O O5 0.188028 0.094014 0.872542
O O6 0.235861 0.259057 0.837973
O O7 0.072426 0.144851 0.889822
O O8 0.206804 0.206804 0.000000
O O9 0.738296 0.476592 0.292626
O O10 0.571899 0.428102 0.276985
O O11 0.689761 0.593937 0.251206
O O12 0.288634 0.144317 0.284567
O O13 0.254080 0.267907 0.327883
O O14 0.144563 0.855438 0.422751
O O15 0.000000 0.752403 0.500000
#
# Coordination Sequence:
#
# PCOD8323524 Si02
#       5
#    12  12  12  12  12
#     4   9  17  28  43  62  85 113 146 183 219 250
#     4   9  17  30  49  70  88 107 136 178 224 263
#     4   9  16  27  43  64  88 114 144 178 215 252
#     4  10  19  31  45  63  87 114 143 175 213 256
#     4  11  20  30  42  58  84 118 148 174 206 247
#
# _framework density 14.961800999999999
#
# number of rings (size 3 to 8) (size 9 to 14) (size 15 to 20)
#    0.000    2.400    2.000    1.800    0.000    3.600 
#    0.000    0.000    0.000    5.400    0.000    0.000 
#    0.000    0.000    0.000    0.800    0.000    0.000 
#
# Total GULP energy -744040.476228 kJ/mol
# GULP energy per Si atom -12400.674604 kJ/mol
# Density = 1.492775 g / cm^3
# Si number density = 14.961801 Si / 1000 Ang^3
#
#
#
# Elastic Constant Matrix: (Units=GPa)
#
#
# Indices 1 2 3 4 5 6 
#
# 1 101.5420 57.9065 52.0653 4.3791 0.0000 0.0000
# 2 57.9065 101.5420 52.0653 -4.3791 0.0000 0.0000
# 3 52.0653 52.0653 81.4169 0.0000 0.0000 0.0000
# 4 4.3791 -4.3791 0.0000 20.5915 0.0000 0.0000
# 5 0.0000 0.0000 0.0000 0.0000 20.5915 4.3791
# 6 0.0000 0.0000 0.0000 0.0000 4.3791 21.8177
#
#
#
# Elastic Compliance Matrix: (Units=1/GPa)
#
#
# Indices 1 2 3 4 5 6 
#
# 1 0.017354 -0.006585 -0.006887 -0.005091 0.000000 0.000000
# 2 -0.006585 0.017354 -0.006887 0.005091 0.000000 0.000000
# 3 -0.006887 -0.006887 0.021090 0.000000 0.000000 0.000000
# 4 -0.005091 0.005091 0.000000 0.050729 0.000000 0.000000
# 5 0.000000 0.000000 0.000000 0.000000 0.050729 -0.010182
# 6 0.000000 0.000000 0.000000 0.000000 -0.010182 0.047878
#
#
# Mechanical properties :
#
#
# Convention : Reuss Voigt Hill
#
# Bulk Modulus (GPa) = 66.30537 67.61946 66.96242
# Shear Modulus (GPa) = 19.92996 20.76440 20.34718
#
# Velocity S-wave (km/s) = 3.65369 3.72940 3.69174
# Velocity P-wave (km/s) = 7.88746 7.98983 7.93881
#
# Compressibility (1/GPa) = 0.01508173
#
# Stress axis : x y z
#
# Youngs Moduli (GPa) = 57.62343 57.62343 47.41471
#
# Poissons Ratio (x) = 0.37945 0.32653
# Poissons Ratio (y) = 0.37945 0.32653
# Poissons Ratio (z) = 0.39684 0.39684
#
# Static dielectric constant tensor:
#      x y z
#    x 2.912940 0.000000 0.000000 
#    y 0.000000 2.912940 0.000000 
#    z 0.000000 0.000000 2.702280 
# 
# 
# High freq. dielectric constant tensor:
#      x y z
#    x 1.576250 0.000000 0.000000 
#    y 0.000000 1.576250 0.000000 
#    z 0.000000 0.000000 1.538620 
# 
# From -- ./inp_files/2692.got.cif
#   From: 2010.03.12/outbox.cif.g09.slc.cpg/sg164_2_cif.got.tgz:2692.got - 2010.04.02 06:32:59.
