data_PCOD8323329
_publ_section_title
;
Structure prediction by ZEFSAII (Michael W. Deem and Ramdas Pophale) SiO2 
 PCOD8323329
Probable space group: P -3 1 C
;
_chemical_formula_sum "Si O2"
_cell_formula_units_Z 58
_cell_length_a 16.077174
_cell_length_b 16.077174
_cell_length_c 13.297544
_cell_angle_alpha 90.000000
_cell_angle_beta 90.000000
_cell_angle_gamma 120.000000
_cell_volume 2976.606953
_symmetry_space_group_name_H-M "P -3 1 C"
_symmetry_group_IT_number 163
_symmetry_cell_setting 'hexagonal'
loop_
_space_group_symop_operation_xyz
x,y,z
-y,x-y,z
-x+y,-x,z
-y,-x,1/2-z
-x+y,y,1/2-z
x,x-y,1/2-z
-x,-y,-z
y,-x+y,-z
x-y,x,-z
y,x,1/2+z
x-y,-y,1/2+z
-x,-x+y,1/2+z
loop_
_atom_site_type_symbol
_atom_site_label
_atom_site_fract_x
_atom_site_fract_y
_atom_site_fract_z
Si Si1 0.840531 0.681062 0.750000
Si Si2 0.759929 0.539246 0.937751
Si Si3 0.356177 0.912621 0.925875
Si Si4 0.070183 0.618940 0.922870
Si Si5 0.666667 0.333334 0.634234
Si Si6 0.691007 0.747132 0.748234
O O1 0.807131 0.617712 0.850592
O O2 0.791729 0.747800 0.737759
O O3 0.744160 0.438598 0.899972
O O4 0.816469 0.556418 0.042759
O O5 0.662832 0.533767 0.974269
O O6 0.443653 0.901809 0.877489
O O7 0.317530 0.960403 0.846779
O O8 0.394029 0.962590 0.034695
O O9 0.081186 0.696114 0.840915
O O10 0.666668 0.333334 0.750000
O O11 0.714693 0.857347 0.750000
#
# Coordination Sequence:
#
# PCOD8323329 Si02
#       6
#     6  12  12  12   4  12
#     4  12  26  42  64  94 118 162 222 270 318 376
#     4  12  22  39  62  89 130 168 204 259 311 373
#     4  11  23  39  64  92 125 167 210 253 313 386
#     4  11  23  39  64  92 125 167 210 253 313 386
#     4  12  24  36  60 100 137 178 213 252 303 373
#     4  12  25  43  66  91 125 168 218 269 325 387
#
# _framework density 19.485272999999999
#
# number of rings (size 3 to 8) (size 9 to 14) (size 15 to 20)
#    0.000    0.414    9.310    0.621    0.000    0.000 
#    4.345    0.000    0.000    0.000    0.000    4.345 
#    0.000    0.000    0.000    0.000    0.000    0.000 
#
# Total GULP energy -718742.553104 kJ/mol
# GULP energy per Si atom -12392.112985 kJ/mol
# Density = 1.944092 g / cm^3
# Si number density = 19.485273 Si / 1000 Ang^3
#
#
#
# Elastic Constant Matrix: (Units=GPa)
#
#
# Indices 1 2 3 4 5 6 
#
# 1 114.0288 51.3868 30.5053 -0.0001 -0.6917 0.0000
# 2 51.3868 114.0285 30.5054 -0.0001 0.6917 -0.0001
# 3 30.5053 30.5054 72.1165 -0.0002 -0.0001 0.0001
# 4 -0.0001 -0.0001 -0.0002 29.9027 0.0000 0.6917
# 5 -0.6917 0.6917 -0.0001 0.0000 29.9027 -0.0001
# 6 0.0000 -0.0001 0.0001 0.6917 -0.0001 31.3209
#
#
#
# Elastic Compliance Matrix: (Units=1/GPa)
#
#
# Indices 1 2 3 4 5 6 
#
# 1 0.011567 -0.004405 -0.003030 0.000000 0.000369 0.000000
# 2 -0.004405 0.011567 -0.003030 0.000000 -0.000369 0.000000
# 3 -0.003030 -0.003030 0.016430 0.000000 0.000000 0.000000
# 4 0.000000 0.000000 0.000000 0.033459 0.000000 -0.000739
# 5 0.000369 -0.000369 0.000000 0.000000 0.033459 0.000000
# 6 0.000000 0.000000 0.000000 -0.000739 0.000000 0.031944
#
#
# Mechanical properties :
#
#
# Convention : Reuss Voigt Hill
#
# Bulk Modulus (GPa) = 53.65980 58.32987 55.99483
# Shear Modulus (GPa) = 30.19924 30.74366 30.47145
#
# Velocity S-wave (km/s) = 3.94108 3.97645 3.95881
# Velocity P-wave (km/s) = 6.95039 7.14725 7.04951
#
# Compressibility (1/GPa) = 0.01863592
#
# Stress axis : x y z
#
# Youngs Moduli (GPa) = 86.44980 86.44953 60.86512
#
# Poissons Ratio (x) = 0.38077 0.18442
# Poissons Ratio (y) = 0.38077 0.18442
# Poissons Ratio (z) = 0.26193 0.26194
#
# Static dielectric constant tensor:
#      x y z
#    x 3.536010 0.000000 0.000000 
#    y 0.000000 3.536020 0.000010 
#    z 0.000000 0.000010 3.463750 
# 
# 
# High freq. dielectric constant tensor:
#      x y z
#    x 1.758520 0.000000 0.000000 
#    y 0.000000 1.758520 0.000000 
#    z 0.000000 0.000000 1.764110 
# 
# From -- ./inp_files/2416.got.cif
#   From: 2010.03.12/outbox.cif.g09.slc.cpg/sg163_2_cif.got.tgz:2416.got - 2010.04.02 06:30:25.
