data_PCOD8323493
_publ_section_title
;
Structure prediction by ZEFSAII (Michael W. Deem and Ramdas Pophale) SiO2 
 PCOD8323493
Probable space group: P -3 M 1
;
_chemical_formula_sum "Si O2"
_cell_formula_units_Z 96
_cell_length_a 18.253398
_cell_length_b 18.253398
_cell_length_c 19.849576
_cell_angle_alpha 90.000000
_cell_angle_beta 90.000000
_cell_angle_gamma 120.000000
_cell_volume 5727.555586
_symmetry_space_group_name_H-M "P -3 M 1"
_symmetry_group_IT_number 164
_symmetry_cell_setting 'hexagonal'
loop_
_space_group_symop_operation_xyz
x,y,z
-y,x-y,z
-x+y,-x,z
x-y,-y,-z
-x,-x+y,-z
y,x,-z
-x,-y,-z
y,-x+y,-z
x-y,x,-z
-x+y,y,z
x,x-y,z
-y,-x,z
loop_
_atom_site_type_symbol
_atom_site_label
_atom_site_fract_x
_atom_site_fract_y
_atom_site_fract_z
Si Si1 0.747962 0.662683 0.822088
Si Si2 0.729379 0.100877 0.204420
Si Si3 0.630493 0.537427 0.606467
Si Si4 0.171293 0.503553 0.257920
Si Si5 0.668287 0.162025 0.081122
Si Si6 0.918466 0.371659 0.337324
Si Si7 0.831919 0.330930 0.472062
Si Si8 0.649385 0.742233 0.021704
O O1 0.847850 0.695700 0.805297
O O2 0.717599 0.729772 0.803714
O O3 0.686337 0.581623 0.778264
O O4 0.729466 0.634414 0.899123
O O5 0.827146 0.172855 0.202860
O O6 0.677340 0.111456 0.143727
O O7 0.686415 0.109932 0.271851
O O8 0.535958 0.464043 0.590972
O O9 0.675981 0.508278 0.661134
O O10 0.622513 0.612452 0.640762
O O11 0.680684 0.563579 0.535044
O O12 0.266089 0.532178 0.234546
O O13 0.147971 0.573986 0.236248
O O14 0.576416 0.152831 0.081257
O O15 0.739035 0.260966 0.084653
O O16 0.678711 0.118491 0.013749
O O17 0.914555 0.457278 0.323145
O O18 0.859344 0.316448 0.399003
O O19 0.848362 0.424181 0.476813
O O20 0.733645 0.266355 0.481950
O O21 0.678274 0.839137 0.000759
O O22 0.723395 0.723395 0.000000
#
# Coordination Sequence:
#
# PCOD8323493 Si02
#       8
#    12  12  12  12  12  12  12  12
#     4  10  21  36  53  75 103 131 162 203 255 304
#     4  11  21  35  55  77  99 129 171 210 251 302
#     4   9  17  29  46  65  90 126 165 206 247 290
#     4  10  19  31  48  71 100 133 169 205 243 289
#     4  10  21  35  52  76 106 139 174 210 248 288
#     4  10  19  32  48  70  98 130 168 210 253 292
#     4  10  19  30  44  64  93 129 169 210 250 290
#     4  10  20  36  55  78 102 132 169 208 253 303
#
# _framework density 16.761075999999999
#
# number of rings (size 3 to 8) (size 9 to 14) (size 15 to 20)
#    0.000    2.000    2.500    1.875    0.000    2.750 
#    0.000    1.250    0.000    5.875    0.000    0.000 
#    0.000    0.000    0.000    0.000    0.000    4.625 
#
# Total GULP energy -1189767.420845 kJ/mol
# GULP energy per Si atom -12393.410634 kJ/mol
# Density = 1.672293 g / cm^3
# Si number density = 16.761076 Si / 1000 Ang^3
#
#
#
# Elastic Constant Matrix: (Units=GPa)
#
#
# Indices 1 2 3 4 5 6 
#
# 1 88.0240 53.9785 36.0198 0.2375 0.0000 0.0000
# 2 53.9785 88.0240 36.0198 -0.2375 0.0000 0.0000
# 3 36.0198 36.0198 100.4678 0.0000 0.0000 0.0000
# 4 0.2375 -0.2375 0.0000 21.5681 0.0000 0.0000
# 5 0.0000 0.0000 0.0000 0.0000 21.5681 0.2375
# 6 0.0000 0.0000 0.0000 0.0000 0.2375 17.0227
#
#
#
# Elastic Compliance Matrix: (Units=1/GPa)
#
#
# Indices 1 2 3 4 5 6 
#
# 1 0.018992 -0.010385 -0.003086 -0.000323 0.000000 0.000000
# 2 -0.010385 0.018992 -0.003086 0.000323 0.000000 0.000000
# 3 -0.003086 -0.003086 0.012166 0.000000 0.000000 0.000000
# 4 -0.000323 0.000323 0.000000 0.046372 0.000000 0.000000
# 5 0.000000 0.000000 0.000000 0.000000 0.046372 -0.000647
# 6 0.000000 0.000000 0.000000 0.000000 -0.000647 0.058754
#
#
# Mechanical properties :
#
#
# Convention : Reuss Voigt Hill
#
# Bulk Modulus (GPa) = 58.69401 58.72800 58.71100
# Shear Modulus (GPa) = 20.79510 22.06497 21.43004
#
# Velocity S-wave (km/s) = 3.52615 3.63222 3.57957
# Velocity P-wave (km/s) = 7.18835 7.25982 7.22417
#
# Compressibility (1/GPa) = 0.01703751
#
# Stress axis : x y z
#
# Youngs Moduli (GPa) = 52.65277 52.65277 82.19443
#
# Poissons Ratio (x) = 0.54678 0.25366
# Poissons Ratio (y) = 0.54678 0.25366
# Poissons Ratio (z) = 0.16249 0.16249
#
# Static dielectric constant tensor:
#      x y z
#    x 3.044590 0.000000 0.000000 
#    y 0.000000 3.044590 0.000000 
#    z 0.000000 0.000000 3.505120 
# 
# 
# High freq. dielectric constant tensor:
#      x y z
#    x 1.625840 0.000000 0.000000 
#    y 0.000000 1.625840 0.000000 
#    z 0.000000 0.000000 1.666290 
# 
# From -- ./inp_files/4742.got.cif
#   From: 2010.03.12/outbox.cif.g09.slc.cpg/sg164_3_cif.got.tgz:4742.got - 2010.04.02 06:32:59.
