data_PCOD8323549
_publ_section_title
;
Structure prediction by ZEFSAII (Michael W. Deem and Ramdas Pophale) SiO2 
 PCOD8323549
Probable space group: P -3 M 1
;
_chemical_formula_sum "Si O2"
_cell_formula_units_Z 78
_cell_length_a 17.105219
_cell_length_b 17.105219
_cell_length_c 17.814078
_cell_angle_alpha 90.000000
_cell_angle_beta 90.000000
_cell_angle_gamma 120.000000
_cell_volume 4513.892989
_symmetry_space_group_name_H-M "P -3 M 1"
_symmetry_group_IT_number 164
_symmetry_cell_setting 'hexagonal'
loop_
_space_group_symop_operation_xyz
x,y,z
-y,x-y,z
-x+y,-x,z
x-y,-y,-z
-x,-x+y,-z
y,x,-z
-x,-y,-z
y,-x+y,-z
x-y,x,-z
-x+y,y,z
x,x-y,z
-y,-x,z
loop_
_atom_site_type_symbol
_atom_site_label
_atom_site_fract_x
_atom_site_fract_y
_atom_site_fract_z
Si Si1 0.334453 0.486990 0.947202
Si Si2 0.244921 0.931739 0.567447
Si Si3 0.764113 0.056455 0.843843
Si Si4 0.393047 0.432755 0.801768
Si Si5 0.303837 0.000000 0.000000
Si Si6 0.179081 0.179598 0.300672
Si Si7 0.333021 0.486485 0.654734
O O1 0.254670 0.509340 0.953020
O O2 0.426104 0.573897 0.975340
O O3 0.342801 0.462318 0.861857
O O4 0.314100 0.402691 0.999810
O O5 0.144092 0.855909 0.543736
O O6 0.305641 0.885840 0.583667
O O7 0.289870 0.000000 0.500000
O O8 0.241318 0.981968 0.642630
O O9 0.837213 0.162788 0.845475
O O10 0.755138 0.010467 0.925725
O O11 0.792301 0.004177 0.784743
O O12 0.667245 0.042912 0.818789
O O13 0.500772 0.499229 0.805084
O O14 0.353897 0.438316 0.722218
O O15 0.093798 0.187596 0.325934
O O16 0.152338 0.076169 0.305076
O O17 0.251245 0.502490 0.678015
O O18 0.418722 0.581279 0.632095
#
# Coordination Sequence:
#
# PCOD8323549 Si02
#       7
#    12  12  12  12   6  12  12
#     4  10  19  31  49  72 100 131 167 211 260 310
#     4  10  20  34  53  77 105 135 168 209 253 304
#     4  10  20  34  52  74  99 133 175 214 253 300
#     4   9  18  32  51  75 103 132 165 210 263 313
#     4  10  21  34  48  70 101 138 172 212 253 300
#     4  10  20  34  53  75 101 131 167 211 259 309
#     4  10  19  32  51  77 107 138 169 206 253 306
#
# _framework density 17.279986000000001
#
# number of rings (size 3 to 8) (size 9 to 14) (size 15 to 20)
#    0.000    2.154    1.538    2.077    0.000    4.000 
#    0.000    1.538    0.000    2.769    0.000    2.692 
#    0.000    0.000    0.000    0.000    0.000    0.000 
#
# Total GULP energy -967167.919270 kJ/mol
# GULP energy per Si atom -12399.588709 kJ/mol
# Density = 1.724066 g / cm^3
# Si number density = 17.279986 Si / 1000 Ang^3
#
#
#
# Elastic Constant Matrix: (Units=GPa)
#
#
# Indices 1 2 3 4 5 6 
#
# 1 93.7763 43.7815 32.7656 -0.8358 0.0000 0.0000
# 2 43.7815 93.7763 32.7656 0.8358 0.0000 0.0000
# 3 32.7656 32.7656 82.3207 0.0000 0.0000 0.0000
# 4 -0.8358 0.8358 0.0000 22.2016 0.0000 0.0000
# 5 0.0000 0.0000 0.0000 0.0000 22.2016 -0.8358
# 6 0.0000 0.0000 0.0000 0.0000 -0.8358 24.9974
#
#
#
# Elastic Compliance Matrix: (Units=1/GPa)
#
#
# Indices 1 2 3 4 5 6 
#
# 1 0.014499 -0.005528 -0.003571 0.000754 0.000000 0.000000
# 2 -0.005528 0.014499 -0.003571 -0.000754 0.000000 0.000000
# 3 -0.003571 -0.003571 0.014990 0.000000 0.000000 0.000000
# 4 0.000754 -0.000754 0.000000 0.045099 0.000000 0.000000
# 5 0.000000 0.000000 0.000000 0.000000 0.045099 0.001508
# 6 0.000000 0.000000 0.000000 0.000000 0.001508 0.040055
#
#
# Mechanical properties :
#
#
# Convention : Reuss Voigt Hill
#
# Bulk Modulus (GPa) = 53.62194 54.27765 53.94980
# Shear Modulus (GPa) = 24.29607 24.58417 24.44012
#
# Velocity S-wave (km/s) = 3.75377 3.77596 3.76488
# Velocity P-wave (km/s) = 7.06302 7.10559 7.08434
#
# Compressibility (1/GPa) = 0.01864908
#
# Stress axis : x y z
#
# Youngs Moduli (GPa) = 68.97051 68.97051 66.71147
#
# Poissons Ratio (x) = 0.38129 0.23820
# Poissons Ratio (y) = 0.38129 0.23820
# Poissons Ratio (z) = 0.24626 0.24626
#
# Static dielectric constant tensor:
#      x y z
#    x 3.219500 0.000000 0.000000 
#    y 0.000000 3.219500 0.000000 
#    z 0.000000 0.000000 3.185590 
# 
# 
# High freq. dielectric constant tensor:
#      x y z
#    x 1.664150 0.000000 0.000000 
#    y 0.000000 1.664150 0.000000 
#    z 0.000000 0.000000 1.661070 
# 
# From -- ./inp_files/4168.got.cif
#   From: 2010.03.12/outbox.cif.g09.slc.cpg/sg164_3_cif.got.tgz:4168.got - 2010.04.02 06:32:59.
