data_PCOD8323191
_publ_section_title
;
Structure prediction by ZEFSAII (Michael W. Deem and Ramdas Pophale) SiO2 
 PCOD8323191
Probable space group: P -3 1 C
;
_chemical_formula_sum "Si O2"
_cell_formula_units_Z 64
_cell_length_a 25.574466
_cell_length_b 25.574466
_cell_length_c 10.309361
_cell_angle_alpha 90.000000
_cell_angle_beta 90.000000
_cell_angle_gamma 120.000000
_cell_volume 5839.498185
_symmetry_space_group_name_H-M "P -3 1 C"
_symmetry_group_IT_number 163
_symmetry_cell_setting 'hexagonal'
loop_
_space_group_symop_operation_xyz
x,y,z
-y,x-y,z
-x+y,-x,z
-y,-x,1/2-z
-x+y,y,1/2-z
x,x-y,1/2-z
-x,-y,-z
y,-x+y,-z
x-y,x,-z
y,x,1/2+z
x-y,-y,1/2+z
-x,-x+y,1/2+z
loop_
_atom_site_type_symbol
_atom_site_label
_atom_site_fract_x
_atom_site_fract_y
_atom_site_fract_z
Si Si1 0.468375 0.734188 0.904588
Si Si2 0.410678 0.944509 0.750000
Si Si3 0.921501 0.399132 0.750000
Si Si4 0.507971 0.140231 0.015707
Si Si5 0.666667 0.333333 0.096113
Si Si6 0.492029 0.859769 0.515708
O O1 0.471415 0.735708 0.750000
O O2 0.498881 0.801526 0.960040
O O3 0.400552 0.700277 0.957994
O O4 0.498880 0.697355 0.960040
O O5 0.475743 0.951486 0.750000
O O6 0.375530 0.909159 0.621576
O O7 0.375530 0.909159 0.878424
O O8 0.418643 0.011455 0.750000
O O9 0.929042 0.464521 0.750000
O O10 0.884844 0.363347 0.623591
O O11 0.884844 0.363347 0.876409
O O12 0.577670 0.155339 0.026385
O O13 0.666668 0.333334 0.250000
#
# Coordination Sequence:
#
# PCOD8323191 Si02
#       6
#    12  12  12  12   4  12
#     4  11  18  27  39  55  67  84 115 135 156 196
#     4   9  16  27  42  54  64  83 109 133 158 190
#     4   9  18  29  38  52  70  83 103 135 166 192
#     4  10  18  27  40  54  68  87 107 131 162 194
#     4   9  18  24  39  49  62  91 111 136 152 190
#     4  10  18  27  40  54  68  87 107 131 162 194
#
# _framework density 10.959845
#
# number of rings (size 3 to 8) (size 9 to 14) (size 15 to 20)
#    0.000    2.250    3.750    1.125    0.000    5.250 
#    0.000    0.000    0.000    0.000    0.000    0.000 
#    0.000    0.000    0.000    0.000    0.000    0.000 
#
# Total GULP energy -793389.248921 kJ/mol
# GULP energy per Si atom -12396.707014 kJ/mol
# Density = 1.093490 g / cm^3
# Si number density = 10.959845 Si / 1000 Ang^3
#
#
#
# Elastic Constant Matrix: (Units=GPa)
#
#
# Indices 1 2 3 4 5 6 
#
# 1 58.9245 34.3936 36.1165 -0.0004 -0.0104 0.0000
# 2 34.3936 58.9245 36.1164 -0.0013 0.0094 0.0000
# 3 36.1165 36.1164 100.7796 -0.0006 -0.0003 0.0000
# 4 -0.0004 -0.0013 -0.0006 781.5514 -1.4378 0.0094
# 5 -0.0104 0.0094 -0.0003 -1.4378 778.3164 -0.0005
# 6 0.0000 0.0000 0.0000 0.0094 -0.0005 12.2654
#
#
#
# Elastic Compliance Matrix: (Units=1/GPa)
#
#
# Indices 1 2 3 4 5 6 
#
# 1 0.027797 -0.012968 -0.005315 0.000000 0.000001 0.000000
# 2 -0.012968 0.027797 -0.005315 0.000000 -0.000001 0.000000
# 3 -0.005315 -0.005315 0.013732 0.000000 0.000000 0.000000
# 4 0.000000 0.000000 0.000000 0.001280 0.000002 -0.000001
# 5 0.000001 -0.000001 0.000000 0.000002 0.001285 0.000000
# 6 0.000000 0.000000 0.000000 -0.000001 0.000000 0.081530
#
#
# Mechanical properties :
#
#
# Convention : Reuss Voigt Hill
#
# Bulk Modulus (GPa) = 45.18113 47.98683 46.58398
# Shear Modulus (GPa) = 24.03940 321.89346 172.96643
#
# Velocity S-wave (km/s) = 4.68846 17.15634 12.57620
# Velocity P-wave (km/s) = 8.40373 20.88858 15.92098
#
# Compressibility (1/GPa) = 0.02213314
#
# Stress axis : x y z
#
# Youngs Moduli (GPa) = 35.97466 35.97468 72.82361
#
# Poissons Ratio (x) = 0.46650 0.38703
# Poissons Ratio (y) = 0.46650 0.38702
# Poissons Ratio (z) = 0.19119 0.19119
#
# Static dielectric constant tensor:
#      x y z
#    x 2.204630 0.000000 0.000000 
#    y 0.000000 2.204640 0.000000 
#    z 0.000000 0.000000 2.468430 
# 
# 
# High freq. dielectric constant tensor:
#      x y z
#    x 1.381180 0.000000 0.000000 
#    y 0.000000 1.381180 0.000000 
#    z 0.000000 0.000000 1.426350 
# 
# From -- ./inp_files/1808.got.cif
#   From: 2010.03.12/outbox.cif.g09.slc.cpg/sg163_1_cif.got.tgz:1808.got - 2010.04.02 06:30:25.
