data_PCOD8323024
_publ_section_title
;
Structure prediction by ZEFSAII (Michael W. Deem and Ramdas Pophale) SiO2 
 PCOD8323024
Probable space group: P -3 1 M 
;
_chemical_formula_sum "Si O2"
_cell_formula_units_Z 84
_cell_length_a 19.541096
_cell_length_b 19.541096
_cell_length_c 13.579082
_cell_angle_alpha 90.000000
_cell_angle_beta 90.000000
_cell_angle_gamma 120.000000
_cell_volume 4490.543205
_symmetry_space_group_name_H-M "P -3 1 M "
_symmetry_group_IT_number 162
_symmetry_cell_setting 'hexagonal'
loop_
_space_group_symop_operation_xyz
x,y,z
-y,x-y,z
-x+y,-x,z
-y,-x,-z
-x+y,y,-z
x,x-y,-z
-x,-y,-z
y,-x+y,-z
x-y,x,-z
y,x,z
x-y,-y,z
-x,-x+y,z
loop_
_atom_site_type_symbol
_atom_site_label
_atom_site_fract_x
_atom_site_fract_y
_atom_site_fract_z
Si Si1 0.737585 0.909482 0.592235
Si Si2 0.805561 0.303949 0.652549
Si Si3 0.089353 0.418152 0.468284
Si Si4 0.319108 0.087175 0.967756
Si Si5 0.092092 0.684398 0.855353
Si Si6 0.637634 0.167252 0.699049
Si Si7 0.656722 0.807947 0.761787
O O1 0.774340 0.887170 0.500000
O O2 0.650665 0.893154 0.563369
O O3 0.727436 0.849807 0.681852
O O4 0.796182 0.000000 0.622266
O O5 0.843763 0.320320 0.544261
O O6 0.711031 0.247163 0.654586
O O7 0.825188 0.385687 0.702596
O O8 0.845168 0.264668 0.715297
O O9 0.096198 0.469576 0.372055
O O10 0.000000 0.380612 0.510742
O O11 0.327282 0.090705 0.850371
O O12 0.254407 0.000000 0.000753
O O13 0.284656 0.142328 0.000000
O O14 0.400762 0.109550 0.028024
O O15 0.145419 0.649252 0.811661
O O16 0.119336 0.765505 0.796931
O O17 0.000000 0.623475 0.836259
#
# Coordination Sequence:
#
# PCOD8323024 Si02
#       7
#    12  12  12  12  12  12  12
#     4  11  20  35  58  84 114 148 186 227 276 334
#     4  11  22  35  50  75 110 145 192 232 282 337
#     4  11  21  34  52  75 108 144 185 236 284 330
#     4   9  19  35  58  86 111 138 176 226 281 336
#     4   9  17  33  55  77 101 133 176 224 275 329
#     4  11  21  34  53  72 106 149 188 230 279 339
#     4  10  19  33  54  78 107 140 179 228 276 324
#
# _framework density 18.705977000000001
#
# number of rings (size 3 to 8) (size 9 to 14) (size 15 to 20)
#    0.000    1.714    4.286    2.000    0.000    3.429 
#    0.000    2.143    0.000    2.000    0.000    3.000 
#    0.000    0.000    0.000    0.000    0.000    0.000 
#
# Total GULP energy -1040995.421838 kJ/mol
# GULP energy per Si atom -12392.802641 kJ/mol
# Density = 1.866340 g / cm^3
# Si number density = 18.705977 Si / 1000 Ang^3
#
#
#
# Elastic Constant Matrix: (Units=GPa)
#
#
# Indices 1 2 3 4 5 6 
#
# 1 70.6367 48.1962 40.8968 0.0000 -3.8621 0.0000
# 2 48.1962 70.6367 40.8968 0.0000 3.8621 0.0000
# 3 40.8968 40.8968 125.7635 0.0000 0.0000 0.0000
# 4 0.0000 0.0000 0.0000 14.8204 0.0000 3.8621
# 5 -3.8621 3.8621 0.0000 0.0000 14.8204 0.0000
# 6 0.0000 0.0000 0.0000 3.8621 0.0000 11.2202
#
#
#
# Elastic Compliance Matrix: (Units=1/GPa)
#
#
# Indices 1 2 3 4 5 6 
#
# 1 0.029898 -0.019056 -0.003526 0.000000 0.012757 0.000000
# 2 -0.019056 0.029898 -0.003526 0.000000 -0.012757 0.000000
# 3 -0.003526 -0.003526 0.010244 0.000000 0.000000 0.000000
# 4 0.000000 0.000000 0.000000 0.074124 0.000000 -0.025514
# 5 0.012757 -0.012757 0.000000 0.000000 0.074124 0.000000
# 6 0.000000 0.000000 0.000000 -0.025514 0.000000 0.097907
#
#
# Mechanical properties :
#
#
# Convention : Reuss Voigt Hill
#
# Bulk Modulus (GPa) = 56.09897 58.55735 57.32816
# Shear Modulus (GPa) = 13.35650 17.30867 15.33259
#
# Velocity S-wave (km/s) = 2.67502 3.04518 2.86608
# Velocity P-wave (km/s) = 6.29253 6.61333 6.45493
#
# Compressibility (1/GPa) = 0.01782564
#
# Stress axis : x y z
#
# Youngs Moduli (GPa) = 33.44745 33.44745 97.61398
#
# Poissons Ratio (x) = 0.63737 0.34415
# Poissons Ratio (y) = 0.63737 0.34415
# Poissons Ratio (z) = 0.11792 0.11792
#
# Static dielectric constant tensor:
#      x y z
#    x 3.284900 0.000000 0.000000 
#    y 0.000000 3.284900 0.000000 
#    z 0.000000 0.000000 3.838010 
# 
# 
# High freq. dielectric constant tensor:
#      x y z
#    x 1.707700 0.000000 0.000000 
#    y 0.000000 1.707700 0.000000 
#    z 0.000000 0.000000 1.730030 
# 
# From -- ./inp_files/3175.got.cif
#   From: 2010.03.12/outbox.cif.g09.slc.cpg/sg162_2_cif.got.tgz:3175.got - 2010.04.02 06:27:41.
