data_PCOD8323970
_publ_section_title
;
Structure prediction by ZEFSAII (Michael W. Deem and Ramdas Pophale) SiO2 
 PCOD8323970
Probable space group: P -3 C 1
;
_chemical_formula_sum "Si O2"
_cell_formula_units_Z 72
_cell_length_a 13.960945
_cell_length_b 13.960945
_cell_length_c 18.090416
_cell_angle_alpha 90.000000
_cell_angle_beta 90.000000
_cell_angle_gamma 120.000000
_cell_volume 3053.576593
_symmetry_space_group_name_H-M "P -3 C 1"
_symmetry_group_IT_number 165
_symmetry_cell_setting 'hexagonal'
loop_
_space_group_symop_operation_xyz
x,y,z
-y,x-y,z
-x+y,-x,z
x-y,-y,1/2-z
-x,-x+y,1/2-z
y,x,1/2-z
-x,-y,-z
y,-x+y,-z
x-y,x,-z
-x+y,y,1/2+z
x,x-y,1/2+z
-y,-x,1/2+z
loop_
_atom_site_type_symbol
_atom_site_label
_atom_site_fract_x
_atom_site_fract_y
_atom_site_fract_z
Si Si1 0.573529 0.810452 0.899616
Si Si2 0.527887 0.087739 0.305081
Si Si3 0.561043 0.486091 0.568895
Si Si4 0.915451 0.105515 0.302323
Si Si5 0.851034 0.040587 0.548347
Si Si6 0.775057 0.573224 0.771459
O O1 0.473380 0.832383 0.916524
O O2 0.551397 0.694710 0.935376
O O3 0.682389 0.914999 0.934458
O O4 0.592773 0.815887 0.812468
O O5 0.645301 0.151893 0.265208
O O6 0.485815 0.173777 0.322719
O O7 0.436632 0.000000 0.250000
O O8 0.540964 0.022122 0.371795
O O9 0.500000 0.500000 0.500000
O O10 0.807207 0.118158 0.312297
O O11 0.000000 0.207596 0.250000
O O12 0.974447 0.111840 0.380997
O O13 0.887647 0.000000 0.250000
O O14 0.966910 0.149354 0.526397
#
# Coordination Sequence:
#
# PCOD8323970 Si02
#       6
#    12  12  12  12  12  12
#     4  12  24  48  76 106 145 192 245 298 373 437
#     4  12  24  45  74 109 146 186 250 301 360 435
#     4  12  28  47  76 111 150 194 242 305 372 446
#     4  12  25  44  71 100 137 186 244 289 351 423
#     4  12  27  46  69 102 147 190 238 296 363 428
#     4  12  24  44  77 109 141 192 242 305 360 429
#
# _framework density 23.578906
#
# number of rings (size 3 to 8) (size 9 to 14) (size 15 to 20)
#    0.000    0.000    5.000    5.000    0.000    2.667 
#    0.000    0.000    0.000    0.000    0.000    0.000 
#    0.000    0.000    0.000    0.000    0.000    0.000 
#
# Total GULP energy -892220.055043 kJ/mol
# GULP energy per Si atom -12391.945209 kJ/mol
# Density = 2.352524 g / cm^3
# Si number density = 23.578906 Si / 1000 Ang^3
#
#
#
# Elastic Constant Matrix: (Units=GPa)
#
#
# Indices 1 2 3 4 5 6 
#
# 1 111.0112 52.8665 39.6153 -2.9685 0.0000 0.0000
# 2 52.8665 111.0112 39.6153 2.9685 0.0000 0.0000
# 3 39.6153 39.6153 103.9977 0.0000 0.0000 0.0000
# 4 -2.9685 2.9685 0.0000 30.3709 0.0000 0.0000
# 5 0.0000 0.0000 0.0000 0.0000 30.3709 -2.9685
# 6 0.0000 0.0000 0.0000 0.0000 -2.9685 29.0723
#
#
#
# Elastic Compliance Matrix: (Units=1/GPa)
#
#
# Indices 1 2 3 4 5 6 
#
# 1 0.012426 -0.004946 -0.002849 0.001698 0.000000 0.000000
# 2 -0.004946 0.012426 -0.002849 -0.001698 0.000000 0.000000
# 3 -0.002849 -0.002849 0.011786 0.000000 0.000000 0.000000
# 4 0.001698 -0.001698 0.000000 0.033258 0.000000 0.000000
# 5 0.000000 0.000000 0.000000 0.000000 0.033258 0.003396
# 6 0.000000 0.000000 0.000000 0.000000 0.003396 0.034744
#
#
# Mechanical properties :
#
#
# Convention : Reuss Voigt Hill
#
# Bulk Modulus (GPa) = 65.15176 65.57937 65.36557
# Shear Modulus (GPa) = 30.43159 30.89103 30.66131
#
# Velocity S-wave (km/s) = 3.59643 3.62347 3.60998
# Velocity P-wave (km/s) = 6.70351 6.73641 6.71998
#
# Compressibility (1/GPa) = 0.01534878
#
# Stress axis : x y z
#
# Youngs Moduli (GPa) = 80.47814 80.47814 84.84468
#
# Poissons Ratio (x) = 0.39805 0.24174
# Poissons Ratio (y) = 0.39805 0.24174
# Poissons Ratio (z) = 0.22930 0.22930
#
# Static dielectric constant tensor:
#      x y z
#    x 4.325880 0.000000 0.000000 
#    y 0.000000 4.325880 0.000000 
#    z 0.000000 0.000000 4.163510 
# 
# 
# High freq. dielectric constant tensor:
#      x y z
#    x 1.943210 0.000000 0.000000 
#    y 0.000000 1.943210 0.000000 
#    z 0.000000 0.000000 1.925780 
# 
# From -- ./inp_files/2263.got.cif
#   From: 2010.03.12/outbox.cif.g09.slc.cpg/sg165_2_cif.got.tgz:2263.got - 2010.04.02 06:36:38.
