data_PCOD8323427
_publ_section_title
;
Structure prediction by ZEFSAII (Michael W. Deem and Ramdas Pophale) SiO2 
 PCOD8323427
Probable space group: P -3 M 1
;
_chemical_formula_sum "Si O2"
_cell_formula_units_Z 66
_cell_length_a 17.063616
_cell_length_b 17.063616
_cell_length_c 18.058860
_cell_angle_alpha 90.000000
_cell_angle_beta 90.000000
_cell_angle_gamma 120.000000
_cell_volume 4553.686218
_symmetry_space_group_name_H-M "P -3 M 1"
_symmetry_group_IT_number 164
_symmetry_cell_setting 'hexagonal'
loop_
_space_group_symop_operation_xyz
x,y,z
-y,x-y,z
-x+y,-x,z
x-y,-y,-z
-x,-x+y,-z
y,x,-z
-x,-y,-z
y,-x+y,-z
x-y,x,-z
-x+y,y,z
x,x-y,z
-y,-x,z
loop_
_atom_site_type_symbol
_atom_site_label
_atom_site_fract_x
_atom_site_fract_y
_atom_site_fract_z
Si Si1 0.298926 0.057422 0.926338
Si Si2 0.487219 0.153516 0.686217
Si Si3 0.707784 0.760960 0.355128
Si Si4 0.813914 0.813914 0.500000
Si Si5 0.333693 0.844628 0.140154
Si Si6 0.814941 0.999061 0.786108
O O1 0.287974 0.143987 0.939490
O O2 0.401093 0.086234 0.905326
O O3 0.233409 0.996157 0.860779
O O4 0.273178 0.000000 0.000000
O O5 0.571397 0.142793 0.659959
O O6 0.509074 0.254537 0.666070
O O7 0.396884 0.077457 0.644835
O O8 0.468850 0.135886 0.773239
O O9 0.708181 0.854091 0.349903
O O10 0.757633 0.756675 0.428983
O O11 0.760565 0.753401 0.284010
O O12 0.912954 0.825908 0.498294
O O13 0.429719 0.859438 0.113872
O O14 0.258241 0.741760 0.122733
O O15 0.832204 0.916102 0.784668
O O16 0.910999 0.089002 0.781888
#
# Coordination Sequence:
#
# PCOD8323427 Si02
#       6
#    12  12  12   6  12  12
#     4  10  19  30  42  59  84 113 143 176 214 252
#     4   9  15  26  44  66  88 111 137 169 210 258
#     4   9  17  29  43  62  87 112 139 174 215 249
#     4  10  19  30  45  64  88 118 150 182 213 248
#     4   9  16  27  44  64  85 108 136 171 212 258
#     4  10  18  29  43  59  80 110 147 182 213 249
#
# _framework density 14.493752000000001
#
# number of rings (size 3 to 8) (size 9 to 14) (size 15 to 20)
#    0.000    2.545    1.818    1.727    0.000    1.818 
#    0.000    2.273    0.000    2.909    0.000    0.000 
#    0.000    0.000    0.000    8.000    0.000    0.000 
#
# Total GULP energy -818311.200548 kJ/mol
# GULP energy per Si atom -12398.654554 kJ/mol
# Density = 1.446076 g / cm^3
# Si number density = 14.493752 Si / 1000 Ang^3
#
#
#
# Elastic Constant Matrix: (Units=GPa)
#
#
# Indices 1 2 3 4 5 6 
#
# 1 72.1455 32.5620 48.8318 3.7445 0.0000 0.0000
# 2 32.5620 72.1455 48.8318 -3.7445 0.0000 0.0000
# 3 48.8318 48.8318 94.7581 0.0000 0.0000 0.0000
# 4 3.7445 -3.7445 0.0000 19.8336 0.0000 0.0000
# 5 0.0000 0.0000 0.0000 0.0000 19.8336 3.7445
# 6 0.0000 0.0000 0.0000 0.0000 3.7445 19.7918
#
#
#
# Elastic Compliance Matrix: (Units=1/GPa)
#
#
# Indices 1 2 3 4 5 6 
#
# 1 0.022294 -0.003905 -0.009477 -0.004946 0.000000 0.000000
# 2 -0.003905 0.022294 -0.009477 0.004946 0.000000 0.000000
# 3 -0.009477 -0.009477 0.020321 0.000000 0.000000 0.000000
# 4 -0.004946 0.004946 0.000000 0.052287 0.000000 0.000000
# 5 0.000000 0.000000 0.000000 0.000000 0.052287 -0.009892
# 6 0.000000 0.000000 0.000000 0.000000 -0.009892 0.052398
#
#
# Mechanical properties :
#
#
# Convention : Reuss Voigt Hill
#
# Bulk Modulus (GPa) = 52.10289 55.50003 53.80146
# Shear Modulus (GPa) = 18.24850 19.14667 18.69758
#
# Velocity S-wave (km/s) = 3.55217 3.63854 3.59562
# Velocity P-wave (km/s) = 7.26983 7.48515 7.37828
#
# Compressibility (1/GPa) = 0.01919279
#
# Stress axis : x y z
#
# Youngs Moduli (GPa) = 44.85459 44.85459 49.21123
#
# Poissons Ratio (x) = 0.17514 0.46636
# Poissons Ratio (y) = 0.17514 0.46636
# Poissons Ratio (z) = 0.42508 0.42508
#
# Static dielectric constant tensor:
#      x y z
#    x 2.763350 0.000000 0.000000 
#    y 0.000000 2.763350 0.000000 
#    z 0.000000 0.000000 2.827390 
# 
# 
# High freq. dielectric constant tensor:
#      x y z
#    x 1.543780 0.000000 0.000000 
#    y 0.000000 1.543780 0.000000 
#    z 0.000000 0.000000 1.546030 
# 
# From -- ./inp_files/3472.got.cif
#   From: 2010.03.12/outbox.cif.g09.slc.cpg/sg164_2_cif.got.tgz:3472.got - 2010.04.02 06:32:59.
