data_PCOD8323760
_publ_section_title
;
Structure prediction by ZEFSAII (Michael W. Deem and Ramdas Pophale) SiO2 
 PCOD8323760
Probable space group: P -3 M 1
;
_chemical_formula_sum "Si O2"
_cell_formula_units_Z 72
_cell_length_a 12.365609
_cell_length_b 12.365609
_cell_length_c 30.936057
_cell_angle_alpha 90.000000
_cell_angle_beta 90.000000
_cell_angle_gamma 120.000000
_cell_volume 4096.628773
_symmetry_space_group_name_H-M "P -3 M 1"
_symmetry_group_IT_number 164
_symmetry_cell_setting 'hexagonal'
loop_
_space_group_symop_operation_xyz
x,y,z
-y,x-y,z
-x+y,-x,z
x-y,-y,-z
-x,-x+y,-z
y,x,-z
-x,-y,-z
y,-x+y,-z
x-y,x,-z
-x+y,y,z
x,x-y,z
-y,-x,z
loop_
_atom_site_type_symbol
_atom_site_label
_atom_site_fract_x
_atom_site_fract_y
_atom_site_fract_z
Si Si1 0.668552 0.587088 0.915555
Si Si2 0.252473 0.998663 0.167799
Si Si3 0.667157 0.587434 0.417539
Si Si4 0.918677 0.332005 0.748746
Si Si5 0.254305 0.000000 0.500000
Si Si6 0.746702 0.000024 0.665476
Si Si7 0.746938 0.746938 0.000000
O O1 0.773387 0.546773 0.912729
O O2 0.535025 0.464976 0.913352
O O3 0.682100 0.677118 0.876310
O O4 0.679563 0.660080 0.959296
O O5 0.260523 0.130262 0.172187
O O6 0.327613 0.982319 0.206853
O O7 0.107773 0.892228 0.168746
O O8 0.779540 0.559079 0.419624
O O9 0.541065 0.458936 0.419705
O O10 0.671126 0.671019 0.457718
O O11 0.669420 0.656497 0.373567
O O12 0.927547 0.463774 0.744460
O O13 0.774214 0.225787 0.747476
O O14 0.994986 0.316832 0.709814
O O15 0.118588 0.881413 0.498312
O O16 0.877558 0.122443 0.657532
O O17 0.771907 0.885954 0.667589
O O18 0.882294 0.764588 0.008501
#
# Coordination Sequence:
#
# PCOD8323760 Si02
#       7
#    12  12  12  12   6  12   6
#     4  10  20  34  53  76 103 135 170 208 250 299
#     4  10  20  34  54  78 104 134 168 210 256 302
#     4  10  20  34  52  74 102 136 172 209 250 299
#     4  10  20  34  53  76 103 135 170 209 252 300
#     4  10  20  34  54  78 104 134 168 210 256 302
#     4  10  20  34  54  78 104 134 168 210 256 302
#     4  10  20  34  54  78 104 134 168 210 256 302
#
# _framework density 17.575427000000001
#
# number of rings (size 3 to 8) (size 9 to 14) (size 15 to 20)
#    0.000    2.000    0.000    4.000    0.000    0.000 
#    0.000    6.667    0.000   16.000    0.000    0.000 
#    0.000    0.000    0.000    0.000    0.000    0.000 
#
# Total GULP energy -893105.352130 kJ/mol
# GULP energy per Si atom -12404.241002 kJ/mol
# Density = 1.753542 g / cm^3
# Si number density = 17.575427 Si / 1000 Ang^3
#
#
#
# Elastic Constant Matrix: (Units=GPa)
#
#
# Indices 1 2 3 4 5 6 
#
# 1 91.3516 -4.3743 11.8810 42.4299 0.0000 0.0000
# 2 -4.3743 91.3516 11.8810 -42.4299 0.0000 0.0000
# 3 11.8810 11.8810 85.2101 0.0000 0.0000 0.0000
# 4 42.4299 -42.4299 0.0000 70.6799 0.0000 0.0000
# 5 0.0000 0.0000 0.0000 0.0000 70.6799 42.4299
# 6 0.0000 0.0000 0.0000 0.0000 42.4299 47.8629
#
#
#
# Elastic Compliance Matrix: (Units=1/GPa)
#
#
# Indices 1 2 3 4 5 6 
#
# 1 0.017141 -0.005188 -0.001667 -0.013405 0.000000 0.000000
# 2 -0.005188 0.017141 -0.001667 0.013405 0.000000 0.000000
# 3 -0.001667 -0.001667 0.012200 0.000000 0.000000 0.000000
# 4 -0.013405 0.013405 0.000000 0.030242 0.000000 0.000000
# 5 0.000000 0.000000 0.000000 0.000000 0.030242 -0.026809
# 6 0.000000 0.000000 0.000000 0.000000 -0.026809 0.044659
#
#
# Mechanical properties :
#
#
# Convention : Reuss Voigt Hill
#
# Bulk Modulus (GPa) = 33.96821 34.07652 34.02237
# Shear Modulus (GPa) = 28.01397 54.41292 41.21345
#
# Velocity S-wave (km/s) = 3.99673 5.57018 4.84772
# Velocity P-wave (km/s) = 6.37711 7.79743 7.12276
#
# Compressibility (1/GPa) = 0.02943929
#
# Stress axis : x y z
#
# Youngs Moduli (GPa) = 58.33949 58.33949 81.96425
#
# Poissons Ratio (x) = 0.30269 0.13660
# Poissons Ratio (y) = 0.30269 0.13660
# Poissons Ratio (z) = 0.09723 0.09723
#
# Static dielectric constant tensor:
#      x y z
#    x 3.366390 0.000000 0.000000 
#    y 0.000000 3.366390 0.000000 
#    z 0.000000 0.000000 3.478230 
# 
# 
# High freq. dielectric constant tensor:
#      x y z
#    x 1.681330 0.000000 0.000000 
#    y 0.000000 1.681330 0.000000 
#    z 0.000000 0.000000 1.702150 
# 
# From -- ./inp_files/5554.got.cif
#   From: 2010.03.12/outbox.cif.g09.slc.cpg/sg164_3_cif.got.tgz:5554.got - 2010.04.02 06:32:59.
