data_PCOD8323304
_publ_section_title
;
Structure prediction by ZEFSAII (Michael W. Deem and Ramdas Pophale) SiO2 
 PCOD8323304
Probable space group: P -3 1 C
;
_chemical_formula_sum "Si O2"
_cell_formula_units_Z 52
_cell_length_a 11.877341
_cell_length_b 11.877341
_cell_length_c 19.220438
_cell_angle_alpha 90.000000
_cell_angle_beta 90.000000
_cell_angle_gamma 120.000000
_cell_volume 2348.185287
_symmetry_space_group_name_H-M "P -3 1 C"
_symmetry_group_IT_number 163
_symmetry_cell_setting 'hexagonal'
loop_
_space_group_symop_operation_xyz
x,y,z
-y,x-y,z
-x+y,-x,z
-y,-x,1/2-z
-x+y,y,1/2-z
x,x-y,1/2-z
-x,-y,-z
y,-x+y,-z
x-y,x,-z
y,x,1/2+z
x-y,-y,1/2+z
-x,-x+y,1/2+z
loop_
_atom_site_type_symbol
_atom_site_label
_atom_site_fract_x
_atom_site_fract_y
_atom_site_fract_z
Si Si1 0.000000 0.000000 0.917011
Si Si2 0.608049 0.960972 0.009786
Si Si3 0.853720 0.155237 0.399394
Si Si4 0.855912 0.144089 0.250000
Si Si5 0.223628 0.719790 0.129651
Si Si6 0.847484 0.694968 0.750000
O O1 0.088410 0.942333 0.889363
O O2 0.000000 0.000000 0.000000
O O3 0.556945 0.827132 0.053469
O O4 0.721643 0.077557 0.051642
O O5 0.659799 0.944147 0.934826
O O6 0.500000 0.000000 0.000000
O O7 0.835991 0.203452 0.322254
O O8 0.005814 0.210918 0.227339
O O9 0.188205 0.568228 0.137611
O O10 0.152624 0.758687 0.187095
#
# Coordination Sequence:
#
# PCOD8323304 Si02
#       6
#     4  12  12   6  12   6
#     4  12  21  40  77 106 150 163 233 295 369 415
#     4  12  25  45  71 101 143 187 251 297 355 427
#     4  12  25  45  67 111 140 191 225 301 368 425
#     4  12  27  40  70 102 154 181 226 286 380 442
#     4  10  24  44  72 105 134 187 247 308 350 413
#     4  12  23  46  66 108 148 185 228 296 372 446
#
# _framework density 22.144759000000001
#
# number of rings (size 3 to 8) (size 9 to 14) (size 15 to 20)
#    0.462    0.000    4.615    3.692    6.462    0.000 
#    1.385    1.154    0.000    0.000    0.000    0.000 
#    0.000    0.000    0.000    0.000    0.000    0.000 
#
# Total GULP energy -644560.016857 kJ/mol
# GULP energy per Si atom -12395.384940 kJ/mol
# Density = 2.209436 g / cm^3
# Si number density = 22.144759 Si / 1000 Ang^3
#
#
#
# Elastic Constant Matrix: (Units=GPa)
#
#
# Indices 1 2 3 4 5 6 
#
# 1 97.5048 32.1468 40.1559 0.0000 0.7589 0.0000
# 2 32.1468 97.5048 40.1559 0.0000 -0.7589 0.0000
# 3 40.1559 40.1559 183.6985 0.0000 0.0000 0.0000
# 4 0.0000 0.0000 0.0000 22.1123 0.0000 -0.7589
# 5 0.7589 -0.7589 0.0000 0.0000 22.1123 0.0000
# 6 0.0000 0.0000 0.0000 -0.7589 0.0000 32.6790
#
#
#
# Elastic Compliance Matrix: (Units=1/GPa)
#
#
# Indices 1 2 3 4 5 6 
#
# 1 0.012117 -0.003196 -0.001950 0.000000 -0.000526 0.000000
# 2 -0.003196 0.012117 -0.001950 0.000000 0.000526 0.000000
# 3 -0.001950 -0.001950 0.006296 0.000000 0.000000 0.000000
# 4 0.000000 0.000000 0.000000 0.045260 0.000000 0.001051
# 5 -0.000526 0.000526 0.000000 0.000000 0.045260 0.000000
# 6 0.000000 0.000000 0.000000 0.001051 0.000000 0.030625
#
#
# Mechanical properties :
#
#
# Convention : Reuss Voigt Hill
#
# Bulk Modulus (GPa) = 61.20772 67.06947 64.13860
# Shear Modulus (GPa) = 29.18644 33.13067 31.15856
#
# Velocity S-wave (km/s) = 3.63434 3.87214 3.75512
# Velocity P-wave (km/s) = 6.73135 7.09534 6.91574
#
# Compressibility (1/GPa) = 0.01633781
#
# Stress axis : x y z
#
# Youngs Moduli (GPa) = 82.53033 82.53033 158.82415
#
# Poissons Ratio (x) = 0.26375 0.30972
# Poissons Ratio (y) = 0.26375 0.30972
# Poissons Ratio (z) = 0.16094 0.16094
#
# Static dielectric constant tensor:
#      x y z
#    x 3.932170 0.000000 0.000000 
#    y 0.000000 3.932170 0.000000 
#    z 0.000000 0.000000 4.314630 
# 
# 
# High freq. dielectric constant tensor:
#      x y z
#    x 1.859500 0.000000 0.000000 
#    y 0.000000 1.859500 0.000000 
#    z 0.000000 0.000000 1.892430 
# 
# From -- ./inp_files/3528.got.cif
#   From: 2010.03.12/outbox.cif.g09.slc.cpg/sg163_2_cif.got.tgz:3528.got - 2010.04.02 06:30:25.
