data_PCOD8323956
_publ_section_title
;
Structure prediction by ZEFSAII (Michael W. Deem and Ramdas Pophale) SiO2 
 PCOD8323956
Probable space group: P -3 C 1
;
_chemical_formula_sum "Si O2"
_cell_formula_units_Z 68
_cell_length_a 13.636076
_cell_length_b 13.636076
_cell_length_c 22.474292
_cell_angle_alpha 90.000000
_cell_angle_beta 90.000000
_cell_angle_gamma 120.000000
_cell_volume 3619.057448
_symmetry_space_group_name_H-M "P -3 C 1"
_symmetry_group_IT_number 165
_symmetry_cell_setting 'hexagonal'
loop_
_space_group_symop_operation_xyz
x,y,z
-y,x-y,z
-x+y,-x,z
x-y,-y,1/2-z
-x,-x+y,1/2-z
y,x,1/2-z
-x,-y,-z
y,-x+y,-z
x-y,x,-z
-x+y,y,1/2+z
x,x-y,1/2+z
-y,-x,1/2+z
loop_
_atom_site_type_symbol
_atom_site_label
_atom_site_fract_x
_atom_site_fract_y
_atom_site_fract_z
Si Si1 0.666667 0.333335 0.929784
Si Si2 0.802235 0.221868 0.613135
Si Si3 0.622189 0.607361 0.181675
Si Si4 0.985173 0.377811 0.818325
Si Si5 0.221867 0.419629 0.613137
Si Si6 0.852164 0.732671 0.000000
Si Si7 0.666667 0.333334 0.070210
O O1 0.765332 0.453683 0.906811
O O2 0.666668 0.333334 0.999997
O O3 0.925498 0.288566 0.642140
O O4 0.804108 0.150618 0.557326
O O5 0.765332 0.311651 0.593184
O O6 0.715380 0.139862 0.662375
O O7 0.644392 0.644392 0.250000
O O8 0.499999 0.500002 0.171566
O O9 0.636939 0.711436 0.142139
O O10 0.000000 0.355609 0.750000
O O11 0.860142 0.284614 0.837624
O O12 0.150618 0.346511 0.557325
O O13 0.804930 0.818282 0.000000
#
# Coordination Sequence:
#
# PCOD8323956 Si02
#       7
#     4  12  12  12  12  12   4
#     4  12  24  36  61 101 133 156 204 256 314 391
#     4  12  23  41  64  92 128 167 207 259 318 378
#     4  11  24  41  63  91 128 171 214 259 313 381
#     4  11  24  41  63  91 128 171 214 259 313 381
#     4  12  23  41  64  92 128 167 207 259 318 378
#     4  12  25  42  68  90 122 167 210 268 318 374
#     4  12  24  36  61 101 133 156 204 256 314 391
#
# _framework density 18.789421000000001
#
# number of rings (size 3 to 8) (size 9 to 14) (size 15 to 20)
#    0.000    0.353    8.824    1.235    0.000    0.000 
#    0.000    5.294    0.000    0.000    0.000    4.941 
#    0.000    0.000    0.000    0.000    0.000    0.000 
#
# Total GULP energy -843702.684349 kJ/mol
# GULP energy per Si atom -12407.392417 kJ/mol
# Density = 1.874666 g / cm^3
# Si number density = 18.789421 Si / 1000 Ang^3
#
#
#
# Elastic Constant Matrix: (Units=GPa)
#
#
# Indices 1 2 3 4 5 6 
#
# 1 76.2877 3.5262 25.8575 0.0002 0.0000 0.0000
# 2 3.5262 76.2876 25.8571 -0.0002 0.0000 0.0000
# 3 25.8575 25.8571 117.4253 0.0000 0.0000 0.0000
# 4 0.0002 -0.0002 0.0000 31.7635 0.0000 0.0000
# 5 0.0000 0.0000 0.0000 0.0000 31.7633 0.0003
# 6 0.0000 0.0000 0.0000 0.0000 0.0003 36.3797
#
#
#
# Elastic Compliance Matrix: (Units=1/GPa)
#
#
# Indices 1 2 3 4 5 6 
#
# 1 0.014179 0.000435 -0.003218 0.000000 0.000000 0.000000
# 2 0.000435 0.014179 -0.003218 0.000000 0.000000 0.000000
# 3 -0.003218 -0.003218 0.009933 0.000000 0.000000 0.000000
# 4 0.000000 0.000000 0.000000 0.031483 0.000000 0.000000
# 5 0.000000 0.000000 0.000000 0.000000 0.031483 0.000000
# 6 0.000000 0.000000 0.000000 0.000000 0.000000 0.027488
#
#
# Mechanical properties :
#
#
# Convention : Reuss Voigt Hill
#
# Bulk Modulus (GPa) = 38.03800 42.27579 40.15690
# Shear Modulus (GPa) = 33.44274 34.29864 33.87069
#
# Velocity S-wave (km/s) = 4.22343 4.27713 4.25036
# Velocity P-wave (km/s) = 6.63863 6.85131 6.74581
#
# Compressibility (1/GPa) = 0.02628950
#
# Stress axis : x y z
#
# Youngs Moduli (GPa) = 70.52722 70.52735 100.67135
#
# Poissons Ratio (x) = -0.03070 0.32397
# Poissons Ratio (y) = -0.03070 0.32397
# Poissons Ratio (z) = 0.22696 0.22696
#
# Static dielectric constant tensor:
#      x y z
#    x 3.414990 0.000000 0.000000 
#    y 0.000000 3.415000 0.000000 
#    z 0.000000 0.000000 3.541190 
# 
# 
# High freq. dielectric constant tensor:
#      x y z
#    x 1.735920 0.000000 0.000000 
#    y 0.000000 1.735920 0.000000 
#    z 0.000000 0.000000 1.745690 
# 
# From -- ./inp_files/2300.got.cif
#   From: 2010.03.12/outbox.cif.g09.slc.cpg/sg165_2_cif.got.tgz:2300.got - 2010.04.02 06:36:38.
