data_PCOD8323251
_publ_section_title
;
Structure prediction by ZEFSAII (Michael W. Deem and Ramdas Pophale) SiO2 
 PCOD8323251
Probable space group: P -3 1 C
;
_chemical_formula_sum "Si O2"
_cell_formula_units_Z 60
_cell_length_a 19.490825
_cell_length_b 19.490825
_cell_length_c 9.986944
_cell_angle_alpha 90.000000
_cell_angle_beta 90.000000
_cell_angle_gamma 120.000000
_cell_volume 3285.668095
_symmetry_space_group_name_H-M "P -3 1 C"
_symmetry_group_IT_number 163
_symmetry_cell_setting 'hexagonal'
loop_
_space_group_symop_operation_xyz
x,y,z
-y,x-y,z
-x+y,-x,z
-y,-x,1/2-z
-x+y,y,1/2-z
x,x-y,1/2-z
-x,-y,-z
y,-x+y,-z
x-y,x,-z
y,x,1/2+z
x-y,-y,1/2+z
-x,-x+y,1/2+z
loop_
_atom_site_type_symbol
_atom_site_label
_atom_site_fract_x
_atom_site_fract_y
_atom_site_fract_z
Si Si1 0.742734 0.744171 0.515448
Si Si2 0.463196 0.537259 0.404549
Si Si3 0.132292 0.713817 0.096012
Si Si4 0.286803 0.867899 0.096645
Si Si5 0.160620 0.161781 0.734906
O O1 0.656971 0.734570 0.494520
O O2 0.731558 0.656613 0.506456
O O3 0.772755 0.782817 0.659640
O O4 0.808216 0.801671 0.410654
O O5 0.476975 0.523026 0.250000
O O6 0.500000 0.500000 0.500000
O O7 0.505113 0.629986 0.438945
O O8 0.370367 0.495786 0.437855
O O9 0.222873 0.777573 0.065964
O O10 0.109086 0.716534 0.249586
O O11 0.165033 0.082517 0.750000
O O12 0.070196 0.140391 0.750000
#
# Coordination Sequence:
#
# PCOD8323251 Si02
#       5
#    12  12  12  12  12
#     4  12  22  37  59  82 110 144 190 230 278 326
#     4  10  20  36  58  86 114 146 184 228 280 332
#     4  10  20  37  59  84 115 147 183 231 277 327
#     4  10  20  37  59  84 115 147 183 231 277 327
#     4  12  25  40  56  79 110 148 188 234 282 331
#
# _framework density 18.261126999999998
#
# number of rings (size 3 to 8) (size 9 to 14) (size 15 to 20)
#    0.000    1.200    4.000    3.800    0.000    0.000 
#    1.200    2.000    0.000    0.000    0.000    0.000 
#    0.000    0.000    0.000    0.000    0.000    0.000 
#
# Total GULP energy -744207.529264 kJ/mol
# GULP energy per Si atom -12403.458821 kJ/mol
# Density = 1.821956 g / cm^3
# Si number density = 18.261127 Si / 1000 Ang^3
#
#
#
# Elastic Constant Matrix: (Units=GPa)
#
#
# Indices 1 2 3 4 5 6 
#
# 1 146.0581 76.4318 35.0862 0.0000 -0.8462 0.0000
# 2 76.4318 146.0581 35.0862 0.0000 0.8462 0.0000
# 3 35.0862 35.0862 44.9713 0.0000 0.0000 0.0000
# 4 0.0000 0.0000 0.0000 21.0660 0.0000 0.8462
# 5 -0.8462 0.8462 0.0000 0.0000 21.0660 0.0000
# 6 0.0000 0.0000 0.0000 0.8462 0.0000 34.8131
#
#
#
# Elastic Compliance Matrix: (Units=1/GPa)
#
#
# Indices 1 2 3 4 5 6 
#
# 1 0.010169 -0.004207 -0.004651 0.000000 0.000578 0.000000
# 2 -0.004207 0.010169 -0.004651 0.000000 -0.000578 0.000000
# 3 -0.004651 -0.004651 0.029494 0.000000 0.000000 0.000000
# 4 0.000000 0.000000 0.000000 0.047516 0.000000 -0.001155
# 5 0.000578 -0.000578 0.000000 0.000000 0.047516 0.000000
# 6 0.000000 0.000000 0.000000 -0.001155 0.000000 0.028753
#
#
# Mechanical properties :
#
#
# Convention : Reuss Voigt Hill
#
# Bulk Modulus (GPa) = 43.83566 70.03286 56.93426
# Shear Modulus (GPa) = 24.01066 28.08791 26.04929
#
# Velocity S-wave (km/s) = 3.63002 3.92615 3.78099
# Velocity P-wave (km/s) = 6.45185 7.68029 7.09272
#
# Compressibility (1/GPa) = 0.02281248
#
# Stress axis : x y z
#
# Youngs Moduli (GPa) = 98.33823 98.33823 33.90529
#
# Poissons Ratio (x) = 0.41375 0.15770
# Poissons Ratio (y) = 0.41375 0.15770
# Poissons Ratio (z) = 0.45738 0.45738
#
# Static dielectric constant tensor:
#      x y z
#    x 3.628600 0.000000 0.000000 
#    y 0.000000 3.628600 0.000000 
#    z 0.000000 0.000000 3.432580 
# 
# 
# High freq. dielectric constant tensor:
#      x y z
#    x 1.714950 0.000000 0.000000 
#    y 0.000000 1.714950 0.000000 
#    z 0.000000 0.000000 1.698930 
# 
# From -- ./inp_files/1739.got.cif
#   From: 2010.03.12/outbox.cif.g09.slc.cpg/sg163_1_cif.got.tgz:1739.got - 2010.04.02 06:30:25.
