data_PCOD8323523
_publ_section_title
;
Structure prediction by ZEFSAII (Michael W. Deem and Ramdas Pophale) SiO2 
 PCOD8323523
Probable space group: P -3 M 1
;
_chemical_formula_sum "Si O2"
_cell_formula_units_Z 78
_cell_length_a 17.470046
_cell_length_b 17.470046
_cell_length_c 18.900024
_cell_angle_alpha 90.000000
_cell_angle_beta 90.000000
_cell_angle_gamma 120.000000
_cell_volume 4995.524398
_symmetry_space_group_name_H-M "P -3 M 1"
_symmetry_group_IT_number 164
_symmetry_cell_setting 'hexagonal'
loop_
_space_group_symop_operation_xyz
x,y,z
-y,x-y,z
-x+y,-x,z
x-y,-y,-z
-x,-x+y,-z
y,x,-z
-x,-y,-z
y,-x+y,-z
x-y,x,-z
-x+y,y,z
x,x-y,z
-y,-x,z
loop_
_atom_site_type_symbol
_atom_site_label
_atom_site_fract_x
_atom_site_fract_y
_atom_site_fract_z
Si Si1 0.333980 0.844172 0.046266
Si Si2 0.974679 0.399464 0.830522
Si Si3 0.156600 0.667184 0.600611
Si Si4 0.156272 0.667119 0.439571
Si Si5 0.000000 0.822313 0.000000
Si Si6 0.981862 0.400526 0.671389
Si Si7 0.736527 0.645911 0.076800
O O1 0.423859 0.847718 0.020711
O O2 0.256842 0.743159 0.048900
O O3 0.345289 0.885361 0.124284
O O4 0.311882 0.903545 0.994369
O O5 0.007840 0.503920 0.831960
O O6 0.052678 0.385617 0.860105
O O7 0.954896 0.362538 0.750621
O O8 0.178465 0.589233 0.612111
O O9 0.242776 0.757225 0.620918
O O10 0.125508 0.666429 0.519985
O O11 0.080090 0.659318 0.652572
O O12 0.168715 0.584358 0.424592
O O13 0.248522 0.751478 0.423017
O O14 0.085963 0.669011 0.385317
O O15 0.969925 0.751504 0.063895
O O16 0.917061 0.834121 0.976070
O O17 0.980502 0.490251 0.661833
O O18 0.811322 0.622643 0.099381
#
# Coordination Sequence:
#
# PCOD8323523 Si02
#       7
#    12  12  12  12   6  12  12
#     4  10  19  31  47  66  88 115 148 185 221 257
#     4  10  19  31  45  62  88 119 148 178 216 262
#     4   9  16  27  44  63  84 111 146 184 219 256
#     4   9  16  27  43  63  85 112 146 182 217 255
#     4  10  19  32  49  70  90 108 134 172 221 268
#     4   9  18  29  41  60  87 118 146 176 215 257
#     4  10  19  31  49  68  86 111 145 184 222 263
#
# _framework density 15.613977
#
# number of rings (size 3 to 8) (size 9 to 14) (size 15 to 20)
#    0.000    2.462    1.538    1.462    0.000    5.538 
#    0.000    0.000    0.000    2.154    0.000    0.000 
#    0.000    0.000    0.000    0.462    0.000    6.923 
#
# Total GULP energy -967034.376973 kJ/mol
# GULP energy per Si atom -12397.876628 kJ/mol
# Density = 1.557844 g / cm^3
# Si number density = 15.613977 Si / 1000 Ang^3
#
#
#
# Elastic Constant Matrix: (Units=GPa)
#
#
# Indices 1 2 3 4 5 6 
#
# 1 70.6278 26.6855 23.6296 -1.4373 0.0000 0.0000
# 2 26.6855 70.6278 23.6296 1.4373 0.0000 0.0000
# 3 23.6296 23.6296 56.2415 0.0000 0.0000 0.0000
# 4 -1.4373 1.4373 0.0000 18.6917 0.0000 0.0000
# 5 0.0000 0.0000 0.0000 0.0000 18.6917 -1.4373
# 6 0.0000 0.0000 0.0000 0.0000 -1.4373 21.9711
#
#
#
# Elastic Compliance Matrix: (Units=1/GPa)
#
#
# Indices 1 2 3 4 5 6 
#
# 1 0.017891 -0.004981 -0.005424 0.001759 0.000000 0.000000
# 2 -0.004981 0.017891 -0.005424 -0.001759 0.000000 0.000000
# 3 -0.005424 -0.005424 0.022338 0.000000 0.000000 0.000000
# 4 0.001759 -0.001759 0.000000 0.053770 0.000000 0.000000
# 5 0.000000 0.000000 0.000000 0.000000 0.053770 0.003518
# 6 0.000000 0.000000 0.000000 0.000000 0.003518 0.045744
#
#
# Mechanical properties :
#
#
# Convention : Reuss Voigt Hill
#
# Bulk Modulus (GPa) = 37.78979 38.37626 38.08302
# Shear Modulus (GPa) = 19.85033 20.10773 19.97903
#
# Velocity S-wave (km/s) = 3.56942 3.59249 3.58098
# Velocity P-wave (km/s) = 6.42205 6.46834 6.44524
#
# Compressibility (1/GPa) = 0.02646217
#
# Stress axis : x y z
#
# Youngs Moduli (GPa) = 55.89328 55.89328 44.76602
#
# Poissons Ratio (x) = 0.27840 0.24282
# Poissons Ratio (y) = 0.27840 0.24282
# Poissons Ratio (z) = 0.30318 0.30318
#
# Static dielectric constant tensor:
#      x y z
#    x 2.958200 0.000000 0.000000 
#    y 0.000000 2.958200 0.000000 
#    z 0.000000 0.000000 2.969250 
# 
# 
# High freq. dielectric constant tensor:
#      x y z
#    x 1.590460 0.000000 0.000000 
#    y 0.000000 1.590460 0.000000 
#    z 0.000000 0.000000 1.586790 
# 
# From -- ./inp_files/4175.got.cif
#   From: 2010.03.12/outbox.cif.g09.slc.cpg/sg164_3_cif.got.tgz:4175.got - 2010.04.02 06:32:59.
