data_PCOD8323494
_publ_section_title
;
Structure prediction by ZEFSAII (Michael W. Deem and Ramdas Pophale) SiO2 
 PCOD8323494
Probable space group: P -3 M 1
;
_chemical_formula_sum "Si O2"
_cell_formula_units_Z 60
_cell_length_a 18.485848
_cell_length_b 18.485848
_cell_length_c 12.086986
_cell_angle_alpha 90.000000
_cell_angle_beta 90.000000
_cell_angle_gamma 120.000000
_cell_volume 3577.069730
_symmetry_space_group_name_H-M "P -3 M 1"
_symmetry_group_IT_number 164
_symmetry_cell_setting 'hexagonal'
loop_
_space_group_symop_operation_xyz
x,y,z
-y,x-y,z
-x+y,-x,z
x-y,-y,-z
-x,-x+y,-z
y,x,-z
-x,-y,-z
y,-x+y,-z
x-y,x,-z
-x+y,y,z
x,x-y,z
-y,-x,z
loop_
_atom_site_type_symbol
_atom_site_label
_atom_site_fract_x
_atom_site_fract_y
_atom_site_fract_z
Si Si1 0.332787 0.830397 0.444570
Si Si2 0.828968 0.333600 0.149143
Si Si3 0.929477 0.383391 0.356005
Si Si4 0.735584 0.640595 0.982975
Si Si5 0.457594 0.083255 0.776322
O O1 0.407096 0.814192 0.480830
O O2 0.247410 0.752590 0.480442
O O3 0.342034 0.907870 0.521113
O O4 0.333663 0.842891 0.313337
O O5 0.846585 0.423293 0.104537
O O6 0.732956 0.267044 0.125905
O O7 0.846646 0.337398 0.280060
O O8 0.889549 0.308035 0.087513
O O9 0.963277 0.481639 0.370716
O O10 0.004098 0.382711 0.288374
O O11 0.835372 0.670743 0.977333
O O12 0.689425 0.584121 0.876505
O O13 0.719138 0.719138 0.000000
O O14 0.534907 0.069813 0.816448
#
# Coordination Sequence:
#
# PCOD8323494 Si02
#       5
#    12  12  12  12  12
#     4  10  19  30  44  65  95 132 173 211 245 279
#     4  10  19  30  47  72 101 133 166 201 239 283
#     4   9  17  29  46  65  91 128 166 205 244 281
#     4  11  22  36  54  74  97 126 162 205 257 307
#     4  10  19  32  50  71  97 131 170 207 245 293
#
# _framework density 16.773506999999999
#
# number of rings (size 3 to 8) (size 9 to 14) (size 15 to 20)
#    0.000    2.000    2.000    2.800    0.000    3.200 
#    0.000    2.000    0.000    6.600    0.000    0.000 
#    0.000    0.000    0.000    0.000    0.000    7.400 
#
# Total GULP energy -743298.418935 kJ/mol
# GULP energy per Si atom -12388.306982 kJ/mol
# Density = 1.673533 g / cm^3
# Si number density = 16.773507 Si / 1000 Ang^3
#
#
#
# Elastic Constant Matrix: (Units=GPa)
#
#
# Indices 1 2 3 4 5 6 
#
# 1 67.2918 29.7177 8.9780 -1.0850 0.0000 0.0000
# 2 29.7177 67.2918 8.9780 1.0850 0.0000 0.0000
# 3 8.9780 8.9780 66.9439 0.0000 0.0000 0.0000
# 4 -1.0850 1.0850 0.0000 20.4162 0.0000 0.0000
# 5 0.0000 0.0000 0.0000 0.0000 20.4162 -1.0850
# 6 0.0000 0.0000 0.0000 0.0000 -1.0850 18.7870
#
#
#
# Elastic Compliance Matrix: (Units=1/GPa)
#
#
# Indices 1 2 3 4 5 6 
#
# 1 0.018633 -0.008063 -0.001418 0.001419 0.000000 0.000000
# 2 -0.008063 0.018633 -0.001418 -0.001419 0.000000 0.000000
# 3 -0.001418 -0.001418 0.015318 0.000000 0.000000 0.000000
# 4 0.001419 -0.001419 0.000000 0.049131 0.000000 0.000000
# 5 0.000000 0.000000 0.000000 0.000000 0.049131 0.002837
# 6 0.000000 0.000000 0.000000 0.000000 0.002837 0.053392
#
#
# Mechanical properties :
#
#
# Convention : Reuss Voigt Hill
#
# Bulk Modulus (GPa) = 32.47932 32.98612 32.73272
# Shear Modulus (GPa) = 21.15964 22.18079 21.67022
#
# Velocity S-wave (km/s) = 3.55560 3.64039 3.59824
# Velocity P-wave (km/s) = 6.02179 6.11377 6.06795
#
# Compressibility (1/GPa) = 0.03078882
#
# Stress axis : x y z
#
# Youngs Moduli (GPa) = 53.66716 53.66716 65.28209
#
# Poissons Ratio (x) = 0.43270 0.09255
# Poissons Ratio (y) = 0.43270 0.09255
# Poissons Ratio (z) = 0.07608 0.07608
#
# Static dielectric constant tensor:
#      x y z
#    x 2.987160 0.000000 0.000000 
#    y 0.000000 2.987160 0.000000 
#    z 0.000000 0.000000 3.327800 
# 
# 
# High freq. dielectric constant tensor:
#      x y z
#    x 1.615350 0.000000 0.000000 
#    y 0.000000 1.615350 0.000000 
#    z 0.000000 0.000000 1.667010 
# 
# From -- ./inp_files/2656.got.cif
#   From: 2010.03.12/outbox.cif.g09.slc.cpg/sg164_2_cif.got.tgz:2656.got - 2010.04.02 06:32:59.
