data_PCOD8323458
_publ_section_title
;
Structure prediction by ZEFSAII (Michael W. Deem and Ramdas Pophale) SiO2 
 PCOD8323458
Probable space group: P -3 M 1
;
_chemical_formula_sum "Si O2"
_cell_formula_units_Z 72
_cell_length_a 21.842839
_cell_length_b 21.842839
_cell_length_c 10.258323
_cell_angle_alpha 90.000000
_cell_angle_beta 90.000000
_cell_angle_gamma 120.000000
_cell_volume 4238.626709
_symmetry_space_group_name_H-M "P -3 M 1"
_symmetry_group_IT_number 164
_symmetry_cell_setting 'hexagonal'
loop_
_space_group_symop_operation_xyz
x,y,z
-y,x-y,z
-x+y,-x,z
x-y,-y,-z
-x,-x+y,-z
y,x,-z
-x,-y,-z
y,-x+y,-z
x-y,x,-z
-x+y,y,z
x,x-y,z
-y,-x,z
loop_
_atom_site_type_symbol
_atom_site_label
_atom_site_fract_x
_atom_site_fract_y
_atom_site_fract_z
Si Si1 0.709695 0.785245 0.750148
Si Si2 0.192110 0.525866 0.906175
Si Si3 0.807551 0.334113 0.400011
Si Si4 0.117692 0.738271 0.502192
Si Si5 0.918663 0.219998 0.755245
Si Si6 0.296311 0.918269 0.992371
O O1 0.739274 0.869637 0.740593
O O2 0.672365 0.744418 0.618101
O O3 0.773537 0.769008 0.773898
O O4 0.654123 0.753779 0.867212
O O5 0.265465 0.530930 0.945205
O O6 0.195625 0.597813 0.950749
O O7 0.177648 0.512884 0.753056
O O8 0.128628 0.462382 0.985387
O O9 0.812477 0.406239 0.447673
O O10 0.729534 0.270467 0.433568
O O11 0.869317 0.327617 0.475205
O O12 0.193853 0.806148 0.505956
O O13 0.079300 0.731559 0.365472
O O14 0.862311 0.137690 0.730592
O O15 0.896349 0.246905 0.881346
O O16 0.356767 0.000000 0.000000
#
# Coordination Sequence:
#
# PCOD8323458 Si02
#       6
#    12  12  12  12  12  12
#     4  10  18  32  53  73  94 124 162 199 236 284
#     4  10  18  30  49  72  98 128 167 209 247 290
#     4   9  16  27  47  72  97 126 164 208 248 286
#     4   9  17  30  48  70  94 124 159 196 238 283
#     4  10  20  32  49  74 101 126 156 196 244 293
#     4  10  20  33  51  74  98 129 162 203 247 289
#
# _framework density 16.986632
#
# number of rings (size 3 to 8) (size 9 to 14) (size 15 to 20)
#    0.000    2.333    1.667    2.333    0.000    1.667 
#    0.000    0.833    0.000    3.333    0.000    2.333 
#    0.000    8.000    0.000    0.000    0.000    1.333 
#
# Total GULP energy -892708.644134 kJ/mol
# GULP energy per Si atom -12398.731169 kJ/mol
# Density = 1.694797 g / cm^3
# Si number density = 16.986632 Si / 1000 Ang^3
#
#
#
# Elastic Constant Matrix: (Units=GPa)
#
#
# Indices 1 2 3 4 5 6 
#
# 1 100.6626 60.8744 21.1166 0.3321 0.0000 0.0000
# 2 60.8744 100.6626 21.1166 -0.3321 0.0000 0.0000
# 3 21.1166 21.1166 78.9277 0.0000 0.0000 0.0000
# 4 0.3321 -0.3321 0.0000 18.5134 0.0000 0.0000
# 5 0.0000 0.0000 0.0000 0.0000 18.5134 0.3321
# 6 0.0000 0.0000 0.0000 0.0000 0.3321 19.8941
#
#
#
# Elastic Compliance Matrix: (Units=1/GPa)
#
#
# Indices 1 2 3 4 5 6 
#
# 1 0.015898 -0.009242 -0.001781 -0.000451 0.000000 0.000000
# 2 -0.009242 0.015898 -0.001781 0.000451 0.000000 0.000000
# 3 -0.001781 -0.001781 0.013623 0.000000 0.000000 0.000000
# 4 -0.000451 0.000451 0.000000 0.054031 0.000000 0.000000
# 5 0.000000 0.000000 0.000000 0.000000 0.054031 -0.000902
# 6 0.000000 0.000000 0.000000 0.000000 -0.000902 0.050281
#
#
# Mechanical properties :
#
#
# Convention : Reuss Voigt Hill
#
# Bulk Modulus (GPa) = 50.47514 54.05202 52.26358
# Shear Modulus (GPa) = 21.18875 23.19389 22.19132
#
# Velocity S-wave (km/s) = 3.53566 3.69917 3.61834
# Velocity P-wave (km/s) = 6.81520 7.08057 6.94915
#
# Compressibility (1/GPa) = 0.01981173
#
# Stress axis : x y z
#
# Youngs Moduli (GPa) = 62.89954 62.89954 73.40689
#
# Poissons Ratio (x) = 0.58133 0.13072
# Poissons Ratio (y) = 0.58133 0.13072
# Poissons Ratio (z) = 0.11201 0.11201
#
# Static dielectric constant tensor:
#      x y z
#    x 3.112250 0.000000 0.000000 
#    y 0.000000 3.112250 0.000000 
#    z 0.000000 0.000000 3.225190 
# 
# 
# High freq. dielectric constant tensor:
#      x y z
#    x 1.645000 0.000000 0.000000 
#    y 0.000000 1.645000 0.000000 
#    z 0.000000 0.000000 1.651120 
# 
# From -- ./inp_files/1943.got.cif
#   From: 2010.03.12/outbox.cif.g09.slc.cpg/sg164_1_cif.got.tgz:1943.got - 2010.04.02 06:32:59.
