data_PCOD8323313
_publ_section_title
;
Structure prediction by ZEFSAII (Michael W. Deem and Ramdas Pophale) SiO2 
 PCOD8323313
Probable space group: P -3 1 C
;
_chemical_formula_sum "Si O2"
_cell_formula_units_Z 56
_cell_length_a 13.759863
_cell_length_b 13.759863
_cell_length_c 16.454028
_cell_angle_alpha 90.000000
_cell_angle_beta 90.000000
_cell_angle_gamma 120.000000
_cell_volume 2697.932523
_symmetry_space_group_name_H-M "P -3 1 C"
_symmetry_group_IT_number 163
_symmetry_cell_setting 'hexagonal'
loop_
_space_group_symop_operation_xyz
x,y,z
-y,x-y,z
-x+y,-x,z
-y,-x,1/2-z
-x+y,y,1/2-z
x,x-y,1/2-z
-x,-y,-z
y,-x+y,-z
x-y,x,-z
y,x,1/2+z
x-y,-y,1/2+z
-x,-x+y,1/2+z
loop_
_atom_site_type_symbol
_atom_site_label
_atom_site_fract_x
_atom_site_fract_y
_atom_site_fract_z
Si Si1 0.740903 0.839157 0.515336
Si Si2 0.575328 0.828291 0.126574
Si Si3 0.666668 0.333335 0.651511
Si Si4 0.252469 0.418876 0.836901
Si Si5 0.333334 0.666667 0.846424
Si Si6 0.939192 0.364505 0.722829
O O1 0.833227 0.800602 0.513884
O O2 0.638752 0.759447 0.456785
O O3 0.685973 0.822223 0.604335
O O4 0.441656 0.778485 0.116329
O O5 0.631529 0.928645 0.193505
O O6 0.585889 0.722672 0.154747
O O7 0.666668 0.333334 0.750000
O O8 0.193508 0.387015 0.750000
O O9 0.273913 0.536781 0.875491
O O10 0.374144 0.434602 0.817684
O O11 0.333334 0.666667 0.750000
O O12 0.894448 0.447224 0.750000
#
# Coordination Sequence:
#
# PCOD8323313 Si02
#       6
#    12  12   4  12   4  12
#     4  12  27  47  65  93 131 173 227 287 331 381
#     4  11  21  37  65  96 131 170 211 270 331 389
#     4  12  18  40  65 103 145 164 205 279 340 398
#     4  11  23  43  67  95 131 177 217 263 328 408
#     4   9  21  43  65  94 141 172 209 262 328 404
#     4  11  19  37  66  97 131 168 214 263 329 391
#
# _framework density 20.756633999999998
#
# number of rings (size 3 to 8) (size 9 to 14) (size 15 to 20)
#    0.000    0.857    6.429    3.429    0.000    1.714 
#    0.000    3.214    0.000    0.000    0.000    0.000 
#    0.000    0.000    0.000    0.000    0.000    0.000 
#
# Total GULP energy -694057.080507 kJ/mol
# GULP energy per Si atom -12393.876438 kJ/mol
# Density = 2.070939 g / cm^3
# Si number density = 20.756634 Si / 1000 Ang^3
#
#
#
# Elastic Constant Matrix: (Units=GPa)
#
#
# Indices 1 2 3 4 5 6 
#
# 1 95.1695 30.2321 30.7316 -0.0001 -2.5173 0.0003
# 2 30.2321 95.1702 30.7318 0.0001 2.5173 0.0003
# 3 30.7316 30.7318 83.3144 0.0002 0.0001 0.0001
# 4 -0.0001 0.0001 0.0002 26.9639 0.0000 2.5172
# 5 -2.5173 2.5173 0.0001 0.0000 26.9638 -0.0002
# 6 0.0003 0.0003 0.0001 2.5172 -0.0002 32.4690
#
#
#
# Elastic Compliance Matrix: (Units=1/GPa)
#
#
# Indices 1 2 3 4 5 6 
#
# 1 0.012623 -0.002889 -0.003591 0.000000 0.001448 0.000000
# 2 -0.002889 0.012623 -0.003591 0.000000 -0.001448 0.000000
# 3 -0.003591 -0.003591 0.014652 0.000000 0.000000 0.000000
# 4 0.000000 0.000000 0.000000 0.037357 0.000000 -0.002896
# 5 0.001448 -0.001448 0.000000 0.000000 0.037357 0.000000
# 6 0.000000 0.000000 0.000000 -0.002896 0.000000 0.031023
#
#
# Mechanical properties :
#
#
# Convention : Reuss Voigt Hill
#
# Bulk Modulus (GPa) = 50.61332 50.78278 50.69805
# Shear Modulus (GPa) = 29.00898 29.40992 29.20945
#
# Velocity S-wave (km/s) = 3.74247 3.76825 3.75538
# Velocity P-wave (km/s) = 6.56597 6.59180 6.57890
#
# Compressibility (1/GPa) = 0.01975764
#
# Stress axis : x y z
#
# Youngs Moduli (GPa) = 79.22066 79.22117 68.25178
#
# Poissons Ratio (x) = 0.22885 0.24507
# Poissons Ratio (y) = 0.22884 0.24507
# Poissons Ratio (z) = 0.28445 0.28445
#
# Static dielectric constant tensor:
#      x y z
#    x 3.859470 -0.000010 0.000000 
#    y -0.000010 3.859450 0.000000 
#    z 0.000000 0.000000 3.577820 
# 
# 
# High freq. dielectric constant tensor:
#      x y z
#    x 1.813720 0.000000 0.000000 
#    y 0.000000 1.813720 0.000000 
#    z 0.000000 0.000000 1.797120 
# 
# From -- ./inp_files/3050.got.cif
#   From: 2010.03.12/outbox.cif.g09.slc.cpg/sg163_2_cif.got.tgz:3050.got - 2010.04.02 06:30:25.
