data_PCOD8323537
_publ_section_title
;
Structure prediction by ZEFSAII (Michael W. Deem and Ramdas Pophale) SiO2 
 PCOD8323537
Probable space group: P -3 M 1
;
_chemical_formula_sum "Si O2"
_cell_formula_units_Z 96
_cell_length_a 17.103612
_cell_length_b 17.103612
_cell_length_c 21.361250
_cell_angle_alpha 90.000000
_cell_angle_beta 90.000000
_cell_angle_gamma 120.000000
_cell_volume 5411.690691
_symmetry_space_group_name_H-M "P -3 M 1"
_symmetry_group_IT_number 164
_symmetry_cell_setting 'hexagonal'
loop_
_space_group_symop_operation_xyz
x,y,z
-y,x-y,z
-x+y,-x,z
x-y,-y,-z
-x,-x+y,-z
y,x,-z
-x,-y,-z
y,-x+y,-z
x-y,x,-z
-x+y,y,z
x,x-y,z
-y,-x,z
loop_
_atom_site_type_symbol
_atom_site_label
_atom_site_fract_x
_atom_site_fract_y
_atom_site_fract_z
Si Si1 0.489650 0.332727 0.090042
Si Si2 0.606820 0.033332 0.855234
Si Si3 0.511934 0.666901 0.377133
Si Si4 0.728600 0.094090 0.737364
Si Si5 0.239041 0.296344 0.559631
Si Si6 0.666596 0.513998 0.479159
Si Si7 0.181796 0.000463 0.681358
Si Si8 0.633166 0.727627 0.026044
O O1 0.476142 0.238071 0.114834
O O2 0.595201 0.404800 0.087566
O O3 0.437451 0.363336 0.137439
O O4 0.451579 0.324168 0.020129
O O5 0.531197 0.062394 0.863306
O O6 0.648204 0.058263 0.786560
O O7 0.685113 0.085555 0.905860
O O8 0.479393 0.739697 0.369548
O O9 0.429160 0.570841 0.358009
O O10 0.595195 0.689572 0.331394
O O11 0.543156 0.667493 0.448453
O O12 0.805091 0.194910 0.756486
O O13 0.772874 0.029389 0.736124
O O14 0.244989 0.244989 0.500000
O O15 0.151034 0.302067 0.548548
O O16 0.320020 0.401358 0.563029
O O17 0.231055 0.239003 0.620296
O O18 0.744123 0.488246 0.467527
O O19 0.571606 0.428395 0.460328
O O20 0.092487 0.907514 0.699880
O O21 0.155382 0.077691 0.670504
O O22 0.668561 0.834281 0.029198
O O23 0.715180 0.715180 0.000000
#
# Coordination Sequence:
#
# PCOD8323537 Si02
#       8
#    12  12  12  12  12  12  12  12
#     4   9  17  29  47  71  98 128 161 197 235 275
#     4  10  19  31  48  71  99 130 162 195 234 280
#     4   9  16  27  44  66  93 125 159 190 221 263
#     4  10  20  33  49  68  92 124 157 192 235 277
#     4  10  19  31  48  70  95 120 147 186 237 289
#     4   9  17  29  46  68  94 124 155 187 224 269
#     4  10  21  37  55  72  90 115 150 193 240 288
#     4   9  17  30  49  73 101 133 167 203 243 285
#
# _framework density 17.739371999999999
#
# number of rings (size 3 to 8) (size 9 to 14) (size 15 to 20)
#    0.000    2.500    0.000    2.750    0.000    5.250 
#    0.000    1.250    0.000    5.625    0.000    0.000 
#    0.000    5.000    0.000    0.000    0.000    0.000 
#
# Total GULP energy -1190233.955331 kJ/mol
# GULP energy per Si atom -12398.270368 kJ/mol
# Density = 1.769900 g / cm^3
# Si number density = 17.739372 Si / 1000 Ang^3
#
#
#
# Elastic Constant Matrix: (Units=GPa)
#
#
# Indices 1 2 3 4 5 6 
#
# 1 96.3964 32.7746 25.3061 2.4166 0.0000 0.0000
# 2 32.7746 96.3964 25.3061 -2.4166 0.0000 0.0000
# 3 25.3061 25.3061 27.8033 0.0000 0.0000 0.0000
# 4 2.4166 -2.4166 0.0000 22.8056 0.0000 0.0000
# 5 0.0000 0.0000 0.0000 0.0000 22.8056 2.4166
# 6 0.0000 0.0000 0.0000 0.0000 2.4166 31.8109
#
#
#
# Elastic Compliance Matrix: (Units=1/GPa)
#
#
# Indices 1 2 3 4 5 6 
#
# 1 0.013939 -0.001906 -0.010952 -0.001679 0.000000 0.000000
# 2 -0.001906 0.013939 -0.010952 0.001679 0.000000 0.000000
# 3 -0.010952 -0.010952 0.055904 0.000000 0.000000 0.000000
# 4 -0.001679 0.001679 0.000000 0.044205 0.000000 0.000000
# 5 0.000000 0.000000 0.000000 0.000000 0.044205 -0.003358
# 6 0.000000 0.000000 0.000000 0.000000 -0.003358 0.031691
#
#
# Mechanical properties :
#
#
# Convention : Reuss Voigt Hill
#
# Bulk Modulus (GPa) = 27.65401 43.04106 35.34754
# Shear Modulus (GPa) = 18.97114 24.63170 21.80142
#
# Velocity S-wave (km/s) = 3.27377 3.73034 3.50949
# Velocity P-wave (km/s) = 5.46928 6.54749 6.03252
#
# Compressibility (1/GPa) = 0.03616112
#
# Stress axis : x y z
#
# Youngs Moduli (GPa) = 71.73994 71.73994 17.88776
#
# Poissons Ratio (x) = 0.13675 0.19591
# Poissons Ratio (y) = 0.13675 0.19591
# Poissons Ratio (z) = 0.78572 0.78572
#
# Static dielectric constant tensor:
#      x y z
#    x 3.368890 0.000000 0.000000 
#    y 0.000000 3.368890 0.000000 
#    z 0.000000 0.000000 3.023390 
# 
# 
# High freq. dielectric constant tensor:
#      x y z
#    x 1.692100 0.000000 0.000000 
#    y 0.000000 1.692100 0.000000 
#    z 0.000000 0.000000 1.658430 
# 
# From -- ./inp_files/4718.got.cif
#   From: 2010.03.12/outbox.cif.g09.slc.cpg/sg164_3_cif.got.tgz:4718.got - 2010.04.02 06:32:59.
