data_PCOD8323551
_publ_section_title
;
Structure prediction by ZEFSAII (Michael W. Deem and Ramdas Pophale) SiO2 
 PCOD8323551
Probable space group: P -3 M 1
;
_chemical_formula_sum "Si O2"
_cell_formula_units_Z 48
_cell_length_a 25.129558
_cell_length_b 25.129558
_cell_length_c 5.119473
_cell_angle_alpha 90.000000
_cell_angle_beta 90.000000
_cell_angle_gamma 120.000000
_cell_volume 2799.790841
_symmetry_space_group_name_H-M "P -3 M 1"
_symmetry_group_IT_number 164
_symmetry_cell_setting 'hexagonal'
loop_
_space_group_symop_operation_xyz
x,y,z
-y,x-y,z
-x+y,-x,z
x-y,-y,-z
-x,-x+y,-z
y,x,-z
-x,-y,-z
y,-x+y,-z
x-y,x,-z
-x+y,y,z
x,x-y,z
-y,-x,z
loop_
_atom_site_type_symbol
_atom_site_label
_atom_site_fract_x
_atom_site_fract_y
_atom_site_fract_z
Si Si1 0.070103 0.329587 0.013310
Si Si2 0.333133 0.542405 0.450529
Si Si3 0.189464 0.929470 0.513299
Si Si4 0.294244 0.464981 0.953686
O O1 0.085266 0.309637 0.287837
O O2 0.085472 0.295678 0.785829
O O3 0.107255 0.402487 0.985630
O O4 0.000000 0.312618 0.000000
O O5 0.280201 0.560401 0.455164
O O6 0.396832 0.603168 0.501351
O O7 0.322407 0.493636 0.674700
O O8 0.335413 0.513157 0.175584
O O9 0.116011 0.883989 0.485705
O O10 0.204252 0.000000 0.500000
O O11 0.224224 0.448447 0.980996
#
# Coordination Sequence:
#
# PCOD8323551 Si02
#       4
#    12  12  12  12
#     4  10  20  33  51  74 100 129 160 198 241 285
#     4  10  20  33  50  71  95 123 155 195 241 288
#     4  10  19  31  49  73 101 131 162 199 241 284
#     4  10  19  31  50  72  94 123 157 196 239 283
#
# _framework density 17.144138999999999
#
# number of rings (size 3 to 8) (size 9 to 14) (size 15 to 20)
#    0.000    2.000    0.000    4.750    0.000    2.000 
#    0.000    2.500    0.000    4.750    0.000    0.000 
#    0.000    6.000    0.000    0.000    0.000    1.000 
#
# Total GULP energy -595377.075235 kJ/mol
# GULP energy per Si atom -12403.689067 kJ/mol
# Density = 1.710512 g / cm^3
# Si number density = 17.144139 Si / 1000 Ang^3
#
#
#
# Elastic Constant Matrix: (Units=GPa)
#
#
# Indices 1 2 3 4 5 6 
#
# 1 91.9927 47.2984 7.5767 2.3872 0.0000 0.0000
# 2 47.2984 91.9927 7.5767 -2.3872 0.0000 0.0000
# 3 7.5767 7.5767 65.4528 0.0000 0.0000 0.0000
# 4 2.3872 -2.3872 0.0000 13.9888 0.0000 0.0000
# 5 0.0000 0.0000 0.0000 0.0000 13.9888 2.3872
# 6 0.0000 0.0000 0.0000 0.0000 2.3872 22.3471
#
#
#
# Elastic Compliance Matrix: (Units=1/GPa)
#
#
# Indices 1 2 3 4 5 6 
#
# 1 0.015030 -0.007759 -0.000842 -0.003889 0.000000 0.000000
# 2 -0.007759 0.015030 -0.000842 0.003889 0.000000 0.000000
# 3 -0.000842 -0.000842 0.015473 0.000000 0.000000 0.000000
# 4 -0.003889 0.003889 0.000000 0.072813 0.000000 0.000000
# 5 0.000000 0.000000 0.000000 0.000000 0.072813 -0.007778
# 6 0.000000 0.000000 0.000000 0.000000 -0.007778 0.045579
#
#
# Mechanical properties :
#
#
# Convention : Reuss Voigt Hill
#
# Bulk Modulus (GPa) = 37.52630 41.59354 39.55992
# Shear Modulus (GPa) = 18.90310 22.53071 20.71691
#
# Velocity S-wave (km/s) = 3.32414 3.62911 3.47997
# Velocity P-wave (km/s) = 6.05553 6.47104 6.26673
#
# Compressibility (1/GPa) = 0.02664798
#
# Stress axis : x y z
#
# Youngs Moduli (GPa) = 66.53257 66.53257 64.62854
#
# Poissons Ratio (x) = 0.51626 0.05439
# Poissons Ratio (y) = 0.51626 0.05439
# Poissons Ratio (z) = 0.05600 0.05600
#
# Static dielectric constant tensor:
#      x y z
#    x 3.112050 0.000000 0.000000 
#    y 0.000000 3.112050 0.000000 
#    z 0.000000 0.000000 3.489470 
# 
# 
# High freq. dielectric constant tensor:
#      x y z
#    x 1.647320 0.000000 0.000000 
#    y 0.000000 1.647320 0.000000 
#    z 0.000000 0.000000 1.687810 
# 
# From -- ./inp_files/485.got.cif
#   From: 2010.03.12/outbox.cif.g09.slc.cpg/sg164_1_cif.got.tgz:485.got - 2010.04.02 06:32:59.
