data_PCOD8323946
_publ_section_title
;
Structure prediction by ZEFSAII (Michael W. Deem and Ramdas Pophale) SiO2 
 PCOD8323946
Probable space group: P -3 C 1
;
_chemical_formula_sum "Si O2"
_cell_formula_units_Z 76
_cell_length_a 17.190006
_cell_length_b 17.190006
_cell_length_c 13.643339
_cell_angle_alpha 90.000000
_cell_angle_beta 90.000000
_cell_angle_gamma 120.000000
_cell_volume 3491.430155
_symmetry_space_group_name_H-M "P -3 C 1"
_symmetry_group_IT_number 165
_symmetry_cell_setting 'hexagonal'
loop_
_space_group_symop_operation_xyz
x,y,z
-y,x-y,z
-x+y,-x,z
x-y,-y,1/2-z
-x,-x+y,1/2-z
y,x,1/2-z
-x,-y,-z
y,-x+y,-z
x-y,x,-z
-x+y,y,1/2+z
x,x-y,1/2+z
-y,-x,1/2+z
loop_
_atom_site_type_symbol
_atom_site_label
_atom_site_fract_x
_atom_site_fract_y
_atom_site_fract_z
Si Si1 0.000000 0.000000 0.616414
Si Si2 0.517304 0.614890 0.286426
Si Si3 0.843683 0.196730 0.297547
Si Si4 0.233239 0.944329 0.016170
Si Si5 0.046350 0.440467 0.499588
Si Si6 0.208002 0.122484 0.638863
Si Si7 0.459104 0.359137 0.287769
O O1 0.944045 0.045911 0.655972
O O2 0.000000 0.000000 0.500000
O O3 0.539882 0.539882 0.250000
O O4 0.579292 0.698965 0.220181
O O5 0.536696 0.642218 0.400542
O O6 0.410043 0.560065 0.260970
O O7 0.855571 0.186788 0.413930
O O8 0.901219 0.158113 0.243247
O O9 0.743906 0.149731 0.256074
O O10 0.229177 0.023496 0.071509
O O11 0.182084 0.929194 0.914052
O O12 0.335580 0.971807 0.994643
O O13 0.109277 0.468553 0.594448
O O14 0.000000 0.500000 0.500000
O O15 0.397179 0.397179 0.250000
#
# Coordination Sequence:
#
# PCOD8323946 Si02
#       7
#     4  12  12  12  12  12  12
#     4  12  24  48  63  88 141 198 232 297 354 400
#     4  11  21  44  66  96 132 175 215 268 342 407
#     4  12  25  43  67 100 133 176 232 282 340 410
#     4  12  23  41  66  95 131 177 230 283 337 416
#     4  12  21  40  72  96 127 172 221 272 339 404
#     4  12  24  43  66  92 134 183 237 286 347 400
#     4  11  24  42  66 102 134 168 221 276 332 405
#
# _framework density 21.767585
#
# number of rings (size 3 to 8) (size 9 to 14) (size 15 to 20)
#    0.000    0.316    7.895    2.368    0.000    1.263 
#    0.947    7.105    0.000    0.000    0.000    0.000 
#    0.000    0.000    0.000    0.000    0.000    0.000 
#
# Total GULP energy -942222.841045 kJ/mol
# GULP energy per Si atom -12397.668961 kJ/mol
# Density = 2.171804 g / cm^3
# Si number density = 21.767585 Si / 1000 Ang^3
#
#
#
# Elastic Constant Matrix: (Units=GPa)
#
#
# Indices 1 2 3 4 5 6 
#
# 1 111.3142 48.6490 5.8827 3.1382 0.0000 0.0000
# 2 48.6490 111.3142 5.8827 -3.1382 0.0000 0.0000
# 3 5.8827 5.8827 84.0992 0.0000 0.0000 0.0000
# 4 3.1382 -3.1382 0.0000 24.8928 0.0000 0.0000
# 5 0.0000 0.0000 0.0000 0.0000 24.8928 3.1382
# 6 0.0000 0.0000 0.0000 0.0000 3.1382 31.3326
#
#
#
# Elastic Compliance Matrix: (Units=1/GPa)
#
#
# Indices 1 2 3 4 5 6 
#
# 1 0.011223 -0.004939 -0.000440 -0.002037 0.000000 0.000000
# 2 -0.004939 0.011223 -0.000440 0.002037 0.000000 0.000000
# 3 -0.000440 -0.000440 0.011952 0.000000 0.000000 0.000000
# 4 -0.002037 0.002037 0.000000 0.040686 0.000000 0.000000
# 5 0.000000 0.000000 0.000000 0.000000 0.040686 -0.004075
# 6 0.000000 0.000000 0.000000 0.000000 -0.004075 0.032324
#
#
# Mechanical properties :
#
#
# Convention : Reuss Voigt Hill
#
# Bulk Modulus (GPa) = 43.93375 47.50628 45.72002
# Shear Modulus (GPa) = 29.88339 32.64452 31.26395
#
# Velocity S-wave (km/s) = 3.70920 3.87678 3.79392
# Velocity P-wave (km/s) = 6.21057 6.47386 6.34358
#
# Compressibility (1/GPa) = 0.02276155
#
# Stress axis : x y z
#
# Youngs Moduli (GPa) = 89.10406 89.10406 83.66655
#
# Poissons Ratio (x) = 0.44009 0.03678
# Poissons Ratio (y) = 0.44009 0.03678
# Poissons Ratio (z) = 0.03917 0.03917
#
# Static dielectric constant tensor:
#      x y z
#    x 4.773760 0.000000 0.000000 
#    y 0.000000 4.773760 0.000000 
#    z 0.000000 0.000000 -35.838710 
# 
# 
# High freq. dielectric constant tensor:
#      x y z
#    x 1.849140 0.000000 0.000000 
#    y 0.000000 1.849140 0.000000 
#    z 0.000000 0.000000 1.870770 
# 
# From -- ./inp_files/1826.got.cif
#   From: 2010.03.12/outbox.cif.g09.slc.cpg/sg165_1_cif.got.tgz:1826.got - 2010.04.02 06:36:38.
