data_PCOD8323419
_publ_section_title
;
Structure prediction by ZEFSAII (Michael W. Deem and Ramdas Pophale) SiO2 
 PCOD8323419
Probable space group: P -3 M 1
;
_chemical_formula_sum "Si O2"
_cell_formula_units_Z 78
_cell_length_a 17.628411
_cell_length_b 17.628411
_cell_length_c 15.888328
_cell_angle_alpha 90.000000
_cell_angle_beta 90.000000
_cell_angle_gamma 120.000000
_cell_volume 4275.975058
_symmetry_space_group_name_H-M "P -3 M 1"
_symmetry_group_IT_number 164
_symmetry_cell_setting 'hexagonal'
loop_
_space_group_symop_operation_xyz
x,y,z
-y,x-y,z
-x+y,-x,z
x-y,-y,-z
-x,-x+y,-z
y,x,-z
-x,-y,-z
y,-x+y,-z
x-y,x,-z
-x+y,y,z
x,x-y,z
-y,-x,z
loop_
_atom_site_type_symbol
_atom_site_label
_atom_site_fract_x
_atom_site_fract_y
_atom_site_fract_z
Si Si1 0.329777 0.077631 0.333796
Si Si2 0.647889 0.647889 0.500000
Si Si3 0.840264 0.331165 0.221121
Si Si4 0.157846 0.490774 0.401941
Si Si5 0.163799 0.496746 0.120207
Si Si6 0.640721 0.734706 0.248823
Si Si7 0.454677 0.372344 0.047891
O O1 0.297741 0.148871 0.331265
O O2 0.316470 0.037095 0.426599
O O3 0.430374 0.120681 0.303384
O O4 0.272333 0.998621 0.269243
O O5 0.555441 0.636660 0.471116
O O6 0.854328 0.427164 0.232708
O O7 0.737307 0.262694 0.213208
O O8 0.888030 0.321851 0.136872
O O9 0.246263 0.492527 0.433028
O O10 0.178913 0.589457 0.387058
O O11 0.122563 0.435954 0.316989
O O12 0.259164 0.518328 0.152323
O O13 0.146395 0.573198 0.151404
O O14 0.090246 0.404901 0.161494
O O15 0.161785 0.490081 0.018913
O O16 0.675031 0.837516 0.243367
O O17 0.527715 0.472286 0.067962
O O18 0.373672 0.373672 0.000000
#
# Coordination Sequence:
#
# PCOD8323419 Si02
#       7
#    12   6  12  12  12  12  12
#     4  10  21  37  57  77  97 125 161 201 248 306
#     4  10  21  36  52  72  95 122 160 204 253 302
#     4  10  20  33  49  71 102 141 182 220 256 296
#     4  10  19  31  47  68  95 126 160 198 242 293
#     4  10  18  28  44  69 103 143 185 225 263 303
#     4   9  19  33  50  73 100 129 160 198 247 301
#     4   9  17  28  43  64  93 134 184 233 271 299
#
# _framework density 18.241453
#
# number of rings (size 3 to 8) (size 9 to 14) (size 15 to 20)
#    0.000    2.308    0.000    3.000    0.000    5.538 
#    0.000    3.077    0.000    2.154    0.000    0.538 
#    0.000    0.000    0.000    0.000    0.000   32.000 
#
# Total GULP energy -966730.469022 kJ/mol
# GULP energy per Si atom -12393.980372 kJ/mol
# Density = 1.819993 g / cm^3
# Si number density = 18.241453 Si / 1000 Ang^3
#
#
#
# Elastic Constant Matrix: (Units=GPa)
#
#
# Indices 1 2 3 4 5 6 
#
# 1 88.2698 48.3069 27.4372 -0.2217 0.0000 0.0000
# 2 48.3069 88.2698 27.4372 0.2217 0.0000 0.0000
# 3 27.4372 27.4372 81.5055 0.0000 0.0000 0.0000
# 4 -0.2217 0.2217 0.0000 22.5747 0.0000 0.0000
# 5 0.0000 0.0000 0.0000 0.0000 22.5747 -0.2217
# 6 0.0000 0.0000 0.0000 0.0000 -0.2217 19.9815
#
#
#
# Elastic Compliance Matrix: (Units=1/GPa)
#
#
# Indices 1 2 3 4 5 6 
#
# 1 0.016746 -0.008279 -0.002850 0.000246 0.000000 0.000000
# 2 -0.008279 0.016746 -0.002850 -0.000246 0.000000 0.000000
# 3 -0.002850 -0.002850 0.014188 0.000000 0.000000 0.000000
# 4 0.000246 -0.000246 0.000000 0.044302 0.000000 0.000000
# 5 0.000000 0.000000 0.000000 0.000000 0.044302 0.000491
# 6 0.000000 0.000000 0.000000 0.000000 0.000491 0.050052
#
#
# Mechanical properties :
#
#
# Convention : Reuss Voigt Hill
#
# Bulk Modulus (GPa) = 50.70698 51.60088 51.15393
# Shear Modulus (GPa) = 22.63764 23.35042 22.99403
#
# Velocity S-wave (km/s) = 3.52660 3.58169 3.55426
# Velocity P-wave (km/s) = 6.66638 6.74195 6.70427
#
# Compressibility (1/GPa) = 0.01972115
#
# Stress axis : x y z
#
# Youngs Moduli (GPa) = 59.71399 59.71399 70.48166
#
# Poissons Ratio (x) = 0.49440 0.20089
# Poissons Ratio (y) = 0.49440 0.20089
# Poissons Ratio (z) = 0.17020 0.17020
#
# Static dielectric constant tensor:
#      x y z
#    x 3.281370 0.000000 0.000000 
#    y 0.000000 3.281370 0.000000 
#    z 0.000000 0.000000 3.533410 
# 
# 
# High freq. dielectric constant tensor:
#      x y z
#    x 1.686750 0.000000 0.000000 
#    y 0.000000 1.686750 0.000000 
#    z 0.000000 0.000000 1.715780 
# 
# From -- ./inp_files/3517.got.cif
#   From: 2010.03.12/outbox.cif.g09.slc.cpg/sg164_2_cif.got.tgz:3517.got - 2010.04.02 06:32:59.
