data_PCOD8323884
_publ_section_title
;
Structure prediction by ZEFSAII (Michael W. Deem and Ramdas Pophale) SiO2 
 PCOD8323884
Probable space group: P -3 C 1
;
_chemical_formula_sum "Si O2"
_cell_formula_units_Z 78
_cell_length_a 23.385170
_cell_length_b 23.385170
_cell_length_c 8.765213
_cell_angle_alpha 90.000000
_cell_angle_beta 90.000000
_cell_angle_gamma 120.000000
_cell_volume 4151.204884
_symmetry_space_group_name_H-M "P -3 C 1"
_symmetry_group_IT_number 165
_symmetry_cell_setting 'hexagonal'
loop_
_space_group_symop_operation_xyz
x,y,z
-y,x-y,z
-x+y,-x,z
x-y,-y,1/2-z
-x,-x+y,1/2-z
y,x,1/2-z
-x,-y,-z
y,-x+y,-z
x-y,x,-z
-x+y,y,1/2+z
x,x-y,1/2+z
-y,-x,1/2+z
loop_
_atom_site_type_symbol
_atom_site_label
_atom_site_fract_x
_atom_site_fract_y
_atom_site_fract_z
Si Si1 0.773745 0.941206 0.850155
Si Si2 0.220667 0.677027 0.211312
Si Si3 0.069071 0.811971 0.179875
Si Si4 0.396674 0.162868 0.742179
Si Si5 0.283372 0.408529 0.595969
Si Si6 0.000000 0.693136 0.750000
Si Si7 0.791267 0.347376 0.441145
O O1 0.759890 0.871008 0.795255
O O2 0.832913 0.000000 0.750000
O O3 0.709036 0.949559 0.842198
O O4 0.787539 0.943173 0.029842
O O5 0.169833 0.704721 0.197216
O O6 0.190302 0.610582 0.111849
O O7 0.293003 0.729532 0.153477
O O8 0.229391 0.661233 0.383685
O O9 0.107876 0.771568 0.157223
O O10 0.000000 0.760598 0.250000
O O11 0.400100 0.232939 0.768284
O O12 0.384874 0.142346 0.563281
O O13 0.320310 0.367016 0.636129
O O14 0.340328 0.484598 0.584021
#
# Coordination Sequence:
#
# PCOD8323884 Si02
#       7
#    12  12  12  12  12   6  12
#     4  10  22  36  55  84 115 141 183 220 272 317
#     4  10  20  34  54  76 111 139 180 230 273 332
#     4  12  21  35  59  84 114 147 179 227 269 321
#     4  10  20  35  54  82 108 141 182 222 274 321
#     4  10  20  35  57  78 110 142 181 226 270 327
#     4  10  20  36  56  78 112 140 180 226 268 316
#     4  10  20  34  53  80 104 143 182 223 280 327
#
# _framework density 18.789726999999999
#
# number of rings (size 3 to 8) (size 9 to 14) (size 15 to 20)
#    0.462    1.231    1.538    4.000    0.000    1.231 
#    0.000    0.000    1.692    2.154    0.000    2.154 
#    0.000    0.000    0.000    0.000    0.000    0.000 
#
# Total GULP energy -966706.895550 kJ/mol
# GULP energy per Si atom -12393.678148 kJ/mol
# Density = 1.874696 g / cm^3
# Si number density = 18.789727 Si / 1000 Ang^3
#
#
#
# Elastic Constant Matrix: (Units=GPa)
#
#
# Indices 1 2 3 4 5 6 
#
# 1 85.1521 36.6780 23.1175 1.0743 0.0000 0.0000
# 2 36.6780 85.1521 23.1175 -1.0743 0.0000 0.0000
# 3 23.1175 23.1175 94.2777 0.0000 0.0000 0.0000
# 4 1.0743 -1.0743 0.0000 22.3050 0.0000 0.0000
# 5 0.0000 0.0000 0.0000 0.0000 22.3050 1.0743
# 6 0.0000 0.0000 0.0000 0.0000 1.0743 24.2370
#
#
#
# Elastic Compliance Matrix: (Units=1/GPa)
#
#
# Indices 1 2 3 4 5 6 
#
# 1 0.014862 -0.005812 -0.002219 -0.000996 0.000000 0.000000
# 2 -0.005812 0.014862 -0.002219 0.000996 0.000000 0.000000
# 3 -0.002219 -0.002219 0.011695 0.000000 0.000000 0.000000
# 4 -0.000996 0.000996 0.000000 0.044929 0.000000 0.000000
# 5 0.000000 0.000000 0.000000 0.000000 0.044929 -0.001991
# 6 0.000000 0.000000 0.000000 0.000000 -0.001991 0.041347
#
#
# Mechanical properties :
#
#
# Convention : Reuss Voigt Hill
#
# Bulk Modulus (GPa) = 47.80302 47.82308 47.81305
# Shear Modulus (GPa) = 24.98777 25.88067 25.43422
#
# Velocity S-wave (km/s) = 3.65069 3.71534 3.68315
# Velocity P-wave (km/s) = 6.57771 6.62661 6.60221
#
# Compressibility (1/GPa) = 0.02091918
#
# Stress axis : x y z
#
# Youngs Moduli (GPa) = 67.28550 67.28550 85.50456
#
# Poissons Ratio (x) = 0.39104 0.18975
# Poissons Ratio (y) = 0.39104 0.18975
# Poissons Ratio (z) = 0.14932 0.14932
#
# Static dielectric constant tensor:
#      x y z
#    x 3.323330 0.000000 0.000000 
#    y 0.000000 3.323330 0.000000 
#    z 0.000000 0.000000 3.533250 
# 
# 
# High freq. dielectric constant tensor:
#      x y z
#    x 1.712060 0.000000 0.000000 
#    y 0.000000 1.712060 0.000000 
#    z 0.000000 0.000000 1.739850 
# 
# From -- ./inp_files/818.got.cif
#   From: 2010.03.12/outbox.cif.g09.slc.cpg/sg165_1_cif.got.tgz:818.got - 2010.04.02 06:36:38.
