data_PCOD8323542
_publ_section_title
;
Structure prediction by ZEFSAII (Michael W. Deem and Ramdas Pophale) SiO2 
 PCOD8323542
Probable space group: P -3 M 1
;
_chemical_formula_sum "Si O2"
_cell_formula_units_Z 54
_cell_length_a 17.253387
_cell_length_b 17.253387
_cell_length_c 11.037059
_cell_angle_alpha 90.000000
_cell_angle_beta 90.000000
_cell_angle_gamma 120.000000
_cell_volume 2845.330528
_symmetry_space_group_name_H-M "P -3 M 1"
_symmetry_group_IT_number 164
_symmetry_cell_setting 'hexagonal'
loop_
_space_group_symop_operation_xyz
x,y,z
-y,x-y,z
-x+y,-x,z
x-y,-y,-z
-x,-x+y,-z
y,x,-z
-x,-y,-z
y,-x+y,-z
x-y,x,-z
-x+y,y,z
x,x-y,z
-y,-x,z
loop_
_atom_site_type_symbol
_atom_site_label
_atom_site_fract_x
_atom_site_fract_y
_atom_site_fract_z
Si Si1 0.096848 0.725614 0.374850
Si Si2 0.489022 0.333219 0.858212
Si Si3 0.250652 0.925859 0.756544
Si Si4 0.668884 0.155543 0.397869
Si Si5 0.000000 0.343846 0.000000
O O1 0.171011 0.828990 0.386635
O O2 0.119264 0.674951 0.271146
O O3 0.092245 0.673495 0.497918
O O4 0.004881 0.724567 0.342736
O O5 0.482343 0.241172 0.898862
O O6 0.591967 0.408034 0.849746
O O7 0.439255 0.359141 0.958794
O O8 0.144607 0.855394 0.743160
O O9 0.307379 0.875764 0.728204
O O10 0.271517 0.966248 0.891589
O O11 0.570716 0.141431 0.388428
O O12 0.740450 0.259550 0.425465
#
# Coordination Sequence:
#
# PCOD8323542 Si02
#       5
#    12  12  12  12   6
#     4   9  19  34  53  78 106 136 170 211 264 323
#     4  10  19  31  48  70  97 130 170 216 263 312
#     4  10  21  36  55  77 102 136 178 224 274 325
#     4  10  20  34  53  80 114 150 185 220 260 309
#     4  10  21  36  50  68  97 136 182 222 265 322
#
# _framework density 18.978463000000001
#
# number of rings (size 3 to 8) (size 9 to 14) (size 15 to 20)
#    0.000    2.222    0.000    2.778    0.000    7.111 
#    0.000    2.222    0.000    3.111    0.000    0.778 
#    0.000    5.333    0.000    0.000    0.000    0.000 
#
# Total GULP energy -669553.396619 kJ/mol
# GULP energy per Si atom -12399.136974 kJ/mol
# Density = 1.893527 g / cm^3
# Si number density = 18.978463 Si / 1000 Ang^3
#
#
#
# Elastic Constant Matrix: (Units=GPa)
#
#
# Indices 1 2 3 4 5 6 
#
# 1 97.6652 54.1287 29.0130 -2.0747 0.0000 0.0000
# 2 54.1287 97.6652 29.0130 2.0747 0.0000 0.0000
# 3 29.0130 29.0130 74.6829 0.0000 0.0000 0.0000
# 4 -2.0747 2.0747 0.0000 23.2087 0.0000 0.0000
# 5 0.0000 0.0000 0.0000 0.0000 23.2087 -2.0747
# 6 0.0000 0.0000 0.0000 0.0000 -2.0747 21.7683
#
#
#
# Elastic Compliance Matrix: (Units=1/GPa)
#
#
# Indices 1 2 3 4 5 6 
#
# 1 0.015452 -0.007715 -0.003006 0.002071 0.000000 0.000000
# 2 -0.007715 0.015452 -0.003006 -0.002071 0.000000 0.000000
# 3 -0.003006 -0.003006 0.015725 0.000000 0.000000 0.000000
# 4 0.002071 -0.002071 0.000000 0.043458 0.000000 0.000000
# 5 0.000000 0.000000 0.000000 0.000000 0.043458 0.004142
# 6 0.000000 0.000000 0.000000 0.000000 0.004142 0.046333
#
#
# Mechanical properties :
#
#
# Convention : Reuss Voigt Hill
#
# Bulk Modulus (GPa) = 52.14749 54.92475 53.53612
# Shear Modulus (GPa) = 23.39494 24.16104 23.77799
#
# Velocity S-wave (km/s) = 3.51481 3.57189 3.54346
# Velocity P-wave (km/s) = 6.63390 6.78341 6.70907
#
# Compressibility (1/GPa) = 0.01917638
#
# Stress axis : x y z
#
# Youngs Moduli (GPa) = 64.71772 64.71772 63.59220
#
# Poissons Ratio (x) = 0.49929 0.19113
# Poissons Ratio (y) = 0.49929 0.19113
# Poissons Ratio (z) = 0.19452 0.19452
#
# Static dielectric constant tensor:
#      x y z
#    x 3.431050 0.000000 0.000000 
#    y 0.000000 3.431050 0.000000 
#    z 0.000000 0.000000 3.616380 
# 
# 
# High freq. dielectric constant tensor:
#      x y z
#    x 1.726370 0.000000 0.000000 
#    y 0.000000 1.726370 0.000000 
#    z 0.000000 0.000000 1.745780 
# 
# From -- ./inp_files/2539.got.cif
#   From: 2010.03.12/outbox.cif.g09.slc.cpg/sg164_2_cif.got.tgz:2539.got - 2010.04.02 06:32:59.
