data_PCOD8323937
_publ_section_title
;
Structure prediction by ZEFSAII (Michael W. Deem and Ramdas Pophale) SiO2 
 PCOD8323937
Probable space group: P -3 C 1
;
_chemical_formula_sum "Si O2"
_cell_formula_units_Z 48
_cell_length_a 10.929263
_cell_length_b 10.929263
_cell_length_c 19.280302
_cell_angle_alpha 90.000000
_cell_angle_beta 90.000000
_cell_angle_gamma 120.000000
_cell_volume 1994.464073
_symmetry_space_group_name_H-M "P -3 C 1"
_symmetry_group_IT_number 165
_symmetry_cell_setting 'hexagonal'
loop_
_space_group_symop_operation_xyz
x,y,z
-y,x-y,z
-x+y,-x,z
x-y,-y,1/2-z
-x,-x+y,1/2-z
y,x,1/2-z
-x,-y,-z
y,-x+y,-z
x-y,x,-z
-x+y,y,1/2+z
x,x-y,1/2+z
-y,-x,1/2+z
loop_
_atom_site_type_symbol
_atom_site_label
_atom_site_fract_x
_atom_site_fract_y
_atom_site_fract_z
Si Si1 0.073828 0.720176 0.177674
Si Si2 0.382827 0.959378 0.175001
Si Si3 0.475905 0.837109 0.947424
Si Si4 0.987708 0.730306 0.468496
O O1 0.225065 0.847087 0.153575
O O2 0.103049 0.590560 0.179985
O O3 0.976117 0.718138 0.113765
O O4 0.000000 0.727636 0.250000
O O5 0.355747 0.000000 0.250000
O O6 0.454821 0.096721 0.126194
O O7 0.310478 0.793326 0.952910
O O8 0.569445 0.945280 0.008411
O O9 0.849301 0.739308 0.486354
#
# Coordination Sequence:
#
# PCOD8323937 Si02
#       4
#    12  12  12  12
#     4  11  27  45  72 109 150 194 244 299 370 439
#     4  11  25  44  71 104 151 189 240 299 366 440
#     4  10  25  44  75 109 148 186 244 313 372 424
#     4  12  26  47  73 106 150 197 251 301 362 439
#
# _framework density 24.066617999999998
#
# number of rings (size 3 to 8) (size 9 to 14) (size 15 to 20)
#    0.500    0.500    2.500    2.250   14.000    2.000 
#    0.000    0.000    0.000    0.500    0.000    0.000 
#    0.000    0.000    0.000    0.000    0.000    0.000 
#
# Total GULP energy -594870.742113 kJ/mol
# GULP energy per Si atom -12393.140461 kJ/mol
# Density = 2.401184 g / cm^3
# Si number density = 24.066618 Si / 1000 Ang^3
#
#
#
# Elastic Constant Matrix: (Units=GPa)
#
#
# Indices 1 2 3 4 5 6 
#
# 1 58.3257 19.9713 12.5274 -0.4897 0.0000 0.0000
# 2 19.9713 58.3257 12.5274 0.4897 0.0000 0.0000
# 3 12.5274 12.5274 181.0172 0.0000 0.0000 0.0000
# 4 -0.4897 0.4897 0.0000 37.2225 0.0000 0.0000
# 5 0.0000 0.0000 0.0000 0.0000 37.2225 -0.4897
# 6 0.0000 0.0000 0.0000 0.0000 -0.4897 19.1772
#
#
#
# Elastic Compliance Matrix: (Units=1/GPa)
#
#
# Indices 1 2 3 4 5 6 
#
# 1 0.019571 -0.006510 -0.000904 0.000343 0.000000 0.000000
# 2 -0.006510 0.019571 -0.000904 -0.000343 0.000000 0.000000
# 3 -0.000904 -0.000904 0.005649 0.000000 0.000000 0.000000
# 4 0.000343 -0.000343 0.000000 0.026875 0.000000 0.000000
# 5 0.000000 0.000000 0.000000 0.000000 0.026875 0.000686
# 6 0.000000 0.000000 0.000000 0.000000 0.000686 0.052163
#
#
# Mechanical properties :
#
#
# Convention : Reuss Voigt Hill
#
# Bulk Modulus (GPa) = 35.51628 43.08008 39.29818
# Shear Modulus (GPa) = 28.29256 35.56728 31.92992
#
# Velocity S-wave (km/s) = 3.43241 3.84848 3.64638
# Velocity P-wave (km/s) = 5.52251 6.13896 5.83888
#
# Compressibility (1/GPa) = 0.02815610
#
# Stress axis : x y z
#
# Youngs Moduli (GPa) = 51.09536 51.09536 177.00849
#
# Poissons Ratio (x) = 0.33264 0.16000
# Poissons Ratio (y) = 0.33264 0.16000
# Poissons Ratio (z) = 0.04619 0.04619
#
# Static dielectric constant tensor:
#      x y z
#    x 4.498930 0.000000 0.000000 
#    y 0.000000 4.498930 0.000000 
#    z 0.000000 0.000000 4.397090 
# 
# 
# High freq. dielectric constant tensor:
#      x y z
#    x 1.966490 0.000000 0.000000 
#    y 0.000000 1.966490 0.000000 
#    z 0.000000 0.000000 1.961970 
# 
# From -- ./inp_files/2530.got.cif
#   From: 2010.03.12/outbox.cif.g09.slc.cpg/sg165_2_cif.got.tgz:2530.got - 2010.04.02 06:36:38.
