data_PCOD8323433
_publ_section_title
;
Structure prediction by ZEFSAII (Michael W. Deem and Ramdas Pophale) SiO2 
 PCOD8323433
Probable space group: P -3 M 1
;
_chemical_formula_sum "Si O2"
_cell_formula_units_Z 84
_cell_length_a 18.398311
_cell_length_b 18.398311
_cell_length_c 19.171616
_cell_angle_alpha 90.000000
_cell_angle_beta 90.000000
_cell_angle_gamma 120.000000
_cell_volume 5620.115810
_symmetry_space_group_name_H-M "P -3 M 1"
_symmetry_group_IT_number 164
_symmetry_cell_setting 'hexagonal'
loop_
_space_group_symop_operation_xyz
x,y,z
-y,x-y,z
-x+y,-x,z
x-y,-y,-z
-x,-x+y,-z
y,x,-z
-x,-y,-z
y,-x+y,-z
x-y,x,-z
-x+y,y,z
x,x-y,z
-y,-x,z
loop_
_atom_site_type_symbol
_atom_site_label
_atom_site_fract_x
_atom_site_fract_y
_atom_site_fract_z
Si Si1 0.668015 0.502538 0.158189
Si Si2 0.533513 0.630184 0.692919
Si Si3 0.497464 0.165478 0.841811
Si Si4 0.906090 0.651286 0.579233
Si Si5 0.651286 0.906090 0.579233
Si Si6 0.369816 0.903327 0.307082
Si Si7 0.413713 0.413713 0.079274
O O1 0.752755 0.505509 0.132516
O O2 0.589769 0.410231 0.143334
O O3 0.676472 0.523750 0.240118
O O4 0.657497 0.573154 0.116606
O O5 0.443323 0.556678 0.667469
O O6 0.571690 0.694032 0.628920
O O7 0.592170 0.592169 0.714881
O O8 0.589770 0.179540 0.856670
O O9 0.494490 0.247245 0.867484
O O10 0.476255 0.152723 0.759882
O O11 0.426846 0.084343 0.883393
O O12 0.844333 0.688665 0.590937
O O13 0.900378 0.619391 0.500000
O O14 0.877656 0.571690 0.628921
O O15 0.000000 0.725285 0.596826
O O16 0.688664 0.844332 0.590937
O O17 0.443323 0.886646 0.332535
O O18 0.500000 0.500000 0.084337
O O19 0.385816 0.385816 0.000000
#
# Coordination Sequence:
#
# PCOD8323433 Si02
#       7
#    12  12  12  12  12  12  12
#     4  10  18  29  45  65  87 113 145 179 212 250
#     4   9  16  27  43  62  84 111 142 174 210 252
#     4  10  18  29  45  65  87 113 145 179 212 250
#     4   9  17  28  42  61  85 113 145 180 216 253
#     4   9  17  28  42  61  85 113 145 180 216 253
#     4   9  16  27  43  62  84 111 142 174 210 252
#     4   9  18  32  46  60  83 113 140 170 213 256
#
# _framework density 14.946311
#
# number of rings (size 3 to 8) (size 9 to 14) (size 15 to 20)
#    0.000    2.714    1.429    1.143    0.000    1.143 
#    0.000    2.857    0.000    2.571    0.000    2.000 
#    0.000    0.000    0.000    0.429    0.000    1.857 
#
# Total GULP energy -1041361.915564 kJ/mol
# GULP energy per Si atom -12397.165661 kJ/mol
# Density = 1.491229 g / cm^3
# Si number density = 14.946311 Si / 1000 Ang^3
#
#
#
# Elastic Constant Matrix: (Units=GPa)
#
#
# Indices 1 2 3 4 5 6 
#
# 1 89.9044 46.0524 45.3364 -0.0001 0.0000 0.0000
# 2 46.0524 89.9044 45.3364 0.0001 0.0000 0.0000
# 3 45.3364 45.3364 76.6905 0.0000 0.0000 0.0000
# 4 -0.0001 0.0001 0.0000 14.5403 0.0000 0.0000
# 5 0.0000 0.0000 0.0000 0.0000 14.5403 -0.0001
# 6 0.0000 0.0000 0.0000 0.0000 -0.0001 21.9260
#
#
#
# Elastic Compliance Matrix: (Units=1/GPa)
#
#
# Indices 1 2 3 4 5 6 
#
# 1 0.017473 -0.005331 -0.007178 0.000000 0.000000 0.000000
# 2 -0.005331 0.017473 -0.007178 0.000000 0.000000 0.000000
# 3 -0.007178 -0.007178 0.021526 0.000000 0.000000 0.000000
# 4 0.000000 0.000000 0.000000 0.068774 0.000000 0.000000
# 5 0.000000 0.000000 0.000000 0.000000 0.068774 0.000000
# 6 0.000000 0.000000 0.000000 0.000000 0.000000 0.045608
#
#
# Mechanical properties :
#
#
# Convention : Reuss Voigt Hill
#
# Bulk Modulus (GPa) = 58.48404 58.88333 58.68369
# Shear Modulus (GPa) = 17.56215 18.18627 17.87421
#
# Velocity S-wave (km/s) = 3.43157 3.49201 3.46192
# Velocity P-wave (km/s) = 7.41048 7.46599 7.43829
#
# Compressibility (1/GPa) = 0.01709868
#
# Stress axis : x y z
#
# Youngs Moduli (GPa) = 57.23019 57.23019 46.45457
#
# Poissons Ratio (x) = 0.30508 0.33346
# Poissons Ratio (y) = 0.30508 0.33346
# Poissons Ratio (z) = 0.41081 0.41081
#
# Static dielectric constant tensor:
#      x y z
#    x 2.784170 0.000000 0.000000 
#    y 0.000000 2.784170 0.000000 
#    z 0.000000 0.000000 2.925100 
# 
# 
# High freq. dielectric constant tensor:
#      x y z
#    x 1.554000 0.000000 0.000000 
#    y 0.000000 1.554000 0.000000 
#    z 0.000000 0.000000 1.576090 
# 
# From -- ./inp_files/4659.got.cif
#   From: 2010.03.12/outbox.cif.g09.slc.cpg/sg164_3_cif.got.tgz:4659.got - 2010.04.02 06:32:59.
