data_PCOD8323636
_publ_section_title
;
Structure prediction by ZEFSAII (Michael W. Deem and Ramdas Pophale) SiO2 
 PCOD8323636
Probable space group: P -3 M 1
;
_chemical_formula_sum "Si O2"
_cell_formula_units_Z 54
_cell_length_a 12.704134
_cell_length_b 12.704134
_cell_length_c 22.771184
_cell_angle_alpha 90.000000
_cell_angle_beta 90.000000
_cell_angle_gamma 120.000000
_cell_volume 3182.778210
_symmetry_space_group_name_H-M "P -3 M 1"
_symmetry_group_IT_number 164
_symmetry_cell_setting 'hexagonal'
loop_
_space_group_symop_operation_xyz
x,y,z
-y,x-y,z
-x+y,-x,z
x-y,-y,-z
-x,-x+y,-z
y,x,-z
-x,-y,-z
y,-x+y,-z
x-y,x,-z
-x+y,y,z
x,x-y,z
-y,-x,z
loop_
_atom_site_type_symbol
_atom_site_label
_atom_site_fract_x
_atom_site_fract_y
_atom_site_fract_z
Si Si1 0.090405 0.423268 0.264748
Si Si2 0.754263 0.998526 0.162806
Si Si3 0.246184 0.246184 0.500000
Si Si4 0.333186 0.420582 0.054275
Si Si5 0.909313 0.333252 0.601506
O O1 0.230396 0.460791 0.254331
O O2 0.077647 0.538824 0.248061
O O3 0.050095 0.381704 0.331653
O O4 0.002782 0.309914 0.224009
O O5 0.870906 0.129095 0.153767
O O6 0.795727 0.897864 0.162850
O O7 0.659584 0.974153 0.111356
O O8 0.230154 0.115077 0.496157
O O9 0.316822 0.317301 0.441553
O O10 0.217233 0.434466 0.040629
O O11 0.447036 0.552965 0.065513
O O12 0.353673 0.353673 0.000000
O O13 0.917708 0.458854 0.585535
O O14 0.771210 0.228791 0.591106
#
# Coordination Sequence:
#
# PCOD8323636 Si02
#       5
#    12  12   6  12  12
#     4   9  17  30  50  74  97 121 152 194 242 288
#     4  10  20  33  49  70  97 129 164 200 237 278
#     4  10  20  32  46  66  94 128 162 194 230 276
#     4  10  20  34  53  76 101 129 161 198 239 283
#     4   9  17  30  49  72  95 120 153 195 241 285
#
# _framework density 16.966308000000001
#
# number of rings (size 3 to 8) (size 9 to 14) (size 15 to 20)
#    0.000    2.444    0.000    2.667    0.000    2.667 
#    0.000    2.222    0.000   11.556    0.000    0.000 
#    0.000    0.000    0.000    0.000    0.000    0.000 
#
# Total GULP energy -669700.012474 kJ/mol
# GULP energy per Si atom -12401.852083 kJ/mol
# Density = 1.692769 g / cm^3
# Si number density = 16.966308 Si / 1000 Ang^3
#
#
#
# Elastic Constant Matrix: (Units=GPa)
#
#
# Indices 1 2 3 4 5 6 
#
# 1 105.8045 63.3402 65.1624 -3.0973 0.0000 0.0000
# 2 63.3402 105.8045 65.1624 3.0973 0.0000 0.0000
# 3 65.1624 65.1624 113.2662 0.0000 0.0000 0.0000
# 4 -3.0973 3.0973 0.0000 26.1093 0.0000 0.0000
# 5 0.0000 0.0000 0.0000 0.0000 26.1093 -3.0973
# 6 0.0000 0.0000 0.0000 0.0000 -3.0973 21.2321
#
#
#
# Elastic Compliance Matrix: (Units=1/GPa)
#
#
# Indices 1 2 3 4 5 6 
#
# 1 0.017292 -0.006672 -0.006109 0.002843 0.000000 0.000000
# 2 -0.006672 0.017292 -0.006109 -0.002843 0.000000 0.000000
# 3 -0.006109 -0.006109 0.015858 0.000000 0.000000 0.000000
# 4 0.002843 -0.002843 0.000000 0.038975 0.000000 0.000000
# 5 0.000000 0.000000 0.000000 0.000000 0.038975 0.005686
# 6 0.000000 0.000000 0.000000 0.000000 0.005686 0.047928
#
#
# Mechanical properties :
#
#
# Convention : Reuss Voigt Hill
#
# Bulk Modulus (GPa) = 78.99208 79.13392 79.06300
# Shear Modulus (GPa) = 22.90205 23.43747 23.16976
#
# Velocity S-wave (km/s) = 3.67802 3.72077 3.69946
# Velocity P-wave (km/s) = 8.04341 8.07477 8.05910
#
# Compressibility (1/GPa) = 0.01265950
#
# Stress axis : x y z
#
# Youngs Moduli (GPa) = 57.83154 57.83154 63.05902
#
# Poissons Ratio (x) = 0.38587 0.38525
# Poissons Ratio (y) = 0.38587 0.38525
# Poissons Ratio (z) = 0.35331 0.35331
#
# Static dielectric constant tensor:
#      x y z
#    x 3.095380 0.000000 0.000000 
#    y 0.000000 3.095380 0.000000 
#    z 0.000000 0.000000 3.395010 
# 
# 
# High freq. dielectric constant tensor:
#      x y z
#    x 1.649940 0.000000 0.000000 
#    y 0.000000 1.649940 0.000000 
#    z 0.000000 0.000000 1.669160 
# 
# From -- ./inp_files/4839.got.cif
#   From: 2010.03.12/outbox.cif.g09.slc.cpg/sg164_3_cif.got.tgz:4839.got - 2010.04.02 06:32:59.
