data_PCOD8323675
_publ_section_title
;
Structure prediction by ZEFSAII (Michael W. Deem and Ramdas Pophale) SiO2 
 PCOD8323675
Probable space group: P -3 M 1
;
_chemical_formula_sum "Si O2"
_cell_formula_units_Z 66
_cell_length_a 12.615515
_cell_length_b 12.615515
_cell_length_c 28.345137
_cell_angle_alpha 90.000000
_cell_angle_beta 90.000000
_cell_angle_gamma 120.000000
_cell_volume 3906.781844
_symmetry_space_group_name_H-M "P -3 M 1"
_symmetry_group_IT_number 164
_symmetry_cell_setting 'hexagonal'
loop_
_space_group_symop_operation_xyz
x,y,z
-y,x-y,z
-x+y,-x,z
x-y,-y,-z
-x,-x+y,-z
y,x,-z
-x,-y,-z
y,-x+y,-z
x-y,x,-z
-x+y,y,z
x,x-y,z
-y,-x,z
loop_
_atom_site_type_symbol
_atom_site_label
_atom_site_fract_x
_atom_site_fract_y
_atom_site_fract_z
Si Si1 0.665024 0.084949 0.775634
Si Si2 0.666092 0.581539 0.312039
Si Si3 0.756763 0.756868 0.946553
Si Si4 0.333492 0.420145 0.863030
Si Si5 0.750518 0.751568 0.601880
Si Si6 0.000000 0.756054 0.500000
O O1 0.561866 0.123732 0.773890
O O2 0.795718 0.204283 0.774844
O O3 0.654997 0.003134 0.730998
O O4 0.654315 0.010809 0.822750
O O5 0.788956 0.577911 0.304016
O O6 0.556207 0.443794 0.314493
O O7 0.667979 0.649389 0.360199
O O8 0.799438 0.899719 0.941137
O O9 0.643217 0.673427 0.912945
O O10 0.869838 0.739675 0.932052
O O11 0.713220 0.713220 0.000000
O O12 0.209582 0.419163 0.850703
O O13 0.440625 0.559376 0.865719
O O14 0.870886 0.741773 0.610675
O O15 0.687171 0.698742 0.549841
O O16 0.786667 0.893334 0.606559
O O17 0.887986 0.775972 0.508830
#
# Coordination Sequence:
#
# PCOD8323675 Si02
#       6
#    12  12  12  12  12   6
#     4  10  20  34  52  72  93 117 147 186 231 277
#     4  10  20  33  49  68  92 124 159 192 225 267
#     4   9  17  30  49  72  97 126 161 202 247 291
#     4  10  20  33  50  71  97 129 162 195 229 271
#     4   9  16  27  45  69  95 121 151 191 239 286
#     4   8  13  22  39  64  92 120 150 186 232 284
#
# _framework density 16.893699999999999
#
# number of rings (size 3 to 8) (size 9 to 14) (size 15 to 20)
#    0.000    2.545    0.000    2.636    0.000    2.545 
#    0.000    2.273    0.000    5.818    0.000    0.000 
#    0.000    0.000    0.000    0.000    0.000    0.000 
#
# Total GULP energy -818151.364183 kJ/mol
# GULP energy per Si atom -12396.232791 kJ/mol
# Density = 1.685525 g / cm^3
# Si number density = 16.893700 Si / 1000 Ang^3
#
#
#
# Elastic Constant Matrix: (Units=GPa)
#
#
# Indices 1 2 3 4 5 6 
#
# 1 93.1231 53.7483 59.2960 0.0197 0.0000 0.0000
# 2 53.7483 93.1231 59.2960 -0.0197 0.0000 0.0000
# 3 59.2960 59.2960 139.3508 0.0000 0.0000 0.0000
# 4 0.0197 -0.0197 0.0000 20.7973 0.0000 0.0000
# 5 0.0000 0.0000 0.0000 0.0000 20.7973 0.0197
# 6 0.0000 0.0000 0.0000 0.0000 0.0197 19.6874
#
#
#
# Elastic Compliance Matrix: (Units=1/GPa)
#
#
# Indices 1 2 3 4 5 6 
#
# 1 0.017885 -0.007512 -0.004414 -0.000024 0.000000 0.000000
# 2 -0.007512 0.017885 -0.004414 0.000024 0.000000 0.000000
# 3 -0.004414 -0.004414 0.010932 0.000000 0.000000 0.000000
# 4 -0.000024 0.000024 0.000000 0.048083 0.000000 0.000000
# 5 0.000000 0.000000 0.000000 0.000000 0.048083 -0.000048
# 6 0.000000 0.000000 0.000000 0.000000 -0.000048 0.050794
#
#
# Mechanical properties :
#
#
# Convention : Reuss Voigt Hill
#
# Bulk Modulus (GPa) = 71.31317 74.47531 72.89424
# Shear Modulus (GPa) = 21.64356 22.47351 22.05853
#
# Velocity S-wave (km/s) = 3.58321 3.65127 3.61740
# Velocity P-wave (km/s) = 7.70868 7.87122 7.79037
#
# Compressibility (1/GPa) = 0.01402266
#
# Stress axis : x y z
#
# Youngs Moduli (GPa) = 55.91349 55.91349 91.47190
#
# Poissons Ratio (x) = 0.42004 0.40373
# Poissons Ratio (y) = 0.42004 0.40373
# Poissons Ratio (z) = 0.24678 0.24678
#
# Static dielectric constant tensor:
#      x y z
#    x 3.005670 0.000000 0.000000 
#    y 0.000000 3.005670 0.000000 
#    z 0.000000 0.000000 3.486810 
# 
# 
# High freq. dielectric constant tensor:
#      x y z
#    x 1.640620 0.000000 0.000000 
#    y 0.000000 1.640620 0.000000 
#    z 0.000000 0.000000 1.673280 
# 
# From -- ./inp_files/5430.got.cif
#   From: 2010.03.12/outbox.cif.g09.slc.cpg/sg164_3_cif.got.tgz:5430.got - 2010.04.02 06:32:59.
