data_PCOD8323185
_publ_section_title
;
Structure prediction by ZEFSAII (Michael W. Deem and Ramdas Pophale) SiO2 
 PCOD8323185
Probable space group: P -3 1 C
;
_chemical_formula_sum "Si O2"
_cell_formula_units_Z 96
_cell_length_a 16.220015
_cell_length_b 16.220015
_cell_length_c 26.764809
_cell_angle_alpha 90.000000
_cell_angle_beta 90.000000
_cell_angle_gamma 120.000000
_cell_volume 6098.138492
_symmetry_space_group_name_H-M "P -3 1 C"
_symmetry_group_IT_number 163
_symmetry_cell_setting 'hexagonal'
loop_
_space_group_symop_operation_xyz
x,y,z
-y,x-y,z
-x+y,-x,z
-y,-x,1/2-z
-x+y,y,1/2-z
x,x-y,1/2-z
-x,-y,-z
y,-x+y,-z
x-y,x,-z
y,x,1/2+z
x-y,-y,1/2+z
-x,-x+y,1/2+z
loop_
_atom_site_type_symbol
_atom_site_label
_atom_site_fract_x
_atom_site_fract_y
_atom_site_fract_z
Si Si1 0.289838 1.000000 0.000000
Si Si2 0.478179 0.334237 0.049032
Si Si3 0.380783 0.093105 0.149203
Si Si4 0.712323 0.619217 0.350797
Si Si5 0.002510 0.192721 0.099881
Si Si6 0.138229 0.665056 0.750000
Si Si7 0.521821 0.665763 0.549032
Si Si8 0.809789 0.807279 0.900119
O O1 0.219917 0.976950 0.046386
O O2 0.392874 0.091724 0.009577
O O3 0.242967 0.023050 0.953614
O O4 0.301149 0.908276 0.990423
O O5 0.444563 0.351701 0.103070
O O6 0.567985 0.432015 0.030672
O O7 0.508544 0.254272 0.052207
O O8 0.390438 0.195219 0.150226
O O9 0.270493 0.013692 0.140718
O O10 0.418413 0.075122 0.201434
O O11 0.444563 0.092862 0.103070
O O12 0.656709 0.581587 0.298566
O O13 0.743200 0.729507 0.359282
O O14 0.092104 0.184207 0.117831
O O15 0.911423 0.088577 0.095621
O O16 0.237436 0.762564 0.750000
O O17 0.161876 0.580938 0.750000
#
# Coordination Sequence:
#
# PCOD8323185 Si02
#       8
#    12  12  12  12  12  12  12  12
#     4  10  19  30  43  62  90 118 146 184 233 270
#     4  10  18  29  43  62  86 117 150 181 214 260
#     4   8  17  29  42  61  88 113 137 172 218 256
#     4   8  17  29  42  61  88 113 137 172 218 256
#     4  10  18  30  46  65  86 114 149 186 222 265
#     4  10  17  28  45  66  88 114 144 176 209 252
#     4  10  18  29  43  62  86 117 150 181 214 260
#     4  10  18  30  46  65  86 114 149 186 222 265
#
# _framework density 15.742509
#
# number of rings (size 3 to 8) (size 9 to 14) (size 15 to 20)
#    0.000    2.500    0.000    5.500    0.000    0.000 
#    0.000    4.375    0.000    0.000    0.000    1.750 
#    0.000    0.000    0.000   14.500    0.000    0.000 
#
# Total GULP energy -1190183.865867 kJ/mol
# GULP energy per Si atom -12397.748603 kJ/mol
# Density = 1.570668 g / cm^3
# Si number density = 15.742509 Si / 1000 Ang^3
#
#
#
# Elastic Constant Matrix: (Units=GPa)
#
#
# Indices 1 2 3 4 5 6 
#
# 1 84.4518 32.5355 25.8733 0.0000 0.0000 0.0000
# 2 32.5355 84.4518 25.8733 0.0000 0.0000 0.0000
# 3 25.8733 25.8733 67.4615 0.0000 0.0000 0.0000
# 4 0.0000 0.0000 0.0000 16.2778 0.0000 0.0000
# 5 0.0000 0.0000 0.0000 0.0000 16.2778 0.0000
# 6 0.0000 0.0000 0.0000 0.0000 0.0000 25.9582
#
#
#
# Elastic Compliance Matrix: (Units=1/GPa)
#
#
# Indices 1 2 3 4 5 6 
#
# 1 0.014778 -0.004484 -0.003948 0.000000 0.000000 0.000000
# 2 -0.004484 0.014778 -0.003948 0.000000 0.000000 0.000000
# 3 -0.003948 -0.003948 0.017852 0.000000 0.000000 0.000000
# 4 0.000000 0.000000 0.000000 0.061434 0.000000 0.000000
# 5 0.000000 0.000000 0.000000 0.000000 0.061434 0.000000
# 6 0.000000 0.000000 0.000000 0.000000 0.000000 0.038524
#
#
# Mechanical properties :
#
#
# Convention : Reuss Voigt Hill
#
# Bulk Modulus (GPa) = 44.15452 44.99217 44.57335
# Shear Modulus (GPa) = 20.73762 21.84160 21.28961
#
# Velocity S-wave (km/s) = 3.63340 3.72886 3.68144
# Velocity P-wave (km/s) = 6.76099 6.86886 6.81514
#
# Compressibility (1/GPa) = 0.02264774
#
# Stress axis : x y z
#
# Youngs Moduli (GPa) = 67.66799 67.66799 56.01705
#
# Poissons Ratio (x) = 0.30341 0.22116
# Poissons Ratio (y) = 0.30341 0.22116
# Poissons Ratio (z) = 0.26716 0.26716
#
# Static dielectric constant tensor:
#      x y z
#    x 2.910230 0.000000 0.000000 
#    y 0.000000 2.910230 0.000000 
#    z 0.000000 0.000000 3.184390 
# 
# 
# High freq. dielectric constant tensor:
#      x y z
#    x 1.595470 0.000000 0.000000 
#    y 0.000000 1.595470 0.000000 
#    z 0.000000 0.000000 1.592540 
# 
# From -- ./inp_files/4208.got.cif
#   From: 2010.03.12/outbox.cif.g09.slc.cpg/sg163_3_cif.got.tgz:4208.got - 2010.04.02 06:30:25.
