data_PCOD8323630
_publ_section_title
;
Structure prediction by ZEFSAII (Michael W. Deem and Ramdas Pophale) SiO2 
 PCOD8323630
Probable space group: P -3 M 1
;
_chemical_formula_sum "Si O2"
_cell_formula_units_Z 66
_cell_length_a 12.844417
_cell_length_b 12.844417
_cell_length_c 27.590583
_cell_angle_alpha 90.000000
_cell_angle_beta 90.000000
_cell_angle_gamma 120.000000
_cell_volume 3942.033426
_symmetry_space_group_name_H-M "P -3 M 1"
_symmetry_group_IT_number 164
_symmetry_cell_setting 'hexagonal'
loop_
_space_group_symop_operation_xyz
x,y,z
-y,x-y,z
-x+y,-x,z
x-y,-y,-z
-x,-x+y,-z
y,x,-z
-x,-y,-z
y,-x+y,-z
x-y,x,-z
-x+y,y,z
x,x-y,z
-y,-x,z
loop_
_atom_site_type_symbol
_atom_site_label
_atom_site_fract_x
_atom_site_fract_y
_atom_site_fract_z
Si Si1 0.000000 0.243386 0.000000
Si Si2 0.576906 0.666935 0.637620
Si Si3 0.333491 0.427958 0.170021
Si Si4 0.000125 0.760715 0.444974
Si Si5 0.423634 0.332852 0.087678
Si Si6 0.905895 0.333015 0.719301
O O1 0.022757 0.328490 0.954437
O O2 0.113739 0.227478 0.011256
O O3 0.558904 0.779452 0.644118
O O4 0.448463 0.551538 0.631278
O O5 0.651640 0.675510 0.589807
O O6 0.645138 0.661075 0.685406
O O7 0.205867 0.411734 0.154236
O O8 0.432228 0.567773 0.163282
O O9 0.365107 0.344610 0.137329
O O10 0.330638 0.386762 0.225293
O O11 0.899628 0.799255 0.438433
O O12 0.000000 0.718659 0.500000
O O13 0.126656 0.873345 0.430379
O O14 0.453442 0.226721 0.094211
O O15 0.546002 0.453999 0.074728
O O16 0.871004 0.435502 0.711399
O O17 0.791839 0.208162 0.704183
#
# Coordination Sequence:
#
# PCOD8323630 Si02
#       6
#     6  12  12  12  12  12
#     4  10  20  34  52  72  94 122 158 200 244 288
#     4  10  20  32  46  65  92 126 159 189 223 269
#     4   9  17  30  49  72  95 119 149 187 231 275
#     4   9  17  30  49  71  92 115 147 190 238 283
#     4  10  20  33  49  70  97 128 160 193 230 274
#     4   9  17  30  49  71  93 117 148 189 233 273
#
# _framework density 16.742629000000001
#
# number of rings (size 3 to 8) (size 9 to 14) (size 15 to 20)
#    0.000    2.545    0.000    2.364    0.000    3.273 
#    0.000    0.000    0.000    9.091    0.000    0.000 
#    0.000    0.000    0.000    0.000    0.000    0.000 
#
# Total GULP energy -818516.242512 kJ/mol
# GULP energy per Si atom -12401.761250 kJ/mol
# Density = 1.670452 g / cm^3
# Si number density = 16.742629 Si / 1000 Ang^3
#
#
#
# Elastic Constant Matrix: (Units=GPa)
#
#
# Indices 1 2 3 4 5 6 
#
# 1 113.4946 69.9486 69.0680 0.3179 0.0000 0.0000
# 2 69.9486 113.4946 69.0680 -0.3179 0.0000 0.0000
# 3 69.0680 69.0680 106.3017 0.0000 0.0000 0.0000
# 4 0.3179 -0.3179 0.0000 27.6537 0.0000 0.0000
# 5 0.0000 0.0000 0.0000 0.0000 27.6537 0.3179
# 6 0.0000 0.0000 0.0000 0.0000 0.3179 21.7730
#
#
#
# Elastic Compliance Matrix: (Units=1/GPa)
#
#
# Indices 1 2 3 4 5 6 
#
# 1 0.016821 -0.006147 -0.006935 -0.000264 0.000000 0.000000
# 2 -0.006147 0.016821 -0.006935 0.000264 0.000000 0.000000
# 3 -0.006935 -0.006935 0.018419 0.000000 0.000000 0.000000
# 4 -0.000264 0.000264 0.000000 0.036168 0.000000 0.000000
# 5 0.000000 0.000000 0.000000 0.000000 0.036168 -0.000528
# 6 0.000000 0.000000 0.000000 0.000000 -0.000528 0.045936
#
#
# Mechanical properties :
#
#
# Convention : Reuss Voigt Hill
#
# Bulk Modulus (GPa) = 83.15239 83.27332 83.21286
# Shear Modulus (GPa) = 23.32367 23.76317 23.54342
#
# Velocity S-wave (km/s) = 3.73644 3.77148 3.75400
# Velocity P-wave (km/s) = 8.26967 8.29522 8.28246
#
# Compressibility (1/GPa) = 0.01202611
#
# Stress axis : x y z
#
# Youngs Moduli (GPa) = 59.45047 59.45047 54.29231
#
# Poissons Ratio (x) = 0.36546 0.37651
# Poissons Ratio (y) = 0.36546 0.37651
# Poissons Ratio (z) = 0.41228 0.41228
#
# Static dielectric constant tensor:
#      x y z
#    x 3.095620 0.000000 0.000000 
#    y 0.000000 3.095620 0.000000 
#    z 0.000000 0.000000 3.280940 
# 
# 
# High freq. dielectric constant tensor:
#      x y z
#    x 1.644900 0.000000 0.000000 
#    y 0.000000 1.644900 0.000000 
#    z 0.000000 0.000000 1.653030 
# 
# From -- ./inp_files/5524.got.cif
#   From: 2010.03.12/outbox.cif.g09.slc.cpg/sg164_3_cif.got.tgz:5524.got - 2010.04.02 06:32:59.
