data_PCOD8323556
_publ_section_title
;
Structure prediction by ZEFSAII (Michael W. Deem and Ramdas Pophale) SiO2 
 PCOD8323556
Probable space group: P -3 M 1
;
_chemical_formula_sum "Si O2"
_cell_formula_units_Z 96
_cell_length_a 16.840187
_cell_length_b 16.840187
_cell_length_c 21.376475
_cell_angle_alpha 90.000000
_cell_angle_beta 90.000000
_cell_angle_gamma 120.000000
_cell_volume 5250.014978
_symmetry_space_group_name_H-M "P -3 M 1"
_symmetry_group_IT_number 164
_symmetry_cell_setting 'hexagonal'
loop_
_space_group_symop_operation_xyz
x,y,z
-y,x-y,z
-x+y,-x,z
x-y,-y,-z
-x,-x+y,-z
y,x,-z
-x,-y,-z
y,-x+y,-z
x-y,x,-z
-x+y,y,z
x,x-y,z
-y,-x,z
loop_
_atom_site_type_symbol
_atom_site_label
_atom_site_fract_x
_atom_site_fract_y
_atom_site_fract_z
Si Si1 0.173011 0.998582 0.354477
Si Si2 0.741293 0.075766 0.552490
Si Si3 0.614092 0.646938 0.846654
Si Si4 0.244606 0.307943 0.244401
Si Si5 0.035758 0.610602 0.334994
Si Si6 0.273666 0.370191 0.977727
Si Si7 0.662940 0.149516 0.270505
Si Si8 0.154901 0.665524 0.096133
O O1 0.203103 0.101552 0.369628
O O2 0.200270 0.961307 0.413567
O O3 0.223896 0.996185 0.292469
O O4 0.063829 0.936172 0.344187
O O5 0.817648 0.182353 0.531263
O O6 0.664990 0.073637 0.599657
O O7 0.682637 0.000000 0.500000
O O8 0.714276 0.714894 0.816695
O O9 0.594768 0.687002 0.908742
O O10 0.538067 0.634908 0.796332
O O11 0.619199 0.555183 0.860835
O O12 0.156801 0.313601 0.224252
O O13 0.318820 0.404175 0.277349
O O14 0.061589 0.530795 0.332314
O O15 0.925277 0.568400 0.325399
O O16 0.165731 0.331462 0.977821
O O17 0.285988 0.285988 0.000000
O O18 0.327003 0.454631 0.024953
O O19 0.595393 0.190786 0.280119
O O20 0.768309 0.231692 0.273182
O O21 0.196562 0.598281 0.095743
O O22 0.233991 0.766010 0.120508
#
# Coordination Sequence:
#
# PCOD8323556 Si02
#       8
#    12  12  12  12  12  12  12  12
#     4   9  17  29  46  70 100 132 163 197 238 283
#     4  10  20  33  52  77 104 134 168 204 243 289
#     4  10  19  31  50  73  98 127 162 199 242 297
#     4   9  18  32  50  72  98 127 161 200 241 288
#     4   9  19  34  52  74 100 133 170 207 248 291
#     4   9  19  33  49  69  93 124 162 204 249 296
#     4  10  20  33  50  73 101 132 166 207 253 298
#     4  10  20  34  51  71  96 125 158 196 240 291
#
# _framework density 18.285661000000001
#
# number of rings (size 3 to 8) (size 9 to 14) (size 15 to 20)
#    0.000    2.500    0.000    3.000    0.000    9.500 
#    0.000    0.000    0.000    5.625    0.000    1.750 
#    0.000    0.000    0.000    0.000    0.000    0.000 
#
# Total GULP energy -1189278.697537 kJ/mol
# GULP energy per Si atom -12388.319766 kJ/mol
# Density = 1.824404 g / cm^3
# Si number density = 18.285661 Si / 1000 Ang^3
#
#
#
# Elastic Constant Matrix: (Units=GPa)
#
#
# Indices 1 2 3 4 5 6 
#
# 1 60.6859 25.2061 -2.1508 -2.8045 0.0000 0.0000
# 2 25.2061 60.6859 -2.1508 2.8045 0.0000 0.0000
# 3 -2.1508 -2.1508 47.9040 0.0000 0.0000 0.0000
# 4 -2.8045 2.8045 0.0000 14.8400 0.0000 0.0000
# 5 0.0000 0.0000 0.0000 0.0000 14.8400 -2.8045
# 6 0.0000 0.0000 0.0000 0.0000 -2.8045 17.7399
#
#
#
# Elastic Compliance Matrix: (Units=1/GPa)
#
#
# Indices 1 2 3 4 5 6 
#
# 1 0.020361 -0.008692 0.000524 0.005490 0.000000 0.000000
# 2 -0.008692 0.020361 0.000524 -0.005490 0.000000 0.000000
# 3 0.000524 0.000524 0.020922 0.000000 0.000000 0.000000
# 4 0.005490 -0.005490 0.000000 0.069461 0.000000 0.000000
# 5 0.000000 0.000000 0.000000 0.000000 0.069461 0.010981
# 6 0.000000 0.000000 0.000000 0.000000 0.010981 0.058106
#
#
# Mechanical properties :
#
#
# Convention : Reuss Voigt Hill
#
# Bulk Modulus (GPa) = 21.57252 23.45387 22.51320
# Shear Modulus (GPa) = 17.27642 19.37539 18.32590
#
# Velocity S-wave (km/s) = 3.07711 3.25867 3.16919
# Velocity P-wave (km/s) = 4.94448 5.19739 5.07251
#
# Compressibility (1/GPa) = 0.04635527
#
# Stress axis : x y z
#
# Youngs Moduli (GPa) = 49.11376 49.11376 47.79628
#
# Poissons Ratio (x) = 0.42690 -0.02504
# Poissons Ratio (y) = 0.42690 -0.02504
# Poissons Ratio (z) = -0.02573 -0.02573
#
# Static dielectric constant tensor:
#      x y z
#    x 3.503480 0.000000 0.000000 
#    y 0.000000 3.503480 0.000000 
#    z 0.000000 0.000000 3.408590 
# 
# 
# High freq. dielectric constant tensor:
#      x y z
#    x 1.700130 0.000000 0.000000 
#    y 0.000000 1.700130 0.000000 
#    z 0.000000 0.000000 1.702850 
# 
# From -- ./inp_files/4804.got.cif
#   From: 2010.03.12/outbox.cif.g09.slc.cpg/sg164_3_cif.got.tgz:4804.got - 2010.04.02 06:32:59.
