data_PCOD8323140
_publ_section_title
;
Structure prediction by ZEFSAII (Michael W. Deem and Ramdas Pophale) SiO2 
 PCOD8323140
Probable space group: P -3 1 M 
;
_chemical_formula_sum "Si O2"
_cell_formula_units_Z 72
_cell_length_a 14.444117
_cell_length_b 14.444117
_cell_length_c 20.069584
_cell_angle_alpha 90.000000
_cell_angle_beta 90.000000
_cell_angle_gamma 120.000000
_cell_volume 3626.193687
_symmetry_space_group_name_H-M "P -3 1 M "
_symmetry_group_IT_number 162
_symmetry_cell_setting 'hexagonal'
loop_
_space_group_symop_operation_xyz
x,y,z
-y,x-y,z
-x+y,-x,z
-y,-x,-z
-x+y,y,-z
x,x-y,-z
-x,-y,-z
y,-x+y,-z
x-y,x,-z
y,x,z
x-y,-y,z
-x,-x+y,z
loop_
_atom_site_type_symbol
_atom_site_label
_atom_site_fract_x
_atom_site_fract_y
_atom_site_fract_z
Si Si1 0.247046 0.123535 0.422576
Si Si2 0.555049 0.433936 0.727031
Si Si3 0.747066 0.874463 0.808591
Si Si4 0.554436 0.433111 0.877953
Si Si5 0.798991 0.215517 0.687573
Si Si6 0.581142 0.781765 0.925206
O O1 0.277211 0.138606 0.500000
O O2 0.179614 0.179614 0.402006
O O3 0.357181 0.176318 0.382531
O O4 0.175280 0.000000 0.403352
O O5 0.459527 0.459527 0.725877
O O6 0.588017 0.425281 0.802506
O O7 0.656977 0.529374 0.690613
O O8 0.512948 0.322447 0.689557
O O9 0.810791 0.810791 0.803750
O O10 0.665341 0.841841 0.747702
O O11 0.681166 0.847115 0.876887
O O12 0.830754 0.000000 0.805738
O O13 0.458280 0.458280 0.879073
O O14 0.655161 0.528703 0.915108
O O15 0.513918 0.321208 0.914101
O O16 0.625710 0.812855 0.000000
#
# Coordination Sequence:
#
# PCOD8323140 Si02
#       6
#    12  12  12  12  12  12
#     4  10  21  39  65  98 135 174 214 257 305 355
#     4  11  21  37  62  90 117 153 199 247 306 366
#     4  12  25  42  63  88 120 161 210 261 315 376
#     4  11  22  40  61  84 115 152 198 249 306 368
#     4  12  23  40  65  93 127 162 205 260 309 368
#     4  12  25  40  62  90 121 157 201 256 315 377
#
# _framework density 19.855530999999999
#
# number of rings (size 3 to 8) (size 9 to 14) (size 15 to 20)
#    0.000    0.667    3.333    5.500    0.000    4.000 
#    0.000    2.500    0.000    4.000    0.000    0.000 
#    0.000    0.000    0.000    0.000    0.000    0.000 
#
# Total GULP energy -893308.249213 kJ/mol
# GULP energy per Si atom -12407.059017 kJ/mol
# Density = 1.981034 g / cm^3
# Si number density = 19.855531 Si / 1000 Ang^3
#
#
#
# Elastic Constant Matrix: (Units=GPa)
#
#
# Indices 1 2 3 4 5 6 
#
# 1 95.7981 19.4898 37.2107 0.0000 1.9301 0.0000
# 2 19.4898 95.7981 37.2107 0.0000 -1.9301 0.0000
# 3 37.2107 37.2107 99.2957 0.0000 0.0000 0.0000
# 4 0.0000 0.0000 0.0000 23.9474 0.0000 -1.9301
# 5 1.9301 -1.9301 0.0000 0.0000 23.9474 0.0000
# 6 0.0000 0.0000 0.0000 -1.9301 0.0000 38.1541
#
#
#
# Elastic Compliance Matrix: (Units=1/GPa)
#
#
# Indices 1 2 3 4 5 6 
#
# 1 0.012300 -0.000858 -0.004288 0.000000 -0.001061 0.000000
# 2 -0.000858 0.012300 -0.004288 0.000000 0.001061 0.000000
# 3 -0.004288 -0.004288 0.013285 0.000000 0.000000 0.000000
# 4 0.000000 0.000000 0.000000 0.041929 0.000000 0.002121
# 5 -0.001061 0.001061 0.000000 0.000000 0.041929 0.000000
# 6 0.000000 0.000000 0.000000 0.002121 0.000000 0.026317
#
#
# Mechanical properties :
#
#
# Convention : Reuss Voigt Hill
#
# Bulk Modulus (GPa) = 52.58426 53.19050 52.88738
# Shear Modulus (GPa) = 28.85726 30.34182 29.59954
#
# Velocity S-wave (km/s) = 3.81643 3.91337 3.86521
# Velocity P-wave (km/s) = 6.77946 6.87504 6.82742
#
# Compressibility (1/GPa) = 0.01901710
#
# Stress axis : x y z
#
# Youngs Moduli (GPa) = 81.30012 81.30012 75.27519
#
# Poissons Ratio (x) = 0.06978 0.32276
# Poissons Ratio (y) = 0.06978 0.32276
# Poissons Ratio (z) = 0.34860 0.34860
#
# Static dielectric constant tensor:
#      x y z
#    x 3.639880 0.000000 0.000000 
#    y 0.000000 3.639880 0.000000 
#    z 0.000000 0.000000 3.566410 
# 
# 
# High freq. dielectric constant tensor:
#      x y z
#    x 1.783580 0.000000 0.000000 
#    y 0.000000 1.783580 0.000000 
#    z 0.000000 0.000000 1.760780 
# 
# From -- ./inp_files/3527.got.cif
#   From: 2010.03.12/outbox.cif.g09.slc.cpg/sg162_2_cif.got.tgz:3527.got - 2010.04.02 06:27:41.
