data_PCOD8323823
_publ_section_title
;
Structure prediction by ZEFSAII (Michael W. Deem and Ramdas Pophale) SiO2 
 PCOD8323823
Probable space group: P -3 M 1
;
_chemical_formula_sum "Si O2"
_cell_formula_units_Z 84
_cell_length_a 13.444254
_cell_length_b 13.444254
_cell_length_c 35.227998
_cell_angle_alpha 90.000000
_cell_angle_beta 90.000000
_cell_angle_gamma 120.000000
_cell_volume 5514.320605
_symmetry_space_group_name_H-M "P -3 M 1"
_symmetry_group_IT_number 164
_symmetry_cell_setting 'hexagonal'
loop_
_space_group_symop_operation_xyz
x,y,z
-y,x-y,z
-x+y,-x,z
x-y,-y,-z
-x,-x+y,-z
y,x,-z
-x,-y,-z
y,-x+y,-z
x-y,x,-z
-x+y,y,z
x,x-y,z
-y,-x,z
loop_
_atom_site_type_symbol
_atom_site_label
_atom_site_fract_x
_atom_site_fract_y
_atom_site_fract_z
Si Si1 0.229054 0.228772 0.834766
Si Si2 0.332975 0.895704 0.973922
Si Si3 0.229808 0.230178 0.747287
Si Si4 0.889283 0.557823 0.610657
Si Si5 0.568187 0.899153 0.471819
Si Si6 0.330608 0.898633 0.306767
Si Si7 0.103948 0.437644 0.886709
O O1 0.238880 0.119440 0.846490
O O2 0.262293 0.262887 0.791081
O O3 0.318251 0.333544 0.860570
O O4 0.099275 0.198550 0.842650
O O5 0.432724 0.865448 0.981348
O O6 0.213984 0.786017 0.985608
O O7 0.333309 0.930689 0.930315
O O8 0.348672 0.000000 0.000000
O O9 0.202448 0.101224 0.739040
O O10 0.337018 0.322433 0.722595
O O11 0.118929 0.237857 0.735486
O O12 0.751708 0.503415 0.609502
O O13 0.921523 0.460762 0.612236
O O14 0.938696 0.624741 0.570677
O O15 0.936082 0.625257 0.650659
O O16 0.438759 0.877518 0.472491
O O17 0.564054 0.782027 0.484521
O O18 0.650967 0.000000 0.500000
O O19 0.453452 0.906903 0.302449
O O20 0.231969 0.768032 0.297933
O O21 0.233912 0.467824 0.879264
O O22 0.094713 0.547357 0.875038
#
# Coordination Sequence:
#
# PCOD8323823 Si02
#       7
#    12  12  12  12  12  12  12
#     4   9  17  29  45  63  82 106 137 171 204 237
#     4   9  17  29  45  64  85 110 139 170 203 239
#     4   9  17  29  44  61  81 107 138 169 199 233
#     4   8  13  22  37  57  79 102 129 161 197 235
#     4   9  16  26  41  60  81 104 131 164 200 237
#     4   9  16  26  42  63  84 104 128 162 204 245
#     4   9  17  29  45  64  85 109 137 169 204 241
#
# _framework density 15.233064000000001
#
# number of rings (size 3 to 8) (size 9 to 14) (size 15 to 20)
#    0.000    3.143    0.000    1.000    0.000    5.714 
#    0.000    0.714    0.000    0.857    0.000    0.000 
#    0.000    0.000    0.000    0.000    0.000    0.000 
#
# Total GULP energy -1040914.890820 kJ/mol
# GULP energy per Si atom -12391.843938 kJ/mol
# Density = 1.519839 g / cm^3
# Si number density = 15.233064 Si / 1000 Ang^3
#
#
#
# Elastic Constant Matrix: (Units=GPa)
#
#
# Indices 1 2 3 4 5 6 
#
# 1 89.4126 47.2837 61.9869 -5.2114 0.0000 0.0000
# 2 47.2837 89.4126 61.9869 5.2114 0.0000 0.0000
# 3 61.9869 61.9869 98.7390 0.0000 0.0000 0.0000
# 4 -5.2114 5.2114 0.0000 24.5149 0.0000 0.0000
# 5 0.0000 0.0000 0.0000 0.0000 24.5149 -5.2114
# 6 0.0000 0.0000 0.0000 0.0000 -5.2114 21.0644
#
#
#
# Elastic Compliance Matrix: (Units=1/GPa)
#
#
# Indices 1 2 3 4 5 6 
#
# 1 0.021021 -0.004034 -0.010664 0.005326 0.000000 0.000000
# 2 -0.004034 0.021021 -0.010664 -0.005326 0.000000 0.000000
# 3 -0.010664 -0.010664 0.023518 0.000000 0.000000 0.000000
# 4 0.005326 -0.005326 0.000000 0.043056 0.000000 0.000000
# 5 0.000000 0.000000 0.000000 0.000000 0.043056 0.010652
# 6 0.000000 0.000000 0.000000 0.000000 0.010652 0.050109
#
#
# Mechanical properties :
#
#
# Convention : Reuss Voigt Hill
#
# Bulk Modulus (GPa) = 67.40959 68.89772 68.15365
# Shear Modulus (GPa) = 19.42128 21.10595 20.26362
#
# Velocity S-wave (km/s) = 3.57451 3.72632 3.65120
# Velocity P-wave (km/s) = 7.83482 7.99007 7.91282
#
# Compressibility (1/GPa) = 0.01483468
#
# Stress axis : x y z
#
# Youngs Moduli (GPa) = 47.57178 47.57178 42.52125
#
# Poissons Ratio (x) = 0.19188 0.45346
# Poissons Ratio (y) = 0.19188 0.45346
# Poissons Ratio (z) = 0.50733 0.50733
#
# Static dielectric constant tensor:
#      x y z
#    x 2.756890 0.000000 0.000000 
#    y 0.000000 2.756890 0.000000 
#    z 0.000000 0.000000 3.214990 
# 
# 
# High freq. dielectric constant tensor:
#      x y z
#    x 1.563590 0.000000 0.000000 
#    y 0.000000 1.563590 0.000000 
#    z 0.000000 0.000000 1.595210 
# 
# From -- ./inp_files/5296.got.cif
#   From: 2010.03.12/outbox.cif.g09.slc.cpg/sg164_3_cif.got.tgz:5296.got - 2010.04.02 06:32:59.
