data_PCOD8323129
_publ_section_title
;
Structure prediction by ZEFSAII (Michael W. Deem and Ramdas Pophale) SiO2 
 PCOD8323129
Probable space group: P -3 1 M 
;
_chemical_formula_sum "Si O2"
_cell_formula_units_Z 36
_cell_length_a 12.584799
_cell_length_b 12.584799
_cell_length_c 14.151749
_cell_angle_alpha 90.000000
_cell_angle_beta 90.000000
_cell_angle_gamma 120.000000
_cell_volume 1941.034774
_symmetry_space_group_name_H-M "P -3 1 M "
_symmetry_group_IT_number 162
_symmetry_cell_setting 'hexagonal'
loop_
_space_group_symop_operation_xyz
x,y,z
-y,x-y,z
-x+y,-x,z
-y,-x,-z
-x+y,y,-z
x,x-y,-z
-x,-y,-z
y,-x+y,-z
x-y,x,-z
y,x,z
x-y,-y,z
-x,-x+y,z
loop_
_atom_site_type_symbol
_atom_site_label
_atom_site_fract_x
_atom_site_fract_y
_atom_site_fract_z
Si Si1 0.859701 0.720568 0.608183
Si Si2 0.484169 0.766205 0.269876
Si Si3 0.858266 0.535604 0.060902
O O1 0.838046 0.676091 0.500000
O O2 0.830262 0.830262 0.621080
O O3 0.764853 0.606885 0.670985
O O4 0.000000 0.770726 0.640020
O O5 0.380174 0.804125 0.293535
O O6 0.506132 0.787116 0.159035
O O7 0.000000 0.626183 0.080464
O O8 0.802383 0.604765 0.000000
O O9 0.833749 0.416875 0.000000
#
# Coordination Sequence:
#
# PCOD8323129 Si02
#       3
#    12  12  12
#     4  10  22  40  61  84 113 153 199 246 297 354
#     4  10  21  37  57  84 120 150 192 236 295 357
#     4  11  20  35  57  82 114 151 193 237 286 348
#
# _framework density 18.546806
#
# number of rings (size 3 to 8) (size 9 to 14) (size 15 to 20)
#    0.667    1.000    3.333    1.667    0.000    6.667 
#    0.000    3.333    0.000    0.333    0.000    0.000 
#    0.000    0.000    0.000    0.000    0.000    0.000 
#
# Total GULP energy -446044.093682 kJ/mol
# GULP energy per Si atom -12390.113713 kJ/mol
# Density = 1.850459 g / cm^3
# Si number density = 18.546806 Si / 1000 Ang^3
#
#
#
# Elastic Constant Matrix: (Units=GPa)
#
#
# Indices 1 2 3 4 5 6 
#
# 1 90.8874 32.4492 45.1948 0.0001 5.5365 0.0000
# 2 32.4492 90.8874 45.1948 -0.0001 -5.5365 0.0000
# 3 45.1948 45.1948 97.6785 0.0000 0.0000 0.0000
# 4 0.0001 -0.0001 0.0000 20.8038 0.0000 -5.5365
# 5 5.5365 -5.5365 0.0000 0.0000 20.8038 0.0001
# 6 0.0000 0.0000 0.0000 -5.5365 0.0001 29.2191
#
#
#
# Elastic Compliance Matrix: (Units=1/GPa)
#
#
# Indices 1 2 3 4 5 6 
#
# 1 0.015144 -0.002877 -0.005676 0.000000 -0.004796 0.000000
# 2 -0.002877 0.015144 -0.005676 0.000000 0.004796 0.000000
# 3 -0.005676 -0.005676 0.015490 0.000000 0.000000 0.000000
# 4 0.000000 0.000000 0.000000 0.050621 0.000000 0.009592
# 5 -0.004796 0.004796 0.000000 0.000000 0.050621 0.000000
# 6 0.000000 0.000000 0.000000 0.009592 0.000000 0.036042
#
#
# Mechanical properties :
#
#
# Convention : Reuss Voigt Hill
#
# Bulk Modulus (GPa) = 57.73286 58.34787 58.04037
# Shear Modulus (GPa) = 23.01036 24.60631 23.80833
#
# Velocity S-wave (km/s) = 3.52613 3.64636 3.58675
# Velocity P-wave (km/s) = 6.91186 7.01826 6.96527
#
# Compressibility (1/GPa) = 0.01732116
#
# Stress axis : x y z
#
# Youngs Moduli (GPa) = 66.03141 66.03141 64.55669
#
# Poissons Ratio (x) = 0.18994 0.36643
# Poissons Ratio (y) = 0.18994 0.36643
# Poissons Ratio (z) = 0.37481 0.37481
#
# Static dielectric constant tensor:
#      x y z
#    x 3.319310 0.000000 0.000000 
#    y 0.000000 3.319310 0.000000 
#    z 0.000000 0.000000 3.408780 
# 
# 
# High freq. dielectric constant tensor:
#      x y z
#    x 1.711520 0.000000 0.000000 
#    y 0.000000 1.711520 0.000000 
#    z 0.000000 0.000000 1.722840 
# 
# From -- ./inp_files/2718.got.cif
#   From: 2010.03.12/outbox.cif.g09.slc.cpg/sg162_2_cif.got.tgz:2718.got - 2010.04.02 06:27:41.
