data_PCOD8323881
_publ_section_title
;
Structure prediction by ZEFSAII (Michael W. Deem and Ramdas Pophale) SiO2 
 PCOD8323881
Probable space group: P -3 C 1
;
_chemical_formula_sum "Si O2"
_cell_formula_units_Z 42
_cell_length_a 20.598788
_cell_length_b 20.598788
_cell_length_c 5.278771
_cell_angle_alpha 90.000000
_cell_angle_beta 90.000000
_cell_angle_gamma 120.000000
_cell_volume 1939.754597
_symmetry_space_group_name_H-M "P -3 C 1"
_symmetry_group_IT_number 165
_symmetry_cell_setting 'hexagonal'
loop_
_space_group_symop_operation_xyz
x,y,z
-y,x-y,z
-x+y,-x,z
x-y,-y,1/2-z
-x,-x+y,1/2-z
y,x,1/2-z
-x,-y,-z
y,-x+y,-z
x-y,x,-z
-x+y,y,1/2+z
x,x-y,1/2+z
-y,-x,1/2+z
loop_
_atom_site_type_symbol
_atom_site_label
_atom_site_fract_x
_atom_site_fract_y
_atom_site_fract_z
Si Si1 0.788689 0.150382 0.357708
Si Si2 0.497702 0.075405 0.429337
Si Si3 0.355524 0.355524 0.250000
Si Si4 0.711149 0.471006 0.395345
O O1 0.838607 0.162029 0.606684
O O2 0.762326 0.212143 0.348618
O O3 0.719818 0.066593 0.367253
O O4 0.510843 0.056419 0.137053
O O5 0.411438 0.030446 0.510539
O O6 0.525010 0.162238 0.446594
O O7 0.723975 0.427901 0.630546
#
# Coordination Sequence:
#
# PCOD8323881 Si02
#       4
#    12  12   6  12
#     4  10  22  39  64  89 120 163 197 238 322 380
#     4  12  26  39  60  97 123 155 213 277 320 368
#     4  12  24  42  68  94 128 162 212 262 314 388
#     4  10  19  41  63  78 115 161 196 245 326 381
#
# _framework density 21.652221000000001
#
# number of rings (size 3 to 8) (size 9 to 14) (size 15 to 20)
#    0.000    1.143    5.714    2.571    4.000    3.429 
#    0.000    0.000    0.000   11.429    0.000    0.000 
#    0.000    0.000    0.000    8.571    0.000    0.000 
#
# Total GULP energy -520593.655089 kJ/mol
# GULP energy per Si atom -12395.087026 kJ/mol
# Density = 2.160294 g / cm^3
# Si number density = 21.652221 Si / 1000 Ang^3
#
#
#
# Elastic Constant Matrix: (Units=GPa)
#
#
# Indices 1 2 3 4 5 6 
#
# 1 80.3455 25.7085 49.1980 7.2282 0.0000 0.0000
# 2 25.7085 80.3455 49.1980 -7.2282 0.0000 0.0000
# 3 49.1980 49.1980 232.0456 0.0000 0.0000 0.0000
# 4 7.2282 -7.2282 0.0000 16.9859 0.0000 0.0000
# 5 0.0000 0.0000 0.0000 0.0000 16.9859 7.2282
# 6 0.0000 0.0000 0.0000 0.0000 7.2282 27.3185
#
#
#
# Elastic Compliance Matrix: (Units=1/GPa)
#
#
# Indices 1 2 3 4 5 6 
#
# 1 0.016182 -0.004443 -0.002489 -0.008777 0.000000 0.000000
# 2 -0.004443 0.016182 -0.002489 0.008777 0.000000 0.000000
# 3 -0.002489 -0.002489 0.005365 0.000000 0.000000 0.000000
# 4 -0.008777 0.008777 0.000000 0.066342 0.000000 0.000000
# 5 0.000000 0.000000 0.000000 0.000000 0.066342 -0.017553
# 6 0.000000 0.000000 0.000000 0.000000 -0.017553 0.041250
#
#
# Mechanical properties :
#
#
# Convention : Reuss Voigt Hill
#
# Bulk Modulus (GPa) = 52.94845 71.21618 62.08232
# Shear Modulus (GPa) = 21.11495 30.16683 25.64089
#
# Velocity S-wave (km/s) = 3.12619 3.73667 3.44498
# Velocity P-wave (km/s) = 6.12681 7.18187 6.67522
#
# Compressibility (1/GPa) = 0.01888629
#
# Stress axis : x y z
#
# Youngs Moduli (GPa) = 61.79890 61.79890 186.40010
#
# Poissons Ratio (x) = 0.27459 0.46390
# Poissons Ratio (y) = 0.27459 0.46390
# Poissons Ratio (z) = 0.15380 0.15380
#
# Static dielectric constant tensor:
#      x y z
#    x 3.757550 0.000000 0.000000 
#    y 0.000000 3.757550 0.000000 
#    z 0.000000 0.000000 5.514390 
# 
# 
# High freq. dielectric constant tensor:
#      x y z
#    x 1.816400 0.000000 0.000000 
#    y 0.000000 1.816400 0.000000 
#    z 0.000000 0.000000 1.899160 
# 
# From -- ./inp_files/91.got.cif
#   From: 2010.03.12/outbox.cif.g09.slc.cpg/sg165_1_cif.got.tgz:91.got - 2010.04.02 06:36:38.
