data_PCOD8323544
_publ_section_title
;
Structure prediction by ZEFSAII (Michael W. Deem and Ramdas Pophale) SiO2 
 PCOD8323544
Probable space group: P -3 M 1
;
_chemical_formula_sum "Si O2"
_cell_formula_units_Z 84
_cell_length_a 17.787768
_cell_length_b 17.787768
_cell_length_c 15.386321
_cell_angle_alpha 90.000000
_cell_angle_beta 90.000000
_cell_angle_gamma 120.000000
_cell_volume 4216.075052
_symmetry_space_group_name_H-M "P -3 M 1"
_symmetry_group_IT_number 164
_symmetry_cell_setting 'hexagonal'
loop_
_space_group_symop_operation_xyz
x,y,z
-y,x-y,z
-x+y,-x,z
x-y,-y,-z
-x,-x+y,-z
y,x,-z
-x,-y,-z
y,-x+y,-z
x-y,x,-z
-x+y,y,z
x,x-y,z
-y,-x,z
loop_
_atom_site_type_symbol
_atom_site_label
_atom_site_fract_x
_atom_site_fract_y
_atom_site_fract_z
Si Si1 0.376843 0.456608 0.828670
Si Si2 0.173697 0.173817 0.602247
Si Si3 0.096666 0.362972 0.665327
Si Si4 0.367020 0.265125 0.014336
Si Si5 0.501243 0.669111 0.324875
Si Si6 0.533346 0.899198 0.503786
Si Si7 0.885208 0.360097 0.858070
O O1 0.437683 0.562318 0.818592
O O2 0.341590 0.411245 0.735747
O O3 0.437765 0.424177 0.868721
O O4 0.299959 0.425382 0.898425
O O5 0.189367 0.189367 0.500000
O O6 0.075905 0.151809 0.625179
O O7 0.244614 0.263796 0.648454
O O8 0.185780 0.092890 0.632832
O O9 0.179826 0.359652 0.700207
O O10 0.126466 0.422118 0.579149
O O11 0.318950 0.159475 0.019180
O O12 0.435335 0.292095 0.935599
O O13 0.295683 0.295683 0.000000
O O14 0.456688 0.728344 0.329307
O O15 0.431936 0.568065 0.323635
O O16 0.558030 0.686348 0.411986
O O17 0.554826 0.689858 0.234898
O O18 0.427999 0.855997 0.516778
O O19 0.571941 0.000000 0.500000
O O20 0.838673 0.419337 0.864776
#
# Coordination Sequence:
#
# PCOD8323544 Si02
#       7
#    12  12  12  12  12  12  12
#     4  10  20  36  57  78 104 140 180 220 265 319
#     4   9  18  33  53  77 107 144 186 235 292 347
#     4  11  21  33  51  76 107 143 184 226 266 314
#     4  10  20  36  59  86 114 144 183 230 279 331
#     4  10  19  31  48  71 100 131 164 204 255 316
#     4  10  20  34  50  67  93 133 178 221 264 312
#     4   9  18  33  55  81 106 135 170 213 269 329
#
# _framework density 19.923746000000001
#
# number of rings (size 3 to 8) (size 9 to 14) (size 15 to 20)
#    0.000    2.143    0.000    3.714    0.000    4.571 
#    0.000    7.143    0.000    9.857    0.000    0.000 
#    0.000    0.000    0.000    3.429    0.000    0.000 
#
# Total GULP energy -1040698.530347 kJ/mol
# GULP energy per Si atom -12389.268218 kJ/mol
# Density = 1.987840 g / cm^3
# Si number density = 19.923746 Si / 1000 Ang^3
#
#
#
# Elastic Constant Matrix: (Units=GPa)
#
#
# Indices 1 2 3 4 5 6 
#
# 1 90.4376 39.6345 36.9194 -5.7670 0.0000 0.0000
# 2 39.6345 90.4376 36.9194 5.7670 0.0000 0.0000
# 3 36.9194 36.9194 135.4297 0.0000 0.0000 0.0000
# 4 -5.7670 5.7670 0.0000 15.4643 0.0000 0.0000
# 5 0.0000 0.0000 0.0000 0.0000 15.4643 -5.7670
# 6 0.0000 0.0000 0.0000 0.0000 -5.7670 25.4016
#
#
#
# Elastic Compliance Matrix: (Units=1/GPa)
#
#
# Indices 1 2 3 4 5 6 
#
# 1 0.015300 -0.006204 -0.002480 0.008019 0.000000 0.000000
# 2 -0.006204 0.015300 -0.002480 -0.008019 0.000000 0.000000
# 3 -0.002480 -0.002480 0.008736 0.000000 0.000000 0.000000
# 4 0.008019 -0.008019 0.000000 0.070646 0.000000 0.000000
# 5 0.000000 0.000000 0.000000 0.000000 0.070646 0.016039
# 6 0.000000 0.000000 0.000000 0.000000 0.016039 0.043009
#
#
# Mechanical properties :
#
#
# Convention : Reuss Voigt Hill
#
# Bulk Modulus (GPa) = 58.79293 60.36127 59.57710
# Shear Modulus (GPa) = 19.87013 24.78815 22.32914
#
# Velocity S-wave (km/s) = 3.16145 3.53108 3.35136
# Velocity P-wave (km/s) = 6.54976 6.85468 6.70395
#
# Compressibility (1/GPa) = 0.01700885
#
# Stress axis : x y z
#
# Youngs Moduli (GPa) = 65.35919 65.35919 114.47146
#
# Poissons Ratio (x) = 0.40552 0.28384
# Poissons Ratio (y) = 0.40552 0.28384
# Poissons Ratio (z) = 0.16206 0.16206
#
# Static dielectric constant tensor:
#      x y z
#    x 3.554000 0.000000 0.000000 
#    y 0.000000 3.554000 0.000000 
#    z 0.000000 0.000000 3.737330 
# 
# 
# High freq. dielectric constant tensor:
#      x y z
#    x 1.762320 0.000000 0.000000 
#    y 0.000000 1.762320 0.000000 
#    z 0.000000 0.000000 1.778240 
# 
# From -- ./inp_files/3606.got.cif
#   From: 2010.03.12/outbox.cif.g09.slc.cpg/sg164_2_cif.got.tgz:3606.got - 2010.04.02 06:32:59.
