data_PCOD8323888
_publ_section_title
;
Structure prediction by ZEFSAII (Michael W. Deem and Ramdas Pophale) SiO2 
 PCOD8323888
Probable space group: P -3 C 1
;
_chemical_formula_sum "Si O2"
_cell_formula_units_Z 28
_cell_length_a 6.887413
_cell_length_b 6.887413
_cell_length_c 29.373274
_cell_angle_alpha 90.000000
_cell_angle_beta 90.000000
_cell_angle_gamma 120.000000
_cell_volume 1206.688684
_symmetry_space_group_name_H-M "P -3 C 1"
_symmetry_group_IT_number 165
_symmetry_cell_setting 'hexagonal'
loop_
_space_group_symop_operation_xyz
x,y,z
-y,x-y,z
-x+y,-x,z
x-y,-y,1/2-z
-x,-x+y,1/2-z
y,x,1/2-z
-x,-y,-z
y,-x+y,-z
x-y,x,-z
-x+y,y,1/2+z
x,x-y,1/2+z
-y,-x,1/2+z
loop_
_atom_site_type_symbol
_atom_site_label
_atom_site_fract_x
_atom_site_fract_y
_atom_site_fract_z
Si Si1 0.277378 0.394243 0.204578
Si Si2 0.000000 0.000000 0.553714
Si Si3 0.390804 0.128424 0.615259
O O1 0.527007 0.618971 0.203574
O O2 0.252667 0.252667 0.250000
O O3 0.253116 0.237543 0.161566
O O4 0.227130 0.013919 0.572466
O O5 0.000000 0.000000 0.500000
O O6 0.602921 0.086872 0.613144
#
# Coordination Sequence:
#
# PCOD8323888 Si02
#       3
#    12   4  12
#     4  10  20  34  64 100 147 186 228 277 329 403
#     4  12  27  48  73 104 133 177 237 297 367 425
#     4  10  23  44  68  99 141 180 228 282 352 408
#
# _framework density 23.203997999999999
#
# number of rings (size 3 to 8) (size 9 to 14) (size 15 to 20)
#    1.714    0.000    0.000    5.143    0.000    1.714 
#    2.571    0.000    0.000    3.429    0.000    0.000 
#    0.000    0.000    0.000    0.000    0.000    0.000 
#
# Total GULP energy -346969.562370 kJ/mol
# GULP energy per Si atom -12391.770085 kJ/mol
# Density = 2.315118 g / cm^3
# Si number density = 23.203998 Si / 1000 Ang^3
#
#
#
# Elastic Constant Matrix: (Units=GPa)
#
#
# Indices 1 2 3 4 5 6 
#
# 1 71.5370 2.0914 43.1476 7.8600 0.0000 0.0000
# 2 2.0914 71.5370 43.1476 -7.8600 0.0000 0.0000
# 3 43.1476 43.1476 235.2885 0.0000 0.0000 0.0000
# 4 7.8600 -7.8600 0.0000 35.1093 0.0000 0.0000
# 5 0.0000 0.0000 0.0000 0.0000 35.1093 7.8600
# 6 0.0000 0.0000 0.0000 0.0000 7.8600 34.7228
#
#
#
# Elastic Compliance Matrix: (Units=1/GPa)
#
#
# Indices 1 2 3 4 5 6 
#
# 1 0.016234 0.001066 -0.003173 -0.003396 0.000000 0.000000
# 2 0.001066 0.016234 -0.003173 0.003396 0.000000 0.000000
# 3 -0.003173 -0.003173 0.005414 0.000000 0.000000 0.000000
# 4 -0.003396 0.003396 0.000000 0.030003 0.000000 0.000000
# 5 0.000000 0.000000 0.000000 0.000000 0.030003 -0.006792
# 6 0.000000 0.000000 0.000000 0.000000 -0.006792 0.030337
#
#
# Mechanical properties :
#
#
# Convention : Reuss Voigt Hill
#
# Bulk Modulus (GPa) = 36.59835 61.68174 49.14005
# Shear Modulus (GPa) = 33.80861 40.32000 37.06430
#
# Velocity S-wave (km/s) = 3.82123 4.17301 4.00099
# Velocity P-wave (km/s) = 5.93934 7.06108 6.52436
#
# Compressibility (1/GPa) = 0.02732364
#
# Stress axis : x y z
#
# Youngs Moduli (GPa) = 61.59826 61.59826 184.71795
#
# Poissons Ratio (x) = -0.06565 0.58602
# Poissons Ratio (y) = -0.06565 0.58602
# Poissons Ratio (z) = 0.19542 0.19542
#
# Static dielectric constant tensor:
#      x y z
#    x 3.862310 0.000000 0.000000 
#    y 0.000000 3.862310 0.000000 
#    z 0.000000 0.000000 3.608430 
# 
# 
# High freq. dielectric constant tensor:
#      x y z
#    x 1.911060 0.000000 0.000000 
#    y 0.000000 1.911060 0.000000 
#    z 0.000000 0.000000 1.881800 
# 
# From -- ./inp_files/2787.got.cif
#   From: 2010.03.12/outbox.cif.g09.slc.cpg/sg165_2_cif.got.tgz:2787.got - 2010.04.02 06:36:38.
