data_PCOD8323669
_publ_section_title
;
Structure prediction by ZEFSAII (Michael W. Deem and Ramdas Pophale) SiO2 
 PCOD8323669
Probable space group: P -3 M 1
;
_chemical_formula_sum "Si O2"
_cell_formula_units_Z 66
_cell_length_a 12.768324
_cell_length_b 12.768324
_cell_length_c 28.322061
_cell_angle_alpha 90.000000
_cell_angle_beta 90.000000
_cell_angle_gamma 120.000000
_cell_volume 3998.740990
_symmetry_space_group_name_H-M "P -3 M 1"
_symmetry_group_IT_number 164
_symmetry_cell_setting 'hexagonal'
loop_
_space_group_symop_operation_xyz
x,y,z
-y,x-y,z
-x+y,-x,z
x-y,-y,-z
-x,-x+y,-z
y,x,-z
-x,-y,-z
y,-x+y,-z
x-y,x,-z
-x+y,y,z
x,x-y,z
-y,-x,z
loop_
_atom_site_type_symbol
_atom_site_label
_atom_site_fract_x
_atom_site_fract_y
_atom_site_fract_z
Si Si1 0.334825 0.422688 0.727099
Si Si2 0.240712 0.000000 0.000000
Si Si3 0.576108 0.909786 0.355097
Si Si4 0.665951 0.578605 0.813653
Si Si5 0.667125 0.576112 0.538260
Si Si6 0.754658 0.753488 0.897969
O O1 0.205481 0.410961 0.732268
O O2 0.436596 0.563405 0.727196
O O3 0.338211 0.358629 0.678674
O O4 0.353827 0.352400 0.769822
O O5 0.308780 0.011729 0.950126
O O6 0.220972 0.110486 0.009176
O O7 0.436387 0.872773 0.348292
O O8 0.586810 0.793405 0.341945
O O9 0.620478 0.954388 0.408459
O O10 0.786949 0.573898 0.804917
O O11 0.556876 0.443125 0.819261
O O12 0.672307 0.651970 0.860551
O O13 0.671288 0.671288 0.500000
O O14 0.780950 0.561900 0.529067
O O15 0.553404 0.446597 0.528433
O O16 0.743661 0.871831 0.888803
O O17 0.895119 0.790238 0.893297
#
# Coordination Sequence:
#
# PCOD8323669 Si02
#       6
#    12   6  12  12  12  12
#     4  10  20  33  49  69  93 119 146 179 222 272
#     4   8  13  22  39  64  92 120 150 184 222 264
#     4   9  17  30  49  71  94 121 154 191 227 264
#     4  10  20  33  49  68  90 118 152 189 226 265
#     4   9  17  29  46  69  95 123 155 191 230 268
#     4   9  16  27  45  69  95 121 150 186 228 271
#
# _framework density 16.505195000000001
#
# number of rings (size 3 to 8) (size 9 to 14) (size 15 to 20)
#    0.000    2.727    0.000    2.091    0.000    3.636 
#    0.000    2.273    0.000    6.727    0.000    0.000 
#    0.000    0.000    0.000    0.000    0.000    0.000 
#
# Total GULP energy -818018.503298 kJ/mol
# GULP energy per Si atom -12394.219747 kJ/mol
# Density = 1.646763 g / cm^3
# Si number density = 16.505195 Si / 1000 Ang^3
#
#
#
# Elastic Constant Matrix: (Units=GPa)
#
#
# Indices 1 2 3 4 5 6 
#
# 1 87.6085 46.1535 61.0648 0.5296 0.0000 0.0000
# 2 46.1535 87.6085 61.0648 -0.5296 0.0000 0.0000
# 3 61.0648 61.0648 136.4267 0.0000 0.0000 0.0000
# 4 0.5296 -0.5296 0.0000 25.8538 0.0000 0.0000
# 5 0.0000 0.0000 0.0000 0.0000 25.8538 0.5296
# 6 0.0000 0.0000 0.0000 0.0000 0.5296 20.7275
#
#
#
# Elastic Compliance Matrix: (Units=1/GPa)
#
#
# Indices 1 2 3 4 5 6 
#
# 1 0.018389 -0.005746 -0.005659 -0.000494 0.000000 0.000000
# 2 -0.005746 0.018389 -0.005659 0.000494 0.000000 0.000000
# 3 -0.005659 -0.005659 0.012396 0.000000 0.000000 0.000000
# 4 -0.000494 0.000494 0.000000 0.038699 0.000000 0.000000
# 5 0.000000 0.000000 0.000000 0.000000 0.038699 -0.000989
# 6 0.000000 0.000000 0.000000 0.000000 -0.000989 0.048270
#
#
# Mechanical properties :
#
#
# Convention : Reuss Voigt Hill
#
# Bulk Modulus (GPa) = 66.46429 72.02331 69.24380
# Shear Modulus (GPa) = 23.36604 24.04442 23.70523
#
# Velocity S-wave (km/s) = 3.76663 3.82092 3.79387
# Velocity P-wave (km/s) = 7.69888 7.94968 7.82529
#
# Compressibility (1/GPa) = 0.01504567
#
# Stress axis : x y z
#
# Youngs Moduli (GPa) = 54.38048 54.38048 80.67237
#
# Poissons Ratio (x) = 0.31248 0.45652
# Poissons Ratio (y) = 0.31248 0.45652
# Poissons Ratio (z) = 0.30773 0.30773
#
# Static dielectric constant tensor:
#      x y z
#    x 2.932040 0.000000 0.000000 
#    y 0.000000 2.932040 0.000000 
#    z 0.000000 0.000000 3.476820 
# 
# 
# High freq. dielectric constant tensor:
#      x y z
#    x 1.618320 0.000000 0.000000 
#    y 0.000000 1.618320 0.000000 
#    z 0.000000 0.000000 1.658620 
# 
# From -- ./inp_files/5462.got.cif
#   From: 2010.03.12/outbox.cif.g09.slc.cpg/sg164_3_cif.got.tgz:5462.got - 2010.04.02 06:32:59.
