data_PCOD8323311
_publ_section_title
;
Structure prediction by ZEFSAII (Michael W. Deem and Ramdas Pophale) SiO2 
 PCOD8323311
Probable space group: P -3 1 C
;
_chemical_formula_sum "Si O2"
_cell_formula_units_Z 74
_cell_length_a 11.321382
_cell_length_b 11.321382
_cell_length_c 31.501501
_cell_angle_alpha 90.000000
_cell_angle_beta 90.000000
_cell_angle_gamma 120.000000
_cell_volume 3496.719281
_symmetry_space_group_name_H-M "P -3 1 C"
_symmetry_group_IT_number 163
_symmetry_cell_setting 'hexagonal'
loop_
_space_group_symop_operation_xyz
x,y,z
-y,x-y,z
-x+y,-x,z
-y,-x,1/2-z
-x+y,y,1/2-z
x,x-y,1/2-z
-x,-y,-z
y,-x+y,-z
x-y,x,-z
y,x,1/2+z
x-y,-y,1/2+z
-x,-x+y,1/2+z
loop_
_atom_site_type_symbol
_atom_site_label
_atom_site_fract_x
_atom_site_fract_y
_atom_site_fract_z
Si Si1 0.369279 0.291989 0.887461
Si Si2 0.086948 0.173895 0.750000
Si Si3 0.812337 0.633053 0.170437
Si Si4 0.111302 0.286644 0.018954
Si Si5 0.333334 0.666668 0.921830
Si Si6 0.529749 0.915993 0.533523
Si Si7 0.666667 0.333333 0.177364
Si Si8 0.048508 0.635804 0.115627
O O1 0.257582 0.306047 0.860122
O O2 0.302768 0.238591 0.934052
O O3 0.510403 0.432992 0.884173
O O4 0.402044 0.178404 0.868689
O O5 0.119929 0.262393 0.791833
O O6 0.155741 0.077871 0.750000
O O7 0.707884 0.486338 0.191872
O O8 0.921167 0.608857 0.144712
O O9 0.203142 0.219199 0.013369
O O10 0.180903 0.432366 0.994452
O O11 0.177823 0.601219 0.937445
O O12 0.333334 0.666667 0.872696
O O13 0.500000 0.000000 0.500000
O O14 0.650184 0.018023 0.566055
#
# Coordination Sequence:
#
# PCOD8323311 Si02
#       8
#    12   6  12  12   4  12   4  12
#     4  12  26  43  69  99 144 190 244 308 372 438
#     4  10  26  52  80 116 148 184 232 278 372 464
#     4  12  24  49  79 108 149 185 237 299 376 462
#     4  12  25  41  56  88 130 184 254 311 363 426
#     4  12  24  39  64  91 147 186 249 322 361 432
#     4  12  23  38  60  88 129 191 248 302 366 418
#     4  12  24  43  76 117 141 195 237 309 373 430
#     4  12  25  44  67 101 142 191 248 302 368 438
#
# _framework density 21.162693999999998
#
# number of rings (size 3 to 8) (size 9 to 14) (size 15 to 20)
#    0.162    0.000    6.486    3.405    0.000    0.649 
#    0.973    0.000    0.000    0.000    0.000    0.000 
#    0.000    0.000    0.000    0.000    0.000    0.000 
#
# Total GULP energy -916865.126160 kJ/mol
# GULP energy per Si atom -12390.069272 kJ/mol
# Density = 2.111453 g / cm^3
# Si number density = 21.162694 Si / 1000 Ang^3
#
#
#
# Elastic Constant Matrix: (Units=GPa)
#
#
# Indices 1 2 3 4 5 6 
#
# 1 113.4289 40.2062 40.1708 0.0001 -1.6354 0.0000
# 2 40.2062 113.4287 40.1707 0.0002 1.6355 -0.0001
# 3 40.1708 40.1707 101.0971 0.0000 0.0000 0.0000
# 4 0.0001 0.0002 0.0000 36.3768 0.0002 1.6355
# 5 -1.6354 1.6355 0.0000 0.0002 36.3767 0.0001
# 6 0.0000 -0.0001 0.0000 1.6355 0.0001 36.6112
#
#
#
# Elastic Compliance Matrix: (Units=1/GPa)
#
#
# Indices 1 2 3 4 5 6 
#
# 1 0.010950 -0.002734 -0.003265 0.000000 0.000615 0.000000
# 2 -0.002734 0.010950 -0.003265 0.000000 -0.000615 0.000000
# 3 -0.003265 -0.003265 0.012486 0.000000 0.000000 0.000000
# 4 0.000000 0.000000 0.000000 0.027545 0.000000 -0.001231
# 5 0.000615 -0.000615 0.000000 0.000000 0.027545 0.000000
# 6 0.000000 0.000000 0.000000 -0.001231 0.000000 0.027369
#
#
# Mechanical properties :
#
#
# Convention : Reuss Voigt Hill
#
# Bulk Modulus (GPa) = 63.05362 63.22778 63.14070
# Shear Modulus (GPa) = 35.54675 35.70008 35.62341
#
# Velocity S-wave (km/s) = 4.10285 4.11169 4.10727
# Velocity P-wave (km/s) = 7.23214 7.24453 7.23834
#
# Compressibility (1/GPa) = 0.01585952
#
# Stress axis : x y z
#
# Youngs Moduli (GPa) = 91.32170 91.32156 80.09027
#
# Poissons Ratio (x) = 0.24969 0.26147
# Poissons Ratio (y) = 0.24969 0.26147
# Poissons Ratio (z) = 0.29814 0.29814
#
# Static dielectric constant tensor:
#      x y z
#    x 6.226480 0.000250 0.000020 
#    y 0.000250 6.226770 0.000040 
#    z 0.000020 0.000040 3.666160 
# 
# 
# High freq. dielectric constant tensor:
#      x y z
#    x 1.843030 0.000000 0.000000 
#    y 0.000000 1.843030 0.000000 
#    z 0.000000 0.000000 1.814040 
# 
# From -- ./inp_files/4398.got.cif
#   From: 2010.03.12/outbox.cif.g09.slc.cpg/sg163_3_cif.got.tgz:4398.got - 2010.04.02 06:30:25.
