data_PCOD8323981
_publ_section_title
;
Structure prediction by ZEFSAII (Michael W. Deem and Ramdas Pophale) SiO2 
 PCOD8323981
Probable space group: R -3 M
;
_chemical_formula_sum "Si O2"
_cell_formula_units_Z 216
_cell_length_a 24.350902
_cell_length_b 24.350902
_cell_length_c 25.989282
_cell_angle_alpha 90.000000
_cell_angle_beta 90.000000
_cell_angle_gamma 120.000000
_cell_volume 13346.119801
_symmetry_space_group_name_H-M "R -3 M"
_symmetry_group_IT_number 166
_symmetry_cell_setting 'hexagonal'
loop_
_space_group_symop_operation_xyz
x,y,z
-y,x-y,z
-x+y,-x,z
x-y,-y,-z
-x,-x+y,-z
y,x,-z
-x,-y,-z
y,-x+y,-z
x-y,x,-z
-x+y,y,z
x,x-y,z
-y,-x,z
2/3+x,1/3+y,1/3+z
2/3-y,1/3+x-y,1/3+z
2/3-x+y,1/3-x,1/3+z
2/3+x-y,1/3-y,1/3-z
2/3-x,1/3-x+y,1/3-z
2/3+y,1/3+x,1/3-z
2/3-x,1/3-y,1/3-z
2/3+y,1/3-x+y,1/3-z
2/3+x-y,1/3+x,1/3-z
2/3-x+y,1/3+y,1/3+z
2/3+x,1/3+x-y,1/3+z
2/3-y,1/3-x,1/3+z
1/3+x,2/3+y,2/3+z
1/3-y,2/3+x-y,2/3+z
1/3-x+y,2/3-x,2/3+z
1/3+x-y,2/3-y,2/3-z
1/3-x,2/3-x+y,2/3-z
1/3+y,2/3+x,2/3-z
1/3-x,2/3-y,2/3-z
1/3+y,2/3-x+y,2/3-z
1/3+x-y,2/3+x,2/3-z
1/3-x+y,2/3+y,2/3+z
1/3+x,2/3+x-y,2/3+z
1/3-y,2/3-x,2/3+z
loop_
_atom_site_type_symbol
_atom_site_label
_atom_site_fract_x
_atom_site_fract_y
_atom_site_fract_z
Si Si1 0.935792 0.747473 0.820608
Si Si2 0.782754 0.095951 0.030612
Si Si3 0.851019 0.573829 0.661709
Si Si4 0.169822 0.214858 0.743237
Si Si5 0.369428 0.959032 0.741936
Si Si6 0.681156 0.738383 0.413222
O O1 0.885819 0.771639 0.812787
O O2 0.942375 0.738670 0.880772
O O3 0.907231 0.677107 0.795745
O O4 0.002235 0.798720 0.794250
O O5 0.858074 0.141927 0.035626
O O6 0.747398 0.125726 0.061909
O O7 0.765851 0.029070 0.054477
O O8 0.764496 0.087845 0.970129
O O9 0.789864 0.579728 0.649979
O O10 0.841343 0.507423 0.639235
O O11 0.911299 0.626049 0.629620
O O12 0.869989 0.587295 0.722152
O O13 0.095990 0.191980 0.753977
O O14 0.358556 0.014646 0.763795
#
# Coordination Sequence:
#
# PCOD8323981 Si02
#       6
#    36  36  36  36  36  36
#     4  11  22  33  48  72 100 132 165 197 240 293
#     4  10  19  32  49  69  93 129 166 195 238 285
#     4  10  16  28  49  70  96 128 162 197 232 285
#     4  10  19  32  49  69  94 124 162 204 241 280
#     4  11  19  33  48  69 103 130 160 200 240 280
#     4  10  16  28  44  71  97 128 156 191 233 284
#
# _framework density 16.184480000000001
#
# number of rings (size 3 to 8) (size 9 to 14) (size 15 to 20)
#    0.000    1.667    5.000    5.500    0.000    0.667 
#    0.000    1.667    0.000    2.667    0.000    0.000 
#    0.000    0.000    0.000    8.500    0.000    6.167 
#
# Total GULP energy -892159.780918 kJ/mol
# GULP energy per Si atom -12391.108068 kJ/mol
# Density = 1.614764 g / cm^3
# Si number density = 16.184480 Si / 1000 Ang^3
#
#
#
# Elastic Constant Matrix: (Units=GPa)
#
#
# Indices 1 2 3 4 5 6 
#
# 1 66.7453 35.0068 29.6371 -1.0711 0.0000 0.0000
# 2 35.0068 66.7453 29.6371 1.0711 0.0000 0.0000
# 3 29.6371 29.6371 85.4193 0.0000 0.0000 0.0000
# 4 -1.0711 1.0711 0.0000 17.6170 0.0000 0.0000
# 5 0.0000 0.0000 0.0000 0.0000 17.6170 -1.0711
# 6 0.0000 0.0000 0.0000 0.0000 -1.0711 15.8692
#
#
#
# Elastic Compliance Matrix: (Units=1/GPa)
#
#
# Indices 1 2 3 4 5 6 
#
# 1 0.021977 -0.009660 -0.004274 0.001923 0.000000 0.000000
# 2 -0.009660 0.021977 -0.004274 -0.001923 0.000000 0.000000
# 3 -0.004274 -0.004274 0.014673 0.000000 0.000000 0.000000
# 4 0.001923 -0.001923 0.000000 0.056997 0.000000 0.000000
# 5 0.000000 0.000000 0.000000 0.000000 0.056997 0.003847
# 6 0.000000 0.000000 0.000000 0.000000 0.003847 0.063275
#
#
# Mechanical properties :
#
#
# Convention : Reuss Voigt Hill
#
# Bulk Modulus (GPa) = 45.01933 45.27468 45.14701
# Shear Modulus (GPa) = 17.87534 18.52924 18.20229
#
# Velocity S-wave (km/s) = 3.32697 3.38727 3.35726
# Velocity P-wave (km/s) = 6.52955 6.58278 6.55622
#
# Compressibility (1/GPa) = 0.02221268
#
# Stress axis : x y z
#
# Youngs Moduli (GPa) = 45.50138 45.50138 68.15458
#
# Poissons Ratio (x) = 0.43954 0.29127
# Poissons Ratio (y) = 0.43954 0.29127
# Poissons Ratio (z) = 0.19446 0.19446
#
# Static dielectric constant tensor:
#      x y z
#    x 3.073160 0.000000 0.000000 
#    y 0.000000 3.073160 0.000000 
#    z 0.000000 0.000000 3.150210 
# 
# 
# High freq. dielectric constant tensor:
#      x y z
#    x 1.600300 0.000000 0.000000 
#    y 0.000000 1.600300 0.000000 
#    z 0.000000 0.000000 1.618170 
# 
# From -- ./inp_files/9727.got.cif
#   From: 2010.03.12/outbox.cif.g09.slc.cpg/sg166_5_cif.got.tgz:9727.got - 2010.04.02 06:38:31.
