data_PCOD8323968
_publ_section_title
;
Structure prediction by ZEFSAII (Michael W. Deem and Ramdas Pophale) SiO2 
 PCOD8323968
Probable space group: P -3 C 1
;
_chemical_formula_sum "Si O2"
_cell_formula_units_Z 78
_cell_length_a 22.521184
_cell_length_b 22.521184
_cell_length_c 8.908997
_cell_angle_alpha 90.000000
_cell_angle_beta 90.000000
_cell_angle_gamma 120.000000
_cell_volume 3913.288639
_symmetry_space_group_name_H-M "P -3 C 1"
_symmetry_group_IT_number 165
_symmetry_cell_setting 'hexagonal'
loop_
_space_group_symop_operation_xyz
x,y,z
-y,x-y,z
-x+y,-x,z
x-y,-y,1/2-z
-x,-x+y,1/2-z
y,x,1/2-z
-x,-y,-z
y,-x+y,-z
x-y,x,-z
-x+y,y,1/2+z
x,x-y,1/2+z
-y,-x,1/2+z
loop_
_atom_site_type_symbol
_atom_site_label
_atom_site_fract_x
_atom_site_fract_y
_atom_site_fract_z
Si Si1 0.755496 0.445526 0.691709
Si Si2 0.732682 0.119623 0.022506
Si Si3 0.786506 0.366895 0.885797
Si Si4 0.350533 0.373185 0.977298
Si Si5 0.599341 0.840281 0.817501
Si Si6 0.378817 0.911151 0.741165
Si Si7 0.534881 0.534881 0.250000
O O1 0.803462 0.441901 0.825312
O O2 0.680577 0.414061 0.758504
O O3 0.753811 0.400691 0.549033
O O4 0.788050 0.522439 0.629414
O O5 0.801647 0.160797 0.126165
O O6 0.667255 0.116891 0.108417
O O7 0.752857 0.157121 0.861907
O O8 0.706503 0.039074 0.988777
O O9 0.851276 0.355659 0.881718
O O10 0.286349 0.371971 0.894946
O O11 0.423226 0.419161 0.892423
O O12 0.366390 0.400538 0.148562
O O13 0.458415 0.935945 0.777083
#
# Coordination Sequence:
#
# PCOD8323968 Si02
#       7
#    12  12  12  12  12  12   6
#     4  12  25  42  59  78 116 149 211 259 331 392
#     4  12  25  43  67  90 123 160 206 259 314 393
#     4  12  26  40  59  81 107 157 202 271 321 397
#     4  12  24  45  63 100 127 163 207 264 325 394
#     4  12  24  44  66  90 124 164 204 259 328 389
#     4  12  25  38  62  89 123 157 204 258 327 384
#     4  12  24  40  68  94 130 160 210 272 330 388
#
# _framework density 19.932086000000002
#
# number of rings (size 3 to 8) (size 9 to 14) (size 15 to 20)
#    0.000    0.000    6.154    4.462    2.154    0.000 
#    0.000    0.000    0.000    0.000    0.000    0.000 
#    0.000    0.000    0.000    0.462    0.000    7.692 
#
# Total GULP energy -966278.695241 kJ/mol
# GULP energy per Si atom -12388.188401 kJ/mol
# Density = 1.988672 g / cm^3
# Si number density = 19.932086 Si / 1000 Ang^3
#
#
#
# Elastic Constant Matrix: (Units=GPa)
#
#
# Indices 1 2 3 4 5 6 
#
# 1 86.4738 33.4924 40.4920 -3.2416 0.0000 0.0000
# 2 33.4924 86.4738 40.4920 3.2416 0.0000 0.0000
# 3 40.4920 40.4920 124.4139 0.0000 0.0000 0.0000
# 4 -3.2416 3.2416 0.0000 28.4971 0.0000 0.0000
# 5 0.0000 0.0000 0.0000 0.0000 28.4971 -3.2416
# 6 0.0000 0.0000 0.0000 0.0000 -3.2416 26.4907
#
#
#
# Elastic Compliance Matrix: (Units=1/GPa)
#
#
# Indices 1 2 3 4 5 6 
#
# 1 0.014912 -0.004229 -0.003477 0.002177 0.000000 0.000000
# 2 -0.004229 0.014912 -0.003477 -0.002177 0.000000 0.000000
# 3 -0.003477 -0.003477 0.010301 0.000000 0.000000 0.000000
# 4 0.002177 -0.002177 0.000000 0.035587 0.000000 0.000000
# 5 0.000000 0.000000 0.000000 0.000000 0.035587 0.004355
# 6 0.000000 0.000000 0.000000 0.000000 0.004355 0.038282
#
#
# Mechanical properties :
#
#
# Convention : Reuss Voigt Hill
#
# Bulk Modulus (GPa) = 56.30945 58.47936 57.39440
# Shear Modulus (GPa) = 28.11120 28.88932 28.50026
#
# Velocity S-wave (km/s) = 3.75954 3.81121 3.78546
# Velocity P-wave (km/s) = 6.86713 6.98356 6.92559
#
# Compressibility (1/GPa) = 0.01775901
#
# Stress axis : x y z
#
# Youngs Moduli (GPa) = 67.06071 67.06071 97.07953
#
# Poissons Ratio (x) = 0.28361 0.33753
# Poissons Ratio (y) = 0.28361 0.33753
# Poissons Ratio (z) = 0.23316 0.23316
#
# Static dielectric constant tensor:
#      x y z
#    x 3.636160 0.000000 0.000000 
#    y 0.000000 3.636160 0.000000 
#    z 0.000000 0.000000 3.807950 
# 
# 
# High freq. dielectric constant tensor:
#      x y z
#    x 1.743110 0.000000 0.000000 
#    y 0.000000 1.743110 0.000000 
#    z 0.000000 0.000000 1.813250 
# 
# From -- ./inp_files/800.got.cif
#   From: 2010.03.12/outbox.cif.g09.slc.cpg/sg165_1_cif.got.tgz:800.got - 2010.04.02 06:36:38.
