data_PCOD8323945
_publ_section_title
;
Structure prediction by ZEFSAII (Michael W. Deem and Ramdas Pophale) SiO2 
 PCOD8323945
Probable space group: P -3 C 1
;
_chemical_formula_sum "Si O2"
_cell_formula_units_Z 72
_cell_length_a 14.023046
_cell_length_b 14.023046
_cell_length_c 19.428962
_cell_angle_alpha 90.000000
_cell_angle_beta 90.000000
_cell_angle_gamma 120.000000
_cell_volume 3308.757570
_symmetry_space_group_name_H-M "P -3 C 1"
_symmetry_group_IT_number 165
_symmetry_cell_setting 'hexagonal'
loop_
_space_group_symop_operation_xyz
x,y,z
-y,x-y,z
-x+y,-x,z
x-y,-y,1/2-z
-x,-x+y,1/2-z
y,x,1/2-z
-x,-y,-z
y,-x+y,-z
x-y,x,-z
-x+y,y,1/2+z
x,x-y,1/2+z
-y,-x,1/2+z
loop_
_atom_site_type_symbol
_atom_site_label
_atom_site_fract_x
_atom_site_fract_y
_atom_site_fract_z
Si Si1 0.747244 0.871062 0.010939
Si Si2 0.183760 0.411197 0.632016
Si Si3 0.547682 0.124958 0.423793
Si Si4 0.131457 0.259426 0.258681
Si Si5 0.576732 0.455539 0.076117
Si Si6 0.774151 0.183433 0.112492
O O1 0.698357 0.869111 0.085633
O O2 0.825037 0.818813 0.017325
O O3 0.642663 0.799981 0.963226
O O4 0.119202 0.477640 0.620927
O O5 0.309793 0.501134 0.617197
O O6 0.169072 0.364539 0.708853
O O7 0.591006 0.175620 0.500061
O O8 0.446204 0.002113 0.433424
O O9 0.168802 0.168802 0.250000
O O10 0.166962 0.309766 0.334433
O O11 0.000000 0.200724 0.250000
O O12 0.687774 0.502559 0.119825
O O13 0.479037 0.357693 0.119913
#
# Coordination Sequence:
#
# PCOD8323945 Si02
#       6
#    12  12  12  12  12  12
#     4  12  23  40  64  96 132 178 237 296 348 404
#     4  12  25  42  69  99 136 181 231 282 346 419
#     4  11  21  39  66  96 129 168 217 284 348 400
#     4  12  27  48  70 100 142 190 237 288 346 410
#     4  11  21  39  66  96 129 168 217 284 348 400
#     4  12  25  42  69  99 136 181 231 282 346 419
#
# _framework density 21.760434
#
# number of rings (size 3 to 8) (size 9 to 14) (size 15 to 20)
#    0.000    0.333    3.333    7.000    0.000    1.333 
#    0.000    6.667    0.000    0.000    0.000    0.000 
#    0.000    0.000    0.000    0.000    0.000    0.000 
#
# Total GULP energy -893191.483303 kJ/mol
# GULP energy per Si atom -12405.437268 kJ/mol
# Density = 2.171091 g / cm^3
# Si number density = 21.760434 Si / 1000 Ang^3
#
#
#
# Elastic Constant Matrix: (Units=GPa)
#
#
# Indices 1 2 3 4 5 6 
#
# 1 98.7697 27.4875 11.7641 2.8560 0.0000 0.0000
# 2 27.4875 98.7697 11.7641 -2.8560 0.0000 0.0000
# 3 11.7641 11.7641 62.1143 0.0000 0.0000 0.0000
# 4 2.8560 -2.8560 0.0000 27.4606 0.0000 0.0000
# 5 0.0000 0.0000 0.0000 0.0000 27.4606 2.8560
# 6 0.0000 0.0000 0.0000 0.0000 2.8560 35.6411
#
#
#
# Elastic Compliance Matrix: (Units=1/GPa)
#
#
# Indices 1 2 3 4 5 6 
#
# 1 0.011178 -0.002968 -0.001555 -0.001471 0.000000 0.000000
# 2 -0.002968 0.011178 -0.001555 0.001471 0.000000 0.000000
# 3 -0.001555 -0.001555 0.016688 0.000000 0.000000 0.000000
# 4 -0.001471 0.001471 0.000000 0.036722 0.000000 0.000000
# 5 0.000000 0.000000 0.000000 0.000000 0.036722 -0.002943
# 6 0.000000 0.000000 0.000000 0.000000 -0.002943 0.028293
#
#
# Mechanical properties :
#
#
# Convention : Reuss Voigt Hill
#
# Bulk Modulus (GPa) = 37.19024 40.18722 38.68873
# Shear Modulus (GPa) = 30.88298 32.02164 31.45231
#
# Velocity S-wave (km/s) = 3.77135 3.84024 3.80595
# Velocity P-wave (km/s) = 6.00766 6.17830 6.09358
#
# Compressibility (1/GPa) = 0.02688877
#
# Stress axis : x y z
#
# Youngs Moduli (GPa) = 89.45840 89.45840 59.92205
#
# Poissons Ratio (x) = 0.26554 0.09318
# Poissons Ratio (y) = 0.26554 0.09318
# Poissons Ratio (z) = 0.13910 0.13910
#
# Static dielectric constant tensor:
#      x y z
#    x 3.942620 0.000000 0.000000 
#    y 0.000000 3.942620 0.000000 
#    z 0.000000 0.000000 3.712380 
# 
# 
# High freq. dielectric constant tensor:
#      x y z
#    x 1.869420 0.000000 0.000000 
#    y 0.000000 1.869420 0.000000 
#    z 0.000000 0.000000 1.830860 
# 
# From -- ./inp_files/2279.got.cif
#   From: 2010.03.12/outbox.cif.g09.slc.cpg/sg165_2_cif.got.tgz:2279.got - 2010.04.02 06:36:38.
