data_PCOD8323856
_publ_section_title
;
Structure prediction by ZEFSAII (Michael W. Deem and Ramdas Pophale) SiO2 
 PCOD8323856
Probable space group: P -3 C 1
;
_chemical_formula_sum "Si O2"
_cell_formula_units_Z 62
_cell_length_a 16.114373
_cell_length_b 16.114373
_cell_length_c 16.645401
_cell_angle_alpha 90.000000
_cell_angle_beta 90.000000
_cell_angle_gamma 120.000000
_cell_volume 3743.274863
_symmetry_space_group_name_H-M "P -3 C 1"
_symmetry_group_IT_number 165
_symmetry_cell_setting 'hexagonal'
loop_
_space_group_symop_operation_xyz
x,y,z
-y,x-y,z
-x+y,-x,z
x-y,-y,1/2-z
-x,-x+y,1/2-z
y,x,1/2-z
-x,-y,-z
y,-x+y,-z
x-y,x,-z
-x+y,y,1/2+z
x,x-y,1/2+z
-y,-x,1/2+z
loop_
_atom_site_type_symbol
_atom_site_label
_atom_site_fract_x
_atom_site_fract_y
_atom_site_fract_z
Si Si1 0.015383 0.608462 0.578044
Si Si2 0.333334 0.666668 0.576857
Si Si3 0.333334 0.666668 0.886461
Si Si4 0.061071 0.438935 0.589155
Si Si5 0.443289 0.443289 0.250000
Si Si6 0.493565 0.643496 0.302131
Si Si7 0.736521 0.208039 0.858336
O O1 0.055080 0.534620 0.576021
O O2 0.103922 0.709705 0.606730
O O3 0.983961 0.625112 0.490140
O O4 0.926503 0.575938 0.639269
O O5 0.333334 0.666667 0.481492
O O6 0.422217 0.763539 0.611644
O O7 0.228192 0.638189 0.856996
O O8 0.164188 0.451002 0.603921
O O9 0.999301 0.387019 0.669495
O O10 0.453031 0.548274 0.247138
O O11 0.532141 0.732733 0.239562
#
# Coordination Sequence:
#
# PCOD8323856 Si02
#       7
#    12   4   4  12   6  12  12
#     4  10  21  36  49  70 108 128 179 230 276 297
#     4  12  22  29  46  78  88 128 181 235 242 298
#     4  12  25  29  49  75  97 131 205 211 260 328
#     4  10  20  33  51  69  96 140 168 219 270 310
#     4  10  18  34  48  66 100 128 168 224 284 288
#     4  11  20  34  48  70  96 136 173 234 260 315
#     4  12  19  35  51  70  98 137 182 216 268 316
#
# _framework density 16.563036
#
# number of rings (size 3 to 8) (size 9 to 14) (size 15 to 20)
#    0.000    1.161    5.806    3.484    5.419    0.000 
#    3.484    0.000    0.000    0.000    0.000    0.000 
#    0.000    0.000    0.000    0.581    9.290    0.387 
#
# Total GULP energy -768338.222695 kJ/mol
# GULP energy per Si atom -12392.551979 kJ/mol
# Density = 1.652534 g / cm^3
# Si number density = 16.563036 Si / 1000 Ang^3
#
#
#
# Elastic Constant Matrix: (Units=GPa)
#
#
# Indices 1 2 3 4 5 6 
#
# 1 60.8460 27.9709 37.7853 0.6918 0.0000 0.0000
# 2 27.9709 60.8463 37.7855 -0.6920 0.0000 0.0000
# 3 37.7853 37.7855 160.3277 0.0003 0.0000 0.0000
# 4 0.6918 -0.6920 0.0003 23.5886 0.0000 0.0000
# 5 0.0000 0.0000 0.0000 0.0000 23.5888 0.6916
# 6 0.0000 0.0000 0.0000 0.0000 0.6916 16.4376
#
#
#
# Elastic Compliance Matrix: (Units=1/GPa)
#
#
# Indices 1 2 3 4 5 6 
#
# 1 0.022269 -0.008186 -0.003319 -0.000893 0.000000 0.000000
# 2 -0.008186 0.022269 -0.003319 0.000893 0.000000 0.000000
# 3 -0.003319 -0.003319 0.007802 0.000000 0.000000 0.000000
# 4 -0.000893 0.000893 0.000000 0.042446 0.000000 0.000000
# 5 0.000000 0.000000 0.000000 0.000000 0.042445 -0.001786
# 6 0.000000 0.000000 0.000000 0.000000 -0.001786 0.060911
#
#
# Mechanical properties :
#
#
# Convention : Reuss Voigt Hill
#
# Bulk Modulus (GPa) = 44.06891 54.34480 49.20686
# Shear Modulus (GPa) = 21.24445 24.62155 22.93300
#
# Velocity S-wave (km/s) = 3.58528 3.85975 3.72504
# Velocity P-wave (km/s) = 6.61843 7.26262 6.94799
#
# Compressibility (1/GPa) = 0.02269173
#
# Stress axis : x y z
#
# Youngs Moduli (GPa) = 44.90457 44.90473 128.17774
#
# Poissons Ratio (x) = 0.36760 0.42543
# Poissons Ratio (y) = 0.36760 0.42543
# Poissons Ratio (z) = 0.14904 0.14904
#
# Static dielectric constant tensor:
#      x y z
#    x 2.897150 0.000000 0.000000 
#    y 0.000000 2.897140 0.000000 
#    z 0.000000 0.000000 3.597970 
# 
# 
# High freq. dielectric constant tensor:
#      x y z
#    x 1.597450 0.000000 0.000000 
#    y 0.000000 1.597450 0.000000 
#    z 0.000000 0.000000 1.672030 
# 
# From -- ./inp_files/2237.got.cif
#   From: 2010.03.12/outbox.cif.g09.slc.cpg/sg165_2_cif.got.tgz:2237.got - 2010.04.02 06:36:38.
