data_PCOD8323423
_publ_section_title
;
Structure prediction by ZEFSAII (Michael W. Deem and Ramdas Pophale) SiO2 
 PCOD8323423
Probable space group: P -3 M 1
;
_chemical_formula_sum "Si O2"
_cell_formula_units_Z 96
_cell_length_a 17.275947
_cell_length_b 17.275947
_cell_length_c 22.654187
_cell_angle_alpha 90.000000
_cell_angle_beta 90.000000
_cell_angle_gamma 120.000000
_cell_volume 5855.484542
_symmetry_space_group_name_H-M "P -3 M 1"
_symmetry_group_IT_number 164
_symmetry_cell_setting 'hexagonal'
loop_
_space_group_symop_operation_xyz
x,y,z
-y,x-y,z
-x+y,-x,z
x-y,-y,-z
-x,-x+y,-z
y,x,-z
-x,-y,-z
y,-x+y,-z
x-y,x,-z
-x+y,y,z
x,x-y,z
-y,-x,z
loop_
_atom_site_type_symbol
_atom_site_label
_atom_site_fract_x
_atom_site_fract_y
_atom_site_fract_z
Si Si1 0.586086 0.993945 0.565822
Si Si2 0.238707 0.302706 0.718415
Si Si3 0.847438 0.333295 0.338727
Si Si4 0.506372 0.840024 0.244886
Si Si5 0.641787 0.733936 0.347216
Si Si6 0.817782 0.000370 0.170540
Si Si7 0.759913 0.699657 0.942915
Si Si8 0.154669 0.666202 0.109139
O O1 0.509404 0.018808 0.562962
O O2 0.552108 0.898989 0.598750
O O3 0.624646 0.000000 0.500000
O O4 0.665331 0.074504 0.601050
O O5 0.140652 0.281304 0.701996
O O6 0.307986 0.410646 0.712748
O O7 0.260846 0.252336 0.666667
O O8 0.238320 0.261262 0.782197
O O9 0.848741 0.424371 0.319889
O O10 0.745679 0.254322 0.347340
O O11 0.429834 0.859668 0.266676
O O12 0.469166 0.734583 0.251657
O O13 0.592249 0.895713 0.284920
O O14 0.533504 0.869857 0.177741
O O15 0.650127 0.825064 0.368096
O O16 0.814613 0.907307 0.186917
O O17 0.770410 0.992844 0.108482
O O18 0.920666 0.079335 0.167137
O O19 0.850460 0.700920 0.958653
O O20 0.683819 0.599704 0.925511
O O21 0.726709 0.726709 0.000000
O O22 0.145210 0.572605 0.088384
O O23 0.255920 0.744081 0.096980
#
# Coordination Sequence:
#
# PCOD8323423 Si02
#       8
#    12  12  12  12  12  12  12  12
#     4   9  18  31  44  61  90 124 153 184 223 263
#     4   9  18  31  46  66  92 117 140 177 229 274
#     4   9  17  30  49  70  91 118 154 193 231 272
#     4   9  16  26  42  66  95 122 145 172 210 256
#     4  10  18  28  45  67  88 113 147 183 218 263
#     4  10  19  32  50  70  93 120 150 182 219 269
#     4  10  20  33  48  67  92 121 152 188 228 265
#     4   9  17  29  46  67  91 120 152 185 220 260
#
# _framework density 16.394884999999999
#
# number of rings (size 3 to 8) (size 9 to 14) (size 15 to 20)
#    0.000    2.625    0.000    2.375    0.000    4.250 
#    0.000    0.625    0.000    2.500    0.000    0.000 
#    0.000    2.500    0.000    0.000    0.000    0.000 
#
# Total GULP energy -1189887.173898 kJ/mol
# GULP energy per Si atom -12394.658061 kJ/mol
# Density = 1.635757 g / cm^3
# Si number density = 16.394885 Si / 1000 Ang^3
#
#
#
# Elastic Constant Matrix: (Units=GPa)
#
#
# Indices 1 2 3 4 5 6 
#
# 1 98.7812 53.7116 52.9146 -0.9448 0.0000 0.0000
# 2 53.7116 98.7812 52.9146 0.9448 0.0000 0.0000
# 3 52.9146 52.9146 94.6055 0.0000 0.0000 0.0000
# 4 -0.9448 0.9448 0.0000 23.0210 0.0000 0.0000
# 5 0.0000 0.0000 0.0000 0.0000 23.0210 -0.9448
# 6 0.0000 0.0000 0.0000 0.0000 -0.9448 22.5348
#
#
#
# Elastic Compliance Matrix: (Units=1/GPa)
#
#
# Indices 1 2 3 4 5 6 
#
# 1 0.016472 -0.005754 -0.005995 0.000912 0.000000 0.000000
# 2 -0.005754 0.016472 -0.005995 -0.000912 0.000000 0.000000
# 3 -0.005995 -0.005995 0.017276 0.000000 0.000000 0.000000
# 4 0.000912 -0.000912 0.000000 0.043513 0.000000 0.000000
# 5 0.000000 0.000000 0.000000 0.000000 0.043513 0.001824
# 6 0.000000 0.000000 0.000000 0.000000 0.001824 0.044452
#
#
# Mechanical properties :
#
#
# Convention : Reuss Voigt Hill
#
# Bulk Modulus (GPa) = 67.87433 67.91659 67.89546
# Shear Modulus (GPa) = 22.51259 22.55717 22.53488
#
# Velocity S-wave (km/s) = 3.70962 3.71329 3.71146
# Velocity P-wave (km/s) = 7.73550 7.73952 7.73751
#
# Compressibility (1/GPa) = 0.01473311
#
# Stress axis : x y z
#
# Youngs Moduli (GPa) = 60.70873 60.70873 57.88309
#
# Poissons Ratio (x) = 0.34932 0.34700
# Poissons Ratio (y) = 0.34932 0.34700
# Poissons Ratio (z) = 0.36394 0.36394
#
# Static dielectric constant tensor:
#      x y z
#    x 3.178450 0.000000 0.000000 
#    y 0.000000 3.178450 0.000000 
#    z 0.000000 0.000000 3.007310 
# 
# 
# High freq. dielectric constant tensor:
#      x y z
#    x 1.634370 0.000000 0.000000 
#    y 0.000000 1.634370 0.000000 
#    z 0.000000 0.000000 1.613170 
# 
# From -- ./inp_files/4776.got.cif
#   From: 2010.03.12/outbox.cif.g09.slc.cpg/sg164_3_cif.got.tgz:4776.got - 2010.04.02 06:32:59.
