data_PCOD8323984
_publ_section_title
;
Structure prediction by ZEFSAII (Michael W. Deem and Ramdas Pophale) SiO2 
 PCOD8323984
Probable space group: R -3 M
;
_chemical_formula_sum "Si O2"
_cell_formula_units_Z 216
_cell_length_a 24.638445
_cell_length_b 24.638445
_cell_length_c 24.490288
_cell_angle_alpha 90.000000
_cell_angle_beta 90.000000
_cell_angle_gamma 120.000000
_cell_volume 12875.114908
_symmetry_space_group_name_H-M "R -3 M"
_symmetry_group_IT_number 166
_symmetry_cell_setting 'hexagonal'
loop_
_space_group_symop_operation_xyz
x,y,z
-y,x-y,z
-x+y,-x,z
x-y,-y,-z
-x,-x+y,-z
y,x,-z
-x,-y,-z
y,-x+y,-z
x-y,x,-z
-x+y,y,z
x,x-y,z
-y,-x,z
2/3+x,1/3+y,1/3+z
2/3-y,1/3+x-y,1/3+z
2/3-x+y,1/3-x,1/3+z
2/3+x-y,1/3-y,1/3-z
2/3-x,1/3-x+y,1/3-z
2/3+y,1/3+x,1/3-z
2/3-x,1/3-y,1/3-z
2/3+y,1/3-x+y,1/3-z
2/3+x-y,1/3+x,1/3-z
2/3-x+y,1/3+y,1/3+z
2/3+x,1/3+x-y,1/3+z
2/3-y,1/3-x,1/3+z
1/3+x,2/3+y,2/3+z
1/3-y,2/3+x-y,2/3+z
1/3-x+y,2/3-x,2/3+z
1/3+x-y,2/3-y,2/3-z
1/3-x,2/3-x+y,2/3-z
1/3+y,2/3+x,2/3-z
1/3-x,2/3-y,2/3-z
1/3+y,2/3-x+y,2/3-z
1/3+x-y,2/3+x,2/3-z
1/3-x+y,2/3+y,2/3+z
1/3+x,2/3+x-y,2/3+z
1/3-y,2/3-x,2/3+z
loop_
_atom_site_type_symbol
_atom_site_label
_atom_site_fract_x
_atom_site_fract_y
_atom_site_fract_z
Si Si1 0.594234 0.736831 0.341414
Si Si2 0.686645 0.069873 0.211488
Si Si3 0.379576 0.415886 0.279798
Si Si4 0.201820 0.922834 0.202654
Si Si5 0.858807 0.264791 0.313393
Si Si6 0.813074 0.069439 0.494267
O O1 0.563475 0.781738 0.327608
O O2 0.666667 0.781526 0.333334
O O3 0.572781 0.675430 0.304167
O O4 0.582126 0.715863 0.405126
O O5 0.639441 0.086345 0.179280
O O6 0.731488 0.129173 0.248544
O O7 0.728646 0.061980 0.166667
O O8 0.651647 0.007157 0.249895
O O9 0.428472 0.423028 0.326059
O O10 0.416154 0.468891 0.234635
O O11 0.134708 0.865293 0.186607
O O12 0.252839 0.898821 0.202085
O O13 0.786686 0.213315 0.325573
O O14 0.873219 0.333334 0.333334
O O15 0.884879 0.115122 0.510177
O O16 0.800757 0.000000 0.500000
#
# Coordination Sequence:
#
# PCOD8323984 Si02
#       6
#    36  36  36  36  36  36
#     4  10  17  25  41  65  93 124 156 189 221 257
#     4  10  18  28  43  63  91 123 154 185 223 271
#     4  10  18  30  45  64  94 125 156 186 224 272
#     4   9  17  28  42  64  91 119 149 180 220 268
#     4  10  21  34  50  69  91 122 156 192 236 289
#     4  10  19  29  43  61  85 117 151 187 224 264
#
# _framework density 16.776548999999999
#
# number of rings (size 3 to 8) (size 9 to 14) (size 15 to 20)
#    0.000    2.167    0.000    7.000    0.000    6.333 
#    0.000    0.000    0.000    0.333    0.000    0.000 
#    0.000    0.000    0.000    0.000    0.000    2.667 
#
# Total GULP energy -892048.365120 kJ/mol
# GULP energy per Si atom -12389.560627 kJ/mol
# Density = 1.673836 g / cm^3
# Si number density = 16.776549 Si / 1000 Ang^3
#
#
#
# Elastic Constant Matrix: (Units=GPa)
#
#
# Indices 1 2 3 4 5 6 
#
# 1 58.7647 27.9318 18.9838 0.1366 0.0006 0.0000
# 2 27.9318 58.7647 18.9838 -0.1366 -0.0006 0.0000
# 3 18.9838 18.9838 81.0853 0.0000 0.0000 0.0000
# 4 0.1366 -0.1366 0.0000 7.8512 0.0000 -0.0006
# 5 0.0006 -0.0006 0.0000 0.0000 7.8512 0.1366
# 6 0.0000 0.0000 0.0000 -0.0006 0.1366 15.4164
#
#
#
# Elastic Compliance Matrix: (Units=1/GPa)
#
#
# Indices 1 2 3 4 5 6 
#
# 1 0.022645 -0.009793 -0.003009 -0.000564 -0.000002 0.000000
# 2 -0.009793 0.022645 -0.003009 0.000564 0.000002 0.000000
# 3 -0.003009 -0.003009 0.013742 0.000000 0.000000 0.000000
# 4 -0.000564 0.000564 0.000000 0.127389 0.000000 0.000005
# 5 -0.000002 0.000002 0.000000 0.000000 0.127389 -0.001128
# 6 0.000000 0.000000 0.000000 0.000005 -0.001128 0.064876
#
#
# Mechanical properties :
#
#
# Convention : Reuss Voigt Hill
#
# Bulk Modulus (GPa) = 36.48281 36.71261 36.59771
# Shear Modulus (GPa) = 11.92051 15.07142 13.49597
#
# Velocity S-wave (km/s) = 2.66850 3.00052 2.83937
# Velocity P-wave (km/s) = 5.59357 5.82537 5.71065
#
# Compressibility (1/GPa) = 0.02741017
#
# Stress axis : x y z
#
# Youngs Moduli (GPa) = 44.15966 44.15966 72.77153
#
# Poissons Ratio (x) = 0.43245 0.21897
# Poissons Ratio (y) = 0.43245 0.21897
# Poissons Ratio (z) = 0.13288 0.13288
#
# Static dielectric constant tensor:
#      x y z
#    x 2.923670 0.000000 0.000000 
#    y 0.000000 2.923670 0.000000 
#    z 0.000000 0.000000 3.577160 
# 
# 
# High freq. dielectric constant tensor:
#      x y z
#    x 1.604840 0.000000 0.000000 
#    y 0.000000 1.604840 0.000000 
#    z 0.000000 0.000000 1.672320 
# 
# From -- ./inp_files/8650.got.cif
#   From: 2010.03.12/outbox.cif.g09.slc.cpg/sg166_5_cif.got.tgz:8650.got - 2010.04.02 06:38:31.
