data_PCOD8323330
_publ_section_title
;
Structure prediction by ZEFSAII (Michael W. Deem and Ramdas Pophale) SiO2 
 PCOD8323330
Probable space group: P -3 1 C
;
_chemical_formula_sum "Si O2"
_cell_formula_units_Z 68
_cell_length_a 11.033815
_cell_length_b 11.033815
_cell_length_c 32.007653
_cell_angle_alpha 90.000000
_cell_angle_beta 90.000000
_cell_angle_gamma 120.000000
_cell_volume 3374.705334
_symmetry_space_group_name_H-M "P -3 1 C"
_symmetry_group_IT_number 163
_symmetry_cell_setting 'hexagonal'
loop_
_space_group_symop_operation_xyz
x,y,z
-y,x-y,z
-x+y,-x,z
-y,-x,1/2-z
-x+y,y,1/2-z
x,x-y,1/2-z
-x,-y,-z
y,-x+y,-z
x-y,x,-z
y,x,1/2+z
x-y,-y,1/2+z
-x,-x+y,1/2+z
loop_
_atom_site_type_symbol
_atom_site_label
_atom_site_fract_x
_atom_site_fract_y
_atom_site_fract_z
Si Si1 0.334223 0.944300 0.545287
Si Si2 0.623467 0.670554 0.750000
Si Si3 0.055700 0.389922 0.954713
Si Si4 0.000000 0.000000 0.549861
Si Si5 0.825666 0.174335 0.686886
Si Si6 0.296516 0.148258 0.906735
Si Si7 0.666667 0.333334 0.699279
O O1 0.447009 0.894019 0.545939
O O2 0.185582 0.814418 0.557830
O O3 0.324239 1.000000 0.500000
O O4 0.378794 0.068101 0.579343
O O5 0.483067 0.516934 0.750000
O O6 0.579644 0.789822 0.750000
O O7 0.721715 0.691907 0.710316
O O8 0.721714 0.691906 0.789684
O O9 0.931899 0.310693 0.920657
O O10 0.922295 0.077706 0.566953
O O11 0.000000 0.000000 0.500000
O O12 0.864951 0.135049 0.642732
O O13 0.743176 0.256825 0.680385
O O14 0.666668 0.333334 0.750000
#
# Coordination Sequence:
#
# PCOD8323330 Si02
#       7
#    12  12  12   4  12  12   4
#     4  11  23  41  62  89 124 167 217 273 332 390
#     4  11  23  44  70  98 135 177 216 262 332 401
#     4  11  23  41  62  89 124 167 217 273 332 390
#     4  12  24  45  75  88 128 187 237 270 333 429
#     4  11  24  42  68 100 133 168 223 277 323 402
#     4  12  25  40  66  97 127 168 225 273 333 385
#     4  12  18  48  78  90 120 189 234 258 336 417
#
# _framework density 20.149906999999999
#
# number of rings (size 3 to 8) (size 9 to 14) (size 15 to 20)
#    0.000    0.706    7.059    1.588    4.941    0.000 
#    5.294    0.000    0.000    4.235    0.000    0.000 
#    0.000    0.000    0.000    0.000    0.000    0.000 
#
# Total GULP energy -843219.139819 kJ/mol
# GULP energy per Si atom -12400.281468 kJ/mol
# Density = 2.010404 g / cm^3
# Si number density = 20.149907 Si / 1000 Ang^3
#
#
#
# Elastic Constant Matrix: (Units=GPa)
#
#
# Indices 1 2 3 4 5 6 
#
# 1 103.0071 36.2696 42.0870 0.0000 0.0000 -0.0001
# 2 36.2696 103.0070 42.0870 0.0000 0.0000 0.0000
# 3 42.0870 42.0870 161.4755 0.0000 0.0000 0.0000
# 4 0.0000 0.0000 0.0000 19.8162 0.0000 0.0000
# 5 0.0000 0.0000 0.0000 0.0000 19.8162 0.0000
# 6 -0.0001 0.0000 0.0000 0.0000 0.0000 33.3688
#
#
#
# Elastic Compliance Matrix: (Units=1/GPa)
#
#
# Indices 1 2 3 4 5 6 
#
# 1 0.011753 -0.003231 -0.002221 0.000000 0.000000 0.000000
# 2 -0.003231 0.011753 -0.002221 0.000000 0.000000 0.000000
# 3 -0.002221 -0.002221 0.007351 0.000000 0.000000 0.000000
# 4 0.000000 0.000000 0.000000 0.050464 0.000000 0.000000
# 5 0.000000 0.000000 0.000000 0.000000 0.050464 0.000000
# 6 0.000000 0.000000 0.000000 0.000000 0.000000 0.029968
#
#
# Mechanical properties :
#
#
# Convention : Reuss Voigt Hill
#
# Bulk Modulus (GPa) = 64.47243 67.59742 66.03492
# Shear Modulus (GPa) = 27.43187 31.06998 29.25093
#
# Velocity S-wave (km/s) = 3.69370 3.93102 3.81421
# Velocity P-wave (km/s) = 7.08923 7.36369 7.22776
#
# Compressibility (1/GPa) = 0.01551051
#
# Stress axis : x y z
#
# Youngs Moduli (GPa) = 85.08287 85.08279 136.03954
#
# Poissons Ratio (x) = 0.27489 0.30218
# Poissons Ratio (y) = 0.27489 0.30218
# Poissons Ratio (z) = 0.18899 0.18899
#
# Static dielectric constant tensor:
#      x y z
#    x 3.789690 0.000000 0.000000 
#    y 0.000000 3.789690 0.000000 
#    z 0.000000 0.000000 3.544090 
# 
# 
# High freq. dielectric constant tensor:
#      x y z
#    x 1.794840 0.000000 0.000000 
#    y 0.000000 1.794840 0.000000 
#    z 0.000000 0.000000 1.774550 
# 
# From -- ./inp_files/4368.got.cif
#   From: 2010.03.12/outbox.cif.g09.slc.cpg/sg163_3_cif.got.tgz:4368.got - 2010.04.02 06:30:25.
