data_PCOD8323487
_publ_section_title
;
Structure prediction by ZEFSAII (Michael W. Deem and Ramdas Pophale) SiO2 
 PCOD8323487
Probable space group: P -3 M 1
;
_chemical_formula_sum "Si O2"
_cell_formula_units_Z 72
_cell_length_a 22.931860
_cell_length_b 22.931860
_cell_length_c 9.923842
_cell_angle_alpha 90.000000
_cell_angle_beta 90.000000
_cell_angle_gamma 120.000000
_cell_volume 4519.485905
_symmetry_space_group_name_H-M "P -3 M 1"
_symmetry_group_IT_number 164
_symmetry_cell_setting 'hexagonal'
loop_
_space_group_symop_operation_xyz
x,y,z
-y,x-y,z
-x+y,-x,z
x-y,-y,-z
-x,-x+y,-z
y,x,-z
-x,-y,-z
y,-x+y,-z
x-y,x,-z
-x+y,y,z
x,x-y,z
-y,-x,z
loop_
_atom_site_type_symbol
_atom_site_label
_atom_site_fract_x
_atom_site_fract_y
_atom_site_fract_z
Si Si1 0.245289 0.490578 0.029362
Si Si2 0.325774 0.401770 0.725500
Si Si3 0.122405 0.494549 0.975492
Si Si4 0.505451 0.627855 0.475492
Si Si5 0.404422 0.202211 0.220765
Si Si6 0.754710 0.245291 0.470635
Si Si7 0.325773 0.924003 0.225501
Si Si8 0.797788 0.595576 0.720764
O O1 0.204031 0.528898 0.994032
O O2 0.211254 0.422508 0.937297
O O3 0.236199 0.472398 0.187411
O O4 0.364092 0.464498 0.826822
O O5 0.349908 0.432599 0.577613
O O6 0.244005 0.366508 0.742650
O O7 0.343707 0.343706 0.749999
O O8 0.101769 0.550885 0.998846
O O9 0.082692 0.432600 0.077614
O O10 0.449116 0.550885 0.498846
O O11 0.471101 0.675132 0.494037
O O12 0.535501 0.635908 0.326822
O O13 0.472397 0.236199 0.312587
O O14 0.788745 0.211256 0.562703
O O15 0.244005 0.877495 0.242650
#
# Coordination Sequence:
#
# PCOD8323487 Si02
#       8
#     6  12  12  12   6   6  12   6
#     4   8  16  30  42  54  74 106 132 158 204 242
#     4  10  19  30  45  62  81 107 133 161 206 250
#     4  10  19  30  43  60  83 105 135 176 208 242
#     4  10  19  30  43  60  83 105 135 176 208 242
#     4   8  16  30  44  56  78 102 127 158 190 238
#     4   8  16  30  42  54  74 106 132 158 204 242
#     4  10  19  30  45  62  81 107 133 161 206 250
#     4   8  16  30  44  56  78 102 127 158 190 238
#
# _framework density 15.931017000000001
#
# number of rings (size 3 to 8) (size 9 to 14) (size 15 to 20)
#    0.000    2.667    0.000    2.000    0.000    4.000 
#    1.000    0.000    0.000    0.000    0.000    0.000 
#    0.000    0.000    0.000    0.500    0.000    0.000 
#
# Total GULP energy -891962.849667 kJ/mol
# GULP energy per Si atom -12388.372912 kJ/mol
# Density = 1.589476 g / cm^3
# Si number density = 15.931017 Si / 1000 Ang^3
#
#
#
# Elastic Constant Matrix: (Units=GPa)
#
#
# Indices 1 2 3 4 5 6 
#
# 1 72.4332 49.0328 3.8365 0.1290 0.0000 0.0000
# 2 49.0328 72.4332 3.8365 -0.1290 0.0000 0.0000
# 3 3.8365 3.8365 63.3182 0.0000 0.0000 0.0000
# 4 0.1290 -0.1290 0.0000 16.2188 0.0000 0.0000
# 5 0.0000 0.0000 0.0000 0.0000 16.2188 0.1290
# 6 0.0000 0.0000 0.0000 0.0000 0.1290 11.7002
#
#
#
# Elastic Compliance Matrix: (Units=1/GPa)
#
#
# Indices 1 2 3 4 5 6 
#
# 1 0.025501 -0.017237 -0.000501 -0.000340 0.000000 0.000000
# 2 -0.017237 0.025501 -0.000501 0.000340 0.000000 0.000000
# 3 -0.000501 -0.000501 0.015854 0.000000 0.000000 0.000000
# 4 -0.000340 0.000340 0.000000 0.061662 0.000000 0.000000
# 5 0.000000 0.000000 0.000000 0.000000 0.061662 -0.000680
# 6 0.000000 0.000000 0.000000 0.000000 -0.000680 0.085476
#
#
# Mechanical properties :
#
#
# Convention : Reuss Voigt Hill
#
# Bulk Modulus (GPa) = 32.91670 35.73293 34.32482
# Shear Modulus (GPa) = 15.51540 18.92614 17.22077
#
# Velocity S-wave (km/s) = 3.12414 3.45049 3.29136
# Velocity P-wave (km/s) = 5.80694 6.19298 6.00306
#
# Compressibility (1/GPa) = 0.03037971
#
# Stress axis : x y z
#
# Youngs Moduli (GPa) = 39.21370 39.21370 63.07580
#
# Poissons Ratio (x) = 0.67592 0.03159
# Poissons Ratio (y) = 0.67592 0.03159
# Poissons Ratio (z) = 0.01964 0.01964
#
# Static dielectric constant tensor:
#      x y z
#    x 2.932160 0.000000 0.000000 
#    y 0.000000 2.932160 0.000000 
#    z 0.000000 0.000000 3.204390 
# 
# 
# High freq. dielectric constant tensor:
#      x y z
#    x 1.573990 0.000000 0.000000 
#    y 0.000000 1.573990 0.000000 
#    z 0.000000 0.000000 1.641980 
# 
# From -- ./inp_files/2011.got.cif
#   From: 2010.03.12/outbox.cif.g09.slc.cpg/sg164_2_cif.got.tgz:2011.got - 2010.04.02 06:32:59.
