data_PCOD8323656
_publ_section_title
;
Structure prediction by ZEFSAII (Michael W. Deem and Ramdas Pophale) SiO2 
 PCOD8323656
Probable space group: P -3 M 1
;
_chemical_formula_sum "Si O2"
_cell_formula_units_Z 66
_cell_length_a 12.469022
_cell_length_b 12.469022
_cell_length_c 28.763882
_cell_angle_alpha 90.000000
_cell_angle_beta 90.000000
_cell_angle_gamma 120.000000
_cell_volume 3872.959117
_symmetry_space_group_name_H-M "P -3 M 1"
_symmetry_group_IT_number 164
_symmetry_cell_setting 'hexagonal'
loop_
_space_group_symop_operation_xyz
x,y,z
-y,x-y,z
-x+y,-x,z
x-y,-y,-z
-x,-x+y,-z
y,x,-z
-x,-y,-z
y,-x+y,-z
x-y,x,-z
-x+y,y,z
x,x-y,z
-y,-x,z
loop_
_atom_site_type_symbol
_atom_site_label
_atom_site_fract_x
_atom_site_fract_y
_atom_site_fract_z
Si Si1 0.416602 0.084047 0.235516
Si Si2 0.001031 0.751909 0.950984
Si Si3 0.083231 0.667988 0.412094
Si Si4 0.000000 0.747951 0.500000
Si Si5 0.998165 0.747064 0.149664
Si Si6 0.999734 0.249852 0.323853
O O1 0.537178 0.074356 0.244378
O O2 0.455218 0.227609 0.234490
O O3 0.319281 0.011136 0.275928
O O4 0.354494 0.017191 0.187098
O O5 0.875248 0.750495 0.944046
O O6 0.018025 0.699232 0.901581
O O7 0.107316 0.892685 0.957550
O O8 0.000000 0.681885 0.000000
O O9 0.075573 0.537787 0.414237
O O10 0.225606 0.774395 0.415155
O O11 0.005624 0.676464 0.454772
O O12 0.021543 0.676006 0.364547
O O13 0.882445 0.764889 0.495672
O O14 0.130247 0.869754 0.156334
O O15 0.892014 0.784027 0.156745
O O16 0.877371 0.122630 0.335756
O O17 0.110862 0.221723 0.319517
#
# Coordination Sequence:
#
# PCOD8323656 Si02
#       6
#    12  12  12   6  12  12
#     4  10  20  33  48  65  88 120 157 195 232 272
#     4   8  12  18  31  55  87 118 144 172 214 271
#     4  10  20  34  52  74 102 136 171 204 237 277
#     4  10  20  34  54  78 104 134 168 210 256 298
#     4   9  16  26  43  67  93 119 146 182 229 279
#     4  10  20  34  54  78 102 126 152 189 237 287
#
# _framework density 17.041235
#
# number of rings (size 3 to 8) (size 9 to 14) (size 15 to 20)
#    0.000    2.545    0.000    2.909    0.000    2.182 
#    0.000    3.636    0.000    9.636    0.000    0.000 
#    0.000    0.000    0.000    0.000    0.000    0.000 
#
# Total GULP energy -817851.455427 kJ/mol
# GULP energy per Si atom -12391.688719 kJ/mol
# Density = 1.700245 g / cm^3
# Si number density = 17.041235 Si / 1000 Ang^3
#
#
#
# Elastic Constant Matrix: (Units=GPa)
#
#
# Indices 1 2 3 4 5 6 
#
# 1 67.1792 36.3609 36.6475 0.8473 0.0000 0.0000
# 2 36.3609 67.1792 36.6475 -0.8473 0.0000 0.0000
# 3 36.6475 36.6475 130.2447 0.0000 0.0000 0.0000
# 4 0.8473 -0.8473 0.0000 11.8399 0.0000 0.0000
# 5 0.0000 0.0000 0.0000 0.0000 11.8399 0.8473
# 6 0.0000 0.0000 0.0000 0.0000 0.8473 15.4091
#
#
#
# Elastic Compliance Matrix: (Units=1/GPa)
#
#
# Indices 1 2 3 4 5 6 
#
# 1 0.022318 -0.010258 -0.003393 -0.002331 0.000000 0.000000
# 2 -0.010258 0.022318 -0.003393 0.002331 0.000000 0.000000
# 3 -0.003393 -0.003393 0.009588 0.000000 0.000000 0.000000
# 4 -0.002331 0.002331 0.000000 0.084794 0.000000 0.000000
# 5 0.000000 0.000000 0.000000 0.000000 0.084794 -0.004662
# 6 0.000000 0.000000 0.000000 0.000000 -0.004662 0.065153
#
#
# Mechanical properties :
#
#
# Convention : Reuss Voigt Hill
#
# Bulk Modulus (GPa) = 49.66655 53.76832 51.71744
# Shear Modulus (GPa) = 15.16224 18.14759 16.65491
#
# Velocity S-wave (km/s) = 2.98608 3.26685 3.12962
# Velocity P-wave (km/s) = 6.41070 6.77128 6.59346
#
# Compressibility (1/GPa) = 0.02013428
#
# Stress axis : x y z
#
# Youngs Moduli (GPa) = 44.80611 44.80611 104.30229
#
# Poissons Ratio (x) = 0.45963 0.35395
# Poissons Ratio (y) = 0.45963 0.35395
# Poissons Ratio (z) = 0.15205 0.15205
#
# Static dielectric constant tensor:
#      x y z
#    x 2.950710 0.000000 0.000000 
#    y 0.000000 2.950710 0.000000 
#    z 0.000000 0.000000 3.750060 
# 
# 
# High freq. dielectric constant tensor:
#      x y z
#    x 1.634960 0.000000 0.000000 
#    y 0.000000 1.634960 0.000000 
#    z 0.000000 0.000000 1.690160 
# 
# From -- ./inp_files/5477.got.cif
#   From: 2010.03.12/outbox.cif.g09.slc.cpg/sg164_3_cif.got.tgz:5477.got - 2010.04.02 06:32:59.
