data_PCOD8323134
_publ_section_title
;
Structure prediction by ZEFSAII (Michael W. Deem and Ramdas Pophale) SiO2 
 PCOD8323134
Probable space group: P -3 1 M 
;
_chemical_formula_sum "Si O2"
_cell_formula_units_Z 48
_cell_length_a 18.034425
_cell_length_b 18.034425
_cell_length_c 8.907797
_cell_angle_alpha 90.000000
_cell_angle_beta 90.000000
_cell_angle_gamma 120.000000
_cell_volume 2509.028203
_symmetry_space_group_name_H-M "P -3 1 M "
_symmetry_group_IT_number 162
_symmetry_cell_setting 'hexagonal'
loop_
_space_group_symop_operation_xyz
x,y,z
-y,x-y,z
-x+y,-x,z
-y,-x,-z
-x+y,y,-z
x,x-y,-z
-x,-y,-z
y,-x+y,-z
x-y,x,-z
y,x,z
x-y,-y,z
-x,-x+y,z
loop_
_atom_site_type_symbol
_atom_site_label
_atom_site_fract_x
_atom_site_fract_y
_atom_site_fract_z
Si Si1 0.810327 0.620654 0.825685
Si Si2 0.365552 0.899543 0.670146
Si Si3 0.097479 0.902521 0.321730
Si Si4 0.634448 0.533992 0.329855
O O1 0.710883 0.564184 0.786478
O O2 0.854388 0.708777 0.735818
O O3 0.853301 0.564184 0.786477
O O4 0.821319 0.642638 0.000000
O O5 0.437053 0.874106 0.710022
O O6 0.332539 0.871080 0.500000
O O7 0.403996 0.000000 0.686784
O O8 0.098891 0.901110 0.500000
O O9 0.000000 0.854638 0.261953
O O10 0.145363 0.000000 0.261953
O O11 0.596004 0.596004 0.313217
#
# Coordination Sequence:
#
# PCOD8323134 Si02
#       4
#    12  12  12  12
#     4  12  24  35  53  85 120 152 183 221 278 348
#     4   9  19  38  62  83 104 138 187 236 278 322
#     4  10  21  38  60  84 112 150 198 247 287 326
#     4   9  19  38  62  83 104 138 187 236 278 322
#
# _framework density 19.130914000000001
#
# number of rings (size 3 to 8) (size 9 to 14) (size 15 to 20)
#    0.000    2.000    0.000    5.500    0.000   10.000 
#    1.500    2.500    0.000    1.500    0.000    0.000 
#    0.000    0.000    0.000    0.000    0.000    0.000 
#
# Total GULP energy -595329.211841 kJ/mol
# GULP energy per Si atom -12402.691913 kJ/mol
# Density = 1.908737 g / cm^3
# Si number density = 19.130914 Si / 1000 Ang^3
#
#
#
# Elastic Constant Matrix: (Units=GPa)
#
#
# Indices 1 2 3 4 5 6 
#
# 1 104.4217 56.4073 21.0154 0.0000 -0.0002 0.0000
# 2 56.4073 104.4217 21.0154 0.0000 0.0002 0.0000
# 3 21.0154 21.0154 32.6979 0.0000 0.0000 0.0000
# 4 0.0000 0.0000 0.0000 3.0719 0.0000 0.0002
# 5 -0.0002 0.0002 0.0000 0.0000 3.0719 0.0000
# 6 0.0000 0.0000 0.0000 0.0002 0.0000 24.0072
#
#
#
# Elastic Compliance Matrix: (Units=1/GPa)
#
#
# Indices 1 2 3 4 5 6 
#
# 1 0.014150 -0.006677 -0.004803 0.000000 0.000001 0.000000
# 2 -0.006677 0.014150 -0.004803 0.000000 -0.000001 0.000000
# 3 -0.004803 -0.004803 0.036757 0.000000 0.000000 0.000000
# 4 0.000000 0.000000 0.000000 0.325532 0.000000 -0.000002
# 5 0.000001 -0.000001 0.000000 0.000000 0.325532 0.000000
# 6 0.000000 0.000000 0.000000 -0.000002 0.000000 0.041654
#
#
# Mechanical properties :
#
#
# Convention : Reuss Voigt Hill
#
# Bulk Modulus (GPa) = 30.77785 48.71304 39.74545
# Shear Modulus (GPa) = 6.24087 15.57041 10.90564
#
# Velocity S-wave (km/s) = 1.80811 2.85597 2.39017
# Velocity P-wave (km/s) = 4.52570 6.03272 5.33271
#
# Compressibility (1/GPa) = 0.03249090
#
# Stress axis : x y z
#
# Youngs Moduli (GPa) = 70.67115 70.67115 27.20582
#
# Poissons Ratio (x) = 0.47188 0.13067
# Poissons Ratio (y) = 0.47188 0.13067
# Poissons Ratio (z) = 0.33943 0.33943
#
# Static dielectric constant tensor:
#      x y z
#    x 3.590260 0.000000 0.000000 
#    y 0.000000 3.590260 0.000000 
#    z 0.000000 0.000000 3.297890 
# 
# 
# High freq. dielectric constant tensor:
#      x y z
#    x 1.752650 0.000000 0.000000 
#    y 0.000000 1.752650 0.000000 
#    z 0.000000 0.000000 1.725490 
# 
# From -- ./inp_files/1194.got.cif
#   From: 2010.03.12/outbox.cif.g09.slc.cpg/sg162_1_cif.got.tgz:1194.got - 2010.04.02 06:27:41.
