data_PCOD8323618
_publ_section_title
;
Structure prediction by ZEFSAII (Michael W. Deem and Ramdas Pophale) SiO2 
 PCOD8323618
Probable space group: P -3 M 1
;
_chemical_formula_sum "Si O2"
_cell_formula_units_Z 60
_cell_length_a 13.139109
_cell_length_b 13.139109
_cell_length_c 24.873520
_cell_angle_alpha 90.000000
_cell_angle_beta 90.000000
_cell_angle_gamma 120.000000
_cell_volume 3718.773366
_symmetry_space_group_name_H-M "P -3 M 1"
_symmetry_group_IT_number 164
_symmetry_cell_setting 'hexagonal'
loop_
_space_group_symop_operation_xyz
x,y,z
-y,x-y,z
-x+y,-x,z
x-y,-y,-z
-x,-x+y,-z
y,x,-z
-x,-y,-z
y,-x+y,-z
x-y,x,-z
-x+y,y,z
x,x-y,z
-y,-x,z
loop_
_atom_site_type_symbol
_atom_site_label
_atom_site_fract_x
_atom_site_fract_y
_atom_site_fract_z
Si Si1 0.572567 0.666658 0.852024
Si Si2 0.432580 0.099409 0.642355
Si Si3 0.764447 0.764947 0.560746
Si Si4 0.000226 0.233253 0.938195
Si Si5 0.900784 0.332955 0.764968
O O1 0.557801 0.778901 0.841722
O O2 0.445489 0.554512 0.862214
O O3 0.652001 0.682353 0.903851
O O4 0.636630 0.650679 0.800445
O O5 0.544883 0.089765 0.628395
O O6 0.464613 0.232307 0.631409
O O7 0.390796 0.063343 0.703657
O O8 0.332340 0.010323 0.602446
O O9 0.721375 0.721375 0.500000
O O10 0.760145 0.880073 0.575151
O O11 0.897389 0.794778 0.568526
O O12 0.096814 0.193628 0.928723
O O13 0.874386 0.125615 0.920609
O O14 0.000000 0.268019 0.000000
O O15 0.862621 0.431311 0.771521
O O16 0.790988 0.209013 0.783332
#
# Coordination Sequence:
#
# PCOD8323618 Si02
#       5
#    12  12  12  12  12
#     4  10  20  32  46  64  89 121 152 180 211 252
#     4   9  17  29  46  67  89 113 141 176 219 263
#     4   9  17  29  45  64  86 114 147 181 215 252
#     4   9  17  30  49  71  92 114 142 179 222 263
#     4   9  17  30  48  68  88 111 142 181 222 261
#
# _framework density 16.134350999999999
#
# number of rings (size 3 to 8) (size 9 to 14) (size 15 to 20)
#    0.000    2.800    0.000    1.600    0.000    4.800 
#    0.000    0.000    0.000    1.200    0.000    0.000 
#    0.000    0.000    0.000    0.000    0.000    0.000 
#
# Total GULP energy -744041.134013 kJ/mol
# GULP energy per Si atom -12400.685567 kJ/mol
# Density = 1.609763 g / cm^3
# Si number density = 16.134351 Si / 1000 Ang^3
#
#
#
# Elastic Constant Matrix: (Units=GPa)
#
#
# Indices 1 2 3 4 5 6 
#
# 1 111.1431 67.2490 68.8971 2.3484 0.0000 0.0000
# 2 67.2490 111.1431 68.8971 -2.3484 0.0000 0.0000
# 3 68.8971 68.8971 101.4148 0.0000 0.0000 0.0000
# 4 2.3484 -2.3484 0.0000 27.0456 0.0000 0.0000
# 5 0.0000 0.0000 0.0000 0.0000 27.0456 2.3484
# 6 0.0000 0.0000 0.0000 0.0000 2.3484 21.9471
#
#
#
# Elastic Compliance Matrix: (Units=1/GPa)
#
#
# Indices 1 2 3 4 5 6 
#
# 1 0.017395 -0.005600 -0.008013 -0.001997 0.000000 0.000000
# 2 -0.005600 0.017395 -0.008013 0.001997 0.000000 0.000000
# 3 -0.008013 -0.008013 0.020748 0.000000 0.000000 0.000000
# 4 -0.001997 0.001997 0.000000 0.037321 0.000000 0.000000
# 5 0.000000 0.000000 0.000000 0.000000 0.037321 -0.003994
# 6 0.000000 0.000000 0.000000 0.000000 -0.003994 0.045992
#
#
# Mechanical properties :
#
#
# Convention : Reuss Voigt Hill
#
# Bulk Modulus (GPa) = 81.39459 81.53194 81.46327
# Shear Modulus (GPa) = 22.36918 23.11818 22.74368
#
# Velocity S-wave (km/s) = 3.72752 3.78941 3.75859
# Velocity P-wave (km/s) = 8.31164 8.35398 8.33284
#
# Compressibility (1/GPa) = 0.01228583
#
# Stress axis : x y z
#
# Youngs Moduli (GPa) = 57.48622 57.48622 48.19709
#
# Poissons Ratio (x) = 0.32194 0.38621
# Poissons Ratio (y) = 0.32194 0.38621
# Poissons Ratio (z) = 0.46065 0.46065
#
# Static dielectric constant tensor:
#      x y z
#    x 2.986770 0.000000 0.000000 
#    y 0.000000 2.986770 0.000000 
#    z 0.000000 0.000000 3.158340 
# 
# 
# High freq. dielectric constant tensor:
#      x y z
#    x 1.616480 0.000000 0.000000 
#    y 0.000000 1.616480 0.000000 
#    z 0.000000 0.000000 1.624770 
# 
# From -- ./inp_files/5179.got.cif
#   From: 2010.03.12/outbox.cif.g09.slc.cpg/sg164_3_cif.got.tgz:5179.got - 2010.04.02 06:32:59.
