data_PCOD8323221
_publ_section_title
;
Structure prediction by ZEFSAII (Michael W. Deem and Ramdas Pophale) SiO2 
 PCOD8323221
Probable space group: P -3 1 C
;
_chemical_formula_sum "Si O2"
_cell_formula_units_Z 84
_cell_length_a 21.810326
_cell_length_b 21.810326
_cell_length_c 11.003104
_cell_angle_alpha 90.000000
_cell_angle_beta 90.000000
_cell_angle_gamma 120.000000
_cell_volume 4532.837642
_symmetry_space_group_name_H-M "P -3 1 C"
_symmetry_group_IT_number 163
_symmetry_cell_setting 'hexagonal'
loop_
_space_group_symop_operation_xyz
x,y,z
-y,x-y,z
-x+y,-x,z
-y,-x,1/2-z
-x+y,y,1/2-z
x,x-y,1/2-z
-x,-y,-z
y,-x+y,-z
x-y,x,-z
y,x,1/2+z
x-y,-y,1/2+z
-x,-x+y,1/2+z
loop_
_atom_site_type_symbol
_atom_site_label
_atom_site_fract_x
_atom_site_fract_y
_atom_site_fract_z
Si Si1 0.000000 0.265662 0.499999
Si Si2 0.191550 0.523905 0.974986
Si Si3 0.938571 0.730088 0.250001
Si Si4 0.856625 0.288445 0.249999
Si Si5 0.124812 0.390710 0.116576
Si Si6 0.734102 0.609289 0.883423
Si Si7 0.476094 0.667644 0.525012
O O1 0.983854 0.218049 0.375587
O O2 0.933269 0.276642 0.518338
O O3 0.016147 0.234196 0.624411
O O4 0.066730 0.343373 0.481661
O O5 0.142328 0.476181 0.865167
O O6 0.273602 0.547205 0.953372
O O7 0.185039 0.592519 0.992704
O O8 0.159742 0.474552 0.093122
O O9 0.869585 0.739170 0.250000
O O10 0.921207 0.648559 0.250001
O O11 0.786678 0.213323 0.250000
O O12 0.857673 0.333853 0.134831
O O13 0.184329 0.368658 0.106309
O O14 0.090368 0.374614 0.249999
O O15 0.685190 0.525448 0.906876
#
# Coordination Sequence:
#
# PCOD8323221 Si02
#       7
#    12  12  12  12  12  12  12
#     4  12  20  36  61  84 112 154 191 232 286 342
#     4  10  19  32  51  74 102 139 188 249 307 359
#     4  11  22  37  60  92 120 152 195 230 278 342
#     4   9  17  31  51  74 105 138 179 236 288 342
#     4  10  21  36  54  78 107 142 184 232 289 350
#     4  10  21  36  54  78 107 142 184 232 289 350
#     4  10  19  32  51  74 102 139 188 249 307 359
#
# _framework density 18.531438999999999
#
# number of rings (size 3 to 8) (size 9 to 14) (size 15 to 20)
#    0.000    1.714    4.286    1.571    0.000    0.571 
#    0.000    2.143    0.000    1.714    0.000    0.000 
#    0.000    0.000    0.000   73.714    0.000    0.000 
#
# Total GULP energy -1041045.391259 kJ/mol
# GULP energy per Si atom -12393.397515 kJ/mol
# Density = 1.848926 g / cm^3
# Si number density = 18.531439 Si / 1000 Ang^3
#
#
#
# Elastic Constant Matrix: (Units=GPa)
#
#
# Indices 1 2 3 4 5 6 
#
# 1 61.6530 23.4599 34.0765 0.0000 0.0000 0.0000
# 2 23.4599 61.6530 34.0765 0.0000 0.0000 0.0000
# 3 34.0765 34.0765 126.7079 0.0000 0.0000 0.0000
# 4 0.0000 0.0000 0.0000 20.9967 0.0000 0.0000
# 5 0.0000 0.0000 0.0000 0.0000 20.9967 0.0000
# 6 0.0000 0.0000 0.0000 0.0000 0.0000 19.0966
#
#
#
# Elastic Compliance Matrix: (Units=1/GPa)
#
#
# Indices 1 2 3 4 5 6 
#
# 1 0.020578 -0.005605 -0.004027 0.000000 0.000000 0.000000
# 2 -0.005605 0.020578 -0.004027 0.000000 0.000000 0.000000
# 3 -0.004027 -0.004027 0.010058 0.000000 0.000000 0.000000
# 4 0.000000 0.000000 0.000000 0.047627 0.000000 0.000000
# 5 0.000000 0.000000 0.000000 0.000000 0.047627 0.000000
# 6 0.000000 0.000000 0.000000 0.000000 0.000000 0.052365
#
#
# Mechanical properties :
#
#
# Convention : Reuss Voigt Hill
#
# Bulk Modulus (GPa) = 41.84526 48.13774 44.99150
# Shear Modulus (GPa) = 21.35695 22.77806 22.06750
#
# Velocity S-wave (km/s) = 3.39849 3.50974 3.45456
# Velocity P-wave (km/s) = 6.16679 6.51590 6.34375
#
# Compressibility (1/GPa) = 0.02389757
#
# Stress axis : x y z
#
# Youngs Moduli (GPa) = 48.59516 48.59516 99.42154
#
# Poissons Ratio (x) = 0.27235 0.40037
# Poissons Ratio (y) = 0.27235 0.40037
# Poissons Ratio (z) = 0.19569 0.19569
#
# Static dielectric constant tensor:
#      x y z
#    x 3.166720 0.000000 0.000000 
#    y 0.000000 3.166720 0.000000 
#    z 0.000000 0.000000 3.882630 
# 
# 
# High freq. dielectric constant tensor:
#      x y z
#    x 1.691110 0.000000 0.000000 
#    y 0.000000 1.691110 0.000000 
#    z 0.000000 0.000000 1.742230 
# 
# From -- ./inp_files/1842.got.cif
#   From: 2010.03.12/outbox.cif.g09.slc.cpg/sg163_1_cif.got.tgz:1842.got - 2010.04.02 06:30:25.
