data_PCOD8323082
_publ_section_title
;
Structure prediction by ZEFSAII (Michael W. Deem and Ramdas Pophale) SiO2 
 PCOD8323082
Probable space group: P -3 1 M 
;
_chemical_formula_sum "Si O2"
_cell_formula_units_Z 72
_cell_length_a 14.339715
_cell_length_b 14.339715
_cell_length_c 18.091010
_cell_angle_alpha 90.000000
_cell_angle_beta 90.000000
_cell_angle_gamma 120.000000
_cell_volume 3221.621279
_symmetry_space_group_name_H-M "P -3 1 M "
_symmetry_group_IT_number 162
_symmetry_cell_setting 'hexagonal'
loop_
_space_group_symop_operation_xyz
x,y,z
-y,x-y,z
-x+y,-x,z
-y,-x,-z
-x+y,y,-z
x,x-y,-z
-x,-y,-z
y,-x+y,-z
x-y,x,-z
y,x,z
x-y,-y,z
-x,-x+y,z
loop_
_atom_site_type_symbol
_atom_site_label
_atom_site_fract_x
_atom_site_fract_y
_atom_site_fract_z
Si Si1 0.606161 0.120745 0.272032
Si Si2 0.173761 0.724423 0.800450
Si Si3 0.126283 0.329135 0.419073
Si Si4 0.872990 0.540391 0.968593
Si Si5 0.534792 0.406725 0.578232
Si Si6 0.882144 0.761798 0.271426
O O1 0.699322 0.203116 0.217932
O O2 0.495311 0.117069 0.252163
O O3 0.625233 0.159580 0.357903
O O4 0.588022 0.000000 0.263192
O O5 0.151190 0.677507 0.882211
O O6 0.119385 0.796786 0.786194
O O7 0.150182 0.300364 0.500000
O O8 0.175519 0.456021 0.406976
O O9 0.173572 0.292219 0.350973
O O10 0.000000 0.268021 0.407896
O O11 0.000000 0.631165 0.984190
O O12 0.786807 0.573613 0.000000
O O13 0.850209 0.425105 0.000000
O O14 0.589160 0.410841 0.500000
O O15 0.466071 0.466071 0.572816
O O16 0.859212 0.859212 0.282500
O O17 0.000000 0.808483 0.236965
#
# Coordination Sequence:
#
# PCOD8323082 Si02
#       6
#    12  12  12  12  12  12
#     4  11  23  41  62  93 134 174 219 276 336 391
#     4  12  24  42  68  99 131 168 215 265 332 411
#     4  10  20  35  55  82 119 168 223 282 339 392
#     4  11  25  46  75 109 145 185 227 279 346 425
#     4   9  19  34  54  81 121 170 220 276 337 395
#     4  11  23  40  62  92 130 177 230 283 335 389
#
# _framework density 22.348997000000001
#
# number of rings (size 3 to 8) (size 9 to 14) (size 15 to 20)
#    0.000    1.333    1.667    4.167    2.333    2.667 
#    0.000    0.000    0.000    3.167    0.000    0.000 
#    0.000    0.000    0.000    0.000    0.000    0.000 
#
# Total GULP energy -892317.114821 kJ/mol
# GULP energy per Si atom -12393.293261 kJ/mol
# Density = 2.229813 g / cm^3
# Si number density = 22.348997 Si / 1000 Ang^3
#
#
#
# Elastic Constant Matrix: (Units=GPa)
#
#
# Indices 1 2 3 4 5 6 
#
# 1 103.4680 46.3601 35.8052 0.0001 -3.8999 0.0000
# 2 46.3601 103.4680 35.8052 -0.0001 3.8999 0.0000
# 3 35.8052 35.8052 134.0175 0.0000 0.0000 0.0000
# 4 0.0001 -0.0001 0.0000 30.1925 0.0000 3.8999
# 5 -3.8999 3.8999 0.0000 0.0000 30.1925 0.0001
# 6 0.0000 0.0000 0.0000 3.8999 0.0001 28.5540
#
#
#
# Elastic Compliance Matrix: (Units=1/GPa)
#
#
# Indices 1 2 3 4 5 6 
#
# 1 0.012738 -0.005087 -0.002044 0.000000 0.002302 0.000000
# 2 -0.005087 0.012738 -0.002044 0.000000 -0.002302 0.000000
# 3 -0.002044 -0.002044 0.008554 0.000000 0.000000 0.000000
# 4 0.000000 0.000000 0.000000 0.033716 0.000000 -0.004605
# 5 0.002302 -0.002302 0.000000 0.000000 0.033716 0.000000
# 6 0.000000 0.000000 0.000000 -0.004605 0.000000 0.035650
#
#
# Mechanical properties :
#
#
# Convention : Reuss Voigt Hill
#
# Bulk Modulus (GPa) = 63.77588 64.09936 63.93762
# Shear Modulus (GPa) = 31.11595 32.65332 31.88463
#
# Velocity S-wave (km/s) = 3.73537 3.82653 3.78123
# Velocity P-wave (km/s) = 6.87039 6.94741 6.90901
#
# Compressibility (1/GPa) = 0.01567991
#
# Stress axis : x y z
#
# Youngs Moduli (GPa) = 78.50369 78.50369 116.90438
#
# Poissons Ratio (x) = 0.39934 0.23898
# Poissons Ratio (y) = 0.39934 0.23898
# Poissons Ratio (z) = 0.16048 0.16048
#
# Static dielectric constant tensor:
#      x y z
#    x 4.053600 0.000000 0.000000 
#    y 0.000000 4.053600 0.000000 
#    z 0.000000 0.000000 4.091280 
# 
# 
# High freq. dielectric constant tensor:
#      x y z
#    x 1.881360 0.000000 0.000000 
#    y 0.000000 1.881360 0.000000 
#    z 0.000000 0.000000 1.872870 
# 
# From -- ./inp_files/3535.got.cif
#   From: 2010.03.12/outbox.cif.g09.slc.cpg/sg162_2_cif.got.tgz:3535.got - 2010.04.02 06:27:41.
