data_PCOD8323749
_publ_section_title
;
Structure prediction by ZEFSAII (Michael W. Deem and Ramdas Pophale) SiO2 
 PCOD8323749
Probable space group: P -3 M 1
;
_chemical_formula_sum "Si O2"
_cell_formula_units_Z 54
_cell_length_a 12.429902
_cell_length_b 12.429902
_cell_length_c 23.004761
_cell_angle_alpha 90.000000
_cell_angle_beta 90.000000
_cell_angle_gamma 120.000000
_cell_volume 3078.107383
_symmetry_space_group_name_H-M "P -3 M 1"
_symmetry_group_IT_number 164
_symmetry_cell_setting 'hexagonal'
loop_
_space_group_symop_operation_xyz
x,y,z
-y,x-y,z
-x+y,-x,z
x-y,-y,-z
-x,-x+y,-z
y,x,-z
-x,-y,-z
y,-x+y,-z
x-y,x,-z
-x+y,y,z
x,x-y,z
-y,-x,z
loop_
_atom_site_type_symbol
_atom_site_label
_atom_site_fract_x
_atom_site_fract_y
_atom_site_fract_z
Si Si1 0.917084 0.332891 0.887710
Si Si2 0.332939 0.413478 0.554897
Si Si3 0.749670 0.000000 0.000000
Si Si4 0.748281 0.998505 0.665558
Si Si5 0.917315 0.583867 0.223398
O O1 0.893742 0.446871 0.896992
O O2 0.787048 0.212953 0.872246
O O3 0.976543 0.314896 0.945549
O O4 0.012080 0.356500 0.836097
O O5 0.335518 0.335518 0.500000
O O6 0.215947 0.431894 0.548885
O O7 0.452466 0.547535 0.557673
O O8 0.328289 0.340924 0.613047
O O9 0.766950 0.883475 0.986319
O O10 0.869765 0.130236 0.661828
O O11 0.786600 0.893300 0.661239
O O12 0.680174 0.989846 0.725625
O O13 0.777138 0.554275 0.217496
O O14 0.914043 0.457022 0.238377
#
# Coordination Sequence:
#
# PCOD8323749 Si02
#       5
#    12  12   6  12  12
#     4  10  20  34  52  74 101 133 168 206 249 298
#     4  10  20  34  53  76 103 135 170 209 252 299
#     4  10  20  34  52  74 100 130 166 208 254 302
#     4  10  20  34  52  74 100 130 165 205 249 296
#     4  10  20  34  53  76 102 132 166 205 248 295
#
# _framework density 17.543247000000001
#
# number of rings (size 3 to 8) (size 9 to 14) (size 15 to 20)
#    0.000    2.000    0.000    4.000    0.000    0.000 
#    0.000    2.222    0.000   24.000    0.000    0.000 
#    0.000    0.000    0.000    0.000    0.000    0.000 
#
# Total GULP energy -669838.524075 kJ/mol
# GULP energy per Si atom -12404.417112 kJ/mol
# Density = 1.750332 g / cm^3
# Si number density = 17.543247 Si / 1000 Ang^3
#
#
#
# Elastic Constant Matrix: (Units=GPa)
#
#
# Indices 1 2 3 4 5 6 
#
# 1 80.2937 40.4292 33.0878 1.5981 0.0000 0.0000
# 2 40.4292 80.2937 33.0878 -1.5981 0.0000 0.0000
# 3 33.0878 33.0878 73.9314 0.0000 0.0000 0.0000
# 4 1.5981 -1.5981 0.0000 26.5863 0.0000 0.0000
# 5 0.0000 0.0000 0.0000 0.0000 26.5863 1.5981
# 6 0.0000 0.0000 0.0000 0.0000 1.5981 19.9323
#
#
#
# Elastic Compliance Matrix: (Units=1/GPa)
#
#
# Indices 1 2 3 4 5 6 
#
# 1 0.018091 -0.007115 -0.004912 -0.001515 0.000000 0.000000
# 2 -0.007115 0.018091 -0.004912 0.001515 0.000000 0.000000
# 3 -0.004912 -0.004912 0.017923 0.000000 0.000000 0.000000
# 4 -0.001515 0.001515 0.000000 0.037795 0.000000 0.000000
# 5 0.000000 0.000000 0.000000 0.000000 0.037795 -0.003030
# 6 0.000000 0.000000 0.000000 0.000000 -0.003030 0.050413
#
#
# Mechanical properties :
#
#
# Convention : Reuss Voigt Hill
#
# Bulk Modulus (GPa) = 49.44125 49.74757 49.59441
# Shear Modulus (GPa) = 22.65199 23.14859 22.90029
#
# Velocity S-wave (km/s) = 3.59724 3.63645 3.61690
# Velocity P-wave (km/s) = 6.74516 6.78605 6.76563
#
# Compressibility (1/GPa) = 0.02022603
#
# Stress axis : x y z
#
# Youngs Moduli (GPa) = 55.27515 55.27515 55.79396
#
# Poissons Ratio (x) = 0.39329 0.27408
# Poissons Ratio (y) = 0.39329 0.27408
# Poissons Ratio (z) = 0.27153 0.27153
#
# Static dielectric constant tensor:
#      x y z
#    x 3.288190 0.000000 0.000000 
#    y 0.000000 3.288190 0.000000 
#    z 0.000000 0.000000 3.403670 
# 
# 
# High freq. dielectric constant tensor:
#      x y z
#    x 1.688090 0.000000 0.000000 
#    y 0.000000 1.688090 0.000000 
#    z 0.000000 0.000000 1.694760 
# 
# From -- ./inp_files/4841.got.cif
#   From: 2010.03.12/outbox.cif.g09.slc.cpg/sg164_3_cif.got.tgz:4841.got - 2010.04.02 06:32:59.
