data_PCOD8323756
_publ_section_title
;
Structure prediction by ZEFSAII (Michael W. Deem and Ramdas Pophale) SiO2 
 PCOD8323756
Probable space group: P -3 M 1
;
_chemical_formula_sum "Si O2"
_cell_formula_units_Z 66
_cell_length_a 12.402663
_cell_length_b 12.402663
_cell_length_c 28.284824
_cell_angle_alpha 90.000000
_cell_angle_beta 90.000000
_cell_angle_gamma 120.000000
_cell_volume 3768.026940
_symmetry_space_group_name_H-M "P -3 M 1"
_symmetry_group_IT_number 164
_symmetry_cell_setting 'hexagonal'
loop_
_space_group_symop_operation_xyz
x,y,z
-y,x-y,z
-x+y,-x,z
x-y,-y,-z
-x,-x+y,-z
y,x,-z
-x,-y,-z
y,-x+y,-z
x-y,x,-z
-x+y,y,z
x,x-y,z
-y,-x,z
loop_
_atom_site_type_symbol
_atom_site_label
_atom_site_fract_x
_atom_site_fract_y
_atom_site_fract_z
Si Si1 0.666324 0.081891 0.226248
Si Si2 0.999904 0.747557 0.683000
Si Si3 0.665175 0.584387 0.864926
Si Si4 0.082158 0.413721 0.408679
Si Si5 0.253565 0.000000 0.500000
Si Si6 0.583691 0.918479 0.954156
O O1 0.556306 0.112611 0.231392
O O2 0.791150 0.208851 0.215226
O O3 0.674875 0.017927 0.273955
O O4 0.642879 0.988000 0.183888
O O5 0.115008 0.884993 0.676768
O O6 0.879422 0.758843 0.692944
O O7 0.987196 0.670736 0.636133
O O8 0.796181 0.592361 0.866891
O O9 0.558890 0.441111 0.869716
O O10 0.657447 0.664120 0.907902
O O11 0.226769 0.453538 0.409373
O O12 0.071218 0.535609 0.406518
O O13 0.012123 0.336099 0.454847
O O14 0.118198 0.881803 0.506572
O O15 0.439664 0.879328 0.950548
O O16 0.592690 0.796345 0.958169
O O17 0.647367 0.000000 0.000000
#
# Coordination Sequence:
#
# PCOD8323756 Si02
#       6
#    12  12  12  12   6  12
#     4  10  20  34  53  76 103 135 170 210 254 301
#     4  10  20  34  53  76 103 135 170 209 252 300
#     4  10  20  34  53  76 102 132 167 209 255 302
#     4  10  20  34  52  74 101 133 169 209 253 300
#     4  10  20  34  54  78 104 134 168 208 252 300
#     4  10  20  34  54  78 104 134 168 208 252 299
#
# _framework density 17.515798
#
# number of rings (size 3 to 8) (size 9 to 14) (size 15 to 20)
#    0.000    2.000    0.000    4.000    0.000    0.000 
#    0.000    5.455    0.000   18.909    0.000    0.000 
#    0.000    0.000    0.000    0.000    0.000    0.000 
#
# Total GULP energy -818683.164352 kJ/mol
# GULP energy per Si atom -12404.290369 kJ/mol
# Density = 1.747593 g / cm^3
# Si number density = 17.515798 Si / 1000 Ang^3
#
#
#
# Elastic Constant Matrix: (Units=GPa)
#
#
# Indices 1 2 3 4 5 6 
#
# 1 85.7897 44.2688 23.9633 4.8322 0.0000 0.0000
# 2 44.2688 85.7897 23.9633 -4.8322 0.0000 0.0000
# 3 23.9633 23.9633 70.9812 0.0000 0.0000 0.0000
# 4 4.8322 -4.8322 0.0000 20.2576 0.0000 0.0000
# 5 0.0000 0.0000 0.0000 0.0000 20.2576 4.8322
# 6 0.0000 0.0000 0.0000 0.0000 4.8322 20.7604
#
#
#
# Elastic Compliance Matrix: (Units=1/GPa)
#
#
# Indices 1 2 3 4 5 6 
#
# 1 0.017141 -0.008359 -0.002965 -0.006083 0.000000 0.000000
# 2 -0.008359 0.017141 -0.002965 0.006083 0.000000 0.000000
# 3 -0.002965 -0.002965 0.016090 0.000000 0.000000 0.000000
# 4 -0.006083 0.006083 0.000000 0.052266 0.000000 0.000000
# 5 0.000000 0.000000 0.000000 0.000000 0.052266 -0.012166
# 6 0.000000 0.000000 0.000000 0.000000 -0.012166 0.051000
#
#
# Mechanical properties :
#
#
# Convention : Reuss Voigt Hill
#
# Bulk Modulus (GPa) = 45.88372 47.43904 46.66138
# Shear Modulus (GPa) = 20.68289 22.27948 21.48118
#
# Velocity S-wave (km/s) = 3.44002 3.57033 3.50578
# Velocity P-wave (km/s) = 6.48312 6.64370 6.56390
#
# Compressibility (1/GPa) = 0.02179422
#
# Stress axis : x y z
#
# Youngs Moduli (GPa) = 58.34064 58.34064 62.15073
#
# Poissons Ratio (x) = 0.48769 0.18425
# Poissons Ratio (y) = 0.48769 0.18425
# Poissons Ratio (z) = 0.17295 0.17295
#
# Static dielectric constant tensor:
#      x y z
#    x 3.223800 0.000000 0.000000 
#    y 0.000000 3.223800 0.000000 
#    z 0.000000 0.000000 3.460590 
# 
# 
# High freq. dielectric constant tensor:
#      x y z
#    x 1.681690 0.000000 0.000000 
#    y 0.000000 1.681690 0.000000 
#    z 0.000000 0.000000 1.698440 
# 
# From -- ./inp_files/5541.got.cif
#   From: 2010.03.12/outbox.cif.g09.slc.cpg/sg164_3_cif.got.tgz:5541.got - 2010.04.02 06:32:59.
