data_PCOD8323013
_publ_section_title
;
Structure prediction by ZEFSAII (Michael W. Deem and Ramdas Pophale) SiO2 
 PCOD8323013
Probable space group: P -3 1 M 
;
_chemical_formula_sum "Si O2"
_cell_formula_units_Z 90
_cell_length_a 17.452198
_cell_length_b 17.452198
_cell_length_c 18.519586
_cell_angle_alpha 90.000000
_cell_angle_beta 90.000000
_cell_angle_gamma 120.000000
_cell_volume 4884.973012
_symmetry_space_group_name_H-M "P -3 1 M "
_symmetry_group_IT_number 162
_symmetry_cell_setting 'hexagonal'
loop_
_space_group_symop_operation_xyz
x,y,z
-y,x-y,z
-x+y,-x,z
-y,-x,-z
-x+y,y,-z
x,x-y,-z
-x,-y,-z
y,-x+y,-z
x-y,x,-z
y,x,z
x-y,-y,z
-x,-x+y,z
loop_
_atom_site_type_symbol
_atom_site_label
_atom_site_fract_x
_atom_site_fract_y
_atom_site_fract_z
Si Si1 0.455582 0.813098 0.071201
Si Si2 0.522665 0.627274 0.413359
Si Si3 0.895431 0.354714 0.571713
Si Si4 0.623217 0.728433 0.279418
Si Si5 0.897577 0.102424 0.500000
Si Si6 0.730718 0.097767 0.991974
Si Si7 0.798867 0.102425 0.357547
Si Si8 0.684504 0.170570 0.862466
O O1 0.419111 0.856583 0.130028
O O2 0.461745 0.733324 0.108601
O O3 0.391636 0.783271 0.000000
O O4 0.555148 0.884154 0.048126
O O5 0.572986 0.572986 0.415598
O O6 0.418761 0.558143 0.397609
O O7 0.533842 0.676150 0.490213
O O8 0.564043 0.699314 0.351177
O O9 0.868805 0.274044 0.625989
O O10 0.000000 0.407535 0.564204
O O11 0.675346 0.675346 0.264448
O O12 0.693232 0.833216 0.292458
O O13 0.553011 0.712157 0.217007
O O14 0.854963 0.119425 0.430005
O O15 0.000000 0.143638 0.482865
O O16 0.703032 0.105945 0.911221
O O17 0.714317 0.000000 0.005305
O O18 0.834889 0.165112 0.000000
O O19 0.755260 0.000000 0.332328
#
# Coordination Sequence:
#
# PCOD8323013 Si02
#       8
#    12  12  12  12   6  12  12  12
#     4   9  18  33  55  80 106 135 169 209 254 306
#     4   8  15  28  47  69  93 124 163 210 264 318
#     4   8  14  28  49  69  88 118 168 223 266 309
#     4  11  22  34  48  72 108 145 178 215 264 322
#     4  10  19  32  52  78 104 134 182 248 313 356
#     4   9  18  33  54  80 107 138 177 219 259 297
#     4  10  20  33  51  73 101 140 185 235 285 333
#     4  10  20  33  53  79 110 145 171 200 249 315
#
# _framework density 18.423846999999999
#
# number of rings (size 3 to 8) (size 9 to 14) (size 15 to 20)
#    0.000    2.667    0.000    3.933    0.000    7.733 
#    0.000    2.667    0.000    0.933    0.000    1.867 
#    0.000    1.067    0.000    0.000    0.000    0.400 
#
# Total GULP energy -1115101.820416 kJ/mol
# GULP energy per Si atom -12390.020227 kJ/mol
# Density = 1.838191 g / cm^3
# Si number density = 18.423847 Si / 1000 Ang^3
#
#
#
# Elastic Constant Matrix: (Units=GPa)
#
#
# Indices 1 2 3 4 5 6 
#
# 1 91.1043 52.0469 35.6542 0.0001 -0.3452 0.0000
# 2 52.0469 91.1043 35.6542 -0.0001 0.3452 0.0000
# 3 35.6542 35.6542 66.3822 0.0000 0.0000 0.0000
# 4 0.0001 -0.0001 0.0000 22.2444 0.0000 0.3452
# 5 -0.3452 0.3452 0.0000 0.0000 22.2444 0.0001
# 6 0.0000 0.0000 0.0000 0.3452 0.0001 19.5287
#
#
#
# Elastic Compliance Matrix: (Units=1/GPa)
#
#
# Indices 1 2 3 4 5 6 
#
# 1 0.017574 -0.008037 -0.005123 0.000000 0.000397 0.000000
# 2 -0.008037 0.017574 -0.005123 0.000000 -0.000397 0.000000
# 3 -0.005123 -0.005123 0.020567 0.000000 0.000000 0.000000
# 4 0.000000 0.000000 0.000000 0.044967 0.000000 -0.000795
# 5 0.000397 -0.000397 0.000000 0.000000 0.044967 0.000000
# 6 0.000000 0.000000 0.000000 -0.000795 0.000000 0.051221
#
#
# Mechanical properties :
#
#
# Convention : Reuss Voigt Hill
#
# Bulk Modulus (GPa) = 52.21536 55.03348 53.62442
# Shear Modulus (GPa) = 20.84920 21.15254 21.00087
#
# Velocity S-wave (km/s) = 3.36764 3.39205 3.37987
# Velocity P-wave (km/s) = 6.59727 6.72882 6.66337
#
# Compressibility (1/GPa) = 0.01915145
#
# Stress axis : x y z
#
# Youngs Moduli (GPa) = 56.90276 56.90276 48.62167
#
# Poissons Ratio (x) = 0.45730 0.24907
# Poissons Ratio (y) = 0.45730 0.24907
# Poissons Ratio (z) = 0.29149 0.29149
#
# Static dielectric constant tensor:
#      x y z
#    x 3.399230 0.000000 0.000000 
#    y 0.000000 3.399230 0.000000 
#    z 0.000000 0.000000 3.265150 
# 
# 
# High freq. dielectric constant tensor:
#      x y z
#    x 1.704600 0.000000 0.000000 
#    y 0.000000 1.704600 0.000000 
#    z 0.000000 0.000000 1.689200 
# 
# From -- ./inp_files/3663.got.cif
#   From: 2010.03.12/outbox.cif.g09.slc.cpg/sg162_2_cif.got.tgz:3663.got - 2010.04.02 06:27:41.
