data_PCOD8323006
_publ_section_title
;
Structure prediction by ZEFSAII (Michael W. Deem and Ramdas Pophale) SiO2 
 PCOD8323006
Probable space group: P -3 1 M 
;
_chemical_formula_sum "Si O2"
_cell_formula_units_Z 82
_cell_length_a 20.972889
_cell_length_b 20.972889
_cell_length_c 12.166044
_cell_angle_alpha 90.000000
_cell_angle_beta 90.000000
_cell_angle_gamma 120.000000
_cell_volume 4634.432181
_symmetry_space_group_name_H-M "P -3 1 M "
_symmetry_group_IT_number 162
_symmetry_cell_setting 'hexagonal'
loop_
_space_group_symop_operation_xyz
x,y,z
-y,x-y,z
-x+y,-x,z
-y,-x,-z
-x+y,y,-z
x,x-y,-z
-x,-y,-z
y,-x+y,-z
x-y,x,-z
y,x,z
x-y,-y,z
-x,-x+y,z
loop_
_atom_site_type_symbol
_atom_site_label
_atom_site_fract_x
_atom_site_fract_y
_atom_site_fract_z
Si Si1 0.818430 0.374119 0.617229
Si Si2 0.298523 0.759893 0.265737
Si Si3 0.399195 0.084380 0.712599
Si Si4 0.840618 0.752445 0.198637
Si Si5 0.333334 0.666667 0.873388
Si Si6 0.266378 0.181411 0.402470
Si Si7 0.833941 0.916971 0.000000
Si Si8 0.403746 0.201955 0.131614
O O1 0.826333 0.413167 0.500000
O O2 0.747153 0.291196 0.628507
O O3 0.813050 0.430112 0.702183
O O4 0.888205 0.365175 0.650232
O O5 0.286608 0.702516 0.169904
O O6 0.268709 0.808365 0.208873
O O7 0.343981 0.092283 0.629289
O O8 0.404534 0.128921 0.824387
O O9 0.367755 0.000000 0.747006
O O10 0.787632 0.787632 0.204155
O O11 0.886263 0.766879 0.309233
O O12 0.793404 0.668034 0.162353
O O13 0.904293 0.785350 0.106961
O O14 0.333334 0.666667 0.000000
O O15 0.282258 0.141129 0.500000
O O16 0.207243 0.207243 0.431719
O O17 0.884316 0.884316 0.029878
O O18 0.419202 0.209601 0.000000
#
# Coordination Sequence:
#
# PCOD8323006 Si02
#       8
#    12  12  12  12   4  12   6  12
#     4  10  19  33  53  75 103 138 175 220 269 317
#     4   9  19  31  48  76 104 130 174 220 266 312
#     4   9  21  37  54  78 107 140 179 219 265 323
#     4  10  20  33  52  78 104 134 178 219 263 319
#     4   9  15  27  46  68  94 132 165 210 256 314
#     4  10  20  36  56  77 105 140 177 218 267 320
#     4  10  19  32  50  74 102 130 166 212 264 314
#     4  10  19  34  54  77 104 141 176 220 271 320
#
# _framework density 17.693646000000001
#
# number of rings (size 3 to 8) (size 9 to 14) (size 15 to 20)
#    0.000    2.341    0.732    2.122    0.000    4.976 
#    0.000    0.732    0.000    4.390    0.000    0.000 
#    0.000    0.000    0.000    0.000    0.000    0.000 
#
# Total GULP energy -1015844.768373 kJ/mol
# GULP energy per Si atom -12388.350834 kJ/mol
# Density = 1.765337 g / cm^3
# Si number density = 17.693646 Si / 1000 Ang^3
#
#
#
# Elastic Constant Matrix: (Units=GPa)
#
#
# Indices 1 2 3 4 5 6 
#
# 1 114.9131 36.0529 43.5170 0.0087 3.8298 -0.0125
# 2 36.0529 114.9119 43.5134 -0.0092 -3.8294 0.0129
# 3 43.5170 43.5134 119.9710 0.0000 0.0012 -0.0002
# 4 0.0087 -0.0092 0.0000 31.3875 0.0062 -3.8366
# 5 3.8298 -3.8294 0.0012 0.0062 31.3832 -0.0087
# 6 -0.0125 0.0129 -0.0002 -3.8366 -0.0087 39.4408
#
#
#
# Elastic Compliance Matrix: (Units=1/GPa)
#
#
# Indices 1 2 3 4 5 6 
#
# 1 0.010604 -0.002229 -0.003038 -0.000003 -0.001566 0.000003
# 2 -0.002229 0.010604 -0.003038 0.000003 0.001566 -0.000004
# 3 -0.003038 -0.003038 0.010539 0.000000 0.000000 0.000000
# 4 -0.000003 0.000003 0.000000 0.032243 -0.000005 0.003136
# 5 -0.001566 0.001566 0.000000 -0.000005 0.032246 0.000006
# 6 0.000003 -0.000004 0.000000 0.003136 0.000006 0.025660
#
#
# Mechanical properties :
#
#
# Convention : Reuss Voigt Hill
#
# Bulk Modulus (GPa) = 66.05741 66.21806 66.13774
# Shear Modulus (GPa) = 34.83074 35.55650 35.19362
#
# Velocity S-wave (km/s) = 4.44164 4.48768 4.46472
# Velocity P-wave (km/s) = 7.98243 8.02237 8.00243
#
# Compressibility (1/GPa) = 0.01513835
#
# Stress axis : x y z
#
# Youngs Moduli (GPa) = 94.30258 94.30376 94.88483
#
# Poissons Ratio (x) = 0.21018 0.28827
# Poissons Ratio (y) = 0.21018 0.28823
# Poissons Ratio (z) = 0.28650 0.28646
#
# Static dielectric constant tensor:
#      x y z
#    x 2.569050 0.000950 0.000050 
#    y 0.000950 2.569670 0.000140 
#    z 0.000050 0.000140 3.654820 
# 
# 
# High freq. dielectric constant tensor:
#      x y z
#    x 1.681070 0.000000 0.000000 
#    y 0.000000 1.681070 0.000000 
#    z 0.000000 0.000000 1.685930 
# 
# From -- ./inp_files/2553.got.cif
#   From: 2010.03.12/outbox.cif.g09.slc.cpg/sg162_2_cif.got.tgz:2553.got - 2010.04.02 06:27:41.
