data_PCOD8323099
_publ_section_title
;
Structure prediction by ZEFSAII (Michael W. Deem and Ramdas Pophale) SiO2 
 PCOD8323099
Probable space group: P -3 1 M 
;
_chemical_formula_sum "Si O2"
_cell_formula_units_Z 84
_cell_length_a 14.445672
_cell_length_b 14.445672
_cell_length_c 22.109903
_cell_angle_alpha 90.000000
_cell_angle_beta 90.000000
_cell_angle_gamma 120.000000
_cell_volume 3995.700870
_symmetry_space_group_name_H-M "P -3 1 M "
_symmetry_group_IT_number 162
_symmetry_cell_setting 'hexagonal'
loop_
_space_group_symop_operation_xyz
x,y,z
-y,x-y,z
-x+y,-x,z
-y,-x,-z
-x+y,y,-z
x,x-y,-z
-x,-y,-z
y,-x+y,-z
x-y,x,-z
y,x,z
x-y,-y,z
-x,-x+y,z
loop_
_atom_site_type_symbol
_atom_site_label
_atom_site_fract_x
_atom_site_fract_y
_atom_site_fract_z
Si Si1 0.761628 0.880333 0.567932
Si Si2 0.874736 0.271754 0.052716
Si Si3 0.234552 0.361633 0.154670
Si Si4 0.794571 0.244016 0.627896
Si Si5 0.536171 0.417892 0.569923
Si Si6 0.123802 0.569416 0.855623
Si Si7 0.583622 0.872651 0.750444
O O1 0.713606 0.856803 0.500000
O O2 0.863095 0.863095 0.569595
O O3 0.674998 0.799768 0.615407
O O4 0.798125 0.000000 0.588435
O O5 0.853869 0.180054 0.101705
O O6 0.849122 0.358747 0.083565
O O7 0.000000 0.329725 0.031393
O O8 0.788852 0.211149 0.000000
O O9 0.287817 0.287817 0.154601
O O10 0.318055 0.489634 0.144055
O O11 0.170551 0.344236 0.217413
O O12 0.705968 0.200070 0.576063
O O13 0.857184 0.370879 0.618959
O O14 0.733913 0.199986 0.691301
O O15 0.562524 0.437477 0.500000
O O16 0.442179 0.442179 0.586483
O O17 0.155872 0.639940 0.794716
O O18 0.000000 0.490674 0.853492
O O19 0.654238 0.000000 0.736503
#
# Coordination Sequence:
#
# PCOD8323099 Si02
#       7
#    12  12  12  12  12  12  12
#     4  10  20  36  59  86 115 149 193 246 305 369
#     4  10  20  37  61  91 128 166 206 253 307 367
#     4  10  20  37  63  88 119 164 207 254 310 366
#     4  12  24  39  61  85 117 159 199 246 310 375
#     4  11  24  41  60  85 117 153 198 251 306 373
#     4   8  18  37  58  84 119 157 200 253 304 354
#     4  10  22  40  60  85 122 157 199 255 310 367
#
# _framework density 21.022596
#
# number of rings (size 3 to 8) (size 9 to 14) (size 15 to 20)
#    0.000    1.857    0.000    5.143    2.000    4.571 
#    6.857    2.143    0.000    5.429    0.000    0.000 
#    0.000    0.000    0.000    0.000    0.000    0.000 
#
# Total GULP energy -1040934.685247 kJ/mol
# GULP energy per Si atom -12392.079586 kJ/mol
# Density = 2.097475 g / cm^3
# Si number density = 21.022596 Si / 1000 Ang^3
#
#
#
# Elastic Constant Matrix: (Units=GPa)
#
#
# Indices 1 2 3 4 5 6 
#
# 1 64.7205 10.9657 18.8553 0.0000 -3.3605 0.0000
# 2 10.9657 64.7205 18.8553 0.0000 3.3605 0.0000
# 3 18.8553 18.8553 84.0455 0.0000 0.0000 0.0000
# 4 0.0000 0.0000 0.0000 27.7821 0.0000 3.3605
# 5 -3.3605 3.3605 0.0000 0.0000 27.7821 0.0000
# 6 0.0000 0.0000 0.0000 3.3605 0.0000 26.8774
#
#
#
# Elastic Compliance Matrix: (Units=1/GPa)
#
#
# Indices 1 2 3 4 5 6 
#
# 1 0.016882 -0.002007 -0.003337 0.000000 0.002285 0.000000
# 2 -0.002007 0.016882 -0.003337 0.000000 -0.002285 0.000000
# 3 -0.003337 -0.003337 0.013396 0.000000 0.000000 0.000000
# 4 0.000000 0.000000 0.000000 0.036547 0.000000 -0.004570
# 5 0.002285 -0.002285 0.000000 0.000000 0.036547 0.000000
# 6 0.000000 0.000000 0.000000 -0.004570 0.000000 0.037777
#
#
# Mechanical properties :
#
#
# Convention : Reuss Voigt Hill
#
# Bulk Modulus (GPa) = 33.56004 34.53765 34.04884
# Shear Modulus (GPa) = 26.97952 27.47568 27.22760
#
# Velocity S-wave (km/s) = 3.58629 3.61911 3.60274
# Velocity P-wave (km/s) = 5.75735 5.82481 5.79118
#
# Compressibility (1/GPa) = 0.02979734
#
# Stress axis : x y z
#
# Youngs Moduli (GPa) = 59.23490 59.23490 74.65089
#
# Poissons Ratio (x) = 0.11887 0.24912
# Poissons Ratio (y) = 0.11887 0.24912
# Poissons Ratio (z) = 0.19768 0.19768
#
# Static dielectric constant tensor:
#      x y z
#    x 3.861930 0.000000 0.000000 
#    y 0.000000 3.861930 0.000000 
#    z 0.000000 0.000000 3.729390 
# 
# 
# High freq. dielectric constant tensor:
#      x y z
#    x 1.821130 0.000000 0.000000 
#    y 0.000000 1.821130 0.000000 
#    z 0.000000 0.000000 1.818030 
# 
# From -- ./inp_files/3969.got.cif
#   From: 2010.03.12/outbox.cif.g09.slc.cpg/sg162_2_cif.got.tgz:3969.got - 2010.04.02 06:27:41.
