data_PCOD8323550
_publ_section_title
;
Structure prediction by ZEFSAII (Michael W. Deem and Ramdas Pophale) SiO2 
 PCOD8323550
Probable space group: P -3 M 1
;
_chemical_formula_sum "Si O2"
_cell_formula_units_Z 72
_cell_length_a 16.728875
_cell_length_b 16.728875
_cell_length_c 17.367222
_cell_angle_alpha 90.000000
_cell_angle_beta 90.000000
_cell_angle_gamma 120.000000
_cell_volume 4209.150551
_symmetry_space_group_name_H-M "P -3 M 1"
_symmetry_group_IT_number 164
_symmetry_cell_setting 'hexagonal'
loop_
_space_group_symop_operation_xyz
x,y,z
-y,x-y,z
-x+y,-x,z
x-y,-y,-z
-x,-x+y,-z
y,x,-z
-x,-y,-z
y,-x+y,-z
x-y,x,-z
-x+y,y,z
x,x-y,z
-y,-x,z
loop_
_atom_site_type_symbol
_atom_site_label
_atom_site_fract_x
_atom_site_fract_y
_atom_site_fract_z
Si Si1 0.516127 0.849555 0.879455
Si Si2 0.968949 0.332136 0.809385
Si Si3 0.061314 0.756300 0.426454
Si Si4 0.147959 0.666269 0.328817
Si Si5 0.903950 0.274872 0.973179
Si Si6 0.187743 0.188497 0.277817
O O1 0.410827 0.821653 0.869447
O O2 0.527022 0.763511 0.855011
O O3 0.578862 0.931217 0.820950
O O4 0.544285 0.877790 0.968581
O O5 0.914795 0.355593 0.746281
O O6 0.908952 0.310915 0.886938
O O7 0.980724 0.244811 0.787575
O O8 0.143463 0.856538 0.450404
O O9 0.101983 0.692136 0.398466
O O10 0.000000 0.707621 0.500000
O O11 0.000415 0.767710 0.360168
O O12 0.154383 0.577192 0.353019
O O13 0.249364 0.750637 0.310371
O O14 0.832561 0.167440 0.979137
O O15 0.000000 0.284096 0.000000
O O16 0.193510 0.096755 0.264090
O O17 0.081671 0.163341 0.273838
#
# Coordination Sequence:
#
# PCOD8323550 Si02
#       6
#    12  12  12  12  12  12
#     4  10  20  33  50  71  94 121 155 198 245 289
#     4  10  19  33  50  69  95 128 163 195 233 285
#     4   9  18  32  50  72  97 125 157 193 233 280
#     4  10  20  33  50  72  98 127 159 197 238 279
#     4   9  18  31  47  66  90 121 156 195 238 282
#     4  10  19  31  49  73 101 130 160 196 236 279
#
# _framework density 17.105588999999998
#
# number of rings (size 3 to 8) (size 9 to 14) (size 15 to 20)
#    0.000    2.333    0.000    4.500    0.000    4.667 
#    0.000    0.000    0.000    4.833    0.000    0.000 
#    0.000   10.667    0.000    0.000    0.000    0.000 
#
# Total GULP energy -892822.399348 kJ/mol
# GULP energy per Si atom -12400.311102 kJ/mol
# Density = 1.706666 g / cm^3
# Si number density = 17.105589 Si / 1000 Ang^3
#
#
#
# Elastic Constant Matrix: (Units=GPa)
#
#
# Indices 1 2 3 4 5 6 
#
# 1 95.6492 36.3907 26.2718 -3.8861 0.0000 0.0000
# 2 36.3907 95.6492 26.2718 3.8861 0.0000 0.0000
# 3 26.2718 26.2718 76.6523 0.0000 0.0000 0.0000
# 4 -3.8861 3.8861 0.0000 18.2979 0.0000 0.0000
# 5 0.0000 0.0000 0.0000 0.0000 18.2979 -3.8861
# 6 0.0000 0.0000 0.0000 0.0000 -3.8861 29.6292
#
#
#
# Elastic Compliance Matrix: (Units=1/GPa)
#
#
# Indices 1 2 3 4 5 6 
#
# 1 0.013064 -0.004295 -0.003006 0.003687 0.000000 0.000000
# 2 -0.004295 0.013064 -0.003006 -0.003687 0.000000 0.000000
# 3 -0.003006 -0.003006 0.015106 0.000000 0.000000 0.000000
# 4 0.003687 -0.003687 0.000000 0.056217 0.000000 0.000000
# 5 0.000000 0.000000 0.000000 0.000000 0.056217 0.007373
# 6 0.000000 0.000000 0.000000 0.000000 0.007373 0.034717
#
#
# Mechanical properties :
#
#
# Convention : Reuss Voigt Hill
#
# Bulk Modulus (GPa) = 48.49036 49.53545 49.01290
# Shear Modulus (GPa) = 23.16188 25.17944 24.17066
#
# Velocity S-wave (km/s) = 3.68374 3.84083 3.76310
# Velocity P-wave (km/s) = 6.81927 6.97788 6.89903
#
# Compressibility (1/GPa) = 0.02062266
#
# Stress axis : x y z
#
# Youngs Moduli (GPa) = 76.54541 76.54541 66.19777
#
# Poissons Ratio (x) = 0.32873 0.19897
# Poissons Ratio (y) = 0.32873 0.19897
# Poissons Ratio (z) = 0.23007 0.23007
#
# Static dielectric constant tensor:
#      x y z
#    x 3.173070 0.000000 0.000000 
#    y 0.000000 3.173070 0.000000 
#    z 0.000000 0.000000 3.136440 
# 
# 
# High freq. dielectric constant tensor:
#      x y z
#    x 1.661560 0.000000 0.000000 
#    y 0.000000 1.661560 0.000000 
#    z 0.000000 0.000000 1.652460 
# 
# From -- ./inp_files/4043.got.cif
#   From: 2010.03.12/outbox.cif.g09.slc.cpg/sg164_3_cif.got.tgz:4043.got - 2010.04.02 06:32:59.
