data_PCOD8323924
_publ_section_title
;
Structure prediction by ZEFSAII (Michael W. Deem and Ramdas Pophale) SiO2 
 PCOD8323924
Probable space group: P -3 C 1
;
_chemical_formula_sum "Si O2"
_cell_formula_units_Z 48
_cell_length_a 10.089163
_cell_length_b 10.089163
_cell_length_c 25.871238
_cell_angle_alpha 90.000000
_cell_angle_beta 90.000000
_cell_angle_gamma 120.000000
_cell_volume 2280.647262
_symmetry_space_group_name_H-M "P -3 C 1"
_symmetry_group_IT_number 165
_symmetry_cell_setting 'hexagonal'
loop_
_space_group_symop_operation_xyz
x,y,z
-y,x-y,z
-x+y,-x,z
x-y,-y,1/2-z
-x,-x+y,1/2-z
y,x,1/2-z
-x,-y,-z
y,-x+y,-z
x-y,x,-z
-x+y,y,1/2+z
x,x-y,1/2+z
-y,-x,1/2+z
loop_
_atom_site_type_symbol
_atom_site_label
_atom_site_fract_x
_atom_site_fract_y
_atom_site_fract_z
Si Si1 0.978508 0.496095 0.394456
Si Si2 0.666668 0.333334 0.949226
Si Si3 0.333334 0.666668 0.429984
Si Si4 0.000000 0.000000 0.062273
Si Si5 0.220907 0.227486 0.861818
Si Si6 0.709314 0.994079 0.309864
O O1 0.840309 0.466326 0.433340
O O2 0.934750 0.325618 0.381197
O O3 0.155326 0.600252 0.413190
O O4 0.951617 0.561612 0.341547
O O5 0.666668 0.333334 0.009679
O O6 0.166670 0.048767 0.085785
O O7 0.000000 0.000000 0.000000
O O8 0.176504 0.334798 0.828032
O O9 0.205342 0.093769 0.824210
O O10 0.676255 0.000000 0.250000
#
# Coordination Sequence:
#
# PCOD8323924 Si02
#       6
#    12   4   4   4  12  12
#     4  12  24  46  66 101 138 170 234 282 333 418
#     4  12  27  48  73  98 139 186 222 279 349 404
#     4  12  27  48  73  98 139 186 222 279 349 404
#     4   9  21  39  67  95 124 174 219 273 337 404
#     4  10  22  42  63  94 137 168 229 286 326 414
#     4  11  23  41  67  94 132 185 227 280 345 401
#
# _framework density 21.046655999999999
#
# number of rings (size 3 to 8) (size 9 to 14) (size 15 to 20)
#    0.000    1.000    5.000    2.000    0.000    4.000 
#    0.000    0.000    0.000    0.000    0.000    0.000 
#    0.000    0.000    0.000    0.000    0.000    0.000 
#
# Total GULP energy -594771.952861 kJ/mol
# GULP energy per Si atom -12391.082351 kJ/mol
# Density = 2.099875 g / cm^3
# Si number density = 21.046656 Si / 1000 Ang^3
#
#
#
# Elastic Constant Matrix: (Units=GPa)
#
#
# Indices 1 2 3 4 5 6 
#
# 1 91.3636 29.0490 49.6639 -0.9036 0.0000 0.0000
# 2 29.0490 91.3640 49.6645 0.9034 0.0000 0.0000
# 3 49.6639 49.6645 191.0024 -0.0004 0.0000 0.0000
# 4 -0.9036 0.9034 -0.0004 21.6287 0.0000 0.0000
# 5 0.0000 0.0000 0.0000 0.0000 21.6283 -0.9040
# 6 0.0000 0.0000 0.0000 0.0000 -0.9040 31.1580
#
#
#
# Elastic Compliance Matrix: (Units=1/GPa)
#
#
# Indices 1 2 3 4 5 6 
#
# 1 0.013320 -0.002747 -0.002749 0.000671 0.000000 0.000000
# 2 -0.002747 0.013320 -0.002749 -0.000671 0.000000 0.000000
# 3 -0.002749 -0.002749 0.006665 0.000000 0.000000 0.000000
# 4 0.000671 -0.000671 0.000000 0.046291 0.000000 0.000000
# 5 0.000000 0.000000 0.000000 0.000000 0.046292 0.001343
# 6 0.000000 0.000000 0.000000 0.000000 0.001343 0.032133
#
#
# Mechanical properties :
#
#
# Convention : Reuss Voigt Hill
#
# Bulk Modulus (GPa) = 59.47466 70.05388 64.76427
# Shear Modulus (GPa) = 27.75987 31.23984 29.49986
#
# Velocity S-wave (km/s) = 3.63570 3.85686 3.74791
# Velocity P-wave (km/s) = 6.77822 7.29322 7.04043
#
# Compressibility (1/GPa) = 0.01681388
#
# Stress axis : x y z
#
# Youngs Moduli (GPa) = 75.07661 75.07670 150.03440
#
# Poissons Ratio (x) = 0.20626 0.41245
# Poissons Ratio (y) = 0.20626 0.41245
# Poissons Ratio (z) = 0.20639 0.20639
#
# Static dielectric constant tensor:
#      x y z
#    x 4.139750 0.000000 0.000000 
#    y 0.000000 4.139710 0.000000 
#    z 0.000000 0.000000 3.563640 
# 
# 
# High freq. dielectric constant tensor:
#      x y z
#    x 1.833240 0.000000 0.000000 
#    y 0.000000 1.833240 0.000000 
#    z 0.000000 0.000000 1.810430 
# 
# From -- ./inp_files/2568.got.cif
#   From: 2010.03.12/outbox.cif.g09.slc.cpg/sg165_2_cif.got.tgz:2568.got - 2010.04.02 06:36:38.
