data_PCOD8323215
_publ_section_title
;
Structure prediction by ZEFSAII (Michael W. Deem and Ramdas Pophale) SiO2 
 PCOD8323215
Probable space group: P -3 1 C
;
_chemical_formula_sum "Si O2"
_cell_formula_units_Z 60
_cell_length_a 17.218143
_cell_length_b 17.218143
_cell_length_c 15.471593
_cell_angle_alpha 90.000000
_cell_angle_beta 90.000000
_cell_angle_gamma 120.000000
_cell_volume 3972.265650
_symmetry_space_group_name_H-M "P -3 1 C"
_symmetry_group_IT_number 163
_symmetry_cell_setting 'hexagonal'
loop_
_space_group_symop_operation_xyz
x,y,z
-y,x-y,z
-x+y,-x,z
-y,-x,1/2-z
-x+y,y,1/2-z
x,x-y,1/2-z
-x,-y,-z
y,-x+y,-z
x-y,x,-z
y,x,1/2+z
x-y,-y,1/2+z
-x,-x+y,1/2+z
loop_
_atom_site_type_symbol
_atom_site_label
_atom_site_fract_x
_atom_site_fract_y
_atom_site_fract_z
Si Si1 0.942796 0.702292 0.085514
Si Si2 0.942797 0.240505 0.085516
Si Si3 0.490088 0.333814 0.148480
Si Si4 0.816137 0.816344 0.250001
Si Si5 0.490088 0.333814 0.351520
O O1 0.855051 0.710104 0.075382
O O2 0.916089 0.599271 0.099786
O O3 0.000864 0.761748 0.166062
O O4 0.999998 0.738723 0.999999
O O5 0.000864 0.239117 0.166065
O O6 0.916089 0.316819 0.099786
O O7 0.473049 0.333769 0.250000
O O8 0.571689 0.428310 0.116694
O O9 0.513881 0.256940 0.125633
O O10 0.914700 0.829400 0.250000
O O11 0.825434 0.912717 0.250000
#
# Coordination Sequence:
#
# PCOD8323215 Si02
#       5
#    12  12  12  12  12
#     4  10  19  31  46  66  91 119 149 183 222 263
#     4  10  19  31  46  66  91 119 149 183 222 263
#     4   9  16  28  46  68  92 117 146 181 221 264
#     4  10  19  32  47  64  86 116 152 188 223 260
#     4   9  16  28  46  68  92 117 146 181 221 264
#
# _framework density 15.10473
#
# number of rings (size 3 to 8) (size 9 to 14) (size 15 to 20)
#    0.000    2.400    2.000    1.800    0.000    2.400 
#    0.000    0.000    0.000    6.400    0.000    0.000 
#    0.000    0.000    0.000    0.800    0.000    0.000 
#
# Total GULP energy -744005.764406 kJ/mol
# GULP energy per Si atom -12400.096073 kJ/mol
# Density = 1.507035 g / cm^3
# Si number density = 15.104730 Si / 1000 Ang^3
#
#
#
# Elastic Constant Matrix: (Units=GPa)
#
#
# Indices 1 2 3 4 5 6 
#
# 1 68.0860 37.2222 46.8033 0.0000 0.0002 0.0000
# 2 37.2222 68.0860 46.8033 0.0000 -0.0002 0.0000
# 3 46.8033 46.8033 103.9946 0.0000 0.0000 0.0000
# 4 0.0000 0.0000 0.0000 23.4601 0.0000 -0.0002
# 5 0.0002 -0.0002 0.0000 0.0000 23.4601 0.0000
# 6 0.0000 0.0000 0.0000 -0.0002 0.0000 15.4319
#
#
#
# Elastic Compliance Matrix: (Units=1/GPa)
#
#
# Indices 1 2 3 4 5 6 
#
# 1 0.024114 -0.008286 -0.007123 0.000000 0.000000 0.000000
# 2 -0.008286 0.024114 -0.007123 0.000000 0.000000 0.000000
# 3 -0.007123 -0.007123 0.016028 0.000000 0.000000 0.000000
# 4 0.000000 0.000000 0.000000 0.042626 0.000000 0.000000
# 5 0.000000 0.000000 0.000000 0.000000 0.042626 0.000000
# 6 0.000000 0.000000 0.000000 0.000000 0.000000 0.064801
#
#
# Mechanical properties :
#
#
# Convention : Reuss Voigt Hill
#
# Bulk Modulus (GPa) = 52.11109 55.75824 53.93466
# Shear Modulus (GPa) = 18.81320 19.75959 19.28640
#
# Velocity S-wave (km/s) = 3.53302 3.62079 3.57717
# Velocity P-wave (km/s) = 7.15665 7.38070 7.26954
#
# Compressibility (1/GPa) = 0.01918978
#
# Stress axis : x y z
#
# Youngs Moduli (GPa) = 41.46949 41.46949 62.39191
#
# Poissons Ratio (x) = 0.34363 0.44444
# Poissons Ratio (y) = 0.34363 0.44444
# Poissons Ratio (z) = 0.29540 0.29540
#
# Static dielectric constant tensor:
#      x y z
#    x 2.887920 0.000000 0.000000 
#    y 0.000000 2.887920 0.000000 
#    z 0.000000 0.000000 2.874920 
# 
# 
# High freq. dielectric constant tensor:
#      x y z
#    x 1.577070 0.000000 0.000000 
#    y 0.000000 1.577070 0.000000 
#    z 0.000000 0.000000 1.567850 
# 
# From -- ./inp_files/1730.got.cif
#   From: 2010.03.12/outbox.cif.g09.slc.cpg/sg163_1_cif.got.tgz:1730.got - 2010.04.02 06:30:25.
