data_PCOD8323347
_publ_section_title
;
Structure prediction by ZEFSAII (Michael W. Deem and Ramdas Pophale) SiO2 
 PCOD8323347
Probable space group: P -3 1 C
;
_chemical_formula_sum "Si O2"
_cell_formula_units_Z 72
_cell_length_a 31.163832
_cell_length_b 31.163832
_cell_length_c 10.055024
_cell_angle_alpha 90.000000
_cell_angle_beta 90.000000
_cell_angle_gamma 120.000000
_cell_volume 8456.982894
_symmetry_space_group_name_H-M "P -3 1 C"
_symmetry_group_IT_number 163
_symmetry_cell_setting 'hexagonal'
loop_
_space_group_symop_operation_xyz
x,y,z
-y,x-y,z
-x+y,-x,z
-y,-x,1/2-z
-x+y,y,1/2-z
x,x-y,1/2-z
-x,-y,-z
y,-x+y,-z
x-y,x,-z
y,x,1/2+z
x-y,-y,1/2+z
-x,-x+y,1/2+z
loop_
_atom_site_type_symbol
_atom_site_label
_atom_site_fract_x
_atom_site_fract_y
_atom_site_fract_z
Si Si1 0.849516 0.373787 0.398937
Si Si2 0.530942 0.959773 0.898954
Si Si3 0.666892 0.433192 0.597443
Si Si4 0.766300 0.433192 0.597443
Si Si5 0.530942 0.571170 0.898954
Si Si6 0.150484 0.524271 0.601063
O O1 0.810039 0.336075 0.504980
O O2 0.904627 0.384669 0.436610
O O3 0.849600 0.424800 0.404059
O O4 0.835268 0.351183 0.250000
O O5 0.480373 0.960745 0.907116
O O6 0.552829 0.973560 0.750000
O O7 0.519958 0.904627 0.936610
O O8 0.571168 1.000000 0.000000
O O9 0.716418 0.432835 0.559679
O O10 0.621586 0.378414 0.570000
O O11 0.667103 0.448752 0.750000
O O12 0.810039 0.473964 0.504980
#
# Coordination Sequence:
#
# PCOD8323347 Si02
#       6
#    12  12  12  12  12  12
#     4   8  14  23  31  39  51  63  74  89 107 126
#     4   8  13  20  29  40  52  63  73  85 101 122
#     4   9  16  24  32  40  49  61  77  96 115 132
#     4   9  16  24  32  40  49  61  77  96 115 132
#     4   8  13  20  29  40  52  63  73  85 101 122
#     4   8  14  23  31  39  51  63  74  89 107 126
#
# _framework density 8.5136749999999992
#
# number of rings (size 3 to 8) (size 9 to 14) (size 15 to 20)
#    0.000    3.667    0.000    2.333    0.000    3.333 
#    0.000    6.667    0.000    2.000    0.000    0.000 
#    0.000    0.000    0.000    0.000    0.000    0.000 
#
# Total GULP energy -892178.625245 kJ/mol
# GULP energy per Si atom -12391.369795 kJ/mol
# Density = 0.849430 g / cm^3
# Si number density = 8.513675 Si / 1000 Ang^3
#
#
#
# Elastic Constant Matrix: (Units=GPa)
#
#
# Indices 1 2 3 4 5 6 
#
# 1 31.2893 24.2043 34.6572 0.0000 0.0000 0.0000
# 2 24.2043 31.2893 34.6572 0.0000 0.0000 0.0000
# 3 34.6572 34.6572 67.0309 0.0000 0.0000 0.0000
# 4 0.0000 0.0000 0.0000 13.4739 0.0000 0.0000
# 5 0.0000 0.0000 0.0000 0.0000 13.4739 0.0000
# 6 0.0000 0.0000 0.0000 0.0000 0.0000 3.5425
#
#
#
# Elastic Compliance Matrix: (Units=1/GPa)
#
#
# Indices 1 2 3 4 5 6 
#
# 1 0.096009 -0.045134 -0.026304 0.000000 0.000000 0.000000
# 2 -0.045134 0.096009 -0.026304 0.000000 0.000000 0.000000
# 3 -0.026304 -0.026304 0.042119 0.000000 0.000000 0.000000
# 4 0.000000 0.000000 0.000000 0.074217 0.000000 0.000000
# 5 0.000000 0.000000 0.000000 0.000000 0.074217 0.000000
# 6 0.000000 0.000000 0.000000 0.000000 0.000000 0.282286
#
#
# Mechanical properties :
#
#
# Convention : Reuss Voigt Hill
#
# Bulk Modulus (GPa) = 25.87144 35.18297 30.52720
# Shear Modulus (GPa) = 5.72589 8.50414 7.11501
#
# Velocity S-wave (km/s) = 2.59617 3.16393 2.89401
# Velocity P-wave (km/s) = 6.28020 7.40015 6.86306
#
# Compressibility (1/GPa) = 0.03865266
#
# Stress axis : x y z
#
# Youngs Moduli (GPa) = 10.41566 10.41566 23.74239
#
# Poissons Ratio (x) = 0.47010 0.62453
# Poissons Ratio (y) = 0.47010 0.62453
# Poissons Ratio (z) = 0.27398 0.27398
#
# Static dielectric constant tensor:
#      x y z
#    x 1.920430 0.000000 0.000000 
#    y 0.000000 1.920430 0.000000 
#    z 0.000000 0.000000 2.221400 
# 
# 
# High freq. dielectric constant tensor:
#      x y z
#    x 1.284530 0.000000 0.000000 
#    y 0.000000 1.284530 0.000000 
#    z 0.000000 0.000000 1.331540 
# 
# From -- ./inp_files/1896.got.cif
#   From: 2010.03.12/outbox.cif.g09.slc.cpg/sg163_1_cif.got.tgz:1896.got - 2010.04.02 06:30:25.
