data_PCOD8323429
_publ_section_title
;
Structure prediction by ZEFSAII (Michael W. Deem and Ramdas Pophale) SiO2 
 PCOD8323429
Probable space group: P -3 M 1
;
_chemical_formula_sum "Si O2"
_cell_formula_units_Z 60
_cell_length_a 17.572345
_cell_length_b 17.572345
_cell_length_c 15.054709
_cell_angle_alpha 90.000000
_cell_angle_beta 90.000000
_cell_angle_gamma 120.000000
_cell_volume 4025.894959
_symmetry_space_group_name_H-M "P -3 M 1"
_symmetry_group_IT_number 164
_symmetry_cell_setting 'hexagonal'
loop_
_space_group_symop_operation_xyz
x,y,z
-y,x-y,z
-x+y,-x,z
x-y,-y,-z
-x,-x+y,-z
y,x,-z
-x,-y,-z
y,-x+y,-z
x-y,x,-z
-x+y,y,z
x,x-y,z
-y,-x,z
loop_
_atom_site_type_symbol
_atom_site_label
_atom_site_fract_x
_atom_site_fract_y
_atom_site_fract_z
Si Si1 0.174835 0.000260 0.101141
Si Si2 0.366601 0.469516 0.491037
Si Si3 0.493307 0.332416 0.310612
Si Si4 0.239688 0.303587 0.743785
Si Si5 0.300623 0.064887 0.582646
O O1 0.143829 0.071915 0.112920
O O2 0.259916 0.024801 0.161084
O O3 0.093893 0.906108 0.129446
O O4 0.204045 0.000000 0.000000
O O5 0.428728 0.428728 0.500000
O O6 0.428795 0.571206 0.457875
O O7 0.324505 0.468383 0.585864
O O8 0.289115 0.408073 0.422740
O O9 0.524158 0.262079 0.289630
O O10 0.570795 0.429206 0.284664
O O11 0.407423 0.311083 0.252565
O O12 0.145488 0.290976 0.715518
O O13 0.268134 0.255204 0.673413
O O14 0.264979 0.132490 0.579237
O O15 0.261448 0.000000 0.500000
#
# Coordination Sequence:
#
# PCOD8323429 Si02
#       5
#    12  12  12  12  12
#     4   9  17  30  48  68  88 111 142 182 223 258
#     4   9  16  26  41  59  80 109 146 182 210 242
#     4  10  18  29  44  64  87 113 145 181 219 255
#     4  10  19  30  44  63  87 115 146 177 213 257
#     4  11  19  28  42  60  85 117 147 174 205 249
#
# _framework density 14.903518
#
# number of rings (size 3 to 8) (size 9 to 14) (size 15 to 20)
#    0.000    2.200    4.000    2.200    0.000    0.800 
#    0.000    0.000    0.000    5.800    0.000    0.000 
#    0.000    0.000    0.000    0.000    0.000    1.000 
#
# Total GULP energy -743623.662858 kJ/mol
# GULP energy per Si atom -12393.727714 kJ/mol
# Density = 1.486960 g / cm^3
# Si number density = 14.903518 Si / 1000 Ang^3
#
#
#
# Elastic Constant Matrix: (Units=GPa)
#
#
# Indices 1 2 3 4 5 6 
#
# 1 89.4351 51.7385 45.0535 2.0750 0.0000 0.0000
# 2 51.7385 89.4351 45.0535 -2.0750 0.0000 0.0000
# 3 45.0535 45.0535 76.9211 0.0000 0.0000 0.0000
# 4 2.0750 -2.0750 0.0000 20.1679 0.0000 0.0000
# 5 0.0000 0.0000 0.0000 0.0000 20.1679 2.0750
# 6 0.0000 0.0000 0.0000 0.0000 2.0750 18.8483
#
#
#
# Elastic Compliance Matrix: (Units=1/GPa)
#
#
# Indices 1 2 3 4 5 6 
#
# 1 0.019072 -0.007759 -0.006626 -0.002761 0.000000 0.000000
# 2 -0.007759 0.019072 -0.006626 0.002761 0.000000 0.000000
# 3 -0.006626 -0.006626 0.020762 0.000000 0.000000 0.000000
# 4 -0.002761 0.002761 0.000000 0.050152 0.000000 0.000000
# 5 0.000000 0.000000 0.000000 0.000000 0.050152 -0.005521
# 6 0.000000 0.000000 0.000000 0.000000 -0.005521 0.053663
#
#
# Mechanical properties :
#
#
# Convention : Reuss Voigt Hill
#
# Bulk Modulus (GPa) = 59.22901 59.94251 59.58576
# Shear Modulus (GPa) = 19.19216 19.43322 19.31269
#
# Velocity S-wave (km/s) = 3.59243 3.61492 3.60369
# Velocity P-wave (km/s) = 7.55217 7.59811 7.57517
#
# Compressibility (1/GPa) = 0.01688362
#
# Stress axis : x y z
#
# Youngs Moduli (GPa) = 52.43278 52.43278 48.16478
#
# Poissons Ratio (x) = 0.40685 0.31914
# Poissons Ratio (y) = 0.40685 0.31914
# Poissons Ratio (z) = 0.34741 0.34741
#
# Static dielectric constant tensor:
#      x y z
#    x 3.187340 0.000000 0.000000 
#    y 0.000000 3.187340 0.000000 
#    z 0.000000 0.000000 2.716110 
# 
# 
# High freq. dielectric constant tensor:
#      x y z
#    x 1.572090 0.000000 0.000000 
#    y 0.000000 1.572090 0.000000 
#    z 0.000000 0.000000 1.533470 
# 
# From -- ./inp_files/2693.got.cif
#   From: 2010.03.12/outbox.cif.g09.slc.cpg/sg164_2_cif.got.tgz:2693.got - 2010.04.02 06:32:59.
