data_PCOD8323061
_publ_section_title
;
Structure prediction by ZEFSAII (Michael W. Deem and Ramdas Pophale) SiO2 
 PCOD8323061
Probable space group: P -3 1 M 
;
_chemical_formula_sum "Si O2"
_cell_formula_units_Z 48
_cell_length_a 20.633962
_cell_length_b 20.633962
_cell_length_c 7.416639
_cell_angle_alpha 90.000000
_cell_angle_beta 90.000000
_cell_angle_gamma 120.000000
_cell_volume 2734.658028
_symmetry_space_group_name_H-M "P -3 1 M "
_symmetry_group_IT_number 162
_symmetry_cell_setting 'hexagonal'
loop_
_space_group_symop_operation_xyz
x,y,z
-y,x-y,z
-x+y,-x,z
-y,-x,-z
-x+y,y,-z
x,x-y,-z
-x,-y,-z
y,-x+y,-z
x-y,x,-z
y,x,z
x-y,-y,z
-x,-x+y,z
loop_
_atom_site_type_symbol
_atom_site_label
_atom_site_fract_x
_atom_site_fract_y
_atom_site_fract_z
Si Si1 0.144998 0.436652 0.208319
Si Si2 0.855002 0.563348 0.208318
Si Si3 0.542051 0.084101 0.213131
Si Si4 0.686684 0.916188 0.500000
O O1 0.233076 0.466151 0.237024
O O2 0.128727 0.500954 0.279779
O O3 0.095544 0.362117 0.321823
O O4 0.121464 0.416621 0.000000
O O5 0.871273 0.499046 0.279779
O O6 0.904456 0.637884 0.321821
O O7 0.500000 0.000000 0.293922
O O8 0.540026 0.080052 0.000000
O O9 0.719071 0.859536 0.500000
O O10 0.756509 0.000000 0.500000
#
# Coordination Sequence:
#
# PCOD8323061 Si02
#       4
#    12  12  12  12
#     4   9  18  32  47  67  96 126 158 195 234 275
#     4   9  18  32  47  67  96 126 158 195 234 275
#     4   9  16  27  45  67  90 119 157 196 231 269
#     4  10  20  33  51  72  93 119 151 189 233 283
#
# _framework density 17.552467
#
# number of rings (size 3 to 8) (size 9 to 14) (size 15 to 20)
#    0.000    2.750    0.000    1.500    0.000    4.000 
#    1.500    2.500    0.000    0.250    0.000    0.000 
#    0.000    0.000    0.000   12.500    0.000    0.000 
#
# Total GULP energy -595092.465119 kJ/mol
# GULP energy per Si atom -12397.759690 kJ/mol
# Density = 1.751252 g / cm^3
# Si number density = 17.552467 Si / 1000 Ang^3
#
#
#
# Elastic Constant Matrix: (Units=GPa)
#
#
# Indices 1 2 3 4 5 6 
#
# 1 137.2982 85.9781 29.6668 0.0000 0.0000 0.0000
# 2 85.9781 137.2982 29.6668 0.0000 0.0000 0.0000
# 3 29.6668 29.6668 66.7662 0.0000 0.0000 0.0000
# 4 0.0000 0.0000 0.0000 13.8505 0.0000 0.0000
# 5 0.0000 0.0000 0.0000 0.0000 13.8505 0.0000
# 6 0.0000 0.0000 0.0000 0.0000 0.0000 25.6601
#
#
#
# Elastic Compliance Matrix: (Units=1/GPa)
#
#
# Indices 1 2 3 4 5 6 
#
# 1 0.012282 -0.007204 -0.002257 0.000000 0.000000 0.000000
# 2 -0.007204 0.012282 -0.002257 0.000000 0.000000 0.000000
# 3 -0.002257 -0.002257 0.016983 0.000000 0.000000 0.000000
# 4 0.000000 0.000000 0.000000 0.072199 0.000000 0.000000
# 5 0.000000 0.000000 0.000000 0.000000 0.072199 0.000000
# 6 0.000000 0.000000 0.000000 0.000000 0.000000 0.038971
#
#
# Mechanical properties :
#
#
# Convention : Reuss Voigt Hill
#
# Bulk Modulus (GPa) = 55.20696 70.22066 62.71381
# Shear Modulus (GPa) = 19.65501 23.74227 21.69864
#
# Velocity S-wave (km/s) = 3.34995 3.68182 3.51980
# Velocity P-wave (km/s) = 6.81790 7.62676 7.23364
#
# Compressibility (1/GPa) = 0.01811366
#
# Stress axis : x y z
#
# Youngs Moduli (GPa) = 81.42014 81.42014 58.88247
#
# Poissons Ratio (x) = 0.58652 0.13287
# Poissons Ratio (y) = 0.58652 0.13287
# Poissons Ratio (z) = 0.18373 0.18373
#
# Static dielectric constant tensor:
#      x y z
#    x 3.271230 0.000000 0.000000 
#    y 0.000000 3.271230 0.000000 
#    z 0.000000 0.000000 3.288750 
# 
# 
# High freq. dielectric constant tensor:
#      x y z
#    x 1.662180 0.000000 0.000000 
#    y 0.000000 1.662180 0.000000 
#    z 0.000000 0.000000 1.686880 
# 
# From -- ./inp_files/1396.got.cif
#   From: 2010.03.12/outbox.cif.g09.slc.cpg/sg162_1_cif.got.tgz:1396.got - 2010.04.02 06:27:41.
