data_PCOD8323730
_publ_section_title
;
Structure prediction by ZEFSAII (Michael W. Deem and Ramdas Pophale) SiO2 
 PCOD8323730
Probable space group: P -3 M 1
;
_chemical_formula_sum "Si O2"
_cell_formula_units_Z 60
_cell_length_a 12.623371
_cell_length_b 12.623371
_cell_length_c 25.399896
_cell_angle_alpha 90.000000
_cell_angle_beta 90.000000
_cell_angle_gamma 120.000000
_cell_volume 3505.203710
_symmetry_space_group_name_H-M "P -3 M 1"
_symmetry_group_IT_number 164
_symmetry_cell_setting 'hexagonal'
loop_
_space_group_symop_operation_xyz
x,y,z
-y,x-y,z
-x+y,-x,z
x-y,-y,-z
-x,-x+y,-z
y,x,-z
-x,-y,-z
y,-x+y,-z
x-y,x,-z
-x+y,y,z
x,x-y,z
-y,-x,z
loop_
_atom_site_type_symbol
_atom_site_label
_atom_site_fract_x
_atom_site_fract_y
_atom_site_fract_z
Si Si1 0.420629 0.086084 0.146836
Si Si2 0.089189 0.666251 0.239343
Si Si3 0.666470 0.089268 0.640564
Si Si4 0.580680 0.664943 0.048909
Si Si5 0.421981 0.334460 0.451237
O O1 0.563257 0.126514 0.144451
O O2 0.407924 0.203962 0.138160
O O3 0.361755 0.025565 0.202863
O O4 0.345458 0.988063 0.102063
O O5 0.128598 0.564299 0.230375
O O6 0.204307 0.795694 0.223845
O O7 0.048140 0.665517 0.299377
O O8 0.562957 0.125913 0.631056
O O9 0.794252 0.205749 0.625427
O O10 0.644054 0.978239 0.603005
O O11 0.589754 0.794877 0.047309
O O12 0.438931 0.561069 0.045887
O O13 0.654918 0.654918 0.000000
O O14 0.355940 0.355940 0.500000
O O15 0.408344 0.204172 0.458756
O O16 0.564381 0.435620 0.449335
#
# Coordination Sequence:
#
# PCOD8323730 Si02
#       5
#    12  12  12  12  12
#     4  10  20  33  50  72  99 131 165 202 244 289
#     4   9  17  30  50  75 100 126 158 199 244 287
#     4   9  17  30  50  75 100 126 157 195 240 287
#     4  10  20  34  54  78 102 128 159 198 243 289
#     4  10  20  33  50  72  97 125 157 195 240 287
#
# _framework density 17.117408000000001
#
# number of rings (size 3 to 8) (size 9 to 14) (size 15 to 20)
#    0.000    2.400    0.000    2.800    0.000    2.400 
#    0.000    6.000    0.000   13.600    0.000    0.000 
#    0.000    0.000    0.000    0.000    0.000    0.000 
#
# Total GULP energy -744139.171452 kJ/mol
# GULP energy per Si atom -12402.319524 kJ/mol
# Density = 1.707845 g / cm^3
# Si number density = 17.117408 Si / 1000 Ang^3
#
#
#
# Elastic Constant Matrix: (Units=GPa)
#
#
# Indices 1 2 3 4 5 6 
#
# 1 102.2676 65.2412 50.7527 -1.0822 0.0000 0.0000
# 2 65.2412 102.2676 50.7527 1.0822 0.0000 0.0000
# 3 50.7527 50.7527 104.4046 0.0000 0.0000 0.0000
# 4 -1.0822 1.0822 0.0000 19.8687 0.0000 0.0000
# 5 0.0000 0.0000 0.0000 0.0000 19.8687 -1.0822
# 6 0.0000 0.0000 0.0000 0.0000 -1.0822 18.5132
#
#
#
# Elastic Compliance Matrix: (Units=1/GPa)
#
#
# Indices 1 2 3 4 5 6 
#
# 1 0.017778 -0.009316 -0.004114 0.001476 0.000000 0.000000
# 2 -0.009316 0.017778 -0.004114 -0.001476 0.000000 0.000000
# 3 -0.004114 -0.004114 0.013578 0.000000 0.000000 0.000000
# 4 0.001476 -0.001476 0.000000 0.050491 0.000000 0.000000
# 5 0.000000 0.000000 0.000000 0.000000 0.050491 0.002951
# 6 0.000000 0.000000 0.000000 0.000000 0.002951 0.054188
#
#
# Mechanical properties :
#
#
# Convention : Reuss Voigt Hill
#
# Bulk Modulus (GPa) = 71.18580 71.38142 71.28361
# Shear Modulus (GPa) = 20.48557 21.12966 20.80761
#
# Velocity S-wave (km/s) = 3.46319 3.51721 3.49030
# Velocity P-wave (km/s) = 7.59399 7.63452 7.61428
#
# Compressibility (1/GPa) = 0.01404775
#
# Stress axis : x y z
#
# Youngs Moduli (GPa) = 56.24815 56.24815 73.64996
#
# Poissons Ratio (x) = 0.52399 0.30299
# Poissons Ratio (y) = 0.52399 0.30299
# Poissons Ratio (z) = 0.23140 0.23140
#
# Static dielectric constant tensor:
#      x y z
#    x 3.009450 0.000000 0.000000 
#    y 0.000000 3.009450 0.000000 
#    z 0.000000 0.000000 3.522830 
# 
# 
# High freq. dielectric constant tensor:
#      x y z
#    x 1.647140 0.000000 0.000000 
#    y 0.000000 1.647140 0.000000 
#    z 0.000000 0.000000 1.681690 
# 
# From -- ./inp_files/5162.got.cif
#   From: 2010.03.12/outbox.cif.g09.slc.cpg/sg164_3_cif.got.tgz:5162.got - 2010.04.02 06:32:59.
