data_PCOD8323501
_publ_section_title
;
Structure prediction by ZEFSAII (Michael W. Deem and Ramdas Pophale) SiO2 
 PCOD8323501
Probable space group: P -3 M 1
;
_chemical_formula_sum "Si O2"
_cell_formula_units_Z 72
_cell_length_a 23.538010
_cell_length_b 23.538010
_cell_length_c 8.740819
_cell_angle_alpha 90.000000
_cell_angle_beta 90.000000
_cell_angle_gamma 120.000000
_cell_volume 4193.940308
_symmetry_space_group_name_H-M "P -3 M 1"
_symmetry_group_IT_number 164
_symmetry_cell_setting 'hexagonal'
loop_
_space_group_symop_operation_xyz
x,y,z
-y,x-y,z
-x+y,-x,z
x-y,-y,-z
-x,-x+y,-z
y,x,-z
-x,-y,-z
y,-x+y,-z
x-y,x,-z
-x+y,y,z
x,x-y,z
-y,-x,z
loop_
_atom_site_type_symbol
_atom_site_label
_atom_site_fract_x
_atom_site_fract_y
_atom_site_fract_z
Si Si1 0.252541 0.989162 0.179720
Si Si2 0.999870 0.871808 0.818210
Si Si3 0.936765 0.306567 0.400057
Si Si4 0.740808 0.131026 0.698064
Si Si5 0.086152 0.607240 0.152383
Si Si6 0.597402 0.067672 0.189582
O O1 0.188984 0.992050 0.236410
O O2 0.243583 0.918173 0.208875
O O3 0.313140 0.045252 0.275069
O O4 0.264070 0.000000 0.000000
O O5 0.938919 0.877837 0.753181
O O6 0.067683 0.932318 0.753931
O O7 0.000000 0.874295 0.000000
O O8 0.881768 0.256999 0.517027
O O9 0.905515 0.345171 0.314269
O O10 0.000000 0.356416 0.500000
O O11 0.795768 0.204233 0.737675
O O12 0.671868 0.125112 0.745541
O O13 0.105382 0.552691 0.202553
O O14 0.009444 0.579472 0.174146
O O15 0.102867 0.624724 0.973386
O O16 0.540834 0.081667 0.248556
#
# Coordination Sequence:
#
# PCOD8323501 Si02
#       6
#    12  12  12  12  12  12
#     4  10  19  33  52  71  98 131 174 216 265 318
#     4   9  17  29  46  67  88 114 156 212 266 310
#     4  10  19  30  45  70 104 136 163 197 242 306
#     4  11  22  34  48  73 109 144 174 209 257 312
#     4   9  17  31  54  79 103 130 165 207 251 299
#     4   9  16  29  52  80 104 127 157 203 256 301
#
# _framework density 17.167625999999998
#
# number of rings (size 3 to 8) (size 9 to 14) (size 15 to 20)
#    0.000    2.333    3.333    2.667    0.000    3.000 
#    0.000    2.500    0.000    0.333    0.000    0.000 
#    0.000   14.667    0.000    0.000    0.000    0.000 
#
# Total GULP energy -892633.889752 kJ/mol
# GULP energy per Si atom -12397.692913 kJ/mol
# Density = 1.712855 g / cm^3
# Si number density = 17.167626 Si / 1000 Ang^3
#
#
#
# Elastic Constant Matrix: (Units=GPa)
#
#
# Indices 1 2 3 4 5 6 
#
# 1 95.8983 60.3279 37.1525 -3.8634 0.0000 0.0000
# 2 60.3279 95.8983 37.1525 3.8634 0.0000 0.0000
# 3 37.1525 37.1525 78.0478 0.0000 0.0000 0.0000
# 4 -3.8634 3.8634 0.0000 14.4228 0.0000 0.0000
# 5 0.0000 0.0000 0.0000 0.0000 14.4228 -3.8634
# 6 0.0000 0.0000 0.0000 0.0000 -3.8634 17.7852
#
#
#
# Elastic Compliance Matrix: (Units=1/GPa)
#
#
# Indices 1 2 3 4 5 6 
#
# 1 0.019062 -0.010788 -0.003939 0.007996 0.000000 0.000000
# 2 -0.010788 0.019062 -0.003939 -0.007996 0.000000 0.000000
# 3 -0.003939 -0.003939 0.016563 0.000000 0.000000 0.000000
# 4 0.007996 -0.007996 0.000000 0.073618 0.000000 0.000000
# 5 0.000000 0.000000 0.000000 0.000000 0.073618 0.015992
# 6 0.000000 0.000000 0.000000 0.000000 0.015992 0.059700
#
#
# Mechanical properties :
#
#
# Convention : Reuss Voigt Hill
#
# Bulk Modulus (GPa) = 57.61643 59.90110 58.75877
# Shear Modulus (GPa) = 16.40740 18.34024 17.37382
#
# Velocity S-wave (km/s) = 3.09482 3.27204 3.18466
# Velocity P-wave (km/s) = 6.81209 7.01731 6.91546
#
# Compressibility (1/GPa) = 0.01735616
#
# Stress axis : x y z
#
# Youngs Moduli (GPa) = 52.45967 52.45967 60.37716
#
# Poissons Ratio (x) = 0.56593 0.23781
# Poissons Ratio (y) = 0.56593 0.23781
# Poissons Ratio (z) = 0.20663 0.20663
#
# Static dielectric constant tensor:
#      x y z
#    x 3.130940 0.000000 0.000000 
#    y 0.000000 3.130940 0.000000 
#    z 0.000000 0.000000 3.309290 
# 
# 
# High freq. dielectric constant tensor:
#      x y z
#    x 1.641080 0.000000 0.000000 
#    y 0.000000 1.641080 0.000000 
#    z 0.000000 0.000000 1.660260 
# 
# From -- ./inp_files/1956.got.cif
#   From: 2010.03.12/outbox.cif.g09.slc.cpg/sg164_1_cif.got.tgz:1956.got - 2010.04.02 06:32:59.
