data_PCOD8323593
_publ_section_title
;
Structure prediction by ZEFSAII (Michael W. Deem and Ramdas Pophale) SiO2 
 PCOD8323593
Probable space group: P -3 M 1
;
_chemical_formula_sum "Si O2"
_cell_formula_units_Z 36
_cell_length_a 17.654643
_cell_length_b 17.654643
_cell_length_c 7.493694
_cell_angle_alpha 90.000000
_cell_angle_beta 90.000000
_cell_angle_gamma 120.000000
_cell_volume 2022.760511
_symmetry_space_group_name_H-M "P -3 M 1"
_symmetry_group_IT_number 164
_symmetry_cell_setting 'hexagonal'
loop_
_space_group_symop_operation_xyz
x,y,z
-y,x-y,z
-x+y,-x,z
x-y,-y,-z
-x,-x+y,-z
y,x,-z
-x,-y,-z
y,-x+y,-z
x-y,x,-z
-x+y,y,z
x,x-y,z
-y,-x,z
loop_
_atom_site_type_symbol
_atom_site_label
_atom_site_fract_x
_atom_site_fract_y
_atom_site_fract_z
Si Si1 0.899206 0.100795 0.959898
Si Si2 0.328946 0.328946 0.500000
Si Si3 0.066286 0.447545 0.838750
Si Si4 0.159618 0.319236 0.350161
Si Si5 0.803109 0.196892 0.020877
O O1 0.887143 0.112858 0.750439
O O2 0.854602 0.145399 0.078330
O O3 0.000000 0.145743 0.000000
O O4 0.389139 0.373143 0.330151
O O5 0.235750 0.323160 0.472888
O O6 0.095910 0.547955 0.797099
O O7 0.151504 0.443673 0.893587
O O8 0.000000 0.410324 0.000000
O O9 0.198183 0.396365 0.197475
#
# Coordination Sequence:
#
# PCOD8323593 Si02
#       5
#     6   6  12   6   6
#     4  10  19  34  59  91 122 167 212 254 304 364
#     4  12  21  40  58  95 120 158 210 251 312 370
#     4  11  22  38  64  90 119 155 203 255 303 370
#     4  10  23  34  63  87 119 170 199 254 308 368
#     4  10  19  42  58  87 121 165 203 244 320 367
#
# _framework density 17.797459
#
# number of rings (size 3 to 8) (size 9 to 14) (size 15 to 20)
#    1.000    0.333    3.333    4.667    0.000    1.333 
#    1.000    0.000    0.000    1.333    0.000    0.000 
#    0.000    0.000    0.000    0.000    0.000    0.000 
#
# Total GULP energy -446287.897195 kJ/mol
# GULP energy per Si atom -12396.886033 kJ/mol
# Density = 1.775695 g / cm^3
# Si number density = 17.797459 Si / 1000 Ang^3
#
#
#
# Elastic Constant Matrix: (Units=GPa)
#
#
# Indices 1 2 3 4 5 6 
#
# 1 275.6220 -63.5584 41.5300 3.6723 0.0000 0.0000
# 2 -63.5584 275.6220 41.5300 -3.6723 0.0000 0.0000
# 3 41.5300 41.5300 94.9719 0.0000 0.0000 0.0000
# 4 3.6723 -3.6723 0.0000 14.3293 0.0000 0.0000
# 5 0.0000 0.0000 0.0000 0.0000 14.3293 3.6723
# 6 0.0000 0.0000 0.0000 0.0000 3.6723 169.5902
#
#
#
# Elastic Compliance Matrix: (Units=1/GPa)
#
#
# Indices 1 2 3 4 5 6 
#
# 1 0.004327 0.001363 -0.002488 -0.000760 0.000000 0.000000
# 2 0.001363 0.004327 -0.002488 0.000760 0.000000 0.000000
# 3 -0.002488 -0.002488 0.012706 0.000000 0.000000 0.000000
# 4 -0.000760 0.000760 0.000000 0.070177 0.000000 0.000000
# 5 0.000000 0.000000 0.000000 0.000000 0.070177 -0.001520
# 6 0.000000 0.000000 0.000000 0.000000 -0.001520 0.005929
#
#
# Mechanical properties :
#
#
# Convention : Reuss Voigt Hill
#
# Bulk Modulus (GPa) = 70.75666 76.13547 73.44607
# Shear Modulus (GPa) = 27.84248 81.43069 54.63659
#
# Velocity S-wave (km/s) = 3.95955 6.77152 5.54669
# Velocity P-wave (km/s) = 7.79403 10.19851 9.07625
#
# Compressibility (1/GPa) = 0.01413294
#
# Stress axis : x y z
#
# Youngs Moduli (GPa) = 231.08352 231.08352 78.70566
#
# Poissons Ratio (x) = -0.31490 0.19584
# Poissons Ratio (y) = -0.31490 0.19584
# Poissons Ratio (z) = 0.57499 0.57499
#
# Static dielectric constant tensor:
#      x y z
#    x 3.037710 0.000000 0.000000 
#    y 0.000000 3.037710 0.000000 
#    z 0.000000 0.000000 6.924870 
# 
# 
# High freq. dielectric constant tensor:
#      x y z
#    x 1.684340 0.000000 0.000000 
#    y 0.000000 1.684340 0.000000 
#    z 0.000000 0.000000 1.695400 
# 
# From -- ./inp_files/1155.got.cif
#   From: 2010.03.12/outbox.cif.g09.slc.cpg/sg164_1_cif.got.tgz:1155.got - 2010.04.02 06:32:59.
