data_PCOD8323437
_publ_section_title
;
Structure prediction by ZEFSAII (Michael W. Deem and Ramdas Pophale) SiO2 
 PCOD8323437
Probable space group: P -3 M 1
;
_chemical_formula_sum "Si O2"
_cell_formula_units_Z 96
_cell_length_a 16.909034
_cell_length_b 16.909034
_cell_length_c 26.034236
_cell_angle_alpha 90.000000
_cell_angle_beta 90.000000
_cell_angle_gamma 120.000000
_cell_volume 6446.337864
_symmetry_space_group_name_H-M "P -3 M 1"
_symmetry_group_IT_number 164
_symmetry_cell_setting 'hexagonal'
loop_
_space_group_symop_operation_xyz
x,y,z
-y,x-y,z
-x+y,-x,z
x-y,-y,-z
-x,-x+y,-z
y,x,-z
-x,-y,-z
y,-x+y,-z
x-y,x,-z
-x+y,y,z
x,x-y,z
-y,-x,z
loop_
_atom_site_type_symbol
_atom_site_label
_atom_site_fract_x
_atom_site_fract_y
_atom_site_fract_z
Si Si1 0.665860 0.519575 0.981760
Si Si2 0.668483 0.151604 0.580990
Si Si3 0.667386 0.517064 0.281073
Si Si4 0.848690 0.515072 0.164531
Si Si5 0.422341 0.032124 0.373995
Si Si6 0.151310 0.668287 0.534302
Si Si7 0.179818 0.179714 0.060687
Si Si8 0.629925 0.655603 0.922819
O O1 0.760673 0.521345 0.970500
O O2 0.584685 0.415316 0.987325
O O3 0.641764 0.568632 0.935923
O O4 0.675596 0.575173 0.033417
O O5 0.586542 0.173083 0.583529
O O6 0.758920 0.241081 0.598620
O O7 0.675913 0.119724 0.523226
O O8 0.655880 0.073169 0.620711
O O9 0.757459 0.514918 0.296070
O O10 0.584341 0.415660 0.289294
O O11 0.671130 0.549979 0.222656
O O12 0.659258 0.587875 0.319402
O O13 0.763437 0.526873 0.147183
O O14 0.816898 0.408449 0.159769
O O15 0.937219 0.574134 0.129626
O O16 0.519365 0.038730 0.377282
O O17 0.411945 0.086553 0.422337
O O18 0.148929 0.574465 0.541036
O O19 0.253474 0.746527 0.544611
O O20 0.160817 0.080409 0.077439
O O21 0.271457 0.256733 0.086905
O O22 0.095033 0.190066 0.079554
O O23 0.193028 0.193028 0.000000
#
# Coordination Sequence:
#
# PCOD8323437 Si02
#       8
#    12  12  12  12  12  12  12  12
#     4  11  21  33  47  65  88 115 144 173 206 246
#     4   9  16  25  37  53  75 106 142 178 211 244
#     4   9  17  28  43  62  85 111 138 167 202 245
#     4  10  19  31  46  65  87 112 141 173 208 247
#     4   9  16  25  37  55  78 105 136 171 207 243
#     4   9  15  22  34  54  81 110 138 165 198 243
#     4  10  18  29  45  66  90 115 140 168 203 249
#     4  11  20  31  48  66  89 115 142 174 211 249
#
# _framework density 14.892177
#
# number of rings (size 3 to 8) (size 9 to 14) (size 15 to 20)
#    0.000    2.250    1.250    4.500    0.000    4.000 
#    0.000    2.500    0.000    1.500    0.000    0.000 
#    0.000    2.000    0.000    3.000    0.000   22.500 
#
# Total GULP energy -1190100.786678 kJ/mol
# GULP energy per Si atom -12396.883195 kJ/mol
# Density = 1.485828 g / cm^3
# Si number density = 14.892177 Si / 1000 Ang^3
#
#
#
# Elastic Constant Matrix: (Units=GPa)
#
#
# Indices 1 2 3 4 5 6 
#
# 1 76.8926 27.9313 42.6501 3.4115 0.0000 0.0000
# 2 27.9313 76.8926 42.6501 -3.4115 0.0000 0.0000
# 3 42.6501 42.6501 77.5275 0.0000 0.0000 0.0000
# 4 3.4115 -3.4115 0.0000 18.3397 0.0000 0.0000
# 5 0.0000 0.0000 0.0000 0.0000 18.3397 3.4115
# 6 0.0000 0.0000 0.0000 0.0000 3.4115 24.4806
#
#
#
# Elastic Compliance Matrix: (Units=1/GPa)
#
#
# Indices 1 2 3 4 5 6 
#
# 1 0.019120 -0.001848 -0.009502 -0.003900 0.000000 0.000000
# 2 -0.001848 0.019120 -0.009502 0.003900 0.000000 0.000000
# 3 -0.009502 -0.009502 0.023353 0.000000 0.000000 0.000000
# 4 -0.003900 0.003900 0.000000 0.055978 0.000000 0.000000
# 5 0.000000 0.000000 0.000000 0.000000 0.055978 -0.007801
# 6 0.000000 0.000000 0.000000 0.000000 -0.007801 0.041936
#
#
# Mechanical properties :
#
#
# Convention : Reuss Voigt Hill
#
# Bulk Modulus (GPa) = 50.27718 50.86394 50.57056
# Shear Modulus (GPa) = 18.95256 20.10406 19.52831
#
# Velocity S-wave (km/s) = 3.57129 3.67819 3.62513
# Velocity P-wave (km/s) = 7.13019 7.22964 7.18009
#
# Compressibility (1/GPa) = 0.01988974
#
# Stress axis : x y z
#
# Youngs Moduli (GPa) = 52.30172 52.30172 42.82110
#
# Poissons Ratio (x) = 0.09666 0.40687
# Poissons Ratio (y) = 0.09666 0.40687
# Poissons Ratio (z) = 0.49696 0.49696
#
# Static dielectric constant tensor:
#      x y z
#    x 2.864990 0.000000 0.000000 
#    y 0.000000 2.864990 0.000000 
#    z 0.000000 0.000000 2.864380 
# 
# 
# High freq. dielectric constant tensor:
#      x y z
#    x 1.559430 0.000000 0.000000 
#    y 0.000000 1.559430 0.000000 
#    z 0.000000 0.000000 1.548830 
# 
# From -- ./inp_files/5096.got.cif
#   From: 2010.03.12/outbox.cif.g09.slc.cpg/sg164_3_cif.got.tgz:5096.got - 2010.04.02 06:32:59.
