data_PCOD8323209
_publ_section_title
;
Structure prediction by ZEFSAII (Michael W. Deem and Ramdas Pophale) SiO2 
 PCOD8323209
Probable space group: P -3 1 C
;
_chemical_formula_sum "Si O2"
_cell_formula_units_Z 60
_cell_length_a 17.600747
_cell_length_b 17.600747
_cell_length_c 15.297132
_cell_angle_alpha 90.000000
_cell_angle_beta 90.000000
_cell_angle_gamma 120.000000
_cell_volume 4103.957423
_symmetry_space_group_name_H-M "P -3 1 C"
_symmetry_group_IT_number 163
_symmetry_cell_setting 'hexagonal'
loop_
_space_group_symop_operation_xyz
x,y,z
-y,x-y,z
-x+y,-x,z
-y,-x,1/2-z
-x+y,y,1/2-z
x,x-y,1/2-z
-x,-y,-z
y,-x+y,-z
x-y,x,-z
y,x,1/2+z
x-y,-y,1/2+z
-x,-x+y,1/2+z
loop_
_atom_site_type_symbol
_atom_site_label
_atom_site_fract_x
_atom_site_fract_y
_atom_site_fract_z
Si Si1 0.666342 0.164087 0.353831
Si Si2 0.938054 0.695269 0.152851
Si Si3 0.695269 0.938054 0.847149
Si Si4 0.164087 0.497745 0.853831
Si Si5 0.000000 0.179640 0.000000
O O1 0.681832 0.083322 0.378984
O O2 0.667695 0.171743 0.250000
O O3 0.573092 0.146184 0.392024
O O4 0.744023 0.255977 0.392575
O O5 0.846877 0.693755 0.156090
O O6 0.980941 0.717318 0.250000
O O7 0.916678 0.598510 0.121016
O O8 0.003685 0.768619 0.085473
O O9 0.768619 0.003685 0.914527
O O10 0.084299 0.168598 0.000900
#
# Coordination Sequence:
#
# PCOD8323209 Si02
#       5
#    12  12  12  12  12
#     4   8  12  19  34  56  80 104 127 148 172 209
#     4   8  15  27  40  55  77 101 121 147 188 229
#     4   8  15  27  40  55  77 101 121 147 188 229
#     4   8  12  19  34  56  80 104 127 148 172 209
#     4  10  19  30  43  56  70  92 126 166 203 238
#
# _framework density 14.620034
#
# number of rings (size 3 to 8) (size 9 to 14) (size 15 to 20)
#    0.000    3.600    0.000    3.000    0.000    2.400 
#    0.000    1.000    0.000    2.400    0.000    0.000 
#    0.000    0.000    0.000    1.200    0.000   16.400 
#
# Total GULP energy -743378.846589 kJ/mol
# GULP energy per Si atom -12389.647443 kJ/mol
# Density = 1.458676 g / cm^3
# Si number density = 14.620034 Si / 1000 Ang^3
#
#
#
# Elastic Constant Matrix: (Units=GPa)
#
#
# Indices 1 2 3 4 5 6 
#
# 1 69.7367 43.0900 37.6433 0.0000 0.0000 0.0000
# 2 43.0900 69.7367 37.6433 0.0000 0.0000 0.0000
# 3 37.6433 37.6433 66.1878 0.0000 0.0000 0.0000
# 4 0.0000 0.0000 0.0000 13.2155 0.0000 0.0000
# 5 0.0000 0.0000 0.0000 0.0000 13.2155 0.0000
# 6 0.0000 0.0000 0.0000 0.0000 0.0000 13.3233
#
#
#
# Elastic Compliance Matrix: (Units=1/GPa)
#
#
# Indices 1 2 3 4 5 6 
#
# 1 0.025906 -0.011622 -0.008124 0.000000 0.000000 0.000000
# 2 -0.011622 0.025906 -0.008124 0.000000 0.000000 0.000000
# 3 -0.008124 -0.008124 0.024349 0.000000 0.000000 0.000000
# 4 0.000000 0.000000 0.000000 0.075669 0.000000 0.000000
# 5 0.000000 0.000000 0.000000 0.000000 0.075669 0.000000
# 6 0.000000 0.000000 0.000000 0.000000 0.000000 0.075056
#
#
# Mechanical properties :
#
#
# Convention : Reuss Voigt Hill
#
# Bulk Modulus (GPa) = 48.96713 49.15716 49.06215
# Shear Modulus (GPa) = 13.69483 13.76984 13.73233
#
# Velocity S-wave (km/s) = 3.06390 3.07228 3.06810
# Velocity P-wave (km/s) = 6.78841 6.80304 6.79573
#
# Compressibility (1/GPa) = 0.02042186
#
# Stress axis : x y z
#
# Youngs Moduli (GPa) = 38.60101 38.60101 41.06931
#
# Poissons Ratio (x) = 0.44862 0.33364
# Poissons Ratio (y) = 0.44862 0.33364
# Poissons Ratio (z) = 0.31359 0.31359
#
# Static dielectric constant tensor:
#      x y z
#    x 2.909440 0.000000 0.000000 
#    y 0.000000 2.909440 0.000000 
#    z 0.000000 0.000000 2.770390 
# 
# 
# High freq. dielectric constant tensor:
#      x y z
#    x 1.545930 0.000000 0.000000 
#    y 0.000000 1.545930 0.000000 
#    z 0.000000 0.000000 1.521480 
# 
# From -- ./inp_files/2464.got.cif
#   From: 2010.03.12/outbox.cif.g09.slc.cpg/sg163_2_cif.got.tgz:2464.got - 2010.04.02 06:30:25.
