data_PCOD8323565
_publ_section_title
;
Structure prediction by ZEFSAII (Michael W. Deem and Ramdas Pophale) SiO2 
 PCOD8323565
Probable space group: P -3 M 1
;
_chemical_formula_sum "Si O2"
_cell_formula_units_Z 96
_cell_length_a 23.267105
_cell_length_b 23.267105
_cell_length_c 11.412345
_cell_angle_alpha 90.000000
_cell_angle_beta 90.000000
_cell_angle_gamma 120.000000
_cell_volume 5350.448932
_symmetry_space_group_name_H-M "P -3 M 1"
_symmetry_group_IT_number 164
_symmetry_cell_setting 'hexagonal'
loop_
_space_group_symop_operation_xyz
x,y,z
-y,x-y,z
-x+y,-x,z
x-y,-y,-z
-x,-x+y,-z
y,x,-z
-x,-y,-z
y,-x+y,-z
x-y,x,-z
-x+y,y,z
x,x-y,z
-y,-x,z
loop_
_atom_site_type_symbol
_atom_site_label
_atom_site_fract_x
_atom_site_fract_y
_atom_site_fract_z
Si Si1 0.732376 0.136921 0.919958
Si Si2 0.973667 0.729435 0.803692
Si Si3 0.362519 0.050060 0.599862
Si Si4 0.578549 0.855095 0.593934
Si Si5 0.641032 0.754172 0.829868
Si Si6 0.460169 0.796007 0.454918
Si Si7 0.999246 0.130348 0.863134
Si Si8 0.487410 0.381888 0.751203
O O1 0.789860 0.210141 0.881815
O O2 0.756122 0.085919 0.875912
O O3 0.662046 0.123900 0.869507
O O4 0.723871 0.132714 0.060494
O O5 0.970317 0.704547 0.670404
O O6 0.972864 0.798251 0.798085
O O7 0.043764 0.748730 0.862399
O O8 0.379362 0.116295 0.526348
O O9 0.420346 0.053623 0.683660
O O10 0.356557 0.000000 0.500000
O O11 0.573702 0.786851 0.628245
O O12 0.608229 0.898673 0.712111
O O13 0.505966 0.844207 0.560305
O O14 0.662926 0.831463 0.811375
O O15 0.384559 0.769117 0.492010
O O16 0.476348 0.738174 0.439969
O O17 0.473959 0.830477 0.329461
O O18 0.946609 0.053392 0.836555
O O19 0.072361 0.144722 0.821562
O O20 0.000000 0.145358 0.000000
O O21 0.539285 0.460716 0.778958
#
# Coordination Sequence:
#
# PCOD8323565 Si02
#       8
#    12  12  12  12  12  12  12  12
#     4  10  20  33  52  76 103 135 169 209 262 313
#     4  11  20  31  53  78 107 132 174 221 267 317
#     4  10  19  33  51  74 100 129 167 210 259 303
#     4   9  18  32  49  69  98 130 164 205 251 302
#     4  10  19  32  50  72 101 137 170 209 258 307
#     4   9  16  28  48  73  98 124 159 202 247 291
#     4  10  20  34  52  76 108 145 184 227 276 327
#     4   9  19  33  51  73 100 133 165 201 249 304
#
# _framework density 17.942419000000001
#
# number of rings (size 3 to 8) (size 9 to 14) (size 15 to 20)
#    0.000    2.250    1.250    2.500    0.000    6.250 
#    0.000    0.625    0.000    6.250    0.000    0.000 
#    0.000    1.000    0.000    0.000    0.000    0.000 
#
# Total GULP energy -1189335.095528 kJ/mol
# GULP energy per Si atom -12388.907245 kJ/mol
# Density = 1.790158 g / cm^3
# Si number density = 17.942419 Si / 1000 Ang^3
#
#
#
# Elastic Constant Matrix: (Units=GPa)
#
#
# Indices 1 2 3 4 5 6 
#
# 1 87.5196 30.7881 32.5751 -0.9865 0.0000 0.0000
# 2 30.7881 87.5196 32.5751 0.9865 0.0000 0.0000
# 3 32.5751 32.5751 82.1309 0.0000 0.0000 0.0000
# 4 -0.9865 0.9865 0.0000 20.1617 0.0000 0.0000
# 5 0.0000 0.0000 0.0000 0.0000 20.1617 -0.9865
# 6 0.0000 0.0000 0.0000 0.0000 -0.9865 28.3658
#
#
#
# Elastic Compliance Matrix: (Units=1/GPa)
#
#
# Indices 1 2 3 4 5 6 
#
# 1 0.014236 -0.003421 -0.004289 0.000864 0.000000 0.000000
# 2 -0.003421 0.014236 -0.004289 -0.000864 0.000000 0.000000
# 3 -0.004289 -0.004289 0.015578 0.000000 0.000000 0.000000
# 4 0.000864 -0.000864 0.000000 0.049684 0.000000 0.000000
# 5 0.000000 0.000000 0.000000 0.000000 0.049684 0.001728
# 6 0.000000 0.000000 0.000000 0.000000 0.001728 0.035314
#
#
# Mechanical properties :
#
#
# Convention : Reuss Voigt Hill
#
# Bulk Modulus (GPa) = 49.87513 49.89406 49.88459
# Shear Modulus (GPa) = 23.87617 24.48661 24.18139
#
# Velocity S-wave (km/s) = 3.65185 3.69824 3.67512
# Velocity P-wave (km/s) = 6.75566 6.79001 6.77286
#
# Compressibility (1/GPa) = 0.02005008
#
# Stress axis : x y z
#
# Youngs Moduli (GPa) = 70.24560 70.24560 64.19232
#
# Poissons Ratio (x) = 0.24032 0.27534
# Poissons Ratio (y) = 0.24032 0.27534
# Poissons Ratio (z) = 0.30131 0.30131
#
# Static dielectric constant tensor:
#      x y z
#    x 3.422580 0.000000 0.000000 
#    y 0.000000 3.422580 0.000000 
#    z 0.000000 0.000000 3.442170 
# 
# 
# High freq. dielectric constant tensor:
#      x y z
#    x 1.687940 0.000000 0.000000 
#    y 0.000000 1.687940 0.000000 
#    z 0.000000 0.000000 1.683800 
# 
# From -- ./inp_files/3155.got.cif
#   From: 2010.03.12/outbox.cif.g09.slc.cpg/sg164_2_cif.got.tgz:3155.got - 2010.04.02 06:32:59.
