data_PCOD8323866
_publ_section_title
;
Structure prediction by ZEFSAII (Michael W. Deem and Ramdas Pophale) SiO2 
 PCOD8323866
Probable space group: P -3 C 1
;
_chemical_formula_sum "Si O2"
_cell_formula_units_Z 68
_cell_length_a 13.102447
_cell_length_b 13.102447
_cell_length_c 24.988984
_cell_angle_alpha 90.000000
_cell_angle_beta 90.000000
_cell_angle_gamma 120.000000
_cell_volume 3715.215876
_symmetry_space_group_name_H-M "P -3 C 1"
_symmetry_group_IT_number 165
_symmetry_cell_setting 'hexagonal'
loop_
_space_group_symop_operation_xyz
x,y,z
-y,x-y,z
-x+y,-x,z
x-y,-y,1/2-z
-x,-x+y,1/2-z
y,x,1/2-z
-x,-y,-z
y,-x+y,-z
x-y,x,-z
-x+y,y,1/2+z
x,x-y,1/2+z
-y,-x,1/2+z
loop_
_atom_site_type_symbol
_atom_site_label
_atom_site_fract_x
_atom_site_fract_y
_atom_site_fract_z
Si Si1 0.864037 0.728313 0.688574
Si Si2 0.333334 0.666668 0.063956
Si Si3 0.864038 0.135724 0.311427
Si Si4 0.333334 0.666668 0.436041
Si Si5 0.422298 0.287174 0.402830
Si Si6 0.272112 0.136057 0.000000
Si Si7 0.577703 0.864878 0.402829
O O1 0.826546 0.826546 0.677959
O O2 0.843562 0.686922 0.750000
O O3 0.784139 0.613153 0.653014
O O4 1.000000 0.785333 0.672205
O O5 0.212261 0.651314 0.087003
O O6 0.333334 0.666667 0.999999
O O7 0.784141 0.170988 0.346987
O O8 0.439054 0.787742 0.412995
O O9 0.353677 0.194737 0.449261
O O10 0.391404 0.391403 0.401971
O O11 0.189868 0.189869 0.986709
O O12 0.353675 0.194737 0.050741
#
# Coordination Sequence:
#
# PCOD8323866 Si02
#       7
#    12   4  12   4  12  12  12
#     4   9  17  32  56  86 119 153 187 225 273 330
#     4  12  24  42  61  80 103 147 192 232 281 343
#     4   9  17  32  56  86 119 153 187 225 273 330
#     4  12  24  42  61  80 103 147 192 232 281 343
#     4  10  22  37  55  81 111 142 184 234 276 326
#     4  10  19  32  52  80 113 144 176 222 278 328
#     4  10  22  37  55  81 111 142 184 234 276 326
#
# _framework density 18.303108999999999
#
# number of rings (size 3 to 8) (size 9 to 14) (size 15 to 20)
#    0.000    2.118    1.765    1.588    0.000    4.941 
#    0.000    5.294    0.000    4.235    0.000    0.000 
#    0.000    0.000    0.000    0.000    0.000    0.000 
#
# Total GULP energy -843422.925994 kJ/mol
# GULP energy per Si atom -12403.278323 kJ/mol
# Density = 1.826145 g / cm^3
# Si number density = 18.303109 Si / 1000 Ang^3
#
#
#
# Elastic Constant Matrix: (Units=GPa)
#
#
# Indices 1 2 3 4 5 6 
#
# 1 96.1674 55.9083 46.1536 0.0002 0.0000 0.0000
# 2 55.9083 96.1685 46.1547 -0.0002 0.0000 0.0000
# 3 46.1536 46.1547 101.9211 -0.0002 0.0000 0.0000
# 4 0.0002 -0.0002 -0.0002 18.0656 0.0000 0.0000
# 5 0.0000 0.0000 0.0000 0.0000 18.0647 0.0001
# 6 0.0000 0.0000 0.0000 0.0000 0.0001 20.1312
#
#
#
# Elastic Compliance Matrix: (Units=1/GPa)
#
#
# Indices 1 2 3 4 5 6 
#
# 1 0.016953 -0.007885 -0.004106 0.000000 0.000000 0.000000
# 2 -0.007885 0.016953 -0.004107 0.000000 0.000000 0.000000
# 3 -0.004106 -0.004107 0.013531 0.000000 0.000000 0.000000
# 4 0.000000 0.000000 0.000000 0.055354 0.000000 0.000000
# 5 0.000000 0.000000 0.000000 0.000000 0.055356 0.000000
# 6 0.000000 0.000000 0.000000 0.000000 0.000000 0.049674
#
#
# Mechanical properties :
#
#
# Convention : Reuss Voigt Hill
#
# Bulk Modulus (GPa) = 65.61145 65.63222 65.62183
# Shear Modulus (GPa) = 20.39992 20.98833 20.69412
#
# Velocity S-wave (km/s) = 3.34213 3.38998 3.36614
# Velocity P-wave (km/s) = 7.12868 7.15954 7.14412
#
# Compressibility (1/GPa) = 0.01524124
#
# Stress axis : x y z
#
# Youngs Moduli (GPa) = 58.98491 58.98498 73.90616
#
# Poissons Ratio (x) = 0.46511 0.30348
# Poissons Ratio (y) = 0.46511 0.30350
# Poissons Ratio (z) = 0.24221 0.24223
#
# Static dielectric constant tensor:
#      x y z
#    x 3.255340 0.000000 0.000000 
#    y 0.000000 3.255340 0.000010 
#    z 0.000000 0.000010 4.395020 
# 
# 
# High freq. dielectric constant tensor:
#      x y z
#    x 1.700300 0.000000 0.000000 
#    y 0.000000 1.700300 0.000000 
#    z 0.000000 0.000000 1.720610 
# 
# From -- ./inp_files/3329.got.cif
#   From: 2010.03.12/outbox.cif.g09.slc.cpg/sg165_2_cif.got.tgz:3329.got - 2010.04.02 06:36:38.
