data_PCOD8323811
_publ_section_title
;
Structure prediction by ZEFSAII (Michael W. Deem and Ramdas Pophale) SiO2 
 PCOD8323811
Probable space group: P -3 M 1
;
_chemical_formula_sum "Si O2"
_cell_formula_units_Z 48
_cell_length_a 25.903500
_cell_length_b 25.903500
_cell_length_c 5.007913
_cell_angle_alpha 90.000000
_cell_angle_beta 90.000000
_cell_angle_gamma 120.000000
_cell_volume 2910.075820
_symmetry_space_group_name_H-M "P -3 M 1"
_symmetry_group_IT_number 164
_symmetry_cell_setting 'hexagonal'
loop_
_space_group_symop_operation_xyz
x,y,z
-y,x-y,z
-x+y,-x,z
x-y,-y,-z
-x,-x+y,-z
y,x,-z
-x,-y,-z
y,-x+y,-z
x-y,x,-z
-x+y,y,z
x,x-y,z
-y,-x,z
loop_
_atom_site_type_symbol
_atom_site_label
_atom_site_fract_x
_atom_site_fract_y
_atom_site_fract_z
Si Si1 0.305023 0.374168 0.576534
Si Si2 0.336206 0.227037 0.910900
Si Si3 0.464604 0.040913 0.247898
Si Si4 0.158845 0.959383 0.244126
O O1 0.337792 0.337792 0.500000
O O2 0.272938 0.380181 0.312710
O O3 0.353943 0.440377 0.685696
O O4 0.257600 0.339817 0.807602
O O5 0.355122 0.177561 0.956780
O O6 0.269218 0.198856 0.810135
O O7 0.536407 0.072813 0.187279
O O8 0.452905 0.000000 0.500000
O O9 0.426824 0.000000 0.000000
O O10 0.090643 0.909358 0.294951
O O11 0.185143 0.000000 0.500000
O O12 0.160730 0.000000 0.000000
#
# Coordination Sequence:
#
# PCOD8323811 Si02
#       4
#    12  12  12  12
#     4  11  19  31  49  67  91 126 160 187 220 268
#     4  11  22  33  47  69  95 123 155 191 230 272
#     4   9  17  28  43  66  93 121 153 185 214 247
#     4  11  22  36  53  70  89 112 143 185 231 283
#
# _framework density 16.494416999999999
#
# number of rings (size 3 to 8) (size 9 to 14) (size 15 to 20)
#    0.000    1.500    0.000    9.000    0.000    4.000 
#    0.000    0.000    0.000    5.000    0.000    0.000 
#    0.000    0.000    0.000   15.000    0.000    0.250 
#
# Total GULP energy -595035.626885 kJ/mol
# GULP energy per Si atom -12396.575560 kJ/mol
# Density = 1.645687 g / cm^3
# Si number density = 16.494417 Si / 1000 Ang^3
#
#
#
# Elastic Constant Matrix: (Units=GPa)
#
#
# Indices 1 2 3 4 5 6 
#
# 1 76.7800 42.5281 24.6309 -0.5070 0.0000 0.0000
# 2 42.5281 76.7800 24.6309 0.5070 0.0000 0.0000
# 3 24.6309 24.6309 106.4129 0.0000 0.0000 0.0000
# 4 -0.5070 0.5070 0.0000 20.4945 0.0000 0.0000
# 5 0.0000 0.0000 0.0000 0.0000 20.4945 -0.5070
# 6 0.0000 0.0000 0.0000 0.0000 -0.5070 17.1259
#
#
#
# Elastic Compliance Matrix: (Units=1/GPa)
#
#
# Indices 1 2 3 4 5 6 
#
# 1 0.019242 -0.009975 -0.002145 0.000723 0.000000 0.000000
# 2 -0.009975 0.019242 -0.002145 -0.000723 0.000000 0.000000
# 3 -0.002145 -0.002145 0.010390 0.000000 0.000000 0.000000
# 4 0.000723 -0.000723 0.000000 0.048829 0.000000 0.000000
# 5 0.000000 0.000000 0.000000 0.000000 0.048829 0.001446
# 6 0.000000 0.000000 0.000000 0.000000 0.001446 0.058434
#
#
# Mechanical properties :
#
#
# Convention : Reuss Voigt Hill
#
# Bulk Modulus (GPa) = 49.15262 49.28363 49.21812
# Shear Modulus (GPa) = 20.80920 22.83519 21.82220
#
# Velocity S-wave (km/s) = 3.55574 3.72482 3.64126
# Velocity P-wave (km/s) = 6.83535 6.96009 6.89800
#
# Compressibility (1/GPa) = 0.02034480
#
# Stress axis : x y z
#
# Youngs Moduli (GPa) = 51.96933 51.96933 96.24289
#
# Poissons Ratio (x) = 0.51838 0.20645
# Poissons Ratio (y) = 0.51838 0.20645
# Poissons Ratio (z) = 0.11148 0.11148
#
# Static dielectric constant tensor:
#      x y z
#    x 3.310460 0.000000 0.000000 
#    y 0.000000 3.310460 0.000000 
#    z 0.000000 0.000000 3.281850 
# 
# 
# High freq. dielectric constant tensor:
#      x y z
#    x 1.609160 0.000000 0.000000 
#    y 0.000000 1.609160 0.000000 
#    z 0.000000 0.000000 1.666550 
# 
# From -- ./inp_files/487.got.cif
#   From: 2010.03.12/outbox.cif.g09.slc.cpg/sg164_1_cif.got.tgz:487.got - 2010.04.02 06:32:59.
