data_PCOD8323373
_publ_section_title
;
Structure prediction by ZEFSAII (Michael W. Deem and Ramdas Pophale) SiO2 
 PCOD8323373
Probable space group: P -3 M 1
;
_chemical_formula_sum "Si O2"
_cell_formula_units_Z 72
_cell_length_a 26.067364
_cell_length_b 26.067364
_cell_length_c 7.723864
_cell_angle_alpha 90.000000
_cell_angle_beta 90.000000
_cell_angle_gamma 120.000000
_cell_volume 4545.267867
_symmetry_space_group_name_H-M "P -3 M 1"
_symmetry_group_IT_number 164
_symmetry_cell_setting 'hexagonal'
loop_
_space_group_symop_operation_xyz
x,y,z
-y,x-y,z
-x+y,-x,z
x-y,-y,-z
-x,-x+y,-z
y,x,-z
-x,-y,-z
y,-x+y,-z
x-y,x,-z
-x+y,y,z
x,x-y,z
-y,-x,z
loop_
_atom_site_type_symbol
_atom_site_label
_atom_site_fract_x
_atom_site_fract_y
_atom_site_fract_z
Si Si1 0.334117 0.788191 0.014356
Si Si2 0.172848 0.705409 0.701915
Si Si3 0.670050 0.895643 0.337543
Si Si4 0.291714 0.461593 0.316504
Si Si5 0.064096 0.815300 0.022477
Si Si6 0.228647 0.892829 0.719579
O O1 0.389109 0.778218 0.031241
O O2 0.275552 0.724449 0.018224
O O3 0.339489 0.823368 0.836663
O O4 0.335713 0.829529 0.172497
O O5 0.232785 0.767216 0.712070
O O6 0.163465 0.679538 0.507030
O O7 0.119036 0.716862 0.753095
O O8 0.664439 0.832220 0.338863
O O9 0.605131 0.884753 0.283480
O O10 0.720485 0.936812 0.202438
O O11 0.687027 0.923649 0.530866
O O12 0.230402 0.460803 0.304058
O O13 0.116130 0.883871 0.013959
O O14 0.067271 0.774883 0.870230
O O15 0.000000 0.810908 0.000000
O O16 0.169028 0.830973 0.721277
#
# Coordination Sequence:
#
# PCOD8323373 Si02
#       6
#    12  12  12  12  12  12
#     4  10  18  25  33  48  75 111 147 178 207 243
#     4   8  14  25  40  55  71  96 132 173 217 261
#     4   8  14  26  44  63  81 103 133 170 214 259
#     4   8  14  25  40  55  71  96 132 173 217 261
#     4  10  19  29  43  65  93 121 144 166 194 230
#     4   8  14  26  44  63  81 103 133 170 214 259
#
# _framework density 15.84065
#
# number of rings (size 3 to 8) (size 9 to 14) (size 15 to 20)
#    0.000    3.333    0.000    3.167    0.000    5.333 
#    0.000    0.000    0.000    2.167    0.000    0.000 
#    0.000   10.667    0.000   37.667    0.000    2.667 
#
# Total GULP energy -892006.776588 kJ/mol
# GULP energy per Si atom -12388.983008 kJ/mol
# Density = 1.580460 g / cm^3
# Si number density = 15.840650 Si / 1000 Ang^3
#
#
#
# Elastic Constant Matrix: (Units=GPa)
#
#
# Indices 1 2 3 4 5 6 
#
# 1 31.8358 6.1316 11.0204 1.6751 0.0000 0.0000
# 2 6.1316 31.8358 11.0204 -1.6751 0.0000 0.0000
# 3 11.0204 11.0204 79.7087 0.0000 0.0000 0.0000
# 4 1.6751 -1.6751 0.0000 7.3161 0.0000 0.0000
# 5 0.0000 0.0000 0.0000 0.0000 7.3161 1.6751
# 6 0.0000 0.0000 0.0000 0.0000 1.6751 12.8521
#
#
#
# Elastic Compliance Matrix: (Units=1/GPa)
#
#
# Indices 1 2 3 4 5 6 
#
# 1 0.034369 -0.005732 -0.003959 -0.009181 0.000000 0.000000
# 2 -0.005732 0.034369 -0.003959 0.009181 0.000000 0.000000
# 3 -0.003959 -0.003959 0.013640 0.000000 0.000000 0.000000
# 4 -0.009181 0.009181 0.000000 0.140889 0.000000 0.000000
# 5 0.000000 0.000000 0.000000 0.000000 0.140889 -0.018363
# 6 0.000000 0.000000 0.000000 0.000000 -0.018363 0.080201
#
#
# Mechanical properties :
#
#
# Convention : Reuss Voigt Hill
#
# Bulk Modulus (GPa) = 18.15637 22.19166 20.17402
# Shear Modulus (GPa) = 10.20373 13.17740 11.69057
#
# Velocity S-wave (km/s) = 2.54076 2.88735 2.71958
# Velocity P-wave (km/s) = 4.48264 5.01552 4.75655
#
# Compressibility (1/GPa) = 0.05507708
#
# Stress axis : x y z
#
# Youngs Moduli (GPa) = 29.09615 29.09615 73.31114
#
# Poissons Ratio (x) = 0.16678 0.29026
# Poissons Ratio (y) = 0.16678 0.29026
# Poissons Ratio (z) = 0.11520 0.11520
#
# Static dielectric constant tensor:
#      x y z
#    x 2.690660 0.000000 0.000000 
#    y 0.000000 2.690660 0.000000 
#    z 0.000000 0.000000 3.601990 
# 
# 
# High freq. dielectric constant tensor:
#      x y z
#    x 1.564800 0.000000 0.000000 
#    y 0.000000 1.564800 0.000000 
#    z 0.000000 0.000000 1.631670 
# 
# From -- ./inp_files/1966.got.cif
#   From: 2010.03.12/outbox.cif.g09.slc.cpg/sg164_1_cif.got.tgz:1966.got - 2010.04.02 06:32:59.
