data_PCOD8323234
_publ_section_title
;
Structure prediction by ZEFSAII (Michael W. Deem and Ramdas Pophale) SiO2 
 PCOD8323234
Probable space group: P -3 1 C
;
_chemical_formula_sum "Si O2"
_cell_formula_units_Z 72
_cell_length_a 23.384849
_cell_length_b 23.384849
_cell_length_c 9.273910
_cell_angle_alpha 90.000000
_cell_angle_beta 90.000000
_cell_angle_gamma 120.000000
_cell_volume 4392.003206
_symmetry_space_group_name_H-M "P -3 1 C"
_symmetry_group_IT_number 163
_symmetry_cell_setting 'hexagonal'
loop_
_space_group_symop_operation_xyz
x,y,z
-y,x-y,z
-x+y,-x,z
-y,-x,1/2-z
-x+y,y,1/2-z
x,x-y,1/2-z
-x,-y,-z
y,-x+y,-z
x-y,x,-z
y,x,1/2+z
x-y,-y,1/2+z
-x,-x+y,1/2+z
loop_
_atom_site_type_symbol
_atom_site_label
_atom_site_fract_x
_atom_site_fract_y
_atom_site_fract_z
Si Si1 0.141047 0.413559 0.583347
Si Si2 0.933386 0.400592 0.917172
Si Si3 0.933514 0.195749 0.418436
Si Si4 0.066614 0.599408 0.417172
Si Si5 0.272511 0.858953 0.916653
Si Si6 0.933514 0.195749 0.081564
O O1 0.126455 0.460643 0.483187
O O2 0.131017 0.425231 0.750000
O O3 0.216177 0.432355 0.555245
O O4 0.091667 0.337857 0.539208
O O5 0.943132 0.390406 0.750000
O O6 0.915335 0.457668 0.940018
O O7 0.000000 0.417215 0.000000
O O8 0.908333 0.246190 0.460792
O O9 0.947699 0.199975 0.250000
O O10 0.878135 0.121865 0.462575
O O11 1.000000 0.213210 0.500000
O O12 0.126455 0.665812 0.483187
#
# Coordination Sequence:
#
# PCOD8323234 Si02
#       6
#    12  12  12  12  12  12
#     4   9  18  32  49  70  96 123 151 188 233 278
#     4  10  20  32  47  69  96 125 157 193 232 274
#     4   9  18  31  46  67  94 120 148 184 224 266
#     4  10  20  32  47  69  96 125 157 193 232 274
#     4   9  18  32  49  70  96 123 151 188 233 278
#     4   9  18  31  46  67  94 120 148 184 224 266
#
# _framework density 16.393429999999999
#
# number of rings (size 3 to 8) (size 9 to 14) (size 15 to 20)
#    0.000    2.667    0.000    4.000    0.000    7.333 
#    0.000    3.333    0.000    1.000    0.000    0.000 
#    0.000    0.000    0.000    0.000    0.000    0.000 
#
# Total GULP energy -892915.151190 kJ/mol
# GULP energy per Si atom -12401.599322 kJ/mol
# Density = 1.635612 g / cm^3
# Si number density = 16.393430 Si / 1000 Ang^3
#
#
#
# Elastic Constant Matrix: (Units=GPa)
#
#
# Indices 1 2 3 4 5 6 
#
# 1 98.3101 51.1504 60.1723 0.0000 0.0000 0.0000
# 2 51.1504 98.3101 60.1723 0.0000 0.0000 0.0000
# 3 60.1723 60.1723 92.1353 0.0000 0.0000 0.0000
# 4 0.0000 0.0000 0.0000 32.9790 0.0000 0.0000
# 5 0.0000 0.0000 0.0000 0.0000 32.9790 0.0000
# 6 0.0000 0.0000 0.0000 0.0000 0.0000 23.5798
#
#
#
# Elastic Compliance Matrix: (Units=1/GPa)
#
#
# Indices 1 2 3 4 5 6 
#
# 1 0.017658 -0.003547 -0.009216 0.000000 0.000000 0.000000
# 2 -0.003547 0.017658 -0.009216 0.000000 0.000000 0.000000
# 3 -0.009216 -0.009216 0.022891 0.000000 0.000000 0.000000
# 4 0.000000 0.000000 0.000000 0.030322 0.000000 0.000000
# 5 0.000000 0.000000 0.000000 0.000000 0.030322 0.000000
# 6 0.000000 0.000000 0.000000 0.000000 0.000000 0.042409
#
#
# Mechanical properties :
#
#
# Convention : Reuss Voigt Hill
#
# Bulk Modulus (GPa) = 70.17459 70.19395 70.18427
# Shear Modulus (GPa) = 23.81317 25.72493 24.76905
#
# Velocity S-wave (km/s) = 3.81544 3.96564 3.89126
# Velocity P-wave (km/s) = 7.89364 7.99248 7.94321
#
# Compressibility (1/GPa) = 0.01425017
#
# Stress axis : x y z
#
# Youngs Moduli (GPa) = 56.63171 56.63171 43.68493
#
# Poissons Ratio (x) = 0.20085 0.40260
# Poissons Ratio (y) = 0.20085 0.40260
# Poissons Ratio (z) = 0.52191 0.52191
#
# Static dielectric constant tensor:
#      x y z
#    x 2.972690 0.000000 0.000000 
#    y 0.000000 2.972690 0.000000 
#    z 0.000000 0.000000 3.046930 
# 
# 
# High freq. dielectric constant tensor:
#      x y z
#    x 1.620360 0.000000 0.000000 
#    y 0.000000 1.620360 0.000000 
#    z 0.000000 0.000000 1.635410 
# 
# From -- ./inp_files/1257.got.cif
#   From: 2010.03.12/outbox.cif.g09.slc.cpg/sg163_1_cif.got.tgz:1257.got - 2010.04.02 06:30:25.
