data_PCOD8323832
_publ_section_title
;
Structure prediction by ZEFSAII (Michael W. Deem and Ramdas Pophale) SiO2 
 PCOD8323832
Probable space group: P -3 M 1
;
_chemical_formula_sum "Si O2"
_cell_formula_units_Z 60
_cell_length_a 16.997046
_cell_length_b 16.997046
_cell_length_c 16.220569
_cell_angle_alpha 90.000000
_cell_angle_beta 90.000000
_cell_angle_gamma 120.000000
_cell_volume 4058.295028
_symmetry_space_group_name_H-M "P -3 M 1"
_symmetry_group_IT_number 164
_symmetry_cell_setting 'hexagonal'
loop_
_space_group_symop_operation_xyz
x,y,z
-y,x-y,z
-x+y,-x,z
x-y,-y,-z
-x,-x+y,-z
y,x,-z
-x,-y,-z
y,-x+y,-z
x-y,x,-z
-x+y,y,z
x,x-y,z
-y,-x,z
loop_
_atom_site_type_symbol
_atom_site_label
_atom_site_fract_x
_atom_site_fract_y
_atom_site_fract_z
Si Si1 0.634874 0.728203 0.962284
Si Si2 0.425365 0.031237 0.192113
Si Si3 0.509284 0.666856 0.112588
Si Si4 0.579835 0.974147 0.624647
Si Si5 0.519531 0.667079 0.474315
O O1 0.670302 0.835151 0.959672
O O2 0.603506 0.687977 0.871155
O O3 0.716422 0.716422 0.000000
O O4 0.548062 0.673694 0.020941
O O5 0.532571 0.065142 0.182668
O O6 0.399396 0.047912 0.283818
O O7 0.366867 0.923835 0.176860
O O8 0.526618 0.763309 0.144939
O O9 0.402323 0.597678 0.107777
O O10 0.491867 0.983734 0.628358
O O11 0.561303 0.891106 0.564788
O O12 0.658888 0.071740 0.591142
O O13 0.519186 0.759593 0.457469
O O14 0.416983 0.583017 0.467599
#
# Coordination Sequence:
#
# PCOD8323832 Si02
#       5
#    12  12  12  12  12
#     4   9  17  28  42  59  78 102 132 164 197 232
#     4   9  16  27  41  56  78 107 135 161 193 232
#     4   9  16  25  38  57  81 108 136 164 192 223
#     4   8  16  28  39  55  80 105 128 162 203 230
#     4   9  16  27  42  58  77 103 134 163 193 231
#
# _framework density 14.784534000000001
#
# number of rings (size 3 to 8) (size 9 to 14) (size 15 to 20)
#    0.000    3.200    0.000    2.200    0.000    4.000 
#    0.000    0.000    0.000    3.000    0.000    0.000 
#    0.000    0.000    0.000   19.200    0.000    0.000 
#
# Total GULP energy -743673.744255 kJ/mol
# GULP energy per Si atom -12394.562404 kJ/mol
# Density = 1.475088 g / cm^3
# Si number density = 14.784534 Si / 1000 Ang^3
#
#
#
# Elastic Constant Matrix: (Units=GPa)
#
#
# Indices 1 2 3 4 5 6 
#
# 1 57.9340 17.0249 12.2707 0.5987 0.0000 0.0000
# 2 17.0249 57.9340 12.2707 -0.5987 0.0000 0.0000
# 3 12.2707 12.2707 85.4961 0.0000 0.0000 0.0000
# 4 0.5987 -0.5987 0.0000 13.0757 0.0000 0.0000
# 5 0.0000 0.0000 0.0000 0.0000 13.0757 0.5987
# 6 0.0000 0.0000 0.0000 0.0000 0.5987 20.4546
#
#
#
# Elastic Compliance Matrix: (Units=1/GPa)
#
#
# Indices 1 2 3 4 5 6 
#
# 1 0.019238 -0.005239 -0.002009 -0.001121 0.000000 0.000000
# 2 -0.005239 0.019238 -0.002009 0.001121 0.000000 0.000000
# 3 -0.002009 -0.002009 0.012273 0.000000 0.000000 0.000000
# 4 -0.001121 0.001121 0.000000 0.076580 0.000000 0.000000
# 5 0.000000 0.000000 0.000000 0.000000 0.076580 -0.002241
# 6 0.000000 0.000000 0.000000 0.000000 -0.002241 0.048954
#
#
# Mechanical properties :
#
#
# Convention : Reuss Voigt Hill
#
# Bulk Modulus (GPa) = 31.02358 31.61077 31.31718
# Shear Modulus (GPa) = 17.72271 19.97437 18.84854
#
# Velocity S-wave (km/s) = 3.46603 3.67963 3.57442
# Velocity P-wave (km/s) = 6.08664 6.28333 6.18577
#
# Compressibility (1/GPa) = 0.03223355
#
# Stress axis : x y z
#
# Youngs Moduli (GPa) = 51.98092 51.98092 81.47872
#
# Poissons Ratio (x) = 0.27235 0.16370
# Poissons Ratio (y) = 0.27235 0.16370
# Poissons Ratio (z) = 0.10444 0.10444
#
# Static dielectric constant tensor:
#      x y z
#    x 2.692880 0.000000 0.000000 
#    y 0.000000 2.692880 0.000000 
#    z 0.000000 0.000000 3.235080 
# 
# 
# High freq. dielectric constant tensor:
#      x y z
#    x 1.542060 0.000000 0.000000 
#    y 0.000000 1.542060 0.000000 
#    z 0.000000 0.000000 1.573320 
# 
# From -- ./inp_files/3356.got.cif
#   From: 2010.03.12/outbox.cif.g09.slc.cpg/sg164_2_cif.got.tgz:3356.got - 2010.04.02 06:32:59.
