data_PCOD8323561
_publ_section_title
;
Structure prediction by ZEFSAII (Michael W. Deem and Ramdas Pophale) SiO2 
 PCOD8323561
Probable space group: P -3 M 1
;
_chemical_formula_sum "Si O2"
_cell_formula_units_Z 72
_cell_length_a 23.842342
_cell_length_b 23.842342
_cell_length_c 9.019467
_cell_angle_alpha 90.000000
_cell_angle_beta 90.000000
_cell_angle_gamma 120.000000
_cell_volume 4440.269521
_symmetry_space_group_name_H-M "P -3 M 1"
_symmetry_group_IT_number 164
_symmetry_cell_setting 'hexagonal'
loop_
_space_group_symop_operation_xyz
x,y,z
-y,x-y,z
-x+y,-x,z
x-y,-y,-z
-x,-x+y,-z
y,x,-z
-x,-y,-z
y,-x+y,-z
x-y,x,-z
-x+y,y,z
x,x-y,z
-y,-x,z
loop_
_atom_site_type_symbol
_atom_site_label
_atom_site_fract_x
_atom_site_fract_y
_atom_site_fract_z
Si Si1 0.072984 0.272225 0.352512
Si Si2 0.943344 0.534944 0.297360
Si Si3 0.907943 0.516942 0.621658
Si Si4 0.369120 0.067755 0.085947
Si Si5 0.403511 0.137254 0.793695
Si Si6 0.733978 0.803453 0.694705
O O1 0.127530 0.255060 0.302454
O O2 0.080759 0.335722 0.272424
O O3 0.079368 0.290264 0.525711
O O4 0.004627 0.211057 0.299376
O O5 0.928218 0.464109 0.242548
O O6 0.902937 0.527818 0.446652
O O7 0.924036 0.568619 0.171453
O O8 0.018738 0.579385 0.327916
O O9 0.883333 0.441667 0.653087
O O10 0.863965 0.536511 0.717185
O O11 0.322785 0.079008 0.195807
O O12 0.400425 0.126326 0.969252
O O13 0.330859 0.000000 0.000000
O O14 0.413179 0.206590 0.755600
O O15 0.756907 0.878454 0.735429
#
# Coordination Sequence:
#
# PCOD8323561 Si02
#       6
#    12  12  12  12  12  12
#     4   9  18  32  50  68  90 121 163 207 246 288
#     4   9  18  31  50  72  97 124 153 188 236 286
#     4   9  17  32  51  72  94 121 156 195 234 280
#     4  12  20  29  44  69 102 132 156 188 230 282
#     4  11  21  32  46  70  99 129 162 198 236 279
#     4  10  19  32  48  67  93 128 163 198 243 295
#
# _framework density 16.215230999999999
#
# number of rings (size 3 to 8) (size 9 to 14) (size 15 to 20)
#    0.000    2.000    3.333    2.500    0.000    3.667 
#    0.000    0.833    0.000    0.667    0.000    2.333 
#    0.000    2.000    0.000    0.000    0.000    0.000 
#
# Total GULP energy -892557.840246 kJ/mol
# GULP energy per Si atom -12396.636670 kJ/mol
# Density = 1.617832 g / cm^3
# Si number density = 16.215231 Si / 1000 Ang^3
#
#
#
# Elastic Constant Matrix: (Units=GPa)
#
#
# Indices 1 2 3 4 5 6 
#
# 1 92.3349 47.7604 45.9480 2.5548 0.0000 0.0000
# 2 47.7604 92.3349 45.9480 -2.5548 0.0000 0.0000
# 3 45.9480 45.9480 80.3809 0.0000 0.0000 0.0000
# 4 2.5548 -2.5548 0.0000 20.1295 0.0000 0.0000
# 5 0.0000 0.0000 0.0000 0.0000 20.1295 2.5548
# 6 0.0000 0.0000 0.0000 0.0000 2.5548 22.2872
#
#
#
# Elastic Compliance Matrix: (Units=1/GPa)
#
#
# Indices 1 2 3 4 5 6 
#
# 1 0.017093 -0.005673 -0.006528 -0.002889 0.000000 0.000000
# 2 -0.005673 0.017093 -0.006528 0.002889 0.000000 0.000000
# 3 -0.006528 -0.006528 0.019904 0.000000 0.000000 0.000000
# 4 -0.002889 0.002889 0.000000 0.050412 0.000000 0.000000
# 5 0.000000 0.000000 0.000000 0.000000 0.050412 -0.005779
# 6 0.000000 0.000000 0.000000 0.000000 -0.005779 0.045531
#
#
# Mechanical properties :
#
#
# Convention : Reuss Voigt Hill
#
# Bulk Modulus (GPa) = 60.12508 60.48483 60.30495
# Shear Modulus (GPa) = 20.53841 20.86885 20.70363
#
# Velocity S-wave (km/s) = 3.56281 3.59136 3.57711
# Velocity P-wave (km/s) = 7.35423 7.38778 7.37103
#
# Compressibility (1/GPa) = 0.01663200
#
# Stress axis : x y z
#
# Youngs Moduli (GPa) = 58.50401 58.50401 50.24121
#
# Poissons Ratio (x) = 0.33188 0.32798
# Poissons Ratio (y) = 0.33188 0.32798
# Poissons Ratio (z) = 0.38192 0.38192
#
# Static dielectric constant tensor:
#      x y z
#    x 3.052980 0.000000 0.000000 
#    y 0.000000 3.052980 0.000000 
#    z 0.000000 0.000000 3.273410 
# 
# 
# High freq. dielectric constant tensor:
#      x y z
#    x 1.604260 0.000000 0.000000 
#    y 0.000000 1.604260 0.000000 
#    z 0.000000 0.000000 1.635440 
# 
# From -- ./inp_files/1884.got.cif
#   From: 2010.03.12/outbox.cif.g09.slc.cpg/sg164_1_cif.got.tgz:1884.got - 2010.04.02 06:32:59.
