data_PCOD8323880
_publ_section_title
;
Structure prediction by ZEFSAII (Michael W. Deem and Ramdas Pophale) SiO2 
 PCOD8323880
Probable space group: P -3 C 1
;
_chemical_formula_sum "Si O2"
_cell_formula_units_Z 66
_cell_length_a 17.164007
_cell_length_b 17.164007
_cell_length_c 13.488029
_cell_angle_alpha 90.000000
_cell_angle_beta 90.000000
_cell_angle_gamma 120.000000
_cell_volume 3441.252094
_symmetry_space_group_name_H-M "P -3 C 1"
_symmetry_group_IT_number 165
_symmetry_cell_setting 'hexagonal'
loop_
_space_group_symop_operation_xyz
x,y,z
-y,x-y,z
-x+y,-x,z
x-y,-y,1/2-z
-x,-x+y,1/2-z
y,x,1/2-z
-x,-y,-z
y,-x+y,-z
x-y,x,-z
-x+y,y,1/2+z
x,x-y,1/2+z
-y,-x,1/2+z
loop_
_atom_site_type_symbol
_atom_site_label
_atom_site_fract_x
_atom_site_fract_y
_atom_site_fract_z
Si Si1 0.594263 0.525748 0.660813
Si Si2 0.800637 0.000000 0.250000
Si Si3 0.686687 0.055986 0.465181
Si Si4 0.762306 0.600993 0.775469
Si Si5 0.996160 0.164423 0.954915
Si Si6 0.339680 0.428850 0.814566
O O1 0.568661 0.568661 0.750000
O O2 0.598497 0.581852 0.561274
O O3 0.690585 0.539702 0.691633
O O4 0.527562 0.419230 0.653450
O O5 0.704405 0.909393 0.245530
O O6 0.864041 0.009948 0.158303
O O7 0.724203 0.142054 0.389586
O O8 0.742920 0.005118 0.453608
O O9 0.701373 0.085914 0.579562
O O10 0.838802 0.574224 0.759440
O O11 0.080006 0.177857 0.016463
O O12 0.378410 0.378410 0.750000
#
# Coordination Sequence:
#
# PCOD8323880 Si02
#       6
#    12   6  12  12  12  12
#     4   9  18  40  59  82 120 158 190 242 315 353
#     4  10  20  40  60  78 118 164 184 244 296 354
#     4  10  21  38  61  83 120 161 196 250 306 360
#     4  10  19  40  59  82 120 161 190 233 316 364
#     4  11  23  37  57  84 118 160 207 249 301 358
#     4  11  24  34  61  96 113 149 214 258 278 364
#
# _framework density 19.179065000000001
#
# number of rings (size 3 to 8) (size 9 to 14) (size 15 to 20)
#    0.000    1.818    4.545    1.818    5.091    0.727 
#    1.091    0.000    0.000    0.000    4.727    0.000 
#    0.000    0.000    0.000    0.000    0.000    0.000 
#
# Total GULP energy -817701.544661 kJ/mol
# GULP energy per Si atom -12389.417343 kJ/mol
# Density = 1.913541 g / cm^3
# Si number density = 19.179065 Si / 1000 Ang^3
#
#
#
# Elastic Constant Matrix: (Units=GPa)
#
#
# Indices 1 2 3 4 5 6 
#
# 1 82.4638 40.2150 23.0063 2.8095 0.0000 0.0000
# 2 40.2150 82.4638 23.0063 -2.8095 0.0000 0.0000
# 3 23.0063 23.0063 129.2435 0.0000 0.0000 0.0000
# 4 2.8095 -2.8095 0.0000 21.7631 0.0000 0.0000
# 5 0.0000 0.0000 0.0000 0.0000 21.7631 2.8095
# 6 0.0000 0.0000 0.0000 0.0000 2.8095 21.1244
#
#
#
# Elastic Compliance Matrix: (Units=1/GPa)
#
#
# Indices 1 2 3 4 5 6 
#
# 1 0.016409 -0.007674 -0.001555 -0.003109 0.000000 0.000000
# 2 -0.007674 0.016409 -0.001555 0.003109 0.000000 0.000000
# 3 -0.001555 -0.001555 0.008291 0.000000 0.000000 0.000000
# 4 -0.003109 0.003109 0.000000 0.046752 0.000000 0.000000
# 5 0.000000 0.000000 0.000000 0.000000 0.046752 -0.006218
# 6 0.000000 0.000000 0.000000 0.000000 -0.006218 0.048166
#
#
# Mechanical properties :
#
#
# Convention : Reuss Voigt Hill
#
# Bulk Modulus (GPa) = 51.17528 51.84735 51.51132
# Shear Modulus (GPa) = 23.71250 26.79299 25.25275
#
# Velocity S-wave (km/s) = 3.52003 3.74169 3.63255
# Velocity P-wave (km/s) = 6.57735 6.76454 6.67160
#
# Compressibility (1/GPa) = 0.01954068
#
# Stress axis : x y z
#
# Youngs Moduli (GPa) = 60.94339 60.94339 120.61458
#
# Poissons Ratio (x) = 0.46769 0.18753
# Poissons Ratio (y) = 0.46769 0.18753
# Poissons Ratio (z) = 0.09476 0.09476
#
# Static dielectric constant tensor:
#      x y z
#    x 3.455770 0.000000 0.000000 
#    y 0.000000 3.455770 0.000000 
#    z 0.000000 0.000000 3.904890 
# 
# 
# High freq. dielectric constant tensor:
#      x y z
#    x 1.730380 0.000000 0.000000 
#    y 0.000000 1.730380 0.000000 
#    z 0.000000 0.000000 1.760350 
# 
# From -- ./inp_files/1791.got.cif
#   From: 2010.03.12/outbox.cif.g09.slc.cpg/sg165_1_cif.got.tgz:1791.got - 2010.04.02 06:36:38.
