data_PCOD8323424
_publ_section_title
;
Structure prediction by ZEFSAII (Michael W. Deem and Ramdas Pophale) SiO2 
 PCOD8323424
Probable space group: P -3 M 1
;
_chemical_formula_sum "Si O2"
_cell_formula_units_Z 96
_cell_length_a 16.722283
_cell_length_b 16.722283
_cell_length_c 23.787883
_cell_angle_alpha 90.000000
_cell_angle_beta 90.000000
_cell_angle_gamma 120.000000
_cell_volume 5760.730566
_symmetry_space_group_name_H-M "P -3 M 1"
_symmetry_group_IT_number 164
_symmetry_cell_setting 'hexagonal'
loop_
_space_group_symop_operation_xyz
x,y,z
-y,x-y,z
-x+y,-x,z
x-y,-y,-z
-x,-x+y,-z
y,x,-z
-x,-y,-z
y,-x+y,-z
x-y,x,-z
-x+y,y,z
x,x-y,z
-y,-x,z
loop_
_atom_site_type_symbol
_atom_site_label
_atom_site_fract_x
_atom_site_fract_y
_atom_site_fract_z
Si Si1 0.332692 0.485160 0.193745
Si Si2 0.680340 0.931622 0.950232
Si Si3 0.743884 0.076440 0.235796
Si Si4 0.954129 0.569629 0.584337
Si Si5 0.429956 0.386698 0.145178
Si Si6 0.177664 0.175830 0.142781
Si Si7 0.094063 0.369565 0.303560
Si Si8 0.333845 0.479486 0.531675
O O1 0.235493 0.470985 0.171853
O O2 0.407014 0.592987 0.193744
O O3 0.362519 0.429852 0.151184
O O4 0.325255 0.450024 0.257576
O O5 0.658976 0.829488 0.970302
O O6 0.598553 0.918510 0.908608
O O7 0.778292 0.982245 0.918725
O O8 0.688076 0.000000 0.000000
O O9 0.825919 0.174082 0.256702
O O10 0.665961 0.090382 0.204013
O O11 0.772944 0.027942 0.188806
O O12 0.710412 0.009848 0.289496
O O13 0.952379 0.476190 0.600128
O O14 0.908598 0.594865 0.634911
O O15 0.889097 0.554244 0.531248
O O16 0.060896 0.647903 0.572876
O O17 0.535235 0.464766 0.136548
O O18 0.104004 0.208008 0.151397
O O19 0.131041 0.065521 0.149905
O O20 0.165422 0.330843 0.303632
O O21 0.235091 0.470182 0.545521
O O22 0.414239 0.585762 0.539245
#
# Coordination Sequence:
#
# PCOD8323424 Si02
#       8
#    12  12  12  12  12  12  12  12
#     4   9  17  28  44  67  94 122 150 182 221 265
#     4  10  20  32  48  69  92 118 148 184 226 272
#     4   9  18  31  47  67  91 119 151 187 226 265
#     4   9  18  30  44  65  93 121 150 187 231 277
#     4   9  18  32  49  68  89 117 153 188 223 266
#     4   9  16  27  43  64  90 118 147 179 218 265
#     4  10  18  28  45  68  93 122 154 185 220 268
#     4   9  17  30  47  66  88 117 153 192 234 278
#
# _framework density 16.664553000000002
#
# number of rings (size 3 to 8) (size 9 to 14) (size 15 to 20)
#    0.000    2.750    0.000    3.750    0.000    4.750 
#    0.000    0.000    0.000    8.250    0.000    1.750 
#    0.000    0.000    0.000    6.375    0.000    0.000 
#
# Total GULP energy -1189945.114464 kJ/mol
# GULP energy per Si atom -12395.261609 kJ/mol
# Density = 1.662662 g / cm^3
# Si number density = 16.664553 Si / 1000 Ang^3
#
#
#
# Elastic Constant Matrix: (Units=GPa)
#
#
# Indices 1 2 3 4 5 6 
#
# 1 76.1579 35.8112 14.0013 -4.0317 0.0000 0.0000
# 2 35.8112 76.1579 14.0013 4.0317 0.0000 0.0000
# 3 14.0013 14.0013 54.9065 0.0000 0.0000 0.0000
# 4 -4.0317 4.0317 0.0000 19.4460 0.0000 0.0000
# 5 0.0000 0.0000 0.0000 0.0000 19.4460 -4.0317
# 6 0.0000 0.0000 0.0000 0.0000 -4.0317 20.1733
#
#
#
# Elastic Compliance Matrix: (Units=1/GPa)
#
#
# Indices 1 2 3 4 5 6 
#
# 1 0.017698 -0.008159 -0.002433 0.005361 0.000000 0.000000
# 2 -0.008159 0.017698 -0.002433 -0.005361 0.000000 0.000000
# 3 -0.002433 -0.002433 0.019453 0.000000 0.000000 0.000000
# 4 0.005361 -0.005361 0.000000 0.053647 0.000000 0.000000
# 5 0.000000 0.000000 0.000000 0.000000 0.053647 0.010722
# 6 0.000000 0.000000 0.000000 0.000000 0.010722 0.051713
#
#
# Mechanical properties :
#
#
# Convention : Reuss Voigt Hill
#
# Bulk Modulus (GPa) = 34.71993 37.20557 35.96275
# Shear Modulus (GPa) = 20.03966 21.37364 20.70665
#
# Velocity S-wave (km/s) = 3.47152 3.58520 3.52882
# Velocity P-wave (km/s) = 6.07852 6.28592 6.18309
#
# Compressibility (1/GPa) = 0.02880191
#
# Stress axis : x y z
#
# Youngs Moduli (GPa) = 56.50358 56.50358 51.40484
#
# Poissons Ratio (x) = 0.46099 0.12505
# Poissons Ratio (y) = 0.46099 0.12505
# Poissons Ratio (z) = 0.13745 0.13745
#
# Static dielectric constant tensor:
#      x y z
#    x 3.129880 0.000000 0.000000 
#    y 0.000000 3.129880 0.000000 
#    z 0.000000 0.000000 2.952040 
# 
# 
# High freq. dielectric constant tensor:
#      x y z
#    x 1.636790 0.000000 0.000000 
#    y 0.000000 1.636790 0.000000 
#    z 0.000000 0.000000 1.625710 
# 
# From -- ./inp_files/4787.got.cif
#   From: 2010.03.12/outbox.cif.g09.slc.cpg/sg164_3_cif.got.tgz:4787.got - 2010.04.02 06:32:59.
