data_PCOD8323349
_publ_section_title
;
Structure prediction by ZEFSAII (Michael W. Deem and Ramdas Pophale) SiO2 
 PCOD8323349
Probable space group: P -3 1 C
;
_chemical_formula_sum "Si O2"
_cell_formula_units_Z 96
_cell_length_a 22.346061
_cell_length_b 22.346061
_cell_length_c 19.932573
_cell_angle_alpha 90.000000
_cell_angle_beta 90.000000
_cell_angle_gamma 120.000000
_cell_volume 8619.775501
_symmetry_space_group_name_H-M "P -3 1 C"
_symmetry_group_IT_number 163
_symmetry_cell_setting 'hexagonal'
loop_
_space_group_symop_operation_xyz
x,y,z
-y,x-y,z
-x+y,-x,z
-y,-x,1/2-z
-x+y,y,1/2-z
x,x-y,1/2-z
-x,-y,-z
y,-x+y,-z
x-y,x,-z
y,x,1/2+z
x-y,-y,1/2+z
-x,-x+y,1/2+z
loop_
_atom_site_type_symbol
_atom_site_label
_atom_site_fract_x
_atom_site_fract_y
_atom_site_fract_z
Si Si1 0.609401 0.532722 0.325204
Si Si2 0.667035 0.194668 0.922810
Si Si3 0.076680 0.609402 0.325204
Si Si4 0.332965 0.527633 0.077190
Si Si5 0.467279 0.390598 0.674796
Si Si6 0.472367 0.805332 0.922810
Si Si7 0.527633 0.332965 0.077190
Si Si8 0.076680 0.609402 0.825204
O O1 0.595276 0.595276 0.343751
O O2 0.662499 0.530030 0.377860
O O3 0.640242 0.543440 0.250000
O O4 0.537901 0.462099 0.329055
O O5 0.662499 0.132469 0.877860
O O6 0.603933 0.207867 0.908158
O O7 0.736236 0.263764 0.902760
O O8 0.667551 0.174571 0.000000
O O9 0.075802 0.537901 0.329055
O O10 0.096802 0.640242 0.250000
O O11 0.000000 0.595276 0.343751
O O12 0.337501 0.469970 0.122140
O O13 0.332449 0.507021 1.000000
O O14 0.472472 0.736236 0.902760
O O15 0.396067 0.792133 0.908157
O O16 0.530030 0.867531 0.877860
#
# Coordination Sequence:
#
# PCOD8323349 Si02
#       8
#    12  12  12  12  12  12  12  12
#     4   8  14  24  35  45  57  73  94 120 147 174
#     4   9  16  24  33  45  61  79  97 118 146 180
#     4   8  14  24  35  45  57  73  94 120 147 174
#     4   9  16  24  33  45  61  79  97 118 146 180
#     4   8  14  24  35  45  57  73  94 120 147 174
#     4   9  16  24  33  45  61  79  97 118 146 180
#     4   9  16  24  33  45  61  79  97 118 146 180
#     4   8  14  24  35  45  57  73  94 120 147 174
#
# _framework density 11.137181999999999
#
# number of rings (size 3 to 8) (size 9 to 14) (size 15 to 20)
#    0.000    3.500    0.000    2.000    0.000    4.000 
#    0.000    5.000    0.000    3.000    0.000    0.000 
#    0.000    0.000    0.000    0.000    0.000    0.000 
#
# Total GULP energy -1189775.573879 kJ/mol
# GULP energy per Si atom -12393.495561 kJ/mol
# Density = 1.111183 g / cm^3
# Si number density = 11.137182 Si / 1000 Ang^3
#
#
#
# Elastic Constant Matrix: (Units=GPa)
#
#
# Indices 1 2 3 4 5 6 
#
# 1 51.6298 32.3845 45.2534 0.0000 0.0000 0.0000
# 2 32.3845 51.6298 45.2534 0.0000 0.0000 0.0000
# 3 45.2534 45.2534 75.9057 0.0000 0.0000 0.0000
# 4 0.0000 0.0000 0.0000 18.3238 0.0000 0.0000
# 5 0.0000 0.0000 0.0000 0.0000 18.3238 0.0000
# 6 0.0000 0.0000 0.0000 0.0000 0.0000 9.6227
#
#
#
# Elastic Compliance Matrix: (Units=1/GPa)
#
#
# Indices 1 2 3 4 5 6 
#
# 1 0.042616 -0.009345 -0.019836 0.000000 0.000000 0.000000
# 2 -0.009345 0.042616 -0.019836 0.000000 0.000000 0.000000
# 3 -0.019836 -0.019836 0.036825 0.000000 0.000000 0.000000
# 4 0.000000 0.000000 0.000000 0.054574 0.000000 0.000000
# 5 0.000000 0.000000 0.000000 0.000000 0.054574 0.000000
# 6 0.000000 0.000000 0.000000 0.000000 0.000000 0.103921
#
#
# Mechanical properties :
#
#
# Convention : Reuss Voigt Hill
#
# Bulk Modulus (GPa) = 41.62268 47.21646 44.41957
# Shear Modulus (GPa) = 11.33359 13.00566 12.16962
#
# Velocity S-wave (km/s) = 3.19350 3.42097 3.30919
# Velocity P-wave (km/s) = 7.14505 7.62177 7.38726
#
# Compressibility (1/GPa) = 0.02402537
#
# Stress axis : x y z
#
# Youngs Moduli (GPa) = 23.46540 23.46540 27.15520
#
# Poissons Ratio (x) = 0.21928 0.53864
# Poissons Ratio (y) = 0.21928 0.53864
# Poissons Ratio (z) = 0.46545 0.46545
#
# Static dielectric constant tensor:
#      x y z
#    x 2.279720 0.000000 0.000000 
#    y 0.000000 2.279720 0.000000 
#    z 0.000000 0.000000 2.539010 
# 
# 
# High freq. dielectric constant tensor:
#      x y z
#    x 1.387690 0.000000 0.000000 
#    y 0.000000 1.387690 0.000000 
#    z 0.000000 0.000000 1.432030 
# 
# From -- ./inp_files/3957.got.cif
#   From: 2010.03.12/outbox.cif.g09.slc.cpg/sg163_2_cif.got.tgz:3957.got - 2010.04.02 06:30:25.
