data_PCOD8323396
_publ_section_title
;
Structure prediction by ZEFSAII (Michael W. Deem and Ramdas Pophale) SiO2 
 PCOD8323396
Probable space group: P -3 M 1
;
_chemical_formula_sum "Si O2"
_cell_formula_units_Z 96
_cell_length_a 17.310350
_cell_length_b 17.310350
_cell_length_c 24.887099
_cell_angle_alpha 90.000000
_cell_angle_beta 90.000000
_cell_angle_gamma 120.000000
_cell_volume 6458.276061
_symmetry_space_group_name_H-M "P -3 M 1"
_symmetry_group_IT_number 164
_symmetry_cell_setting 'hexagonal'
loop_
_space_group_symop_operation_xyz
x,y,z
-y,x-y,z
-x+y,-x,z
x-y,-y,-z
-x,-x+y,-z
y,x,-z
-x,-y,-z
y,-x+y,-z
x-y,x,-z
-x+y,y,z
x,x-y,z
-y,-x,z
loop_
_atom_site_type_symbol
_atom_site_label
_atom_site_fract_x
_atom_site_fract_y
_atom_site_fract_z
Si Si1 0.243835 0.934923 0.049876
Si Si2 0.000160 0.175280 0.735666
Si Si3 0.664926 0.515234 0.483312
Si Si4 0.666522 0.510363 0.774785
Si Si5 0.910071 0.267197 0.681332
Si Si6 0.842985 0.509358 0.896813
Si Si7 0.975931 0.398493 0.582882
Si Si8 0.177557 0.999634 0.857304
O O1 0.145931 0.854070 0.036128
O O2 0.312033 0.899969 0.061670
O O3 0.242632 0.986179 0.103297
O O4 0.278865 0.000000 0.000000
O O5 0.095489 0.190978 0.717865
O O6 0.002355 0.210110 0.796242
O O7 0.974622 0.228235 0.693616
O O8 0.929723 0.070278 0.733236
O O9 0.762514 0.525027 0.476517
O O10 0.589124 0.410877 0.480097
O O11 0.657982 0.557101 0.539500
O O12 0.647260 0.571426 0.437771
O O13 0.741036 0.482071 0.767935
O O14 0.573437 0.426564 0.758029
O O15 0.684631 0.590416 0.735355
O O16 0.665067 0.540963 0.835809
O O17 0.811738 0.188263 0.664389
O O18 0.955584 0.337591 0.634429
O O19 0.738929 0.477858 0.901172
O O20 0.856438 0.428219 0.914019
O O21 0.971480 0.485740 0.598907
O O22 0.091816 0.908185 0.873730
O O23 0.153013 0.076507 0.864996
#
# Coordination Sequence:
#
# PCOD8323396 Si02
#       8
#    12  12  12  12  12  12  12  12
#     4  10  19  29  41  58  80 104 130 162 200 239
#     4   9  17  28  42  59  79 105 137 171 202 232
#     4   9  17  30  47  64  82 107 139 171 201 234
#     4   9  16  26  41  61  84 108 132 158 190 232
#     4  10  18  27  41  61  85 111 136 162 196 239
#     4   9  17  29  44  60  78 102 132 164 197 234
#     4   9  18  30  43  62  87 111 134 164 202 239
#     4   9  16  27  42  59  80 106 135 164 195 233
#
# _framework density 14.864647
#
# number of rings (size 3 to 8) (size 9 to 14) (size 15 to 20)
#    0.000    2.750    0.000    3.250    0.000    5.750 
#    0.000    0.000    0.000    6.000    0.000    0.000 
#    0.000    0.000    0.000   15.500    0.000   75.750 
#
# Total GULP energy -1190124.856718 kJ/mol
# GULP energy per Si atom -12397.133924 kJ/mol
# Density = 1.483081 g / cm^3
# Si number density = 14.864647 Si / 1000 Ang^3
#
#
#
# Elastic Constant Matrix: (Units=GPa)
#
#
# Indices 1 2 3 4 5 6 
#
# 1 84.1947 45.6381 46.7509 1.9550 0.0000 0.0000
# 2 45.6381 84.1947 46.7509 -1.9550 0.0000 0.0000
# 3 46.7509 46.7509 76.8833 0.0000 0.0000 0.0000
# 4 1.9550 -1.9550 0.0000 24.3108 0.0000 0.0000
# 5 0.0000 0.0000 0.0000 0.0000 24.3108 1.9550
# 6 0.0000 0.0000 0.0000 0.0000 1.9550 19.2783
#
#
#
# Elastic Compliance Matrix: (Units=1/GPa)
#
#
# Indices 1 2 3 4 5 6 
#
# 1 0.019926 -0.006223 -0.008332 -0.002103 0.000000 0.000000
# 2 -0.006223 0.019926 -0.008332 0.002103 0.000000 0.000000
# 3 -0.008332 -0.008332 0.023140 0.000000 0.000000 0.000000
# 4 -0.002103 0.002103 0.000000 0.041472 0.000000 0.000000
# 5 0.000000 0.000000 0.000000 0.000000 0.041472 -0.004206
# 6 0.000000 0.000000 0.000000 0.000000 -0.004206 0.052298
#
#
# Mechanical properties :
#
#
# Convention : Reuss Voigt Hill
#
# Bulk Modulus (GPa) = 58.08411 58.17250 58.12830
# Shear Modulus (GPa) = 20.02004 20.65552 20.33778
#
# Velocity S-wave (km/s) = 3.67389 3.73174 3.70293
# Velocity P-wave (km/s) = 7.56021 7.60182 7.58104
#
# Compressibility (1/GPa) = 0.01721641
#
# Stress axis : x y z
#
# Youngs Moduli (GPa) = 50.18546 50.18546 43.21476
#
# Poissons Ratio (x) = 0.31231 0.36009
# Poissons Ratio (y) = 0.31231 0.36009
# Poissons Ratio (z) = 0.41817 0.41817
#
# Static dielectric constant tensor:
#      x y z
#    x 2.803100 0.000000 0.000000 
#    y 0.000000 2.803100 0.000000 
#    z 0.000000 0.000000 2.819330 
# 
# 
# High freq. dielectric constant tensor:
#      x y z
#    x 1.562860 0.000000 0.000000 
#    y 0.000000 1.562860 0.000000 
#    z 0.000000 0.000000 1.560850 
# 
# From -- ./inp_files/5079.got.cif
#   From: 2010.03.12/outbox.cif.g09.slc.cpg/sg164_3_cif.got.tgz:5079.got - 2010.04.02 06:32:59.
