data_PCOD8323362
_publ_section_title
;
Structure prediction by ZEFSAII (Michael W. Deem and Ramdas Pophale) SiO2 
 PCOD8323362
Probable space group: P -3 M 1
;
_chemical_formula_sum "Si O2"
_cell_formula_units_Z 96
_cell_length_a 16.688501
_cell_length_b 16.688501
_cell_length_c 25.202561
_cell_angle_alpha 90.000000
_cell_angle_beta 90.000000
_cell_angle_gamma 120.000000
_cell_volume 6078.689560
_symmetry_space_group_name_H-M "P -3 M 1"
_symmetry_group_IT_number 164
_symmetry_cell_setting 'hexagonal'
loop_
_space_group_symop_operation_xyz
x,y,z
-y,x-y,z
-x+y,-x,z
x-y,-y,-z
-x,-x+y,-z
y,x,-z
-x,-y,-z
y,-x+y,-z
x-y,x,-z
-x+y,y,z
x,x-y,z
-y,-x,z
loop_
_atom_site_type_symbol
_atom_site_label
_atom_site_fract_x
_atom_site_fract_y
_atom_site_fract_z
Si Si1 0.336108 0.482728 0.780340
Si Si2 0.000378 0.812303 0.060600
Si Si3 0.814190 0.814508 0.643322
Si Si4 0.321042 0.250289 0.148361
Si Si5 0.225310 0.267178 0.244012
Si Si6 0.570394 0.965119 0.276909
Si Si7 0.150095 0.484028 0.380100
Si Si8 0.679410 0.749118 0.452566
O O1 0.236187 0.472373 0.768913
O O2 0.410748 0.589253 0.792257
O O3 0.333491 0.420948 0.831730
O O4 0.366775 0.444413 0.729317
O O5 0.093605 0.906396 0.074557
O O6 0.914760 0.829520 0.071763
O O7 0.995204 0.728988 0.097429
O O8 0.000000 0.782552 0.000000
O O9 0.920045 0.840089 0.645061
O O10 0.766348 0.772945 0.699630
O O11 0.757928 0.741152 0.598011
O O12 0.810808 0.905404 0.629685
O O13 0.338465 0.169233 0.130503
O O14 0.249994 0.217589 0.197826
O O15 0.124240 0.248479 0.232347
O O16 0.298888 0.378386 0.243811
O O17 0.466727 0.933453 0.254775
O O18 0.562031 0.932834 0.337604
O O19 0.239712 0.479423 0.359083
O O20 0.179565 0.589783 0.391806
O O21 0.114003 0.427225 0.434826
O O22 0.698213 0.698213 0.500000
O O23 0.700523 0.850262 0.471644
#
# Coordination Sequence:
#
# PCOD8323362 Si02
#       8
#    12  12  12  12  12  12  12  12
#     4   9  17  29  45  65  89 118 150 184 224 269
#     4   9  16  26  40  59  86 121 157 189 220 259
#     4  10  19  30  44  62  86 115 145 176 213 256
#     4   9  17  27  40  62  88 115 148 184 222 261
#     4  10  17  27  43  63  87 115 143 175 217 261
#     4   9  17  29  44  64  89 113 139 174 213 259
#     4  10  19  33  51  70  91 114 144 179 221 266
#     4  10  20  34  49  67  88 114 147 183 220 260
#
# _framework density 15.792877000000001
#
# number of rings (size 3 to 8) (size 9 to 14) (size 15 to 20)
#    0.000    2.500    1.250    2.000    0.000    1.250 
#    0.000    0.000    0.000    6.625    0.000    0.000 
#    0.000    5.000    0.000    0.000    0.000    8.000 
#
# Total GULP energy -1189366.729759 kJ/mol
# GULP energy per Si atom -12389.236768 kJ/mol
# Density = 1.575693 g / cm^3
# Si number density = 15.792877 Si / 1000 Ang^3
#
#
#
# Elastic Constant Matrix: (Units=GPa)
#
#
# Indices 1 2 3 4 5 6 
#
# 1 73.8901 32.8357 34.1736 1.3380 0.0000 0.0000
# 2 32.8357 73.8901 34.1736 -1.3380 0.0000 0.0000
# 3 34.1736 34.1736 75.9744 0.0000 0.0000 0.0000
# 4 1.3380 -1.3380 0.0000 19.3610 0.0000 0.0000
# 5 0.0000 0.0000 0.0000 0.0000 19.3610 1.3380
# 6 0.0000 0.0000 0.0000 0.0000 1.3380 20.5272
#
#
#
# Elastic Compliance Matrix: (Units=1/GPa)
#
#
# Indices 1 2 3 4 5 6 
#
# 1 0.018814 -0.005654 -0.005920 -0.001691 0.000000 0.000000
# 2 -0.005654 0.018814 -0.005920 0.001691 0.000000 0.000000
# 3 -0.005920 -0.005920 0.018488 0.000000 0.000000 0.000000
# 4 -0.001691 0.001691 0.000000 0.051884 0.000000 0.000000
# 5 0.000000 0.000000 0.000000 0.000000 0.051884 -0.003382
# 6 0.000000 0.000000 0.000000 0.000000 -0.003382 0.048936
#
#
# Mechanical properties :
#
#
# Convention : Reuss Voigt Hill
#
# Bulk Modulus (GPa) = 47.32535 47.34669 47.33602
# Shear Modulus (GPa) = 19.93215 20.02128 19.97671
#
# Velocity S-wave (km/s) = 3.55645 3.56440 3.56043
# Velocity P-wave (km/s) = 6.84805 6.85454 6.85130
#
# Compressibility (1/GPa) = 0.02113032
#
# Stress axis : x y z
#
# Youngs Moduli (GPa) = 53.15052 53.15052 54.08969
#
# Poissons Ratio (x) = 0.30049 0.32020
# Poissons Ratio (y) = 0.30049 0.32020
# Poissons Ratio (z) = 0.31464 0.31464
#
# Static dielectric constant tensor:
#      x y z
#    x 3.086420 0.000000 0.000000 
#    y 0.000000 3.086420 0.000000 
#    z 0.000000 0.000000 2.946470 
# 
# 
# High freq. dielectric constant tensor:
#      x y z
#    x 1.602870 0.000000 0.000000 
#    y 0.000000 1.602870 0.000000 
#    z 0.000000 0.000000 1.583680 
# 
# From -- ./inp_files/5085.got.cif
#   From: 2010.03.12/outbox.cif.g09.slc.cpg/sg164_3_cif.got.tgz:5085.got - 2010.04.02 06:32:59.
