data_PCOD8323080
_publ_section_title
;
Structure prediction by ZEFSAII (Michael W. Deem and Ramdas Pophale) SiO2 
 PCOD8323080
Probable space group: P -3 1 M 
;
_chemical_formula_sum "Si O2"
_cell_formula_units_Z 48
_cell_length_a 16.686180
_cell_length_b 16.686180
_cell_length_c 10.235221
_cell_angle_alpha 90.000000
_cell_angle_beta 90.000000
_cell_angle_gamma 120.000000
_cell_volume 2467.980389
_symmetry_space_group_name_H-M "P -3 1 M "
_symmetry_group_IT_number 162
_symmetry_cell_setting 'hexagonal'
loop_
_space_group_symop_operation_xyz
x,y,z
-y,x-y,z
-x+y,-x,z
-y,-x,-z
-x+y,y,-z
x,x-y,-z
-x,-y,-z
y,-x+y,-z
x-y,x,-z
y,x,z
x-y,-y,z
-x,-x+y,z
loop_
_atom_site_type_symbol
_atom_site_label
_atom_site_fract_x
_atom_site_fract_y
_atom_site_fract_z
Si Si1 0.636749 0.530300 0.438281
Si Si2 0.431505 0.241183 0.798953
Si Si3 0.688922 0.897162 0.389836
Si Si4 0.893641 0.536531 0.043536
O O1 0.568965 0.431036 0.500000
O O2 0.579954 0.579954 0.389388
O O3 0.683406 0.510540 0.312814
O O4 0.711283 0.593213 0.546967
O O5 0.332529 0.168538 0.735695
O O6 0.478306 0.179968 0.842904
O O7 0.413265 0.290311 0.920723
O O8 0.740842 0.870421 0.500000
O O9 0.755108 0.000000 0.340842
O O10 0.000000 0.598817 0.092649
O O11 0.871407 0.435704 0.000000
#
# Coordination Sequence:
#
# PCOD8323080 Si02
#       4
#    12  12  12  12
#     4   9  18  32  54  80 107 142 179 219 269 327
#     4  10  20  35  53  78 104 138 189 233 271 319
#     4   9  18  33  55  82 109 137 176 224 275 330
#     4  10  22  38  55  73 102 148 192 233 277 323
#
# _framework density 19.449102
#
# number of rings (size 3 to 8) (size 9 to 14) (size 15 to 20)
#    0.000    2.500    0.000    1.500    3.500    1.000 
#    6.000    0.000    0.000    0.250    0.000    0.000 
#    0.000    0.000    0.000   41.000    0.000    0.000 
#
# Total GULP energy -594895.657440 kJ/mol
# GULP energy per Si atom -12393.659530 kJ/mol
# Density = 1.940484 g / cm^3
# Si number density = 19.449102 Si / 1000 Ang^3
#
#
#
# Elastic Constant Matrix: (Units=GPa)
#
#
# Indices 1 2 3 4 5 6 
#
# 1 91.3509 40.2588 43.9549 -0.0001 -6.0870 0.0000
# 2 40.2588 91.3509 43.9549 0.0001 6.0870 0.0000
# 3 43.9549 43.9549 102.8120 0.0000 0.0000 0.0000
# 4 -0.0001 0.0001 0.0000 26.1515 0.0000 6.0870
# 5 -6.0870 6.0870 0.0000 0.0000 26.1515 -0.0001
# 6 0.0000 0.0000 0.0000 6.0870 -0.0001 25.5460
#
#
#
# Elastic Compliance Matrix: (Units=1/GPa)
#
#
# Indices 1 2 3 4 5 6 
#
# 1 0.015679 -0.005043 -0.004547 0.000000 0.004823 0.000000
# 2 -0.005043 0.015679 -0.004547 0.000000 -0.004823 0.000000
# 3 -0.004547 -0.004547 0.013614 0.000000 0.000000 0.000000
# 4 0.000000 0.000000 0.000000 0.040484 0.000000 -0.009646
# 5 0.004823 -0.004823 0.000000 0.000000 0.040484 0.000000
# 6 0.000000 0.000000 0.000000 -0.009646 0.000000 0.041444
#
#
# Mechanical properties :
#
#
# Convention : Reuss Voigt Hill
#
# Bulk Modulus (GPa) = 59.88939 60.20568 60.04754
# Shear Modulus (GPa) = 24.84805 26.05946 25.45376
#
# Velocity S-wave (km/s) = 3.57822 3.66441 3.62157
# Velocity P-wave (km/s) = 6.92324 6.99475 6.95909
#
# Compressibility (1/GPa) = 0.01669745
#
# Stress axis : x y z
#
# Youngs Moduli (GPa) = 63.78133 63.78133 73.45197
#
# Poissons Ratio (x) = 0.32166 0.33398
# Poissons Ratio (y) = 0.32166 0.33398
# Poissons Ratio (z) = 0.29001 0.29001
#
# Static dielectric constant tensor:
#      x y z
#    x 3.520550 0.000000 0.000000 
#    y 0.000000 3.520550 0.000000 
#    z 0.000000 0.000000 3.687030 
# 
# 
# High freq. dielectric constant tensor:
#      x y z
#    x 1.738300 0.000000 0.000000 
#    y 0.000000 1.738300 0.000000 
#    z 0.000000 0.000000 1.765330 
# 
# From -- ./inp_files/2147.got.cif
#   From: 2010.03.12/outbox.cif.g09.slc.cpg/sg162_2_cif.got.tgz:2147.got - 2010.04.02 06:27:41.
