data_PCOD8323243
_publ_section_title
;
Structure prediction by ZEFSAII (Michael W. Deem and Ramdas Pophale) SiO2 
 PCOD8323243
Probable space group: P -3 1 C
;
_chemical_formula_sum "Si O2"
_cell_formula_units_Z 40
_cell_length_a 9.514557
_cell_length_b 9.514557
_cell_length_c 28.272359
_cell_angle_alpha 90.000000
_cell_angle_beta 90.000000
_cell_angle_gamma 120.000000
_cell_volume 2216.510653
_symmetry_space_group_name_H-M "P -3 1 C"
_symmetry_group_IT_number 163
_symmetry_cell_setting 'hexagonal'
loop_
_space_group_symop_operation_xyz
x,y,z
-y,x-y,z
-x+y,-x,z
-y,-x,1/2-z
-x+y,y,1/2-z
x,x-y,1/2-z
-x,-y,-z
y,-x+y,-z
x-y,x,-z
y,x,1/2+z
x-y,-y,1/2+z
-x,-x+y,1/2+z
loop_
_atom_site_type_symbol
_atom_site_label
_atom_site_fract_x
_atom_site_fract_y
_atom_site_fract_z
Si Si1 0.666668 0.333334 0.069563
Si Si2 0.482995 0.024390 0.601247
Si Si3 0.892773 0.175416 0.871929
Si Si4 0.000000 0.000000 0.194196
Si Si5 0.333334 0.666668 0.459402
Si Si6 0.000000 0.000000 0.942314
O O1 0.636341 0.476687 0.086177
O O2 0.666668 0.333334 0.014315
O O3 0.632892 0.036040 0.630220
O O4 0.380019 0.078370 0.633881
O O5 0.552575 0.148215 0.557218
O O6 0.968496 0.139563 0.826050
O O7 0.943559 0.122920 0.921327
O O8 0.000000 0.000000 0.250000
O O9 0.000000 0.000000 0.000000
#
# Coordination Sequence:
#
# PCOD8323243 Si02
#       6
#     4  12  12   4   4   4
#     4  12  18  27  48  75  97 134 187 219 237 276
#     4  10  20  33  50  71 104 138 168 216 261 296
#     4   9  20  37  53  76 106 138 172 211 262 312
#     4  10  20  40  64  80  97 130 170 208 259 332
#     4   9  21  33  42  66 106 146 175 204 249 300
#     4  10  20  34  52  74 109 154 194 220 247 296
#
# _framework density 18.046382999999999
#
# number of rings (size 3 to 8) (size 9 to 14) (size 15 to 20)
#    0.000    2.400    0.000    5.100    0.000    9.600 
#    0.000    1.500    0.000    0.000    0.000    0.000 
#    0.000    0.000    0.000    0.000    0.000    0.000 
#
# Total GULP energy -495891.082664 kJ/mol
# GULP energy per Si atom -12397.277067 kJ/mol
# Density = 1.800531 g / cm^3
# Si number density = 18.046383 Si / 1000 Ang^3
#
#
#
# Elastic Constant Matrix: (Units=GPa)
#
#
# Indices 1 2 3 4 5 6 
#
# 1 80.3940 -10.9354 16.8627 -0.0050 -6.2180 -0.0013
# 2 -10.9354 80.3939 16.8623 0.0070 6.2191 0.0012
# 3 16.8627 16.8623 112.2874 -0.0022 -0.0013 -0.0004
# 4 -0.0050 0.0070 -0.0022 55.7381 0.0236 6.2254
# 5 -6.2180 6.2191 -0.0013 0.0236 55.7109 0.0060
# 6 -0.0013 0.0012 -0.0004 6.2254 0.0060 45.6661
#
#
#
# Elastic Compliance Matrix: (Units=1/GPa)
#
#
# Indices 1 2 3 4 5 6 
#
# 1 0.013324 0.002206 -0.002332 0.000000 0.001241 0.000000
# 2 0.002206 0.013324 -0.002332 -0.000001 -0.001241 0.000000
# 3 -0.002332 -0.002332 0.009606 0.000000 0.000000 0.000000
# 4 0.000000 -0.000001 0.000000 0.018218 -0.000007 -0.002484
# 5 0.001241 -0.001241 0.000000 -0.000007 0.018227 -0.000001
# 6 0.000000 0.000000 0.000000 -0.002484 -0.000001 0.022237
#
#
# Mechanical properties :
#
#
# Convention : Reuss Voigt Hill
#
# Bulk Modulus (GPa) = 31.91157 35.40604 33.65881
# Shear Modulus (GPa) = 45.33141 48.10874 46.72007
#
# Velocity S-wave (km/s) = 5.01736 5.16878 5.09363
# Velocity P-wave (km/s) = 7.16147 7.43530 7.29967
#
# Compressibility (1/GPa) = 0.03133659
#
# Stress axis : x y z
#
# Youngs Moduli (GPa) = 75.05330 75.05298 104.09995
#
# Poissons Ratio (x) = -0.16553 0.24277
# Poissons Ratio (y) = -0.16553 0.24277
# Poissons Ratio (z) = 0.17503 0.17503
#
# Static dielectric constant tensor:
#      x y z
#    x 3.625060 0.000000 0.000000 
#    y 0.000000 3.625060 0.000000 
#    z 0.000000 0.000000 2.769760 
# 
# 
# High freq. dielectric constant tensor:
#      x y z
#    x 1.719800 0.000000 0.000000 
#    y 0.000000 1.719800 0.000000 
#    z 0.000000 0.000000 1.635570 
# 
# From -- ./inp_files/4287.got.cif
#   From: 2010.03.12/outbox.cif.g09.slc.cpg/sg163_3_cif.got.tgz:4287.got - 2010.04.02 06:30:25.
