data_PCOD8323841
_publ_section_title
;
Structure prediction by ZEFSAII (Michael W. Deem and Ramdas Pophale) SiO2 
 PCOD8323841
Probable space group: P -3 M 1
;
_chemical_formula_sum "Si O2"
_cell_formula_units_Z 72
_cell_length_a 27.573789
_cell_length_b 27.573789
_cell_length_c 7.592071
_cell_angle_alpha 90.000000
_cell_angle_beta 90.000000
_cell_angle_gamma 120.000000
_cell_volume 4999.007502
_symmetry_space_group_name_H-M "P -3 M 1"
_symmetry_group_IT_number 164
_symmetry_cell_setting 'hexagonal'
loop_
_space_group_symop_operation_xyz
x,y,z
-y,x-y,z
-x+y,-x,z
x-y,-y,-z
-x,-x+y,-z
y,x,-z
-x,-y,-z
y,-x+y,-z
x-y,x,-z
-x+y,y,z
x,x-y,z
-y,-x,z
loop_
_atom_site_type_symbol
_atom_site_label
_atom_site_fract_x
_atom_site_fract_y
_atom_site_fract_z
Si Si1 0.935076 0.616049 0.202687
Si Si2 0.381330 0.136736 0.499997
Si Si3 0.619750 0.488204 0.801399
Si Si4 0.619750 0.488204 0.198588
Si Si5 0.689868 0.203379 0.499995
Si Si6 0.680973 0.616049 0.797307
O O1 0.901683 0.637433 0.324677
O O2 0.916270 0.551391 0.244394
O O3 1.000000 0.652248 0.249629
O O4 0.923179 0.623836 0.999997
O O5 0.353751 0.176876 0.499998
O O6 0.447295 0.175494 0.499997
O O7 0.362566 0.098317 0.675317
O O8 0.552852 0.447149 0.777918
O O9 0.651865 0.466960 0.674405
O O10 0.635121 0.551392 0.755596
O O11 0.638550 0.485072 0.999993
O O12 0.552853 0.447148 0.222073
O O13 0.651867 0.466960 0.325579
O O14 0.729360 0.270641 0.499998
#
# Coordination Sequence:
#
# PCOD8323841 Si02
#       6
#    12  12  12  12  12  12
#     4   9  17  28  42  61  84 107 129 156 194 238
#     4   9  17  28  41  57  77 101 130 161 188 219
#     4   9  17  28  42  60  79  98 122 152 189 240
#     4   9  17  28  42  60  79  98 122 152 189 240
#     4   9  17  28  41  55  70  91 120 153 188 224
#     4   9  17  28  42  61  84 107 129 156 194 238
#
# _framework density 14.402858
#
# number of rings (size 3 to 8) (size 9 to 14) (size 15 to 20)
#    0.000    3.000    0.000    1.000    0.000    2.000 
#    0.000   10.000    0.000    8.667    0.000    0.000 
#    0.000    0.000    0.000    0.000    0.000    0.000 
#
# Total GULP energy -892430.205425 kJ/mol
# GULP energy per Si atom -12394.863964 kJ/mol
# Density = 1.437008 g / cm^3
# Si number density = 14.402858 Si / 1000 Ang^3
#
#
#
# Elastic Constant Matrix: (Units=GPa)
#
#
# Indices 1 2 3 4 5 6 
#
# 1 70.3159 40.3222 46.3235 -0.0001 0.0000 0.0000
# 2 40.3222 70.3159 46.3235 0.0001 0.0000 0.0000
# 3 46.3235 46.3235 102.1874 0.0000 0.0000 0.0000
# 4 -0.0001 0.0001 0.0000 18.1892 0.0000 0.0000
# 5 0.0000 0.0000 0.0000 0.0000 18.1892 -0.0001
# 6 0.0000 0.0000 0.0000 0.0000 -0.0001 14.9969
#
#
#
# Elastic Compliance Matrix: (Units=1/GPa)
#
#
# Indices 1 2 3 4 5 6 
#
# 1 0.023955 -0.009386 -0.006604 0.000000 0.000000 0.000000
# 2 -0.009386 0.023955 -0.006604 0.000000 0.000000 0.000000
# 3 -0.006604 -0.006604 0.015774 0.000000 0.000000 0.000000
# 4 0.000000 0.000000 0.000000 0.054978 0.000000 0.000000
# 5 0.000000 0.000000 0.000000 0.000000 0.054978 0.000000
# 6 0.000000 0.000000 0.000000 0.000000 0.000000 0.066681
#
#
# Mechanical properties :
#
#
# Convention : Reuss Voigt Hill
#
# Bulk Modulus (GPa) = 54.07146 56.52865 55.30005
# Shear Modulus (GPa) = 17.14251 17.59837 17.37044
#
# Velocity S-wave (km/s) = 3.45369 3.49931 3.47658
# Velocity P-wave (km/s) = 7.31626 7.46059 7.38878
#
# Compressibility (1/GPa) = 0.01849404
#
# Stress axis : x y z
#
# Youngs Moduli (GPa) = 41.74564 41.74564 63.39660
#
# Poissons Ratio (x) = 0.39181 0.41869
# Poissons Ratio (y) = 0.39181 0.41869
# Poissons Ratio (z) = 0.27570 0.27570
#
# Static dielectric constant tensor:
#      x y z
#    x 2.672240 0.000000 0.000000 
#    y 0.000000 2.672240 0.000000 
#    z 0.000000 0.000000 3.038660 
# 
# 
# High freq. dielectric constant tensor:
#      x y z
#    x 1.512880 0.000000 0.000000 
#    y 0.000000 1.512880 0.000000 
#    z 0.000000 0.000000 1.571830 
# 
# From -- ./inp_files/1931.got.cif
#   From: 2010.03.12/outbox.cif.g09.slc.cpg/sg164_1_cif.got.tgz:1931.got - 2010.04.02 06:32:59.
