data_PCOD8323911
_publ_section_title
;
Structure prediction by ZEFSAII (Michael W. Deem and Ramdas Pophale) SiO2 
 PCOD8323911
Probable space group: P -3 C 1
;
_chemical_formula_sum "Si O2"
_cell_formula_units_Z 68
_cell_length_a 14.286765
_cell_length_b 14.286765
_cell_length_c 18.244341
_cell_angle_alpha 90.000000
_cell_angle_beta 90.000000
_cell_angle_gamma 120.000000
_cell_volume 3224.976950
_symmetry_space_group_name_H-M "P -3 C 1"
_symmetry_group_IT_number 165
_symmetry_cell_setting 'hexagonal'
loop_
_space_group_symop_operation_xyz
x,y,z
-y,x-y,z
-x+y,-x,z
x-y,-y,1/2-z
-x,-x+y,1/2-z
y,x,1/2-z
-x,-y,-z
y,-x+y,-z
x-y,x,-z
-x+y,y,1/2+z
x,x-y,1/2+z
-y,-x,1/2+z
loop_
_atom_site_type_symbol
_atom_site_label
_atom_site_fract_x
_atom_site_fract_y
_atom_site_fract_z
Si Si1 0.505942 0.832581 0.213321
Si Si2 0.203998 0.421244 0.413291
Si Si3 0.666668 0.333335 0.882855
Si Si4 0.333334 0.666668 0.946840
Si Si5 0.650457 0.113665 0.715829
Si Si6 0.904227 0.761737 0.474998
Si Si7 0.734511 0.003254 0.331020
O O1 0.423523 0.782834 0.146202
O O2 0.446929 0.860487 0.278251
O O3 0.548089 0.755492 0.243713
O O4 0.603691 0.940798 0.181327
O O5 0.300846 0.545141 0.422265
O O6 0.110338 0.430394 0.369371
O O7 0.158517 0.359708 0.490797
O O8 0.237347 0.350214 0.362909
O O9 0.666668 0.333334 0.967634
O O10 0.621810 0.000000 0.750000
O O11 0.831531 0.817842 0.479069
O O12 0.929700 0.759646 0.389124
O O13 0.783396 0.000000 0.250000
#
# Coordination Sequence:
#
# PCOD8323911 Si02
#       7
#    12  12   4   4  12  12  12
#     4  10  21  40  62  93 132 166 231 269 331 393
#     4  11  25  41  65  96 134 178 221 280 339 410
#     4   9  21  40  62  88 126 178 215 274 318 412
#     4  12  24  43  59  91 141 172 224 268 345 409
#     4  11  23  37  64  97 127 179 220 275 338 395
#     4  10  24  46  72 100 135 176 222 284 350 403
#     4  11  22  42  67  94 131 177 225 279 332 401
#
# _framework density 21.085422999999999
#
# number of rings (size 3 to 8) (size 9 to 14) (size 15 to 20)
#    0.000    1.412    1.765    3.176    4.941    0.000 
#    3.176    7.059    0.000    0.000    0.000    0.000 
#    0.000    0.000    0.000    0.000    0.000    0.000 
#
# Total GULP energy -842766.829008 kJ/mol
# GULP energy per Si atom -12393.629838 kJ/mol
# Density = 2.103743 g / cm^3
# Si number density = 21.085423 Si / 1000 Ang^3
#
#
#
# Elastic Constant Matrix: (Units=GPa)
#
#
# Indices 1 2 3 4 5 6 
#
# 1 91.7231 32.4027 35.1023 -0.1592 0.0000 0.0000
# 2 32.4027 91.7222 35.1021 0.1592 0.0000 0.0000
# 3 35.1023 35.1021 132.0116 0.0000 0.0000 0.0000
# 4 -0.1592 0.1592 0.0000 28.1068 0.0000 0.0000
# 5 0.0000 0.0000 0.0000 0.0000 28.1075 -0.1596
# 6 0.0000 0.0000 0.0000 0.0000 -0.1596 29.6605
#
#
#
# Elastic Compliance Matrix: (Units=1/GPa)
#
#
# Indices 1 2 3 4 5 6 
#
# 1 0.013170 -0.003688 -0.002521 0.000095 0.000000 0.000000
# 2 -0.003688 0.013170 -0.002521 -0.000095 0.000000 0.000000
# 3 -0.002521 -0.002521 0.008916 0.000000 0.000000 0.000000
# 4 0.000095 -0.000095 0.000000 0.035580 0.000000 0.000000
# 5 0.000000 0.000000 0.000000 0.000000 0.035579 0.000191
# 6 0.000000 0.000000 0.000000 0.000000 0.000191 0.033716
#
#
# Mechanical properties :
#
#
# Convention : Reuss Voigt Hill
#
# Bulk Modulus (GPa) = 56.19469 57.85235 57.02352
# Shear Modulus (GPa) = 30.57651 31.36494 30.97072
#
# Velocity S-wave (km/s) = 3.81218 3.86102 3.83668
# Velocity P-wave (km/s) = 6.78865 6.88283 6.83590
#
# Compressibility (1/GPa) = 0.01779528
#
# Stress axis : x y z
#
# Youngs Moduli (GPa) = 75.92843 75.92774 112.15806
#
# Poissons Ratio (x) = 0.28001 0.28280
# Poissons Ratio (y) = 0.28002 0.28280
# Poissons Ratio (z) = 0.19145 0.19145
#
# Static dielectric constant tensor:
#      x y z
#    x 4.131430 0.000000 0.000000 
#    y 0.000000 4.131380 -0.000020 
#    z 0.000000 -0.000020 4.028910 
# 
# 
# High freq. dielectric constant tensor:
#      x y z
#    x 1.826290 0.000000 0.000000 
#    y 0.000000 1.826290 0.000000 
#    z 0.000000 0.000000 1.830260 
# 
# From -- ./inp_files/2312.got.cif
#   From: 2010.03.12/outbox.cif.g09.slc.cpg/sg165_2_cif.got.tgz:2312.got - 2010.04.02 06:36:38.
