data_PCOD8323989
_publ_section_title
;
Structure prediction by ZEFSAII (Michael W. Deem and Ramdas Pophale) SiO2 
 PCOD8323989
Probable space group: R -3 M
;
_chemical_formula_sum "Si O2"
_cell_formula_units_Z 126
_cell_length_a 23.683261
_cell_length_b 23.683261
_cell_length_c 17.188197
_cell_angle_alpha 90.000000
_cell_angle_beta 90.000000
_cell_angle_gamma 120.000000
_cell_volume 8349.182547
_symmetry_space_group_name_H-M "R -3 M"
_symmetry_group_IT_number 166
_symmetry_cell_setting 'hexagonal'
loop_
_space_group_symop_operation_xyz
x,y,z
-y,x-y,z
-x+y,-x,z
x-y,-y,-z
-x,-x+y,-z
y,x,-z
-x,-y,-z
y,-x+y,-z
x-y,x,-z
-x+y,y,z
x,x-y,z
-y,-x,z
2/3+x,1/3+y,1/3+z
2/3-y,1/3+x-y,1/3+z
2/3-x+y,1/3-x,1/3+z
2/3+x-y,1/3-y,1/3-z
2/3-x,1/3-x+y,1/3-z
2/3+y,1/3+x,1/3-z
2/3-x,1/3-y,1/3-z
2/3+y,1/3-x+y,1/3-z
2/3+x-y,1/3+x,1/3-z
2/3-x+y,1/3+y,1/3+z
2/3+x,1/3+x-y,1/3+z
2/3-y,1/3-x,1/3+z
1/3+x,2/3+y,2/3+z
1/3-y,2/3+x-y,2/3+z
1/3-x+y,2/3-x,2/3+z
1/3+x-y,2/3-y,2/3-z
1/3-x,2/3-x+y,2/3-z
1/3+y,2/3+x,2/3-z
1/3-x,2/3-y,2/3-z
1/3+y,2/3-x+y,2/3-z
1/3+x-y,2/3+x,2/3-z
1/3-x+y,2/3+y,2/3+z
1/3+x,2/3+x-y,2/3+z
1/3-y,2/3-x,2/3+z
loop_
_atom_site_type_symbol
_atom_site_label
_atom_site_fract_x
_atom_site_fract_y
_atom_site_fract_z
Si Si1 0.065317 0.405380 0.463692
Si Si2 0.931556 0.333334 0.833334
Si Si3 0.408717 0.461001 0.309135
Si Si4 0.183428 0.235250 0.062003
O O1 0.051206 0.331133 0.453552
O O2 0.082031 0.442029 0.381690
O O3 0.126432 0.443907 0.521548
O O4 0.000000 0.402140 0.500000
O O5 0.911356 0.369942 0.769639
O O6 0.466171 0.533830 0.321842
O O7 0.434611 0.410082 0.300434
O O8 0.109971 0.219941 0.070197
O O9 0.185758 0.185758 0.000000
#
# Coordination Sequence:
#
# PCOD8323989 Si02
#       4
#    36  18  36  36
#     4   9  16  27  42  62  91 121 139 183 221 256
#     4   8  16  28  39  58  90 116 137 172 220 258
#     4  10  17  27  45  65  86 117 152 179 222 272
#     4  10  18  29  44  67  91 120 153 185 221 268
#
# _framework density 15.091298
#
# number of rings (size 3 to 8) (size 9 to 14) (size 15 to 20)
#    0.857    1.714    2.857    0.857    0.000    1.714 
#    0.000    1.429    0.000    7.143    0.000    0.000 
#    0.000    0.000    0.000    1.714    0.000    0.000 
#
# Total GULP energy -520556.102972 kJ/mol
# GULP energy per Si atom -12394.192928 kJ/mol
# Density = 1.505695 g / cm^3
# Si number density = 15.091298 Si / 1000 Ang^3
#
#
#
# Elastic Constant Matrix: (Units=GPa)
#
#
# Indices 1 2 3 4 5 6 
#
# 1 53.1823 26.5059 47.7694 2.3975 0.0000 0.0000
# 2 26.5059 53.1823 47.7694 -2.3975 0.0000 0.0000
# 3 47.7694 47.7694 126.1111 0.0000 0.0000 0.0000
# 4 2.3975 -2.3975 0.0000 15.8820 0.0000 0.0000
# 5 0.0000 0.0000 0.0000 0.0000 15.8820 2.3975
# 6 0.0000 0.0000 0.0000 0.0000 2.3975 13.3382
#
#
#
# Elastic Compliance Matrix: (Units=1/GPa)
#
#
# Indices 1 2 3 4 5 6 
#
# 1 0.030760 -0.007771 -0.008708 -0.005817 0.000000 0.000000
# 2 -0.007771 0.030760 -0.008708 0.005817 0.000000 0.000000
# 3 -0.008708 -0.008708 0.014526 0.000000 0.000000 0.000000
# 4 -0.005817 0.005817 0.000000 0.064720 0.000000 0.000000
# 5 0.000000 0.000000 0.000000 0.000000 0.064720 -0.011633
# 6 0.000000 0.000000 0.000000 0.000000 -0.011633 0.077064
#
#
# Mechanical properties :
#
#
# Convention : Reuss Voigt Hill
#
# Bulk Modulus (GPa) = 38.95208 52.95167 45.95187
# Shear Modulus (GPa) = 14.64197 16.38251 15.51224
#
# Velocity S-wave (km/s) = 3.11822 3.29836 3.20956
# Velocity P-wave (km/s) = 6.23149 7.04764 6.65209
#
# Compressibility (1/GPa) = 0.02567257
#
# Stress axis : x y z
#
# Youngs Moduli (GPa) = 32.50931 32.50931 68.83991
#
# Poissons Ratio (x) = 0.25264 0.59945
# Poissons Ratio (y) = 0.25264 0.59945
# Poissons Ratio (z) = 0.28309 0.28309
#
# Static dielectric constant tensor:
#      x y z
#    x 2.574670 0.000000 0.000000 
#    y 0.000000 2.574670 0.000000 
#    z 0.000000 0.000000 2.895750 
# 
# 
# High freq. dielectric constant tensor:
#      x y z
#    x 1.533980 0.000000 0.000000 
#    y 0.000000 1.533980 0.000000 
#    z 0.000000 0.000000 1.588090 
# 
# From -- ./inp_files/5151.got.cif
#   From: 2010.03.12/outbox.cif.g09.slc.cpg/sg166_3_cif.got.tgz:5151.got - 2010.04.02 06:38:31.
