data_PCOD8323500
_publ_section_title
;
Structure prediction by ZEFSAII (Michael W. Deem and Ramdas Pophale) SiO2 
 PCOD8323500
Probable space group: P -3 M 1
;
_chemical_formula_sum "Si O2"
_cell_formula_units_Z 54
_cell_length_a 17.320766
_cell_length_b 17.320766
_cell_length_c 12.420803
_cell_angle_alpha 90.000000
_cell_angle_beta 90.000000
_cell_angle_gamma 120.000000
_cell_volume 3227.115390
_symmetry_space_group_name_H-M "P -3 M 1"
_symmetry_group_IT_number 164
_symmetry_cell_setting 'hexagonal'
loop_
_space_group_symop_operation_xyz
x,y,z
-y,x-y,z
-x+y,-x,z
x-y,-y,-z
-x,-x+y,-z
y,x,-z
-x,-y,-z
y,-x+y,-z
x-y,x,-z
-x+y,y,z
x,x-y,z
-y,-x,z
loop_
_atom_site_type_symbol
_atom_site_label
_atom_site_fract_x
_atom_site_fract_y
_atom_site_fract_z
Si Si1 0.688334 0.932737 0.402520
Si Si2 0.000000 0.824942 0.000000
Si Si3 0.292769 0.058595 0.210468
Si Si4 0.998863 0.413102 0.124711
Si Si5 0.843933 0.509984 0.719930
O O1 0.710576 0.855288 0.433028
O O2 0.584095 0.889427 0.373221
O O3 0.709030 0.000000 0.500000
O O4 0.750747 0.987672 0.302635
O O5 0.024743 0.785072 0.899594
O O6 0.919079 0.838158 0.963938
O O7 0.309974 0.154987 0.245465
O O8 0.388351 0.065205 0.190917
O O9 0.961198 0.480599 0.142053
O O10 0.099480 0.455949 0.169905
O O11 0.000000 0.391221 0.000000
O O12 0.745578 0.491155 0.747484
O O13 0.839152 0.419576 0.677982
#
# Coordination Sequence:
#
# PCOD8323500 Si02
#       5
#    12   6  12  12  12
#     4  10  20  34  51  71  97 129 165 205 245 290
#     4  10  19  30  45  68  96 124 156 198 247 294
#     4  10  19  31  50  72  94 126 164 201 242 292
#     4   9  17  30  46  69  99 128 158 196 239 286
#     4   9  18  31  50  74 100 129 161 202 249 295
#
# _framework density 16.733208999999999
#
# number of rings (size 3 to 8) (size 9 to 14) (size 15 to 20)
#    0.000    2.444    1.111    1.667    0.000    2.222 
#    0.000    0.000    0.000    5.778    0.000    0.000 
#    0.000    0.000    0.000    0.000    0.000    0.000 
#
# Total GULP energy -669510.617292 kJ/mol
# GULP energy per Si atom -12398.344765 kJ/mol
# Density = 1.669512 g / cm^3
# Si number density = 16.733209 Si / 1000 Ang^3
#
#
#
# Elastic Constant Matrix: (Units=GPa)
#
#
# Indices 1 2 3 4 5 6 
#
# 1 108.6566 63.0298 35.2717 -5.0215 0.0000 0.0000
# 2 63.0298 108.6566 35.2717 5.0215 0.0000 0.0000
# 3 35.2717 35.2717 71.7185 0.0000 0.0000 0.0000
# 4 -5.0215 5.0215 0.0000 22.2029 0.0000 0.0000
# 5 0.0000 0.0000 0.0000 0.0000 22.2029 -5.0215
# 6 0.0000 0.0000 0.0000 0.0000 -5.0215 22.8134
#
#
#
# Elastic Compliance Matrix: (Units=1/GPa)
#
#
# Indices 1 2 3 4 5 6 
#
# 1 0.015182 -0.007883 -0.003590 0.005216 0.000000 0.000000
# 2 -0.007883 0.015182 -0.003590 -0.005216 0.000000 0.000000
# 3 -0.003590 -0.003590 0.017475 0.000000 0.000000 0.000000
# 4 0.005216 -0.005216 0.000000 0.047399 0.000000 0.000000
# 5 0.000000 0.000000 0.000000 0.000000 0.047399 0.010433
# 6 0.000000 0.000000 0.000000 0.000000 0.010433 0.046130
#
#
# Mechanical properties :
#
#
# Convention : Reuss Voigt Hill
#
# Bulk Modulus (GPa) = 56.45308 61.79756 59.12532
# Shear Modulus (GPa) = 22.24225 23.80773 23.02499
#
# Velocity S-wave (km/s) = 3.64981 3.77607 3.71348
# Velocity P-wave (km/s) = 7.18136 7.48484 7.33467
#
# Compressibility (1/GPa) = 0.01771382
#
# Stress axis : x y z
#
# Youngs Moduli (GPa) = 65.86570 65.86570 57.22591
#
# Poissons Ratio (x) = 0.51920 0.20544
# Poissons Ratio (y) = 0.51920 0.20544
# Poissons Ratio (z) = 0.23646 0.23646
#
# Static dielectric constant tensor:
#      x y z
#    x 3.266200 0.000000 0.000000 
#    y 0.000000 3.266200 0.000000 
#    z 0.000000 0.000000 3.003910 
# 
# 
# High freq. dielectric constant tensor:
#      x y z
#    x 1.645910 0.000000 0.000000 
#    y 0.000000 1.645910 0.000000 
#    z 0.000000 0.000000 1.636760 
# 
# From -- ./inp_files/2554.got.cif
#   From: 2010.03.12/outbox.cif.g09.slc.cpg/sg164_2_cif.got.tgz:2554.got - 2010.04.02 06:32:59.
