data_PCOD8323994
_publ_section_title
;
Structure prediction by ZEFSAII (Michael W. Deem and Ramdas Pophale) SiO2 
 PCOD8323994
Probable space group: R -3 M
;
_chemical_formula_sum "Si O2"
_cell_formula_units_Z 180
_cell_length_a 22.428437
_cell_length_b 22.428437
_cell_length_c 26.251663
_cell_angle_alpha 90.000000
_cell_angle_beta 90.000000
_cell_angle_gamma 120.000000
_cell_volume 11436.298198
_symmetry_space_group_name_H-M "R -3 M"
_symmetry_group_IT_number 166
_symmetry_cell_setting 'hexagonal'
loop_
_space_group_symop_operation_xyz
x,y,z
-y,x-y,z
-x+y,-x,z
x-y,-y,-z
-x,-x+y,-z
y,x,-z
-x,-y,-z
y,-x+y,-z
x-y,x,-z
-x+y,y,z
x,x-y,z
-y,-x,z
2/3+x,1/3+y,1/3+z
2/3-y,1/3+x-y,1/3+z
2/3-x+y,1/3-x,1/3+z
2/3+x-y,1/3-y,1/3-z
2/3-x,1/3-x+y,1/3-z
2/3+y,1/3+x,1/3-z
2/3-x,1/3-y,1/3-z
2/3+y,1/3-x+y,1/3-z
2/3+x-y,1/3+x,1/3-z
2/3-x+y,1/3+y,1/3+z
2/3+x,1/3+x-y,1/3+z
2/3-y,1/3-x,1/3+z
1/3+x,2/3+y,2/3+z
1/3-y,2/3+x-y,2/3+z
1/3-x+y,2/3-x,2/3+z
1/3+x-y,2/3-y,2/3-z
1/3-x,2/3-x+y,2/3-z
1/3+y,2/3+x,2/3-z
1/3-x,2/3-y,2/3-z
1/3+y,2/3-x+y,2/3-z
1/3+x-y,2/3+x,2/3-z
1/3-x+y,2/3+y,2/3+z
1/3+x,2/3+x-y,2/3+z
1/3-y,2/3-x,2/3+z
loop_
_atom_site_type_symbol
_atom_site_label
_atom_site_fract_x
_atom_site_fract_y
_atom_site_fract_z
Si Si1 0.524332 0.913968 0.386866
Si Si2 0.622720 0.877485 0.785350
Si Si3 0.683913 0.627182 0.961216
Si Si4 0.920574 0.705788 0.765120
Si Si5 0.874307 0.614721 0.451750
O O1 0.441849 0.883697 0.393104
O O2 0.543554 0.908329 0.328232
O O3 0.552305 0.874052 0.422065
O O4 0.565029 0.994662 0.402898
O O5 0.594945 0.797473 0.796914
O O6 0.666667 0.923702 0.833334
O O7 0.556003 0.885384 0.777335
O O8 0.610551 0.588723 0.932694
O O9 0.744441 0.658893 0.920318
O O10 0.683122 0.683122 0.000000
O O11 0.854961 0.709921 0.745839
O O12 0.914890 0.688266 0.824760
O O13 0.794251 0.588502 0.439745
#
# Coordination Sequence:
#
# PCOD8323994 Si02
#       5
#    36  36  36  36  36
#     4  10  19  30  48  69  92 121 158 198 235 280
#     4  10  17  29  48  68  92 124 162 197 233 280
#     4  10  18  30  46  66  98 122 157 191 239 287
#     4  10  20  31  48  69  96 128 159 196 235 287
#     4  11  19  30  46  70  98 125 159 197 239 281
#
# _framework density 15.739357999999999
#
# number of rings (size 3 to 8) (size 9 to 14) (size 15 to 20)
#    0.000    1.800    6.000    1.200    0.000    3.600 
#    0.000    0.000    0.000    0.800    0.000    0.000 
#    0.000    0.800    0.000    0.000    0.000   57.000 
#
# Total GULP energy -743492.687748 kJ/mol
# GULP energy per Si atom -12391.544796 kJ/mol
# Density = 1.570353 g / cm^3
# Si number density = 15.739358 Si / 1000 Ang^3
#
#
#
# Elastic Constant Matrix: (Units=GPa)
#
#
# Indices 1 2 3 4 5 6 
#
# 1 85.4005 37.6261 21.3061 1.3954 0.0001 0.0000
# 2 37.6261 85.4005 21.3061 -1.3954 -0.0001 0.0000
# 3 21.3061 21.3061 76.2947 0.0000 0.0000 0.0000
# 4 1.3954 -1.3954 0.0000 16.9130 0.0000 -0.0001
# 5 0.0001 -0.0001 0.0000 0.0000 16.9130 1.3954
# 6 0.0000 0.0000 0.0000 -0.0001 1.3954 23.8872
#
#
#
# Elastic Compliance Matrix: (Units=1/GPa)
#
#
# Indices 1 2 3 4 5 6 
#
# 1 0.015016 -0.006017 -0.002513 -0.001735 0.000000 0.000000
# 2 -0.006017 0.015016 -0.002513 0.001735 0.000000 0.000000
# 3 -0.002513 -0.002513 0.014511 0.000000 0.000000 0.000000
# 4 -0.001735 0.001735 0.000000 0.059413 0.000000 0.000000
# 5 0.000000 0.000000 0.000000 0.000000 0.059413 -0.003471
# 6 0.000000 0.000000 0.000000 0.000000 -0.003471 0.042066
#
#
# Mechanical properties :
#
#
# Convention : Reuss Voigt Hill
#
# Bulk Modulus (GPa) = 44.53124 45.28579 44.90852
# Shear Modulus (GPa) = 21.27611 22.66647 21.97129
#
# Velocity S-wave (km/s) = 3.68064 3.79900 3.74029
# Velocity P-wave (km/s) = 6.81301 6.93383 6.87369
#
# Compressibility (1/GPa) = 0.02245615
#
# Stress axis : x y z
#
# Youngs Moduli (GPa) = 66.59610 66.59610 68.91504
#
# Poissons Ratio (x) = 0.40072 0.17318
# Poissons Ratio (y) = 0.40072 0.17318
# Poissons Ratio (z) = 0.16736 0.16736
#
# Static dielectric constant tensor:
#      x y z
#    x 2.922380 0.000000 0.000000 
#    y 0.000000 2.922380 0.000000 
#    z 0.000000 0.000000 3.276490 
# 
# 
# High freq. dielectric constant tensor:
#      x y z
#    x 1.575900 0.000000 0.000000 
#    y 0.000000 1.575900 0.000000 
#    z 0.000000 0.000000 1.624130 
# 
# From -- ./inp_files/10688.got.cif
#   From: 2010.03.12/outbox.cif.g09.slc.cpg/sg166_6_cif.got.tgz:10688.got - 2010.04.02 06:38:31.
