data_PCOD8323808
_publ_section_title
;
Structure prediction by ZEFSAII (Michael W. Deem and Ramdas Pophale) SiO2 
 PCOD8323808
Probable space group: P -3 M 1
;
_chemical_formula_sum "Si O2"
_cell_formula_units_Z 60
_cell_length_a 19.441679
_cell_length_b 19.441679
_cell_length_c 9.264545
_cell_angle_alpha 90.000000
_cell_angle_beta 90.000000
_cell_angle_gamma 120.000000
_cell_volume 3032.649807
_symmetry_space_group_name_H-M "P -3 M 1"
_symmetry_group_IT_number 164
_symmetry_cell_setting 'hexagonal'
loop_
_space_group_symop_operation_xyz
x,y,z
-y,x-y,z
-x+y,-x,z
x-y,-y,-z
-x,-x+y,-z
y,x,-z
-x,-y,-z
y,-x+y,-z
x-y,x,-z
-x+y,y,z
x,x-y,z
-y,-x,z
loop_
_atom_site_type_symbol
_atom_site_label
_atom_site_fract_x
_atom_site_fract_y
_atom_site_fract_z
Si Si1 0.297813 0.434957 0.799803
Si Si2 0.913927 0.456964 0.694310
Si Si3 0.450701 0.901401 0.643343
Si Si4 0.859527 0.297581 0.870850
Si Si5 0.217496 0.942112 0.629236
Si Si6 0.051799 0.257722 0.136669
O O1 0.223072 0.446144 0.803237
O O2 0.363233 0.506314 0.707335
O O3 0.276372 0.353610 0.719157
O O4 0.325693 0.436570 0.964613
O O5 0.888748 0.444374 0.527765
O O6 0.879044 0.372544 0.772355
O O7 0.008666 0.504333 0.700356
O O8 0.764753 0.235248 0.865228
O O9 0.905693 0.254473 0.808355
O O10 0.136500 0.863501 0.578645
O O11 0.267705 0.000000 0.500000
O O12 0.198485 0.995616 0.737650
O O13 0.116552 0.233104 0.093930
O O14 0.000000 0.250209 0.000000
#
# Coordination Sequence:
#
# PCOD8323808 Si02
#       6
#    12   6   6  12  12  12
#     4  10  22  41  64  91 122 161 208 254 307 365
#     4  11  25  39  61  95 128 165 204 255 310 369
#     4  11  25  39  59  95 131 164 205 252 311 370
#     4  10  22  41  64  92 121 160 209 255 308 362
#     4  11  23  39  61  90 122 161 203 251 304 364
#     4  11  21  37  63  92 122 156 200 254 302 360
#
# _framework density 19.784679000000001
#
# number of rings (size 3 to 8) (size 9 to 14) (size 15 to 20)
#    0.000    1.400    2.000    3.000    5.600    1.600 
#    1.200    0.000    0.000    8.000    0.000    0.000 
#    0.000    0.000    0.000    0.000    0.000    0.000 
#
# Total GULP energy -743892.387639 kJ/mol
# GULP energy per Si atom -12398.206461 kJ/mol
# Density = 1.973965 g / cm^3
# Si number density = 19.784679 Si / 1000 Ang^3
#
#
#
# Elastic Constant Matrix: (Units=GPa)
#
#
# Indices 1 2 3 4 5 6 
#
# 1 67.9710 45.8998 49.8099 8.5304 0.0000 0.0000
# 2 45.8998 67.9710 49.8099 -8.5304 0.0000 0.0000
# 3 49.8099 49.8099 135.7114 0.0000 0.0000 0.0000
# 4 8.5304 -8.5304 0.0000 33.4588 0.0000 0.0000
# 5 0.0000 0.0000 0.0000 0.0000 33.4588 8.5304
# 6 0.0000 0.0000 0.0000 0.0000 8.5304 11.0356
#
#
#
# Elastic Compliance Matrix: (Units=1/GPa)
#
#
# Indices 1 2 3 4 5 6 
#
# 1 0.034682 -0.021747 -0.004748 -0.014387 0.000000 0.000000
# 2 -0.021747 0.034682 -0.004748 0.014387 0.000000 0.000000
# 3 -0.004748 -0.004748 0.010854 0.000000 0.000000 0.000000
# 4 -0.014387 0.014387 0.000000 0.037223 0.000000 0.000000
# 5 0.000000 0.000000 0.000000 0.000000 0.037223 -0.028773
# 6 0.000000 0.000000 0.000000 0.000000 -0.028773 0.112858
#
#
# Mechanical properties :
#
#
# Convention : Reuss Voigt Hill
#
# Bulk Modulus (GPa) = 56.38962 62.52141 59.45552
# Shear Modulus (GPa) = 14.88460 23.99955 19.44208
#
# Velocity S-wave (km/s) = 2.74584 3.48665 3.13818
# Velocity P-wave (km/s) = 6.21421 6.91943 6.57628
#
# Compressibility (1/GPa) = 0.01773376
#
# Stress axis : x y z
#
# Youngs Moduli (GPa) = 28.83330 28.83330 92.13525
#
# Poissons Ratio (x) = 0.62703 0.43742
# Poissons Ratio (y) = 0.62703 0.43742
# Poissons Ratio (z) = 0.13689 0.13689
#
# Static dielectric constant tensor:
#      x y z
#    x 3.639820 0.000000 0.000000 
#    y 0.000000 3.639820 0.000000 
#    z 0.000000 0.000000 3.874750 
# 
# 
# High freq. dielectric constant tensor:
#      x y z
#    x 1.765900 0.000000 0.000000 
#    y 0.000000 1.765900 0.000000 
#    z 0.000000 0.000000 1.784790 
# 
# From -- ./inp_files/1646.got.cif
#   From: 2010.03.12/outbox.cif.g09.slc.cpg/sg164_1_cif.got.tgz:1646.got - 2010.04.02 06:32:59.
