data_PCOD8323432
_publ_section_title
;
Structure prediction by ZEFSAII (Michael W. Deem and Ramdas Pophale) SiO2 
 PCOD8323432
Probable space group: P -3 M 1
;
_chemical_formula_sum "Si O2"
_cell_formula_units_Z 84
_cell_length_a 17.337903
_cell_length_b 17.337903
_cell_length_c 20.390404
_cell_angle_alpha 90.000000
_cell_angle_beta 90.000000
_cell_angle_gamma 120.000000
_cell_volume 5308.228386
_symmetry_space_group_name_H-M "P -3 M 1"
_symmetry_group_IT_number 164
_symmetry_cell_setting 'hexagonal'
loop_
_space_group_symop_operation_xyz
x,y,z
-y,x-y,z
-x+y,-x,z
x-y,-y,-z
-x,-x+y,-z
y,x,-z
-x,-y,-z
y,-x+y,-z
x-y,x,-z
-x+y,y,z
x,x-y,z
-y,-x,z
loop_
_atom_site_type_symbol
_atom_site_label
_atom_site_fract_x
_atom_site_fract_y
_atom_site_fract_z
Si Si1 0.692711 0.758537 0.188726
Si Si2 0.698841 0.938376 0.691755
Si Si3 0.532367 0.895581 0.999840
Si Si4 0.666962 0.513164 0.252455
Si Si5 0.000190 0.177925 0.574393
Si Si6 0.836463 0.505280 0.857242
Si Si7 0.896803 0.623465 0.127847
O O1 0.723613 0.861807 0.172599
O O2 0.735288 0.752708 0.256707
O O3 0.585284 0.700803 0.194583
O O4 0.719938 0.713203 0.130083
O O5 0.717287 0.858644 0.709895
O O6 0.592304 0.900984 0.694523
O O7 0.737294 0.977485 0.619996
O O8 0.426209 0.852417 0.986570
O O9 0.546617 0.862385 0.069699
O O10 0.578193 0.869134 0.943043
O O11 0.575414 0.000000 0.000000
O O12 0.741932 0.483864 0.252424
O O13 0.572017 0.427984 0.270131
O O14 0.660759 0.551582 0.181301
O O15 0.074039 0.148078 0.582457
O O16 0.000000 0.208839 0.500000
O O17 0.905459 0.094541 0.594508
O O18 0.729969 0.459938 0.849683
O O19 0.867273 0.433637 0.843602
O O20 0.826809 0.653617 0.148869
#
# Coordination Sequence:
#
# PCOD8323432 Si02
#       7
#    12  12  12  12  12  12  12
#     4  10  19  30  44  61  84 114 146 177 211 253
#     4   9  18  31  46  67  93 120 148 180 216 256
#     4  10  18  29  45  65  86 107 137 176 221 276
#     4   9  17  28  44  65  89 116 146 181 222 267
#     4   9  16  27  46  72 100 126 150 178 216 262
#     4  10  20  32  46  64  86 112 142 180 224 270
#     4  10  19  31  46  64  85 109 141 184 229 272
#
# _framework density 15.824489
#
# number of rings (size 3 to 8) (size 9 to 14) (size 15 to 20)
#    0.000    2.429    1.429    3.000    0.000    2.857 
#    0.000    0.000    0.000    8.143    0.000    0.000 
#    0.000    0.571    0.000    0.571    0.000    0.000 
#
# Total GULP energy -1041033.353354 kJ/mol
# GULP energy per Si atom -12393.254207 kJ/mol
# Density = 1.578847 g / cm^3
# Si number density = 15.824489 Si / 1000 Ang^3
#
#
#
# Elastic Constant Matrix: (Units=GPa)
#
#
# Indices 1 2 3 4 5 6 
#
# 1 89.3869 42.6696 33.8498 -3.6267 0.0000 0.0000
# 2 42.6696 89.3869 33.8498 3.6267 0.0000 0.0000
# 3 33.8498 33.8498 74.3593 0.0000 0.0000 0.0000
# 4 -3.6267 3.6267 0.0000 22.1741 0.0000 0.0000
# 5 0.0000 0.0000 0.0000 0.0000 22.1741 -3.6267
# 6 0.0000 0.0000 0.0000 0.0000 -3.6267 23.3587
#
#
#
# Elastic Compliance Matrix: (Units=1/GPa)
#
#
# Indices 1 2 3 4 5 6 
#
# 1 0.015920 -0.006043 -0.004497 0.003592 0.000000 0.000000
# 2 -0.006043 0.015920 -0.004497 -0.003592 0.000000 0.000000
# 3 -0.004497 -0.004497 0.017542 0.000000 0.000000 0.000000
# 4 0.003592 -0.003592 0.000000 0.046273 0.000000 0.000000
# 5 0.000000 0.000000 0.000000 0.000000 0.046273 0.007184
# 6 0.000000 0.000000 0.000000 0.000000 0.007184 0.043926
#
#
# Mechanical properties :
#
#
# Convention : Reuss Voigt Hill
#
# Bulk Modulus (GPa) = 51.78309 52.65241 52.21775
# Shear Modulus (GPa) = 22.48577 23.05896 22.77237
#
# Velocity S-wave (km/s) = 3.77364 3.82143 3.79761
# Velocity P-wave (km/s) = 7.19594 7.26747 7.23179
#
# Compressibility (1/GPa) = 0.01931132
#
# Stress axis : x y z
#
# Youngs Moduli (GPa) = 62.81262 62.81262 57.00592
#
# Poissons Ratio (x) = 0.37956 0.25633
# Poissons Ratio (y) = 0.37956 0.25633
# Poissons Ratio (z) = 0.28244 0.28244
#
# Static dielectric constant tensor:
#      x y z
#    x 3.083870 0.000000 0.000000 
#    y 0.000000 3.083870 0.000000 
#    z 0.000000 0.000000 2.906630 
# 
# 
# High freq. dielectric constant tensor:
#      x y z
#    x 1.605820 0.000000 0.000000 
#    y 0.000000 1.605820 0.000000 
#    z 0.000000 0.000000 1.578130 
# 
# From -- ./inp_files/4641.got.cif
#   From: 2010.03.12/outbox.cif.g09.slc.cpg/sg164_3_cif.got.tgz:4641.got - 2010.04.02 06:32:59.
