data_PCOD8323467
_publ_section_title
;
Structure prediction by ZEFSAII (Michael W. Deem and Ramdas Pophale) SiO2 
 PCOD8323467
Probable space group: P -3 M 1
;
_chemical_formula_sum "Si O2"
_cell_formula_units_Z 90
_cell_length_a 26.504241
_cell_length_b 26.504241
_cell_length_c 9.093036
_cell_angle_alpha 90.000000
_cell_angle_beta 90.000000
_cell_angle_gamma 120.000000
_cell_volume 5531.848606
_symmetry_space_group_name_H-M "P -3 M 1"
_symmetry_group_IT_number 164
_symmetry_cell_setting 'hexagonal'
loop_
_space_group_symop_operation_xyz
x,y,z
-y,x-y,z
-x+y,-x,z
x-y,-y,-z
-x,-x+y,-z
y,x,-z
-x,-y,-z
y,-x+y,-z
x-y,x,-z
-x+y,y,z
x,x-y,z
-y,-x,z
loop_
_atom_site_type_symbol
_atom_site_label
_atom_site_fract_x
_atom_site_fract_y
_atom_site_fract_z
Si Si1 0.778262 0.107480 0.833973
Si Si2 0.556429 0.222959 0.761057
Si Si3 0.974311 0.350202 0.281082
Si Si4 0.882768 0.382649 0.214387
Si Si5 0.306624 0.806921 0.532873
Si Si6 0.295924 0.382243 0.433321
Si Si7 0.544887 0.715619 0.029140
Si Si8 0.299044 0.000000 0.000000
O O1 0.847197 0.152803 0.846379
O O2 0.760703 0.096551 0.660674
O O3 0.740265 0.130147 0.917832
O O4 0.761272 0.047779 0.921354
O O5 0.602730 0.205459 0.819262
O O6 0.578859 0.289430 0.808655
O O7 0.551244 0.217848 0.585432
O O8 0.493736 0.180739 0.827843
O O9 0.944430 0.390466 0.268361
O O10 0.940179 0.298976 0.403598
O O11 0.040321 0.392454 0.336936
O O12 0.971690 0.320234 0.125736
O O13 0.890507 0.445254 0.168709
O O14 0.834748 0.354638 0.341080
O O15 0.861114 0.336125 0.084906
O O16 0.245500 0.754501 0.595249
O O17 0.293870 0.853124 0.451914
O O18 0.536914 0.768457 0.964848
#
# Coordination Sequence:
#
# PCOD8323467 Si02
#       8
#    12  12  12  12  12  12  12   6
#     4  10  18  31  53  76  98 131 163 198 242 285
#     4  10  19  31  45  62  82 108 143 192 249 305
#     4   9  19  32  49  69  94 129 153 193 251 287
#     4  11  21  34  47  66  92 120 153 193 245 307
#     4  10  19  32  50  68  85 110 147 196 243 292
#     4   9  17  32  50  68  94 120 155 195 240 292
#     4  10  19  32  48  67  88 114 156 197 238 293
#     4  10  18  34  53  72 112 128 161 208 238 280
#
# _framework density 16.269427
#
# number of rings (size 3 to 8) (size 9 to 14) (size 15 to 20)
#    0.000    2.133    2.667    1.733    0.000    0.000 
#    0.000    7.000    0.000    3.733    0.000    0.000 
#    0.000    0.000    0.000    0.200    0.000    0.000 
#
# Total GULP energy -1115260.406633 kJ/mol
# GULP energy per Si atom -12391.782296 kJ/mol
# Density = 1.623240 g / cm^3
# Si number density = 16.269427 Si / 1000 Ang^3
#
#
#
# Elastic Constant Matrix: (Units=GPa)
#
#
# Indices 1 2 3 4 5 6 
#
# 1 59.9221 31.8723 16.4269 2.3869 0.0000 0.0000
# 2 31.8723 59.9221 16.4269 -2.3869 0.0000 0.0000
# 3 16.4269 16.4269 76.8022 0.0000 0.0000 0.0000
# 4 2.3869 -2.3869 0.0000 17.9695 0.0000 0.0000
# 5 0.0000 0.0000 0.0000 0.0000 17.9695 2.3869
# 6 0.0000 0.0000 0.0000 0.0000 2.3869 14.0249
#
#
#
# Elastic Compliance Matrix: (Units=1/GPa)
#
#
# Indices 1 2 3 4 5 6 
#
# 1 0.024136 -0.012339 -0.002523 -0.004845 0.000000 0.000000
# 2 -0.012339 0.024136 -0.002523 0.004845 0.000000 0.000000
# 3 -0.002523 -0.002523 0.014100 0.000000 0.000000 0.000000
# 4 -0.004845 0.004845 0.000000 0.056937 0.000000 0.000000
# 5 0.000000 0.000000 0.000000 0.000000 0.056937 -0.009690
# 6 0.000000 0.000000 0.000000 0.000000 -0.009690 0.072951
#
#
# Mechanical properties :
#
#
# Convention : Reuss Voigt Hill
#
# Bulk Modulus (GPa) = 36.23064 36.23319 36.23192
# Shear Modulus (GPa) = 17.05500 18.78744 17.92122
#
# Velocity S-wave (km/s) = 3.24124 3.40188 3.32253
# Velocity P-wave (km/s) = 6.02702 6.14406 6.08582
#
# Compressibility (1/GPa) = 0.02760094
#
# Stress axis : x y z
#
# Youngs Moduli (GPa) = 41.43144 41.43144 70.92286
#
# Poissons Ratio (x) = 0.51123 0.17895
# Poissons Ratio (y) = 0.51123 0.17895
# Poissons Ratio (z) = 0.10454 0.10454
#
# Static dielectric constant tensor:
#      x y z
#    x 2.975060 0.000000 0.000000 
#    y 0.000000 2.975060 0.000000 
#    z 0.000000 0.000000 3.267720 
# 
# 
# High freq. dielectric constant tensor:
#      x y z
#    x 1.600140 0.000000 0.000000 
#    y 0.000000 1.600140 0.000000 
#    z 0.000000 0.000000 1.640140 
# 
# From -- ./inp_files/2151.got.cif
#   From: 2010.03.12/outbox.cif.g09.slc.cpg/sg164_2_cif.got.tgz:2151.got - 2010.04.02 06:32:59.
