data_PCOD8323387
_publ_section_title
;
Structure prediction by ZEFSAII (Michael W. Deem and Ramdas Pophale) SiO2 
 PCOD8323387
Probable space group: P -3 M 1
;
_chemical_formula_sum "Si O2"
_cell_formula_units_Z 72
_cell_length_a 18.250225
_cell_length_b 18.250225
_cell_length_c 15.436855
_cell_angle_alpha 90.000000
_cell_angle_beta 90.000000
_cell_angle_gamma 120.000000
_cell_volume 4452.725294
_symmetry_space_group_name_H-M "P -3 M 1"
_symmetry_group_IT_number 164
_symmetry_cell_setting 'hexagonal'
loop_
_space_group_symop_operation_xyz
x,y,z
-y,x-y,z
-x+y,-x,z
x-y,-y,-z
-x,-x+y,-z
y,x,-z
-x,-y,-z
y,-x+y,-z
x-y,x,-z
-x+y,y,z
x,x-y,z
-y,-x,z
loop_
_atom_site_type_symbol
_atom_site_label
_atom_site_fract_x
_atom_site_fract_y
_atom_site_fract_z
Si Si1 0.999868 0.831823 0.901952
Si Si2 0.766647 0.066123 0.244161
Si Si3 0.334370 0.830370 0.570627
Si Si4 0.961159 0.759574 0.591132
Si Si5 0.429036 0.022705 0.300024
Si Si6 0.702765 0.136265 0.611779
O O1 0.016589 0.773350 0.837895
O O2 0.910675 0.821349 0.876081
O O3 0.070096 0.929905 0.891376
O O4 0.000000 0.801393 0.000000
O O5 0.834637 0.165364 0.238941
O O6 0.672239 0.052796 0.234567
O O7 0.782848 0.029840 0.333118
O O8 0.398872 0.797743 0.596259
O O9 0.239841 0.760160 0.601231
O O10 0.364493 0.921045 0.614107
O O11 0.339249 0.842065 0.467601
O O12 0.893892 0.787784 0.621370
O O13 0.914043 0.660119 0.572537
O O14 0.000000 0.805079 0.500000
O O15 0.518429 0.036858 0.262320
O O16 0.369722 0.922746 0.320197
O O17 0.775699 0.224302 0.655855
#
# Coordination Sequence:
#
# PCOD8323387 Si02
#       6
#    12  12  12  12  12  12
#     4   9  17  30  50  76 103 127 150 179 217 259
#     4  10  19  31  47  66  90 120 154 190 226 265
#     4  10  18  27  39  56  80 110 147 190 232 269
#     4  10  18  27  40  59  86 122 162 195 220 253
#     4  10  19  30  44  61  83 112 146 183 224 271
#     4   9  17  27  40  58  78 105 145 192 236 274
#
# _framework density 16.169872999999999
#
# number of rings (size 3 to 8) (size 9 to 14) (size 15 to 20)
#    0.000    2.333    0.000    4.833    0.000    4.000 
#    0.000    0.000    0.000    5.167    0.000    0.000 
#    0.000    0.000    0.000    0.333    0.000    0.000 
#
# Total GULP energy -892428.579018 kJ/mol
# GULP energy per Si atom -12394.841375 kJ/mol
# Density = 1.613307 g / cm^3
# Si number density = 16.169873 Si / 1000 Ang^3
#
#
#
# Elastic Constant Matrix: (Units=GPa)
#
#
# Indices 1 2 3 4 5 6 
#
# 1 94.1387 50.3663 34.1301 -1.5664 0.0000 0.0000
# 2 50.3663 94.1387 34.1301 1.5664 0.0000 0.0000
# 3 34.1301 34.1301 65.0309 0.0000 0.0000 0.0000
# 4 -1.5664 1.5664 0.0000 17.4053 0.0000 0.0000
# 5 0.0000 0.0000 0.0000 0.0000 17.4053 -1.5664
# 6 0.0000 0.0000 0.0000 0.0000 -1.5664 21.8862
#
#
#
# Elastic Compliance Matrix: (Units=1/GPa)
#
#
# Indices 1 2 3 4 5 6 
#
# 1 0.016097 -0.006896 -0.004829 0.002069 0.000000 0.000000
# 2 -0.006896 0.016097 -0.004829 -0.002069 0.000000 0.000000
# 3 -0.004829 -0.004829 0.020446 0.000000 0.000000 0.000000
# 4 0.002069 -0.002069 0.000000 0.057826 0.000000 0.000000
# 5 0.000000 0.000000 0.000000 0.000000 0.057826 0.004139
# 6 0.000000 0.000000 0.000000 0.000000 0.004139 0.045987
#
#
# Mechanical properties :
#
#
# Convention : Reuss Voigt Hill
#
# Bulk Modulus (GPa) = 51.19699 54.50679 52.85189
# Shear Modulus (GPa) = 19.69280 20.31816 20.00548
#
# Velocity S-wave (km/s) = 3.49358 3.54862 3.52121
# Velocity P-wave (km/s) = 6.92851 7.11142 7.02056
#
# Compressibility (1/GPa) = 0.01953240
#
# Stress axis : x y z
#
# Youngs Moduli (GPa) = 62.12169 62.12169 48.90876
#
# Poissons Ratio (x) = 0.42840 0.23619
# Poissons Ratio (y) = 0.42840 0.23619
# Poissons Ratio (z) = 0.29999 0.29999
#
# Static dielectric constant tensor:
#      x y z
#    x 3.165090 0.000000 0.000000 
#    y 0.000000 3.165090 0.000000 
#    z 0.000000 0.000000 2.726370 
# 
# 
# High freq. dielectric constant tensor:
#      x y z
#    x 1.625530 0.000000 0.000000 
#    y 0.000000 1.625530 0.000000 
#    z 0.000000 0.000000 1.566990 
# 
# From -- ./inp_files/4065.got.cif
#   From: 2010.03.12/outbox.cif.g09.slc.cpg/sg164_3_cif.got.tgz:4065.got - 2010.04.02 06:32:59.
