data_PCOD8323867
_publ_section_title
;
Structure prediction by ZEFSAII (Michael W. Deem and Ramdas Pophale) SiO2 
 PCOD8323867
Probable space group: P -3 C 1
;
_chemical_formula_sum "Si O2"
_cell_formula_units_Z 96
_cell_length_a 17.472578
_cell_length_b 17.472578
_cell_length_c 21.635964
_cell_angle_alpha 90.000000
_cell_angle_beta 90.000000
_cell_angle_gamma 120.000000
_cell_volume 5720.327025
_symmetry_space_group_name_H-M "P -3 C 1"
_symmetry_group_IT_number 165
_symmetry_cell_setting 'hexagonal'
loop_
_space_group_symop_operation_xyz
x,y,z
-y,x-y,z
-x+y,-x,z
x-y,-y,1/2-z
-x,-x+y,1/2-z
y,x,1/2-z
-x,-y,-z
y,-x+y,-z
x-y,x,-z
-x+y,y,1/2+z
x,x-y,1/2+z
-y,-x,1/2+z
loop_
_atom_site_type_symbol
_atom_site_label
_atom_site_fract_x
_atom_site_fract_y
_atom_site_fract_z
Si Si1 0.315752 0.824413 0.129089
Si Si2 0.093277 0.621729 0.761193
Si Si3 0.496637 0.156514 0.589219
Si Si4 0.733990 0.632082 0.478094
Si Si5 0.096486 0.728925 0.996959
Si Si6 0.169602 0.677617 0.887319
Si Si7 0.572943 0.975997 0.311743
Si Si8 0.642756 0.145608 0.395182
O O1 0.344515 0.850097 0.199358
O O2 0.296949 0.894068 0.091883
O O3 0.393882 0.819485 0.092328
O O4 0.226823 0.730968 0.131900
O O5 0.147292 0.687137 0.816670
O O6 0.072720 0.525064 0.782295
O O7 0.000000 0.618517 0.750000
O O8 0.452889 0.134087 0.522117
O O9 0.533229 0.258838 0.604749
O O10 0.578488 0.139283 0.591026
O O11 0.423060 0.092690 0.640250
O O12 0.839431 0.670729 0.484293
O O13 0.712537 0.708279 0.497223
O O14 0.110372 0.663431 0.041986
O O15 0.117520 0.713061 0.927909
O O16 0.636103 0.000000 0.250000
O O17 0.596785 0.065802 0.346866
#
# Coordination Sequence:
#
# PCOD8323867 Si02
#       8
#    12  12  12  12  12  12  12  12
#     4  11  22  32  51  75 104 139 175 220 255 310
#     4  10  19  33  47  68  94 134 177 206 259 305
#     4  10  20  34  50  73 100 133 174 212 259 301
#     4  10  21  36  55  77 100 133 172 214 261 313
#     4  10  21  36  55  77  99 133 172 214 262 312
#     4  10  21  31  50  73 100 134 169 216 253 305
#     4  10  19  33  51  66  96 139 171 211 256 313
#     4  11  21  35  51  74 104 137 179 217 261 302
#
# _framework density 16.782257999999999
#
# number of rings (size 3 to 8) (size 9 to 14) (size 15 to 20)
#    0.000    1.750    3.750    2.000    3.500    1.000 
#    0.000    2.500    0.000    0.250    0.000    0.000 
#    0.000    0.000    0.000    0.000    0.000   17.750 
#
# Total GULP energy -1189734.566342 kJ/mol
# GULP energy per Si atom -12393.068399 kJ/mol
# Density = 1.674406 g / cm^3
# Si number density = 16.782258 Si / 1000 Ang^3
#
#
#
# Elastic Constant Matrix: (Units=GPa)
#
#
# Indices 1 2 3 4 5 6 
#
# 1 71.6364 39.9431 29.7521 0.3572 0.0000 0.0000
# 2 39.9431 71.6364 29.7521 -0.3572 0.0000 0.0000
# 3 29.7521 29.7521 101.1263 0.0000 0.0000 0.0000
# 4 0.3572 -0.3572 0.0000 21.6471 0.0000 0.0000
# 5 0.0000 0.0000 0.0000 0.0000 21.6471 0.3572
# 6 0.0000 0.0000 0.0000 0.0000 0.3572 15.8466
#
#
#
# Elastic Compliance Matrix: (Units=1/GPa)
#
#
# Indices 1 2 3 4 5 6 
#
# 1 0.021097 -0.010467 -0.003127 -0.000521 0.000000 0.000000
# 2 -0.010467 0.021097 -0.003127 0.000521 0.000000 0.000000
# 3 -0.003127 -0.003127 0.011729 0.000000 0.000000 0.000000
# 4 -0.000521 0.000521 0.000000 0.046213 0.000000 0.000000
# 5 0.000000 0.000000 0.000000 0.000000 0.046213 -0.001042
# 6 0.000000 0.000000 0.000000 0.000000 -0.001042 0.063128
#
#
# Mechanical properties :
#
#
# Convention : Reuss Voigt Hill
#
# Bulk Modulus (GPa) = 48.83005 49.25487 49.04246
# Shear Modulus (GPa) = 20.02025 21.49163 20.75594
#
# Velocity S-wave (km/s) = 3.45765 3.58245 3.52060
# Velocity P-wave (km/s) = 6.71564 6.82093 6.76849
#
# Compressibility (1/GPa) = 0.02047919
#
# Stress axis : x y z
#
# Youngs Moduli (GPa) = 47.39988 47.39988 85.25978
#
# Poissons Ratio (x) = 0.49614 0.26664
# Poissons Ratio (y) = 0.49614 0.26664
# Poissons Ratio (z) = 0.14824 0.14824
#
# Static dielectric constant tensor:
#      x y z
#    x 3.094470 0.000000 0.000000 
#    y 0.000000 3.094470 0.000000 
#    z 0.000000 0.000000 3.581520 
# 
# 
# High freq. dielectric constant tensor:
#      x y z
#    x 1.620230 0.000000 0.000000 
#    y 0.000000 1.620230 0.000000 
#    z 0.000000 0.000000 1.670100 
# 
# From -- ./inp_files/2745.got.cif
#   From: 2010.03.12/outbox.cif.g09.slc.cpg/sg165_2_cif.got.tgz:2745.got - 2010.04.02 06:36:38.
