data_PCOD8323314
_publ_section_title
;
Structure prediction by ZEFSAII (Michael W. Deem and Ramdas Pophale) SiO2 
 PCOD8323314
Probable space group: P -3 1 C
;
_chemical_formula_sum "Si O2"
_cell_formula_units_Z 60
_cell_length_a 15.360804
_cell_length_b 15.360804
_cell_length_c 13.589590
_cell_angle_alpha 90.000000
_cell_angle_beta 90.000000
_cell_angle_gamma 120.000000
_cell_volume 2776.929674
_symmetry_space_group_name_H-M "P -3 1 C"
_symmetry_group_IT_number 163
_symmetry_cell_setting 'hexagonal'
loop_
_space_group_symop_operation_xyz
x,y,z
-y,x-y,z
-x+y,-x,z
-y,-x,1/2-z
-x+y,y,1/2-z
x,x-y,1/2-z
-x,-y,-z
y,-x+y,-z
x-y,x,-z
y,x,1/2+z
x-y,-y,1/2+z
-x,-x+y,1/2+z
loop_
_atom_site_type_symbol
_atom_site_label
_atom_site_fract_x
_atom_site_fract_y
_atom_site_fract_z
Si Si1 0.473634 0.872799 0.860389
Si Si2 0.979795 0.320119 0.587541
Si Si3 0.837185 0.056058 0.532280
Si Si4 0.258382 0.033306 0.279584
Si Si5 0.270768 0.438979 0.581046
O O1 0.430705 0.861410 0.750000
O O2 0.564045 0.985584 0.886845
O O3 0.519575 0.801444 0.884889
O O4 0.381632 0.846898 0.931815
O O5 0.969270 0.263512 0.689460
O O6 0.072337 0.318858 0.526159
O O7 0.874380 0.257892 0.526055
O O8 0.812404 0.948175 0.492631
O O9 0.823289 0.051193 0.649076
O O10 0.220017 0.110009 0.250000
O O11 0.366581 0.096023 0.333004
#
# Coordination Sequence:
#
# PCOD8323314 Si02
#       5
#    12  12  12  12  12
#     4  12  21  39  66 100 137 176 229 292 349 412
#     4  11  22  40  62  93 135 181 223 284 345 422
#     4  11  23  39  63  91 129 170 227 286 344 408
#     4  11  19  41  62  89 129 177 226 275 343 419
#     4  11  23  37  66 101 138 173 230 289 348 409
#
# _framework density 21.606598000000002
#
# number of rings (size 3 to 8) (size 9 to 14) (size 15 to 20)
#    0.000    0.800    6.000    3.000    0.000    0.800 
#    0.000    0.000    0.000    0.000    0.000    0.000 
#    0.000    0.000    0.000    0.000    0.000    0.000 
#
# Total GULP energy -743434.025935 kJ/mol
# GULP energy per Si atom -12390.567099 kJ/mol
# Density = 2.155742 g / cm^3
# Si number density = 21.606598 Si / 1000 Ang^3
#
#
#
# Elastic Constant Matrix: (Units=GPa)
#
#
# Indices 1 2 3 4 5 6 
#
# 1 43.8811 38.4271 38.8214 0.0001 15.9882 0.0000
# 2 38.4271 43.8811 38.8214 -0.0001 -15.9882 0.0000
# 3 38.8214 38.8214 167.9131 0.0000 0.0000 0.0000
# 4 0.0001 -0.0001 0.0000 30.9657 0.0000 -15.9882
# 5 15.9882 -15.9882 0.0000 0.0000 30.9657 0.0001
# 6 0.0000 0.0000 0.0000 -15.9882 0.0001 2.7270
#
#
#
# Elastic Compliance Matrix: (Units=1/GPa)
#
#
# Indices 1 2 3 4 5 6 
#
# 1 -0.037455 0.052993 -0.003592 0.000000 0.046700 0.000000
# 2 0.052993 -0.037455 -0.003592 0.000000 -0.046700 0.000000
# 3 -0.003592 -0.003592 0.007617 0.000000 0.000000 0.000000
# 4 0.000000 0.000000 0.000000 -0.015931 0.000000 -0.093400
# 5 0.046700 -0.046700 0.000000 0.000000 -0.015931 0.000001
# 6 0.000000 0.000000 0.000000 -0.093400 0.000001 -0.180896
#
#
# Mechanical properties :
#
#
# Convention : Reuss Voigt Hill
#
# Bulk Modulus (GPa) = 41.11266 54.20165 47.65715
# Shear Modulus (GPa) = -13.75296 22.23871 4.24287
#
# Velocity S-wave (km/s) = -2.52567 3.21168 1.40284
# Velocity P-wave (km/s) = 3.25020 6.23645 4.97278
#
# Compressibility (1/GPa) = 0.02432341
#
# Stress axis : x y z
#
# Youngs Moduli (GPa) = -26.69889 -26.69889 131.29222
#
# Poissons Ratio (x) = 1.41485 0.47166
# Poissons Ratio (y) = 1.41485 0.47166
# Poissons Ratio (z) = -0.09591 -0.09591
#
# Static dielectric constant tensor:
#      x y z
#    x 4.233120 0.000000 0.000000 
#    y 0.000000 4.233120 0.000000 
#    z 0.000000 0.000000 4.139950 
# 
# 
# High freq. dielectric constant tensor:
#      x y z
#    x 1.847730 0.000000 0.000000 
#    y 0.000000 1.847730 0.000000 
#    z 0.000000 0.000000 1.855290 
# 
# From -- ./inp_files/1726.got.cif
#   From: 2010.03.12/outbox.cif.g09.slc.cpg/sg163_1_cif.got.tgz:1726.got - 2010.04.02 06:30:25.
