data_PCOD8323187
_publ_section_title
;
Structure prediction by ZEFSAII (Michael W. Deem and Ramdas Pophale) SiO2 
 PCOD8323187
Probable space group: P -3 1 C
;
_chemical_formula_sum "Si O2"
_cell_formula_units_Z 64
_cell_length_a 15.975948
_cell_length_b 15.975948
_cell_length_c 17.743662
_cell_angle_alpha 90.000000
_cell_angle_beta 90.000000
_cell_angle_gamma 120.000000
_cell_volume 3921.996161
_symmetry_space_group_name_H-M "P -3 1 C"
_symmetry_group_IT_number 163
_symmetry_cell_setting 'hexagonal'
loop_
_space_group_symop_operation_xyz
x,y,z
-y,x-y,z
-x+y,-x,z
-y,-x,1/2-z
-x+y,y,1/2-z
x,x-y,1/2-z
-x,-y,-z
y,-x+y,-z
x-y,x,-z
y,x,1/2+z
x-y,-y,1/2+z
-x,-x+y,1/2+z
loop_
_atom_site_type_symbol
_atom_site_label
_atom_site_fract_x
_atom_site_fract_y
_atom_site_fract_z
Si Si1 0.311160 0.839161 0.438682
Si Si2 0.749845 0.210124 0.391243
Si Si3 0.046626 0.475820 0.671690
Si Si4 0.584299 0.639172 0.926183
Si Si5 0.666667 0.333334 0.160466
Si Si6 0.515240 0.867217 0.411147
O O1 0.289457 0.829905 0.526705
O O2 0.401285 0.824169 0.421791
O O3 0.219442 0.755906 0.394059
O O4 0.331135 0.944672 0.410885
O O5 0.686290 0.124868 0.331577
O O6 0.867231 0.256956 0.388302
O O7 0.740900 0.303337 0.371964
O O8 0.055963 0.527982 0.750000
O O9 0.067688 0.551403 0.604641
O O10 0.939535 0.384192 0.660499
O O11 0.572058 0.645320 0.015180
O O12 0.666668 0.333334 0.250000
#
# Coordination Sequence:
#
# PCOD8323187 Si02
#       6
#    12  12  12  12   4  12
#     4  10  17  31  48  66  87 121 169 207 234 279
#     4  11  18  29  45  66  96 124 157 194 243 289
#     4  11  20  31  45  70 100 127 155 198 247 298
#     4  10  19  30  46  66  93 122 163 200 235 292
#     4  12  21  27  39  69  99 132 151 179 247 318
#     4  10  18  32  48  66  90 125 168 201 239 285
#
# _framework density 16.318221999999999
#
# number of rings (size 3 to 8) (size 9 to 14) (size 15 to 20)
#    0.000    1.500    5.625    3.188    0.000    0.000 
#    0.000    3.750    0.000    0.000    0.000    0.000 
#    1.875    3.375    0.000    0.000    5.250    3.000 
#
# Total GULP energy -793096.869876 kJ/mol
# GULP energy per Si atom -12392.138592 kJ/mol
# Density = 1.628108 g / cm^3
# Si number density = 16.318222 Si / 1000 Ang^3
#
#
#
# Elastic Constant Matrix: (Units=GPa)
#
#
# Indices 1 2 3 4 5 6 
#
# 1 120.4659 60.0852 27.6000 0.0000 -8.6422 0.0001
# 2 60.0852 120.4661 27.6001 -0.0001 8.6419 0.0000
# 3 27.6000 27.6001 42.0187 -0.0001 -0.0001 0.0001
# 4 0.0000 -0.0001 -0.0001 16.7319 0.0004 8.6420
# 5 -8.6422 8.6419 -0.0001 0.0004 16.7314 -0.0001
# 6 0.0001 0.0000 0.0001 8.6420 -0.0001 30.1903
#
#
#
# Elastic Compliance Matrix: (Units=1/GPa)
#
#
# Indices 1 2 3 4 5 6 
#
# 1 0.013183 -0.006252 -0.004552 0.000000 0.010039 0.000000
# 2 -0.006252 0.013183 -0.004552 0.000000 -0.010039 0.000000
# 3 -0.004552 -0.004552 0.029779 0.000000 0.000000 0.000000
# 4 0.000000 0.000000 0.000000 0.070136 -0.000002 -0.020076
# 5 0.010039 -0.010039 0.000000 -0.000002 0.070138 0.000001
# 6 0.000000 0.000000 0.000000 -0.020076 0.000001 0.038870
#
#
# Mechanical properties :
#
#
# Convention : Reuss Voigt Hill
#
# Bulk Modulus (GPa) = 39.32203 57.05792 48.18998
# Shear Modulus (GPa) = 18.21633 23.90842 21.06237
#
# Velocity S-wave (km/s) = 3.34476 3.83186 3.59657
# Velocity P-wave (km/s) = 6.25027 7.39048 6.84416
#
# Compressibility (1/GPa) = 0.02543104
#
# Stress axis : x y z
#
# Youngs Moduli (GPa) = 75.85672 75.85699 33.58052
#
# Poissons Ratio (x) = 0.47429 0.15286
# Poissons Ratio (y) = 0.47429 0.15287
# Poissons Ratio (z) = 0.34531 0.34532
#
# Static dielectric constant tensor:
#      x y z
#    x 3.157520 0.000000 0.000000 
#    y 0.000000 3.157520 0.000010 
#    z 0.000000 0.000010 2.971660 
# 
# 
# High freq. dielectric constant tensor:
#      x y z
#    x 1.608800 0.000000 0.000000 
#    y 0.000000 1.608800 0.000000 
#    z 0.000000 0.000000 1.612820 
# 
# From -- ./inp_files/3081.got.cif
#   From: 2010.03.12/outbox.cif.g09.slc.cpg/sg163_2_cif.got.tgz:3081.got - 2010.04.02 06:30:25.
