data_PCOD8323382
_publ_section_title
;
Structure prediction by ZEFSAII (Michael W. Deem and Ramdas Pophale) SiO2 
 PCOD8323382
Probable space group: P -3 M 1
;
_chemical_formula_sum "Si O2"
_cell_formula_units_Z 66
_cell_length_a 28.451600
_cell_length_b 28.451600
_cell_length_c 5.302935
_cell_angle_alpha 90.000000
_cell_angle_beta 90.000000
_cell_angle_gamma 120.000000
_cell_volume 3717.580010
_symmetry_space_group_name_H-M "P -3 M 1"
_symmetry_group_IT_number 164
_symmetry_cell_setting 'hexagonal'
loop_
_space_group_symop_operation_xyz
x,y,z
-y,x-y,z
-x+y,-x,z
x-y,-y,-z
-x,-x+y,-z
y,x,-z
-x,-y,-z
y,-x+y,-z
x-y,x,-z
-x+y,y,z
x,x-y,z
-y,-x,z
loop_
_atom_site_type_symbol
_atom_site_label
_atom_site_fract_x
_atom_site_fract_y
_atom_site_fract_z
Si Si1 0.203771 0.153799 0.660836
Si Si2 0.683483 0.787639 0.122266
Si Si3 0.242287 0.870104 0.623858
Si Si4 0.897917 0.000000 0.000000
Si Si5 0.303329 0.808297 0.637881
Si Si6 0.666082 0.443978 0.862133
O O1 0.199805 0.199805 0.500000
O O2 0.215253 0.107627 0.525074
O O3 0.251481 0.186255 0.863677
O O4 0.145814 0.120256 0.784309
O O5 0.666343 0.833172 0.114995
O O6 0.655666 0.751150 0.370732
O O7 0.660935 0.753429 0.864236
O O8 0.184882 0.815119 0.622420
O O9 0.291721 0.858086 0.637793
O O10 0.907213 0.953607 0.875801
O O11 0.247355 0.752646 0.637448
O O12 0.336926 0.811843 0.387073
O O13 0.336730 0.812032 0.889599
O O14 0.720035 0.440070 0.862378
O O15 0.616325 0.383676 0.863265
#
# Coordination Sequence:
#
# PCOD8323382 Si02
#       6
#    12  12  12   6  12  12
#     4  10  21  34  50  71  96 127 159 199 239 278
#     4   9  18  29  47  68  90 114 147 189 235 284
#     4   9  16  29  45  65  86 111 148 194 237 286
#     4  10  21  36  54  72  96 130 172 214 245 270
#     4   9  17  27  41  57  80 113 155 201 244 283
#     4  10  18  27  38  56  83 121 165 208 243 274
#
# _framework density 17.753485999999999
#
# number of rings (size 3 to 8) (size 9 to 14) (size 15 to 20)
#    0.000    2.545    0.000    2.455    2.545    4.364 
#    0.000    1.818    0.000    2.909    0.000    0.000 
#    0.000    0.000    0.000    0.000    0.000   63.636 
#
# Total GULP energy -817829.322697 kJ/mol
# GULP energy per Si atom -12391.353374 kJ/mol
# Density = 1.771308 g / cm^3
# Si number density = 17.753486 Si / 1000 Ang^3
#
#
#
# Elastic Constant Matrix: (Units=GPa)
#
#
# Indices 1 2 3 4 5 6 
#
# 1 44.9892 39.5873 28.3800 -1.4196 0.0000 0.0000
# 2 39.5873 44.9892 28.3800 1.4196 0.0000 0.0000
# 3 28.3800 28.3800 129.7243 0.0000 0.0000 0.0000
# 4 -1.4196 1.4196 0.0000 19.9514 0.0000 0.0000
# 5 0.0000 0.0000 0.0000 0.0000 19.9514 -1.4196
# 6 0.0000 0.0000 0.0000 0.0000 -1.4196 2.7009
#
#
#
# Elastic Compliance Matrix: (Units=1/GPa)
#
#
# Indices 1 2 3 4 5 6 
#
# 1 0.103086 -0.089228 -0.003032 0.013683 0.000000 0.000000
# 2 -0.089228 0.103086 -0.003032 -0.013683 0.000000 0.000000
# 3 -0.003032 -0.003032 0.009035 0.000000 0.000000 0.000000
# 4 0.013683 -0.013683 0.000000 0.052069 0.000000 0.000000
# 5 0.000000 0.000000 0.000000 0.000000 0.052069 0.027367
# 6 0.000000 0.000000 0.000000 0.000000 0.027367 0.384627
#
#
# Mechanical properties :
#
#
# Convention : Reuss Voigt Hill
#
# Bulk Modulus (GPa) = 40.60985 45.82193 43.21589
# Shear Modulus (GPa) = 5.53855 16.74443 11.14149
#
# Velocity S-wave (km/s) = 1.76818 3.07443 2.50785
# Velocity P-wave (km/s) = 5.20505 6.20233 5.72545
#
# Compressibility (1/GPa) = 0.02462457
#
# Stress axis : x y z
#
# Youngs Moduli (GPa) = 9.70065 9.70065 110.67823
#
# Poissons Ratio (x) = 0.86557 0.33555
# Poissons Ratio (y) = 0.86557 0.33555
# Poissons Ratio (z) = 0.02941 0.02941
#
# Static dielectric constant tensor:
#      x y z
#    x 3.174490 0.000000 0.000000 
#    y 0.000000 3.174490 0.000000 
#    z 0.000000 0.000000 3.575480 
# 
# 
# High freq. dielectric constant tensor:
#      x y z
#    x 1.651740 0.000000 0.000000 
#    y 0.000000 1.651740 0.000000 
#    z 0.000000 0.000000 1.697470 
# 
# From -- ./inp_files/747.got.cif
#   From: 2010.03.12/outbox.cif.g09.slc.cpg/sg164_1_cif.got.tgz:747.got - 2010.04.02 06:32:59.
