data_PCOD8323037
_publ_section_title
;
Structure prediction by ZEFSAII (Michael W. Deem and Ramdas Pophale) SiO2 
 PCOD8323037
Probable space group: P -3 1 M 
;
_chemical_formula_sum "Si O2"
_cell_formula_units_Z 46
_cell_length_a 18.273621
_cell_length_b 18.273621
_cell_length_c 8.831351
_cell_angle_alpha 90.000000
_cell_angle_beta 90.000000
_cell_angle_gamma 120.000000
_cell_volume 2553.918325
_symmetry_space_group_name_H-M "P -3 1 M "
_symmetry_group_IT_number 162
_symmetry_cell_setting 'hexagonal'
loop_
_space_group_symop_operation_xyz
x,y,z
-y,x-y,z
-x+y,-x,z
-y,-x,-z
-x+y,y,-z
x,x-y,-z
-x,-y,-z
y,-x+y,-z
x-y,x,-z
y,x,z
x-y,-y,z
-x,-x+y,z
loop_
_atom_site_type_symbol
_atom_site_label
_atom_site_fract_x
_atom_site_fract_y
_atom_site_fract_z
Si Si1 0.430742 0.861483 0.000000
Si Si2 0.333334 0.666667 0.676253
Si Si3 0.373461 0.468679 0.540563
Si Si4 0.727549 0.506992 0.202163
Si Si5 0.333200 0.909096 0.794747
O O1 0.334535 0.807586 0.059116
O O2 0.494125 0.913329 0.137714
O O3 0.333334 0.666667 0.500000
O O4 0.266171 0.572834 0.733937
O O5 0.432216 0.567785 0.500000
O O6 0.430234 0.430234 0.603937
O O7 0.305156 0.454587 0.668167
O O8 0.327904 0.422960 0.386498
O O9 0.824060 0.576744 0.152440
O O10 0.342383 0.000000 0.844322
#
# Coordination Sequence:
#
# PCOD8323037 Si02
#       5
#     6   4  12  12  12
#     4  12  23  34  48  70  96 128 162 212 252 296
#     4  12  21  31  50  70  90 124 164 211 249 286
#     4  10  19  35  53  72  96 128 163 206 251 300
#     4  12  22  35  50  73  96 125 168 209 253 290
#     4  11  23  36  51  68  95 127 165 205 254 296
#
# _framework density 18.011538999999999
#
# number of rings (size 3 to 8) (size 9 to 14) (size 15 to 20)
#    0.000    0.783    5.217    4.304    0.000    1.043 
#    0.000    0.000    0.000    0.000    0.000    0.000 
#    0.000    0.000    0.000    0.783    0.000   17.478 
#
# Total GULP energy -569854.519535 kJ/mol
# GULP energy per Si atom -12388.141729 kJ/mol
# Density = 1.797054 g / cm^3
# Si number density = 18.011539 Si / 1000 Ang^3
#
#
#
# Elastic Constant Matrix: (Units=GPa)
#
#
# Indices 1 2 3 4 5 6 
#
# 1 85.5024 45.0119 30.3412 -0.0002 2.6063 -0.0001
# 2 45.0119 85.5024 30.3412 0.0002 -2.6068 0.0000
# 3 30.3412 30.3412 84.9246 0.0006 -0.0001 -0.0001
# 4 -0.0002 0.0002 0.0006 -4.6585 -0.0052 -2.6055
# 5 2.6063 -2.6068 -0.0001 -0.0052 -4.6447 0.0001
# 6 -0.0001 0.0000 -0.0001 -2.6055 0.0001 20.2452
#
#
#
# Elastic Compliance Matrix: (Units=1/GPa)
#
#
# Indices 1 2 3 4 5 6 
#
# 1 0.016111 -0.006922 -0.003283 -0.000015 0.012925 -0.000002
# 2 -0.006922 0.016111 -0.003283 0.000014 -0.012926 0.000002
# 3 -0.003283 -0.003283 0.014121 0.000002 0.000000 0.000000
# 4 -0.000015 0.000014 0.000002 -0.200247 0.000209 -0.025771
# 5 0.012925 -0.012926 0.000000 0.000209 -0.200791 0.000028
# 6 -0.000002 0.000002 0.000000 -0.025771 0.000028 0.046078
#
#
# Mechanical properties :
#
#
# Convention : Reuss Voigt Hill
#
# Bulk Modulus (GPa) = 51.63557 51.92424 51.77991
# Shear Modulus (GPa) = -18.16948 12.20405 -2.98271
#
# Velocity S-wave (km/s) = -3.17956 2.60584 -1.28825
# Velocity P-wave (km/s) = 3.90523 6.15993 5.15731
#
# Compressibility (1/GPa) = 0.01936649
#
# Stress axis : x y z
#
# Youngs Moduli (GPa) = 62.07052 62.07091 70.81747
#
# Poissons Ratio (x) = 0.42968 0.23248
# Poissons Ratio (y) = 0.42967 0.23247
# Poissons Ratio (z) = 0.20376 0.20376
#
# Static dielectric constant tensor:
#      x y z
#    x 3.442530 -0.000020 0.000010 
#    y -0.000020 3.442480 0.000010 
#    z 0.000010 0.000010 3.593480 
# 
# 
# High freq. dielectric constant tensor:
#      x y z
#    x 1.653460 0.000000 0.000000 
#    y 0.000000 1.653460 0.000000 
#    z 0.000000 0.000000 1.728590 
# 
# From -- ./inp_files/1245.got.cif
#   From: 2010.03.12/outbox.cif.g09.slc.cpg/sg162_1_cif.got.tgz:1245.got - 2010.04.02 06:27:41.
