data_PCOD8323038
_publ_section_title
;
Structure prediction by ZEFSAII (Michael W. Deem and Ramdas Pophale) SiO2 
 PCOD8323038
Probable space group: P -3 1 M 
;
_chemical_formula_sum "Si O2"
_cell_formula_units_Z 84
_cell_length_a 17.446351
_cell_length_b 17.446351
_cell_length_c 16.097071
_cell_angle_alpha 90.000000
_cell_angle_beta 90.000000
_cell_angle_gamma 120.000000
_cell_volume 4243.133566
_symmetry_space_group_name_H-M "P -3 1 M "
_symmetry_group_IT_number 162
_symmetry_cell_setting 'hexagonal'
loop_
_space_group_symop_operation_xyz
x,y,z
-y,x-y,z
-x+y,-x,z
-y,-x,-z
-x+y,y,-z
x,x-y,-z
-x,-y,-z
y,-x+y,-z
x-y,x,-z
y,x,z
x-y,-y,z
-x,-x+y,z
loop_
_atom_site_type_symbol
_atom_site_label
_atom_site_fract_x
_atom_site_fract_y
_atom_site_fract_z
Si Si1 0.898911 0.796251 0.903709
Si Si2 0.491936 0.594610 0.078798
Si Si3 0.394670 0.229736 0.841613
Si Si4 0.098807 0.726537 0.508770
Si Si5 0.846106 0.348449 0.640515
Si Si6 0.520316 0.833461 0.667591
Si Si7 0.643430 0.097505 0.185160
O O1 0.834457 0.834457 0.876543
O O2 0.882768 0.711818 0.848209
O O3 0.000000 0.873594 0.889732
O O4 0.883643 0.767285 0.000000
O O5 0.551751 0.551751 0.062771
O O6 0.560621 0.698333 0.086035
O O7 0.431218 0.554714 0.161737
O O8 0.426710 0.573291 0.000000
O O9 0.427742 0.284312 0.755075
O O10 0.432397 0.165080 0.859819
O O11 0.169220 0.830781 0.500000
O O12 0.115914 0.663692 0.446240
O O13 0.105722 0.700067 0.601889
O O14 0.000000 0.709614 0.493591
O O15 0.857380 0.443914 0.655277
O O16 0.744476 0.270905 0.647471
O O17 0.900796 0.339023 0.716445
O O18 0.613170 0.000000 0.150441
#
# Coordination Sequence:
#
# PCOD8323038 Si02
#       7
#    12  12  12  12  12  12  12
#     4  10  22  40  64  90 118 151 197 258 321 379
#     4  10  22  38  55  77 110 151 193 240 289 340
#     4  11  22  38  59  87 115 156 196 243 293 351
#     4  10  22  38  59  86 116 150 191 238 292 350
#     4  10  19  36  56  84 120 161 193 235 285 338
#     4  10  21  35  57  87 120 155 198 238 283 340
#     4  10  21  36  56  81 115 155 196 242 289 341
#
# _framework density 19.796690000000002
#
# number of rings (size 3 to 8) (size 9 to 14) (size 15 to 20)
#    0.000    1.857    1.429    2.143    2.000    3.429 
#    0.857    2.143    0.000    0.143    0.000    0.000 
#    0.000    0.000    0.000    0.000    0.000    0.714 
#
# Total GULP energy -1041057.154374 kJ/mol
# GULP energy per Si atom -12393.537552 kJ/mol
# Density = 1.975163 g / cm^3
# Si number density = 19.796690 Si / 1000 Ang^3
#
#
#
# Elastic Constant Matrix: (Units=GPa)
#
#
# Indices 1 2 3 4 5 6 
#
# 1 119.0100 63.2559 41.7741 0.0000 0.3217 0.0000
# 2 63.2559 119.0100 41.7741 0.0000 -0.3217 0.0000
# 3 41.7741 41.7741 85.9644 0.0000 0.0000 0.0000
# 4 0.0000 0.0000 0.0000 20.6322 0.0000 -0.3217
# 5 0.3217 -0.3217 0.0000 0.0000 20.6322 0.0000
# 6 0.0000 0.0000 0.0000 -0.3217 0.0000 27.8771
#
#
#
# Elastic Compliance Matrix: (Units=1/GPa)
#
#
# Indices 1 2 3 4 5 6 
#
# 1 0.012499 -0.005440 -0.003430 0.000000 -0.000280 0.000000
# 2 -0.005440 0.012499 -0.003430 0.000000 0.000280 0.000000
# 3 -0.003430 -0.003430 0.014967 0.000000 0.000000 0.000000
# 4 0.000000 0.000000 0.000000 0.048477 0.000000 0.000559
# 5 -0.000280 0.000280 0.000000 0.000000 0.048477 0.000000
# 6 0.000000 0.000000 0.000000 0.000559 0.000000 0.035878
#
#
# Mechanical properties :
#
#
# Convention : Reuss Voigt Hill
#
# Bulk Modulus (GPa) = 65.08999 68.62139 66.85569
# Shear Modulus (GPa) = 24.68912 25.64031 25.16471
#
# Velocity S-wave (km/s) = 3.53531 3.60277 3.56920
# Velocity P-wave (km/s) = 7.04380 7.21421 7.12952
#
# Compressibility (1/GPa) = 0.01536335
#
# Stress axis : x y z
#
# Youngs Moduli (GPa) = 80.00649 80.00649 66.81571
#
# Poissons Ratio (x) = 0.43525 0.22919
# Poissons Ratio (y) = 0.43525 0.22919
# Poissons Ratio (z) = 0.27444 0.27444
#
# Static dielectric constant tensor:
#      x y z
#    x 3.573900 0.000000 0.000000 
#    y 0.000000 3.573900 0.000000 
#    z 0.000000 0.000000 3.656380 
# 
# 
# High freq. dielectric constant tensor:
#      x y z
#    x 1.765860 0.000000 0.000000 
#    y 0.000000 1.765860 0.000000 
#    z 0.000000 0.000000 1.772270 
# 
# From -- ./inp_files/3214.got.cif
#   From: 2010.03.12/outbox.cif.g09.slc.cpg/sg162_2_cif.got.tgz:3214.got - 2010.04.02 06:27:41.
