data_PCOD8323111
_publ_section_title
;
Structure prediction by ZEFSAII (Michael W. Deem and Ramdas Pophale) SiO2 
 PCOD8323111
Probable space group: P -3 1 M 
;
_chemical_formula_sum "Si O2"
_cell_formula_units_Z 48
_cell_length_a 17.493168
_cell_length_b 17.493168
_cell_length_c 8.884299
_cell_angle_alpha 90.000000
_cell_angle_beta 90.000000
_cell_angle_gamma 120.000000
_cell_volume 2354.456831
_symmetry_space_group_name_H-M "P -3 1 M "
_symmetry_group_IT_number 162
_symmetry_cell_setting 'hexagonal'
loop_
_space_group_symop_operation_xyz
x,y,z
-y,x-y,z
-x+y,-x,z
-y,-x,-z
-x+y,y,-z
x,x-y,-z
-x,-y,-z
y,-x+y,-z
x-y,x,-z
y,x,z
x-y,-y,z
-x,-x+y,z
loop_
_atom_site_type_symbol
_atom_site_label
_atom_site_fract_x
_atom_site_fract_y
_atom_site_fract_z
Si Si1 0.617340 0.789910 0.173423
Si Si2 0.392313 0.490000 0.687044
Si Si3 0.496805 0.319569 0.398021
Si Si4 0.101281 0.899651 0.328082
O O1 0.562333 0.684493 0.192424
O O2 0.574591 0.834964 0.274774
O O3 0.718825 0.832848 0.220921
O O4 0.611374 0.805687 0.000000
O O5 0.471994 0.471994 0.724630
O O6 0.425253 0.595080 0.688404
O O7 0.354962 0.452408 0.519258
O O8 0.532781 0.266391 0.500000
O O9 0.117930 0.882071 0.500000
O O10 0.000000 0.835211 0.279311
O O11 0.122683 0.000000 0.310643
#
# Coordination Sequence:
#
# PCOD8323111 Si02
#       4
#    12  12  12  12
#     4  11  24  39  55  86 124 161 194 237 298 360
#     4  10  20  39  64  86 112 150 203 252 295 349
#     4   9  19  37  60  88 115 146 195 251 297 348
#     4  10  21  39  64  90 117 152 199 252 303 357
#
# _framework density 20.386866999999999
#
# number of rings (size 3 to 8) (size 9 to 14) (size 15 to 20)
#    0.000    2.000    0.000    4.750    0.000    8.000 
#   39.000    1.250    0.000    1.500    0.000    0.000 
#    0.000    0.000    0.000    0.000    0.000    0.000 
#
# Total GULP energy -594903.627760 kJ/mol
# GULP energy per Si atom -12393.825578 kJ/mol
# Density = 2.034047 g / cm^3
# Si number density = 20.386867 Si / 1000 Ang^3
#
#
#
# Elastic Constant Matrix: (Units=GPa)
#
#
# Indices 1 2 3 4 5 6 
#
# 1 109.1990 42.1133 34.4185 -0.0001 2.1176 0.0000
# 2 42.1133 109.1990 34.4185 0.0001 -2.1176 0.0000
# 3 34.4185 34.4185 98.7747 0.0000 0.0000 0.0000
# 4 -0.0001 0.0001 0.0000 12.7334 0.0000 -2.1176
# 5 2.1176 -2.1176 0.0000 0.0000 12.7334 -0.0001
# 6 0.0000 0.0000 0.0000 -2.1176 -0.0001 33.5428
#
#
#
# Elastic Compliance Matrix: (Units=1/GPa)
#
#
# Indices 1 2 3 4 5 6 
#
# 1 0.011459 -0.003605 -0.002737 0.000000 -0.002505 0.000000
# 2 -0.003605 0.011459 -0.002737 0.000000 0.002505 0.000000
# 3 -0.002737 -0.002737 0.012031 0.000000 0.000000 0.000000
# 4 0.000000 0.000000 0.000000 0.079367 0.000000 0.005011
# 5 -0.002505 0.002505 0.000000 0.000000 0.079367 0.000000
# 6 0.000000 0.000000 0.000000 0.005011 0.000000 0.030129
#
#
# Mechanical properties :
#
#
# Convention : Reuss Voigt Hill
#
# Bulk Modulus (GPa) = 59.55155 59.89700 59.72427
# Shear Modulus (GPa) = 20.19650 25.55008 22.87329
#
# Velocity S-wave (km/s) = 3.15089 3.54398 3.35320
# Velocity P-wave (km/s) = 6.52010 6.79635 6.65966
#
# Compressibility (1/GPa) = 0.01679217
#
# Stress axis : x y z
#
# Youngs Moduli (GPa) = 87.26635 87.26635 83.11663
#
# Poissons Ratio (x) = 0.31462 0.22747
# Poissons Ratio (y) = 0.31462 0.22747
# Poissons Ratio (z) = 0.23882 0.23882
#
# Static dielectric constant tensor:
#      x y z
#    x 3.802210 0.000000 0.000000 
#    y 0.000000 3.802210 0.000000 
#    z 0.000000 0.000000 3.469400 
# 
# 
# High freq. dielectric constant tensor:
#      x y z
#    x 1.798500 0.000000 0.000000 
#    y 0.000000 1.798500 0.000000 
#    z 0.000000 0.000000 1.770620 
# 
# From -- ./inp_files/1196.got.cif
#   From: 2010.03.12/outbox.cif.g09.slc.cpg/sg162_1_cif.got.tgz:1196.got - 2010.04.02 06:27:41.
