data_PCOD8323197
_publ_section_title
;
Structure prediction by ZEFSAII (Michael W. Deem and Ramdas Pophale) SiO2 
 PCOD8323197
Probable space group: P -3 1 C
;
_chemical_formula_sum "Si O2"
_cell_formula_units_Z 46
_cell_length_a 18.263611
_cell_length_b 18.263611
_cell_length_c 10.385076
_cell_angle_alpha 90.000000
_cell_angle_beta 90.000000
_cell_angle_gamma 120.000000
_cell_volume 2999.947177
_symmetry_space_group_name_H-M "P -3 1 C"
_symmetry_group_IT_number 163
_symmetry_cell_setting 'hexagonal'
loop_
_space_group_symop_operation_xyz
x,y,z
-y,x-y,z
-x+y,-x,z
-y,-x,1/2-z
-x+y,y,1/2-z
x,x-y,1/2-z
-x,-y,-z
y,-x+y,-z
x-y,x,-z
y,x,1/2+z
x-y,-y,1/2+z
-x,-x+y,1/2+z
loop_
_atom_site_type_symbol
_atom_site_label
_atom_site_fract_x
_atom_site_fract_y
_atom_site_fract_z
Si Si1 0.486360 0.234656 0.518228
Si Si2 0.278169 0.721832 0.750000
Si Si3 0.333334 0.666668 0.101832
Si Si4 0.543979 0.619526 0.398810
Si Si5 0.619641 0.061653 0.893349
O O1 0.489071 0.247057 0.365388
O O2 0.580546 0.256038 0.552367
O O3 0.459163 0.294401 0.591618
O O4 0.426936 0.138473 0.564545
O O5 0.237520 0.618760 0.750000
O O6 0.333334 0.666667 0.250000
O O7 0.602908 0.618601 0.513467
O O8 0.581969 0.619480 0.257129
O O9 0.450949 0.539497 0.415457
#
# Coordination Sequence:
#
# PCOD8323197 Si02
#       5
#    12   6   4  12  12
#     4  12  20  32  50  65  89 121 160 196 235 282
#     4  10  18  30  42  72  84 110 150 204 238 262
#     4  12  18  28  47  64  84 114 163 197 223 270
#     4  10  21  34  47  67  91 119 152 195 238 277
#     4  10  21  34  47  67  91 119 152 195 238 277
#
# _framework density 15.333603999999999
#
# number of rings (size 3 to 8) (size 9 to 14) (size 15 to 20)
#    0.261    1.043    5.217    2.348    3.652    0.000 
#    0.000    0.000    0.000    0.000    0.000    0.000 
#    0.000    0.000    0.000    0.783    0.000    4.435 
#
# Total GULP energy -570163.382776 kJ/mol
# GULP energy per Si atom -12394.856147 kJ/mol
# Density = 1.529870 g / cm^3
# Si number density = 15.333604 Si / 1000 Ang^3
#
#
#
# Elastic Constant Matrix: (Units=GPa)
#
#
# Indices 1 2 3 4 5 6 
#
# 1 49.5971 14.0942 21.1796 0.0001 -0.3380 -0.0003
# 2 14.0942 49.5967 21.1796 -0.0001 0.3378 -0.0003
# 3 21.1796 21.1796 130.6845 -0.0003 -0.0003 0.0000
# 4 0.0001 -0.0001 -0.0003 15.3807 0.0000 0.3378
# 5 -0.3380 0.3378 -0.0003 0.0000 15.3806 -0.0001
# 6 -0.0003 -0.0003 0.0000 0.3378 -0.0001 17.7514
#
#
#
# Elastic Compliance Matrix: (Units=1/GPa)
#
#
# Indices 1 2 3 4 5 6 
#
# 1 0.022888 -0.005291 -0.002852 0.000000 0.000619 0.000000
# 2 -0.005291 0.022888 -0.002852 0.000000 -0.000619 0.000000
# 3 -0.002852 -0.002852 0.008576 0.000000 0.000000 0.000000
# 4 0.000000 0.000000 0.000000 0.065044 0.000000 -0.001238
# 5 0.000619 -0.000619 0.000000 0.000000 0.065044 0.000000
# 6 0.000000 0.000000 0.000000 -0.001238 0.000000 0.056357
#
#
# Mechanical properties :
#
#
# Convention : Reuss Voigt Hill
#
# Bulk Modulus (GPa) = 30.89888 38.08723 34.49306
# Shear Modulus (GPa) = 18.27654 21.26418 19.77036
#
# Velocity S-wave (km/s) = 3.45617 3.72798 3.59465
# Velocity P-wave (km/s) = 6.01013 6.58964 6.30655
#
# Compressibility (1/GPa) = 0.03236363
#
# Stress axis : x y z
#
# Youngs Moduli (GPa) = 43.69104 43.69067 116.59847
#
# Poissons Ratio (x) = 0.23115 0.33253
# Poissons Ratio (y) = 0.23115 0.33254
# Poissons Ratio (z) = 0.12460 0.12461
#
# Static dielectric constant tensor:
#      x y z
#    x 2.619970 0.000000 0.000000 
#    y 0.000000 2.619970 0.000010 
#    z 0.000000 0.000010 3.310230 
# 
# 
# High freq. dielectric constant tensor:
#      x y z
#    x 1.540580 0.000000 0.000000 
#    y 0.000000 1.540580 0.000000 
#    z 0.000000 0.000000 1.618860 
# 
# From -- ./inp_files/930.got.cif
#   From: 2010.03.12/outbox.cif.g09.slc.cpg/sg163_1_cif.got.tgz:930.got - 2010.04.02 06:30:25.
