data_PCOD8323637
_publ_section_title
;
Structure prediction by ZEFSAII (Michael W. Deem and Ramdas Pophale) SiO2 
 PCOD8323637
Probable space group: P -3 M 1
;
_chemical_formula_sum "Si O2"
_cell_formula_units_Z 66
_cell_length_a 12.618022
_cell_length_b 12.618022
_cell_length_c 27.923621
_cell_angle_alpha 90.000000
_cell_angle_beta 90.000000
_cell_angle_gamma 120.000000
_cell_volume 3850.214516
_symmetry_space_group_name_H-M "P -3 M 1"
_symmetry_group_IT_number 164
_symmetry_cell_setting 'hexagonal'
loop_
_space_group_symop_operation_xyz
x,y,z
-y,x-y,z
-x+y,-x,z
x-y,-y,-z
-x,-x+y,-z
y,x,-z
-x,-y,-z
y,-x+y,-z
x-y,x,-z
-x+y,y,z
x,x-y,z
-y,-x,z
loop_
_atom_site_type_symbol
_atom_site_label
_atom_site_fract_x
_atom_site_fract_y
_atom_site_fract_z
Si Si1 0.753766 0.999508 0.222847
Si Si2 0.577300 0.667106 0.692249
Si Si3 0.666872 0.580497 0.865916
Si Si4 0.912018 0.333492 0.416253
Si Si5 0.000000 0.247872 0.500000
Si Si6 0.580675 0.915898 0.955678
O O1 0.874718 0.125283 0.209589
O O2 0.697214 0.006777 0.273427
O O3 0.789141 0.894571 0.226462
O O4 0.652693 0.970951 0.182817
O O5 0.535107 0.767554 0.697895
O O6 0.462824 0.537177 0.706500
O O7 0.621653 0.666473 0.638146
O O8 0.787938 0.575876 0.879306
O O9 0.557105 0.442896 0.859697
O O10 0.640416 0.650941 0.907434
O O11 0.914738 0.457369 0.428745
O O12 0.774599 0.225402 0.424640
O O13 0.004204 0.321244 0.452224
O O14 0.115773 0.231546 0.499398
O O15 0.438877 0.877753 0.959856
O O16 0.590553 0.795277 0.955898
O O17 0.656877 0.000000 0.000000
#
# Coordination Sequence:
#
# PCOD8323637 Si02
#       6
#    12  12  12  12   6  12
#     4  10  20  33  49  70  98 132 167 200 235 279
#     4   9  17  30  49  72  95 119 151 194 243 289
#     4  10  20  34  53  75  99 128 163 204 248 293
#     4   9  17  30  49  71  93 118 151 194 242 288
#     4  10  20  32  46  66  94 128 162 194 230 276
#     4  10  20  34  53  76 102 131 163 201 244 290
#
# _framework density 17.141902999999999
#
# number of rings (size 3 to 8) (size 9 to 14) (size 15 to 20)
#    0.000    2.364    0.000    2.909    0.000    2.182 
#    0.000    1.818    0.000   13.091    0.000    0.000 
#    0.000    0.000    0.000    0.000    0.000    0.000 
#
# Total GULP energy -818532.102246 kJ/mol
# GULP energy per Si atom -12402.001549 kJ/mol
# Density = 1.710289 g / cm^3
# Si number density = 17.141903 Si / 1000 Ang^3
#
#
#
# Elastic Constant Matrix: (Units=GPa)
#
#
# Indices 1 2 3 4 5 6 
#
# 1 98.1586 53.4738 53.9652 -1.6238 0.0000 0.0000
# 2 53.4738 98.1586 53.9652 1.6238 0.0000 0.0000
# 3 53.9652 53.9652 105.0316 0.0000 0.0000 0.0000
# 4 -1.6238 1.6238 0.0000 26.0851 0.0000 0.0000
# 5 0.0000 0.0000 0.0000 0.0000 26.0851 -1.6238
# 6 0.0000 0.0000 0.0000 0.0000 -1.6238 22.3424
#
#
#
# Elastic Compliance Matrix: (Units=1/GPa)
#
#
# Indices 1 2 3 4 5 6 
#
# 1 0.016439 -0.006042 -0.005342 0.001399 0.000000 0.000000
# 2 -0.006042 0.016439 -0.005342 -0.001399 0.000000 0.000000
# 3 -0.005342 -0.005342 0.015011 0.000000 0.000000 0.000000
# 4 0.001399 -0.001399 0.000000 0.038510 0.000000 0.000000
# 5 0.000000 0.000000 0.000000 0.000000 0.038510 0.002799
# 6 0.000000 0.000000 0.000000 0.000000 0.002799 0.044961
#
#
# Mechanical properties :
#
#
# Convention : Reuss Voigt Hill
#
# Bulk Modulus (GPa) = 69.26813 69.35077 69.30945
# Shear Modulus (GPa) = 24.02289 24.23216 24.12752
#
# Velocity S-wave (km/s) = 3.74761 3.76389 3.75576
# Velocity P-wave (km/s) = 7.69561 7.70934 7.70248
#
# Compressibility (1/GPa) = 0.01443665
#
# Stress axis : x y z
#
# Youngs Moduli (GPa) = 60.83080 60.83080 66.61970
#
# Poissons Ratio (x) = 0.36752 0.35589
# Poissons Ratio (y) = 0.36752 0.35589
# Poissons Ratio (z) = 0.32497 0.32497
#
# Static dielectric constant tensor:
#      x y z
#    x 3.154910 0.000000 0.000000 
#    y 0.000000 3.154910 0.000000 
#    z 0.000000 0.000000 3.398960 
# 
# 
# High freq. dielectric constant tensor:
#      x y z
#    x 1.660670 0.000000 0.000000 
#    y 0.000000 1.660670 0.000000 
#    z 0.000000 0.000000 1.675250 
# 
# From -- ./inp_files/5419.got.cif
#   From: 2010.03.12/outbox.cif.g09.slc.cpg/sg164_3_cif.got.tgz:5419.got - 2010.04.02 06:32:59.
