data_PCOD8323107
_publ_section_title
;
Structure prediction by ZEFSAII (Michael W. Deem and Ramdas Pophale) SiO2 
 PCOD8323107
Probable space group: P -3 1 M 
;
_chemical_formula_sum "Si O2"
_cell_formula_units_Z 84
_cell_length_a 17.432493
_cell_length_b 17.432493
_cell_length_c 15.447090
_cell_angle_alpha 90.000000
_cell_angle_beta 90.000000
_cell_angle_gamma 120.000000
_cell_volume 4065.334706
_symmetry_space_group_name_H-M "P -3 1 M "
_symmetry_group_IT_number 162
_symmetry_cell_setting 'hexagonal'
loop_
_space_group_symop_operation_xyz
x,y,z
-y,x-y,z
-x+y,-x,z
-y,-x,-z
-x+y,y,-z
x,x-y,-z
-x,-y,-z
y,-x+y,-z
x-y,x,-z
y,x,z
x-y,-y,z
-x,-x+y,z
loop_
_atom_site_type_symbol
_atom_site_label
_atom_site_fract_x
_atom_site_fract_y
_atom_site_fract_z
Si Si1 0.102230 0.313940 0.741330
Si Si2 0.517130 0.339388 0.746607
Si Si3 0.255936 0.355694 0.851039
Si Si4 0.514207 0.178805 0.452491
Si Si5 0.312279 0.209679 0.575696
Si Si6 0.836083 0.328791 0.806951
Si Si7 0.894880 0.534337 0.007384
O O1 0.150809 0.308311 0.830088
O O2 0.156529 0.311617 0.659832
O O3 0.109950 0.410560 0.740861
O O4 0.000000 0.235862 0.739735
O O5 0.413315 0.305611 0.764486
O O6 0.544038 0.349193 0.646890
O O7 0.569445 0.434902 0.792531
O O8 0.539644 0.268994 0.790204
O O9 0.279615 0.279615 0.867793
O O10 0.287141 0.425509 0.930923
O O11 0.568138 0.136275 0.500000
O O12 0.542625 0.271313 0.500000
O O13 0.407877 0.116340 0.453994
O O14 0.274358 0.137179 0.500000
O O15 0.245759 0.245759 0.592321
O O16 0.858757 0.310000 0.902594
O O17 0.000000 0.585993 0.006822
O O18 0.857610 0.428805 0.000000
#
# Coordination Sequence:
#
# PCOD8323107 Si02
#       7
#    12  12  12  12  12  12  12
#     4  11  24  42  67  94 124 170 222 275 335 399
#     4  11  22  36  59  90 125 175 221 266 325 367
#     4  10  21  40  64  93 132 174 216 269 339 398
#     4  11  23  39  63  95 132 179 224 270 322 379
#     4  11  24  45  68  96 131 169 214 273 339 404
#     4  11  22  39  58  92 131 172 226 268 311 378
#     4  10  20  37  62  93 130 175 218 268 324 386
#
# _framework density 20.662503999999998
#
# number of rings (size 3 to 8) (size 9 to 14) (size 15 to 20)
#    0.000    1.286    4.286    2.571    2.000    3.143 
#    0.000    0.000    0.000    6.286    0.000    0.000 
#    0.000    0.000    0.000   34.857    0.000    0.000 
#
# Total GULP energy -1041057.823372 kJ/mol
# GULP energy per Si atom -12393.545516 kJ/mol
# Density = 2.061548 g / cm^3
# Si number density = 20.662504 Si / 1000 Ang^3
#
#
#
# Elastic Constant Matrix: (Units=GPa)
#
#
# Indices 1 2 3 4 5 6 
#
# 1 89.8877 52.7721 40.2398 0.0000 4.6534 0.0000
# 2 52.7721 89.8877 40.2398 0.0000 -4.6534 0.0000
# 3 40.2398 40.2398 138.3855 0.0000 0.0000 0.0000
# 4 0.0000 0.0000 0.0000 22.6821 0.0000 -4.6534
# 5 4.6534 -4.6534 0.0000 0.0000 22.6821 0.0000
# 6 0.0000 0.0000 0.0000 -4.6534 0.0000 18.5578
#
#
#
# Elastic Compliance Matrix: (Units=1/GPa)
#
#
# Indices 1 2 3 4 5 6 
#
# 1 0.018395 -0.010009 -0.002438 0.000000 -0.005827 0.000000
# 2 -0.010009 0.018395 -0.002438 0.000000 0.005827 0.000000
# 3 -0.002438 -0.002438 0.008644 0.000000 0.000000 0.000000
# 4 0.000000 0.000000 0.000000 0.046479 0.000000 0.011655
# 5 -0.005827 0.005827 0.000000 0.000000 0.046479 0.000000
# 6 0.000000 0.000000 0.000000 0.011655 0.000000 0.056808
#
#
# Mechanical properties :
#
#
# Convention : Reuss Voigt Hill
#
# Bulk Modulus (GPa) = 63.85059 64.96269 64.40664
# Shear Modulus (GPa) = 21.72105 25.11168 23.41636
#
# Velocity S-wave (km/s) = 3.24579 3.48993 3.37007
# Velocity P-wave (km/s) = 6.70937 6.90997 6.81041
#
# Compressibility (1/GPa) = 0.01566156
#
# Stress axis : x y z
#
# Youngs Moduli (GPa) = 54.36361 54.36361 115.68474
#
# Poissons Ratio (x) = 0.54415 0.28207
# Poissons Ratio (y) = 0.54415 0.28207
# Poissons Ratio (z) = 0.13255 0.13255
#
# Static dielectric constant tensor:
#      x y z
#    x 3.649790 0.000000 0.000000 
#    y 0.000000 3.649790 0.000000 
#    z 0.000000 0.000000 4.018050 
# 
# 
# High freq. dielectric constant tensor:
#      x y z
#    x 1.789640 0.000000 0.000000 
#    y 0.000000 1.789640 0.000000 
#    z 0.000000 0.000000 1.821170 
# 
# From -- ./inp_files/3204.got.cif
#   From: 2010.03.12/outbox.cif.g09.slc.cpg/sg162_2_cif.got.tgz:3204.got - 2010.04.02 06:27:41.
