data_PCOD8323873
_publ_section_title
;
Structure prediction by ZEFSAII (Michael W. Deem and Ramdas Pophale) SiO2 
 PCOD8323873
Probable space group: P -3 C 1
;
_chemical_formula_sum "Si O2"
_cell_formula_units_Z 48
_cell_length_a 17.962308
_cell_length_b 17.962308
_cell_length_c 8.708922
_cell_angle_alpha 90.000000
_cell_angle_beta 90.000000
_cell_angle_gamma 120.000000
_cell_volume 2433.432536
_symmetry_space_group_name_H-M "P -3 C 1"
_symmetry_group_IT_number 165
_symmetry_cell_setting 'hexagonal'
loop_
_space_group_symop_operation_xyz
x,y,z
-y,x-y,z
-x+y,-x,z
x-y,-y,1/2-z
-x,-x+y,1/2-z
y,x,1/2-z
-x,-y,-z
y,-x+y,-z
x-y,x,-z
-x+y,y,1/2+z
x,x-y,1/2+z
-y,-x,1/2+z
loop_
_atom_site_type_symbol
_atom_site_label
_atom_site_fract_x
_atom_site_fract_y
_atom_site_fract_z
Si Si1 0.320686 0.565214 0.819548
Si Si2 0.246636 0.906948 0.798291
Si Si3 0.846262 0.951078 0.398161
Si Si4 0.553103 0.765301 0.058423
O O1 0.411221 0.653778 0.820104
O O2 0.312582 0.509183 0.670404
O O3 0.302778 0.505696 0.969010
O O4 0.165492 0.913930 0.851405
O O5 0.218741 0.845556 0.650234
O O6 0.325599 0.000000 0.750000
O O7 0.273077 0.866920 0.938904
O O8 0.857449 0.871916 0.454147
O O9 0.905682 0.000000 0.250000
#
# Coordination Sequence:
#
# PCOD8323873 Si02
#       4
#    12  12  12  12
#     4   9  18  33  61  92 110 129 173 245 278 322
#     4  10  21  36  53  79 116 155 191 225 268 337
#     4  11  22  37  56  79 109 147 199 252 290 310
#     4  10  19  34  57  82 112 147 182 223 276 328
#
# _framework density 19.725223
#
# number of rings (size 3 to 8) (size 9 to 14) (size 15 to 20)
#    0.500    1.500    0.000    5.500    0.000    0.000 
#    0.000   10.000    0.000   24.000    0.000    0.000 
#    0.000    0.000    0.000    0.000    0.000    0.000 
#
# Total GULP energy -594807.466142 kJ/mol
# GULP energy per Si atom -12391.822211 kJ/mol
# Density = 1.968033 g / cm^3
# Si number density = 19.725223 Si / 1000 Ang^3
#
#
#
# Elastic Constant Matrix: (Units=GPa)
#
#
# Indices 1 2 3 4 5 6 
#
# 1 85.7094 30.3918 38.4374 4.3229 0.0000 0.0000
# 2 30.3918 85.7094 38.4374 -4.3229 0.0000 0.0000
# 3 38.4374 38.4374 129.0975 0.0000 0.0000 0.0000
# 4 4.3229 -4.3229 0.0000 31.2769 0.0000 0.0000
# 5 0.0000 0.0000 0.0000 0.0000 31.2769 4.3229
# 6 0.0000 0.0000 0.0000 0.0000 4.3229 27.6588
#
#
#
# Elastic Compliance Matrix: (Units=1/GPa)
#
#
# Indices 1 2 3 4 5 6 
#
# 1 0.014602 -0.003874 -0.003194 -0.002554 0.000000 0.000000
# 2 -0.003874 0.014602 -0.003194 0.002554 0.000000 0.000000
# 3 -0.003194 -0.003194 0.009648 0.000000 0.000000 0.000000
# 4 -0.002554 0.002554 0.000000 0.032678 0.000000 0.000000
# 5 0.000000 0.000000 0.000000 0.000000 0.032678 -0.005107
# 6 0.000000 0.000000 0.000000 0.000000 -0.005107 0.036953
#
#
# Mechanical properties :
#
#
# Convention : Reuss Voigt Hill
#
# Bulk Modulus (GPa) = 54.56219 57.22771 55.89495
# Shear Modulus (GPa) = 29.79788 30.92583 30.36185
#
# Velocity S-wave (km/s) = 3.89092 3.96388 3.92757
# Velocity P-wave (km/s) = 6.92148 7.07285 6.99758
#
# Compressibility (1/GPa) = 0.01832771
#
# Stress axis : x y z
#
# Youngs Moduli (GPa) = 68.48208 68.48208 103.64677
#
# Poissons Ratio (x) = 0.26531 0.33107
# Poissons Ratio (y) = 0.26531 0.33107
# Poissons Ratio (z) = 0.21874 0.21874
#
# Static dielectric constant tensor:
#      x y z
#    x 3.433830 0.000000 0.000000 
#    y 0.000000 3.433830 0.000000 
#    z 0.000000 0.000000 3.995420 
# 
# 
# High freq. dielectric constant tensor:
#      x y z
#    x 1.744930 0.000000 0.000000 
#    y 0.000000 1.744930 0.000000 
#    z 0.000000 0.000000 1.797380 
# 
# From -- ./inp_files/520.got.cif
#   From: 2010.03.12/outbox.cif.g09.slc.cpg/sg165_1_cif.got.tgz:520.got - 2010.04.02 06:36:38.
