data_PCOD8323464
_publ_section_title
;
Structure prediction by ZEFSAII (Michael W. Deem and Ramdas Pophale) SiO2 
 PCOD8323464
Probable space group: P -3 M 1
;
_chemical_formula_sum "Si O2"
_cell_formula_units_Z 84
_cell_length_a 20.449155
_cell_length_b 20.449155
_cell_length_c 13.364196
_cell_angle_alpha 90.000000
_cell_angle_beta 90.000000
_cell_angle_gamma 120.000000
_cell_volume 4839.764188
_symmetry_space_group_name_H-M "P -3 M 1"
_symmetry_group_IT_number 164
_symmetry_cell_setting 'hexagonal'
loop_
_space_group_symop_operation_xyz
x,y,z
-y,x-y,z
-x+y,-x,z
x-y,-y,-z
-x,-x+y,-z
y,x,-z
-x,-y,-z
y,-x+y,-z
x-y,x,-z
-x+y,y,z
x,x-y,z
-y,-x,z
loop_
_atom_site_type_symbol
_atom_site_label
_atom_site_fract_x
_atom_site_fract_y
_atom_site_fract_z
Si Si1 0.179605 0.511797 0.074108
Si Si2 0.669541 0.558751 0.135775
Si Si3 0.371606 0.030793 0.389646
Si Si4 0.515850 0.181604 0.333410
Si Si5 0.071759 0.290847 0.761328
Si Si6 0.403178 0.447767 0.213473
Si Si7 0.151277 0.150670 0.884903
O O1 0.260620 0.521239 0.099204
O O2 0.187294 0.593647 0.066783
O O3 0.120763 0.460509 0.160067
O O4 0.147791 0.467286 0.971335
O O5 0.660837 0.495329 0.214874
O O6 0.742444 0.637682 0.164582
O O7 0.596791 0.569969 0.139111
O O8 0.451142 0.108969 0.391862
O O9 0.306057 0.043140 0.343212
O O10 0.349235 0.000000 0.500000
O O11 0.373678 0.968289 0.318650
O O12 0.597404 0.194808 0.365603
O O13 0.511005 0.255503 0.362121
O O14 0.136394 0.272787 0.732650
O O15 0.005392 0.219032 0.818274
O O16 0.472519 0.527482 0.241563
O O17 0.067273 0.134546 0.864494
O O18 0.154363 0.077182 0.853565
O O19 0.173042 0.173042 0.000000
#
# Coordination Sequence:
#
# PCOD8323464 Si02
#       7
#    12  12  12  12  12  12  12
#     4  11  21  33  49  71 102 137 171 202 236 283
#     4  10  18  31  50  74 101 134 167 199 240 291
#     4  10  20  36  56  75  94 126 170 214 256 300
#     4  10  19  32  52  79 107 130 158 201 256 309
#     4   9  18  33  50  73 105 133 161 203 256 300
#     4   9  19  34  51  71  95 125 163 206 250 295
#     4   9  17  30  50  76 106 139 171 201 236 286
#
# _framework density 17.356217999999998
#
# number of rings (size 3 to 8) (size 9 to 14) (size 15 to 20)
#    0.000    2.571    0.000    6.000    0.000    5.143 
#    0.000   10.000    0.000    0.000    0.000    2.000 
#    0.000    2.857    0.000    0.000    0.000    0.000 
#
# Total GULP energy -1041371.536765 kJ/mol
# GULP energy per Si atom -12397.280200 kJ/mol
# Density = 1.731671 g / cm^3
# Si number density = 17.356218 Si / 1000 Ang^3
#
#
#
# Elastic Constant Matrix: (Units=GPa)
#
#
# Indices 1 2 3 4 5 6 
#
# 1 100.2417 44.3601 59.9808 2.7142 0.0000 0.0000
# 2 44.3601 100.2417 59.9808 -2.7142 0.0000 0.0000
# 3 59.9808 59.9808 107.3529 0.0000 0.0000 0.0000
# 4 2.7142 -2.7142 0.0000 13.6952 0.0000 0.0000
# 5 0.0000 0.0000 0.0000 0.0000 13.6952 2.7142
# 6 0.0000 0.0000 0.0000 0.0000 2.7142 27.9408
#
#
#
# Elastic Compliance Matrix: (Units=1/GPa)
#
#
# Indices 1 2 3 4 5 6 
#
# 1 0.015568 -0.002678 -0.007202 -0.003616 0.000000 0.000000
# 2 -0.002678 0.015568 -0.007202 0.003616 0.000000 0.000000
# 3 -0.007202 -0.007202 0.017363 0.000000 0.000000 0.000000
# 4 -0.003616 0.003616 0.000000 0.074452 0.000000 0.000000
# 5 0.000000 0.000000 0.000000 0.000000 0.074452 -0.007232
# 6 0.000000 0.000000 0.000000 0.000000 -0.007232 0.036493
#
#
# Mechanical properties :
#
#
# Convention : Reuss Voigt Hill
#
# Bulk Modulus (GPa) = 69.75809 70.71994 70.23902
# Shear Modulus (GPa) = 18.32578 20.63387 19.47983
#
# Velocity S-wave (km/s) = 3.25293 3.45171 3.35379
# Velocity P-wave (km/s) = 7.37482 7.53129 7.45347
#
# Compressibility (1/GPa) = 0.01433525
#
# Stress axis : x y z
#
# Youngs Moduli (GPa) = 64.23270 64.23270 57.59289
#
# Poissons Ratio (x) = 0.17201 0.41480
# Poissons Ratio (y) = 0.17201 0.41480
# Poissons Ratio (z) = 0.46262 0.46262
#
# Static dielectric constant tensor:
#      x y z
#    x 3.313330 0.000000 0.000000 
#    y 0.000000 3.313330 0.000000 
#    z 0.000000 0.000000 2.943480 
# 
# 
# High freq. dielectric constant tensor:
#      x y z
#    x 1.674200 0.000000 0.000000 
#    y 0.000000 1.674200 0.000000 
#    z 0.000000 0.000000 1.639040 
# 
# From -- ./inp_files/2875.got.cif
#   From: 2010.03.12/outbox.cif.g09.slc.cpg/sg164_2_cif.got.tgz:2875.got - 2010.04.02 06:32:59.
