data_PCOD8323704
_publ_section_title
;
Structure prediction by ZEFSAII (Michael W. Deem and Ramdas Pophale) SiO2 
 PCOD8323704
Probable space group: P -3 M 1
;
_chemical_formula_sum "Si O2"
_cell_formula_units_Z 54
_cell_length_a 12.667415
_cell_length_b 12.667415
_cell_length_c 22.892387
_cell_angle_alpha 90.000000
_cell_angle_beta 90.000000
_cell_angle_gamma 120.000000
_cell_volume 3181.249332
_symmetry_space_group_name_H-M "P -3 M 1"
_symmetry_group_IT_number 164
_symmetry_cell_setting 'hexagonal'
loop_
_space_group_symop_operation_xyz
x,y,z
-y,x-y,z
-x+y,-x,z
x-y,-y,-z
-x,-x+y,-z
y,x,-z
-x,-y,-z
y,-x+y,-z
x-y,x,-z
-x+y,y,z
x,x-y,z
-y,-x,z
loop_
_atom_site_type_symbol
_atom_site_label
_atom_site_fract_x
_atom_site_fract_y
_atom_site_fract_z
Si Si1 0.666373 0.578337 0.679776
Si Si2 0.000000 0.246465 0.000000
Si Si3 0.086940 0.420342 0.108674
Si Si4 0.334782 0.421744 0.782893
Si Si5 0.667204 0.089035 0.548259
O O1 0.794341 0.588681 0.695748
O O2 0.562533 0.437468 0.687683
O O3 0.641439 0.664223 0.722093
O O4 0.666277 0.624364 0.613938
O O5 0.979874 0.310690 0.944703
O O6 0.115131 0.230262 0.987306
O O7 0.220839 0.441677 0.119585
O O8 0.098568 0.549284 0.094271
O O9 0.008023 0.359421 0.165920
O O10 0.203965 0.407929 0.792100
O O11 0.435794 0.564207 0.782714
O O12 0.551100 0.102199 0.536171
O O13 0.779982 0.220019 0.538231
O O14 0.674014 0.000000 0.500000
#
# Coordination Sequence:
#
# PCOD8323704 Si02
#       5
#    12   6  12  12  12
#     4   9  17  30  49  71  94 121 155 196 239 281
#     4  10  20  34  52  74 102 136 170 200 232 276
#     4  10  20  34  53  76 100 126 159 201 245 285
#     4  10  20  33  49  70  97 127 157 190 232 284
#     4   9  17  29  46  69  95 123 155 192 235 281
#
# _framework density 16.974463
#
# number of rings (size 3 to 8) (size 9 to 14) (size 15 to 20)
#    0.000    2.444    0.000    2.667    0.000    2.667 
#    0.000    2.222    0.000   14.889    0.000    0.000 
#    0.000    0.000    0.000    0.000    0.000    0.000 
#
# Total GULP energy -669633.069351 kJ/mol
# GULP energy per Si atom -12400.612395 kJ/mol
# Density = 1.693583 g / cm^3
# Si number density = 16.974463 Si / 1000 Ang^3
#
#
#
# Elastic Constant Matrix: (Units=GPa)
#
#
# Indices 1 2 3 4 5 6 
#
# 1 100.5504 56.5082 61.6720 1.3026 0.0000 0.0000
# 2 56.5082 100.5504 61.6720 -1.3026 0.0000 0.0000
# 3 61.6720 61.6720 114.7075 0.0000 0.0000 0.0000
# 4 1.3026 -1.3026 0.0000 26.2659 0.0000 0.0000
# 5 0.0000 0.0000 0.0000 0.0000 26.2659 1.3026
# 6 0.0000 0.0000 0.0000 0.0000 1.3026 22.0211
#
#
#
# Elastic Compliance Matrix: (Units=1/GPa)
#
#
# Indices 1 2 3 4 5 6 
#
# 1 0.016896 -0.005876 -0.005925 -0.001129 0.000000 0.000000
# 2 -0.005876 0.016896 -0.005925 0.001129 0.000000 0.000000
# 3 -0.005925 -0.005925 0.015089 0.000000 0.000000 0.000000
# 4 -0.001129 0.001129 0.000000 0.038184 0.000000 0.000000
# 5 0.000000 0.000000 0.000000 0.000000 0.038184 -0.002259
# 6 0.000000 0.000000 0.000000 0.000000 -0.002259 0.045545
#
#
# Mechanical properties :
#
#
# Convention : Reuss Voigt Hill
#
# Bulk Modulus (GPa) = 74.46353 75.05698 74.76026
# Shear Modulus (GPa) = 23.72787 23.97431 23.85109
#
# Velocity S-wave (km/s) = 3.74285 3.76224 3.75255
# Velocity P-wave (km/s) = 7.91465 7.94897 7.93183
#
# Compressibility (1/GPa) = 0.01342939
#
# Stress axis : x y z
#
# Youngs Moduli (GPa) = 59.18479 59.18479 66.27406
#
# Poissons Ratio (x) = 0.34778 0.39267
# Poissons Ratio (y) = 0.34778 0.39267
# Poissons Ratio (z) = 0.35067 0.35067
#
# Static dielectric constant tensor:
#      x y z
#    x 3.098770 0.000000 0.000000 
#    y 0.000000 3.098770 0.000000 
#    z 0.000000 0.000000 3.474740 
# 
# 
# High freq. dielectric constant tensor:
#      x y z
#    x 1.648820 0.000000 0.000000 
#    y 0.000000 1.648820 0.000000 
#    z 0.000000 0.000000 1.671610 
# 
# From -- ./inp_files/4859.got.cif
#   From: 2010.03.12/outbox.cif.g09.slc.cpg/sg164_3_cif.got.tgz:4859.got - 2010.04.02 06:32:59.
