data_PCOD8323692
_publ_section_title
;
Structure prediction by ZEFSAII (Michael W. Deem and Ramdas Pophale) SiO2 
 PCOD8323692
Probable space group: P -3 M 1
;
_chemical_formula_sum "Si O2"
_cell_formula_units_Z 60
_cell_length_a 12.592536
_cell_length_b 12.592536
_cell_length_c 25.547953
_cell_angle_alpha 90.000000
_cell_angle_beta 90.000000
_cell_angle_gamma 120.000000
_cell_volume 3508.432638
_symmetry_space_group_name_H-M "P -3 M 1"
_symmetry_group_IT_number 164
_symmetry_cell_setting 'hexagonal'
loop_
_space_group_symop_operation_xyz
x,y,z
-y,x-y,z
-x+y,-x,z
x-y,-y,-z
-x,-x+y,-z
y,x,-z
-x,-y,-z
y,-x+y,-z
x-y,x,-z
-x+y,y,z
x,x-y,z
-y,-x,z
loop_
_atom_site_type_symbol
_atom_site_label
_atom_site_fract_x
_atom_site_fract_y
_atom_site_fract_z
Si Si1 0.247389 0.001267 0.755030
Si Si2 0.912002 0.579932 0.543979
Si Si3 0.418819 0.335131 0.048640
Si Si4 0.914246 0.333086 0.852921
Si Si5 0.086838 0.667232 0.338473
O O1 0.205581 0.102791 0.755174
O O2 0.345995 0.027842 0.799830
O O3 0.309229 0.000712 0.699995
O O4 0.130170 0.869831 0.764493
O O5 0.780099 0.560197 0.533965
O O6 0.899699 0.449850 0.535206
O O7 0.959453 0.628677 0.602653
O O8 0.000000 0.674603 0.500000
O O9 0.409277 0.204639 0.048325
O O10 0.560782 0.439219 0.044433
O O11 0.358008 0.348109 0.101258
O O12 0.342986 0.342986 0.000000
O O13 0.887612 0.443806 0.845917
O O14 0.787355 0.212646 0.867116
O O15 0.076014 0.538007 0.325041
O O16 0.228637 0.771364 0.331178
#
# Coordination Sequence:
#
# PCOD8323692 Si02
#       5
#    12  12  12  12  12
#     4  10  20  33  49  69  95 127 160 193 232 281
#     4   9  17  29  46  68  93 122 156 194 237 283
#     4  10  20  34  53  76 103 135 169 205 245 290
#     4  10  20  34  54  78 102 128 160 201 245 287
#     4   9  17  30  49  71  93 119 154 198 243 284
#
# _framework density 17.101652999999999
#
# number of rings (size 3 to 8) (size 9 to 14) (size 15 to 20)
#    0.000    2.400    0.000    2.800    0.000    2.400 
#    0.000    4.000    0.000    9.400    0.000    0.000 
#    0.000    0.000    0.000    0.000    0.000    0.000 
#
# Total GULP energy -744043.609390 kJ/mol
# GULP energy per Si atom -12400.726823 kJ/mol
# Density = 1.706273 g / cm^3
# Si number density = 17.101653 Si / 1000 Ang^3
#
#
#
# Elastic Constant Matrix: (Units=GPa)
#
#
# Indices 1 2 3 4 5 6 
#
# 1 96.5272 51.5074 51.5497 -3.7717 0.0000 0.0000
# 2 51.5074 96.5272 51.5497 3.7717 0.0000 0.0000
# 3 51.5497 51.5497 114.4485 0.0000 0.0000 0.0000
# 4 -3.7717 3.7717 0.0000 24.4467 0.0000 0.0000
# 5 0.0000 0.0000 0.0000 0.0000 24.4467 -3.7717
# 6 0.0000 0.0000 0.0000 0.0000 -3.7717 22.5099
#
#
#
# Elastic Compliance Matrix: (Units=1/GPa)
#
#
# Indices 1 2 3 4 5 6 
#
# 1 0.016322 -0.006480 -0.004433 0.003518 0.000000 0.000000
# 2 -0.006480 0.016322 -0.004433 -0.003518 0.000000 0.000000
# 3 -0.004433 -0.004433 0.012731 0.000000 0.000000 0.000000
# 4 0.003518 -0.003518 0.000000 0.041991 0.000000 0.000000
# 5 0.000000 0.000000 0.000000 0.000000 0.041991 0.007036
# 6 0.000000 0.000000 0.000000 0.000000 0.007036 0.045604
#
#
# Mechanical properties :
#
#
# Convention : Reuss Voigt Hill
#
# Bulk Modulus (GPa) = 68.10403 68.52403 68.31403
# Shear Modulus (GPa) = 23.74750 24.47374 24.11062
#
# Velocity S-wave (km/s) = 3.73045 3.78706 3.75886
# Velocity P-wave (km/s) = 7.64621 7.69922 7.67276
#
# Compressibility (1/GPa) = 0.01468342
#
# Stress axis : x y z
#
# Youngs Moduli (GPa) = 61.26566 61.26566 78.54643
#
# Poissons Ratio (x) = 0.39697 0.34823
# Poissons Ratio (y) = 0.39697 0.34823
# Poissons Ratio (z) = 0.27161 0.27161
#
# Static dielectric constant tensor:
#      x y z
#    x 3.095710 0.000000 0.000000 
#    y 0.000000 3.095710 0.000000 
#    z 0.000000 0.000000 3.496480 
# 
# 
# High freq. dielectric constant tensor:
#      x y z
#    x 1.652730 0.000000 0.000000 
#    y 0.000000 1.652730 0.000000 
#    z 0.000000 0.000000 1.679070 
# 
# From -- ./inp_files/5156.got.cif
#   From: 2010.03.12/outbox.cif.g09.slc.cpg/sg164_3_cif.got.tgz:5156.got - 2010.04.02 06:32:59.
