data_PCOD8323603
_publ_section_title
;
Structure prediction by ZEFSAII (Michael W. Deem and Ramdas Pophale) SiO2 
 PCOD8323603
Probable space group: P -3 M 1
;
_chemical_formula_sum "Si O2"
_cell_formula_units_Z 84
_cell_length_a 17.521730
_cell_length_b 17.521730
_cell_length_c 20.542255
_cell_angle_alpha 90.000000
_cell_angle_beta 90.000000
_cell_angle_gamma 120.000000
_cell_volume 5461.761293
_symmetry_space_group_name_H-M "P -3 M 1"
_symmetry_group_IT_number 164
_symmetry_cell_setting 'hexagonal'
loop_
_space_group_symop_operation_xyz
x,y,z
-y,x-y,z
-x+y,-x,z
x-y,-y,-z
-x,-x+y,-z
y,x,-z
-x,-y,-z
y,-x+y,-z
x-y,x,-z
-x+y,y,z
x,x-y,z
-y,-x,z
loop_
_atom_site_type_symbol
_atom_site_label
_atom_site_fract_x
_atom_site_fract_y
_atom_site_fract_z
Si Si1 0.999824 0.177179 0.823955
Si Si2 0.822822 0.000176 0.676045
Si Si3 0.303575 0.062896 0.939375
Si Si4 0.664029 0.509239 0.608932
Si Si5 0.240681 0.937103 0.439375
Si Si6 0.835688 0.501083 0.750006
Si Si7 0.845211 0.335972 0.891080
O O1 0.091299 0.182597 0.841356
O O2 0.999882 0.209080 0.749999
O O3 0.985901 0.241242 0.872564
O O4 0.923561 0.076440 0.832883
O O5 0.923563 0.076438 0.667117
O O6 0.758762 0.014102 0.627435
O O7 0.817401 0.908701 0.658642
O O8 0.289858 0.144929 0.951470
O O9 0.407208 0.094392 0.935984
O O10 0.262147 0.000000 0.000000
O O11 0.744222 0.488443 0.610930
O O12 0.576651 0.423350 0.581709
O O13 0.687184 0.592789 0.564024
O O14 0.645980 0.534576 0.681943
O O15 0.144931 0.855070 0.451475
O O16 0.262160 0.000000 0.500000
O O17 0.767721 0.535441 0.750007
O O18 0.788585 0.394293 0.750004
O O19 0.888595 0.534573 0.818069
O O20 0.846699 0.423350 0.918305
O O21 0.744222 0.255779 0.889083
#
# Coordination Sequence:
#
# PCOD8323603 Si02
#       7
#    12  12  12  12  12  12  12
#     4   9  17  29  46  65  85 110 143 181 217 253
#     4   9  17  29  46  65  85 110 143 181 217 253
#     4  10  20  31  44  62  87 117 146 177 215 257
#     4   9  17  28  44  64  87 114 143 176 213 256
#     4  10  20  31  44  62  87 117 146 177 215 257
#     4   8  13  22  38  60  83 104 130 164 206 250
#     4   9  17  28  44  64  87 114 143 176 213 256
#
# _framework density 15.379655
#
# number of rings (size 3 to 8) (size 9 to 14) (size 15 to 20)
#    0.000    2.857    0.000    1.571    2.000    4.000 
#    0.000    0.000    0.000    4.571    0.000    0.000 
#    0.000    0.000    0.000    0.000    0.000    2.000 
#
# Total GULP energy -1040749.894128 kJ/mol
# GULP energy per Si atom -12389.879692 kJ/mol
# Density = 1.534465 g / cm^3
# Si number density = 15.379655 Si / 1000 Ang^3
#
#
#
# Elastic Constant Matrix: (Units=GPa)
#
#
# Indices 1 2 3 4 5 6 
#
# 1 74.9634 42.9987 46.5594 0.0009 0.0000 0.0000
# 2 42.9987 74.9634 46.5594 -0.0009 0.0000 0.0000
# 3 46.5594 46.5594 87.5980 0.0000 0.0000 0.0000
# 4 0.0009 -0.0009 0.0000 18.6597 0.0000 0.0000
# 5 0.0000 0.0000 0.0000 0.0000 18.6597 0.0009
# 6 0.0000 0.0000 0.0000 0.0000 0.0009 15.9823
#
#
#
# Elastic Compliance Matrix: (Units=1/GPa)
#
#
# Indices 1 2 3 4 5 6 
#
# 1 0.022945 -0.008340 -0.007763 -0.000002 0.000000 0.000000
# 2 -0.008340 0.022945 -0.007763 0.000002 0.000000 0.000000
# 3 -0.007763 -0.007763 0.019668 0.000000 0.000000 0.000000
# 4 -0.000002 0.000002 0.000000 0.053591 0.000000 0.000000
# 5 0.000000 0.000000 0.000000 0.000000 0.053591 -0.000003
# 6 0.000000 0.000000 0.000000 0.000000 -0.000003 0.062569
#
#
# Mechanical properties :
#
#
# Convention : Reuss Voigt Hill
#
# Bulk Modulus (GPa) = 56.09483 56.63998 56.36741
# Shear Modulus (GPa) = 17.30207 17.42083 17.36145
#
# Velocity S-wave (km/s) = 3.35774 3.36924 3.36349
# Velocity P-wave (km/s) = 7.18228 7.21412 7.19822
#
# Compressibility (1/GPa) = 0.01782695
#
# Stress axis : x y z
#
# Youngs Moduli (GPa) = 43.58263 43.58263 50.84420
#
# Poissons Ratio (x) = 0.36346 0.39470
# Poissons Ratio (y) = 0.36346 0.39470
# Poissons Ratio (z) = 0.33833 0.33833
#
# Static dielectric constant tensor:
#      x y z
#    x 2.810820 0.000000 0.000000 
#    y 0.000000 2.810820 0.000000 
#    z 0.000000 0.000000 2.964030 
# 
# 
# High freq. dielectric constant tensor:
#      x y z
#    x 1.571220 0.000000 0.000000 
#    y 0.000000 1.571220 0.000000 
#    z 0.000000 0.000000 1.586070 
# 
# From -- ./inp_files/4674.got.cif
#   From: 2010.03.12/outbox.cif.g09.slc.cpg/sg164_3_cif.got.tgz:4674.got - 2010.04.02 06:32:59.
