data_PCOD8323619
_publ_section_title
;
Structure prediction by ZEFSAII (Michael W. Deem and Ramdas Pophale) SiO2 
 PCOD8323619
Probable space group: P -3 M 1
;
_chemical_formula_sum "Si O2"
_cell_formula_units_Z 72
_cell_length_a 12.601658
_cell_length_b 12.601658
_cell_length_c 30.487264
_cell_angle_alpha 90.000000
_cell_angle_beta 90.000000
_cell_angle_gamma 120.000000
_cell_volume 4192.803036
_symmetry_space_group_name_H-M "P -3 M 1"
_symmetry_group_IT_number 164
_symmetry_cell_setting 'hexagonal'
loop_
_space_group_symop_operation_xyz
x,y,z
-y,x-y,z
-x+y,-x,z
x-y,-y,-z
-x,-x+y,-z
y,x,-z
-x,-y,-z
y,-x+y,-z
x-y,x,-z
-x+y,y,z
x,x-y,z
-y,-x,z
loop_
_atom_site_type_symbol
_atom_site_label
_atom_site_fract_x
_atom_site_fract_y
_atom_site_fract_z
Si Si1 0.249312 0.249312 0.000000
Si Si2 0.668595 0.086277 0.082399
Si Si3 0.912676 0.579653 0.754309
Si Si4 0.577333 0.666957 0.676278
Si Si5 0.752233 0.000000 0.500000
Si Si6 0.999616 0.247662 0.835719
Si Si7 0.911570 0.578411 0.422760
O O1 0.317107 0.330975 0.958044
O O2 0.116292 0.232584 0.007058
O O3 0.536742 0.073484 0.080240
O O4 0.771015 0.228986 0.080890
O O5 0.678608 0.023589 0.126544
O O6 0.772230 0.544459 0.751175
O O7 0.917468 0.458734 0.766874
O O8 0.975930 0.634565 0.707777
O O9 0.986053 0.681913 0.790609
O O10 0.591809 0.795905 0.690693
O O11 0.434110 0.565891 0.679539
O O12 0.625511 0.672044 0.626877
O O13 0.768460 0.884230 0.498314
O O14 0.682415 0.001736 0.543838
O O15 0.110295 0.220589 0.831226
O O16 0.878457 0.121544 0.847639
O O17 0.771810 0.543620 0.430055
O O18 0.920825 0.460413 0.433591
#
# Coordination Sequence:
#
# PCOD8323619 Si02
#       7
#     6  12  12  12   6  12  12
#     4  10  20  34  54  78 104 134 168 208 250 292
#     4  10  20  34  52  74 101 132 165 201 242 289
#     4  10  20  33  49  69  96 130 164 197 233 278
#     4   9  17  30  49  72  95 119 150 191 239 286
#     4  10  20  32  46  64  90 124 158 190 224 270
#     4  10  20  34  53  75  99 127 160 201 245 288
#     4   9  17  30  49  71  93 117 148 190 238 284
#
# _framework density 17.172283
#
# number of rings (size 3 to 8) (size 9 to 14) (size 15 to 20)
#    0.000    2.333    0.000    3.000    0.000    2.000 
#    0.000    1.667    0.000   10.667    0.000    0.000 
#    0.000    0.000    0.000    0.000    0.000    0.000 
#
# Total GULP energy -892968.416319 kJ/mol
# GULP energy per Si atom -12402.339116 kJ/mol
# Density = 1.713320 g / cm^3
# Si number density = 17.172283 Si / 1000 Ang^3
#
#
#
# Elastic Constant Matrix: (Units=GPa)
#
#
# Indices 1 2 3 4 5 6 
#
# 1 97.0583 54.2381 53.8291 1.5931 0.0000 0.0000
# 2 54.2381 97.0583 53.8291 -1.5931 0.0000 0.0000
# 3 53.8291 53.8291 111.8876 0.0000 0.0000 0.0000
# 4 1.5931 -1.5931 0.0000 26.6774 0.0000 0.0000
# 5 0.0000 0.0000 0.0000 0.0000 26.6774 1.5931
# 6 0.0000 0.0000 0.0000 0.0000 1.5931 21.4101
#
#
#
# Elastic Compliance Matrix: (Units=1/GPa)
#
#
# Indices 1 2 3 4 5 6 
#
# 1 0.016754 -0.006704 -0.004835 -0.001401 0.000000 0.000000
# 2 -0.006704 0.016754 -0.004835 0.001401 0.000000 0.000000
# 3 -0.004835 -0.004835 0.013590 0.000000 0.000000 0.000000
# 4 -0.001401 0.001401 0.000000 0.037652 0.000000 0.000000
# 5 0.000000 0.000000 0.000000 0.000000 0.037652 -0.002802
# 6 0.000000 0.000000 0.000000 0.000000 -0.002802 0.046915
#
#
# Mechanical properties :
#
#
# Convention : Reuss Voigt Hill
#
# Bulk Modulus (GPa) = 69.68815 69.97740 69.83277
# Shear Modulus (GPa) = 24.17230 24.56019 24.36625
#
# Velocity S-wave (km/s) = 3.75592 3.78593 3.77095
# Velocity P-wave (km/s) = 7.71227 7.74272 7.72751
#
# Compressibility (1/GPa) = 0.01434964
#
# Stress axis : x y z
#
# Youngs Moduli (GPa) = 59.68775 59.68775 73.58432
#
# Poissons Ratio (x) = 0.40014 0.35579
# Poissons Ratio (y) = 0.40014 0.35579
# Poissons Ratio (z) = 0.28859 0.28859
#
# Static dielectric constant tensor:
#      x y z
#    x 3.143260 0.000000 0.000000 
#    y 0.000000 3.143260 0.000000 
#    z 0.000000 0.000000 3.391580 
# 
# 
# High freq. dielectric constant tensor:
#      x y z
#    x 1.663520 0.000000 0.000000 
#    y 0.000000 1.663520 0.000000 
#    z 0.000000 0.000000 1.676430 
# 
# From -- ./inp_files/5611.got.cif
#   From: 2010.03.12/outbox.cif.g09.slc.cpg/sg164_3_cif.got.tgz:5611.got - 2010.04.02 06:32:59.
