data_PCOD8323279
_publ_section_title
;
Structure prediction by ZEFSAII (Michael W. Deem and Ramdas Pophale) SiO2 
 PCOD8323279
Probable space group: P -3 1 C
;
_chemical_formula_sum "Si O2"
_cell_formula_units_Z 60
_cell_length_a 14.212856
_cell_length_b 14.212856
_cell_length_c 15.311957
_cell_angle_alpha 90.000000
_cell_angle_beta 90.000000
_cell_angle_gamma 120.000000
_cell_volume 2678.699795
_symmetry_space_group_name_H-M "P -3 1 C"
_symmetry_group_IT_number 163
_symmetry_cell_setting 'hexagonal'
loop_
_space_group_symop_operation_xyz
x,y,z
-y,x-y,z
-x+y,-x,z
-y,-x,1/2-z
-x+y,y,1/2-z
x,x-y,1/2-z
-x,-y,-z
y,-x+y,-z
x-y,x,-z
y,x,1/2+z
x-y,-y,1/2+z
-x,-x+y,1/2+z
loop_
_atom_site_type_symbol
_atom_site_label
_atom_site_fract_x
_atom_site_fract_y
_atom_site_fract_z
Si Si1 0.956797 0.173460 0.525058
Si Si2 0.455236 0.183888 0.521706
Si Si3 0.105968 0.513054 0.545623
Si Si4 0.614372 0.050583 0.810987
Si Si5 0.000519 0.210337 0.720152
O O1 0.908259 0.245731 0.488050
O O2 0.013386 0.220328 0.616484
O O3 0.048254 0.183258 0.458452
O O4 0.458291 0.298441 0.513907
O O5 0.545787 0.188969 0.454480
O O6 0.471586 0.151805 0.620859
O O7 0.000000 0.500000 0.500000
O O8 0.066511 0.459964 0.640819
O O9 0.539547 0.079094 0.750000
O O10 0.700341 0.034081 0.751642
O O11 0.909459 0.090542 0.750000
O O12 0.119856 0.239712 0.750000
#
# Coordination Sequence:
#
# PCOD8323279 Si02
#       5
#    12  12  12  12  12
#     4  11  22  38  62  91 119 157 207 253 301 370
#     4  10  21  40  64  89 121 167 214 262 322 388
#     4  10  21  40  64  90 124 166 219 270 324 399
#     4  10  24  41  63  96 132 171 219 277 336 394
#     4  11  24  41  62  92 132 171 204 256 331 397
#
# _framework density 22.398928000000002
#
# number of rings (size 3 to 8) (size 9 to 14) (size 15 to 20)
#    0.000    1.600    0.000    5.600    0.000   11.200 
#    0.000    0.000    0.000    2.000    0.000    0.000 
#    0.000    0.000    0.000    0.000    0.000    0.000 
#
# Total GULP energy -743534.018411 kJ/mol
# GULP energy per Si atom -12392.233640 kJ/mol
# Density = 2.234795 g / cm^3
# Si number density = 22.398928 Si / 1000 Ang^3
#
#
#
# Elastic Constant Matrix: (Units=GPa)
#
#
# Indices 1 2 3 4 5 6 
#
# 1 115.5624 37.4333 39.6471 0.0001 -6.3728 0.0000
# 2 37.4333 115.5624 39.6471 -0.0001 6.3728 0.0000
# 3 39.6471 39.6471 49.9469 0.0000 0.0000 0.0000
# 4 0.0001 -0.0001 0.0000 29.2269 0.0000 6.3728
# 5 -6.3728 6.3728 0.0000 0.0000 29.2269 0.0001
# 6 0.0000 0.0000 0.0000 6.3728 0.0001 39.0645
#
#
#
# Elastic Compliance Matrix: (Units=1/GPa)
#
#
# Indices 1 2 3 4 5 6 
#
# 1 0.012188 -0.001083 -0.008815 0.000000 0.002894 0.000000
# 2 -0.001083 0.012188 -0.008815 0.000000 -0.002894 0.000000
# 3 -0.008815 -0.008815 0.034015 0.000000 0.000000 0.000000
# 4 0.000000 0.000000 0.000000 0.035477 0.000000 -0.005788
# 5 0.002894 -0.002894 0.000000 0.000000 0.035477 0.000000
# 6 0.000000 0.000000 0.000000 -0.005788 0.000000 0.026543
#
#
# Mechanical properties :
#
#
# Convention : Reuss Voigt Hill
#
# Bulk Modulus (GPa) = 47.69694 57.16964 52.43329
# Shear Modulus (GPa) = 24.96230 30.45993 27.71112
#
# Velocity S-wave (km/s) = 3.34195 3.69166 3.52115
# Velocity P-wave (km/s) = 6.01930 6.61437 6.32384
#
# Compressibility (1/GPa) = 0.02096570
#
# Stress axis : x y z
#
# Youngs Moduli (GPa) = 82.04801 82.04801 29.39866
#
# Poissons Ratio (x) = 0.08889 0.25914
# Poissons Ratio (y) = 0.08889 0.25914
# Poissons Ratio (z) = 0.72322 0.72322
#
# Static dielectric constant tensor:
#      x y z
#    x 4.574210 0.000000 0.000000 
#    y 0.000000 4.574210 0.000000 
#    z 0.000000 0.000000 3.886650 
# 
# 
# High freq. dielectric constant tensor:
#      x y z
#    x 1.896340 0.000000 0.000000 
#    y 0.000000 1.896340 0.000000 
#    z 0.000000 0.000000 1.843350 
# 
# From -- ./inp_files/2401.got.cif
#   From: 2010.03.12/outbox.cif.g09.slc.cpg/sg163_2_cif.got.tgz:2401.got - 2010.04.02 06:30:25.
