data_PCOD8323752
_publ_section_title
;
Structure prediction by ZEFSAII (Michael W. Deem and Ramdas Pophale) SiO2 
 PCOD8323752
Probable space group: P -3 M 1
;
_chemical_formula_sum "Si O2"
_cell_formula_units_Z 66
_cell_length_a 12.397519
_cell_length_b 12.397519
_cell_length_c 28.211456
_cell_angle_alpha 90.000000
_cell_angle_beta 90.000000
_cell_angle_gamma 120.000000
_cell_volume 3755.136234
_symmetry_space_group_name_H-M "P -3 M 1"
_symmetry_group_IT_number 164
_symmetry_cell_setting 'hexagonal'
loop_
_space_group_symop_operation_xyz
x,y,z
-y,x-y,z
-x+y,-x,z
x-y,-y,-z
-x,-x+y,-z
y,x,-z
-x,-y,-z
y,-x+y,-z
x-y,x,-z
-x+y,y,z
x,x-y,z
-y,-x,z
loop_
_atom_site_type_symbol
_atom_site_label
_atom_site_fract_x
_atom_site_fract_y
_atom_site_fract_z
Si Si1 0.412832 0.332900 0.955187
Si Si2 0.252751 0.001091 0.864490
Si Si3 0.918803 0.334977 0.316950
Si Si4 0.748275 0.000000 0.500000
Si Si5 0.333213 0.414434 0.226291
Si Si6 0.332962 0.414704 0.407938
O O1 0.431831 0.215916 0.959532
O O2 0.546994 0.453007 0.953646
O O3 0.341041 0.329403 0.907649
O O4 0.333791 0.333791 0.000000
O O5 0.217338 0.108669 0.866860
O O6 0.320669 0.005755 0.815770
O O7 0.129023 0.870978 0.868183
O O8 0.877957 0.438979 0.314313
O O9 0.798480 0.201521 0.311980
O O10 0.013061 0.352300 0.275095
O O11 0.985554 0.342072 0.366181
O O12 0.681999 0.021611 0.544413
O O13 0.882662 0.117339 0.489665
O O14 0.221576 0.443152 0.229224
O O15 0.457168 0.542833 0.216144
O O16 0.211178 0.422356 0.395710
O O17 0.446132 0.553869 0.413901
#
# Coordination Sequence:
#
# PCOD8323752 Si02
#       6
#    12  12  12   6  12  12
#     4  10  20  34  53  76 103 135 170 210 254 301
#     4  10  20  34  52  74 101 133 169 209 253 301
#     4  10  20  34  52  74 101 133 168 206 249 298
#     4  10  20  34  52  74 102 136 172 210 252 300
#     4  10  20  34  54  78 104 134 168 208 252 299
#     4  10  20  34  53  76 102 132 167 209 255 302
#
# _framework density 17.575928000000001
#
# number of rings (size 3 to 8) (size 9 to 14) (size 15 to 20)
#    0.000    2.000    0.000    4.000    0.000    0.000 
#    0.000    3.636    0.000   18.909    0.000    0.000 
#    0.000    0.000    0.000    0.000    0.000    0.000 
#
# Total GULP energy -818686.871246 kJ/mol
# GULP energy per Si atom -12404.346534 kJ/mol
# Density = 1.753592 g / cm^3
# Si number density = 17.575928 Si / 1000 Ang^3
#
#
#
# Elastic Constant Matrix: (Units=GPa)
#
#
# Indices 1 2 3 4 5 6 
#
# 1 66.3447 38.6762 24.0524 -5.1419 0.0000 0.0000
# 2 38.6762 66.3447 24.0524 5.1419 0.0000 0.0000
# 3 24.0524 24.0524 77.4811 0.0000 0.0000 0.0000
# 4 -5.1419 5.1419 0.0000 24.4151 0.0000 0.0000
# 5 0.0000 0.0000 0.0000 0.0000 24.4151 -5.1419
# 6 0.0000 0.0000 0.0000 0.0000 -5.1419 13.8342
#
#
#
# Elastic Compliance Matrix: (Units=1/GPa)
#
#
# Indices 1 2 3 4 5 6 
#
# 1 0.025156 -0.014056 -0.003446 0.008258 0.000000 0.000000
# 2 -0.014056 0.025156 -0.003446 -0.008258 0.000000 0.000000
# 3 -0.003446 -0.003446 0.015046 0.000000 0.000000 0.000000
# 4 0.008258 -0.008258 0.000000 0.044437 0.000000 0.000000
# 5 0.000000 0.000000 0.000000 0.000000 0.044437 0.016516
# 6 0.000000 0.000000 0.000000 0.000000 0.016516 0.078423
#
#
# Mechanical properties :
#
#
# Convention : Reuss Voigt Hill
#
# Bulk Modulus (GPa) = 42.62045 42.63695 42.62870
# Shear Modulus (GPa) = 17.70728 20.75886 19.23307
#
# Velocity S-wave (km/s) = 3.17752 3.44044 3.31159
# Velocity P-wave (km/s) = 6.14525 6.33194 6.23930
#
# Compressibility (1/GPa) = 0.02346291
#
# Stress axis : x y z
#
# Youngs Moduli (GPa) = 39.75202 39.75202 66.46391
#
# Poissons Ratio (x) = 0.55874 0.22903
# Poissons Ratio (y) = 0.55874 0.22903
# Poissons Ratio (z) = 0.13698 0.13698
#
# Static dielectric constant tensor:
#      x y z
#    x 3.262900 0.000000 0.000000 
#    y 0.000000 3.262900 0.000000 
#    z 0.000000 0.000000 3.431060 
# 
# 
# High freq. dielectric constant tensor:
#      x y z
#    x 1.686590 0.000000 0.000000 
#    y 0.000000 1.686590 0.000000 
#    z 0.000000 0.000000 1.698250 
# 
# From -- ./inp_files/5520.got.cif
#   From: 2010.03.12/outbox.cif.g09.slc.cpg/sg164_3_cif.got.tgz:5520.got - 2010.04.02 06:32:59.
