data_PCOD8323855
_publ_section_title
;
Structure prediction by ZEFSAII (Michael W. Deem and Ramdas Pophale) SiO2 
 PCOD8323855
Probable space group: P -3 C 1
;
_chemical_formula_sum "Si O2"
_cell_formula_units_Z 84
_cell_length_a 20.736156
_cell_length_b 20.736156
_cell_length_c 12.329461
_cell_angle_alpha 90.000000
_cell_angle_beta 90.000000
_cell_angle_gamma 120.000000
_cell_volume 4591.253007
_symmetry_space_group_name_H-M "P -3 C 1"
_symmetry_group_IT_number 165
_symmetry_cell_setting 'hexagonal'
loop_
_space_group_symop_operation_xyz
x,y,z
-y,x-y,z
-x+y,-x,z
x-y,-y,1/2-z
-x,-x+y,1/2-z
y,x,1/2-z
-x,-y,-z
y,-x+y,-z
x-y,x,-z
-x+y,y,1/2+z
x,x-y,1/2+z
-y,-x,1/2+z
loop_
_atom_site_type_symbol
_atom_site_label
_atom_site_fract_x
_atom_site_fract_y
_atom_site_fract_z
Si Si1 0.400507 0.034151 0.636116
Si Si2 0.182385 0.524979 0.781067
Si Si3 0.307683 0.210158 0.546550
Si Si4 0.193740 0.673563 0.831236
Si Si5 0.372559 0.084947 0.263680
Si Si6 0.545234 0.879040 0.052847
Si Si7 0.300924 0.233006 0.988055
O O1 0.483391 0.103932 0.653536
O O2 0.354898 0.067715 0.579489
O O3 0.360480 0.000000 0.750000
O O4 0.399164 0.966348 0.567129
O O5 0.213220 0.612979 0.785507
O O6 0.244854 0.511550 0.836598
O O7 0.170302 0.496177 0.657485
O O8 0.334213 0.225762 0.670590
O O9 0.377419 0.257263 0.466594
O O10 0.242676 0.229518 0.527565
O O11 0.271607 0.122945 0.523904
O O12 0.134825 0.673646 0.746541
O O13 0.157472 0.648858 0.950497
O O14 0.347575 0.099300 0.378441
O O15 0.352477 0.000000 0.250000
#
# Coordination Sequence:
#
# PCOD8323855 Si02
#       7
#    12  12  12  12  12  12  12
#     4   9  19  35  55  79 102 129 167 217 267 300
#     4  11  23  37  53  75 106 137 171 207 248 309
#     4   9  18  32  52  78 105 134 169 207 258 308
#     4  11  23  37  54  77 104 139 175 203 251 312
#     4   9  19  34  53  77 101 130 172 219 258 296
#     4   9  20  37  55  77 101 130 170 219 261 294
#     4  10  18  32  54  77 105 135 168 212 257 300
#
# _framework density 18.295659000000001
#
# number of rings (size 3 to 8) (size 9 to 14) (size 15 to 20)
#    0.000    2.286    0.000    3.714    0.000    6.857 
#    0.000    0.000    0.000    0.286    0.000    0.000 
#    0.000    3.429    0.000    0.000    0.000    0.143 
#
# Total GULP energy -1041541.792984 kJ/mol
# GULP energy per Si atom -12399.307059 kJ/mol
# Density = 1.825402 g / cm^3
# Si number density = 18.295659 Si / 1000 Ang^3
#
#
#
# Elastic Constant Matrix: (Units=GPa)
#
#
# Indices 1 2 3 4 5 6 
#
# 1 93.8494 50.9640 49.0316 -0.3403 0.0000 0.0000
# 2 50.9640 93.8494 49.0316 0.3403 0.0000 0.0000
# 3 49.0316 49.0316 104.3961 0.0000 0.0000 0.0000
# 4 -0.3403 0.3403 0.0000 18.8334 0.0000 0.0000
# 5 0.0000 0.0000 0.0000 0.0000 18.8334 -0.3403
# 6 0.0000 0.0000 0.0000 0.0000 -0.3403 21.4427
#
#
#
# Elastic Compliance Matrix: (Units=1/GPa)
#
#
# Indices 1 2 3 4 5 6 
#
# 1 0.016725 -0.006599 -0.004756 0.000421 0.000000 0.000000
# 2 -0.006599 0.016725 -0.004756 -0.000421 0.000000 0.000000
# 3 -0.004756 -0.004756 0.014046 0.000000 0.000000 0.000000
# 4 0.000421 -0.000421 0.000000 0.053112 0.000000 0.000000
# 5 0.000000 0.000000 0.000000 0.000000 0.053112 0.000843
# 6 0.000000 0.000000 0.000000 0.000000 0.000843 0.046649
#
#
# Mechanical properties :
#
#
# Convention : Reuss Voigt Hill
#
# Bulk Modulus (GPa) = 65.46742 65.57213 65.51978
# Shear Modulus (GPa) = 21.03631 21.35977 21.19804
#
# Velocity S-wave (km/s) = 3.39455 3.42054 3.40757
# Velocity P-wave (km/s) = 7.15714 7.17762 7.16739
#
# Compressibility (1/GPa) = 0.01527477
#
# Stress axis : x y z
#
# Youngs Moduli (GPa) = 59.78973 59.78973 71.19348
#
# Poissons Ratio (x) = 0.39457 0.33858
# Poissons Ratio (y) = 0.39457 0.33858
# Poissons Ratio (z) = 0.28435 0.28435
#
# Static dielectric constant tensor:
#      x y z
#    x 3.263470 0.000000 0.000000 
#    y 0.000000 3.263470 0.000000 
#    z 0.000000 0.000000 3.547100 
# 
# 
# High freq. dielectric constant tensor:
#      x y z
#    x 1.696110 0.000000 0.000000 
#    y 0.000000 1.696110 0.000000 
#    z 0.000000 0.000000 1.719190 
# 
# From -- ./inp_files/1226.got.cif
#   From: 2010.03.12/outbox.cif.g09.slc.cpg/sg165_1_cif.got.tgz:1226.got - 2010.04.02 06:36:38.
