data_PCOD8323860
_publ_section_title
;
Structure prediction by ZEFSAII (Michael W. Deem and Ramdas Pophale) SiO2 
 PCOD8323860
Probable space group: P -3 C 1
;
_chemical_formula_sum "Si O2"
_cell_formula_units_Z 72
_cell_length_a 23.302919
_cell_length_b 23.302919
_cell_length_c 8.877547
_cell_angle_alpha 90.000000
_cell_angle_beta 90.000000
_cell_angle_gamma 120.000000
_cell_volume 4174.882559
_symmetry_space_group_name_H-M "P -3 C 1"
_symmetry_group_IT_number 165
_symmetry_cell_setting 'hexagonal'
loop_
_space_group_symop_operation_xyz
x,y,z
-y,x-y,z
-x+y,-x,z
x-y,-y,1/2-z
-x,-x+y,1/2-z
y,x,1/2-z
-x,-y,-z
y,-x+y,-z
x-y,x,-z
-x+y,y,1/2+z
x,x-y,1/2+z
-y,-x,1/2+z
loop_
_atom_site_type_symbol
_atom_site_label
_atom_site_fract_x
_atom_site_fract_y
_atom_site_fract_z
Si Si1 0.138292 0.399353 0.925168
Si Si2 0.074094 0.803561 0.925150
Si Si3 0.729467 0.925906 0.574849
Si Si4 0.454360 0.789310 0.074115
Si Si5 0.454360 0.665049 0.925885
Si Si6 0.861707 0.261060 0.925168
O O1 0.146750 0.471941 0.951391
O O2 0.135304 0.383100 0.750000
O O3 0.076723 0.336927 0.006000
O O4 0.201544 0.403089 0.000001
O O5 0.090586 0.807968 0.750000
O O6 0.000000 0.790365 0.953605
O O7 0.126778 0.873223 0.999999
O O8 0.076724 0.739797 0.993999
O O9 0.438901 0.774538 0.250000
O O10 0.528059 0.853249 0.048608
O O11 0.445668 0.722834 1.000000
O O12 0.404778 0.809555 1.000000
#
# Coordination Sequence:
#
# PCOD8323860 Si02
#       6
#    12  12  12  12  12  12
#     4   9  17  29  46  67  91 122 158 196 238 280
#     4  10  20  33  52  78 103 127 155 187 225 268
#     4  10  20  33  52  78 103 127 155 187 225 268
#     4  10  19  29  42  62  89 122 160 202 248 294
#     4  10  19  29  42  62  89 122 160 202 248 294
#     4   9  17  29  46  67  91 122 158 196 238 280
#
# _framework density 17.245992999999999
#
# number of rings (size 3 to 8) (size 9 to 14) (size 15 to 20)
#    0.000    2.333    0.000    5.333    0.000    6.667 
#    0.000    0.000    0.000    1.333    0.000    0.000 
#    0.000    0.000    0.000    0.000    0.000    0.000 
#
# Total GULP energy -891982.656181 kJ/mol
# GULP energy per Si atom -12388.648003 kJ/mol
# Density = 1.720674 g / cm^3
# Si number density = 17.245993 Si / 1000 Ang^3
#
#
#
# Elastic Constant Matrix: (Units=GPa)
#
#
# Indices 1 2 3 4 5 6 
#
# 1 93.9152 50.3476 56.0366 0.0000 0.0000 0.0000
# 2 50.3476 93.9152 56.0366 0.0000 0.0000 0.0000
# 3 56.0366 56.0366 140.0227 0.0000 0.0000 0.0000
# 4 0.0000 0.0000 0.0000 23.2744 0.0000 0.0000
# 5 0.0000 0.0000 0.0000 0.0000 23.2744 0.0000
# 6 0.0000 0.0000 0.0000 0.0000 0.0000 21.7838
#
#
#
# Elastic Compliance Matrix: (Units=1/GPa)
#
#
# Indices 1 2 3 4 5 6 
#
# 1 0.016506 -0.006447 -0.004026 0.000000 0.000000 0.000000
# 2 -0.006447 0.016506 -0.004026 0.000000 0.000000 0.000000
# 3 -0.004026 -0.004026 0.010364 0.000000 0.000000 0.000000
# 4 0.000000 0.000000 0.000000 0.042966 0.000000 0.000000
# 5 0.000000 0.000000 0.000000 0.000000 0.042966 0.000000
# 6 0.000000 0.000000 0.000000 0.000000 0.000000 0.045906
#
#
# Mechanical properties :
#
#
# Convention : Reuss Voigt Hill
#
# Bulk Modulus (GPa) = 69.54307 72.52164 71.03236
# Shear Modulus (GPa) = 23.92315 24.69531 24.30923
#
# Velocity S-wave (km/s) = 3.72852 3.78821 3.75848
# Velocity P-wave (km/s) = 7.67773 7.82794 7.75320
#
# Compressibility (1/GPa) = 0.01437958
#
# Stress axis : x y z
#
# Youngs Moduli (GPa) = 60.58390 60.58390 96.48960
#
# Poissons Ratio (x) = 0.39057 0.38843
# Poissons Ratio (y) = 0.39057 0.38843
# Poissons Ratio (z) = 0.24389 0.24389
#
# Static dielectric constant tensor:
#      x y z
#    x 3.427400 0.000000 0.000000 
#    y 0.000000 3.427400 0.000000 
#    z 0.000000 0.000000 3.454080 
# 
# 
# High freq. dielectric constant tensor:
#      x y z
#    x 1.643860 0.000000 0.000000 
#    y 0.000000 1.643860 0.000000 
#    z 0.000000 0.000000 1.690160 
# 
# From -- ./inp_files/775.got.cif
#   From: 2010.03.12/outbox.cif.g09.slc.cpg/sg165_1_cif.got.tgz:775.got - 2010.04.02 06:36:38.
