data_PCOD8323896
_publ_section_title
;
Structure prediction by ZEFSAII (Michael W. Deem and Ramdas Pophale) SiO2 
 PCOD8323896
Probable space group: P -3 C 1
;
_chemical_formula_sum "Si O2"
_cell_formula_units_Z 42
_cell_length_a 14.264732
_cell_length_b 14.264732
_cell_length_c 14.118127
_cell_angle_alpha 90.000000
_cell_angle_beta 90.000000
_cell_angle_gamma 120.000000
_cell_volume 2487.911625
_symmetry_space_group_name_H-M "P -3 C 1"
_symmetry_group_IT_number 165
_symmetry_cell_setting 'hexagonal'
loop_
_space_group_symop_operation_xyz
x,y,z
-y,x-y,z
-x+y,-x,z
x-y,-y,1/2-z
-x,-x+y,1/2-z
y,x,1/2-z
-x,-y,-z
y,-x+y,-z
x-y,x,-z
-x+y,y,1/2+z
x,x-y,1/2+z
-y,-x,1/2+z
loop_
_atom_site_type_symbol
_atom_site_label
_atom_site_fract_x
_atom_site_fract_y
_atom_site_fract_z
Si Si1 0.094929 0.723043 0.812777
Si Si2 0.099651 0.367212 0.693565
Si Si3 0.496229 0.496229 0.250000
Si Si4 0.749628 0.920168 0.002211
O O1 0.207120 0.794270 0.758301
O O2 0.000000 0.724848 0.750000
O O3 0.072897 0.599612 0.817979
O O4 0.097391 0.767614 0.916172
O O5 0.117382 0.326757 0.593675
O O6 0.000000 0.267617 0.750000
O O7 0.073634 0.465724 0.682737
O O8 0.802396 0.845192 0.988977
#
# Coordination Sequence:
#
# PCOD8323896 Si02
#       4
#    12  12   6  12
#     4  10  20  38  56  81 114 151 188 241 288 342
#     4  10  20  38  56  81 114 151 188 241 288 342
#     4   8  20  38  56  80 108 152 184 238 294 332
#     4  12  21  33  58  84 116 152 192 227 287 344
#
# _framework density 16.881627999999999
#
# number of rings (size 3 to 8) (size 9 to 14) (size 15 to 20)
#    1.714    0.000    5.714    0.286    0.000    1.143 
#    1.714    0.000    0.000    0.000    0.000    0.000 
#    0.000    0.000    0.000    0.000    0.000    0.000 
#
# Total GULP energy -520373.658934 kJ/mol
# GULP energy per Si atom -12389.849022 kJ/mol
# Density = 1.684320 g / cm^3
# Si number density = 16.881628 Si / 1000 Ang^3
#
#
#
# Elastic Constant Matrix: (Units=GPa)
#
#
# Indices 1 2 3 4 5 6 
#
# 1 83.3423 25.3329 12.0998 -4.6435 0.0000 0.0000
# 2 25.3329 83.3423 12.0998 4.6435 0.0000 0.0000
# 3 12.0998 12.0998 75.2811 0.0000 0.0000 0.0000
# 4 -4.6435 4.6435 0.0000 11.7386 0.0000 0.0000
# 5 0.0000 0.0000 0.0000 0.0000 11.7386 -4.6435
# 6 0.0000 0.0000 0.0000 0.0000 -4.6435 29.0047
#
#
#
# Elastic Compliance Matrix: (Units=1/GPa)
#
#
# Indices 1 2 3 4 5 6 
#
# 1 0.013974 -0.004430 -0.001534 0.007280 0.000000 0.000000
# 2 -0.004430 0.013974 -0.001534 -0.007280 0.000000 0.000000
# 3 -0.001534 -0.001534 0.013777 0.000000 0.000000 0.000000
# 4 0.007280 -0.007280 0.000000 0.090949 0.000000 0.000000
# 5 0.000000 0.000000 0.000000 0.000000 0.090949 0.014560
# 6 0.000000 0.000000 0.000000 0.000000 0.014560 0.036808
#
#
# Mechanical properties :
#
#
# Convention : Reuss Voigt Hill
#
# Bulk Modulus (GPa) = 37.41436 37.89229 37.65333
# Shear Modulus (GPa) = 17.58484 23.32526 20.45505
#
# Velocity S-wave (km/s) = 3.23097 3.72115 3.48469
# Velocity P-wave (km/s) = 6.01080 6.39978 6.20834
#
# Compressibility (1/GPa) = 0.02672771
#
# Stress axis : x y z
#
# Youngs Moduli (GPa) = 71.56303 71.56303 72.58679
#
# Poissons Ratio (x) = 0.31705 0.11134
# Poissons Ratio (y) = 0.31705 0.11134
# Poissons Ratio (z) = 0.10977 0.10977
#
# Static dielectric constant tensor:
#      x y z
#    x 3.062560 0.000000 0.000000 
#    y 0.000000 3.062560 0.000000 
#    z 0.000000 0.000000 3.020390 
# 
# 
# High freq. dielectric constant tensor:
#      x y z
#    x 1.645180 0.000000 0.000000 
#    y 0.000000 1.645180 0.000000 
#    z 0.000000 0.000000 1.645120 
# 
# From -- ./inp_files/985.got.cif
#   From: 2010.03.12/outbox.cif.g09.slc.cpg/sg165_1_cif.got.tgz:985.got - 2010.04.02 06:36:38.
