data_PCOD8323353
_publ_section_title
;
Structure prediction by ZEFSAII (Michael W. Deem and Ramdas Pophale) SiO2 
 PCOD8323353
Probable space group: P -3 1 C
;
_chemical_formula_sum "Si O2"
_cell_formula_units_Z 72
_cell_length_a 17.207493
_cell_length_b 17.207493
_cell_length_c 18.136553
_cell_angle_alpha 90.000000
_cell_angle_beta 90.000000
_cell_angle_gamma 120.000000
_cell_volume 4650.724186
_symmetry_space_group_name_H-M "P -3 1 C"
_symmetry_group_IT_number 163
_symmetry_cell_setting 'hexagonal'
loop_
_space_group_symop_operation_xyz
x,y,z
-y,x-y,z
-x+y,-x,z
-y,-x,1/2-z
-x+y,y,1/2-z
x,x-y,1/2-z
-x,-y,-z
y,-x+y,-z
x-y,x,-z
y,x,1/2+z
x-y,-y,1/2+z
-x,-x+y,1/2+z
loop_
_atom_site_type_symbol
_atom_site_label
_atom_site_fract_x
_atom_site_fract_y
_atom_site_fract_z
Si Si1 0.364265 0.270384 0.031780
Si Si2 0.667427 0.157422 0.602602
Si Si3 0.573314 0.604638 0.833473
Si Si4 0.729616 0.635735 0.031780
Si Si5 0.332573 0.842578 0.102602
Si Si6 0.395362 0.968676 0.666527
O O1 0.395491 0.310850 0.113171
O O2 0.328493 0.164247 0.034520
O O3 0.284020 0.284020 0.000000
O O4 0.450282 0.322463 0.979306
O O5 0.638441 0.075486 0.658644
O O6 0.677537 0.127819 0.520694
O O7 0.760484 0.239516 0.631882
O O8 0.594462 0.188924 0.598761
O O9 0.579813 0.638723 0.750000
O O10 0.471871 0.528129 0.853060
O O11 0.689150 0.604509 0.113171
O O12 0.361559 0.924514 0.158644
#
# Coordination Sequence:
#
# PCOD8323353 Si02
#       6
#    12  12  12  12  12  12
#     4   9  17  29  45  63  82 106 139 178 217 256
#     4   9  16  26  41  61  85 113 143 172 201 235
#     4   9  17  28  41  59  85 114 141 170 204 242
#     4   9  17  29  45  63  82 106 139 178 217 256
#     4   9  16  26  41  61  85 113 143 172 201 235
#     4   9  17  28  41  59  85 114 141 170 204 242
#
# _framework density 15.481460999999999
#
# number of rings (size 3 to 8) (size 9 to 14) (size 15 to 20)
#    0.000    3.000    0.000    1.333    0.000    5.333 
#    0.000    0.000    0.000    3.000    0.000    0.000 
#    0.000    0.000    0.000    1.000    0.000    0.000 
#
# Total GULP energy -892689.520177 kJ/mol
# GULP energy per Si atom -12398.465558 kJ/mol
# Density = 1.544622 g / cm^3
# Si number density = 15.481461 Si / 1000 Ang^3
#
#
#
# Elastic Constant Matrix: (Units=GPa)
#
#
# Indices 1 2 3 4 5 6 
#
# 1 73.1665 30.7066 26.8885 0.0000 0.0000 0.0000
# 2 30.7066 73.1665 26.8885 0.0000 0.0000 0.0000
# 3 26.8885 26.8885 80.5274 0.0000 0.0000 0.0000
# 4 0.0000 0.0000 0.0000 15.7000 0.0000 0.0000
# 5 0.0000 0.0000 0.0000 0.0000 15.7000 0.0000
# 6 0.0000 0.0000 0.0000 0.0000 0.0000 21.2299
#
#
#
# Elastic Compliance Matrix: (Units=1/GPa)
#
#
# Indices 1 2 3 4 5 6 
#
# 1 0.017595 -0.005956 -0.003886 0.000000 0.000000 0.000000
# 2 -0.005956 0.017595 -0.003886 0.000000 0.000000 0.000000
# 3 -0.003886 -0.003886 0.015013 0.000000 0.000000 0.000000
# 4 0.000000 0.000000 0.000000 0.063694 0.000000 0.000000
# 5 0.000000 0.000000 0.000000 0.000000 0.063694 0.000000
# 6 0.000000 0.000000 0.000000 0.000000 0.000000 0.047103
#
#
# Mechanical properties :
#
#
# Convention : Reuss Voigt Hill
#
# Bulk Modulus (GPa) = 43.96310 43.98083 43.97196
# Shear Modulus (GPa) = 19.25031 20.01779 19.63405
#
# Velocity S-wave (km/s) = 3.53007 3.59975 3.56508
# Velocity P-wave (km/s) = 6.71373 6.76373 6.73877
#
# Compressibility (1/GPa) = 0.02274635
#
# Stress axis : x y z
#
# Youngs Moduli (GPa) = 56.83298 56.83298 66.60679
#
# Poissons Ratio (x) = 0.33851 0.25886
# Poissons Ratio (y) = 0.33851 0.25886
# Poissons Ratio (z) = 0.22087 0.22087
#
# Static dielectric constant tensor:
#      x y z
#    x 2.872450 0.000000 0.000000 
#    y 0.000000 2.872450 0.000000 
#    z 0.000000 0.000000 2.904240 
# 
# 
# High freq. dielectric constant tensor:
#      x y z
#    x 1.577550 0.000000 0.000000 
#    y 0.000000 1.577550 0.000000 
#    z 0.000000 0.000000 1.595440 
# 
# From -- ./inp_files/3202.got.cif
#   From: 2010.03.12/outbox.cif.g09.slc.cpg/sg163_2_cif.got.tgz:3202.got - 2010.04.02 06:30:25.
