data_PCOD8323035
_publ_section_title
;
Structure prediction by ZEFSAII (Michael W. Deem and Ramdas Pophale) SiO2 
 PCOD8323035
Probable space group: P -3 1 M 
;
_chemical_formula_sum "Si O2"
_cell_formula_units_Z 78
_cell_length_a 23.215182
_cell_length_b 23.215182
_cell_length_c 8.943826
_cell_angle_alpha 90.000000
_cell_angle_beta 90.000000
_cell_angle_gamma 120.000000
_cell_volume 4174.439380
_symmetry_space_group_name_H-M "P -3 1 M "
_symmetry_group_IT_number 162
_symmetry_cell_setting 'hexagonal'
loop_
_space_group_symop_operation_xyz
x,y,z
-y,x-y,z
-x+y,-x,z
-y,-x,-z
-x+y,y,-z
x,x-y,-z
-x,-y,-z
y,-x+y,-z
x-y,x,-z
y,x,z
x-y,-y,z
-x,-x+y,z
loop_
_atom_site_type_symbol
_atom_site_label
_atom_site_fract_x
_atom_site_fract_y
_atom_site_fract_z
Si Si1 0.192364 0.812955 0.174943
Si Si2 0.796041 0.385468 0.322359
Si Si3 0.482949 0.071423 0.384551
Si Si4 0.196566 0.924225 0.647126
Si Si5 0.922251 0.077750 0.500000
Si Si6 0.074777 0.719218 0.615743
Si Si7 0.248432 0.720644 0.174530
O O1 0.121270 0.802559 0.221556
O O2 0.252849 0.881889 0.234895
O O3 0.207595 0.755814 0.230644
O O4 0.189277 0.810724 0.000000
O O5 0.789484 0.394742 0.500000
O O6 0.866213 0.390544 0.277365
O O7 0.739591 0.312778 0.275272
O O8 0.797626 0.441546 0.215397
O O9 0.536081 0.072162 0.500000
O O10 0.423058 0.080577 0.455584
O O11 0.448201 0.000000 0.299210
O O12 0.123830 0.918269 0.631355
O O13 0.219024 0.900866 0.498097
O O14 0.251383 0.000000 0.684814
O O15 0.000000 0.108757 0.449760
O O16 0.000000 0.695245 0.665224
O O17 0.267297 0.732704 0.000000
#
# Coordination Sequence:
#
# PCOD8323035 Si02
#       7
#    12  12  12  12   6  12  12
#     4  11  23  37  55  83 118 155 191 230 281 343
#     4  11  22  36  60  84 104 137 189 238 279 332
#     4   9  19  34  55  85 111 137 178 233 291 335
#     4  10  21  36  59  87 116 151 192 239 285 334
#     4  10  19  34  58  90 122 152 188 232 284 336
#     4  10  19  36  61  84 112 148 189 239 289 335
#     4  11  24  40  55  76 113 152 184 231 290 347
#
# _framework density 18.685143
#
# number of rings (size 3 to 8) (size 9 to 14) (size 15 to 20)
#    0.000    1.692    3.077    1.308    4.308    1.846 
#    0.000    0.000    0.000    2.769    0.000    0.000 
#    0.000    3.077    0.000    0.000    0.000    0.000 
#
# Total GULP energy -966377.623809 kJ/mol
# GULP energy per Si atom -12389.456715 kJ/mol
# Density = 1.864261 g / cm^3
# Si number density = 18.685143 Si / 1000 Ang^3
#
#
#
# Elastic Constant Matrix: (Units=GPa)
#
#
# Indices 1 2 3 4 5 6 
#
# 1 119.7975 53.4133 28.8323 0.0000 -0.9195 0.0000
# 2 53.4133 119.7975 28.8323 0.0000 0.9195 0.0000
# 3 28.8323 28.8323 51.2580 0.0000 0.0000 0.0000
# 4 0.0000 0.0000 0.0000 21.5060 0.0000 0.9195
# 5 -0.9195 0.9195 0.0000 0.0000 21.5060 0.0000
# 6 0.0000 0.0000 0.0000 0.9195 0.0000 33.1921
#
#
#
# Elastic Compliance Matrix: (Units=1/GPa)
#
#
# Indices 1 2 3 4 5 6 
#
# 1 0.011093 -0.003989 -0.003996 0.000000 0.000645 0.000000
# 2 -0.003989 0.011093 -0.003996 0.000000 -0.000645 0.000000
# 3 -0.003996 -0.003996 0.024004 0.000000 0.000000 0.000000
# 4 0.000000 0.000000 0.000000 0.046554 0.000000 -0.001290
# 5 0.000645 -0.000645 0.000000 0.000000 0.046554 0.000000
# 6 0.000000 0.000000 0.000000 -0.001290 0.000000 0.030163
#
#
# Mechanical properties :
#
#
# Convention : Reuss Voigt Hill
#
# Bulk Modulus (GPa) = 44.98720 57.00100 50.99410
# Shear Modulus (GPa) = 24.89654 27.22580 26.06117
#
# Velocity S-wave (km/s) = 3.65420 3.82132 3.73869
# Velocity P-wave (km/s) = 6.47557 7.07405 6.78141
#
# Compressibility (1/GPa) = 0.02222854
#
# Stress axis : x y z
#
# Youngs Moduli (GPa) = 90.15003 90.15003 41.65926
#
# Poissons Ratio (x) = 0.35962 0.16646
# Poissons Ratio (y) = 0.35962 0.16646
# Poissons Ratio (z) = 0.36021 0.36021
#
# Static dielectric constant tensor:
#      x y z
#    x 3.879090 0.000000 0.000000 
#    y 0.000000 3.879090 0.000000 
#    z 0.000000 0.000000 2.980040 
# 
# 
# High freq. dielectric constant tensor:
#      x y z
#    x 1.748720 0.000000 0.000000 
#    y 0.000000 1.748720 0.000000 
#    z 0.000000 0.000000 1.672170 
# 
# From -- ./inp_files/1823.got.cif
#   From: 2010.03.12/outbox.cif.g09.slc.cpg/sg162_1_cif.got.tgz:1823.got - 2010.04.02 06:27:41.
