data_PCOD8323091
_publ_section_title
;
Structure prediction by ZEFSAII (Michael W. Deem and Ramdas Pophale) SiO2 
 PCOD8323091
Probable space group: P -3 1 M 
;
_chemical_formula_sum "Si O2"
_cell_formula_units_Z 60
_cell_length_a 17.329750
_cell_length_b 17.329750
_cell_length_c 12.215402
_cell_angle_alpha 90.000000
_cell_angle_beta 90.000000
_cell_angle_gamma 120.000000
_cell_volume 3177.042253
_symmetry_space_group_name_H-M "P -3 1 M "
_symmetry_group_IT_number 162
_symmetry_cell_setting 'hexagonal'
loop_
_space_group_symop_operation_xyz
x,y,z
-y,x-y,z
-x+y,-x,z
-y,-x,-z
-x+y,y,-z
x,x-y,-z
-x,-y,-z
y,-x+y,-z
x-y,x,-z
y,x,z
x-y,-y,z
-x,-x+y,z
loop_
_atom_site_type_symbol
_atom_site_label
_atom_site_fract_x
_atom_site_fract_y
_atom_site_fract_z
Si Si1 0.477569 0.159848 0.939322
Si Si2 0.736627 0.633605 0.732403
Si Si3 0.098509 0.597686 0.847938
Si Si4 0.895829 0.273186 0.326769
Si Si5 0.366288 0.896108 0.533632
O O1 0.393712 0.124582 0.858980
O O2 0.559683 0.165818 0.867640
O O3 0.505999 0.253000 0.000000
O O4 0.450427 0.088367 0.036900
O O5 0.709918 0.709918 0.716751
O O6 0.839531 0.671979 0.698015
O O7 0.674024 0.546907 0.656376
O O8 0.134922 0.673234 0.754846
O O9 0.000000 0.517763 0.813363
O O10 0.868854 0.286371 0.448074
O O11 0.000000 0.305834 0.312289
O O12 0.424695 0.849390 0.500000
O O13 0.431752 0.000000 0.522747
#
# Coordination Sequence:
#
# PCOD8323091 Si02
#       5
#    12  12  12  12  12
#     4  11  20  34  51  77 107 138 183 221 270 329
#     4  11  21  35  55  81 110 142 183 231 280 328
#     4  10  20  36  55  74 104 144 181 223 276 327
#     4  10  20  36  57  82 109 143 190 233 274 332
#     4   9  18  33  56  81 107 141 178 215 262 325
#
# _framework density 18.885490999999998
#
# number of rings (size 3 to 8) (size 9 to 14) (size 15 to 20)
#    0.000    1.800    2.000    4.200    0.000    3.200 
#    4.800    0.000    0.000    6.000    0.000    0.000 
#    0.000    5.600    0.000    0.000    0.000    0.000 
#
# Total GULP energy -743452.865502 kJ/mol
# GULP energy per Si atom -12390.881092 kJ/mol
# Density = 1.884251 g / cm^3
# Si number density = 18.885491 Si / 1000 Ang^3
#
#
#
# Elastic Constant Matrix: (Units=GPa)
#
#
# Indices 1 2 3 4 5 6 
#
# 1 89.7099 46.2804 24.0881 0.0001 -0.1750 0.0000
# 2 46.2804 89.7099 24.0881 -0.0001 0.1750 0.0000
# 3 24.0881 24.0881 93.5283 0.0000 0.0000 0.0000
# 4 0.0001 -0.0001 0.0000 16.7816 0.0000 0.1750
# 5 -0.1750 0.1750 0.0000 0.0000 16.7816 0.0001
# 6 0.0000 0.0000 0.0000 0.1750 0.0001 21.7148
#
#
#
# Elastic Compliance Matrix: (Units=1/GPa)
#
#
# Indices 1 2 3 4 5 6 
#
# 1 0.015560 -0.007468 -0.002084 0.000000 0.000240 0.000000
# 2 -0.007468 0.015560 -0.002084 0.000000 -0.000240 0.000000
# 3 -0.002084 -0.002084 0.011765 0.000000 0.000000 0.000000
# 4 0.000000 0.000000 0.000000 0.059594 0.000000 -0.000480
# 5 0.000240 -0.000240 0.000000 0.000000 0.059594 0.000000
# 6 0.000000 0.000000 0.000000 -0.000480 0.000000 0.046055
#
#
# Mechanical properties :
#
#
# Convention : Reuss Voigt Hill
#
# Bulk Modulus (GPa) = 50.98696 51.31790 51.15243
# Shear Modulus (GPa) = 21.01384 22.95502 21.98443
#
# Velocity S-wave (km/s) = 3.33933 3.49016 3.41558
# Velocity P-wave (km/s) = 6.47493 6.59347 6.53447
#
# Compressibility (1/GPa) = 0.01961286
#
# Stress axis : x y z
#
# Youngs Moduli (GPa) = 64.26837 64.26837 84.99483
#
# Poissons Ratio (x) = 0.47996 0.17713
# Poissons Ratio (y) = 0.47996 0.17713
# Poissons Ratio (z) = 0.13394 0.13394
#
# Static dielectric constant tensor:
#      x y z
#    x 3.291320 0.000000 0.000000 
#    y 0.000000 3.291320 0.000000 
#    z 0.000000 0.000000 3.818810 
# 
# 
# High freq. dielectric constant tensor:
#      x y z
#    x 1.701100 0.000000 0.000000 
#    y 0.000000 1.701100 0.000000 
#    z 0.000000 0.000000 1.760900 
# 
# From -- ./inp_files/2328.got.cif
#   From: 2010.03.12/outbox.cif.g09.slc.cpg/sg162_2_cif.got.tgz:2328.got - 2010.04.02 06:27:41.
