data_PCOD8323296
_publ_section_title
;
Structure prediction by ZEFSAII (Michael W. Deem and Ramdas Pophale) SiO2 
 PCOD8323296
Probable space group: P -3 1 C
;
_chemical_formula_sum "Si O2"
_cell_formula_units_Z 30
_cell_length_a 8.354841
_cell_length_b 8.354841
_cell_length_c 20.810734
_cell_angle_alpha 90.000000
_cell_angle_beta 90.000000
_cell_angle_gamma 120.000000
_cell_volume 1258.039880
_symmetry_space_group_name_H-M "P -3 1 C"
_symmetry_group_IT_number 163
_symmetry_cell_setting 'hexagonal'
loop_
_space_group_symop_operation_xyz
x,y,z
-y,x-y,z
-x+y,-x,z
-y,-x,1/2-z
-x+y,y,1/2-z
x,x-y,1/2-z
-x,-y,-z
y,-x+y,-z
x-y,x,-z
y,x,1/2+z
x-y,-y,1/2+z
-x,-x+y,1/2+z
loop_
_atom_site_type_symbol
_atom_site_label
_atom_site_fract_x
_atom_site_fract_y
_atom_site_fract_z
Si Si1 0.650044 0.966404 0.625182
Si Si2 0.666668 0.333335 0.610570
Si Si3 0.000000 0.000000 0.925321
Si Si4 0.333334 0.666667 0.543210
Si Si5 0.879994 0.120007 0.250000
O O1 0.524738 0.834524 0.568446
O O2 0.626562 0.842130 0.688643
O O3 0.605564 0.130042 0.637953
O O4 0.861709 0.064923 0.601457
O O5 0.666668 0.333334 0.533316
O O6 0.000000 0.000000 0.000000
O O7 0.104785 0.209570 0.250000
#
# Coordination Sequence:
#
# PCOD8323296 Si02
#       5
#    12   4   4   4   6
#     4  12  24  45  72 107 145 194 241 303 360 431
#     4  12  27  48  74 110 150 192 247 302 367 441
#     4  12  21  40  71 100 141 192 238 302 370 420
#     4  12  27  46  73 112 151 189 250 299 370 435
#     4  10  22  46  72  96 144 180 246 284 352 436
#
# _framework density 23.846620999999999
#
# number of rings (size 3 to 8) (size 9 to 14) (size 15 to 20)
#    0.400    0.000    4.000    6.000    0.000    1.600 
#    0.000    0.000    0.000    0.000    0.000    0.000 
#    0.000    0.000    0.000    0.000    0.000    0.000 
#
# Total GULP energy -372007.631537 kJ/mol
# GULP energy per Si atom -12400.254385 kJ/mol
# Density = 2.379235 g / cm^3
# Si number density = 23.846621 Si / 1000 Ang^3
#
#
#
# Elastic Constant Matrix: (Units=GPa)
#
#
# Indices 1 2 3 4 5 6 
#
# 1 93.5149 26.1644 32.2655 -0.0001 -2.2605 -0.0001
# 2 26.1644 93.5154 32.2654 0.0001 2.2604 0.0005
# 3 32.2655 32.2654 156.4372 -0.0003 -0.0002 -0.0001
# 4 -0.0001 0.0001 -0.0003 31.7467 -0.0002 2.2605
# 5 -2.2605 2.2604 -0.0002 -0.0002 31.7470 0.0001
# 6 -0.0001 0.0005 -0.0001 2.2605 0.0001 33.6757
#
#
#
# Elastic Compliance Matrix: (Units=1/GPa)
#
#
# Indices 1 2 3 4 5 6 
#
# 1 0.012160 -0.002759 -0.001939 0.000000 0.001062 0.000000
# 2 -0.002759 0.012160 -0.001939 0.000000 -0.001062 0.000000
# 3 -0.001939 -0.001939 0.007192 0.000000 0.000000 0.000000
# 4 0.000000 0.000000 0.000000 0.031651 0.000000 -0.002125
# 5 0.001062 -0.001062 0.000000 0.000000 0.031650 0.000000
# 6 0.000000 0.000000 0.000000 -0.002125 0.000000 0.029838
#
#
# Mechanical properties :
#
#
# Convention : Reuss Voigt Hill
#
# Bulk Modulus (GPa) = 54.82917 58.31759 56.57338
# Shear Modulus (GPa) = 34.72123 36.28536 35.50329
#
# Velocity S-wave (km/s) = 3.81993 3.90502 3.86271
# Velocity P-wave (km/s) = 6.51906 6.69631 6.60828
#
# Compressibility (1/GPa) = 0.01823847
#
# Stress axis : x y z
#
# Youngs Moduli (GPa) = 82.23624 82.23672 139.03974
#
# Poissons Ratio (x) = 0.22688 0.26960
# Poissons Ratio (y) = 0.22688 0.26960
# Poissons Ratio (z) = 0.15946 0.15946
#
# Static dielectric constant tensor:
#      x y z
#    x 4.044830 -0.000020 -0.000010 
#    y -0.000020 4.044810 -0.000010 
#    z -0.000010 -0.000010 4.399940 
# 
# 
# High freq. dielectric constant tensor:
#      x y z
#    x 1.938520 0.000000 0.000000 
#    y 0.000000 1.938520 0.000000 
#    z 0.000000 0.000000 1.948980 
# 
# From -- ./inp_files/3767.got.cif
#   From: 2010.03.12/outbox.cif.g09.slc.cpg/sg163_2_cif.got.tgz:3767.got - 2010.04.02 06:30:25.
