data_PCOD8323702
_publ_section_title
;
Structure prediction by ZEFSAII (Michael W. Deem and Ramdas Pophale) SiO2 
 PCOD8323702
Probable space group: P -3 M 1
;
_chemical_formula_sum "Si O2"
_cell_formula_units_Z 66
_cell_length_a 12.770363
_cell_length_b 12.770363
_cell_length_c 28.307160
_cell_angle_alpha 90.000000
_cell_angle_beta 90.000000
_cell_angle_gamma 120.000000
_cell_volume 3997.913709
_symmetry_space_group_name_H-M "P -3 M 1"
_symmetry_group_IT_number 164
_symmetry_cell_setting 'hexagonal'
loop_
_space_group_symop_operation_xyz
x,y,z
-y,x-y,z
-x+y,-x,z
x-y,-y,-z
-x,-x+y,-z
y,x,-z
-x,-y,-z
y,-x+y,-z
x-y,x,-z
-x+y,y,z
x,x-y,z
-y,-x,z
loop_
_atom_site_type_symbol
_atom_site_label
_atom_site_fract_x
_atom_site_fract_y
_atom_site_fract_z
Si Si1 0.753766 0.753478 0.101724
Si Si2 0.001736 0.756559 0.369667
Si Si3 0.756493 0.000000 0.000000
Si Si4 0.909293 0.576459 0.712126
Si Si5 0.909185 0.575670 0.819185
Si Si6 0.578189 0.911586 0.456499
O O1 0.773141 0.886570 0.107482
O O2 0.671177 0.667427 0.143725
O O3 0.881962 0.763924 0.107181
O O4 0.691305 0.695567 0.050095
O O5 0.101876 0.898125 0.369257
O O6 0.003933 0.692668 0.320937
O O7 0.026633 0.687673 0.411323
O O8 0.871351 0.742702 0.376421
O O9 0.887958 0.112043 0.002988
O O10 0.769734 0.539467 0.704495
O O11 0.920898 0.460449 0.699035
O O12 0.951665 0.619975 0.765691
O O13 0.777395 0.554790 0.828903
O O14 0.901708 0.450854 0.829426
O O15 0.446215 0.892429 0.446325
O O16 0.564868 0.782434 0.467937
O O17 0.642447 0.000000 0.500000
#
# Coordination Sequence:
#
# PCOD8323702 Si02
#       6
#    12  12   6  12  12  12
#     4   9  16  26  42  64  88 113 142 179 223 268
#     4  10  20  33  49  70  97 127 156 187 227 275
#     4   8  13  22  37  58  84 112 142 176 216 262
#     4   9  17  30  49  70  90 114 147 188 230 270
#     4   9  17  29  45  65  88 115 147 183 223 266
#     4  10  20  34  53  76 101 129 161 197 234 271
#
# _framework density 16.508610000000001
#
# number of rings (size 3 to 8) (size 9 to 14) (size 15 to 20)
#    0.000    2.727    0.000    2.091    0.000    3.636 
#    0.000    2.273    0.000    9.455    0.000    0.000 
#    0.000    0.000    0.000    0.000    0.000    0.000 
#
# Total GULP energy -817978.223399 kJ/mol
# GULP energy per Si atom -12393.609445 kJ/mol
# Density = 1.647104 g / cm^3
# Si number density = 16.508610 Si / 1000 Ang^3
#
#
#
# Elastic Constant Matrix: (Units=GPa)
#
#
# Indices 1 2 3 4 5 6 
#
# 1 84.0851 39.6134 57.6556 -2.0004 0.0000 0.0000
# 2 39.6134 84.0851 57.6556 2.0004 0.0000 0.0000
# 3 57.6556 57.6556 127.7670 0.0000 0.0000 0.0000
# 4 -2.0004 2.0004 0.0000 25.2880 0.0000 0.0000
# 5 0.0000 0.0000 0.0000 0.0000 25.2880 -2.0004
# 6 0.0000 0.0000 0.0000 0.0000 -2.0004 22.2358
#
#
#
# Elastic Compliance Matrix: (Units=1/GPa)
#
#
# Indices 1 2 3 4 5 6 
#
# 1 0.018301 -0.004347 -0.006297 0.001792 0.000000 0.000000
# 2 -0.004347 0.018301 -0.006297 -0.001792 0.000000 0.000000
# 3 -0.006297 -0.006297 0.013510 0.000000 0.000000 0.000000
# 4 0.001792 -0.001792 0.000000 0.039828 0.000000 0.000000
# 5 0.000000 0.000000 0.000000 0.000000 0.039828 0.003583
# 6 0.000000 0.000000 0.000000 0.000000 0.003583 0.045295
#
#
# Mechanical properties :
#
#
# Convention : Reuss Voigt Hill
#
# Bulk Modulus (GPa) = 61.61255 67.30958 64.46107
# Shear Modulus (GPa) = 23.32605 23.96321 23.64463
#
# Velocity S-wave (km/s) = 3.76302 3.81407 3.78863
# Velocity P-wave (km/s) = 7.50219 7.76254 7.63348
#
# Compressibility (1/GPa) = 0.01623046
#
# Stress axis : x y z
#
# Youngs Moduli (GPa) = 54.64263 54.64263 74.02074
#
# Poissons Ratio (x) = 0.23751 0.46610
# Poissons Ratio (y) = 0.23751 0.46610
# Poissons Ratio (z) = 0.34408 0.34408
#
# Static dielectric constant tensor:
#      x y z
#    x 2.959310 0.000000 0.000000 
#    y 0.000000 2.959310 0.000000 
#    z 0.000000 0.000000 3.618720 
# 
# 
# High freq. dielectric constant tensor:
#      x y z
#    x 1.618290 0.000000 0.000000 
#    y 0.000000 1.618290 0.000000 
#    z 0.000000 0.000000 1.658790 
# 
# From -- ./inp_files/5503.got.cif
#   From: 2010.03.12/outbox.cif.g09.slc.cpg/sg164_3_cif.got.tgz:5503.got - 2010.04.02 06:32:59.
