data_PCOD8323184
_publ_section_title
;
Structure prediction by ZEFSAII (Michael W. Deem and Ramdas Pophale) SiO2 
 PCOD8323184
Probable space group: P -3 1 C
;
_chemical_formula_sum "Si O2"
_cell_formula_units_Z 72
_cell_length_a 16.823042
_cell_length_b 16.823042
_cell_length_c 20.805551
_cell_angle_alpha 90.000000
_cell_angle_beta 90.000000
_cell_angle_gamma 120.000000
_cell_volume 5099.398030
_symmetry_space_group_name_H-M "P -3 1 C"
_symmetry_group_IT_number 163
_symmetry_cell_setting 'hexagonal'
loop_
_space_group_symop_operation_xyz
x,y,z
-y,x-y,z
-x+y,-x,z
-y,-x,1/2-z
-x+y,y,1/2-z
x,x-y,1/2-z
-x,-y,-z
y,-x+y,-z
x-y,x,-z
y,x,1/2+z
x-y,-y,1/2+z
-x,-x+y,1/2+z
loop_
_atom_site_type_symbol
_atom_site_label
_atom_site_fract_x
_atom_site_fract_y
_atom_site_fract_z
Si Si1 0.810936 0.810936 0.500000
Si Si2 0.515519 0.666368 0.825134
Si Si3 0.051172 0.760321 0.872437
Si Si4 0.051172 0.290852 0.872437
Si Si5 0.183977 0.997871 0.250000
Si Si6 0.849151 0.515519 0.325134
O O1 0.823191 0.911596 0.498813
O O2 0.753301 0.751955 0.561360
O O3 0.751955 0.753301 0.438640
O O4 0.603182 0.680264 0.866013
O O5 0.538470 0.667983 0.750000
O O6 0.491570 0.745785 0.840381
O O7 0.429779 0.570221 0.846396
O O8 0.143301 0.856699 0.869074
O O9 0.986571 0.753599 0.813126
O O10 0.077082 0.680264 0.866013
O O11 0.986571 0.232972 0.813126
O O12 0.190499 0.095250 0.250000
O O13 0.078304 0.921697 0.250000
#
# Coordination Sequence:
#
# PCOD8323184 Si02
#       6
#    12  12  12  12  12  12
#     4  10  19  30  43  58  80 114 150 178 203 240
#     4   9  15  25  42  63  84 106 131 161 201 253
#     4   9  17  28  40  57  82 107 134 171 211 242
#     4   9  17  28  40  57  82 107 134 171 211 242
#     4  10  17  26  39  56  78 106 140 176 209 244
#     4   9  15  25  42  63  84 106 131 161 201 253
#
# _framework density 14.119313
#
# number of rings (size 3 to 8) (size 9 to 14) (size 15 to 20)
#    0.000    2.667    1.667    1.667    0.000    1.333 
#    0.000    4.167    0.000    0.000    0.000    0.000 
#    0.000    0.000    0.000   14.000    0.000    0.000 
#
# Total GULP energy -892579.504142 kJ/mol
# GULP energy per Si atom -12396.937558 kJ/mol
# Density = 1.408718 g / cm^3
# Si number density = 14.119313 Si / 1000 Ang^3
#
#
#
# Elastic Constant Matrix: (Units=GPa)
#
#
# Indices 1 2 3 4 5 6 
#
# 1 67.6627 31.3522 43.7553 0.0000 0.0000 0.0000
# 2 31.3522 67.6627 43.7553 0.0000 0.0000 0.0000
# 3 43.7553 43.7553 111.7734 0.0000 0.0000 0.0000
# 4 0.0000 0.0000 0.0000 19.3286 0.0000 0.0000
# 5 0.0000 0.0000 0.0000 0.0000 19.3286 0.0000
# 6 0.0000 0.0000 0.0000 0.0000 0.0000 18.1553
#
#
#
# Elastic Compliance Matrix: (Units=1/GPa)
#
#
# Indices 1 2 3 4 5 6 
#
# 1 0.021491 -0.006049 -0.006045 0.000000 0.000000 0.000000
# 2 -0.006049 0.021491 -0.006045 0.000000 0.000000 0.000000
# 3 -0.006045 -0.006045 0.013680 0.000000 0.000000 0.000000
# 4 0.000000 0.000000 0.000000 0.051737 0.000000 0.000000
# 5 0.000000 0.000000 0.000000 0.000000 0.051737 0.000000
# 6 0.000000 0.000000 0.000000 0.000000 0.000000 0.055080
#
#
# Mechanical properties :
#
#
# Convention : Reuss Voigt Hill
#
# Bulk Modulus (GPa) = 49.05894 53.86937 51.46416
# Shear Modulus (GPa) = 19.35815 19.91154 19.63485
#
# Velocity S-wave (km/s) = 3.70677 3.75938 3.73317
# Velocity P-wave (km/s) = 7.28983 7.55511 7.42366
#
# Compressibility (1/GPa) = 0.02038365
#
# Stress axis : x y z
#
# Youngs Moduli (GPa) = 46.53064 46.53064 73.10193
#
# Poissons Ratio (x) = 0.28146 0.44191
# Poissons Ratio (y) = 0.28146 0.44191
# Poissons Ratio (z) = 0.28128 0.28128
#
# Static dielectric constant tensor:
#      x y z
#    x 2.645940 0.000000 0.000000 
#    y 0.000000 2.645940 0.000000 
#    z 0.000000 0.000000 2.939330 
# 
# 
# High freq. dielectric constant tensor:
#      x y z
#    x 1.519650 0.000000 0.000000 
#    y 0.000000 1.519650 0.000000 
#    z 0.000000 0.000000 1.534960 
# 
# From -- ./inp_files/3198.got.cif
#   From: 2010.03.12/outbox.cif.g09.slc.cpg/sg163_2_cif.got.tgz:3198.got - 2010.04.02 06:30:25.
