data_PCOD8323627
_publ_section_title
;
Structure prediction by ZEFSAII (Michael W. Deem and Ramdas Pophale) SiO2 
 PCOD8323627
Probable space group: P -3 M 1
;
_chemical_formula_sum "Si O2"
_cell_formula_units_Z 60
_cell_length_a 12.677550
_cell_length_b 12.677550
_cell_length_c 25.315422
_cell_angle_alpha 90.000000
_cell_angle_beta 90.000000
_cell_angle_gamma 120.000000
_cell_volume 3523.598912
_symmetry_space_group_name_H-M "P -3 M 1"
_symmetry_group_IT_number 164
_symmetry_cell_setting 'hexagonal'
loop_
_space_group_symop_operation_xyz
x,y,z
-y,x-y,z
-x+y,-x,z
x-y,-y,-z
-x,-x+y,-z
y,x,-z
-x,-y,-z
y,-x+y,-z
x-y,x,-z
-x+y,y,z
x,x-y,z
-y,-x,z
loop_
_atom_site_type_symbol
_atom_site_label
_atom_site_fract_x
_atom_site_fract_y
_atom_site_fract_z
Si Si1 0.423812 0.090357 0.908061
Si Si2 0.333191 0.423140 0.211831
Si Si3 0.577758 0.912631 0.695862
Si Si4 0.000000 0.753728 0.000000
Si Si5 0.246337 0.246337 0.500000
Si Si6 0.912931 0.579557 0.598150
O O1 0.539919 0.079837 0.922693
O O2 0.459695 0.229848 0.916130
O O3 0.379831 0.048465 0.848145
O O4 0.317630 0.001747 0.947354
O O5 0.204971 0.409941 0.228124
O O6 0.435658 0.564343 0.219038
O O7 0.361448 0.337520 0.248724
O O8 0.435169 0.870337 0.695044
O O9 0.592926 0.796463 0.687686
O O10 0.649135 0.008657 0.650045
O O11 0.884845 0.769689 0.004188
O O12 0.115084 0.230168 0.511454
O O13 0.330650 0.310563 0.549997
O O14 0.778883 0.557765 0.607786
O O15 0.901892 0.450946 0.585131
#
# Coordination Sequence:
#
# PCOD8323627 Si02
#       6
#    12  12  12   6   6  12
#     4   9  17  30  49  72  95 119 150 192 241 288
#     4   9  17  30  50  74  97 121 151 191 239 287
#     4  10  20  33  49  69  95 127 160 193 230 276
#     4  10  20  32  46  64  90 126 164 198 232 276
#     4  10  20  34  52  74 102 136 170 200 234 282
#     4  10  20  34  53  76 100 126 159 202 249 291
#
# _framework density 17.028043
#
# number of rings (size 3 to 8) (size 9 to 14) (size 15 to 20)
#    0.000    2.400    0.000    2.800    0.000    2.400 
#    0.000    2.000    0.000   11.200    0.000    0.000 
#    0.000    0.000    0.000    0.000    0.000    0.000 
#
# Total GULP energy -744134.854077 kJ/mol
# GULP energy per Si atom -12402.247568 kJ/mol
# Density = 1.698929 g / cm^3
# Si number density = 17.028043 Si / 1000 Ang^3
#
#
#
# Elastic Constant Matrix: (Units=GPa)
#
#
# Indices 1 2 3 4 5 6 
#
# 1 105.5175 65.6422 64.7382 -1.3892 0.0000 0.0000
# 2 65.6422 105.5175 64.7382 1.3892 0.0000 0.0000
# 3 64.7382 64.7382 114.4600 0.0000 0.0000 0.0000
# 4 -1.3892 1.3892 0.0000 25.0300 0.0000 0.0000
# 5 0.0000 0.0000 0.0000 0.0000 25.0300 -1.3892
# 6 0.0000 0.0000 0.0000 0.0000 -1.3892 19.9376
#
#
#
# Elastic Compliance Matrix: (Units=1/GPa)
#
#
# Indices 1 2 3 4 5 6 
#
# 1 0.017694 -0.007482 -0.005776 0.001397 0.000000 0.000000
# 2 -0.007482 0.017694 -0.005776 -0.001397 0.000000 0.000000
# 3 -0.005776 -0.005776 0.015270 0.000000 0.000000 0.000000
# 4 0.001397 -0.001397 0.000000 0.040107 0.000000 0.000000
# 5 0.000000 0.000000 0.000000 0.000000 0.040107 0.002795
# 6 0.000000 0.000000 0.000000 0.000000 0.002795 0.050351
#
#
# Mechanical properties :
#
#
# Convention : Reuss Voigt Hill
#
# Bulk Modulus (GPa) = 79.42403 79.52577 79.47490
# Shear Modulus (GPa) = 22.37279 22.69130 22.53204
#
# Velocity S-wave (km/s) = 3.62868 3.65442 3.64157
# Velocity P-wave (km/s) = 8.01877 8.03807 8.02843
#
# Compressibility (1/GPa) = 0.01259065
#
# Stress axis : x y z
#
# Youngs Moduli (GPa) = 56.51779 56.51779 65.48780
#
# Poissons Ratio (x) = 0.42287 0.37823
# Poissons Ratio (y) = 0.42287 0.37823
# Poissons Ratio (z) = 0.32643 0.32643
#
# Static dielectric constant tensor:
#      x y z
#    x 3.102470 0.000000 0.000000 
#    y 0.000000 3.102470 0.000000 
#    z 0.000000 0.000000 3.383120 
# 
# 
# High freq. dielectric constant tensor:
#      x y z
#    x 1.654690 0.000000 0.000000 
#    y 0.000000 1.654690 0.000000 
#    z 0.000000 0.000000 1.671230 
# 
# From -- ./inp_files/5210.got.cif
#   From: 2010.03.12/outbox.cif.g09.slc.cpg/sg164_3_cif.got.tgz:5210.got - 2010.04.02 06:32:59.
