data_PCOD8323708
_publ_section_title
;
Structure prediction by ZEFSAII (Michael W. Deem and Ramdas Pophale) SiO2 
 PCOD8323708
Probable space group: P -3 M 1
;
_chemical_formula_sum "Si O2"
_cell_formula_units_Z 72
_cell_length_a 12.639671
_cell_length_b 12.639671
_cell_length_c 30.327988
_cell_angle_alpha 90.000000
_cell_angle_beta 90.000000
_cell_angle_gamma 120.000000
_cell_volume 4196.099432
_symmetry_space_group_name_H-M "P -3 M 1"
_symmetry_group_IT_number 164
_symmetry_cell_setting 'hexagonal'
loop_
_space_group_symop_operation_xyz
x,y,z
-y,x-y,z
-x+y,-x,z
x-y,-y,-z
-x,-x+y,-z
y,x,-z
-x,-y,-z
y,-x+y,-z
x-y,x,-z
-x+y,y,z
x,x-y,z
-y,-x,z
loop_
_atom_site_type_symbol
_atom_site_label
_atom_site_fract_x
_atom_site_fract_y
_atom_site_fract_z
Si Si1 0.756380 0.000119 0.658632
Si Si2 0.333449 0.913476 0.917945
Si Si3 0.667730 0.579979 0.581565
Si Si4 0.000000 0.246977 0.000000
Si Si5 0.752926 0.752926 0.500000
Si Si6 0.000274 0.757573 0.240876
Si Si7 0.333759 0.421162 0.163524
O O1 0.743912 0.871956 0.645476
O O2 0.715500 0.999366 0.708966
O O3 0.668715 0.025779 0.627838
O O4 0.896834 0.103167 0.651027
O O5 0.452206 0.904412 0.928838
O O6 0.221580 0.778421 0.910993
O O7 0.311930 0.982267 0.957919
O O8 0.348547 0.989010 0.873972
O O9 0.770344 0.540688 0.580922
O O10 0.537896 0.462105 0.575188
O O11 0.687276 0.672545 0.542540
O O12 0.115347 0.230693 0.008951
O O13 0.884682 0.769363 0.491941
O O14 0.870627 0.741254 0.227241
O O15 0.030223 0.673224 0.210007
O O16 0.100410 0.899591 0.234805
O O17 0.209082 0.418164 0.151731
O O18 0.439397 0.560604 0.166933
#
# Coordination Sequence:
#
# PCOD8323708 Si02
#       7
#    12  12  12   6   6  12  12
#     4   9  17  30  50  74  98 124 156 198 245 288
#     4  10  20  34  52  73  97 126 161 200 240 283
#     4  10  20  33  49  70  98 132 166 197 231 277
#     4  10  20  34  52  74 100 128 158 194 238 288
#     4  10  20  34  54  78 100 122 152 196 246 290
#     4   9  17  30  49  73  98 124 156 196 243 290
#     4  10  20  33  49  70  97 129 163 198 237 282
#
# _framework density 17.158791000000001
#
# number of rings (size 3 to 8) (size 9 to 14) (size 15 to 20)
#    0.000    2.333    0.000    3.000    0.000    2.000 
#    0.000    1.667    0.000   16.667    0.000    0.000 
#    0.000    0.000    0.000    0.000    0.000    0.000 
#
# Total GULP energy -893004.560350 kJ/mol
# GULP energy per Si atom -12402.841116 kJ/mol
# Density = 1.711974 g / cm^3
# Si number density = 17.158791 Si / 1000 Ang^3
#
#
#
# Elastic Constant Matrix: (Units=GPa)
#
#
# Indices 1 2 3 4 5 6 
#
# 1 111.4681 71.5277 64.9270 -3.5236 0.0000 0.0000
# 2 71.5277 111.4681 64.9270 3.5236 0.0000 0.0000
# 3 64.9270 64.9270 106.5436 0.0000 0.0000 0.0000
# 4 -3.5236 3.5236 0.0000 24.6828 0.0000 0.0000
# 5 0.0000 0.0000 0.0000 0.0000 24.6828 -3.5236
# 6 0.0000 0.0000 0.0000 0.0000 -3.5236 19.9702
#
#
#
# Elastic Compliance Matrix: (Units=1/GPa)
#
#
# Indices 1 2 3 4 5 6 
#
# 1 0.017656 -0.008028 -0.005867 0.003667 0.000000 0.000000
# 2 -0.008028 0.017656 -0.005867 -0.003667 0.000000 0.000000
# 3 -0.005867 -0.005867 0.016537 0.000000 0.000000 0.000000
# 4 0.003667 -0.003667 0.000000 0.041561 0.000000 0.000000
# 5 0.000000 0.000000 0.000000 0.000000 0.041561 0.007333
# 6 0.000000 0.000000 0.000000 0.000000 0.007333 0.051368
#
#
# Mechanical properties :
#
#
# Convention : Reuss Voigt Hill
#
# Bulk Modulus (GPa) = 81.14392 81.36037 81.25214
# Shear Modulus (GPa) = 21.74174 22.40704 22.07439
#
# Velocity S-wave (km/s) = 3.56348 3.61759 3.59064
# Velocity P-wave (km/s) = 8.02022 8.06030 8.04028
#
# Compressibility (1/GPa) = 0.01232378
#
# Stress axis : x y z
#
# Youngs Moduli (GPa) = 56.63755 56.63755 60.47131
#
# Poissons Ratio (x) = 0.45469 0.35480
# Poissons Ratio (y) = 0.45469 0.35480
# Poissons Ratio (z) = 0.33231 0.33231
#
# Static dielectric constant tensor:
#      x y z
#    x 3.138840 0.000000 0.000000 
#    y 0.000000 3.138840 0.000000 
#    z 0.000000 0.000000 3.383350 
# 
# 
# High freq. dielectric constant tensor:
#      x y z
#    x 1.661510 0.000000 0.000000 
#    y 0.000000 1.661510 0.000000 
#    z 0.000000 0.000000 1.675790 
# 
# From -- ./inp_files/5552.got.cif
#   From: 2010.03.12/outbox.cif.g09.slc.cpg/sg164_3_cif.got.tgz:5552.got - 2010.04.02 06:32:59.
