data_PCOD8323960
_publ_section_title
;
Structure prediction by ZEFSAII (Michael W. Deem and Ramdas Pophale) SiO2 
 PCOD8323960
Probable space group: P -3 C 1
;
_chemical_formula_sum "Si O2"
_cell_formula_units_Z 68
_cell_length_a 10.982766
_cell_length_b 10.982766
_cell_length_c 30.126487
_cell_angle_alpha 90.000000
_cell_angle_beta 90.000000
_cell_angle_gamma 120.000000
_cell_volume 3147.042334
_symmetry_space_group_name_H-M "P -3 C 1"
_symmetry_group_IT_number 165
_symmetry_cell_setting 'hexagonal'
loop_
_space_group_symop_operation_xyz
x,y,z
-y,x-y,z
-x+y,-x,z
x-y,-y,1/2-z
-x,-x+y,1/2-z
y,x,1/2-z
-x,-y,-z
y,-x+y,-z
x-y,x,-z
-x+y,y,1/2+z
x,x-y,1/2+z
-y,-x,1/2+z
loop_
_atom_site_type_symbol
_atom_site_label
_atom_site_fract_x
_atom_site_fract_y
_atom_site_fract_z
Si Si1 0.717859 0.717859 0.750000
Si Si2 0.666668 0.333334 0.077883
Si Si3 0.499423 0.486817 0.187280
Si Si4 0.392051 0.946623 0.589110
Si Si5 0.383104 0.201629 0.545836
Si Si6 0.000000 0.709345 0.750000
Si Si7 0.120266 0.727123 0.553246
Si Si8 0.333334 0.666668 0.318293
O O1 0.653539 0.606148 0.790575
O O2 0.868812 0.732637 0.738638
O O3 0.806406 0.338381 0.059071
O O4 0.666668 0.333334 0.129537
O O5 0.474975 0.499113 0.135361
O O6 0.599609 0.641524 0.208422
O O7 0.579204 0.402505 0.199290
O O8 0.233840 0.813396 0.591522
O O9 0.478037 0.910923 0.552876
O O10 0.368763 0.074196 0.575096
O O11 0.267190 0.243656 0.560242
O O12 0.380235 0.181320 0.493574
#
# Coordination Sequence:
#
# PCOD8323960 Si02
#       8
#     6   4  12  12  12   6  12   4
#     4  11  25  46  74 102 141 185 222 282 358 427
#     4  12  21  36  72  90 127 188 232 294 348 411
#     4  11  25  44  72 105 139 180 235 288 354 420
#     4  12  26  45  68 104 139 182 238 296 360 422
#     4  12  22  42  67  97 137 184 243 293 354 421
#     4  11  25  48  76 108 147 183 230 284 356 435
#     4  12  25  43  67  99 140 184 240 301 350 419
#     4  12  18  42  69 102 136 173 238 291 330 417
#
# _framework density 21.607589000000001
#
# number of rings (size 3 to 8) (size 9 to 14) (size 15 to 20)
#    0.000    0.353    7.059    2.118    2.471    0.000 
#    2.118    0.882    0.000    0.000    0.000    0.000 
#    0.000    0.000    0.000    0.000    0.000    0.000 
#
# Total GULP energy -842945.922837 kJ/mol
# GULP energy per Si atom -12396.263571 kJ/mol
# Density = 2.155841 g / cm^3
# Si number density = 21.607589 Si / 1000 Ang^3
#
#
#
# Elastic Constant Matrix: (Units=GPa)
#
#
# Indices 1 2 3 4 5 6 
#
# 1 112.7755 46.2217 24.9743 2.4186 0.0000 0.0000
# 2 46.2217 112.7756 24.9743 -2.4195 0.0000 0.0000
# 3 24.9743 24.9743 82.3128 -0.0001 0.0000 0.0000
# 4 2.4186 -2.4195 -0.0001 37.6988 0.0000 0.0000
# 5 0.0000 0.0000 0.0000 0.0000 37.6972 2.4189
# 6 0.0000 0.0000 0.0000 0.0000 2.4189 33.2765
#
#
#
# Elastic Compliance Matrix: (Units=1/GPa)
#
#
# Indices 1 2 3 4 5 6 
#
# 1 0.011024 -0.004072 -0.002109 -0.000969 0.000000 0.000000
# 2 -0.004072 0.011024 -0.002109 0.000969 0.000000 0.000000
# 3 -0.002109 -0.002109 0.013429 0.000000 0.000000 0.000000
# 4 -0.000969 0.000969 0.000000 0.026650 0.000000 0.000000
# 5 0.000000 0.000000 0.000000 0.000000 0.026651 -0.001937
# 6 0.000000 0.000000 0.000000 0.000000 -0.001937 0.030192
#
#
# Mechanical properties :
#
#
# Convention : Reuss Voigt Hill
#
# Bulk Modulus (GPa) = 52.92233 55.57830 54.25032
# Shear Modulus (GPa) = 35.24848 35.84741 35.54795
#
# Velocity S-wave (km/s) = 4.04332 4.07752 4.06046
# Velocity P-wave (km/s) = 6.80761 6.92429 6.86620
#
# Compressibility (1/GPa) = 0.01889561
#
# Stress axis : x y z
#
# Youngs Moduli (GPa) = 90.71162 90.71164 74.46718
#
# Poissons Ratio (x) = 0.36937 0.15707
# Poissons Ratio (y) = 0.36937 0.15707
# Poissons Ratio (z) = 0.19134 0.19134
#
# Static dielectric constant tensor:
#      x y z
#    x 3.493960 0.000000 0.000000 
#    y 0.000000 3.494170 0.000020 
#    z 0.000000 0.000020 3.669430 
# 
# 
# High freq. dielectric constant tensor:
#      x y z
#    x 1.855290 0.000000 0.000000 
#    y 0.000000 1.855290 0.000000 
#    z 0.000000 0.000000 1.834810 
# 
# From -- ./inp_files/3335.got.cif
#   From: 2010.03.12/outbox.cif.g09.slc.cpg/sg165_2_cif.got.tgz:3335.got - 2010.04.02 06:36:38.
