data_PCOD8323289
_publ_section_title
;
Structure prediction by ZEFSAII (Michael W. Deem and Ramdas Pophale) SiO2 
 PCOD8323289
Probable space group: P -3 1 C
;
_chemical_formula_sum "Si O2"
_cell_formula_units_Z 66
_cell_length_a 20.171907
_cell_length_b 20.171907
_cell_length_c 9.211552
_cell_angle_alpha 90.000000
_cell_angle_beta 90.000000
_cell_angle_gamma 120.000000
_cell_volume 3246.066063
_symmetry_space_group_name_H-M "P -3 1 C"
_symmetry_group_IT_number 163
_symmetry_cell_setting 'hexagonal'
loop_
_space_group_symop_operation_xyz
x,y,z
-y,x-y,z
-x+y,-x,z
-y,-x,1/2-z
-x+y,y,1/2-z
x,x-y,1/2-z
-x,-y,-z
y,-x+y,-z
x-y,x,-z
y,x,1/2+z
x-y,-y,1/2+z
-x,-x+y,1/2+z
loop_
_atom_site_type_symbol
_atom_site_label
_atom_site_fract_x
_atom_site_fract_y
_atom_site_fract_z
Si Si1 0.664351 0.484954 0.757704
Si Si2 0.715695 0.765118 0.621858
Si Si3 0.551358 0.102715 0.250000
Si Si4 0.549974 0.662125 0.955439
Si Si5 0.625682 0.567140 0.010876
Si Si6 0.904227 0.200026 0.439355
O O1 0.605745 0.394256 0.750000
O O2 0.750144 0.500288 0.750000
O O3 0.647231 0.521685 0.619506
O O4 0.651922 0.522404 0.901464
O O5 0.628308 0.699146 0.601183
O O6 0.775040 0.739403 0.569254
O O7 0.728966 0.840852 0.536954
O O8 0.735220 0.785365 0.789665
O O9 0.632618 0.152341 0.163208
O O10 0.562193 0.052883 0.375284
O O11 0.590917 0.611665 0.922466
O O12 0.611361 0.751285 0.935236
#
# Coordination Sequence:
#
# PCOD8323289 Si02
#       6
#    12  12   6  12  12  12
#     4  12  26  43  61  83 121 166 210 248 302 374
#     4  10  22  40  61  91 128 163 206 257 314 376
#     4  12  20  36  60  90 124 150 194 252 314 358
#     4  11  23  38  62  92 121 157 199 257 310 362
#     4  11  23  38  62  92 121 157 199 257 310 362
#     4  10  22  40  61  91 128 163 206 257 314 376
#
# _framework density 20.332303
#
# number of rings (size 3 to 8) (size 9 to 14) (size 15 to 20)
#    0.000    1.091    3.636    2.909   10.182    0.727 
#    0.000    0.000    0.000    0.364    0.000    0.000 
#    0.000    0.000    0.000    0.000    0.000    0.000 
#
# Total GULP energy -818225.640633 kJ/mol
# GULP energy per Si atom -12397.358191 kJ/mol
# Density = 2.028603 g / cm^3
# Si number density = 20.332303 Si / 1000 Ang^3
#
#
#
# Elastic Constant Matrix: (Units=GPa)
#
#
# Indices 1 2 3 4 5 6 
#
# 1 61.1252 30.0338 14.2067 0.0000 -2.4540 0.0000
# 2 30.0338 61.1252 14.2067 0.0000 2.4540 0.0000
# 3 14.2067 14.2067 68.4759 0.0000 0.0000 0.0000
# 4 0.0000 0.0000 0.0000 28.5171 0.0000 2.4540
# 5 -2.4540 2.4540 0.0000 0.0000 28.5171 0.0000
# 6 0.0000 0.0000 0.0000 2.4540 0.0000 15.5457
#
#
#
# Elastic Compliance Matrix: (Units=1/GPa)
#
#
# Indices 1 2 3 4 5 6 
#
# 1 0.022167 -0.010439 -0.002433 0.000000 0.002806 0.000000
# 2 -0.010439 0.022167 -0.002433 0.000000 -0.002806 0.000000
# 3 -0.002433 -0.002433 0.015613 0.000000 0.000000 0.000000
# 4 0.000000 0.000000 0.000000 0.035550 0.000000 -0.005612
# 5 0.002806 -0.002806 0.000000 0.000000 0.035550 0.000000
# 6 0.000000 0.000000 0.000000 -0.005612 0.000000 0.065212
#
#
# Mechanical properties :
#
#
# Convention : Reuss Voigt Hill
#
# Bulk Modulus (GPa) = 34.08686 34.18007 34.13346
# Shear Modulus (GPa) = 21.12835 23.33461 22.23148
#
# Velocity S-wave (km/s) = 3.22708 3.39139 3.31026
# Velocity P-wave (km/s) = 5.53956 5.67297 5.60666
#
# Compressibility (1/GPa) = 0.02933682
#
# Stress axis : x y z
#
# Youngs Moduli (GPa) = 45.11173 45.11173 64.04777
#
# Poissons Ratio (x) = 0.47092 0.15585
# Poissons Ratio (y) = 0.47092 0.15585
# Poissons Ratio (z) = 0.10977 0.10977
#
# Static dielectric constant tensor:
#      x y z
#    x 3.564800 0.000000 0.000000 
#    y 0.000000 3.564800 0.000000 
#    z 0.000000 0.000000 3.757560 
# 
# 
# High freq. dielectric constant tensor:
#      x y z
#    x 1.776640 0.000000 0.000000 
#    y 0.000000 1.776640 0.000000 
#    z 0.000000 0.000000 1.809900 
# 
# From -- ./inp_files/1160.got.cif
#   From: 2010.03.12/outbox.cif.g09.slc.cpg/sg163_1_cif.got.tgz:1160.got - 2010.04.02 06:30:25.
