data_PCOD8323331
_publ_section_title
;
Structure prediction by ZEFSAII (Michael W. Deem and Ramdas Pophale) SiO2 
 PCOD8323331
Probable space group: P -3 1 C
;
_chemical_formula_sum "Si O2"
_cell_formula_units_Z 48
_cell_length_a 16.044959
_cell_length_b 16.044959
_cell_length_c 9.285427
_cell_angle_alpha 90.000000
_cell_angle_beta 90.000000
_cell_angle_gamma 120.000000
_cell_volume 2070.187753
_symmetry_space_group_name_H-M "P -3 1 C"
_symmetry_group_IT_number 163
_symmetry_cell_setting 'hexagonal'
loop_
_space_group_symop_operation_xyz
x,y,z
-y,x-y,z
-x+y,-x,z
-y,-x,1/2-z
-x+y,y,1/2-z
x,x-y,1/2-z
-x,-y,-z
y,-x+y,-z
x-y,x,-z
y,x,1/2+z
x-y,-y,1/2+z
-x,-x+y,1/2+z
loop_
_atom_site_type_symbol
_atom_site_label
_atom_site_fract_x
_atom_site_fract_y
_atom_site_fract_z
Si Si1 0.338360 0.829609 0.828444
Si Si2 0.919541 0.702683 0.144900
Si Si3 0.566295 0.465760 0.921165
Si Si4 0.865345 0.226086 0.892488
O O1 0.273091 0.726910 0.750000
O O2 0.441041 0.882081 0.750000
O O3 0.297627 0.899859 0.787342
O O4 0.363466 0.824527 0.999038
O O5 0.876461 0.752922 0.250000
O O6 0.032703 0.769525 0.128363
O O7 0.863754 0.672009 0.995847
O O8 0.549932 0.450069 0.750000
O O9 0.676695 0.548844 0.953219
O O10 0.500000 0.500000 0.000000
O O11 0.802577 0.197424 0.750000
#
# Coordination Sequence:
#
# PCOD8323331 Si02
#       4
#    12  12  12  12
#     4  11  23  42  69  98 142 197 248 302 382 456
#     4  11  24  43  71 100 139 184 248 307 377 454
#     4  12  25  42  71 106 151 195 252 319 375 462
#     4  12  26  44  72 106 142 193 253 315 378 458
#
# _framework density 23.186302999999999
#
# number of rings (size 3 to 8) (size 9 to 14) (size 15 to 20)
#    0.000    0.500    2.500    7.000    3.500    0.000 
#    0.000    0.000    0.000   13.500    0.000    0.000 
#    0.000    0.000    0.000    0.000    0.000    0.000 
#
# Total GULP energy -594850.967520 kJ/mol
# GULP energy per Si atom -12392.728490 kJ/mol
# Density = 2.313353 g / cm^3
# Si number density = 23.186303 Si / 1000 Ang^3
#
#
#
# Elastic Constant Matrix: (Units=GPa)
#
#
# Indices 1 2 3 4 5 6 
#
# 1 87.6789 38.7950 22.0701 0.0006 -15.1663 0.0000
# 2 38.7950 87.6789 22.0701 -0.0006 15.1663 0.0000
# 3 22.0701 22.0701 138.9743 0.0000 0.0000 0.0000
# 4 0.0006 -0.0006 0.0000 37.8153 0.0000 15.1663
# 5 -15.1663 15.1663 0.0000 0.0000 37.8153 0.0006
# 6 0.0000 0.0000 0.0000 15.1663 0.0006 24.4420
#
#
#
# Elastic Compliance Matrix: (Units=1/GPa)
#
#
# Indices 1 2 3 4 5 6 
#
# 1 0.017802 -0.009432 -0.001329 0.000000 0.010923 0.000000
# 2 -0.009432 0.017802 -0.001329 0.000000 -0.010923 0.000000
# 3 -0.001329 -0.001329 0.007618 0.000000 0.000000 0.000000
# 4 0.000000 0.000000 0.000000 0.035206 0.000000 -0.021845
# 5 0.010923 -0.010923 0.000000 0.000000 0.035206 -0.000001
# 6 0.000000 0.000000 0.000000 -0.021845 -0.000001 0.054468
#
#
# Mechanical properties :
#
#
# Convention : Reuss Voigt Hill
#
# Bulk Modulus (GPa) = 52.51578 53.35585 52.93581
# Shear Modulus (GPa) = 25.17244 35.44098 30.30671
#
# Velocity S-wave (km/s) = 3.29851 3.91388 3.61930
# Velocity P-wave (km/s) = 6.09963 6.59442 6.35185
#
# Compressibility (1/GPa) = 0.01904190
#
# Stress axis : x y z
#
# Youngs Moduli (GPa) = 56.17218 56.17218 131.27164
#
# Poissons Ratio (x) = 0.52980 0.17450
# Poissons Ratio (y) = 0.52980 0.17450
# Poissons Ratio (z) = 0.07467 0.07467
#
# Static dielectric constant tensor:
#      x y z
#    x 4.424900 0.000000 0.000000 
#    y 0.000000 4.424900 0.000000 
#    z 0.000000 0.000000 4.687840 
# 
# 
# High freq. dielectric constant tensor:
#      x y z
#    x 1.907450 0.000000 0.000000 
#    y 0.000000 1.907450 0.000000 
#    z 0.000000 0.000000 1.938250 
# 
# From -- ./inp_files/896.got.cif
#   From: 2010.03.12/outbox.cif.g09.slc.cpg/sg163_1_cif.got.tgz:896.got - 2010.04.02 06:30:25.
