data_PCOD8323339
_publ_section_title
;
Structure prediction by ZEFSAII (Michael W. Deem and Ramdas Pophale) SiO2 
 PCOD8323339
Probable space group: P -3 1 C
;
_chemical_formula_sum "Si O2"
_cell_formula_units_Z 32
_cell_length_a 11.417528
_cell_length_b 11.417528
_cell_length_c 13.519284
_cell_angle_alpha 90.000000
_cell_angle_beta 90.000000
_cell_angle_gamma 120.000000
_cell_volume 1526.259899
_symmetry_space_group_name_H-M "P -3 1 C"
_symmetry_group_IT_number 163
_symmetry_cell_setting 'hexagonal'
loop_
_space_group_symop_operation_xyz
x,y,z
-y,x-y,z
-x+y,-x,z
-y,-x,1/2-z
-x+y,y,1/2-z
x,x-y,1/2-z
-x,-y,-z
y,-x+y,-z
x-y,x,-z
y,x,1/2+z
x-y,-y,1/2+z
-x,-x+y,1/2+z
loop_
_atom_site_type_symbol
_atom_site_label
_atom_site_fract_x
_atom_site_fract_y
_atom_site_fract_z
Si Si1 0.304371 0.166509 0.641423
Si Si2 0.427281 0.080697 0.466866
Si Si3 0.000000 0.000000 0.384493
Si Si4 0.333335 0.666668 0.867319
O O1 0.372349 0.186175 0.750000
O O2 0.382166 0.121944 0.566451
O O3 0.310132 0.302368 0.604696
O O4 0.149973 0.047428 0.653019
O O5 0.524572 0.214306 0.406138
O O6 0.500000 0.000000 0.500000
O O7 0.000000 0.000000 0.500000
O O8 0.333334 0.666667 0.750000
#
# Coordination Sequence:
#
# PCOD8323339 Si02
#       4
#    12  12   4   4
#     4  12  26  44  78 105 142 187 231 294 364 426
#     4  12  26  49  68 105 149 182 241 293 342 429
#     4  12  22  44  70 109 140 172 229 302 358 409
#     4  12  30  48  73 101 142 195 240 294 361 419
#
# _framework density 20.966284999999999
#
# number of rings (size 3 to 8) (size 9 to 14) (size 15 to 20)
#    0.000    0.000    7.500    1.125    5.250    0.000 
#    0.000    0.000    0.000    0.000    0.000    0.000 
#    0.000    0.000    0.000    0.000    0.000    0.000 
#
# Total GULP energy -396977.342477 kJ/mol
# GULP energy per Si atom -12405.541952 kJ/mol
# Density = 2.091856 g / cm^3
# Si number density = 20.966285 Si / 1000 Ang^3
#
#
#
# Elastic Constant Matrix: (Units=GPa)
#
#
# Indices 1 2 3 4 5 6 
#
# 1 124.2689 57.1710 72.0665 -0.0008 -2.7482 0.0044
# 2 57.1710 124.2681 72.0655 0.0005 2.7479 -0.0035
# 3 72.0665 72.0655 231.8235 0.0006 0.0004 0.0003
# 4 -0.0008 0.0005 0.0006 -15.0119 0.0008 2.7486
# 5 -2.7482 2.7479 0.0004 0.0008 -15.0129 0.0007
# 6 0.0044 -0.0035 0.0003 2.7486 0.0007 33.5447
#
#
#
# Elastic Compliance Matrix: (Units=1/GPa)
#
#
# Indices 1 2 3 4 5 6 
#
# 1 0.011001 -0.003682 -0.002275 -0.000001 -0.002688 -0.000002
# 2 -0.003682 0.011001 -0.002275 0.000001 0.002688 0.000002
# 3 -0.002275 -0.002275 0.005728 0.000000 0.000000 0.000000
# 4 -0.000001 0.000001 0.000000 -0.065629 -0.000003 0.005377
# 5 -0.002688 0.002688 0.000000 -0.000003 -0.065625 0.000002
# 6 -0.000002 0.000002 0.000000 0.005377 0.000002 0.029370
#
#
# Mechanical properties :
#
#
# Convention : Reuss Voigt Hill
#
# Bulk Modulus (GPa) = 88.76940 98.10739 93.43840
# Shear Modulus (GPa) = -92.70738 19.30780 -36.69979
#
# Velocity S-wave (km/s) = -6.65683 3.03792 -4.18834
# Velocity P-wave (km/s) = 4.08086 7.69414 4.61229
#
# Compressibility (1/GPa) = 0.01126514
#
# Stress axis : x y z
#
# Youngs Moduli (GPa) = 90.89949 90.89917 174.57565
#
# Poissons Ratio (x) = 0.33472 0.39719
# Poissons Ratio (y) = 0.33472 0.39719
# Poissons Ratio (z) = 0.20681 0.20681
#
# Static dielectric constant tensor:
#      x y z
#    x 3.944910 0.000000 -0.000030 
#    y 0.000000 3.944910 0.000020 
#    z -0.000030 0.000020 3.703220 
# 
# 
# High freq. dielectric constant tensor:
#      x y z
#    x 1.831310 0.000000 0.000000 
#    y 0.000000 1.831310 0.000000 
#    z 0.000000 0.000000 1.841970 
# 
# From -- ./inp_files/2038.got.cif
#   From: 2010.03.12/outbox.cif.g09.slc.cpg/sg163_2_cif.got.tgz:2038.got - 2010.04.02 06:30:25.
