data_PCOD8323084
_publ_section_title
;
Structure prediction by ZEFSAII (Michael W. Deem and Ramdas Pophale) SiO2 
 PCOD8323084
Probable space group: P -3 1 M 
;
_chemical_formula_sum "Si O2"
_cell_formula_units_Z 68
_cell_length_a 12.927224
_cell_length_b 12.927224
_cell_length_c 25.832578
_cell_angle_alpha 90.000000
_cell_angle_beta 90.000000
_cell_angle_gamma 120.000000
_cell_volume 3738.599379
_symmetry_space_group_name_H-M "P -3 1 M "
_symmetry_group_IT_number 162
_symmetry_cell_setting 'hexagonal'
loop_
_space_group_symop_operation_xyz
x,y,z
-y,x-y,z
-x+y,-x,z
-y,-x,-z
-x+y,y,-z
x,x-y,-z
-x,-y,-z
y,-x+y,-z
x-y,x,-z
y,x,z
x-y,-y,z
-x,-x+y,z
loop_
_atom_site_type_symbol
_atom_site_label
_atom_site_fract_x
_atom_site_fract_y
_atom_site_fract_z
Si Si1 0.333333 0.666667 0.795993
Si Si2 0.136873 0.425330 0.953678
Si Si3 0.863633 0.135592 0.141024
Si Si4 0.584152 0.721752 0.237609
Si Si5 0.333334 0.666668 0.919347
Si Si6 0.718861 0.860953 0.666736
Si Si7 0.723098 0.862388 0.554582
O O1 0.342733 0.555594 0.774415
O O2 0.333334 0.666667 0.857803
O O3 0.148130 0.364514 0.902172
O O4 0.205808 0.567033 0.942341
O O5 0.000000 0.383601 0.967082
O O6 0.194577 0.389153 0.000000
O O7 0.838668 0.180142 0.194578
O O8 0.000000 0.212858 0.123466
O O9 0.831921 0.000000 0.148523
O O10 0.617863 0.617863 0.238750
O O11 0.612809 0.790989 0.292160
O O12 0.782107 0.782107 0.674420
O O13 0.655018 0.842217 0.609602
O O14 0.818827 0.000000 0.674853
O O15 0.645691 0.822846 0.500000
O O16 0.791983 0.791983 0.562217
O O17 0.820497 0.000000 0.547365
#
# Coordination Sequence:
#
# PCOD8323084 Si02
#       7
#     4  12  12  12   4  12  12
#     4  12  24  43  61  81 106 136 171 220 275 319
#     4  11  24  41  62  87 116 146 180 219 263 316
#     4  10  20  35  56  82 112 145 179 216 259 309
#     4  10  22  37  55  77 103 135 174 218 266 319
#     4  12  25  43  63  87 108 142 181 223 275 319
#     4   9  16  27  45  73 108 145 183 222 266 316
#     4   8  12  18  32  59  98 141 180 217 259 309
#
# _framework density 18.188631000000001
#
# number of rings (size 3 to 8) (size 9 to 14) (size 15 to 20)
#    0.000    2.118    1.765    2.118    0.000    6.353 
#    0.000    1.765    0.000    2.824    0.000    1.235 
#    0.000    7.059    0.000    0.000    0.000    0.000 
#
# Total GULP energy -842710.505383 kJ/mol
# GULP energy per Si atom -12392.801550 kJ/mol
# Density = 1.814723 g / cm^3
# Si number density = 18.188631 Si / 1000 Ang^3
#
#
#
# Elastic Constant Matrix: (Units=GPa)
#
#
# Indices 1 2 3 4 5 6 
#
# 1 79.8930 37.1380 38.5377 0.0000 1.7256 -0.0001
# 2 37.1380 79.8929 38.5375 0.0002 -1.7255 0.0001
# 3 38.5377 38.5375 141.0449 0.0000 0.0000 -0.0001
# 4 0.0000 0.0002 0.0000 17.2699 -0.0001 -1.7255
# 5 1.7256 -1.7255 0.0000 -0.0001 17.2700 0.0000
# 6 -0.0001 0.0001 -0.0001 -1.7255 0.0000 21.3775
#
#
#
# Elastic Compliance Matrix: (Units=1/GPa)
#
#
# Indices 1 2 3 4 5 6 
#
# 1 0.017000 -0.006580 -0.002847 0.000000 -0.002356 0.000000
# 2 -0.006580 0.017000 -0.002847 0.000000 0.002356 0.000000
# 3 -0.002847 -0.002847 0.008646 0.000000 0.000000 0.000000
# 4 0.000000 0.000000 0.000000 0.058375 0.000000 0.004712
# 5 -0.002356 0.002356 0.000000 0.000000 0.058375 0.000000
# 6 0.000000 0.000000 0.000000 0.004712 0.000000 0.047158
#
#
# Mechanical properties :
#
#
# Convention : Reuss Voigt Hill
#
# Bulk Modulus (GPa) = 55.25700 58.80636 57.03168
# Shear Modulus (GPa) = 21.08522 23.62465 22.35494
#
# Velocity S-wave (km/s) = 3.40847 3.60789 3.50960
# Velocity P-wave (km/s) = 6.77762 7.05389 6.91714
#
# Compressibility (1/GPa) = 0.01809725
#
# Stress axis : x y z
#
# Youngs Moduli (GPa) = 58.82516 58.82518 115.66452
#
# Poissons Ratio (x) = 0.38706 0.32930
# Poissons Ratio (y) = 0.38706 0.32929
# Poissons Ratio (z) = 0.16747 0.16747
#
# Static dielectric constant tensor:
#      x y z
#    x 3.151110 0.000000 0.000000 
#    y 0.000000 3.151110 0.000000 
#    z 0.000000 0.000000 3.953220 
# 
# 
# High freq. dielectric constant tensor:
#      x y z
#    x 1.679730 0.000000 0.000000 
#    y 0.000000 1.679730 0.000000 
#    z 0.000000 0.000000 1.733820 
# 
# From -- ./inp_files/4094.got.cif
#   From: 2010.03.12/outbox.cif.g09.slc.cpg/sg162_3_cif.got.tgz:4094.got - 2010.04.02 06:27:41.
