data_PCOD8323518
_publ_section_title
;
Structure prediction by ZEFSAII (Michael W. Deem and Ramdas Pophale) SiO2 
 PCOD8323518
Probable space group: P -3 M 1
;
_chemical_formula_sum "Si O2"
_cell_formula_units_Z 60
_cell_length_a 17.450347
_cell_length_b 17.450347
_cell_length_c 13.217557
_cell_angle_alpha 90.000000
_cell_angle_beta 90.000000
_cell_angle_gamma 120.000000
_cell_volume 3485.699614
_symmetry_space_group_name_H-M "P -3 M 1"
_symmetry_group_IT_number 164
_symmetry_cell_setting 'hexagonal'
loop_
_space_group_symop_operation_xyz
x,y,z
-y,x-y,z
-x+y,-x,z
x-y,-y,-z
-x,-x+y,-z
y,x,-z
-x,-y,-z
y,-x+y,-z
x-y,x,-z
-x+y,y,z
x,x-y,z
-y,-x,z
loop_
_atom_site_type_symbol
_atom_site_label
_atom_site_fract_x
_atom_site_fract_y
_atom_site_fract_z
Si Si1 0.154668 0.488807 0.230740
Si Si2 0.334302 0.080019 0.923681
Si Si3 0.168922 0.170124 0.779654
Si Si4 0.581245 0.997953 0.620451
Si Si5 0.938350 0.231759 0.403723
O O1 0.247326 0.494651 0.255834
O O2 0.170726 0.585363 0.202078
O O3 0.108032 0.425748 0.133910
O O4 0.095061 0.450983 0.331601
O O5 0.337634 0.168817 0.971587
O O6 0.256253 0.038280 0.843949
O O7 0.314331 0.000000 0.000000
O O8 0.091789 0.183578 0.829795
O O9 0.188605 0.208716 0.667376
O O10 0.132449 0.066225 0.770859
O O11 0.480669 0.961338 0.661930
O O12 0.621778 0.935748 0.651729
O O13 0.577487 0.000000 0.500000
O O14 0.839009 0.160992 0.435762
O O15 0.000000 0.269239 0.500000
#
# Coordination Sequence:
#
# PCOD8323518 Si02
#       5
#    12  12  12  12  12
#     4  10  20  35  56  80 106 134 169 215 265 313
#     4  10  20  34  52  73 100 133 170 215 262 312
#     4  10  19  31  46  68  98 133 172 210 251 297
#     4   9  18  32  50  74 103 134 166 204 250 301
#     4  10  19  30  48  73 101 134 170 207 247 298
#
# _framework density 17.213187000000001
#
# number of rings (size 3 to 8) (size 9 to 14) (size 15 to 20)
#    0.000    2.200    2.000    1.600    0.000    3.600 
#    0.000    0.000    0.000    6.800    0.000    0.000 
#    0.000    0.000    0.000    0.000    0.000    0.000 
#
# Total GULP energy -743360.759305 kJ/mol
# GULP energy per Si atom -12389.345988 kJ/mol
# Density = 1.717401 g / cm^3
# Si number density = 17.213187 Si / 1000 Ang^3
#
#
#
# Elastic Constant Matrix: (Units=GPa)
#
#
# Indices 1 2 3 4 5 6 
#
# 1 119.3234 73.0000 36.3382 3.8826 0.0000 0.0000
# 2 73.0000 119.3234 36.3382 -3.8826 0.0000 0.0000
# 3 36.3382 36.3382 59.3891 0.0000 0.0000 0.0000
# 4 3.8826 -3.8826 0.0000 19.6135 0.0000 0.0000
# 5 0.0000 0.0000 0.0000 0.0000 19.6135 3.8826
# 6 0.0000 0.0000 0.0000 0.0000 3.8826 23.1617
#
#
#
# Elastic Compliance Matrix: (Units=1/GPa)
#
#
# Indices 1 2 3 4 5 6 
#
# 1 0.014546 -0.007782 -0.004138 -0.004420 0.000000 0.000000
# 2 -0.007782 0.014546 -0.004138 0.004420 0.000000 0.000000
# 3 -0.004138 -0.004138 0.021902 0.000000 0.000000 0.000000
# 4 -0.004420 0.004420 0.000000 0.052735 0.000000 0.000000
# 5 0.000000 0.000000 0.000000 0.000000 0.052735 -0.008840
# 6 0.000000 0.000000 0.000000 0.000000 -0.008840 0.044657
#
#
# Mechanical properties :
#
#
# Convention : Reuss Voigt Hill
#
# Bulk Modulus (GPa) = 52.97768 65.48764 59.23266
# Shear Modulus (GPa) = 20.87414 22.63504 21.75459
#
# Velocity S-wave (km/s) = 3.48614 3.63020 3.55890
# Velocity P-wave (km/s) = 6.85918 7.46316 7.16754
#
# Compressibility (1/GPa) = 0.01887587
#
# Stress axis : x y z
#
# Youngs Moduli (GPa) = 68.74826 68.74826 45.65735
#
# Poissons Ratio (x) = 0.53503 0.18894
# Poissons Ratio (y) = 0.53503 0.18894
# Poissons Ratio (z) = 0.28450 0.28450
#
# Static dielectric constant tensor:
#      x y z
#    x 3.674480 0.000000 0.000000 
#    y 0.000000 3.674480 0.000000 
#    z 0.000000 0.000000 2.990010 
# 
# 
# High freq. dielectric constant tensor:
#      x y z
#    x 1.670300 0.000000 0.000000 
#    y 0.000000 1.670300 0.000000 
#    z 0.000000 0.000000 1.642530 
# 
# From -- ./inp_files/2654.got.cif
#   From: 2010.03.12/outbox.cif.g09.slc.cpg/sg164_2_cif.got.tgz:2654.got - 2010.04.02 06:32:59.
