data_PCOD8323623
_publ_section_title
;
Structure prediction by ZEFSAII (Michael W. Deem and Ramdas Pophale) SiO2 
 PCOD8323623
Probable space group: P -3 M 1
;
_chemical_formula_sum "Si O2"
_cell_formula_units_Z 66
_cell_length_a 12.785951
_cell_length_b 12.785951
_cell_length_c 27.799761
_cell_angle_alpha 90.000000
_cell_angle_beta 90.000000
_cell_angle_gamma 120.000000
_cell_volume 3935.842993
_symmetry_space_group_name_H-M "P -3 M 1"
_symmetry_group_IT_number 164
_symmetry_cell_setting 'hexagonal'
loop_
_space_group_symop_operation_xyz
x,y,z
-y,x-y,z
-x+y,-x,z
x-y,-y,-z
-x,-x+y,-z
y,x,-z
-x,-y,-z
y,-x+y,-z
x-y,x,-z
-x+y,y,z
x,x-y,z
-y,-x,z
loop_
_atom_site_type_symbol
_atom_site_label
_atom_site_fract_x
_atom_site_fract_y
_atom_site_fract_z
Si Si1 0.999879 0.759290 0.054510
Si Si2 0.909867 0.578253 0.412022
Si Si3 0.241024 0.999882 0.329531
Si Si4 0.667640 0.577463 0.862606
Si Si5 0.760094 0.000085 0.780107
Si Si6 0.000000 0.754758 0.500000
O O1 0.873294 0.746587 0.068765
O O2 0.023236 0.674764 0.089797
O O3 0.101128 0.898873 0.060969
O O4 0.000000 0.716314 0.000000
O O5 0.768668 0.537335 0.412857
O O6 0.924034 0.462017 0.418033
O O7 0.971250 0.644124 0.362083
O O8 0.981031 0.671392 0.454369
O O9 0.202549 0.101275 0.336906
O O10 0.279876 0.998116 0.274633
O O11 0.127609 0.872392 0.344776
O O12 0.770758 0.541516 0.862765
O O13 0.540582 0.459418 0.862675
O O14 0.674797 0.650798 0.814746
O O15 0.745291 0.872646 0.794321
O O16 0.899662 0.100339 0.787704
O O17 0.885464 0.770928 0.509782
#
# Coordination Sequence:
#
# PCOD8323623 Si02
#       6
#    12  12  12  12  12   6
#     4   9  17  30  50  75  98 118 144 185 238 288
#     4  10  20  33  49  69  96 131 167 198 228 270
#     4   9  17  30  50  75 100 124 152 192 242 290
#     4  10  20  32  46  64  90 126 164 197 227 267
#     4   9  17  30  50  75  98 120 150 193 245 292
#     4  10  20  34  54  78 100 122 152 196 248 294
#
# _framework density 16.768961999999998
#
# number of rings (size 3 to 8) (size 9 to 14) (size 15 to 20)
#    0.000    2.545    0.000    2.364    0.000    3.273 
#    0.000    3.636    0.000    6.909    0.000    0.000 
#    0.000    0.000    0.000    0.000    0.000    0.000 
#
# Total GULP energy -818516.183502 kJ/mol
# GULP energy per Si atom -12401.760356 kJ/mol
# Density = 1.673080 g / cm^3
# Si number density = 16.768962 Si / 1000 Ang^3
#
#
#
# Elastic Constant Matrix: (Units=GPa)
#
#
# Indices 1 2 3 4 5 6 
#
# 1 120.4148 75.0717 69.8196 0.9520 0.0000 0.0000
# 2 75.0717 120.4148 69.8196 -0.9520 0.0000 0.0000
# 3 69.8196 69.8196 120.2832 0.0000 0.0000 0.0000
# 4 0.9520 -0.9520 0.0000 20.9976 0.0000 0.0000
# 5 0.0000 0.0000 0.0000 0.0000 20.9976 0.9520
# 6 0.0000 0.0000 0.0000 0.0000 0.9520 22.6715
#
#
#
# Elastic Compliance Matrix: (Units=1/GPa)
#
#
# Indices 1 2 3 4 5 6 
#
# 1 0.015418 -0.006679 -0.005073 -0.001002 0.000000 0.000000
# 2 -0.006679 0.015418 -0.005073 0.001002 0.000000 0.000000
# 3 -0.005073 -0.005073 0.014203 0.000000 0.000000 0.000000
# 4 -0.001002 0.001002 0.000000 0.047715 0.000000 0.000000
# 5 0.000000 0.000000 0.000000 0.000000 0.047715 -0.002004
# 6 0.000000 0.000000 0.000000 0.000000 -0.002004 0.044192
#
#
# Mechanical properties :
#
#
# Convention : Reuss Voigt Hill
#
# Bulk Modulus (GPa) = 87.79610 87.83718 87.81664
# Shear Modulus (GPa) = 22.51190 22.69347 22.60268
#
# Velocity S-wave (km/s) = 3.66795 3.68272 3.67534
# Velocity P-wave (km/s) = 8.39098 8.40105 8.39602
#
# Compressibility (1/GPa) = 0.01139003
#
# Stress axis : x y z
#
# Youngs Moduli (GPa) = 64.86131 64.86131 70.40985
#
# Poissons Ratio (x) = 0.43319 0.35716
# Poissons Ratio (y) = 0.43319 0.35716
# Poissons Ratio (z) = 0.32901 0.32901
#
# Static dielectric constant tensor:
#      x y z
#    x 2.960010 0.000000 0.000000 
#    y 0.000000 2.960010 0.000000 
#    z 0.000000 0.000000 3.519010 
# 
# 
# High freq. dielectric constant tensor:
#      x y z
#    x 1.633750 0.000000 0.000000 
#    y 0.000000 1.633750 0.000000 
#    z 0.000000 0.000000 1.664740 
# 
# From -- ./inp_files/5408.got.cif
#   From: 2010.03.12/outbox.cif.g09.slc.cpg/sg164_3_cif.got.tgz:5408.got - 2010.04.02 06:32:59.
