data_PCOD8323136
_publ_section_title
;
Structure prediction by ZEFSAII (Michael W. Deem and Ramdas Pophale) SiO2 
 PCOD8323136
Probable space group: P -3 1 M 
;
_chemical_formula_sum "Si O2"
_cell_formula_units_Z 24
_cell_length_a 12.542720
_cell_length_b 12.542720
_cell_length_c 7.885051
_cell_angle_alpha 90.000000
_cell_angle_beta 90.000000
_cell_angle_gamma 120.000000
_cell_volume 1074.282727
_symmetry_space_group_name_H-M "P -3 1 M "
_symmetry_group_IT_number 162
_symmetry_cell_setting 'hexagonal'
loop_
_space_group_symop_operation_xyz
x,y,z
-y,x-y,z
-x+y,-x,z
-y,-x,-z
-x+y,y,-z
x,x-y,-z
-x,-y,-z
y,-x+y,-z
x-y,x,-z
y,x,z
x-y,-y,z
-x,-x+y,z
loop_
_atom_site_type_symbol
_atom_site_label
_atom_site_fract_x
_atom_site_fract_y
_atom_site_fract_z
Si Si1 0.859685 0.305139 0.347827
Si Si2 0.506934 0.645108 0.850683
O O1 0.780360 0.219641 0.500000
O O2 0.791681 0.224574 0.177558
O O3 0.859048 0.433965 0.325131
O O4 0.000000 0.332840 0.357224
O O5 0.614219 0.614219 0.891055
O O6 0.406103 0.593898 0.000000
#
# Coordination Sequence:
#
# PCOD8323136 Si02
#       2
#    12  12
#     4  11  22  37  60  89 124 162 201 253 314 376
#     4  10  21  38  61  88 120 161 208 259 313 367
#
# _framework density 22.340489000000002
#
# number of rings (size 3 to 8) (size 9 to 14) (size 15 to 20)
#    0.000    1.500    0.000    5.500    0.000    4.000 
#    0.000    2.500    0.000    9.000    0.000    0.000 
#    0.000   48.000    0.000    0.000    0.000    0.000 
#
# Total GULP energy -297352.301048 kJ/mol
# GULP energy per Si atom -12389.679210 kJ/mol
# Density = 2.228964 g / cm^3
# Si number density = 22.340489 Si / 1000 Ang^3
#
#
#
# Elastic Constant Matrix: (Units=GPa)
#
#
# Indices 1 2 3 4 5 6 
#
# 1 133.0278 69.6037 35.4811 -0.0002 4.4386 0.0000
# 2 69.6037 133.0278 35.4811 0.0002 -4.4386 0.0000
# 3 35.4811 35.4811 55.0055 0.0000 0.0000 0.0000
# 4 -0.0002 0.0002 0.0000 33.7177 0.0000 -4.4386
# 5 4.4386 -4.4386 0.0000 0.0000 33.7177 -0.0002
# 6 0.0000 0.0000 0.0000 -4.4386 -0.0002 31.7120
#
#
#
# Elastic Compliance Matrix: (Units=1/GPa)
#
#
# Indices 1 2 3 4 5 6 
#
# 1 0.011219 -0.004844 -0.004112 0.000000 -0.002115 0.000000
# 2 -0.004844 0.011219 -0.004112 0.000000 0.002115 0.000000
# 3 -0.004112 -0.004112 0.023485 0.000000 0.000000 0.000000
# 4 0.000000 0.000000 0.000000 0.030215 0.000000 0.004229
# 5 -0.002115 0.002115 0.000000 0.000000 0.030215 0.000000
# 6 0.000000 0.000000 0.000000 0.004229 0.000000 0.032126
#
#
# Mechanical properties :
#
#
# Convention : Reuss Voigt Hill
#
# Bulk Modulus (GPa) = 50.53966 66.91034 58.72500
# Shear Modulus (GPa) = 29.20377 31.86250 30.53313
#
# Velocity S-wave (km/s) = 3.61946 3.78063 3.70092
# Velocity P-wave (km/s) = 6.33553 7.00520 6.67876
#
# Compressibility (1/GPa) = 0.01978644
#
# Stress axis : x y z
#
# Youngs Moduli (GPa) = 89.13432 89.13432 42.57994
#
# Poissons Ratio (x) = 0.43175 0.17510
# Poissons Ratio (y) = 0.43175 0.17510
# Poissons Ratio (z) = 0.36655 0.36655
#
# Static dielectric constant tensor:
#      x y z
#    x 3.961960 0.000000 0.000000 
#    y 0.000000 3.961960 0.000000 
#    z 0.000000 0.000000 4.749660 
# 
# 
# High freq. dielectric constant tensor:
#      x y z
#    x 1.853620 0.000000 0.000000 
#    y 0.000000 1.853620 0.000000 
#    z 0.000000 0.000000 1.917770 
# 
# From -- ./inp_files/849.got.cif
#   From: 2010.03.12/outbox.cif.g09.slc.cpg/sg162_1_cif.got.tgz:849.got - 2010.04.02 06:27:41.
