data_PCOD8323508
_publ_section_title
;
Structure prediction by ZEFSAII (Michael W. Deem and Ramdas Pophale) SiO2 
 PCOD8323508
Probable space group: P -3 M 1
;
_chemical_formula_sum "Si O2"
_cell_formula_units_Z 72
_cell_length_a 17.053513
_cell_length_b 17.053513
_cell_length_c 17.516090
_cell_angle_alpha 90.000000
_cell_angle_beta 90.000000
_cell_angle_gamma 120.000000
_cell_volume 4411.593751
_symmetry_space_group_name_H-M "P -3 M 1"
_symmetry_group_IT_number 164
_symmetry_cell_setting 'hexagonal'
loop_
_space_group_symop_operation_xyz
x,y,z
-y,x-y,z
-x+y,-x,z
x-y,-y,-z
-x,-x+y,-z
y,x,-z
-x,-y,-z
y,-x+y,-z
x-y,x,-z
-x+y,y,z
x,x-y,z
-y,-x,z
loop_
_atom_site_type_symbol
_atom_site_label
_atom_site_fract_x
_atom_site_fract_y
_atom_site_fract_z
Si Si1 0.998921 0.822046 0.725469
Si Si2 0.943873 0.707868 0.575433
Si Si3 0.405065 0.990877 0.914596
Si Si4 0.335135 0.844167 0.193794
Si Si5 0.978466 0.399570 0.669725
Si Si6 0.371117 0.275491 0.216457
O O1 0.905052 0.810103 0.757651
O O2 0.986703 0.783294 0.640525
O O3 0.030304 0.767842 0.780930
O O4 0.072359 0.927642 0.722656
O O5 0.837802 0.675604 0.562981
O O6 0.956519 0.622460 0.597087
O O7 0.000000 0.754224 0.500000
O O8 0.479854 0.959708 0.916094
O O9 0.319931 0.915535 0.866826
O O10 0.443286 0.087667 0.875410
O O11 0.375728 0.000000 0.000000
O O12 0.401072 0.802144 0.189111
O O13 0.232394 0.767607 0.186590
O O14 0.348667 0.893729 0.273996
O O15 0.991966 0.495983 0.642344
O O16 0.068567 0.417547 0.715628
O O17 0.399642 0.199821 0.228845
#
# Coordination Sequence:
#
# PCOD8323508 Si02
#       6
#    12  12  12  12  12  12
#     4   9  17  29  45  66  92 120 148 178 214 256
#     4  10  19  30  46  69  95 121 151 184 219 264
#     4   9  18  31  45  63  89 119 148 180 222 270
#     4   9  16  27  45  68  91 113 140 176 219 266
#     4   9  18  32  49  67  88 117 151 186 226 271
#     4   9  17  29  46  67  88 113 148 188 224 260
#
# _framework density 16.320633000000001
#
# number of rings (size 3 to 8) (size 9 to 14) (size 15 to 20)
#    0.000    2.833    0.000    2.833    0.000    5.667 
#    0.000    0.000    0.000    5.667    0.000    1.167 
#    0.000    3.333    0.000    0.000    0.000    0.000 
#
# Total GULP energy -892690.307175 kJ/mol
# GULP energy per Si atom -12398.476489 kJ/mol
# Density = 1.628349 g / cm^3
# Si number density = 16.320633 Si / 1000 Ang^3
#
#
#
# Elastic Constant Matrix: (Units=GPa)
#
#
# Indices 1 2 3 4 5 6 
#
# 1 80.8871 38.7061 23.2079 2.6819 0.0000 0.0000
# 2 38.7061 80.8871 23.2079 -2.6819 0.0000 0.0000
# 3 23.2079 23.2079 66.8497 0.0000 0.0000 0.0000
# 4 2.6819 -2.6819 0.0000 16.6449 0.0000 0.0000
# 5 0.0000 0.0000 0.0000 0.0000 16.6449 2.6819
# 6 0.0000 0.0000 0.0000 0.0000 2.6819 21.0905
#
#
#
# Elastic Compliance Matrix: (Units=1/GPa)
#
#
# Indices 1 2 3 4 5 6 
#
# 1 0.016934 -0.007270 -0.003355 -0.003900 0.000000 0.000000
# 2 -0.007270 0.016934 -0.003355 0.003900 0.000000 0.000000
# 3 -0.003355 -0.003355 0.017288 0.000000 0.000000 0.000000
# 4 -0.003900 0.003900 0.000000 0.061335 0.000000 0.000000
# 5 0.000000 0.000000 0.000000 0.000000 0.061335 -0.007799
# 6 0.000000 0.000000 0.000000 0.000000 -0.007799 0.048407
#
#
# Mechanical properties :
#
#
# Convention : Reuss Voigt Hill
#
# Bulk Modulus (GPa) = 43.11050 44.31861 43.71455
# Shear Modulus (GPa) = 19.38561 20.44287 19.91424
#
# Velocity S-wave (km/s) = 3.45018 3.54302 3.49691
# Velocity P-wave (km/s) = 6.50721 6.62957 6.56867
#
# Compressibility (1/GPa) = 0.02319621
#
# Stress axis : x y z
#
# Youngs Moduli (GPa) = 59.05447 59.05447 57.84238
#
# Poissons Ratio (x) = 0.42931 0.19406
# Poissons Ratio (y) = 0.42931 0.19406
# Poissons Ratio (z) = 0.19812 0.19812
#
# Static dielectric constant tensor:
#      x y z
#    x 3.113030 0.000000 0.000000 
#    y 0.000000 3.113030 0.000000 
#    z 0.000000 0.000000 2.959640 
# 
# 
# High freq. dielectric constant tensor:
#      x y z
#    x 1.625270 0.000000 0.000000 
#    y 0.000000 1.625270 0.000000 
#    z 0.000000 0.000000 1.610420 
# 
# From -- ./inp_files/4050.got.cif
#   From: 2010.03.12/outbox.cif.g09.slc.cpg/sg164_3_cif.got.tgz:4050.got - 2010.04.02 06:32:59.
