data_PCOD8323512
_publ_section_title
;
Structure prediction by ZEFSAII (Michael W. Deem and Ramdas Pophale) SiO2 
 PCOD8323512
Probable space group: P -3 M 1
;
_chemical_formula_sum "Si O2"
_cell_formula_units_Z 84
_cell_length_a 17.938041
_cell_length_b 17.938041
_cell_length_c 14.951547
_cell_angle_alpha 90.000000
_cell_angle_beta 90.000000
_cell_angle_gamma 120.000000
_cell_volume 4166.455874
_symmetry_space_group_name_H-M "P -3 M 1"
_symmetry_group_IT_number 164
_symmetry_cell_setting 'hexagonal'
loop_
_space_group_symop_operation_xyz
x,y,z
-y,x-y,z
-x+y,-x,z
x-y,-y,-z
-x,-x+y,-z
y,x,-z
-x,-y,-z
y,-x+y,-z
x-y,x,-z
-x+y,y,z
x,x-y,z
-y,-x,z
loop_
_atom_site_type_symbol
_atom_site_label
_atom_site_fract_x
_atom_site_fract_y
_atom_site_fract_z
Si Si1 0.076523 0.456298 0.683892
Si Si2 0.496417 0.330623 0.493741
Si Si3 0.876538 0.520236 0.684220
Si Si4 0.299198 0.065178 0.240252
Si Si5 0.065118 0.757619 0.079735
Si Si6 0.329237 0.833131 0.123170
Si Si7 0.999720 0.828411 0.398392
O O1 0.117713 0.558857 0.709405
O O2 0.091699 0.446291 0.579160
O O3 0.107709 0.403062 0.745832
O O4 0.976657 0.411597 0.699756
O O5 0.501328 0.250664 0.453510
O O6 0.591289 0.408712 0.508036
O O7 0.447860 0.304068 0.590535
O O8 0.835743 0.417872 0.676611
O O9 0.836635 0.535204 0.773826
O O10 0.282584 0.141292 0.207648
O O11 0.252466 0.024284 0.334332
O O12 0.259729 0.988082 0.170457
O O13 0.144441 0.855560 0.078750
O O14 0.100495 0.690313 0.068903
O O15 0.000000 0.743053 0.000000
O O16 0.428521 0.857041 0.110535
O O17 0.264491 0.735510 0.089817
O O18 0.929549 0.859098 0.389163
O O19 0.000000 0.797998 0.500000
O O20 0.091978 0.908023 0.370689
#
# Coordination Sequence:
#
# PCOD8323512 Si02
#       7
#    12  12  12  12  12  12  12
#     4  10  20  35  52  74 110 154 199 244 292 349
#     4  10  19  30  46  70 105 152 204 253 295 337
#     4   9  17  31  50  74 108 150 196 245 295 345
#     4  11  22  38  60  87 117 151 196 247 296 347
#     4  11  24  43  66  91 120 155 194 241 296 353
#     4  10  20  36  60  92 125 158 195 241 297 354
#     4   9  18  33  54  82 116 153 190 233 290 358
#
# _framework density 20.161021000000002
#
# number of rings (size 3 to 8) (size 9 to 14) (size 15 to 20)
#    0.000    2.000    1.429    2.571    0.000    3.714 
#    0.000    2.857    0.000    3.714    0.000    0.000 
#    0.000    0.000    0.000    0.000    0.000    0.000 
#
# Total GULP energy -1040725.321238 kJ/mol
# GULP energy per Si atom -12389.587158 kJ/mol
# Density = 2.011513 g / cm^3
# Si number density = 20.161021 Si / 1000 Ang^3
#
#
#
# Elastic Constant Matrix: (Units=GPa)
#
#
# Indices 1 2 3 4 5 6 
#
# 1 74.8843 54.8095 31.8066 -9.3803 0.0000 0.0000
# 2 54.8095 74.8843 31.8066 9.3803 0.0000 0.0000
# 3 31.8066 31.8066 64.3567 0.0000 0.0000 0.0000
# 4 -9.3803 9.3803 0.0000 8.3026 0.0000 0.0000
# 5 0.0000 0.0000 0.0000 0.0000 8.3026 -9.3803
# 6 0.0000 0.0000 0.0000 0.0000 -9.3803 10.0374
#
#
#
# Elastic Compliance Matrix: (Units=1/GPa)
#
#
# Indices 1 2 3 4 5 6 
#
# 1 -0.441031 0.451208 -0.005030 -1.008047 0.000001 0.000001
# 2 0.451208 -0.441031 -0.005030 1.008047 -0.000001 -0.000001
# 3 -0.005030 -0.005030 0.020510 0.000000 0.000000 0.000000
# 4 -1.008047 1.008047 0.000000 -2.157330 0.000001 0.000001
# 5 0.000001 -0.000001 0.000000 0.000001 -2.157332 -2.016096
# 6 0.000001 -0.000001 0.000000 0.000001 -2.016096 -1.784480
#
#
# Mechanical properties :
#
#
# Convention : Reuss Voigt Hill
#
# Bulk Modulus (GPa) = 48.20330 50.10788 49.15559
# Shear Modulus (GPa) = -0.63807 11.70870 5.53531
#
# Velocity S-wave (km/s) = -0.56318 2.41251 1.65877
# Velocity P-wave (km/s) = 4.85161 5.71560 5.30124
#
# Compressibility (1/GPa) = 0.02074547
#
# Stress axis : x y z
#
# Youngs Moduli (GPa) = -2.26742 -2.26742 48.75590
#
# Poissons Ratio (x) = 1.02308 0.24524
# Poissons Ratio (y) = 1.02308 0.24524
# Poissons Ratio (z) = -0.01141 -0.01141
#
# Static dielectric constant tensor:
#      x y z
#    x 3.780800 0.000000 0.000000 
#    y 0.000000 3.780800 0.000000 
#    z 0.000000 0.000000 3.584480 
# 
# 
# High freq. dielectric constant tensor:
#      x y z
#    x 1.784180 0.000000 0.000000 
#    y 0.000000 1.784180 0.000000 
#    z 0.000000 0.000000 1.763610 
# 
# From -- ./inp_files/3611.got.cif
#   From: 2010.03.12/outbox.cif.g09.slc.cpg/sg164_2_cif.got.tgz:3611.got - 2010.04.02 06:32:59.
