data_PCOD8323114
_publ_section_title
;
Structure prediction by ZEFSAII (Michael W. Deem and Ramdas Pophale) SiO2 
 PCOD8323114
Probable space group: P -3 1 M 
;
_chemical_formula_sum "Si O2"
_cell_formula_units_Z 84
_cell_length_a 17.566565
_cell_length_b 17.566565
_cell_length_c 16.402878
_cell_angle_alpha 90.000000
_cell_angle_beta 90.000000
_cell_angle_gamma 120.000000
_cell_volume 4383.534011
_symmetry_space_group_name_H-M "P -3 1 M "
_symmetry_group_IT_number 162
_symmetry_cell_setting 'hexagonal'
loop_
_space_group_symop_operation_xyz
x,y,z
-y,x-y,z
-x+y,-x,z
-y,-x,-z
-x+y,y,-z
x,x-y,-z
-x,-y,-z
y,-x+y,-z
x-y,x,-z
y,x,z
x-y,-y,z
-x,-x+y,z
loop_
_atom_site_type_symbol
_atom_site_label
_atom_site_fract_x
_atom_site_fract_y
_atom_site_fract_z
Si Si1 0.413981 0.901086 0.714049
Si Si2 0.902168 0.253800 0.535282
Si Si3 0.104007 0.895994 0.000000
Si Si4 0.391041 0.901272 0.130815
Si Si5 0.543915 0.644524 0.391866
Si Si6 0.181457 0.778750 0.296478
Si Si7 0.102249 0.784996 0.848801
Si Si8 0.778659 0.389330 0.000000
O O1 0.479189 0.891579 0.776459
O O2 0.445164 0.882127 0.625713
O O3 0.313515 0.831434 0.737921
O O4 0.429484 0.000000 0.716258
O O5 0.843107 0.156894 0.500000
O O6 0.880793 0.322301 0.486075
O O7 0.890742 0.256149 0.631622
O O8 0.000000 0.276317 0.516525
O O9 0.124025 0.854097 0.921389
O O10 0.000000 0.853273 0.014482
O O11 0.289330 0.874986 0.122899
O O12 0.451736 0.000000 0.098307
O O13 0.415258 0.839206 0.079120
O O14 0.613338 0.613338 0.368245
O O15 0.560417 0.722906 0.332308
O O16 0.163415 0.834031 0.227792
O O17 0.000000 0.740693 0.822455
O O18 0.716885 0.433769 0.000000
#
# Coordination Sequence:
#
# PCOD8323114 Si02
#       8
#    12  12   6  12  12  12  12   6
#     4  10  21  34  53  80 110 148 186 234 289 334
#     4   9  19  34  56  84 112 148 194 243 293 348
#     4  10  23  41  64  92 118 148 184 241 311 364
#     4  10  21  39  56  76 108 150 193 229 278 343
#     4   9  18  37  56  75 112 157 193 230 285 347
#     4  11  20  32  57  86 114 141 195 246 285 337
#     4  10  22  40  64  85 112 155 198 236 283 350
#     4  10  25  35  54  80 112 140 180 233 289 334
#
# _framework density 19.162621000000001
#
# number of rings (size 3 to 8) (size 9 to 14) (size 15 to 20)
#    0.143    2.000    1.429    1.143    3.000    2.286 
#    0.857    5.000    0.000    0.143    0.000    1.000 
#    0.000    0.000    0.000    0.000    0.000    0.000 
#
# Total GULP energy -1040963.812558 kJ/mol
# GULP energy per Si atom -12392.426340 kJ/mol
# Density = 1.911901 g / cm^3
# Si number density = 19.162621 Si / 1000 Ang^3
#
#
#
# Elastic Constant Matrix: (Units=GPa)
#
#
# Indices 1 2 3 4 5 6 
#
# 1 105.1888 50.8153 57.5311 0.0000 2.5452 0.0000
# 2 50.8153 105.1888 57.5311 0.0000 -2.5452 0.0000
# 3 57.5311 57.5311 115.9564 0.0000 0.0000 0.0000
# 4 0.0000 0.0000 0.0000 32.2025 0.0000 -2.5452
# 5 2.5452 -2.5452 0.0000 0.0000 32.2025 0.0000
# 6 0.0000 0.0000 0.0000 -2.5452 0.0000 27.1868
#
#
#
# Elastic Compliance Matrix: (Units=1/GPa)
#
#
# Indices 1 2 3 4 5 6 
#
# 1 0.014319 -0.004209 -0.005016 0.000000 -0.001464 0.000000
# 2 -0.004209 0.014319 -0.005016 0.000000 0.001464 0.000000
# 3 -0.005016 -0.005016 0.013601 0.000000 0.000000 0.000000
# 4 0.000000 0.000000 0.000000 0.031285 0.000000 0.002929
# 5 -0.001464 0.001464 0.000000 0.000000 0.031285 0.000000
# 6 0.000000 0.000000 0.000000 0.002929 0.000000 0.037057
#
#
# Mechanical properties :
#
#
# Convention : Reuss Voigt Hill
#
# Bulk Modulus (GPa) = 72.69053 73.12101 72.90577
# Shear Modulus (GPa) = 28.58231 29.01544 28.79887
#
# Velocity S-wave (km/s) = 3.86627 3.89545 3.88089
# Velocity P-wave (km/s) = 7.61226 7.64681 7.62956
#
# Compressibility (1/GPa) = 0.01375695
#
# Stress axis : x y z
#
# Youngs Moduli (GPa) = 69.83749 69.83749 73.52378
#
# Poissons Ratio (x) = 0.29398 0.36878
# Poissons Ratio (y) = 0.29398 0.36878
# Poissons Ratio (z) = 0.35029 0.35029
#
# Static dielectric constant tensor:
#      x y z
#    x 3.463040 0.000000 0.000000 
#    y 0.000000 3.463040 0.000000 
#    z 0.000000 0.000000 3.616590 
# 
# 
# High freq. dielectric constant tensor:
#      x y z
#    x 1.737350 0.000000 0.000000 
#    y 0.000000 1.737350 0.000000 
#    z 0.000000 0.000000 1.748500 
# 
# From -- ./inp_files/3243.got.cif
#   From: 2010.03.12/outbox.cif.g09.slc.cpg/sg162_2_cif.got.tgz:3243.got - 2010.04.02 06:27:41.
