data_PCOD8323943
_publ_section_title
;
Structure prediction by ZEFSAII (Michael W. Deem and Ramdas Pophale) SiO2 
 PCOD8323943
Probable space group: P -3 C 1
;
_chemical_formula_sum "Si O2"
_cell_formula_units_Z 72
_cell_length_a 23.216803
_cell_length_b 23.216803
_cell_length_c 8.481732
_cell_angle_alpha 90.000000
_cell_angle_beta 90.000000
_cell_angle_gamma 120.000000
_cell_volume 3959.314588
_symmetry_space_group_name_H-M "P -3 C 1"
_symmetry_group_IT_number 165
_symmetry_cell_setting 'hexagonal'
loop_
_space_group_symop_operation_xyz
x,y,z
-y,x-y,z
-x+y,-x,z
x-y,-y,1/2-z
-x,-x+y,1/2-z
y,x,1/2-z
-x,-y,-z
y,-x+y,-z
x-y,x,-z
-x+y,y,1/2+z
x,x-y,1/2+z
-y,-x,1/2+z
loop_
_atom_site_type_symbol
_atom_site_label
_atom_site_fract_x
_atom_site_fract_y
_atom_site_fract_z
Si Si1 0.217723 0.286295 0.169107
Si Si2 0.686262 0.457806 0.384615
Si Si3 0.355845 0.556549 0.260460
Si Si4 0.925327 0.585256 0.219410
Si Si5 0.742474 0.137116 0.927889
Si Si6 0.812238 0.129592 0.640176
O O1 0.236777 0.236777 0.250000
O O2 0.276919 0.362853 0.178567
O O3 0.152175 0.272446 0.263633
O O4 0.202547 0.272395 0.981618
O O5 0.739384 0.434556 0.350508
O O6 0.621219 0.426686 0.273284
O O7 0.663952 0.440211 0.562832
O O8 0.724372 0.535649 0.352433
O O9 0.359606 0.489388 0.229832
O O10 0.000000 0.597993 0.250000
O O11 0.917707 0.599719 0.034647
O O12 0.754635 0.103917 0.773220
O O13 0.808191 0.178765 0.034763
#
# Coordination Sequence:
#
# PCOD8323943 Si02
#       6
#    12  12  12  12  12  12
#     4   9  17  30  49  73 104 138 173 213 255 305
#     4  11  21  34  51  74  95 126 162 206 263 308
#     4  11  22  35  53  73 100 127 164 215 262 317
#     4   9  19  36  53  72 100 133 167 211 261 311
#     4   9  17  31  52  73  95 129 168 202 250 312
#     4   9  16  30  52  75 100 133 169 207 249 303
#
# _framework density 18.184964999999998
#
# number of rings (size 3 to 8) (size 9 to 14) (size 15 to 20)
#    0.000    2.333    0.000    5.333    0.000    1.333 
#    0.000   16.667    0.000    2.000    0.000    0.000 
#    0.000    0.000    0.000    5.000    0.000    0.333 
#
# Total GULP energy -892296.407124 kJ/mol
# GULP energy per Si atom -12393.005654 kJ/mol
# Density = 1.814358 g / cm^3
# Si number density = 18.184965 Si / 1000 Ang^3
#
#
#
# Elastic Constant Matrix: (Units=GPa)
#
#
# Indices 1 2 3 4 5 6 
#
# 1 56.5885 28.1815 29.3585 -6.3590 0.0000 0.0000
# 2 28.1815 56.5885 29.3585 6.3590 0.0000 0.0000
# 3 29.3585 29.3585 102.8119 0.0000 0.0000 0.0000
# 4 -6.3590 6.3590 0.0000 23.0158 0.0000 0.0000
# 5 0.0000 0.0000 0.0000 0.0000 23.0158 -6.3590
# 6 0.0000 0.0000 0.0000 0.0000 -6.3590 14.2035
#
#
#
# Elastic Compliance Matrix: (Units=1/GPa)
#
#
# Indices 1 2 3 4 5 6 
#
# 1 0.027438 -0.012733 -0.004199 0.011099 0.000000 0.000000
# 2 -0.012733 0.027438 -0.004199 -0.011099 0.000000 0.000000
# 3 -0.004199 -0.004199 0.012125 0.000000 0.000000 0.000000
# 4 0.011099 -0.011099 0.000000 0.049581 0.000000 0.000000
# 5 0.000000 0.000000 0.000000 0.000000 0.049581 0.022198
# 6 0.000000 0.000000 0.000000 0.000000 0.022198 0.080343
#
#
# Mechanical properties :
#
#
# Convention : Reuss Voigt Hill
#
# Bulk Modulus (GPa) = 40.42281 43.30953 41.86617
# Shear Modulus (GPa) = 16.83409 20.65306 18.74357
#
# Velocity S-wave (km/s) = 3.04586 3.37370 3.21396
# Velocity P-wave (km/s) = 5.88614 6.24849 6.07002
#
# Compressibility (1/GPa) = 0.02473851
#
# Stress axis : x y z
#
# Youngs Moduli (GPa) = 36.44532 36.44532 82.47637
#
# Poissons Ratio (x) = 0.46406 0.34633
# Poissons Ratio (y) = 0.46406 0.34633
# Poissons Ratio (z) = 0.15304 0.15304
#
# Static dielectric constant tensor:
#      x y z
#    x 3.238400 0.000000 0.000000 
#    y 0.000000 3.238400 0.000000 
#    z 0.000000 0.000000 3.578500 
# 
# 
# High freq. dielectric constant tensor:
#      x y z
#    x 1.676790 0.000000 0.000000 
#    y 0.000000 1.676790 0.000000 
#    z 0.000000 0.000000 1.721110 
# 
# From -- ./inp_files/783.got.cif
#   From: 2010.03.12/outbox.cif.g09.slc.cpg/sg165_1_cif.got.tgz:783.got - 2010.04.02 06:36:38.
