data_PCOD8323750
_publ_section_title
;
Structure prediction by ZEFSAII (Michael W. Deem and Ramdas Pophale) SiO2 
 PCOD8323750
Probable space group: P -3 M 1
;
_chemical_formula_sum "Si O2"
_cell_formula_units_Z 60
_cell_length_a 12.430609
_cell_length_b 12.430609
_cell_length_c 25.520592
_cell_angle_alpha 90.000000
_cell_angle_beta 90.000000
_cell_angle_gamma 120.000000
_cell_volume 3415.121729
_symmetry_space_group_name_H-M "P -3 M 1"
_symmetry_group_IT_number 164
_symmetry_cell_setting 'hexagonal'
loop_
_space_group_symop_operation_xyz
x,y,z
-y,x-y,z
-x+y,-x,z
x-y,-y,-z
-x,-x+y,-z
y,x,-z
-x,-y,-z
y,-x+y,-z
x-y,x,-z
-x+y,y,z
x,x-y,z
-y,-x,z
loop_
_atom_site_type_symbol
_atom_site_label
_atom_site_fract_x
_atom_site_fract_y
_atom_site_fract_z
Si Si1 0.749539 0.999616 0.651334
Si Si2 0.333317 0.916536 0.249027
Si Si3 0.918445 0.583571 0.149010
Si Si4 0.917922 0.583154 0.949441
Si Si5 0.333558 0.416662 0.550630
O O1 0.888617 0.111384 0.644300
O O2 0.677145 0.025190 0.696843
O O3 0.755053 0.877527 0.666029
O O4 0.676295 0.984049 0.598111
O O5 0.442033 0.884065 0.254146
O O6 0.208421 0.791580 0.234646
O O7 0.360081 0.015190 0.203761
O O8 0.796398 0.592796 0.145867
O O9 0.880864 0.440432 0.143271
O O10 0.008151 0.663911 0.102123
O O11 0.796205 0.592409 0.954013
O O12 0.878691 0.439346 0.945912
O O13 0.000000 0.647569 0.000000
O O14 0.355483 0.355483 0.500000
O O15 0.219089 0.438178 0.539749
O O16 0.451989 0.548012 0.564611
#
# Coordination Sequence:
#
# PCOD8323750 Si02
#       5
#    12  12  12  12  12
#     4  10  20  34  52  74 101 133 168 205 246 294
#     4  10  20  34  53  76 102 132 166 206 250 296
#     4  10  20  34  53  76 102 132 166 206 250 296
#     4  10  20  34  54  78 104 134 168 208 252 298
#     4  10  20  34  52  74 100 130 165 205 250 298
#
# _framework density 17.568919000000001
#
# number of rings (size 3 to 8) (size 9 to 14) (size 15 to 20)
#    0.000    2.000    0.000    4.000    0.000    0.000 
#    0.000    4.000    0.000   24.800    0.000    0.000 
#    0.000    0.000    0.000    0.000    0.000    0.000 
#
# Total GULP energy -744269.342188 kJ/mol
# GULP energy per Si atom -12404.489036 kJ/mol
# Density = 1.752893 g / cm^3
# Si number density = 17.568919 Si / 1000 Ang^3
#
#
#
# Elastic Constant Matrix: (Units=GPa)
#
#
# Indices 1 2 3 4 5 6 
#
# 1 95.5668 50.5613 30.1807 -6.3235 0.0000 0.0000
# 2 50.5613 95.5668 30.1807 6.3235 0.0000 0.0000
# 3 30.1807 30.1807 67.4338 0.0000 0.0000 0.0000
# 4 -6.3235 6.3235 0.0000 27.7012 0.0000 0.0000
# 5 0.0000 0.0000 0.0000 0.0000 27.7012 -6.3235
# 6 0.0000 0.0000 0.0000 0.0000 -6.3235 22.5027
#
#
#
# Elastic Compliance Matrix: (Units=1/GPa)
#
#
# Indices 1 2 3 4 5 6 
#
# 1 0.016069 -0.007674 -0.003757 0.005420 0.000000 0.000000
# 2 -0.007674 0.016069 -0.003757 -0.005420 0.000000 0.000000
# 3 -0.003757 -0.003757 0.018193 0.000000 0.000000 0.000000
# 4 0.005420 -0.005420 0.000000 0.038574 0.000000 0.000000
# 5 0.000000 0.000000 0.000000 0.000000 0.038574 0.010840
# 6 0.000000 0.000000 0.000000 0.000000 0.010840 0.047485
#
#
# Mechanical properties :
#
#
# Convention : Reuss Voigt Hill
#
# Bulk Modulus (GPa) = 50.11591 53.37920 51.74755
# Shear Modulus (GPa) = 23.58582 25.42401 24.50491
#
# Velocity S-wave (km/s) = 3.66795 3.80821 3.73874
# Velocity P-wave (km/s) = 6.82098 7.05587 6.93942
#
# Compressibility (1/GPa) = 0.01995374
#
# Stress axis : x y z
#
# Youngs Moduli (GPa) = 62.23172 62.23172 54.96701
#
# Poissons Ratio (x) = 0.47754 0.20654
# Poissons Ratio (y) = 0.47754 0.20654
# Poissons Ratio (z) = 0.23383 0.23383
#
# Static dielectric constant tensor:
#      x y z
#    x 3.263830 0.000000 0.000000 
#    y 0.000000 3.263830 0.000000 
#    z 0.000000 0.000000 3.402470 
# 
# 
# High freq. dielectric constant tensor:
#      x y z
#    x 1.685920 0.000000 0.000000 
#    y 0.000000 1.685920 0.000000 
#    z 0.000000 0.000000 1.696810 
# 
# From -- ./inp_files/5175.got.cif
#   From: 2010.03.12/outbox.cif.g09.slc.cpg/sg164_3_cif.got.tgz:5175.got - 2010.04.02 06:32:59.
