data_PCOD8323734
_publ_section_title
;
Structure prediction by ZEFSAII (Michael W. Deem and Ramdas Pophale) SiO2 
 PCOD8323734
Probable space group: P -3 M 1
;
_chemical_formula_sum "Si O2"
_cell_formula_units_Z 66
_cell_length_a 12.680611
_cell_length_b 12.680611
_cell_length_c 28.130790
_cell_angle_alpha 90.000000
_cell_angle_beta 90.000000
_cell_angle_gamma 120.000000
_cell_volume 3917.354912
_symmetry_space_group_name_H-M "P -3 M 1"
_symmetry_group_IT_number 164
_symmetry_cell_setting 'hexagonal'
loop_
_space_group_symop_operation_xyz
x,y,z
-y,x-y,z
-x+y,-x,z
x-y,-y,-z
-x,-x+y,-z
y,x,-z
-x,-y,-z
y,-x+y,-z
x-y,x,-z
-x+y,y,z
x,x-y,z
-y,-x,z
loop_
_atom_site_type_symbol
_atom_site_label
_atom_site_fract_x
_atom_site_fract_y
_atom_site_fract_z
Si Si1 0.910884 0.577784 0.760764
Si Si2 0.422722 0.088667 0.867954
Si Si3 0.754661 0.753943 0.052815
Si Si4 0.247377 0.000000 0.500000
Si Si5 0.331254 0.912555 0.410993
Si Si6 0.247593 0.001370 0.676506
O O1 0.769425 0.538850 0.755076
O O2 0.922756 0.461378 0.746799
O O3 0.957437 0.622516 0.814357
O O4 0.994804 0.690807 0.726933
O O5 0.552978 0.105956 0.877185
O O6 0.435768 0.217884 0.877416
O O7 0.331695 0.992984 0.906653
O O8 0.885615 0.771230 0.060110
O O9 0.769632 0.884816 0.060580
O O10 0.702665 0.702665 0.000000
O O11 0.230599 0.115300 0.490353
O O12 0.331906 0.019385 0.544891
O O13 0.462606 0.925211 0.414330
O O14 0.229670 0.770331 0.410322
O O15 0.324015 0.979091 0.363769
O O16 0.128428 0.871573 0.669929
O O17 0.209543 0.104771 0.673129
#
# Coordination Sequence:
#
# PCOD8323734 Si02
#       6
#    12  12  12   6  12  12
#     4   9  17  30  49  71  93 118 150 190 234 278
#     4   9  17  29  46  68  92 118 149 187 231 276
#     4   9  17  29  45  65  89 118 152 189 229 273
#     4  10  20  34  54  78 104 134 166 200 238 284
#     4  10  20  34  53  76 101 129 162 201 242 282
#     4  10  20  33  50  72  99 129 159 194 236 282
#
# _framework density 16.848102000000001
#
# number of rings (size 3 to 8) (size 9 to 14) (size 15 to 20)
#    0.000    2.545    0.000    2.364    0.000    3.273 
#    0.000    3.636    0.000   10.182    0.000    0.000 
#    0.000    0.000    0.000    0.000    0.000    0.000 
#
# Total GULP energy -818335.975677 kJ/mol
# GULP energy per Si atom -12399.029935 kJ/mol
# Density = 1.680975 g / cm^3
# Si number density = 16.848102 Si / 1000 Ang^3
#
#
#
# Elastic Constant Matrix: (Units=GPa)
#
#
# Indices 1 2 3 4 5 6 
#
# 1 92.5818 46.4916 55.8504 -2.3176 0.0000 0.0000
# 2 46.4916 92.5818 55.8504 2.3176 0.0000 0.0000
# 3 55.8504 55.8504 122.9864 0.0000 0.0000 0.0000
# 4 -2.3176 2.3176 0.0000 27.1621 0.0000 0.0000
# 5 0.0000 0.0000 0.0000 0.0000 27.1621 -2.3176
# 6 0.0000 0.0000 0.0000 0.0000 -2.3176 23.0451
#
#
#
# Elastic Compliance Matrix: (Units=1/GPa)
#
#
# Indices 1 2 3 4 5 6 
#
# 1 0.016602 -0.005283 -0.005140 0.001867 0.000000 0.000000
# 2 -0.005283 0.016602 -0.005140 -0.001867 0.000000 0.000000
# 3 -0.005140 -0.005140 0.012799 0.000000 0.000000 0.000000
# 4 0.001867 -0.001867 0.000000 0.037135 0.000000 0.000000
# 5 0.000000 0.000000 0.000000 0.000000 0.037135 0.003735
# 6 0.000000 0.000000 0.000000 0.000000 0.003735 0.043769
#
#
# Mechanical properties :
#
#
# Convention : Reuss Voigt Hill
#
# Bulk Modulus (GPa) = 67.21909 69.39276 68.30592
# Shear Modulus (GPa) = 24.98434 25.47105 25.22769
#
# Velocity S-wave (km/s) = 3.85504 3.89241 3.87377
# Velocity P-wave (km/s) = 7.73297 7.84078 7.78706
#
# Compressibility (1/GPa) = 0.01487673
#
# Stress axis : x y z
#
# Youngs Moduli (GPa) = 60.23513 60.23513 78.12858
#
# Poissons Ratio (x) = 0.31821 0.40159
# Poissons Ratio (y) = 0.31821 0.40159
# Poissons Ratio (z) = 0.30962 0.30962
#
# Static dielectric constant tensor:
#      x y z
#    x 3.003130 0.000000 0.000000 
#    y 0.000000 3.003130 0.000000 
#    z 0.000000 0.000000 3.544770 
# 
# 
# High freq. dielectric constant tensor:
#      x y z
#    x 1.637870 0.000000 0.000000 
#    y 0.000000 1.637870 0.000000 
#    z 0.000000 0.000000 1.669340 
# 
# From -- ./inp_files/5512.got.cif
#   From: 2010.03.12/outbox.cif.g09.slc.cpg/sg164_3_cif.got.tgz:5512.got - 2010.04.02 06:32:59.
