data_PCOD8323258
_publ_section_title
;
Structure prediction by ZEFSAII (Michael W. Deem and Ramdas Pophale) SiO2 
 PCOD8323258
Probable space group: P -3 1 C
;
_chemical_formula_sum "Si O2"
_cell_formula_units_Z 84
_cell_length_a 17.693843
_cell_length_b 17.693843
_cell_length_c 14.616842
_cell_angle_alpha 90.000000
_cell_angle_beta 90.000000
_cell_angle_gamma 120.000000
_cell_volume 3963.040613
_symmetry_space_group_name_H-M "P -3 1 C"
_symmetry_group_IT_number 163
_symmetry_cell_setting 'hexagonal'
loop_
_space_group_symop_operation_xyz
x,y,z
-y,x-y,z
-x+y,-x,z
-y,-x,1/2-z
-x+y,y,1/2-z
x,x-y,1/2-z
-x,-y,-z
y,-x+y,-z
x-y,x,-z
y,x,1/2+z
x-y,-y,1/2+z
-x,-x+y,1/2+z
loop_
_atom_site_type_symbol
_atom_site_label
_atom_site_fract_x
_atom_site_fract_y
_atom_site_fract_z
Si Si1 0.441724 0.086324 0.410907
Si Si2 0.991674 0.831125 0.528297
Si Si3 0.714989 0.786399 0.813707
Si Si4 0.336801 0.358351 0.321481
Si Si5 0.514002 0.485999 0.250000
Si Si6 0.449211 0.259419 0.927186
Si Si7 0.071002 0.705666 0.990768
Si Si8 0.721319 0.442638 0.750000
O O1 0.374667 0.115893 0.371881
O O2 0.508937 0.087567 0.333850
O O3 0.492224 0.155105 0.495155
O O4 0.381290 0.987467 0.448789
O O5 0.033015 0.836718 0.628120
O O6 0.907526 0.843223 0.535632
O O7 0.965870 0.737791 0.487752
O O8 0.712005 0.856003 0.750000
O O9 0.717469 0.708442 0.758750
O O10 0.414457 0.449965 0.282084
O O11 0.267854 0.371084 0.381137
O O12 0.386996 0.321845 0.384588
O O13 0.506765 0.257281 0.844913
O O14 0.415490 0.168771 0.976748
O O15 0.616469 0.383532 0.750000
#
# Coordination Sequence:
#
# PCOD8323258 Si02
#       8
#    12  12  12  12   6  12  12   6
#     4   9  21  38  60  95 121 165 211 261 331 375
#     4  11  22  38  58  82 124 170 216 260 320 376
#     4  10  20  38  60  87 128 161 216 275 315 379
#     4  10  22  38  62  96 122 161 212 264 329 376
#     4  10  22  37  58  92 130 152 204 276 318 390
#     4  11  23  40  68  90 126 167 214 260 328 398
#     4  10  21  40  62  92 119 166 210 265 318 384
#     4  10  28  45  60  98 130 170 200 258 338 402
#
# _framework density 21.195844999999998
#
# number of rings (size 3 to 8) (size 9 to 14) (size 15 to 20)
#    0.143    1.714    0.000    4.429    7.000    3.429 
#    0.000    5.000    0.000    0.000    0.000    0.000 
#    5.714    0.000    0.000    0.000    0.000    0.000 
#
# Total GULP energy -1040694.791223 kJ/mol
# GULP energy per Si atom -12389.223705 kJ/mol
# Density = 2.114760 g / cm^3
# Si number density = 21.195845 Si / 1000 Ang^3
#
#
#
# Elastic Constant Matrix: (Units=GPa)
#
#
# Indices 1 2 3 4 5 6 
#
# 1 67.5404 24.8479 26.6910 0.0000 -11.7809 0.0000
# 2 24.8479 67.5404 26.6910 0.0000 11.7809 0.0000
# 3 26.6910 26.6910 108.5671 0.0000 0.0000 0.0000
# 4 0.0000 0.0000 0.0000 26.1109 0.0000 11.7809
# 5 -11.7809 11.7809 0.0000 0.0000 26.1109 0.0000
# 6 0.0000 0.0000 0.0000 11.7809 0.0000 21.3463
#
#
#
# Elastic Compliance Matrix: (Units=1/GPa)
#
#
# Indices 1 2 3 4 5 6 
#
# 1 0.021903 -0.009287 -0.003102 0.000000 0.014072 0.000000
# 2 -0.009287 0.021903 -0.003102 0.000000 -0.014072 0.000000
# 3 -0.003102 -0.003102 0.010736 0.000000 0.000000 0.000000
# 4 0.000000 0.000000 0.000000 0.050997 0.000000 -0.028145
# 5 0.014072 -0.014072 0.000000 0.000000 0.050997 0.000000
# 6 0.000000 0.000000 0.000000 -0.028145 0.000000 0.062380
#
#
# Mechanical properties :
#
#
# Convention : Reuss Voigt Hill
#
# Bulk Modulus (GPa) = 42.44219 44.45642 43.44930
# Shear Modulus (GPa) = 19.39874 25.74150 22.57012
#
# Velocity S-wave (km/s) = 3.02853 3.48869 3.26672
# Velocity P-wave (km/s) = 5.68301 6.10308 5.89679
#
# Compressibility (1/GPa) = 0.02356146
#
# Stress axis : x y z
#
# Youngs Moduli (GPa) = 45.65610 45.65610 93.14507
#
# Poissons Ratio (x) = 0.42400 0.28890
# Poissons Ratio (y) = 0.42400 0.28890
# Poissons Ratio (z) = 0.14161 0.14161
#
# Static dielectric constant tensor:
#      x y z
#    x 3.784200 0.000000 0.000000 
#    y 0.000000 3.784200 0.000000 
#    z 0.000000 0.000000 4.397000 
# 
# 
# High freq. dielectric constant tensor:
#      x y z
#    x 1.812750 0.000000 0.000000 
#    y 0.000000 1.812750 0.000000 
#    z 0.000000 0.000000 1.853110 
# 
# From -- ./inp_files/2711.got.cif
#   From: 2010.03.12/outbox.cif.g09.slc.cpg/sg163_2_cif.got.tgz:2711.got - 2010.04.02 06:30:25.
