data_PCOD8323173
_publ_section_title
;
Structure prediction by ZEFSAII (Michael W. Deem and Ramdas Pophale) SiO2 
 PCOD8323173
Probable space group: P -3 1 M 
;
_chemical_formula_sum "Si O2"
_cell_formula_units_Z 48
_cell_length_a 18.371365
_cell_length_b 18.371365
_cell_length_c 10.006170
_cell_angle_alpha 90.000000
_cell_angle_beta 90.000000
_cell_angle_gamma 120.000000
_cell_volume 2924.700237
_symmetry_space_group_name_H-M "P -3 1 M "
_symmetry_group_IT_number 162
_symmetry_cell_setting 'hexagonal'
loop_
_space_group_symop_operation_xyz
x,y,z
-y,x-y,z
-x+y,-x,z
-y,-x,-z
-x+y,y,-z
x,x-y,-z
-x,-y,-z
y,-x+y,-z
x-y,x,-z
y,x,z
x-y,-y,z
-x,-x+y,z
loop_
_atom_site_type_symbol
_atom_site_label
_atom_site_fract_x
_atom_site_fract_y
_atom_site_fract_z
Si Si1 0.391763 0.900385 0.397620
Si Si2 0.228137 0.902182 0.095488
Si Si3 0.902182 0.228137 0.404512
Si Si4 0.391764 0.900385 0.102381
O O1 0.430233 0.860466 0.500000
O O2 0.298742 0.877785 0.442869
O O3 0.389077 0.863490 0.250000
O O4 0.450063 0.000000 0.392439
O O5 0.201508 0.879740 0.250000
O O6 0.298743 0.877785 0.057132
O O7 0.262593 0.000000 0.069559
O O8 0.148616 0.851385 0.000000
O O9 0.851385 0.148616 0.500000
O O10 0.000000 0.262593 0.430442
O O11 0.450064 0.000000 0.107561
O O12 0.430233 0.860466 0.000000
#
# Coordination Sequence:
#
# PCOD8323173 Si02
#       4
#    12  12  12  12
#     4   8  14  25  41  62  87 111 136 170 212 259
#     4   9  18  31  46  67  94 121 153 195 238 280
#     4   9  18  31  46  67  94 121 153 195 238 280
#     4   8  14  25  41  62  87 111 136 170 212 259
#
# _framework density 16.411937000000002
#
# number of rings (size 3 to 8) (size 9 to 14) (size 15 to 20)
#    0.000    3.500    0.000    3.000    0.000    3.000 
#    0.000    5.000    0.000    1.500    0.000    0.000 
#    0.000    0.000    0.000    0.000    0.000    0.000 
#
# Total GULP energy -594906.118631 kJ/mol
# GULP energy per Si atom -12393.877471 kJ/mol
# Density = 1.637458 g / cm^3
# Si number density = 16.411937 Si / 1000 Ang^3
#
#
#
# Elastic Constant Matrix: (Units=GPa)
#
#
# Indices 1 2 3 4 5 6 
#
# 1 67.3575 35.6390 60.1163 0.0003 0.0000 0.0000
# 2 35.6390 67.3575 60.1163 -0.0003 0.0000 0.0000
# 3 60.1163 60.1163 109.5006 0.0000 0.0000 0.0000
# 4 0.0003 -0.0003 0.0000 30.0447 0.0000 0.0000
# 5 0.0000 0.0000 0.0000 0.0000 30.0447 0.0003
# 6 0.0000 0.0000 0.0000 0.0000 0.0003 15.8592
#
#
#
# Elastic Compliance Matrix: (Units=1/GPa)
#
#
# Indices 1 2 3 4 5 6 
#
# 1 0.029281 -0.002246 -0.014843 0.000000 0.000000 0.000000
# 2 -0.002246 0.029281 -0.014843 0.000000 0.000000 0.000000
# 3 -0.014843 -0.014843 0.025430 0.000000 0.000000 0.000000
# 4 0.000000 0.000000 0.000000 0.033284 0.000000 0.000000
# 5 0.000000 0.000000 0.000000 0.000000 0.033284 -0.000001
# 6 0.000000 0.000000 0.000000 0.000000 -0.000001 0.063055
#
#
# Mechanical properties :
#
#
# Convention : Reuss Voigt Hill
#
# Bulk Modulus (GPa) = 49.67639 61.77319 55.72479
# Shear Modulus (GPa) = 17.59402 21.07932 19.33667
#
# Velocity S-wave (km/s) = 3.27773 3.58773 3.43623
# Velocity P-wave (km/s) = 6.68273 7.40832 7.05486
#
# Compressibility (1/GPa) = 0.02013029
#
# Stress axis : x y z
#
# Youngs Moduli (GPa) = 34.15127 34.15127 39.32413
#
# Poissons Ratio (x) = 0.07670 0.58367
# Poissons Ratio (y) = 0.07670 0.58367
# Poissons Ratio (z) = 0.50689 0.50689
#
# Static dielectric constant tensor:
#      x y z
#    x 2.820430 0.000000 0.000000 
#    y 0.000000 2.820430 0.000000 
#    z 0.000000 0.000000 3.436250 
# 
# 
# High freq. dielectric constant tensor:
#      x y z
#    x 1.601890 0.000000 0.000000 
#    y 0.000000 1.601890 0.000000 
#    z 0.000000 0.000000 1.639860 
# 
# From -- ./inp_files/1200.got.cif
#   From: 2010.03.12/outbox.cif.g09.slc.cpg/sg162_1_cif.got.tgz:1200.got - 2010.04.02 06:27:41.
