data_PCOD8323152
_publ_section_title
;
Structure prediction by ZEFSAII (Michael W. Deem and Ramdas Pophale) SiO2 
 PCOD8323152
Probable space group: P -3 1 M 
;
_chemical_formula_sum "Si O2"
_cell_formula_units_Z 48
_cell_length_a 24.927736
_cell_length_b 24.927736
_cell_length_c 4.982990
_cell_angle_alpha 90.000000
_cell_angle_beta 90.000000
_cell_angle_gamma 120.000000
_cell_volume 2681.552601
_symmetry_space_group_name_H-M "P -3 1 M "
_symmetry_group_IT_number 162
_symmetry_cell_setting 'hexagonal'
loop_
_space_group_symop_operation_xyz
x,y,z
-y,x-y,z
-x+y,-x,z
-y,-x,-z
-x+y,y,-z
x,x-y,-z
-x,-y,-z
y,-x+y,-z
x-y,x,-z
y,x,z
x-y,-y,z
-x,-x+y,z
loop_
_atom_site_type_symbol
_atom_site_label
_atom_site_fract_x
_atom_site_fract_y
_atom_site_fract_z
Si Si1 0.234369 0.885539 0.070928
Si Si2 0.430504 0.930138 0.763123
Si Si3 0.683440 0.072238 0.428602
Si Si4 0.786943 0.929406 0.757503
O O1 0.282137 0.890223 0.301577
O O2 0.201092 0.922353 0.171471
O O3 0.186040 0.813961 0.000000
O O4 0.267877 0.919663 0.798049
O O5 0.464537 0.929073 0.500000
O O6 0.357654 0.899101 0.692389
O O7 0.453021 0.000000 0.861746
O O8 0.448213 0.896425 0.000000
O O9 0.640663 0.000000 0.506460
O O10 0.777498 0.888749 0.500000
O O11 0.836306 0.000000 0.694206
O O12 0.812656 0.906328 0.000000
#
# Coordination Sequence:
#
# PCOD8323152 Si02
#       4
#    12  12  12  12
#     4  11  22  34  48  72 101 131 167 207 250 297
#     4   9  17  29  45  68  96 126 161 196 228 265
#     4  11  20  32  51  71  97 134 170 203 241 290
#     4  11  22  37  56  75  97 125 162 210 261 318
#
# _framework density 17.900075999999999
#
# number of rings (size 3 to 8) (size 9 to 14) (size 15 to 20)
#    0.000    1.500    0.000    8.250    0.000    4.000 
#    0.000    0.000    0.000    5.000    0.000    0.000 
#    0.000    0.000    0.000   63.000    0.000    0.250 
#
# Total GULP energy -595171.257989 kJ/mol
# GULP energy per Si atom -12399.401208 kJ/mol
# Density = 1.785933 g / cm^3
# Si number density = 17.900076 Si / 1000 Ang^3
#
#
#
# Elastic Constant Matrix: (Units=GPa)
#
#
# Indices 1 2 3 4 5 6 
#
# 1 131.1643 -23.4620 28.0571 -0.0026 21.0560 0.0000
# 2 -23.4620 131.1643 28.0571 0.0026 -21.0560 0.0000
# 3 28.0571 28.0571 111.2855 0.0000 0.0000 0.0000
# 4 -0.0026 0.0026 0.0000 42.6601 0.0000 -21.0560
# 5 21.0560 -21.0560 0.0000 0.0000 42.6601 -0.0026
# 6 0.0000 0.0000 0.0000 -21.0560 -0.0026 77.3132
#
#
#
# Elastic Compliance Matrix: (Units=1/GPa)
#
#
# Indices 1 2 3 4 5 6 
#
# 1 0.009080 0.001609 -0.002695 0.000000 -0.003688 0.000000
# 2 0.001609 0.009080 -0.002695 0.000000 0.003688 0.000000
# 3 -0.002695 -0.002695 0.010345 0.000000 0.000000 0.000000
# 4 0.000000 0.000000 0.000000 0.027082 0.000000 0.007376
# 5 -0.003688 0.003688 0.000000 0.000000 0.027082 0.000001
# 6 0.000000 0.000000 0.000000 0.007376 0.000001 0.014943
#
#
# Mechanical properties :
#
#
# Convention : Reuss Voigt Hill
#
# Bulk Modulus (GPa) = 47.74841 48.76870 48.25856
# Shear Modulus (GPa) = 44.58135 55.25748 49.91942
#
# Velocity S-wave (km/s) = 4.99597 5.56210 5.28662
# Velocity P-wave (km/s) = 7.74678 8.27970 8.01767
#
# Compressibility (1/GPa) = 0.02094310
#
# Stress axis : x y z
#
# Youngs Moduli (GPa) = 110.12928 110.12928 96.66741
#
# Poissons Ratio (x) = -0.17716 0.26051
# Poissons Ratio (y) = -0.17716 0.26051
# Poissons Ratio (z) = 0.29678 0.29678
#
# Static dielectric constant tensor:
#      x y z
#    x 3.204340 0.000000 0.000000 
#    y 0.000000 3.204340 0.000000 
#    z 0.000000 0.000000 3.530180 
# 
# 
# High freq. dielectric constant tensor:
#      x y z
#    x 1.664380 0.000000 0.000000 
#    y 0.000000 1.664380 0.000000 
#    z 0.000000 0.000000 1.722040 
# 
# From -- ./inp_files/470.got.cif
#   From: 2010.03.12/outbox.cif.g09.slc.cpg/sg162_1_cif.got.tgz:470.got - 2010.04.02 06:27:41.
