data_PCOD8323838
_publ_section_title
;
Structure prediction by ZEFSAII (Michael W. Deem and Ramdas Pophale) SiO2 
 PCOD8323838
Probable space group: P -3 M 1
;
_chemical_formula_sum "Si O2"
_cell_formula_units_Z 96
_cell_length_a 17.100234
_cell_length_b 17.100234
_cell_length_c 27.666897
_cell_angle_alpha 90.000000
_cell_angle_beta 90.000000
_cell_angle_gamma 120.000000
_cell_volume 7006.404255
_symmetry_space_group_name_H-M "P -3 M 1"
_symmetry_group_IT_number 164
_symmetry_cell_setting 'hexagonal'
loop_
_space_group_symop_operation_xyz
x,y,z
-y,x-y,z
-x+y,-x,z
x-y,-y,-z
-x,-x+y,-z
y,x,-z
-x,-y,-z
y,-x+y,-z
x-y,x,-z
-x+y,y,z
x,x-y,z
-y,-x,z
loop_
_atom_site_type_symbol
_atom_site_label
_atom_site_fract_x
_atom_site_fract_y
_atom_site_fract_z
Si Si1 0.512179 0.667897 0.488135
Si Si2 0.333140 0.486589 0.198711
Si Si3 0.428026 0.392105 0.890751
Si Si4 0.756985 0.063294 0.456789
Si Si5 0.272581 0.368263 0.018177
Si Si6 0.368457 0.094280 0.603347
Si Si7 0.152995 0.666887 0.307651
Si Si8 0.155432 0.667670 0.927322
O O1 0.474490 0.737245 0.490178
O O2 0.432035 0.567966 0.499481
O O3 0.589229 0.694304 0.528298
O O4 0.552326 0.670728 0.435255
O O5 0.238526 0.477051 0.183566
O O6 0.408249 0.591752 0.194989
O O7 0.354787 0.425861 0.162862
O O8 0.330837 0.451561 0.253114
O O9 0.527171 0.472830 0.904667
O O10 0.401765 0.312277 0.928737
O O11 0.357457 0.428645 0.891879
O O12 0.858914 0.141087 0.446330
O O13 0.757297 0.000000 0.500000
O O14 0.716912 0.003819 0.408351
O O15 0.165890 0.331779 0.019090
O O16 0.286236 0.286236 0.000000
O O17 0.324576 0.452634 0.982027
O O18 0.336521 0.168261 0.600307
O O19 0.404491 0.090657 0.656493
O O20 0.142467 0.571234 0.320758
O O21 0.257786 0.742215 0.314319
O O22 0.184735 0.592368 0.926477
O O23 0.238546 0.761455 0.908626
#
# Coordination Sequence:
#
# PCOD8323838 Si02
#       8
#    12  12  12  12  12  12  12  12
#     4   9  16  24  35  53  77 103 127 149 173 203
#     4   9  16  25  37  54  77 103 128 152 179 213
#     4   9  16  25  37  53  74  99 125 153 185 220
#     4   9  17  28  41  56  75  99 124 151 184 218
#     4   9  16  25  37  53  73  97 124 152 183 221
#     4   9  17  27  39  55  74  97 122 149 182 216
#     4   9  16  25  38  57  80 104 127 150 177 211
#     4   9  16  25  37  53  73  97 124 154 187 221
#
# _framework density 13.701750000000001
#
# number of rings (size 3 to 8) (size 9 to 14) (size 15 to 20)
#    0.000    3.000    0.000    2.750    0.000    5.250 
#    0.000    1.250    0.000    7.125    0.000    0.000 
#    0.000    0.000    0.000    1.250    0.000    4.000 
#
# Total GULP energy -1190220.541041 kJ/mol
# GULP energy per Si atom -12398.130636 kJ/mol
# Density = 1.367056 g / cm^3
# Si number density = 13.701750 Si / 1000 Ang^3
#
#
#
# Elastic Constant Matrix: (Units=GPa)
#
#
# Indices 1 2 3 4 5 6 
#
# 1 86.5436 50.3612 45.8084 -0.7732 0.0000 0.0000
# 2 50.3612 86.5436 45.8084 0.7732 0.0000 0.0000
# 3 45.8084 45.8084 86.1567 0.0000 0.0000 0.0000
# 4 -0.7732 0.7732 0.0000 18.2819 0.0000 0.0000
# 5 0.0000 0.0000 0.0000 0.0000 18.2819 -0.7732
# 6 0.0000 0.0000 0.0000 0.0000 -0.7732 18.0912
#
#
#
# Elastic Compliance Matrix: (Units=1/GPa)
#
#
# Indices 1 2 3 4 5 6 
#
# 1 0.019513 -0.008175 -0.006029 0.001171 0.000000 0.000000
# 2 -0.008175 0.019513 -0.006029 -0.001171 0.000000 0.000000
# 3 -0.006029 -0.006029 0.018017 0.000000 0.000000 0.000000
# 4 0.001171 -0.001171 0.000000 0.054798 0.000000 0.000000
# 5 0.000000 0.000000 0.000000 0.000000 0.054798 0.002342
# 6 0.000000 0.000000 0.000000 0.000000 0.002342 0.055376
#
#
# Mechanical properties :
#
#
# Convention : Reuss Voigt Hill
#
# Bulk Modulus (GPa) = 60.31250 60.35554 60.33402
# Shear Modulus (GPa) = 18.65629 18.74871 18.70250
#
# Velocity S-wave (km/s) = 3.69399 3.70313 3.69856
# Velocity P-wave (km/s) = 7.89352 7.90122 7.89737
#
# Compressibility (1/GPa) = 0.01658031
#
# Stress axis : x y z
#
# Youngs Moduli (GPa) = 51.24720 51.24720 55.50165
#
# Poissons Ratio (x) = 0.41892 0.33460
# Poissons Ratio (y) = 0.41892 0.33460
# Poissons Ratio (z) = 0.30895 0.30895
#
# Static dielectric constant tensor:
#      x y z
#    x 2.646540 0.000000 0.000000 
#    y 0.000000 2.646540 0.000000 
#    z 0.000000 0.000000 2.677250 
# 
# 
# High freq. dielectric constant tensor:
#      x y z
#    x 1.509970 0.000000 0.000000 
#    y 0.000000 1.509970 0.000000 
#    z 0.000000 0.000000 1.507330 
# 
# From -- ./inp_files/5125.got.cif
#   From: 2010.03.12/outbox.cif.g09.slc.cpg/sg164_3_cif.got.tgz:5125.got - 2010.04.02 06:32:59.
