data_PCOD8323370
_publ_section_title
;
Structure prediction by ZEFSAII (Michael W. Deem and Ramdas Pophale) SiO2 
 PCOD8323370
Probable space group: P -3 M 1
;
_chemical_formula_sum "Si O2"
_cell_formula_units_Z 48
_cell_length_a 22.057916
_cell_length_b 22.057916
_cell_length_c 7.291398
_cell_angle_alpha 90.000000
_cell_angle_beta 90.000000
_cell_angle_gamma 120.000000
_cell_volume 3072.347912
_symmetry_space_group_name_H-M "P -3 M 1"
_symmetry_group_IT_number 164
_symmetry_cell_setting 'hexagonal'
loop_
_space_group_symop_operation_xyz
x,y,z
-y,x-y,z
-x+y,-x,z
x-y,-y,-z
-x,-x+y,-z
y,x,-z
-x,-y,-z
y,-x+y,-z
x-y,x,-z
-x+y,y,z
x,x-y,z
-y,-x,z
loop_
_atom_site_type_symbol
_atom_site_label
_atom_site_fract_x
_atom_site_fract_y
_atom_site_fract_z
Si Si1 0.974171 0.555384 0.294224
Si Si2 0.138645 0.411879 0.770322
Si Si3 0.922176 0.212907 0.519015
Si Si4 0.704204 0.060039 0.880352
O O1 0.975689 0.487845 0.217762
O O2 0.893130 0.538796 0.286692
O O3 0.000000 0.571131 0.500000
O O4 0.025962 0.622305 0.173346
O O5 0.222006 0.444012 0.729204
O O6 0.093826 0.340436 0.655898
O O7 0.127163 0.397592 0.988276
O O8 0.869989 0.130012 0.527175
O O9 0.913956 0.247169 0.704019
O O10 0.000000 0.225488 0.500000
O O11 0.709066 0.000000 0.000000
#
# Coordination Sequence:
#
# PCOD8323370 Si02
#       4
#    12  12  12  12
#     4  10  18  31  50  71 101 130 160 200 245 292
#     4  10  19  30  48  70  96 125 160 194 237 290
#     4  11  19  32  47  69  98 126 154 195 236 277
#     4  10  17  30  47  69  99 122 158 189 242 279
#
# _framework density 15.623229
#
# number of rings (size 3 to 8) (size 9 to 14) (size 15 to 20)
#    0.000    1.750    7.500    0.750    0.000    4.500 
#    0.000    0.000    0.000    0.750    0.000    0.000 
#    0.000    3.000    0.000    0.000    0.000    0.000 
#
# Total GULP energy -594708.714546 kJ/mol
# GULP energy per Si atom -12389.764886 kJ/mol
# Density = 1.558767 g / cm^3
# Si number density = 15.623229 Si / 1000 Ang^3
#
#
#
# Elastic Constant Matrix: (Units=GPa)
#
#
# Indices 1 2 3 4 5 6 
#
# 1 87.2543 40.3996 35.1436 -2.5742 0.0000 0.0000
# 2 40.3996 87.2543 35.1436 2.5742 0.0000 0.0000
# 3 35.1436 35.1436 86.4835 0.0000 0.0000 0.0000
# 4 -2.5742 2.5742 0.0000 10.6141 0.0000 0.0000
# 5 0.0000 0.0000 0.0000 0.0000 10.6141 -2.5742
# 6 0.0000 0.0000 0.0000 0.0000 -2.5742 23.4273
#
#
#
# Elastic Compliance Matrix: (Units=1/GPa)
#
#
# Indices 1 2 3 4 5 6 
#
# 1 0.016009 -0.005918 -0.004101 0.005318 0.000000 0.000000
# 2 -0.005918 0.016009 -0.004101 -0.005318 0.000000 0.000000
# 3 -0.004101 -0.004101 0.014896 0.000000 0.000000 0.000000
# 4 0.005318 -0.005318 0.000000 0.096794 0.000000 0.000000
# 5 0.000000 0.000000 0.000000 0.000000 0.096794 0.010636
# 6 0.000000 0.000000 0.000000 0.000000 0.010636 0.043854
#
#
# Mechanical properties :
#
#
# Convention : Reuss Voigt Hill
#
# Bulk Modulus (GPa) = 53.54577 53.59620 53.57098
# Shear Modulus (GPa) = 15.68280 18.95144 17.31712
#
# Velocity S-wave (km/s) = 3.17174 3.48664 3.33291
# Velocity P-wave (km/s) = 6.91092 7.11258 7.01247
#
# Compressibility (1/GPa) = 0.01867561
#
# Stress axis : x y z
#
# Youngs Moduli (GPa) = 62.46374 62.46374 67.13316
#
# Poissons Ratio (x) = 0.36964 0.27530
# Poissons Ratio (y) = 0.36964 0.27530
# Poissons Ratio (z) = 0.25616 0.25616
#
# Static dielectric constant tensor:
#      x y z
#    x 2.934940 0.000000 0.000000 
#    y 0.000000 2.934940 0.000000 
#    z 0.000000 0.000000 3.362390 
# 
# 
# High freq. dielectric constant tensor:
#      x y z
#    x 1.570410 0.000000 0.000000 
#    y 0.000000 1.570410 0.000000 
#    z 0.000000 0.000000 1.629420 
# 
# From -- ./inp_files/1441.got.cif
#   From: 2010.03.12/outbox.cif.g09.slc.cpg/sg164_1_cif.got.tgz:1441.got - 2010.04.02 06:32:59.
