data_PCOD8323690
_publ_section_title
;
Structure prediction by ZEFSAII (Michael W. Deem and Ramdas Pophale) SiO2 
 PCOD8323690
Probable space group: P -3 M 1
;
_chemical_formula_sum "Si O2"
_cell_formula_units_Z 66
_cell_length_a 12.949141
_cell_length_b 12.949141
_cell_length_c 27.815238
_cell_angle_alpha 90.000000
_cell_angle_beta 90.000000
_cell_angle_gamma 120.000000
_cell_volume 4039.199758
_symmetry_space_group_name_H-M "P -3 M 1"
_symmetry_group_IT_number 164
_symmetry_cell_setting 'hexagonal'
loop_
_space_group_symop_operation_xyz
x,y,z
-y,x-y,z
-x+y,-x,z
x-y,-y,-z
-x,-x+y,-z
y,x,-z
-x,-y,-z
y,-x+y,-z
x-y,x,-z
-x+y,y,z
x,x-y,z
-y,-x,z
loop_
_atom_site_type_symbol
_atom_site_label
_atom_site_fract_x
_atom_site_fract_y
_atom_site_fract_z
Si Si1 0.999633 0.239150 0.832380
Si Si2 0.000086 0.762241 0.277050
Si Si3 0.426362 0.332608 0.538683
Si Si4 0.907910 0.576821 0.086908
Si Si5 0.756496 0.756496 0.000000
Si Si6 0.333706 0.906340 0.353487
O O1 0.874585 0.125415 0.848222
O O2 0.994233 0.275908 0.777565
O O3 0.101602 0.203203 0.839177
O O4 0.029234 0.354578 0.863954
O O5 0.104306 0.895695 0.286908
O O6 0.006305 0.671188 0.314111
O O7 0.878828 0.757656 0.288540
O O8 0.337489 0.337489 0.500000
O O9 0.430675 0.215338 0.527282
O O10 0.558880 0.441121 0.532002
O O11 0.379214 0.331917 0.592643
O O12 0.767976 0.535952 0.086666
O O13 0.921893 0.460947 0.081430
O O14 0.976980 0.670197 0.044719
O O15 0.772356 0.886178 0.010466
O O16 0.452357 0.904713 0.342791
O O17 0.226940 0.773061 0.346493
#
# Coordination Sequence:
#
# PCOD8323690 Si02
#       6
#    12  12  12  12   6  12
#     4   9  17  30  49  71  93 118 150 190 232 270
#     4   9  17  29  46  68  92 118 148 183 225 270
#     4   9  17  29  45  64  85 111 144 182 223 266
#     4  10  20  33  49  69  95 127 159 188 221 266
#     4  10  20  34  54  78 100 122 152 194 238 274
#     4   9  17  29  45  64  86 114 148 184 221 263
#
# _framework density 16.339870999999999
#
# number of rings (size 3 to 8) (size 9 to 14) (size 15 to 20)
#    0.000    2.727    0.000    1.818    0.000    4.364 
#    0.000    1.818    0.000    4.545    0.000    0.000 
#    0.000    0.000    0.000    0.000    0.000    0.000 
#
# Total GULP energy -818303.161108 kJ/mol
# GULP energy per Si atom -12398.532744 kJ/mol
# Density = 1.630268 g / cm^3
# Si number density = 16.339871 Si / 1000 Ang^3
#
#
#
# Elastic Constant Matrix: (Units=GPa)
#
#
# Indices 1 2 3 4 5 6 
#
# 1 88.8690 49.6108 60.2952 -0.2107 0.0000 0.0000
# 2 49.6108 88.8690 60.2952 0.2107 0.0000 0.0000
# 3 60.2952 60.2952 114.1281 0.0000 0.0000 0.0000
# 4 -0.2107 0.2107 0.0000 25.1376 0.0000 0.0000
# 5 0.0000 0.0000 0.0000 0.0000 25.1376 -0.2107
# 6 0.0000 0.0000 0.0000 0.0000 -0.2107 19.6291
#
#
#
# Elastic Compliance Matrix: (Units=1/GPa)
#
#
# Indices 1 2 3 4 5 6 
#
# 1 0.019424 -0.006050 -0.007066 0.000214 0.000000 0.000000
# 2 -0.006050 0.019424 -0.007066 -0.000214 0.000000 0.000000
# 3 -0.007066 -0.007066 0.016228 0.000000 0.000000 0.000000
# 4 0.000214 -0.000214 0.000000 0.039785 0.000000 0.000000
# 5 0.000000 0.000000 0.000000 0.000000 0.039785 0.000427
# 6 0.000000 0.000000 0.000000 0.000000 0.000427 0.050949
#
#
# Mechanical properties :
#
#
# Convention : Reuss Voigt Hill
#
# Bulk Modulus (GPa) = 67.96546 70.25207 69.10876
# Shear Modulus (GPa) = 21.65782 22.09185 21.87484
#
# Velocity S-wave (km/s) = 3.64463 3.68097 3.66285
# Velocity P-wave (km/s) = 7.70690 7.82008 7.76370
#
# Compressibility (1/GPa) = 0.01471336
#
# Stress axis : x y z
#
# Youngs Moduli (GPa) = 51.48148 51.48148 61.62205
#
# Poissons Ratio (x) = 0.31147 0.43541
# Poissons Ratio (y) = 0.31147 0.43541
# Poissons Ratio (z) = 0.36376 0.36376
#
# Static dielectric constant tensor:
#      x y z
#    x 2.984140 0.000000 0.000000 
#    y 0.000000 2.984140 0.000000 
#    z 0.000000 0.000000 3.337850 
# 
# 
# High freq. dielectric constant tensor:
#      x y z
#    x 1.619080 0.000000 0.000000 
#    y 0.000000 1.619080 0.000000 
#    z 0.000000 0.000000 1.642500 
# 
# From -- ./inp_files/5409.got.cif
#   From: 2010.03.12/outbox.cif.g09.slc.cpg/sg164_3_cif.got.tgz:5409.got - 2010.04.02 06:32:59.
