data_PCOD8323224
_publ_section_title
;
Structure prediction by ZEFSAII (Michael W. Deem and Ramdas Pophale) SiO2 
 PCOD8323224
Probable space group: P -3 1 C
;
_chemical_formula_sum "Si O2"
_cell_formula_units_Z 66
_cell_length_a 12.022672
_cell_length_b 12.022672
_cell_length_c 27.579752
_cell_angle_alpha 90.000000
_cell_angle_beta 90.000000
_cell_angle_gamma 120.000000
_cell_volume 3452.414931
_symmetry_space_group_name_H-M "P -3 1 C"
_symmetry_group_IT_number 163
_symmetry_cell_setting 'hexagonal'
loop_
_space_group_symop_operation_xyz
x,y,z
-y,x-y,z
-x+y,-x,z
-y,-x,1/2-z
-x+y,y,1/2-z
x,x-y,1/2-z
-x,-y,-z
y,-x+y,-z
x-y,x,-z
y,x,1/2+z
x-y,-y,1/2+z
-x,-x+y,1/2+z
loop_
_atom_site_type_symbol
_atom_site_label
_atom_site_fract_x
_atom_site_fract_y
_atom_site_fract_z
Si Si1 0.748924 0.251077 0.750000
Si Si2 0.505386 0.226636 0.371639
Si Si3 0.859624 0.696082 0.046662
Si Si4 0.847288 0.715033 0.558417
Si Si5 0.724029 0.869600 0.692894
Si Si6 0.300515 0.142295 0.664837
O O1 0.813179 0.406589 0.750000
O O2 0.788405 0.205466 0.701940
O O3 0.617473 0.189093 0.371684
O O4 0.420101 0.163613 0.418987
O O5 0.419731 0.170300 0.323536
O O6 0.776056 0.757046 0.064022
O O7 0.002651 0.817258 0.050492
O O8 0.826887 0.634210 0.992006
O O9 0.828983 0.642205 0.610021
O O10 0.729932 0.864966 0.750000
O O11 0.758473 0.769172 0.669219
O O12 0.821596 0.012553 0.675016
#
# Coordination Sequence:
#
# PCOD8323224 Si02
#       6
#     6  12  12  12  12  12
#     4  10  26  46  56  84 126 170 204 250 278 342
#     4  10  24  42  58  84 126 164 203 253 284 344
#     4  10  19  38  58  99 126 145 197 249 313 358
#     4  10  19  33  66  92 119 156 190 247 316 367
#     4  12  23  39  66  98 118 155 192 258 318 354
#     4  12  21  41  65  96 125 147 199 255 311 365
#
# _framework density 19.117052000000001
#
# number of rings (size 3 to 8) (size 9 to 14) (size 15 to 20)
#    0.545    0.727    5.455    0.727    0.000    3.636 
#    0.000    5.455    0.000    0.000    0.000    0.000 
#    0.000    0.000    0.000    0.000    0.000    0.000 
#
# Total GULP energy -817707.938650 kJ/mol
# GULP energy per Si atom -12389.514222 kJ/mol
# Density = 1.907354 g / cm^3
# Si number density = 19.117052 Si / 1000 Ang^3
#
#
#
# Elastic Constant Matrix: (Units=GPa)
#
#
# Indices 1 2 3 4 5 6 
#
# 1 68.9378 0.4259 20.1272 0.0000 2.7235 0.0000
# 2 0.4259 68.9378 20.1272 0.0000 -2.7235 0.0000
# 3 20.1272 20.1272 162.9195 0.0000 0.0000 0.0000
# 4 0.0000 0.0000 0.0000 26.1818 0.0000 -2.7235
# 5 2.7235 -2.7235 0.0000 0.0000 26.1818 0.0000
# 6 0.0000 0.0000 0.0000 -2.7235 0.0000 34.2560
#
#
#
# Elastic Compliance Matrix: (Units=1/GPa)
#
#
# Indices 1 2 3 4 5 6 
#
# 1 0.015124 0.000406 -0.001919 0.000000 -0.001531 0.000000
# 2 0.000406 0.015124 -0.001919 0.000000 0.001531 0.000000
# 3 -0.001919 -0.001919 0.006612 0.000000 0.000000 0.000000
# 4 0.000000 0.000000 0.000000 0.038513 0.000000 0.003062
# 5 -0.001531 0.001531 0.000000 0.000000 0.038513 0.000000
# 6 0.000000 0.000000 0.000000 0.003062 0.000000 0.029435
#
#
# Mechanical properties :
#
#
# Convention : Reuss Voigt Hill
#
# Bulk Modulus (GPa) = 33.33551 42.46173 37.89862
# Shear Modulus (GPa) = 31.21439 34.66492 32.93966
#
# Velocity S-wave (km/s) = 4.04518 4.26290 4.15547
# Velocity P-wave (km/s) = 6.26845 6.81832 6.54916
#
# Compressibility (1/GPa) = 0.02999804
#
# Stress axis : x y z
#
# Youngs Moduli (GPa) = 66.12023 66.12023 151.23898
#
# Poissons Ratio (x) = -0.02686 0.29017
# Poissons Ratio (y) = -0.02686 0.29017
# Poissons Ratio (z) = 0.12686 0.12686
#
# Static dielectric constant tensor:
#      x y z
#    x 3.325210 0.000000 0.000000 
#    y 0.000000 3.325210 0.000000 
#    z 0.000000 0.000000 3.852660 
# 
# 
# High freq. dielectric constant tensor:
#      x y z
#    x 1.721260 0.000000 0.000000 
#    y 0.000000 1.721260 0.000000 
#    z 0.000000 0.000000 1.773930 
# 
# From -- ./inp_files/4348.got.cif
#   From: 2010.03.12/outbox.cif.g09.slc.cpg/sg163_3_cif.got.tgz:4348.got - 2010.04.02 06:30:25.
