data_PCOD8323548
_publ_section_title
;
Structure prediction by ZEFSAII (Michael W. Deem and Ramdas Pophale) SiO2 
 PCOD8323548
Probable space group: P -3 M 1
;
_chemical_formula_sum "Si O2"
_cell_formula_units_Z 96
_cell_length_a 17.034516
_cell_length_b 17.034516
_cell_length_c 22.155326
_cell_angle_alpha 90.000000
_cell_angle_beta 90.000000
_cell_angle_gamma 120.000000
_cell_volume 5567.604452
_symmetry_space_group_name_H-M "P -3 M 1"
_symmetry_group_IT_number 164
_symmetry_cell_setting 'hexagonal'
loop_
_space_group_symop_operation_xyz
x,y,z
-y,x-y,z
-x+y,-x,z
x-y,-y,-z
-x,-x+y,-z
y,x,-z
-x,-y,-z
y,-x+y,-z
x-y,x,-z
-x+y,y,z
x,x-y,z
-y,-x,z
loop_
_atom_site_type_symbol
_atom_site_label
_atom_site_fract_x
_atom_site_fract_y
_atom_site_fract_z
Si Si1 0.598631 0.578949 0.127629
Si Si2 0.666500 0.517428 0.659428
Si Si3 0.051892 0.768081 0.939414
Si Si4 0.819611 0.000985 0.183085
Si Si5 0.153360 0.486827 0.654228
Si Si6 0.333934 0.488576 0.204451
Si Si7 0.275224 0.904527 0.768908
Si Si8 0.590396 0.590885 0.433806
O O1 0.517676 0.482325 0.104394
O O2 0.669593 0.628486 0.073602
O O3 0.560450 0.642277 0.152104
O O4 0.647676 0.562935 0.184575
O O5 0.757350 0.514701 0.647061
O O6 0.582583 0.417418 0.648473
O O7 0.663806 0.549265 0.728355
O O8 0.663633 0.589405 0.612799
O O9 0.158165 0.841836 0.945836
O O10 0.006732 0.796490 0.886497
O O11 0.000000 0.764721 0.000000
O O12 0.923129 0.076872 0.197455
O O13 0.748938 0.014849 0.224784
O O14 0.805736 0.902868 0.197936
O O15 0.256677 0.513355 0.644860
O O16 0.150688 0.575344 0.676310
O O17 0.101031 0.406587 0.701918
O O18 0.100830 0.449402 0.591648
O O19 0.235448 0.470895 0.188493
O O20 0.404197 0.595804 0.203920
O O21 0.186820 0.813181 0.789434
O O22 0.631652 0.631652 0.500000
O O23 0.486981 0.513020 0.441418
#
# Coordination Sequence:
#
# PCOD8323548 Si02
#       8
#    12  12  12  12  12  12  12  12
#     4  10  19  31  49  71  95 124 156 188 226 276
#     4   9  16  27  44  66  92 122 156 191 228 275
#     4  10  21  36  53  72  95 124 158 197 237 276
#     4   9  17  30  49  73  99 125 152 184 227 280
#     4  10  19  32  50  69  90 119 158 200 237 276
#     4   9  17  28  44  68  96 124 152 185 226 271
#     4   9  18  31  47  69  97 126 154 191 239 282
#     4   9  18  31  44  60  87 120 150 188 239 283
#
# _framework density 17.242604
#
# number of rings (size 3 to 8) (size 9 to 14) (size 15 to 20)
#    0.000    2.625    0.000    3.125    0.000    6.250 
#    0.000    0.625    0.000    6.250    0.000    0.875 
#    0.000    0.000    0.000    0.375    0.000   19.500 
#
# Total GULP energy -1190047.566920 kJ/mol
# GULP energy per Si atom -12396.328822 kJ/mol
# Density = 1.720336 g / cm^3
# Si number density = 17.242604 Si / 1000 Ang^3
#
#
#
# Elastic Constant Matrix: (Units=GPa)
#
#
# Indices 1 2 3 4 5 6 
#
# 1 92.9431 45.9811 37.9264 -3.9832 0.0000 0.0000
# 2 45.9811 92.9431 37.9264 3.9832 0.0000 0.0000
# 3 37.9264 37.9264 74.8280 0.0000 0.0000 0.0000
# 4 -3.9832 3.9832 0.0000 18.9359 0.0000 0.0000
# 5 0.0000 0.0000 0.0000 0.0000 18.9359 -3.9832
# 6 0.0000 0.0000 0.0000 0.0000 -3.9832 23.4810
#
#
#
# Elastic Compliance Matrix: (Units=1/GPa)
#
#
# Indices 1 2 3 4 5 6 
#
# 1 0.016017 -0.006065 -0.005044 0.004645 0.000000 0.000000
# 2 -0.006065 0.016017 -0.005044 -0.004645 0.000000 0.000000
# 3 -0.005044 -0.005044 0.018477 0.000000 0.000000 0.000000
# 4 0.004645 -0.004645 0.000000 0.054764 0.000000 0.000000
# 5 0.000000 0.000000 0.000000 0.000000 0.054764 0.009290
# 6 0.000000 0.000000 0.000000 0.000000 0.009290 0.044163
#
#
# Mechanical properties :
#
#
# Convention : Reuss Voigt Hill
#
# Bulk Modulus (GPa) = 54.93055 56.04244 55.48650
# Shear Modulus (GPa) = 20.61194 21.52924 21.07059
#
# Velocity S-wave (km/s) = 3.46122 3.53740 3.49952
# Velocity P-wave (km/s) = 6.92098 7.01834 6.96983
#
# Compressibility (1/GPa) = 0.01820481
#
# Stress axis : x y z
#
# Youngs Moduli (GPa) = 62.43340 62.43340 54.12015
#
# Poissons Ratio (x) = 0.37864 0.27300
# Poissons Ratio (y) = 0.37864 0.27300
# Poissons Ratio (z) = 0.31494 0.31494
#
# Static dielectric constant tensor:
#      x y z
#    x 3.189340 0.000000 0.000000 
#    y 0.000000 3.189340 0.000000 
#    z 0.000000 0.000000 3.163540 
# 
# 
# High freq. dielectric constant tensor:
#      x y z
#    x 1.660210 0.000000 0.000000 
#    y 0.000000 1.660210 0.000000 
#    z 0.000000 0.000000 1.649390 
# 
# From -- ./inp_files/4773.got.cif
#   From: 2010.03.12/outbox.cif.g09.slc.cpg/sg164_3_cif.got.tgz:4773.got - 2010.04.02 06:32:59.
