data_PCOD8323376
_publ_section_title
;
Structure prediction by ZEFSAII (Michael W. Deem and Ramdas Pophale) SiO2 
 PCOD8323376
Probable space group: P -3 M 1
;
_chemical_formula_sum "Si O2"
_cell_formula_units_Z 60
_cell_length_a 30.079946
_cell_length_b 30.079946
_cell_length_c 5.126841
_cell_angle_alpha 90.000000
_cell_angle_beta 90.000000
_cell_angle_gamma 120.000000
_cell_volume 4017.302962
_symmetry_space_group_name_H-M "P -3 M 1"
_symmetry_group_IT_number 164
_symmetry_cell_setting 'hexagonal'
loop_
_space_group_symop_operation_xyz
x,y,z
-y,x-y,z
-x+y,-x,z
x-y,-y,-z
-x,-x+y,-z
y,x,-z
-x,-y,-z
y,-x+y,-z
x-y,x,-z
-x+y,y,z
x,x-y,z
-y,-x,z
loop_
_atom_site_type_symbol
_atom_site_label
_atom_site_fract_x
_atom_site_fract_y
_atom_site_fract_z
Si Si1 0.678222 0.118684 0.382383
Si Si2 0.208942 0.318679 0.086963
Si Si3 0.729996 0.559380 0.885833
Si Si4 0.033145 0.466029 0.757276
Si Si5 0.739374 0.058106 0.416498
O O1 0.686652 0.147275 0.659727
O O2 0.619564 0.084950 0.296938
O O3 0.703298 0.082836 0.398495
O O4 0.703646 0.163247 0.165960
O O5 0.148684 0.297368 0.034260
O O6 0.238597 0.379613 0.101704
O O7 0.216071 0.299344 0.366794
O O8 0.232087 0.298529 0.860799
O O9 0.769072 0.538143 0.833953
O O10 0.048821 0.524411 0.824080
O O11 0.000000 0.446423 0.500000
O O12 0.000000 0.429539 0.000000
O O13 0.703024 0.000000 0.500000
#
# Coordination Sequence:
#
# PCOD8323376 Si02
#       5
#    12  12  12  12  12
#     4  10  18  28  43  59  80 108 133 165 206 242
#     4   9  17  28  39  52  74 102 127 154 199 244
#     4   9  17  28  42  60  79 101 129 160 199 249
#     4  10  20  32  44  59  82 113 147 175 200 239
#     4  10  18  26  39  58  76  96 130 172 202 226
#
# _framework density 14.935395
#
# number of rings (size 3 to 8) (size 9 to 14) (size 15 to 20)
#    0.000    2.400    0.000    3.600    0.000    8.000 
#    0.000    0.000    0.000    0.000    0.000    0.000 
#    0.000    0.000    0.000   12.000    0.000    0.000 
#
# Total GULP energy -743694.126926 kJ/mol
# GULP energy per Si atom -12394.902115 kJ/mol
# Density = 1.490140 g / cm^3
# Si number density = 14.935395 Si / 1000 Ang^3
#
#
#
# Elastic Constant Matrix: (Units=GPa)
#
#
# Indices 1 2 3 4 5 6 
#
# 1 57.5891 20.7568 29.2757 3.7735 0.0000 0.0000
# 2 20.7568 57.5891 29.2757 -3.7735 0.0000 0.0000
# 3 29.2757 29.2757 113.8753 0.0000 0.0000 0.0000
# 4 3.7735 -3.7735 0.0000 25.4526 0.0000 0.0000
# 5 0.0000 0.0000 0.0000 0.0000 25.4526 3.7735
# 6 0.0000 0.0000 0.0000 0.0000 3.7735 18.4162
#
#
#
# Elastic Compliance Matrix: (Units=1/GPa)
#
#
# Indices 1 2 3 4 5 6 
#
# 1 0.021900 -0.006101 -0.004062 -0.004151 0.000000 0.000000
# 2 -0.006101 0.021900 -0.004062 0.004151 0.000000 0.000000
# 3 -0.004062 -0.004062 0.010870 0.000000 0.000000 0.000000
# 4 -0.004151 0.004151 0.000000 0.040520 0.000000 0.000000
# 5 0.000000 0.000000 0.000000 0.000000 0.040520 -0.008303
# 6 0.000000 0.000000 0.000000 0.000000 -0.008303 0.056001
#
#
# Mechanical properties :
#
#
# Convention : Reuss Voigt Hill
#
# Bulk Modulus (GPa) = 38.13636 43.07445 40.60540
# Shear Modulus (GPa) = 21.84361 23.84729 22.84545
#
# Velocity S-wave (km/s) = 3.82847 4.00020 3.91528
# Velocity P-wave (km/s) = 6.71807 7.08792 6.90547
#
# Compressibility (1/GPa) = 0.02622169
#
# Stress axis : x y z
#
# Youngs Moduli (GPa) = 45.66192 45.66192 91.99623
#
# Poissons Ratio (x) = 0.27856 0.37367
# Poissons Ratio (y) = 0.27856 0.37367
# Poissons Ratio (z) = 0.18547 0.18547
#
# Static dielectric constant tensor:
#      x y z
#    x 2.678920 0.000000 0.000000 
#    y 0.000000 2.678920 0.000000 
#    z 0.000000 0.000000 3.275980 
# 
# 
# High freq. dielectric constant tensor:
#      x y z
#    x 1.533770 0.000000 0.000000 
#    y 0.000000 1.533770 0.000000 
#    z 0.000000 0.000000 1.600930 
# 
# From -- ./inp_files/680.got.cif
#   From: 2010.03.12/outbox.cif.g09.slc.cpg/sg164_1_cif.got.tgz:680.got - 2010.04.02 06:32:59.
