data_PCOD8323085
_publ_section_title
;
Structure prediction by ZEFSAII (Michael W. Deem and Ramdas Pophale) SiO2 
 PCOD8323085
Probable space group: P -3 1 M 
;
_chemical_formula_sum "Si O2"
_cell_formula_units_Z 68
_cell_length_a 12.907367
_cell_length_b 12.907367
_cell_length_c 25.886541
_cell_angle_alpha 90.000000
_cell_angle_beta 90.000000
_cell_angle_gamma 120.000000
_cell_volume 3734.908548
_symmetry_space_group_name_H-M "P -3 1 M "
_symmetry_group_IT_number 162
_symmetry_cell_setting 'hexagonal'
loop_
_space_group_symop_operation_xyz
x,y,z
-y,x-y,z
-x+y,-x,z
-y,-x,-z
-x+y,y,-z
x,x-y,-z
-x,-y,-z
y,-x+y,-z
x-y,x,-z
y,x,z
x-y,-y,z
-x,-x+y,z
loop_
_atom_site_type_symbol
_atom_site_label
_atom_site_fract_x
_atom_site_fract_y
_atom_site_fract_z
Si Si1 0.333334 0.666667 0.795550
Si Si2 0.287084 0.424391 0.953311
Si Si3 0.864976 0.137648 0.142337
Si Si4 0.584690 0.723743 0.237544
Si Si5 0.333334 0.666667 0.918755
Si Si6 0.718471 0.858332 0.666480
Si Si7 0.722171 0.860425 0.554507
O O1 0.343191 0.555716 0.773775
O O2 0.333334 0.666667 0.857254
O O3 0.382634 0.382634 0.966072
O O4 0.212856 0.362711 0.902465
O O5 0.360054 0.566127 0.941719
O O6 0.194336 0.388672 0.000000
O O7 0.828633 0.172478 0.195935
O O8 0.000000 0.162582 0.145004
O O9 0.776437 0.000000 0.130974
O O10 0.623313 0.623313 0.234429
O O11 0.611855 0.786802 0.293390
O O12 0.790454 0.790454 0.681015
O O13 0.654141 0.813406 0.609557
O O14 0.812704 0.000000 0.668465
O O15 0.644824 0.822412 0.500000
O O16 0.820669 0.820669 0.549182
O O17 0.789121 0.000000 0.559930
#
# Coordination Sequence:
#
# PCOD8323085 Si02
#       7
#     4  12  12  12   4  12  12
#     4  12  24  43  61  81 106 139 171 220 275 316
#     4  11  24  42  62  88 117 146 181 219 263 316
#     4  10  20  35  56  82 112 145 180 217 260 310
#     4  10  22  38  55  78 105 136 178 222 269 324
#     4  12  25  43  63  87 111 142 181 226 272 319
#     4   9  16  27  45  73 108 145 183 223 267 317
#     4   8  12  18  32  59  98 141 180 217 260 311
#
# _framework density 18.206603999999999
#
# number of rings (size 3 to 8) (size 9 to 14) (size 15 to 20)
#    0.000    2.118    1.765    2.118    0.000    5.647 
#    0.000    1.765    0.000    2.824    0.000    1.235 
#    0.000    7.059    0.000    0.000    0.000    0.000 
#
# Total GULP energy -842688.190078 kJ/mol
# GULP energy per Si atom -12392.473383 kJ/mol
# Density = 1.816516 g / cm^3
# Si number density = 18.206604 Si / 1000 Ang^3
#
#
#
# Elastic Constant Matrix: (Units=GPa)
#
#
# Indices 1 2 3 4 5 6 
#
# 1 79.2570 39.9903 33.9281 0.0001 -2.6061 0.0001
# 2 39.9903 79.2573 33.9281 0.0001 2.6061 0.0003
# 3 33.9281 33.9281 132.1327 0.0001 0.0001 0.0000
# 4 0.0001 0.0001 0.0001 19.9883 0.0000 2.6061
# 5 -2.6061 2.6061 0.0001 0.0000 19.9883 0.0000
# 6 0.0001 0.0003 0.0000 2.6061 0.0000 19.6336
#
#
#
# Elastic Compliance Matrix: (Units=1/GPa)
#
#
# Indices 1 2 3 4 5 6 
#
# 1 0.017868 -0.008047 -0.002522 0.000000 0.003379 0.000000
# 2 -0.008047 0.017868 -0.002522 0.000000 -0.003379 0.000000
# 3 -0.002522 -0.002522 0.008863 0.000000 0.000000 0.000000
# 4 0.000000 0.000000 0.000000 0.050910 0.000000 -0.006758
# 5 0.003379 -0.003379 0.000000 0.000000 0.050910 0.000000
# 6 0.000000 0.000000 0.000000 -0.006758 0.000000 0.051830
#
#
# Mechanical properties :
#
#
# Convention : Reuss Voigt Hill
#
# Bulk Modulus (GPa) = 54.29470 56.25998 55.27734
# Shear Modulus (GPa) = 21.68530 24.10874 22.89702
#
# Velocity S-wave (km/s) = 3.45493 3.64287 3.55014
# Velocity P-wave (km/s) = 6.76768 6.97581 6.87254
#
# Compressibility (1/GPa) = 0.01841800
#
# Stress axis : x y z
#
# Youngs Moduli (GPa) = 55.96563 55.96590 112.82643
#
# Poissons Ratio (x) = 0.45037 0.28452
# Poissons Ratio (y) = 0.45037 0.28452
# Poissons Ratio (z) = 0.14113 0.14113
#
# Static dielectric constant tensor:
#      x y z
#    x 3.113270 0.000000 0.000000 
#    y 0.000000 3.113260 0.000000 
#    z 0.000000 0.000000 4.059690 
# 
# 
# High freq. dielectric constant tensor:
#      x y z
#    x 1.678310 0.000000 0.000000 
#    y 0.000000 1.678310 0.000000 
#    z 0.000000 0.000000 1.735760 
# 
# From -- ./inp_files/4095.got.cif
#   From: 2010.03.12/outbox.cif.g09.slc.cpg/sg162_3_cif.got.tgz:4095.got - 2010.04.02 06:27:41.
