data_PCOD8323598
_publ_section_title
;
Structure prediction by ZEFSAII (Michael W. Deem and Ramdas Pophale) SiO2 
 PCOD8323598
Probable space group: P -3 M 1
;
_chemical_formula_sum "Si O2"
_cell_formula_units_Z 66
_cell_length_a 20.896323
_cell_length_b 20.896323
_cell_length_c 7.679517
_cell_angle_alpha 90.000000
_cell_angle_beta 90.000000
_cell_angle_gamma 120.000000
_cell_volume 2904.051295
_symmetry_space_group_name_H-M "P -3 M 1"
_symmetry_group_IT_number 164
_symmetry_cell_setting 'hexagonal'
loop_
_space_group_symop_operation_xyz
x,y,z
-y,x-y,z
-x+y,-x,z
x-y,-y,-z
-x,-x+y,-z
y,x,-z
-x,-y,-z
y,-x+y,-z
x-y,x,-z
-x+y,y,z
x,x-y,z
-y,-x,z
loop_
_atom_site_type_symbol
_atom_site_label
_atom_site_fract_x
_atom_site_fract_y
_atom_site_fract_z
Si Si1 0.451092 0.411503 0.822764
Si Si2 0.333264 0.814735 0.602809
Si Si3 0.304448 0.938882 0.620053
Si Si4 0.170732 0.085366 0.955345
Si Si5 0.144144 0.288288 0.744987
Si Si6 0.915261 0.084740 0.548693
Si Si7 0.667241 0.188556 0.989165
O O1 0.521694 0.478307 0.720831
O O2 0.375532 0.381720 0.726381
O O3 0.466448 0.344867 0.866245
O O4 0.447143 0.447143 0.000000
O O5 0.410074 0.820147 0.542242
O O6 0.266271 0.733730 0.552515
O O7 0.321551 0.879920 0.517523
O O8 0.333769 0.830415 0.807747
O O9 0.232784 0.894202 0.741364
O O10 0.298114 0.000000 0.500000
O O11 0.192913 0.096457 0.752021
O O12 0.122334 0.122334 0.000000
O O13 0.243392 0.121696 0.075395
O O14 0.121208 0.242415 0.567144
O O15 0.000000 0.120904 0.500000
O O16 0.605644 0.211287 0.955047
O O17 0.744921 0.255080 0.929604
#
# Coordination Sequence:
#
# PCOD8323598 Si02
#       7
#    12  12  12   6   6   6  12
#     4  10  20  39  65  94 129 175 227 288 346 418
#     4  10  19  37  63  95 128 169 224 286 348 416
#     4  12  26  44  66  93 135 184 230 285 355 427
#     4  12  25  47  81 113 142 192 250 294 370 443
#     4  12  28  50  68 104 152 192 242 296 361 433
#     4  12  23  47  77 111 150 190 236 312 364 419
#     4   9  17  32  59  94 132 170 218 278 343 403
#
# _framework density 22.726872
#
# number of rings (size 3 to 8) (size 9 to 14) (size 15 to 20)
#    0.000    1.273    4.545    1.636    0.000    3.636 
#    1.636    0.000    0.000    0.000    0.000    2.545 
#    0.000    0.000    0.000    0.000    0.000    0.000 
#
# Total GULP energy -817991.554058 kJ/mol
# GULP energy per Si atom -12393.811425 kJ/mol
# Density = 2.267515 g / cm^3
# Si number density = 22.726872 Si / 1000 Ang^3
#
#
#
# Elastic Constant Matrix: (Units=GPa)
#
#
# Indices 1 2 3 4 5 6 
#
# 1 147.4511 61.9107 21.6083 0.2641 0.0000 0.0000
# 2 61.9107 147.4511 21.6083 -0.2641 0.0000 0.0000
# 3 21.6083 21.6083 74.0258 0.0000 0.0000 0.0000
# 4 0.2641 -0.2641 0.0000 22.2913 0.0000 0.0000
# 5 0.0000 0.0000 0.0000 0.0000 22.2913 0.2641
# 6 0.0000 0.0000 0.0000 0.0000 0.2641 42.7702
#
#
#
# Elastic Compliance Matrix: (Units=1/GPa)
#
#
# Indices 1 2 3 4 5 6 
#
# 1 0.008387 -0.003304 -0.001484 -0.000139 0.000000 0.000000
# 2 -0.003304 0.008387 -0.001484 0.000139 0.000000 0.000000
# 3 -0.001484 -0.001484 0.014375 0.000000 0.000000 0.000000
# 4 -0.000139 0.000139 0.000000 0.044864 0.000000 0.000000
# 5 0.000000 0.000000 0.000000 0.000000 0.044864 -0.000277
# 6 0.000000 0.000000 0.000000 0.000000 -0.000277 0.023382
#
#
# Mechanical properties :
#
#
# Convention : Reuss Voigt Hill
#
# Bulk Modulus (GPa) = 53.74686 64.35360 59.05023
# Shear Modulus (GPa) = 30.67407 35.05727 32.86567
#
# Velocity S-wave (km/s) = 3.67779 3.93179 3.80691
# Velocity P-wave (km/s) = 6.46028 6.99925 6.73516
#
# Compressibility (1/GPa) = 0.01860574
#
# Stress axis : x y z
#
# Youngs Moduli (GPa) = 119.23275 119.23275 69.56538
#
# Poissons Ratio (x) = 0.39398 0.10321
# Poissons Ratio (y) = 0.39398 0.10321
# Poissons Ratio (z) = 0.17690 0.17690
#
# Static dielectric constant tensor:
#      x y z
#    x 4.369410 0.000000 0.000000 
#    y 0.000000 4.369410 0.000000 
#    z 0.000000 0.000000 3.265400 
# 
# 
# High freq. dielectric constant tensor:
#      x y z
#    x 1.911610 0.000000 0.000000 
#    y 0.000000 1.911610 0.000000 
#    z 0.000000 0.000000 1.872950 
# 
# From -- ./inp_files/1773.got.cif
#   From: 2010.03.12/outbox.cif.g09.slc.cpg/sg164_1_cif.got.tgz:1773.got - 2010.04.02 06:32:59.
