data_PCOD8323898
_publ_section_title
;
Structure prediction by ZEFSAII (Michael W. Deem and Ramdas Pophale) SiO2 
 PCOD8323898
Probable space group: P -3 C 1
;
_chemical_formula_sum "Si O2"
_cell_formula_units_Z 60
_cell_length_a 12.440922
_cell_length_b 12.440922
_cell_length_c 21.422055
_cell_angle_alpha 90.000000
_cell_angle_beta 90.000000
_cell_angle_gamma 120.000000
_cell_volume 2871.421158
_symmetry_space_group_name_H-M "P -3 C 1"
_symmetry_group_IT_number 165
_symmetry_cell_setting 'hexagonal'
loop_
_space_group_symop_operation_xyz
x,y,z
-y,x-y,z
-x+y,-x,z
x-y,-y,1/2-z
-x,-x+y,1/2-z
y,x,1/2-z
-x,-y,-z
y,-x+y,-z
x-y,x,-z
-x+y,y,1/2+z
x,x-y,1/2+z
-y,-x,1/2+z
loop_
_atom_site_type_symbol
_atom_site_label
_atom_site_fract_x
_atom_site_fract_y
_atom_site_fract_z
Si Si1 0.270142 0.223237 0.066579
Si Si2 0.587311 0.666708 0.190392
Si Si3 0.210008 0.685135 0.367624
Si Si4 0.044136 0.782614 0.574919
Si Si5 0.329005 0.872018 0.731548
O O1 0.399072 0.298299 0.103979
O O2 0.171341 0.261586 0.090003
O O3 0.200161 0.075601 0.077590
O O4 0.311749 0.260822 0.994957
O O5 0.668310 0.668310 0.250000
O O6 0.655827 0.675641 0.125127
O O7 0.577049 0.789789 0.188670
O O8 0.453303 0.543728 0.191444
O O9 0.203426 0.553724 0.386418
O O10 0.204936 0.681853 0.292916
O O11 0.332839 0.000000 0.750000
#
# Coordination Sequence:
#
# PCOD8323898 Si02
#       5
#    12  12  12  12  12
#     4  10  21  42  65  93 126 174 217 265 331 376
#     4  11  22  38  60  90 123 160 210 257 314 383
#     4  10  20  38  62  85 124 173 213 252 321 400
#     4  10  22  40  64  94 126 166 219 272 315 390
#     4  11  21  36  59  86 121 162 203 260 314 378
#
# _framework density 20.895575999999998
#
# number of rings (size 3 to 8) (size 9 to 14) (size 15 to 20)
#    0.400    1.200    2.000    3.200    2.800    1.600 
#    3.600    2.000    0.000    0.400    0.000    0.000 
#    0.000    0.000    0.000    0.000    0.000    0.000 
#
# Total GULP energy -743491.153649 kJ/mol
# GULP energy per Si atom -12391.519227 kJ/mol
# Density = 2.084802 g / cm^3
# Si number density = 20.895576 Si / 1000 Ang^3
#
#
#
# Elastic Constant Matrix: (Units=GPa)
#
#
# Indices 1 2 3 4 5 6 
#
# 1 78.2456 11.7613 31.1667 -0.5296 0.0000 0.0000
# 2 11.7613 78.2456 31.1667 0.5296 0.0000 0.0000
# 3 31.1667 31.1667 110.4333 0.0000 0.0000 0.0000
# 4 -0.5296 0.5296 0.0000 24.9728 0.0000 0.0000
# 5 0.0000 0.0000 0.0000 0.0000 24.9728 -0.5296
# 6 0.0000 0.0000 0.0000 0.0000 -0.5296 33.2422
#
#
#
# Elastic Compliance Matrix: (Units=1/GPa)
#
#
# Indices 1 2 3 4 5 6 
#
# 1 0.014428 -0.000618 -0.003897 0.000319 0.000000 0.000000
# 2 -0.000618 0.014428 -0.003897 -0.000319 0.000000 0.000000
# 3 -0.003897 -0.003897 0.011255 0.000000 0.000000 0.000000
# 4 0.000319 -0.000319 0.000000 0.040057 0.000000 0.000000
# 5 0.000000 0.000000 0.000000 0.000000 0.040057 0.000638
# 6 0.000000 0.000000 0.000000 0.000000 0.000638 0.030092
#
#
# Mechanical properties :
#
#
# Convention : Reuss Voigt Hill
#
# Bulk Modulus (GPa) = 42.94706 46.12376 44.53541
# Shear Modulus (GPa) = 28.58698 29.49287 29.03993
#
# Velocity S-wave (km/s) = 3.70278 3.76099 3.73200
# Velocity P-wave (km/s) = 6.23527 6.40168 6.31902
#
# Compressibility (1/GPa) = 0.02328448
#
# Stress axis : x y z
#
# Youngs Moduli (GPa) = 69.31085 69.31085 88.84916
#
# Poissons Ratio (x) = 0.04287 0.34627
# Poissons Ratio (y) = 0.04287 0.34627
# Poissons Ratio (z) = 0.27012 0.27012
#
# Static dielectric constant tensor:
#      x y z
#    x 3.746340 0.000000 0.000000 
#    y 0.000000 3.746340 0.000000 
#    z 0.000000 0.000000 3.639610 
# 
# 
# High freq. dielectric constant tensor:
#      x y z
#    x 1.819090 0.000000 0.000000 
#    y 0.000000 1.819090 0.000000 
#    z 0.000000 0.000000 1.804700 
# 
# From -- ./inp_files/2635.got.cif
#   From: 2010.03.12/outbox.cif.g09.slc.cpg/sg165_2_cif.got.tgz:2635.got - 2010.04.02 06:36:38.
