data_PCOD8323007
_publ_section_title
;
Structure prediction by ZEFSAII (Michael W. Deem and Ramdas Pophale) SiO2 
 PCOD8323007
Probable space group: P -3 1 M 
;
_chemical_formula_sum "Si O2"
_cell_formula_units_Z 54
_cell_length_a 19.908000
_cell_length_b 19.908000
_cell_length_c 9.068238
_cell_angle_alpha 90.000000
_cell_angle_beta 90.000000
_cell_angle_gamma 120.000000
_cell_volume 3112.496027
_symmetry_space_group_name_H-M "P -3 1 M "
_symmetry_group_IT_number 162
_symmetry_cell_setting 'hexagonal'
loop_
_space_group_symop_operation_xyz
x,y,z
-y,x-y,z
-x+y,-x,z
-y,-x,-z
-x+y,y,-z
x,x-y,-z
-x,-y,-z
y,-x+y,-z
x-y,x,-z
y,x,z
x-y,-y,z
-x,-x+y,z
loop_
_atom_site_type_symbol
_atom_site_label
_atom_site_fract_x
_atom_site_fract_y
_atom_site_fract_z
Si Si1 0.323688 0.415309 0.334532
Si Si2 0.333745 0.166892 0.163293
Si Si3 0.091893 0.908108 0.000000
Si Si4 0.091624 0.676347 0.665472
Si Si5 0.453711 0.546315 0.166663
O O1 0.374218 0.374218 0.339933
O O2 0.245306 0.359092 0.250112
O O3 0.305367 0.431373 0.499999
O O4 0.371649 0.497049 0.249843
O O5 0.359072 0.113830 0.250183
O O6 0.372442 0.186221 0.000000
O O7 0.239772 0.119914 0.144988
O O8 0.000000 0.870309 0.999932
O O9 0.125392 0.628387 0.750200
O O10 0.000000 0.625853 0.660116
O O11 0.500010 0.500010 0.167100
O O12 0.437779 0.562222 0.000000
#
# Coordination Sequence:
#
# PCOD8323007 Si02
#       5
#    12  12   6  12  12
#     4  10  19  32  50  75 106 139 177 221 273 329
#     4  10  21  32  52  75 107 139 181 234 285 336
#     4  10  21  36  56  78 106 140 186 240 304 372
#     4  10  19  32  50  75 106 139 177 221 273 329
#     4   9  17  29  49  74 103 137 169 204 247 301
#
# _framework density 17.349419000000001
#
# number of rings (size 3 to 8) (size 9 to 14) (size 15 to 20)
#    0.667    1.556    0.000    4.111    0.000    4.444 
#    0.000    0.000    0.000    0.889    0.000    6.222 
#    0.000   10.667    0.000    0.000    0.000    0.000 
#
# Total GULP energy -669392.794697 kJ/mol
# GULP energy per Si atom -12396.162865 kJ/mol
# Density = 1.730993 g / cm^3
# Si number density = 17.349419 Si / 1000 Ang^3
#
#
#
# Elastic Constant Matrix: (Units=GPa)
#
#
# Indices 1 2 3 4 5 6 
#
# 1 96.4688 40.4436 49.8274 0.0000 0.0017 0.0000
# 2 40.4436 96.4688 49.8274 0.0000 -0.0017 0.0000
# 3 49.8274 49.8274 161.8763 0.0000 0.0000 0.0000
# 4 0.0000 0.0000 0.0000 28.4801 0.0000 -0.0017
# 5 0.0017 -0.0017 0.0000 0.0000 28.4801 0.0000
# 6 0.0000 0.0000 0.0000 -0.0017 0.0000 28.0126
#
#
#
# Elastic Compliance Matrix: (Units=1/GPa)
#
#
# Indices 1 2 3 4 5 6 
#
# 1 0.013631 -0.004218 -0.002897 0.000000 -0.000001 0.000000
# 2 -0.004218 0.013631 -0.002897 0.000000 0.000001 0.000000
# 3 -0.002897 -0.002897 0.007961 0.000000 0.000000 0.000000
# 4 0.000000 0.000000 0.000000 0.035112 0.000000 0.000002
# 5 -0.000001 0.000001 0.000000 0.000000 0.035112 0.000000
# 6 0.000000 0.000000 0.000000 0.000002 0.000000 0.035698
#
#
# Mechanical properties :
#
#
# Convention : Reuss Voigt Hill
#
# Bulk Modulus (GPa) = 65.80059 70.55678 68.17868
# Shear Modulus (GPa) = 30.07743 31.30892 30.69317
#
# Velocity S-wave (km/s) = 4.16820 4.25268 4.21065
# Velocity P-wave (km/s) = 7.82140 8.05420 7.93865
#
# Compressibility (1/GPa) = 0.01519743
#
# Stress axis : x y z
#
# Youngs Moduli (GPa) = 73.36223 73.36223 125.60828
#
# Poissons Ratio (x) = 0.30945 0.36394
# Poissons Ratio (y) = 0.30945 0.36394
# Poissons Ratio (z) = 0.21256 0.21256
#
# Static dielectric constant tensor:
#      x y z
#    x 3.071200 0.000000 0.000000 
#    y 0.000000 3.071200 0.000000 
#    z 0.000000 0.000000 3.509020 
# 
# 
# High freq. dielectric constant tensor:
#      x y z
#    x 1.652190 0.000000 0.000000 
#    y 0.000000 1.652190 0.000000 
#    z 0.000000 0.000000 1.682930 
# 
# From -- ./inp_files/1446.got.cif
#   From: 2010.03.12/outbox.cif.g09.slc.cpg/sg162_1_cif.got.tgz:1446.got - 2010.04.02 06:27:41.
