data_PCOD8323827
_publ_section_title
;
Structure prediction by ZEFSAII (Michael W. Deem and Ramdas Pophale) SiO2 
 PCOD8323827
Probable space group: P -3 M 1
;
_chemical_formula_sum "Si O2"
_cell_formula_units_Z 84
_cell_length_a 22.508722
_cell_length_b 22.508722
_cell_length_c 12.627941
_cell_angle_alpha 90.000000
_cell_angle_beta 90.000000
_cell_angle_gamma 120.000000
_cell_volume 5540.702736
_symmetry_space_group_name_H-M "P -3 M 1"
_symmetry_group_IT_number 164
_symmetry_cell_setting 'hexagonal'
loop_
_space_group_symop_operation_xyz
x,y,z
-y,x-y,z
-x+y,-x,z
x-y,-y,-z
-x,-x+y,-z
y,x,-z
-x,-y,-z
y,-x+y,-z
x-y,x,-z
-x+y,y,z
x,x-y,z
-y,-x,z
loop_
_atom_site_type_symbol
_atom_site_label
_atom_site_fract_x
_atom_site_fract_y
_atom_site_fract_z
Si Si1 0.268694 1.000000 0.374239
Si Si2 0.335043 0.806809 0.230006
Si Si3 0.134820 0.134820 0.373692
Si Si4 0.867176 0.271819 0.621611
Si Si5 0.471766 0.664957 0.769999
Si Si6 0.466115 0.800441 0.000002
Si Si7 0.271819 0.867177 0.621615
O O1 0.337183 0.066690 0.333992
O O2 0.264540 0.000000 0.500000
O O3 0.201872 0.999999 0.327992
O O4 0.270493 0.933309 0.333994
O O5 0.401306 0.802611 0.266342
O O6 0.269895 0.730106 0.231448
O O7 0.325856 0.856387 0.310685
O O8 0.346600 0.840954 0.111487
O O9 0.135531 0.135531 0.500000
O O10 0.067266 0.134531 0.330991
O O11 0.134533 0.067267 0.330991
O O12 0.804233 0.195768 0.634814
O O13 0.876887 0.296166 0.499998
O O14 0.460209 0.730105 0.768556
O O15 0.401307 0.598694 0.733664
O O16 0.494355 0.653401 0.888518
O O17 0.530532 0.674146 0.689321
O O18 0.383667 0.767335 0.000002
O O19 0.487054 0.743527 0.000003
O O20 0.195767 0.804234 0.634817
#
# Coordination Sequence:
#
# PCOD8323827 Si02
#       7
#    12  12  12  12  12  12  12
#     4   9  16  27  41  54  73 106 141 167 192 226
#     4   9  16  26  41  60  81 103 129 164 205 245
#     4   9  15  22  35  57  83 107 131 162 200 239
#     4   9  17  28  41  58  79 103 134 168 197 231
#     4   9  16  26  41  60  81 103 129 164 205 245
#     4   8  13  22  38  59  79  99 124 156 198 247
#     4   9  17  28  41  58  79 103 134 168 197 231
#
# _framework density 15.160532999999999
#
# number of rings (size 3 to 8) (size 9 to 14) (size 15 to 20)
#    0.000    3.143    0.000    1.429    0.000    6.857 
#    0.000    0.714    0.000    5.143    0.000    3.000 
#    0.000    0.000    0.000    0.000    0.000    3.571 
#
# Total GULP energy -1040820.143056 kJ/mol
# GULP energy per Si atom -12390.715989 kJ/mol
# Density = 1.512603 g / cm^3
# Si number density = 15.160533 Si / 1000 Ang^3
#
#
#
# Elastic Constant Matrix: (Units=GPa)
#
#
# Indices 1 2 3 4 5 6 
#
# 1 99.8003 55.1871 42.6161 0.0001 0.0000 0.0000
# 2 55.1871 99.8003 42.6161 -0.0001 0.0000 0.0000
# 3 42.6161 42.6161 64.0127 0.0000 0.0000 0.0000
# 4 0.0001 -0.0001 0.0000 8.4689 0.0000 0.0000
# 5 0.0000 0.0000 0.0000 0.0000 8.4689 0.0001
# 6 0.0000 0.0000 0.0000 0.0000 0.0001 22.3066
#
#
#
# Elastic Compliance Matrix: (Units=1/GPa)
#
#
# Indices 1 2 3 4 5 6 
#
# 1 0.016297 -0.006118 -0.006776 0.000000 0.000000 0.000000
# 2 -0.006118 0.016297 -0.006776 0.000000 0.000000 0.000000
# 3 -0.006776 -0.006776 0.024645 0.000000 0.000000 0.000000
# 4 0.000000 0.000000 0.000000 0.118079 0.000000 0.000000
# 5 0.000000 0.000000 0.000000 0.000000 0.118079 0.000000
# 6 0.000000 0.000000 0.000000 0.000000 0.000000 0.044830
#
#
# Mechanical properties :
#
#
# Convention : Reuss Voigt Hill
#
# Bulk Modulus (GPa) = 55.87725 60.49464 58.18594
# Shear Modulus (GPa) = 13.03666 16.06181 14.54923
#
# Velocity S-wave (km/s) = 2.93560 3.25845 3.10123
# Velocity P-wave (km/s) = 6.95898 7.35840 7.16147
#
# Compressibility (1/GPa) = 0.01789637
#
# Stress axis : x y z
#
# Youngs Moduli (GPa) = 61.36179 61.36179 40.57681
#
# Poissons Ratio (x) = 0.37542 0.27496
# Poissons Ratio (y) = 0.37542 0.27496
# Poissons Ratio (z) = 0.41581 0.41581
#
# Static dielectric constant tensor:
#      x y z
#    x 2.866940 0.000000 0.000000 
#    y 0.000000 2.866940 0.000000 
#    z 0.000000 0.000000 2.904470 
# 
# 
# High freq. dielectric constant tensor:
#      x y z
#    x 1.570750 0.000000 0.000000 
#    y 0.000000 1.570750 0.000000 
#    z 0.000000 0.000000 1.549410 
# 
# From -- ./inp_files/2908.got.cif
#   From: 2010.03.12/outbox.cif.g09.slc.cpg/sg164_2_cif.got.tgz:2908.got - 2010.04.02 06:32:59.
