data_PCOD8323341
_publ_section_title
;
Structure prediction by ZEFSAII (Michael W. Deem and Ramdas Pophale) SiO2 
 PCOD8323341
Probable space group: P -3 1 C
;
_chemical_formula_sum "Si O2"
_cell_formula_units_Z 58
_cell_length_a 14.406960
_cell_length_b 14.406960
_cell_length_c 14.629089
_cell_angle_alpha 90.000000
_cell_angle_beta 90.000000
_cell_angle_gamma 120.000000
_cell_volume 2629.617701
_symmetry_space_group_name_H-M "P -3 1 C"
_symmetry_group_IT_number 163
_symmetry_cell_setting 'hexagonal'
loop_
_space_group_symop_operation_xyz
x,y,z
-y,x-y,z
-x+y,-x,z
-y,-x,1/2-z
-x+y,y,1/2-z
x,x-y,1/2-z
-x,-y,-z
y,-x+y,-z
x-y,x,-z
y,x,1/2+z
x-y,-y,1/2+z
-x,-x+y,1/2+z
loop_
_atom_site_type_symbol
_atom_site_label
_atom_site_fract_x
_atom_site_fract_y
_atom_site_fract_z
Si Si1 0.453068 0.907151 0.427911
Si Si2 0.746769 0.626086 0.170778
Si Si3 0.000000 0.000000 0.107371
Si Si4 0.755721 0.911449 0.348347
Si Si5 0.483279 0.966558 0.750000
Si Si6 0.426141 0.211435 0.975786
O O1 0.334248 0.818972 0.452664
O O2 0.530155 0.857695 0.432497
O O3 0.500000 0.000000 0.500000
O O4 0.446820 0.954512 0.330622
O O5 0.834996 0.669992 0.250000
O O6 0.732134 0.723738 0.138023
O O7 0.637247 0.528812 0.212327
O O8 0.790985 0.587718 0.085595
O O9 0.879854 0.931845 0.143609
O O10 0.000000 0.000000 0.000000
O O11 0.713437 0.856719 0.250000
O O12 0.688539 0.823703 0.426795
#
# Coordination Sequence:
#
# PCOD8323341 Si02
#       6
#    12  12   4  12   6  12
#     4  12  25  47  73 107 149 190 252 313 374 453
#     4  12  26  45  74 106 149 199 248 313 386 455
#     4  12  25  41  73 108 151 191 251 305 370 450
#     4  12  25  46  70 109 147 198 246 306 372 455
#     4  12  24  48  72 108 146 196 252 314 378 458
#     4  12  26  47  73 105 145 194 246 307 382 442
#
# _framework density 22.056436000000001
#
# number of rings (size 3 to 8) (size 9 to 14) (size 15 to 20)
#    0.000    0.000    4.138    6.000    0.000    3.310 
#    0.621    0.000    0.000    0.000    0.000    0.000 
#    0.000    0.000    0.000    0.000    0.000    0.000 
#
# Total GULP energy -719418.751765 kJ/mol
# GULP energy per Si atom -12403.771582 kJ/mol
# Density = 2.200623 g / cm^3
# Si number density = 22.056436 Si / 1000 Ang^3
#
#
#
# Elastic Constant Matrix: (Units=GPa)
#
#
# Indices 1 2 3 4 5 6 
#
# 1 102.7395 28.4970 33.1373 0.0000 6.1610 0.0000
# 2 28.4970 102.7395 33.1373 0.0000 -6.1610 0.0000
# 3 33.1373 33.1373 170.2881 0.0000 0.0000 0.0000
# 4 0.0000 0.0000 0.0000 42.1673 0.0000 -6.1610
# 5 6.1610 -6.1610 0.0000 0.0000 42.1673 0.0000
# 6 0.0000 0.0000 0.0000 -6.1610 0.0000 37.1212
#
#
#
# Elastic Compliance Matrix: (Units=1/GPa)
#
#
# Indices 1 2 3 4 5 6 
#
# 1 0.011127 -0.002677 -0.001644 0.000000 -0.002017 0.000000
# 2 -0.002677 0.011127 -0.001644 0.000000 0.002017 0.000000
# 3 -0.001644 -0.001644 0.006512 0.000000 0.000000 0.000000
# 4 0.000000 0.000000 0.000000 0.024304 0.000000 0.004034
# 5 -0.002017 0.002017 0.000000 0.000000 0.024304 0.000000
# 6 0.000000 0.000000 0.000000 0.004034 0.000000 0.027608
#
#
# Mechanical properties :
#
#
# Convention : Reuss Voigt Hill
#
# Bulk Modulus (GPa) = 59.39885 62.81227 61.10556
# Shear Modulus (GPa) = 40.80731 43.02419 41.91575
#
# Velocity S-wave (km/s) = 4.30598 4.42140 4.36407
# Velocity P-wave (km/s) = 7.19102 7.38951 7.29094
#
# Compressibility (1/GPa) = 0.01683534
#
# Stress axis : x y z
#
# Youngs Moduli (GPa) = 89.87002 89.87002 153.55370
#
# Poissons Ratio (x) = 0.24058 0.25250
# Poissons Ratio (y) = 0.24058 0.25250
# Poissons Ratio (z) = 0.14778 0.14778
#
# Static dielectric constant tensor:
#      x y z
#    x 3.822160 0.000000 0.000000 
#    y 0.000000 3.822160 0.000000 
#    z 0.000000 0.000000 4.231600 
# 
# 
# High freq. dielectric constant tensor:
#      x y z
#    x 1.873450 0.000000 0.000000 
#    y 0.000000 1.873450 0.000000 
#    z 0.000000 0.000000 1.889460 
# 
# From -- ./inp_files/2438.got.cif
#   From: 2010.03.12/outbox.cif.g09.slc.cpg/sg163_2_cif.got.tgz:2438.got - 2010.04.02 06:30:25.
