data_PCOD8323242
_publ_section_title
;
Structure prediction by ZEFSAII (Michael W. Deem and Ramdas Pophale) SiO2 
 PCOD8323242
Probable space group: P -3 1 C
;
_chemical_formula_sum "Si O2"
_cell_formula_units_Z 84
_cell_length_a 16.908874
_cell_length_b 16.908874
_cell_length_c 17.636177
_cell_angle_alpha 90.000000
_cell_angle_beta 90.000000
_cell_angle_gamma 120.000000
_cell_volume 4366.811611
_symmetry_space_group_name_H-M "P -3 1 C"
_symmetry_group_IT_number 163
_symmetry_cell_setting 'hexagonal'
loop_
_space_group_symop_operation_xyz
x,y,z
-y,x-y,z
-x+y,-x,z
-y,-x,1/2-z
-x+y,y,1/2-z
x,x-y,1/2-z
-x,-y,-z
y,-x+y,-z
x-y,x,-z
y,x,1/2+z
x-y,-y,1/2+z
-x,-x+y,1/2+z
loop_
_atom_site_type_symbol
_atom_site_label
_atom_site_fract_x
_atom_site_fract_y
_atom_site_fract_z
Si Si1 0.842980 0.845237 0.710702
Si Si2 0.562081 0.622536 0.760925
Si Si3 0.266066 0.897937 0.213911
Si Si4 0.841486 0.012749 0.963878
Si Si5 0.146516 0.479764 0.606799
Si Si6 0.514421 0.667768 0.913387
Si Si7 0.324208 0.958159 0.049402
O O1 0.796716 0.898358 0.750000
O O2 0.781389 0.739300 0.727212
O O3 0.848389 0.863819 0.621431
O O4 0.941368 0.882735 0.750000
O O5 0.468633 0.531368 0.750000
O O6 0.639177 0.592802 0.758631
O O7 0.563032 0.686099 0.691756
O O8 0.573372 0.673347 0.840014
O O9 0.203336 0.796665 0.250000
O O10 0.289581 0.895769 0.125487
O O11 0.757225 0.028045 0.980405
O O12 0.829008 0.934298 0.020564
O O13 0.235353 0.479697 0.576161
O O14 0.172284 0.584805 0.600041
O O15 0.056744 0.414494 0.558207
O O16 0.554994 0.649224 0.988569
#
# Coordination Sequence:
#
# PCOD8323242 Si02
#       7
#    12  12  12  12  12  12  12
#     4  10  20  33  50  70  98 136 175 215 263 316
#     4   9  20  36  57  83 113 146 180 224 283 340
#     4   9  20  37  55  77 106 143 188 229 266 320
#     4  11  22  35  50  73 105 140 181 231 276 326
#     4  10  21  38  56  86 116 144 184 226 279 348
#     4  11  21  36  61  85 114 148 180 229 286 340
#     4  10  22  37  54  80 112 145 187 230 275 336
#
# _framework density 19.236003
#
# number of rings (size 3 to 8) (size 9 to 14) (size 15 to 20)
#    0.000    2.000    0.000    3.143    0.000    9.143 
#    0.000    1.429    0.000    0.286    0.000    0.000 
#    0.000    0.000    0.000    0.000    0.000    0.000 
#
# Total GULP energy -1041451.318016 kJ/mol
# GULP energy per Si atom -12398.229976 kJ/mol
# Density = 1.919222 g / cm^3
# Si number density = 19.236003 Si / 1000 Ang^3
#
#
#
# Elastic Constant Matrix: (Units=GPa)
#
#
# Indices 1 2 3 4 5 6 
#
# 1 60.3852 26.7129 33.9037 -0.0043 -11.3397 0.0000
# 2 26.7129 60.3852 33.9037 0.0043 11.3397 0.0000
# 3 33.9037 33.9037 97.8480 0.0000 0.0000 0.0000
# 4 -0.0043 0.0043 0.0000 73.7546 0.0000 11.3397
# 5 -11.3397 11.3397 0.0000 0.0000 73.7546 -0.0043
# 6 0.0000 0.0000 0.0000 11.3397 -0.0043 16.8361
#
#
#
# Elastic Compliance Matrix: (Units=1/GPa)
#
#
# Indices 1 2 3 4 5 6 
#
# 1 0.024426 -0.008703 -0.005448 0.000002 0.005093 0.000000
# 2 -0.008703 0.024426 -0.005448 -0.000002 -0.005093 0.000000
# 3 -0.005448 -0.005448 0.013995 0.000000 0.000000 0.000000
# 4 0.000002 -0.000002 0.000000 0.015125 0.000000 -0.010187
# 5 0.005093 -0.005093 0.000000 0.000000 0.015125 0.000004
# 6 0.000000 0.000000 0.000000 -0.010187 0.000004 0.066257
#
#
# Mechanical properties :
#
#
# Convention : Reuss Voigt Hill
#
# Bulk Modulus (GPa) = 42.28486 45.29544 43.79015
# Shear Modulus (GPa) = 24.22092 41.14229 32.68161
#
# Velocity S-wave (km/s) = 3.55229 4.62975 4.12634
# Velocity P-wave (km/s) = 6.23337 7.22342 6.74658
#
# Compressibility (1/GPa) = 0.02364913
#
# Stress axis : x y z
#
# Youngs Moduli (GPa) = 40.94075 40.94075 71.45344
#
# Poissons Ratio (x) = 0.35631 0.38926
# Poissons Ratio (y) = 0.35631 0.38926
# Poissons Ratio (z) = 0.22303 0.22303
#
# Static dielectric constant tensor:
#      x y z
#    x 3.498720 0.000000 0.000000 
#    y 0.000000 3.498720 0.000000 
#    z 0.000000 0.000000 3.639140 
# 
# 
# High freq. dielectric constant tensor:
#      x y z
#    x 1.745540 0.000000 0.000000 
#    y 0.000000 1.745540 0.000000 
#    z 0.000000 0.000000 1.752000 
# 
# From -- ./inp_files/2686.got.cif
#   From: 2010.03.12/outbox.cif.g09.slc.cpg/sg163_2_cif.got.tgz:2686.got - 2010.04.02 06:30:25.
