data_PCOD8323662
_publ_section_title
;
Structure prediction by ZEFSAII (Michael W. Deem and Ramdas Pophale) SiO2 
 PCOD8323662
Probable space group: P -3 M 1
;
_chemical_formula_sum "Si O2"
_cell_formula_units_Z 66
_cell_length_a 12.671125
_cell_length_b 12.671125
_cell_length_c 28.533964
_cell_angle_alpha 90.000000
_cell_angle_beta 90.000000
_cell_angle_gamma 120.000000
_cell_volume 3967.556236
_symmetry_space_group_name_H-M "P -3 M 1"
_symmetry_group_IT_number 164
_symmetry_cell_setting 'hexagonal'
loop_
_space_group_symop_operation_xyz
x,y,z
-y,x-y,z
-x+y,-x,z
x-y,-y,-z
-x,-x+y,-z
y,x,-z
-x,-y,-z
y,-x+y,-z
x-y,x,-z
-x+y,y,z
x,x-y,z
-y,-x,z
loop_
_atom_site_type_symbol
_atom_site_label
_atom_site_fract_x
_atom_site_fract_y
_atom_site_fract_z
Si Si1 0.753727 0.753727 0.000000
Si Si2 0.669024 0.580769 0.829881
Si Si3 0.579748 0.667407 0.913333
Si Si4 0.334425 0.913690 0.543262
Si Si5 0.087907 0.418756 0.373187
Si Si6 0.668306 0.571544 0.728362
O O1 0.671482 0.688983 0.955188
O O2 0.769873 0.884937 0.009452
O O3 0.789348 0.578696 0.846453
O O4 0.558141 0.441860 0.828811
O O5 0.642587 0.662535 0.865179
O O6 0.689717 0.643507 0.777776
O O7 0.547883 0.773942 0.909029
O O8 0.456897 0.543104 0.923657
O O9 0.438536 0.877071 0.543149
O O10 0.206205 0.793796 0.538437
O O11 0.350122 0.000000 0.500000
O O12 0.336208 0.980819 0.591246
O O13 0.211228 0.422455 0.389421
O O14 0.114617 0.557309 0.372968
O O15 0.045834 0.356498 0.321013
O O16 0.756981 0.513962 0.728296
O O17 0.530179 0.469822 0.728319
#
# Coordination Sequence:
#
# PCOD8323662 Si02
#       6
#     6  12  12  12  12  12
#     4  10  20  34  52  72  92 114 144 186 234 278
#     4   9  16  27  45  69  95 120 148 185 228 269
#     4  10  20  33  48  66  91 123 156 187 220 264
#     4  10  20  33  49  68  91 118 148 184 225 269
#     4   9  16  27  46  71  96 120 147 182 223 266
#     4   8  13  22  39  65  94 120 146 179 221 264
#
# _framework density 16.634924000000002
#
# number of rings (size 3 to 8) (size 9 to 14) (size 15 to 20)
#    0.000    2.727    0.000    2.364    0.000    2.909 
#    0.000    2.727    0.000    9.455    0.000    2.545 
#    0.000    0.000    0.000    0.000    0.000    0.000 
#
# Total GULP energy -817783.453355 kJ/mol
# GULP energy per Si atom -12390.658384 kJ/mol
# Density = 1.659706 g / cm^3
# Si number density = 16.634924 Si / 1000 Ang^3
#
#
#
# Elastic Constant Matrix: (Units=GPa)
#
#
# Indices 1 2 3 4 5 6 
#
# 1 82.3734 54.0886 62.2797 -1.3206 0.0000 0.0000
# 2 54.0886 82.3734 62.2797 1.3206 0.0000 0.0000
# 3 62.2797 62.2797 144.4351 0.0000 0.0000 0.0000
# 4 -1.3206 1.3206 0.0000 22.1986 0.0000 0.0000
# 5 0.0000 0.0000 0.0000 0.0000 22.1986 -1.3206
# 6 0.0000 0.0000 0.0000 0.0000 -1.3206 14.1424
#
#
#
# Elastic Compliance Matrix: (Units=1/GPa)
#
#
# Indices 1 2 3 4 5 6 
#
# 1 0.023818 -0.011734 -0.005211 0.002115 0.000000 0.000000
# 2 -0.011734 0.023818 -0.005211 -0.002115 0.000000 0.000000
# 3 -0.005211 -0.005211 0.011417 0.000000 0.000000 0.000000
# 4 0.002115 -0.002115 0.000000 0.045300 0.000000 0.000000
# 5 0.000000 0.000000 0.000000 0.000000 0.045300 0.004230
# 6 0.000000 0.000000 0.000000 0.000000 0.004230 0.071105
#
#
# Mechanical properties :
#
#
# Convention : Reuss Voigt Hill
#
# Bulk Modulus (GPa) = 67.82902 74.05310 70.94106
# Shear Modulus (GPa) = 18.51973 20.41016 19.46494
#
# Velocity S-wave (km/s) = 3.34024 3.50658 3.42442
# Velocity P-wave (km/s) = 7.46591 7.81077 7.64029
#
# Compressibility (1/GPa) = 0.01474295
#
# Stress axis : x y z
#
# Youngs Moduli (GPa) = 41.98462 41.98462 87.58759
#
# Poissons Ratio (x) = 0.49265 0.45639
# Poissons Ratio (y) = 0.49265 0.45639
# Poissons Ratio (z) = 0.21877 0.21877
#
# Static dielectric constant tensor:
#      x y z
#    x 2.877080 0.000000 0.000000 
#    y 0.000000 2.877080 0.000000 
#    z 0.000000 0.000000 3.663900 
# 
# 
# High freq. dielectric constant tensor:
#      x y z
#    x 1.616320 0.000000 0.000000 
#    y 0.000000 1.616320 0.000000 
#    z 0.000000 0.000000 1.667980 
# 
# From -- ./inp_files/5443.got.cif
#   From: 2010.03.12/outbox.cif.g09.slc.cpg/sg164_3_cif.got.tgz:5443.got - 2010.04.02 06:32:59.
