data_PCOD8323305
_publ_section_title
;
Structure prediction by ZEFSAII (Michael W. Deem and Ramdas Pophale) SiO2 
 PCOD8323305
Probable space group: P -3 1 C
;
_chemical_formula_sum "Si O2"
_cell_formula_units_Z 34
_cell_length_a 14.463971
_cell_length_b 14.463971
_cell_length_c 8.527489
_cell_angle_alpha 90.000000
_cell_angle_beta 90.000000
_cell_angle_gamma 120.000000
_cell_volume 1544.994310
_symmetry_space_group_name_H-M "P -3 1 C"
_symmetry_group_IT_number 163
_symmetry_cell_setting 'hexagonal'
loop_
_space_group_symop_operation_xyz
x,y,z
-y,x-y,z
-x+y,-x,z
-y,-x,1/2-z
-x+y,y,1/2-z
x,x-y,1/2-z
-x,-y,-z
y,-x+y,-z
x-y,x,-z
y,x,1/2+z
x-y,-y,1/2+z
-x,-x+y,1/2+z
loop_
_atom_site_type_symbol
_atom_site_label
_atom_site_fract_x
_atom_site_fract_y
_atom_site_fract_z
Si Si1 0.458685 0.132049 0.503510
Si Si2 0.499440 0.500560 0.750000
Si Si3 0.091549 0.861830 0.433378
Si Si4 0.333335 0.666667 0.564033
O O1 0.467573 0.073377 0.655465
O O2 0.347542 0.129666 0.503800
O O3 0.548950 0.255796 0.503195
O O4 0.471790 0.076074 0.350558
O O5 0.114874 0.885127 0.250000
O O6 0.966588 0.812187 0.461510
O O7 0.333334 0.666667 0.750000
#
# Coordination Sequence:
#
# PCOD8323305 Si02
#       4
#    12   6  12   4
#     4  11  26  46  72 106 144 196 241 310 369 443
#     4  10  24  46  72 102 144 190 250 294 368 444
#     4  12  28  49  78 111 151 200 256 314 376 445
#     4  12  27  43  68 106 153 187 245 310 375 442
#
# _framework density 22.006554999999999
#
# number of rings (size 3 to 8) (size 9 to 14) (size 15 to 20)
#    0.000    0.706    1.765    3.529   14.824    2.824 
#    0.000    0.000    0.000    0.000    0.000    0.000 
#    0.000    0.000    0.000    0.000    0.000    0.000 
#
# Total GULP energy -421883.746693 kJ/mol
# GULP energy per Si atom -12408.345491 kJ/mol
# Density = 2.195647 g / cm^3
# Si number density = 22.006555 Si / 1000 Ang^3
#
#
#
# Elastic Constant Matrix: (Units=GPa)
#
#
# Indices 1 2 3 4 5 6 
#
# 1 183.2215 82.6756 40.3828 -0.0009 -1.5171 -0.0002
# 2 82.6756 183.2218 40.3825 0.0002 1.5173 0.0006
# 3 40.3828 40.3825 95.4518 -0.0005 -0.0003 -0.0001
# 4 -0.0009 0.0002 -0.0005 10.5368 0.0029 1.5175
# 5 -1.5171 1.5173 -0.0003 0.0029 10.5337 0.0005
# 6 -0.0002 0.0006 -0.0001 1.5175 0.0005 50.2734
#
#
#
# Elastic Compliance Matrix: (Units=1/GPa)
#
#
# Indices 1 2 3 4 5 6 
#
# 1 0.007152 -0.002837 -0.001826 0.000000 0.001439 0.000000
# 2 -0.002837 0.007152 -0.001826 0.000000 -0.001439 0.000000
# 3 -0.001826 -0.001826 0.012021 0.000000 0.000000 0.000000
# 4 0.000000 0.000000 0.000000 0.095320 -0.000026 -0.002877
# 5 0.001439 -0.001439 0.000000 -0.000026 0.095348 0.000000
# 6 0.000000 0.000000 0.000000 -0.002877 0.000000 0.019978
#
#
# Mechanical properties :
#
#
# Convention : Reuss Voigt Hill
#
# Bulk Modulus (GPa) = 74.91055 87.64189 81.27622
# Shear Modulus (GPa) = 19.65425 34.16572 26.90998
#
# Velocity S-wave (km/s) = 2.99173 3.94448 3.50067
# Velocity P-wave (km/s) = 6.78587 7.78827 7.30428
#
# Compressibility (1/GPa) = 0.01334926
#
# Stress axis : x y z
#
# Youngs Moduli (GPa) = 139.81578 139.81615 83.18569
#
# Poissons Ratio (x) = 0.39664 0.15187
# Poissons Ratio (y) = 0.39664 0.15187
# Poissons Ratio (z) = 0.25527 0.25526
#
# Static dielectric constant tensor:
#      x y z
#    x 4.169540 -0.000010 0.000000 
#    y -0.000010 4.169530 0.000010 
#    z 0.000000 0.000010 3.703320 
# 
# 
# High freq. dielectric constant tensor:
#      x y z
#    x 1.882740 0.000000 0.000000 
#    y 0.000000 1.882730 0.000000 
#    z 0.000000 0.000000 1.879590 
# 
# From -- ./inp_files/702.got.cif
#   From: 2010.03.12/outbox.cif.g09.slc.cpg/sg163_1_cif.got.tgz:702.got - 2010.04.02 06:30:25.
