data_PCOD8323511
_publ_section_title
;
Structure prediction by ZEFSAII (Michael W. Deem and Ramdas Pophale) SiO2 
 PCOD8323511
Probable space group: P -3 M 1
;
_chemical_formula_sum "Si O2"
_cell_formula_units_Z 84
_cell_length_a 17.807279
_cell_length_b 17.807279
_cell_length_c 17.349466
_cell_angle_alpha 90.000000
_cell_angle_beta 90.000000
_cell_angle_gamma 120.000000
_cell_volume 4764.440089
_symmetry_space_group_name_H-M "P -3 M 1"
_symmetry_group_IT_number 164
_symmetry_cell_setting 'hexagonal'
loop_
_space_group_symop_operation_xyz
x,y,z
-y,x-y,z
-x+y,-x,z
x-y,-y,-z
-x,-x+y,-z
y,x,-z
-x,-y,-z
y,-x+y,-z
x-y,x,-z
-x+y,y,z
x,x-y,z
-y,-x,z
loop_
_atom_site_type_symbol
_atom_site_label
_atom_site_fract_x
_atom_site_fract_y
_atom_site_fract_z
Si Si1 0.263473 0.910242 0.538517
Si Si2 0.330719 0.499293 0.416001
Si Si3 0.493521 0.331352 0.157016
Si Si4 0.265184 0.359271 0.970285
Si Si5 0.166670 0.497576 0.101699
Si Si6 0.466019 0.101118 0.740658
Si Si7 0.627935 0.087067 0.315622
O O1 0.160305 0.839696 0.543099
O O2 0.313574 0.879165 0.484054
O O3 0.308092 0.918094 0.621474
O O4 0.277258 0.000000 0.500000
O O5 0.272029 0.544058 0.426352
O O6 0.431550 0.568451 0.419667
O O7 0.305714 0.446809 0.335369
O O8 0.518572 0.259286 0.131044
O O9 0.572705 0.427296 0.136283
O O10 0.404940 0.310805 0.111288
O O11 0.478617 0.320218 0.249861
O O12 0.160920 0.321839 0.966593
O O13 0.282999 0.282999 0.000000
O O14 0.310156 0.435202 0.031047
O O15 0.270517 0.541034 0.100437
O O16 0.138559 0.569280 0.095409
O O17 0.130757 0.441265 0.180567
O O18 0.569540 0.139080 0.742760
O O19 0.414255 0.998609 0.735668
O O20 0.550165 0.100330 0.352352
#
# Coordination Sequence:
#
# PCOD8323511 Si02
#       7
#    12  12  12  12  12  12  12
#     4  11  22  36  54  74  97 125 161 208 258 308
#     4  10  19  30  46  69  99 133 164 196 234 283
#     4  10  20  33  50  74 106 144 182 216 248 285
#     4  10  21  36  54  75 100 131 169 217 267 313
#     4  10  19  30  46  71 105 144 181 213 245 283
#     4   9  17  28  44  66  96 134 171 206 241 281
#     4  10  19  32  51  74 101 135 173 209 248 295
#
# _framework density 17.630613
#
# number of rings (size 3 to 8) (size 9 to 14) (size 15 to 20)
#    0.000    2.000    1.429    3.000    0.000    2.857 
#    0.000    2.857    0.000    4.857    0.000    0.000 
#    0.000    0.000    0.000    2.429    0.000    0.000 
#
# Total GULP energy -1040722.247152 kJ/mol
# GULP energy per Si atom -12389.550561 kJ/mol
# Density = 1.759048 g / cm^3
# Si number density = 17.630613 Si / 1000 Ang^3
#
#
#
# Elastic Constant Matrix: (Units=GPa)
#
#
# Indices 1 2 3 4 5 6 
#
# 1 56.3635 53.2587 20.9616 -3.2738 0.0000 0.0000
# 2 53.2587 56.3635 20.9616 3.2738 0.0000 0.0000
# 3 20.9616 20.9616 87.3038 0.0000 0.0000 0.0000
# 4 -3.2738 3.2738 0.0000 19.8653 0.0000 0.0000
# 5 0.0000 0.0000 0.0000 0.0000 19.8653 -3.2738
# 6 0.0000 0.0000 0.0000 0.0000 -3.2738 1.5524
#
#
#
# Elastic Compliance Matrix: (Units=1/GPa)
#
#
# Indices 1 2 3 4 5 6 
#
# 1 0.251841 -0.241796 -0.002412 0.081351 0.000000 0.000000
# 2 -0.241796 0.251841 -0.002412 -0.081351 0.000000 0.000000
# 3 -0.002412 -0.002412 0.012612 0.000000 0.000000 0.000000
# 4 0.081351 -0.081351 0.000000 0.077152 0.000000 0.000000
# 5 0.000000 0.000000 0.000000 0.000000 0.077152 0.162702
# 6 0.000000 0.000000 0.000000 0.000000 0.162702 0.987274
#
#
# Mechanical properties :
#
#
# Convention : Reuss Voigt Hill
#
# Bulk Modulus (GPa) = 43.37511 43.37716 43.37614
# Shear Modulus (GPa) = 2.31610 15.24653 8.78132
#
# Velocity S-wave (km/s) = 1.14740 2.94390 2.23417
# Velocity P-wave (km/s) = 5.13916 6.01765 5.59567
#
# Compressibility (1/GPa) = 0.02305469
#
# Stress axis : x y z
#
# Youngs Moduli (GPa) = 3.97076 3.97076 79.28737
#
# Poissons Ratio (x) = 0.96012 0.19122
# Poissons Ratio (y) = 0.96012 0.19122
# Poissons Ratio (z) = 0.00958 0.00958
#
# Static dielectric constant tensor:
#      x y z
#    x 3.255000 0.000000 0.000000 
#    y 0.000000 3.255000 0.000000 
#    z 0.000000 0.000000 3.648370 
# 
# 
# High freq. dielectric constant tensor:
#      x y z
#    x 1.653290 0.000000 0.000000 
#    y 0.000000 1.653290 0.000000 
#    z 0.000000 0.000000 1.703600 
# 
# From -- ./inp_files/3631.got.cif
#   From: 2010.03.12/outbox.cif.g09.slc.cpg/sg164_2_cif.got.tgz:3631.got - 2010.04.02 06:32:59.
