data_PCOD8323170
_publ_section_title
;
Structure prediction by ZEFSAII (Michael W. Deem and Ramdas Pophale) SiO2 
 PCOD8323170
Probable space group: P -3 1 M 
;
_chemical_formula_sum "Si O2"
_cell_formula_units_Z 84
_cell_length_a 15.543145
_cell_length_b 15.543145
_cell_length_c 22.955215
_cell_angle_alpha 90.000000
_cell_angle_beta 90.000000
_cell_angle_gamma 120.000000
_cell_volume 4802.747930
_symmetry_space_group_name_H-M "P -3 1 M "
_symmetry_group_IT_number 162
_symmetry_cell_setting 'hexagonal'
loop_
_space_group_symop_operation_xyz
x,y,z
-y,x-y,z
-x+y,-x,z
-y,-x,-z
-x+y,y,-z
x,x-y,-z
-x,-y,-z
y,-x+y,-z
x-y,x,-z
y,x,z
x-y,-y,z
-x,-x+y,z
loop_
_atom_site_type_symbol
_atom_site_label
_atom_site_fract_x
_atom_site_fract_y
_atom_site_fract_z
Si Si1 0.111700 0.888205 0.569366
Si Si2 0.880770 0.439778 0.377499
Si Si3 0.885522 0.302922 0.155244
Si Si4 0.558978 0.444564 0.753448
Si Si5 0.697528 0.583288 0.844275
Si Si6 0.885418 0.443863 0.936162
Si Si7 0.225771 0.777301 0.569085
O O1 0.110449 0.889552 0.500000
O O2 0.164977 0.829092 0.592229
O O3 0.000000 0.834257 0.594203
O O4 0.170344 0.000000 0.594112
O O5 0.840152 0.421355 0.311139
O O6 0.828451 0.333914 0.408000
O O7 0.844764 0.507310 0.409170
O O8 0.000000 0.490734 0.382253
O O9 0.871659 0.345035 0.216550
O O10 0.817041 0.183338 0.155146
O O11 0.843148 0.344217 0.104415
O O12 0.000000 0.332647 0.146058
O O13 0.524363 0.524363 0.748216
O O14 0.657171 0.499342 0.793483
O O15 0.668410 0.668410 0.834352
O O16 0.654160 0.527996 0.905544
O O17 0.000000 0.524263 0.943915
O O18 0.833244 0.416622 0.000000
O O19 0.226881 0.773119 0.500000
#
# Coordination Sequence:
#
# PCOD8323170 Si02
#       7
#    12  12  12  12  12  12  12
#     4   9  17  31  52  76  99 123 156 199 244 290
#     4  11  23  39  57  75 103 139 169 211 254 301
#     4   9  17  31  51  74 102 136 171 212 255 300
#     4   8  18  35  52  72  95 122 168 211 251 297
#     4   9  17  31  51  74 102 136 171 212 255 300
#     4   8  15  29  46  67 101 139 172 211 253 294
#     4  11  23  36  52  77 102 133 170 198 242 311
#
# _framework density 17.489986999999999
#
# number of rings (size 3 to 8) (size 9 to 14) (size 15 to 20)
#    0.000    2.714    0.000    3.429    2.000    3.429 
#    6.857    0.000    0.000    0.286    0.000    0.000 
#    0.000    0.000    0.000    7.143    0.000    0.000 
#
# Total GULP energy -1041104.261279 kJ/mol
# GULP energy per Si atom -12394.098349 kJ/mol
# Density = 1.745018 g / cm^3
# Si number density = 17.489987 Si / 1000 Ang^3
#
#
#
# Elastic Constant Matrix: (Units=GPa)
#
#
# Indices 1 2 3 4 5 6 
#
# 1 102.9374 43.7506 24.3857 0.0000 -0.8559 0.0000
# 2 43.7506 102.9374 24.3857 0.0000 0.8559 0.0000
# 3 24.3857 24.3857 99.2515 0.0000 0.0000 0.0000
# 4 0.0000 0.0000 0.0000 13.4442 0.0000 0.8559
# 5 -0.8559 0.8559 0.0000 0.0000 13.4442 0.0000
# 6 0.0000 0.0000 0.0000 0.8559 0.0000 29.5934
#
#
#
# Elastic Compliance Matrix: (Units=1/GPa)
#
#
# Indices 1 2 3 4 5 6 
#
# 1 0.012175 -0.004752 -0.001824 0.000000 0.001078 0.000000
# 2 -0.004752 0.012175 -0.001824 0.000000 -0.001078 0.000000
# 3 -0.001824 -0.001824 0.010972 0.000000 0.000000 0.000000
# 4 0.000000 0.000000 0.000000 0.074519 0.000000 -0.002155
# 5 0.001078 -0.001078 0.000000 0.000000 0.074519 0.000000
# 6 0.000000 0.000000 0.000000 -0.002155 0.000000 0.033854
#
#
# Mechanical properties :
#
#
# Convention : Reuss Voigt Hill
#
# Bulk Modulus (GPa) = 53.98658 54.46337 54.22497
# Shear Modulus (GPa) = 20.73086 25.47000 23.10043
#
# Velocity S-wave (km/s) = 3.44655 3.82024 3.63820
# Velocity P-wave (km/s) = 6.83904 7.11803 6.97993
#
# Compressibility (1/GPa) = 0.01852312
#
# Stress axis : x y z
#
# Youngs Moduli (GPa) = 82.13402 82.13402 91.14361
#
# Poissons Ratio (x) = 0.39027 0.16624
# Poissons Ratio (y) = 0.39027 0.16624
# Poissons Ratio (z) = 0.14981 0.14981
#
# Static dielectric constant tensor:
#      x y z
#    x 3.153310 0.000000 0.000000 
#    y 0.000000 3.153310 0.000000 
#    z 0.000000 0.000000 3.771000 
# 
# 
# High freq. dielectric constant tensor:
#      x y z
#    x 1.664260 0.000000 0.000000 
#    y 0.000000 1.664260 0.000000 
#    z 0.000000 0.000000 1.669120 
# 
# From -- ./inp_files/3960.got.cif
#   From: 2010.03.12/outbox.cif.g09.slc.cpg/sg162_2_cif.got.tgz:3960.got - 2010.04.02 06:27:41.
