data_PCOD8323830
_publ_section_title
;
Structure prediction by ZEFSAII (Michael W. Deem and Ramdas Pophale) SiO2 
 PCOD8323830
Probable space group: P -3 M 1
;
_chemical_formula_sum "Si O2"
_cell_formula_units_Z 84
_cell_length_a 16.682778
_cell_length_b 16.682778
_cell_length_c 25.569519
_cell_angle_alpha 90.000000
_cell_angle_beta 90.000000
_cell_angle_gamma 120.000000
_cell_volume 6162.968264
_symmetry_space_group_name_H-M "P -3 M 1"
_symmetry_group_IT_number 164
_symmetry_cell_setting 'hexagonal'
loop_
_space_group_symop_operation_xyz
x,y,z
-y,x-y,z
-x+y,-x,z
x-y,-y,-z
-x,-x+y,-z
y,x,-z
-x,-y,-z
y,-x+y,-z
x-y,x,-z
-x+y,y,z
x,x-y,z
-y,-x,z
loop_
_atom_site_type_symbol
_atom_site_label
_atom_site_fract_x
_atom_site_fract_y
_atom_site_fract_z
Si Si1 0.852492 0.518974 0.985070
Si Si2 0.521481 0.666717 0.713437
Si Si3 0.000185 0.816329 0.247882
Si Si4 0.726873 0.635027 0.183746
Si Si5 0.972518 0.393806 0.083268
Si Si6 0.186267 0.000067 0.559006
Si Si7 0.300506 0.244656 0.343533
O O1 0.764264 0.528528 0.973053
O O2 0.823250 0.411625 0.987182
O O3 0.924972 0.570189 0.938595
O O4 0.897268 0.567263 0.040160
O O5 0.499643 0.749822 0.707164
O O6 0.428846 0.571155 0.704079
O O7 0.562760 0.668840 0.770557
O O8 0.595973 0.673036 0.669903
O O9 0.096305 0.903696 0.231034
O O10 0.923829 0.847659 0.254560
O O11 0.970148 0.739729 0.203079
O O12 0.014495 0.775023 0.302261
O O13 0.808179 0.616358 0.165254
O O14 0.662332 0.623479 0.135439
O O15 0.958015 0.479008 0.097259
O O16 0.079998 0.920003 0.565957
O O17 0.253142 0.983484 0.597780
O O18 0.220311 0.000000 0.500000
O O19 0.192069 0.096035 0.573301
O O20 0.303647 0.151824 0.334672
#
# Coordination Sequence:
#
# PCOD8323830 Si02
#       7
#    12  12  12  12  12  12  12
#     4   9  17  28  42  58  75  95 119 147 178 214
#     4   9  16  26  40  56  73  94 120 150 184 222
#     4   9  16  25  37  53  74 101 129 153 176 206
#     4   9  17  27  39  56  77  98 120 149 183 215
#     4   9  17  28  41  57  75  96 120 145 179 221
#     4   9  15  22  34  53  77 104 131 156 181 212
#     4   8  15  25  35  51  74  98 123 150 183 217
#
# _framework density 13.629796000000001
#
# number of rings (size 3 to 8) (size 9 to 14) (size 15 to 20)
#    0.000    3.143    0.000    4.429    0.000    1.143 
#    0.000    1.429    0.000    5.000    0.000    0.000 
#    0.000    0.000    0.000   58.143    0.000    0.000 
#
# Total GULP energy -1041222.323515 kJ/mol
# GULP energy per Si atom -12395.503851 kJ/mol
# Density = 1.359877 g / cm^3
# Si number density = 13.629796 Si / 1000 Ang^3
#
#
#
# Elastic Constant Matrix: (Units=GPa)
#
#
# Indices 1 2 3 4 5 6 
#
# 1 77.3001 36.0600 40.3297 -0.3221 0.0000 0.0000
# 2 36.0600 77.3001 40.3297 0.3221 0.0000 0.0000
# 3 40.3297 40.3297 90.1665 0.0000 0.0000 0.0000
# 4 -0.3221 0.3221 0.0000 18.8219 0.0000 0.0000
# 5 0.0000 0.0000 0.0000 0.0000 18.8219 -0.3221
# 6 0.0000 0.0000 0.0000 0.0000 -0.3221 20.6200
#
#
#
# Elastic Compliance Matrix: (Units=1/GPa)
#
#
# Indices 1 2 3 4 5 6 
#
# 1 0.018597 -0.005658 -0.005788 0.000415 0.000000 0.000000
# 2 -0.005658 0.018597 -0.005788 -0.000415 0.000000 0.000000
# 3 -0.005788 -0.005788 0.016268 0.000000 0.000000 0.000000
# 4 0.000415 -0.000415 0.000000 0.053144 0.000000 0.000000
# 5 0.000000 0.000000 0.000000 0.000000 0.053144 0.000830
# 6 0.000000 0.000000 0.000000 0.000000 0.000830 0.048509
#
#
# Mechanical properties :
#
#
# Convention : Reuss Voigt Hill
#
# Bulk Modulus (GPa) = 52.64102 53.13398 52.88750
# Shear Modulus (GPa) = 20.07574 20.18927 20.13250
#
# Velocity S-wave (km/s) = 3.84204 3.85289 3.84747
# Velocity P-wave (km/s) = 7.64118 7.67211 7.65666
#
# Compressibility (1/GPa) = 0.01899659
#
# Stress axis : x y z
#
# Youngs Moduli (GPa) = 53.77176 53.77176 61.47057
#
# Poissons Ratio (x) = 0.30422 0.35577
# Poissons Ratio (y) = 0.30422 0.35577
# Poissons Ratio (z) = 0.31121 0.31121
#
# Static dielectric constant tensor:
#      x y z
#    x 2.549500 0.000000 0.000000 
#    y 0.000000 2.549500 0.000000 
#    z 0.000000 0.000000 2.677700 
# 
# 
# High freq. dielectric constant tensor:
#      x y z
#    x 1.504670 0.000000 0.000000 
#    y 0.000000 1.504670 0.000000 
#    z 0.000000 0.000000 1.516360 
# 
# From -- ./inp_files/5037.got.cif
#   From: 2010.03.12/outbox.cif.g09.slc.cpg/sg164_3_cif.got.tgz:5037.got - 2010.04.02 06:32:59.
