data_PCOD8323632
_publ_section_title
;
Structure prediction by ZEFSAII (Michael W. Deem and Ramdas Pophale) SiO2 
 PCOD8323632
Probable space group: P -3 M 1
;
_chemical_formula_sum "Si O2"
_cell_formula_units_Z 60
_cell_length_a 12.871278
_cell_length_b 12.871278
_cell_length_c 25.124521
_cell_angle_alpha 90.000000
_cell_angle_beta 90.000000
_cell_angle_gamma 120.000000
_cell_volume 3604.721886
_symmetry_space_group_name_H-M "P -3 M 1"
_symmetry_group_IT_number 164
_symmetry_cell_setting 'hexagonal'
loop_
_space_group_symop_operation_xyz
x,y,z
-y,x-y,z
-x+y,-x,z
x-y,-y,-z
-x,-x+y,-z
y,x,-z
-x,-y,-z
y,-x+y,-z
x-y,x,-z
-x+y,y,z
x,x-y,z
-y,-x,z
loop_
_atom_site_type_symbol
_atom_site_label
_atom_site_fract_x
_atom_site_fract_y
_atom_site_fract_z
Si Si1 0.332274 0.423330 0.348992
Si Si2 0.575810 0.909577 0.047785
Si Si3 0.238297 0.238488 0.137713
Si Si4 0.239070 0.238979 0.259399
Si Si5 0.761158 0.999967 0.560528
O O1 0.229270 0.458540 0.348032
O O2 0.458538 0.541463 0.349759
O O3 0.326546 0.349444 0.296439
O O4 0.323203 0.348636 0.401603
O O5 0.441425 0.882849 0.055263
O O6 0.571772 0.785886 0.034980
O O7 0.647426 0.970244 0.101756
O O8 0.643409 0.000000 0.000000
O O9 0.099176 0.198352 0.129693
O O10 0.278260 0.276795 0.198495
O O11 0.254178 0.127089 0.120761
O O12 0.250355 0.125178 0.275801
O O13 0.101841 0.203682 0.268892
O O14 0.746924 0.873462 0.576751
O O15 0.720077 0.000000 0.500000
O O16 0.900008 0.099993 0.568204
#
# Coordination Sequence:
#
# PCOD8323632 Si02
#       5
#    12  12  12  12  12
#     4  10  20  32  46  65  92 127 163 195 226 265
#     4  10  20  33  49  69  94 125 160 196 232 271
#     4   9  17  30  49  73  98 121 147 184 233 285
#     4   9  17  30  50  74  96 118 147 188 237 283
#     4   9  17  30  50  75  98 118 144 185 237 285
#
# _framework density 16.644833999999999
#
# number of rings (size 3 to 8) (size 9 to 14) (size 15 to 20)
#    0.000    2.600    0.000    2.200    0.000    3.600 
#    0.000    2.000    0.000    9.200    0.000    0.000 
#    0.000    0.000    0.000    0.000    0.000    0.000 
#
# Total GULP energy -744100.823872 kJ/mol
# GULP energy per Si atom -12401.680398 kJ/mol
# Density = 1.660695 g / cm^3
# Si number density = 16.644834 Si / 1000 Ang^3
#
#
#
# Elastic Constant Matrix: (Units=GPa)
#
#
# Indices 1 2 3 4 5 6 
#
# 1 120.5090 73.2097 70.1196 0.0806 0.0000 0.0000
# 2 73.2097 120.5090 70.1196 -0.0806 0.0000 0.0000
# 3 70.1196 70.1196 111.3535 0.0000 0.0000 0.0000
# 4 0.0806 -0.0806 0.0000 24.5569 0.0000 0.0000
# 5 0.0000 0.0000 0.0000 0.0000 24.5569 0.0806
# 6 0.0000 0.0000 0.0000 0.0000 0.0806 23.6497
#
#
#
# Elastic Compliance Matrix: (Units=1/GPa)
#
#
# Indices 1 2 3 4 5 6 
#
# 1 0.015314 -0.005828 -0.005974 -0.000069 0.000000 0.000000
# 2 -0.005828 0.015314 -0.005974 0.000069 0.000000 0.000000
# 3 -0.005974 -0.005974 0.016504 0.000000 0.000000 0.000000
# 4 -0.000069 0.000069 0.000000 0.040722 0.000000 0.000000
# 5 0.000000 0.000000 0.000000 0.000000 0.040722 -0.000139
# 6 0.000000 0.000000 0.000000 0.000000 -0.000139 0.042284
#
#
# Mechanical properties :
#
#
# Convention : Reuss Voigt Hill
#
# Bulk Modulus (GPa) = 86.34036 86.58548 86.46292
# Shear Modulus (GPa) = 23.77859 23.81420 23.79640
#
# Velocity S-wave (km/s) = 3.78377 3.78660 3.78518
# Velocity P-wave (km/s) = 8.43054 8.44098 8.43576
#
# Compressibility (1/GPa) = 0.01158207
#
# Stress axis : x y z
#
# Youngs Moduli (GPa) = 65.29767 65.29767 60.59166
#
# Poissons Ratio (x) = 0.38053 0.36197
# Poissons Ratio (y) = 0.38053 0.36197
# Poissons Ratio (z) = 0.39008 0.39008
#
# Static dielectric constant tensor:
#      x y z
#    x 2.983880 0.000000 0.000000 
#    y 0.000000 2.983880 0.000000 
#    z 0.000000 0.000000 3.416840 
# 
# 
# High freq. dielectric constant tensor:
#      x y z
#    x 1.630960 0.000000 0.000000 
#    y 0.000000 1.630960 0.000000 
#    z 0.000000 0.000000 1.655850 
# 
# From -- ./inp_files/5184.got.cif
#   From: 2010.03.12/outbox.cif.g09.slc.cpg/sg164_3_cif.got.tgz:5184.got - 2010.04.02 06:32:59.
