data_PCOD8323914
_publ_section_title
;
Structure prediction by ZEFSAII (Michael W. Deem and Ramdas Pophale) SiO2 
 PCOD8323914
Probable space group: P -3 C 1
;
_chemical_formula_sum "Si O2"
_cell_formula_units_Z 90
_cell_length_a 19.512693
_cell_length_b 19.512693
_cell_length_c 14.607782
_cell_angle_alpha 90.000000
_cell_angle_beta 90.000000
_cell_angle_gamma 120.000000
_cell_volume 4816.697075
_symmetry_space_group_name_H-M "P -3 C 1"
_symmetry_group_IT_number 165
_symmetry_cell_setting 'hexagonal'
loop_
_space_group_symop_operation_xyz
x,y,z
-y,x-y,z
-x+y,-x,z
x-y,-y,1/2-z
-x,-x+y,1/2-z
y,x,1/2-z
-x,-y,-z
y,-x+y,-z
x-y,x,-z
-x+y,y,1/2+z
x,x-y,1/2+z
-y,-x,1/2+z
loop_
_atom_site_type_symbol
_atom_site_label
_atom_site_fract_x
_atom_site_fract_y
_atom_site_fract_z
Si Si1 0.376556 0.891510 0.829689
Si Si2 0.092501 0.538526 0.503372
Si Si3 0.883604 0.395468 0.302012
Si Si4 0.113267 0.717589 0.943395
Si Si5 0.286651 0.960766 0.159988
Si Si6 0.199508 0.856199 0.633744
Si Si7 0.316021 0.316021 0.250000
Si Si8 0.226495 0.471152 0.275650
O O1 0.457636 0.925981 0.770076
O O2 0.338714 0.948037 0.816939
O O3 0.317352 0.800441 0.804115
O O4 0.388512 0.880081 0.935443
O O5 0.127944 0.570520 0.603248
O O6 0.120259 0.478212 0.471590
O O7 0.000000 0.500000 0.500000
O O8 0.928902 0.346395 0.312946
O O9 0.799476 0.333613 0.255685
O O10 0.170465 0.758383 0.856405
O O11 0.023783 0.694839 0.920358
O O12 0.136812 0.776091 0.028434
O O13 0.196598 0.896283 0.131734
O O14 0.274376 0.000000 0.250000
O O15 0.239771 0.942100 0.686388
O O16 0.226582 0.802718 0.686362
#
# Coordination Sequence:
#
# PCOD8323914 Si02
#       8
#    12  12  12  12  12  12   6  12
#     4  11  22  38  57  86 118 163 206 257 310 355
#     4  12  22  32  61  90 109 151 210 259 307 366
#     4  11  22  39  58  85 120 159 215 258 312 360
#     4  12  22  39  61  91 118 157 209 253 320 378
#     4  11  21  40  65  88 122 165 199 253 312 374
#     4  10  23  38  62  90 126 160 192 250 319 366
#     4  10  22  38  56  90 132 150 190 260 308 360
#     4  10  23  40  56  80 125 166 204 266 312 363
#
# _framework density 18.685002999999998
#
# number of rings (size 3 to 8) (size 9 to 14) (size 15 to 20)
#    0.000    1.067    5.333    3.200    4.667    1.067 
#    0.800    0.000    0.000    0.000    0.000    0.000 
#    0.667    1.067    0.000    0.000    0.000    0.000 
#
# Total GULP energy -1115154.862807 kJ/mol
# GULP energy per Si atom -12390.609587 kJ/mol
# Density = 1.864247 g / cm^3
# Si number density = 18.685003 Si / 1000 Ang^3
#
#
#
# Elastic Constant Matrix: (Units=GPa)
#
#
# Indices 1 2 3 4 5 6 
#
# 1 79.8937 33.6517 27.7887 -2.7106 0.0000 0.0000
# 2 33.6517 79.8937 27.7887 2.7106 0.0000 0.0000
# 3 27.7887 27.7887 101.2553 0.0000 0.0000 0.0000
# 4 -2.7106 2.7106 0.0000 31.7548 0.0000 0.0000
# 5 0.0000 0.0000 0.0000 0.0000 31.7548 -2.7106
# 6 0.0000 0.0000 0.0000 0.0000 -2.7106 23.1210
#
#
#
# Elastic Compliance Matrix: (Units=1/GPa)
#
#
# Indices 1 2 3 4 5 6 
#
# 1 0.016009 -0.005835 -0.002792 0.001865 0.000000 0.000000
# 2 -0.005835 0.016009 -0.002792 -0.001865 0.000000 0.000000
# 3 -0.002792 -0.002792 0.011409 0.000000 0.000000 0.000000
# 4 0.001865 -0.001865 0.000000 0.031810 0.000000 0.000000
# 5 0.000000 0.000000 0.000000 0.000000 0.031810 0.003729
# 6 0.000000 0.000000 0.000000 0.000000 0.003729 0.043688
#
#
# Mechanical properties :
#
#
# Convention : Reuss Voigt Hill
#
# Bulk Modulus (GPa) = 48.57293 48.83344 48.70319
# Shear Modulus (GPa) = 27.71089 28.78037 28.24563
#
# Velocity S-wave (km/s) = 3.85522 3.92891 3.89224
# Velocity P-wave (km/s) = 6.77267 6.83913 6.80598
#
# Compressibility (1/GPa) = 0.02058760
#
# Stress axis : x y z
#
# Youngs Moduli (GPa) = 62.46551 62.46551 87.65345
#
# Poissons Ratio (x) = 0.36449 0.24474
# Poissons Ratio (y) = 0.36449 0.24474
# Poissons Ratio (z) = 0.17441 0.17441
#
# Static dielectric constant tensor:
#      x y z
#    x 3.604880 0.000000 0.000000 
#    y 0.000000 3.604880 0.000000 
#    z 0.000000 0.000000 3.746150 
# 
# 
# High freq. dielectric constant tensor:
#      x y z
#    x 1.703210 0.000000 0.000000 
#    y 0.000000 1.703210 0.000000 
#    z 0.000000 0.000000 1.746000 
# 
# From -- ./inp_files/1905.got.cif
#   From: 2010.03.12/outbox.cif.g09.slc.cpg/sg165_1_cif.got.tgz:1905.got - 2010.04.02 06:36:38.
