data_PCOD8323959
_publ_section_title
;
Structure prediction by ZEFSAII (Michael W. Deem and Ramdas Pophale) SiO2 
 PCOD8323959
Probable space group: P -3 C 1
;
_chemical_formula_sum "Si O2"
_cell_formula_units_Z 60
_cell_length_a 14.153841
_cell_length_b 14.153841
_cell_length_c 14.393667
_cell_angle_alpha 90.000000
_cell_angle_beta 90.000000
_cell_angle_gamma 120.000000
_cell_volume 2497.184944
_symmetry_space_group_name_H-M "P -3 C 1"
_symmetry_group_IT_number 165
_symmetry_cell_setting 'hexagonal'
loop_
_space_group_symop_operation_xyz
x,y,z
-y,x-y,z
-x+y,-x,z
x-y,-y,1/2-z
-x,-x+y,1/2-z
y,x,1/2-z
-x,-y,-z
y,-x+y,-z
x-y,x,-z
-x+y,y,1/2+z
x,x-y,1/2+z
-y,-x,1/2+z
loop_
_atom_site_type_symbol
_atom_site_label
_atom_site_fract_x
_atom_site_fract_y
_atom_site_fract_z
Si Si1 0.610205 0.117092 0.133561
Si Si2 0.880314 0.756179 0.234590
Si Si3 0.873815 0.551134 0.328603
Si Si4 0.853065 0.767063 0.028691
Si Si5 0.182001 0.711659 0.979587
O O1 0.628560 0.159439 0.240380
O O2 0.706282 0.199773 0.066068
O O3 0.504242 0.115290 0.090651
O O4 0.596968 0.998371 0.137857
O O5 0.786581 0.786581 0.250000
O O6 0.858732 0.652815 0.296220
O O7 0.879091 0.729451 0.126112
O O8 0.000000 0.859938 0.250000
O O9 0.797204 0.479898 0.415356
O O10 0.755971 0.655212 0.989027
O O11 0.815676 0.857066 0.038608
#
# Coordination Sequence:
#
# PCOD8323959 Si02
#       5
#    12  12  12  12  12
#     4  11  25  47  72 105 148 195 249 320 380 441
#     4  12  22  41  67 105 149 201 244 308 374 452
#     4  11  24  48  72 100 157 190 243 322 375 442
#     4  12  25  44  73 111 157 205 258 312 386 466
#     4  12  24  45  74 105 141 201 257 312 384 460
#
# _framework density 24.027055000000001
#
# number of rings (size 3 to 8) (size 9 to 14) (size 15 to 20)
#    0.000    0.400    4.000    6.200    0.000    1.600 
#    3.600    0.000    0.000    0.000    0.000    0.000 
#    0.000    0.000    0.000    0.000    0.000    0.000 
#
# Total GULP energy -743614.882782 kJ/mol
# GULP energy per Si atom -12393.581380 kJ/mol
# Density = 2.397237 g / cm^3
# Si number density = 24.027055 Si / 1000 Ang^3
#
#
#
# Elastic Constant Matrix: (Units=GPa)
#
#
# Indices 1 2 3 4 5 6 
#
# 1 98.5146 45.8729 45.0728 -5.7553 0.0000 0.0000
# 2 45.8729 98.5146 45.0728 5.7553 0.0000 0.0000
# 3 45.0728 45.0728 209.6131 0.0000 0.0000 0.0000
# 4 -5.7553 5.7553 0.0000 36.5484 0.0000 0.0000
# 5 0.0000 0.0000 0.0000 0.0000 36.5484 -5.7553
# 6 0.0000 0.0000 0.0000 0.0000 -5.7553 26.3209
#
#
#
# Elastic Compliance Matrix: (Units=1/GPa)
#
#
# Indices 1 2 3 4 5 6 
#
# 1 0.013837 -0.005837 -0.001720 0.003098 0.000000 0.000000
# 2 -0.005837 0.013837 -0.001720 -0.003098 0.000000 0.000000
# 3 -0.001720 -0.001720 0.005510 0.000000 0.000000 0.000000
# 4 0.003098 -0.003098 0.000000 0.028337 0.000000 0.000000
# 5 0.000000 0.000000 0.000000 0.000000 0.028337 0.006196
# 6 0.000000 0.000000 0.000000 0.000000 0.006196 0.039347
#
#
# Mechanical properties :
#
#
# Convention : Reuss Voigt Hill
#
# Bulk Modulus (GPa) = 68.35601 75.40880 71.88240
# Shear Modulus (GPa) = 32.75767 37.92511 35.34139
#
# Velocity S-wave (km/s) = 3.69638 3.97726 3.83939
# Velocity P-wave (km/s) = 6.83586 7.24876 7.04534
#
# Compressibility (1/GPa) = 0.01462929
#
# Stress axis : x y z
#
# Youngs Moduli (GPa) = 72.27129 72.27129 181.47276
#
# Poissons Ratio (x) = 0.42185 0.31217
# Poissons Ratio (y) = 0.42185 0.31217
# Poissons Ratio (z) = 0.12432 0.12432
#
# Static dielectric constant tensor:
#      x y z
#    x 4.198200 0.000000 0.000000 
#    y 0.000000 4.198200 0.000000 
#    z 0.000000 0.000000 5.118850 
# 
# 
# High freq. dielectric constant tensor:
#      x y z
#    x 1.939380 0.000000 0.000000 
#    y 0.000000 1.939380 0.000000 
#    z 0.000000 0.000000 1.987310 
# 
# From -- ./inp_files/1674.got.cif
#   From: 2010.03.12/outbox.cif.g09.slc.cpg/sg165_1_cif.got.tgz:1674.got - 2010.04.02 06:36:38.
