data_PCOD8323659
_publ_section_title
;
Structure prediction by ZEFSAII (Michael W. Deem and Ramdas Pophale) SiO2 
 PCOD8323659
Probable space group: P -3 M 1
;
_chemical_formula_sum "Si O2"
_cell_formula_units_Z 72
_cell_length_a 12.482634
_cell_length_b 12.482634
_cell_length_c 30.962189
_cell_angle_alpha 90.000000
_cell_angle_beta 90.000000
_cell_angle_gamma 120.000000
_cell_volume 4178.060869
_symmetry_space_group_name_H-M "P -3 M 1"
_symmetry_group_IT_number 164
_symmetry_cell_setting 'hexagonal'
loop_
_space_group_symop_operation_xyz
x,y,z
-y,x-y,z
-x+y,-x,z
x-y,-y,-z
-x,-x+y,-z
y,x,-z
-x,-y,-z
y,-x+y,-z
x-y,x,-z
-x+y,y,z
x,x-y,z
-y,-x,z
loop_
_atom_site_type_symbol
_atom_site_label
_atom_site_fract_x
_atom_site_fract_y
_atom_site_fract_z
Si Si1 0.416477 0.083263 0.163511
Si Si2 0.747538 0.748624 0.406673
Si Si3 0.584191 0.917837 0.081623
Si Si4 0.084857 0.417237 0.327003
Si Si5 0.000000 0.753600 0.500000
Si Si6 0.251495 0.251495 0.000000
Si Si7 0.750289 0.750648 0.245080
O O1 0.555035 0.110069 0.167338
O O2 0.421458 0.210729 0.153389
O O3 0.346973 0.022833 0.207813
O O4 0.341971 0.989583 0.125283
O O5 0.783777 0.891889 0.401606
O O6 0.644530 0.663880 0.372128
O O7 0.683823 0.696050 0.454383
O O8 0.869603 0.739206 0.398809
O O9 0.452733 0.905465 0.073761
O O10 0.564172 0.782086 0.085220
O O11 0.670882 0.993407 0.041929
O O12 0.228839 0.457678 0.327764
O O13 0.073140 0.536570 0.318571
O O14 0.012831 0.318870 0.289706
O O15 0.886933 0.773865 0.491815
O O16 0.235223 0.117612 0.004644
O O17 0.889252 0.778503 0.249543
O O18 0.754900 0.877450 0.233366
#
# Coordination Sequence:
#
# PCOD8323659 Si02
#       7
#    12  12  12  12   6   6  12
#     4  10  20  34  52  74 101 133 167 200 234 277
#     4   9  16  27  46  71  97 122 150 189 237 286
#     4  10  20  34  52  74 100 130 165 205 248 291
#     4  10  20  33  48  66  90 122 159 196 232 273
#     4   8  13  22  39  66  96 122 148 182 230 284
#     4  10  20  34  52  74 100 130 164 202 246 296
#     4  10  20  34  53  76 100 124 152 191 239 288
#
# _framework density 17.232873999999999
#
# number of rings (size 3 to 8) (size 9 to 14) (size 15 to 20)
#    0.000    2.333    0.000    3.250    0.000    1.333 
#    0.000    2.083    0.000   19.667    0.000    0.000 
#    0.000    0.000    0.000    0.000    0.000    0.000 
#
# Total GULP energy -892644.350959 kJ/mol
# GULP energy per Si atom -12397.838208 kJ/mol
# Density = 1.719365 g / cm^3
# Si number density = 17.232874 Si / 1000 Ang^3
#
#
#
# Elastic Constant Matrix: (Units=GPa)
#
#
# Indices 1 2 3 4 5 6 
#
# 1 56.8347 25.2426 35.2526 4.7351 0.0000 0.0000
# 2 25.2426 56.8347 35.2526 -4.7351 0.0000 0.0000
# 3 35.2526 35.2526 109.3368 0.0000 0.0000 0.0000
# 4 4.7351 -4.7351 0.0000 24.8093 0.0000 0.0000
# 5 0.0000 0.0000 0.0000 0.0000 24.8093 4.7351
# 6 0.0000 0.0000 0.0000 0.0000 4.7351 15.7961
#
#
#
# Elastic Compliance Matrix: (Units=1/GPa)
#
#
# Indices 1 2 3 4 5 6 
#
# 1 0.025212 -0.008362 -0.005433 -0.006408 0.000000 0.000000
# 2 -0.008362 0.025212 -0.005433 0.006408 0.000000 0.000000
# 3 -0.005433 -0.005433 0.012649 0.000000 0.000000 0.000000
# 4 -0.006408 0.006408 0.000000 0.042754 0.000000 0.000000
# 5 0.000000 0.000000 0.000000 0.000000 0.042754 -0.012816
# 6 0.000000 0.000000 0.000000 0.000000 -0.012816 0.067149
#
#
# Mechanical properties :
#
#
# Convention : Reuss Voigt Hill
#
# Bulk Modulus (GPa) = 40.61948 46.05573 43.33760
# Shear Modulus (GPa) = 19.05543 21.56683 20.31113
#
# Velocity S-wave (km/s) = 3.32891 3.54148 3.43684
# Velocity P-wave (km/s) = 6.19658 6.59593 6.39937
#
# Compressibility (1/GPa) = 0.02461873
#
# Stress axis : x y z
#
# Youngs Moduli (GPa) = 39.66287 39.66287 79.05451
#
# Poissons Ratio (x) = 0.33166 0.42950
# Poissons Ratio (y) = 0.33166 0.42950
# Poissons Ratio (z) = 0.21549 0.21549
#
# Static dielectric constant tensor:
#      x y z
#    x 3.093100 0.000000 0.000000 
#    y 0.000000 3.093100 0.000000 
#    z 0.000000 0.000000 3.457590 
# 
# 
# High freq. dielectric constant tensor:
#      x y z
#    x 1.658810 0.000000 0.000000 
#    y 0.000000 1.658810 0.000000 
#    z 0.000000 0.000000 1.688340 
# 
# From -- ./inp_files/5580.got.cif
#   From: 2010.03.12/outbox.cif.g09.slc.cpg/sg164_3_cif.got.tgz:5580.got - 2010.04.02 06:32:59.
