data_PCOD8323364
_publ_section_title
;
Structure prediction by ZEFSAII (Michael W. Deem and Ramdas Pophale) SiO2 
 PCOD8323364
Probable space group: P -3 M 1
;
_chemical_formula_sum "Si O2"
_cell_formula_units_Z 66
_cell_length_a 16.194940
_cell_length_b 16.194940
_cell_length_c 17.456540
_cell_angle_alpha 90.000000
_cell_angle_beta 90.000000
_cell_angle_gamma 120.000000
_cell_volume 3965.039209
_symmetry_space_group_name_H-M "P -3 M 1"
_symmetry_group_IT_number 164
_symmetry_cell_setting 'hexagonal'
loop_
_space_group_symop_operation_xyz
x,y,z
-y,x-y,z
-x+y,-x,z
x-y,-y,-z
-x,-x+y,-z
y,x,-z
-x,-y,-z
y,-x+y,-z
x-y,x,-z
-x+y,y,z
x,x-y,z
-y,-x,z
loop_
_atom_site_type_symbol
_atom_site_label
_atom_site_fract_x
_atom_site_fract_y
_atom_site_fract_z
Si Si1 0.046186 0.287431 0.845178
Si Si2 0.856422 0.523967 0.536515
Si Si3 0.195184 0.000000 0.000000
Si Si4 0.336170 0.859751 0.767069
Si Si5 0.810607 0.998973 0.307648
Si Si6 0.624314 0.665399 0.615512
O O1 0.140556 0.281112 0.847049
O O2 0.074623 0.396854 0.829784
O O3 0.981683 0.221075 0.775655
O O4 0.991805 0.250563 0.925841
O O5 0.760815 0.521630 0.564301
O O6 0.834213 0.417107 0.523051
O O7 0.892185 0.582077 0.457958
O O8 0.936838 0.574279 0.601568
O O9 0.182149 0.091075 0.004289
O O10 0.423963 0.847925 0.794665
O O11 0.242962 0.757039 0.759791
O O12 0.358827 0.910456 0.684965
O O13 0.921083 0.078918 0.303224
O O14 0.757868 0.031714 0.367747
O O15 0.802318 0.901159 0.336134
#
# Coordination Sequence:
#
# PCOD8323364 Si02
#       6
#    12  12   6  12  12  12
#     4   8  17  29  43  64  94 121 146 182 227 265
#     4  11  21  34  50  69  89 115 148 187 228 275
#     4  10  17  28  45  68  94 124 156 188 221 264
#     4  10  18  31  49  70  91 117 151 190 228 270
#     4  10  18  30  46  67  92 123 157 189 220 263
#     4  10  20  33  48  67  93 121 147 182 234 279
#
# _framework density 16.645485000000001
#
# number of rings (size 3 to 8) (size 9 to 14) (size 15 to 20)
#    0.000    2.182    0.000    6.636    0.000    0.000 
#    0.000    4.091    0.000    0.000    0.000    6.364 
#    0.000    0.000    0.000   14.545    0.000    0.000 
#
# Total GULP energy -818382.696014 kJ/mol
# GULP energy per Si atom -12399.737818 kJ/mol
# Density = 1.660760 g / cm^3
# Si number density = 16.645485 Si / 1000 Ang^3
#
#
#
# Elastic Constant Matrix: (Units=GPa)
#
#
# Indices 1 2 3 4 5 6 
#
# 1 93.8599 41.8144 28.9123 -0.3566 0.0000 0.0000
# 2 41.8144 93.8599 28.9123 0.3566 0.0000 0.0000
# 3 28.9123 28.9123 63.7597 0.0000 0.0000 0.0000
# 4 -0.3566 0.3566 0.0000 16.3282 0.0000 0.0000
# 5 0.0000 0.0000 0.0000 0.0000 16.3282 -0.3566
# 6 0.0000 0.0000 0.0000 0.0000 -0.3566 26.0228
#
#
#
# Elastic Compliance Matrix: (Units=1/GPa)
#
#
# Indices 1 2 3 4 5 6 
#
# 1 0.014178 -0.005042 -0.004143 0.000420 0.000000 0.000000
# 2 -0.005042 0.014178 -0.004143 -0.000420 0.000000 0.000000
# 3 -0.004143 -0.004143 0.019441 0.000000 0.000000 0.000000
# 4 0.000420 -0.000420 0.000000 0.061262 0.000000 0.000000
# 5 0.000000 0.000000 0.000000 0.000000 0.061262 0.000840
# 6 0.000000 0.000000 0.000000 0.000000 0.000840 0.038439
#
#
# Mechanical properties :
#
#
# Convention : Reuss Voigt Hill
#
# Bulk Modulus (GPa) = 47.29903 50.08418 48.69160
# Shear Modulus (GPa) = 20.62170 21.85855 21.24013
#
# Velocity S-wave (km/s) = 3.52359 3.62772 3.57603
# Velocity P-wave (km/s) = 6.71055 6.90660 6.80928
#
# Compressibility (1/GPa) = 0.02114208
#
# Stress axis : x y z
#
# Youngs Moduli (GPa) = 70.53180 70.53180 51.43726
#
# Poissons Ratio (x) = 0.35560 0.21310
# Poissons Ratio (y) = 0.35560 0.21310
# Poissons Ratio (z) = 0.29221 0.29221
#
# Static dielectric constant tensor:
#      x y z
#    x 3.099860 0.000000 0.000000 
#    y 0.000000 3.099860 0.000000 
#    z 0.000000 0.000000 3.240920 
# 
# 
# High freq. dielectric constant tensor:
#      x y z
#    x 1.639240 0.000000 0.000000 
#    y 0.000000 1.639240 0.000000 
#    z 0.000000 0.000000 1.625250 
# 
# From -- ./inp_files/4005.got.cif
#   From: 2010.03.12/outbox.cif.g09.slc.cpg/sg164_3_cif.got.tgz:4005.got - 2010.04.02 06:32:59.
