data_PCOD8323740
_publ_section_title
;
Structure prediction by ZEFSAII (Michael W. Deem and Ramdas Pophale) SiO2 
 PCOD8323740
Probable space group: P -3 M 1
;
_chemical_formula_sum "Si O2"
_cell_formula_units_Z 96
_cell_length_a 22.550870
_cell_length_b 22.550870
_cell_length_c 12.628364
_cell_angle_alpha 90.000000
_cell_angle_beta 90.000000
_cell_angle_gamma 120.000000
_cell_volume 5561.658595
_symmetry_space_group_name_H-M "P -3 M 1"
_symmetry_group_IT_number 164
_symmetry_cell_setting 'hexagonal'
loop_
_space_group_symop_operation_xyz
x,y,z
-y,x-y,z
-x+y,-x,z
x-y,-y,-z
-x,-x+y,-z
y,x,-z
-x,-y,-z
y,-x+y,-z
x-y,x,-z
-x+y,y,z
x,x-y,z
-y,-x,z
loop_
_atom_site_type_symbol
_atom_site_label
_atom_site_fract_x
_atom_site_fract_y
_atom_site_fract_z
Si Si1 0.921857 0.709689 0.269009
Si Si2 0.563877 0.850052 0.813272
Si Si3 0.610030 0.530409 1.000000
Si Si4 0.469926 0.803028 0.619521
Si Si5 0.787834 0.078143 0.730993
Si Si6 0.850052 0.563879 0.813273
Si Si7 0.073934 0.275854 0.500000
Si Si8 0.469926 0.666898 0.380477
O O1 0.869361 0.738721 0.251064
O O2 0.900663 0.645257 0.193591
O O3 0.914698 0.681726 0.391008
O O4 1.000000 0.768591 0.243420
O O5 0.547831 0.773916 0.846348
O O6 0.530826 0.848663 0.699897
O O7 0.534840 0.881001 0.898001
O O8 0.543067 0.456934 0.999998
O O9 0.653840 0.534841 0.898001
O O10 0.589804 0.589804 0.000000
O O11 0.405393 0.810786 0.649820
O O12 0.446934 0.723467 0.629830
O O13 0.495528 0.829331 0.499999
O O14 0.869363 0.130638 0.748939
O O15 0.744596 0.099338 0.806409
O O16 0.767030 0.085304 0.608994
O O17 0.773916 0.547832 0.846349
O O18 0.848663 0.530826 0.699898
O O19 0.121100 0.242200 0.500002
O O20 0.000000 0.209640 0.500000
O O21 0.446934 0.723467 0.370169
O O22 0.405393 0.594608 0.350177
#
# Coordination Sequence:
#
# PCOD8323740 Si02
#       8
#    12  12  12  12  12  12  12  12
#     4   9  17  29  47  71  98 127 159 198 242 289
#     4  10  20  33  52  74  97 124 162 208 249 290
#     4  11  23  38  54  68  92 131 169 205 246 296
#     4   9  17  29  47  71  99 129 159 195 241 294
#     4   9  17  29  47  71  98 127 159 198 242 289
#     4  10  20  33  52  74  97 124 162 208 249 290
#     4   8  14  24  40  63  91 121 151 185 229 279
#     4   9  17  29  47  71  99 129 159 195 241 294
#
# _framework density 17.261037999999999
#
# number of rings (size 3 to 8) (size 9 to 14) (size 15 to 20)
#    0.000    2.625    0.000    2.125    1.750    1.000 
#    0.000    0.000    0.000    3.875    0.000    8.750 
#    0.000    0.000    0.000    0.000    0.000   26.000 
#
# Total GULP energy -1189479.947811 kJ/mol
# GULP energy per Si atom -12390.416123 kJ/mol
# Density = 1.722175 g / cm^3
# Si number density = 17.261038 Si / 1000 Ang^3
#
#
#
# Elastic Constant Matrix: (Units=GPa)
#
#
# Indices 1 2 3 4 5 6 
#
# 1 93.5042 52.6674 45.5180 0.0001 0.0000 0.0000
# 2 52.6674 93.5042 45.5180 -0.0001 0.0000 0.0000
# 3 45.5180 45.5180 80.0923 0.0000 0.0000 0.0000
# 4 0.0001 -0.0001 0.0000 24.0168 0.0000 0.0000
# 5 0.0000 0.0000 0.0000 0.0000 24.0168 0.0001
# 6 0.0000 0.0000 0.0000 0.0000 0.0001 20.4184
#
#
#
# Elastic Compliance Matrix: (Units=1/GPa)
#
#
# Indices 1 2 3 4 5 6 
#
# 1 0.017539 -0.006949 -0.006018 0.000000 0.000000 0.000000
# 2 -0.006949 0.017539 -0.006018 0.000000 0.000000 0.000000
# 3 -0.006018 -0.006018 0.019326 0.000000 0.000000 0.000000
# 4 0.000000 0.000000 0.000000 0.041638 0.000000 0.000000
# 5 0.000000 0.000000 0.000000 0.000000 0.041638 0.000000
# 6 0.000000 0.000000 0.000000 0.000000 0.000000 0.048975
#
#
# Mechanical properties :
#
#
# Convention : Reuss Voigt Hill
#
# Bulk Modulus (GPa) = 60.85602 61.61193 61.23397
# Shear Modulus (GPa) = 21.72948 21.91687 21.82317
#
# Velocity S-wave (km/s) = 3.55191 3.56719 3.55956
# Velocity P-wave (km/s) = 7.22179 7.26211 7.24198
#
# Compressibility (1/GPa) = 0.01643223
#
# Stress axis : x y z
#
# Youngs Moduli (GPa) = 57.01720 57.01720 51.74361
#
# Poissons Ratio (x) = 0.39622 0.31140
# Poissons Ratio (y) = 0.39622 0.31140
# Poissons Ratio (z) = 0.34314 0.34314
#
# Static dielectric constant tensor:
#      x y z
#    x 3.152250 0.000000 0.000000 
#    y 0.000000 3.152250 0.000000 
#    z 0.000000 0.000000 3.264460 
# 
# 
# High freq. dielectric constant tensor:
#      x y z
#    x 1.655400 0.000000 0.000000 
#    y 0.000000 1.655400 0.000000 
#    z 0.000000 0.000000 1.664420 
# 
# From -- ./inp_files/3124.got.cif
#   From: 2010.03.12/outbox.cif.g09.slc.cpg/sg164_2_cif.got.tgz:3124.got - 2010.04.02 06:32:59.
