data_PCOD8323709
_publ_section_title
;
Structure prediction by ZEFSAII (Michael W. Deem and Ramdas Pophale) SiO2 
 PCOD8323709
Probable space group: P -3 M 1
;
_chemical_formula_sum "Si O2"
_cell_formula_units_Z 66
_cell_length_a 12.640925
_cell_length_b 12.640925
_cell_length_c 27.849780
_cell_angle_alpha 90.000000
_cell_angle_beta 90.000000
_cell_angle_gamma 120.000000
_cell_volume 3853.985796
_symmetry_space_group_name_H-M "P -3 M 1"
_symmetry_group_IT_number 164
_symmetry_cell_setting 'hexagonal'
loop_
_space_group_symop_operation_xyz
x,y,z
-y,x-y,z
-x+y,-x,z
x-y,-y,-z
-x,-x+y,-z
y,x,-z
-x,-y,-z
y,-x+y,-z
x-y,x,-z
-x+y,y,z
x,x-y,z
-y,-x,z
loop_
_atom_site_type_symbol
_atom_site_label
_atom_site_fract_x
_atom_site_fract_y
_atom_site_fract_z
Si Si1 0.000000 0.247242 0.000000
Si Si2 0.576753 0.666389 0.628008
Si Si3 0.334636 0.421639 0.178587
Si Si4 0.087486 0.665526 0.455631
Si Si5 0.419890 0.333560 0.089419
Si Si6 0.089325 0.423070 0.737597
O O1 0.982657 0.312684 0.045773
O O2 0.115570 0.231140 0.009533
O O3 0.588731 0.794366 0.614229
O O4 0.436601 0.563400 0.619281
O O5 0.665083 0.643418 0.593891
O O6 0.616509 0.664995 0.682788
O O7 0.203577 0.407154 0.170464
O O8 0.435525 0.564476 0.178210
O O9 0.359707 0.350002 0.137089
O O10 0.335234 0.360034 0.229142
O O11 0.128140 0.564070 0.454418
O O12 0.204458 0.795543 0.462107
O O13 0.000000 0.645185 0.500000
O O14 0.441291 0.220646 0.097384
O O15 0.548835 0.451166 0.077661
O O16 0.204686 0.409371 0.751463
O O17 0.127572 0.563786 0.746259
#
# Coordination Sequence:
#
# PCOD8323709 Si02
#       6
#     6  12  12  12  12  12
#     4  10  20  34  52  74 102 136 170 200 232 278
#     4   9  17  30  50  75 100 126 157 195 239 285
#     4  10  20  33  49  70  97 129 163 198 239 288
#     4  10  20  33  50  72  97 125 157 195 239 285
#     4  10  20  34  53  76 100 126 159 202 250 294
#     4   9  17  30  50  75 100 126 158 198 242 285
#
# _framework density 17.125126999999999
#
# number of rings (size 3 to 8) (size 9 to 14) (size 15 to 20)
#    0.000    2.364    0.000    2.909    0.000    2.182 
#    0.000    3.636    0.000   15.273    0.000    0.000 
#    0.000    0.000    0.000    0.000    0.000    0.000 
#
# Total GULP energy -818573.706678 kJ/mol
# GULP energy per Si atom -12402.631919 kJ/mol
# Density = 1.708615 g / cm^3
# Si number density = 17.125127 Si / 1000 Ang^3
#
#
#
# Elastic Constant Matrix: (Units=GPa)
#
#
# Indices 1 2 3 4 5 6 
#
# 1 102.8363 66.0779 57.3219 -0.3828 0.0000 0.0000
# 2 66.0779 102.8363 57.3219 0.3828 0.0000 0.0000
# 3 57.3219 57.3219 104.2864 0.0000 0.0000 0.0000
# 4 -0.3828 0.3828 0.0000 22.9111 0.0000 0.0000
# 5 0.0000 0.0000 0.0000 0.0000 22.9111 -0.3828
# 6 0.0000 0.0000 0.0000 0.0000 -0.3828 18.3792
#
#
#
# Elastic Compliance Matrix: (Units=1/GPa)
#
#
# Indices 1 2 3 4 5 6 
#
# 1 0.018329 -0.008886 -0.005190 0.000455 0.000000 0.000000
# 2 -0.008886 0.018329 -0.005190 -0.000455 0.000000 0.000000
# 3 -0.005190 -0.005190 0.015295 0.000000 0.000000 0.000000
# 4 0.000455 -0.000455 0.000000 0.043662 0.000000 0.000000
# 5 0.000000 0.000000 0.000000 0.000000 0.043662 0.000909
# 6 0.000000 0.000000 0.000000 0.000000 0.000909 0.054428
#
#
# Mechanical properties :
#
#
# Convention : Reuss Voigt Hill
#
# Bulk Modulus (GPa) = 74.52024 74.60027 74.56026
# Shear Modulus (GPa) = 21.12286 21.45609 21.28947
#
# Velocity S-wave (km/s) = 3.51585 3.54347 3.52969
# Velocity P-wave (km/s) = 7.75185 7.77162 7.76174
#
# Compressibility (1/GPa) = 0.01341917
#
# Stress axis : x y z
#
# Youngs Moduli (GPa) = 54.55972 54.55972 65.38136
#
# Poissons Ratio (x) = 0.48480 0.33936
# Poissons Ratio (y) = 0.48480 0.33936
# Poissons Ratio (z) = 0.28319 0.28319
#
# Static dielectric constant tensor:
#      x y z
#    x 3.082880 0.000000 0.000000 
#    y 0.000000 3.082880 0.000000 
#    z 0.000000 0.000000 3.448380 
# 
# 
# High freq. dielectric constant tensor:
#      x y z
#    x 1.654280 0.000000 0.000000 
#    y 0.000000 1.654280 0.000000 
#    z 0.000000 0.000000 1.678460 
# 
# From -- ./inp_files/5500.got.cif
#   From: 2010.03.12/outbox.cif.g09.slc.cpg/sg164_3_cif.got.tgz:5500.got - 2010.04.02 06:32:59.
