data_PCOD8323726
_publ_section_title
;
Structure prediction by ZEFSAII (Michael W. Deem and Ramdas Pophale) SiO2 
 PCOD8323726
Probable space group: P -3 M 1
;
_chemical_formula_sum "Si O2"
_cell_formula_units_Z 66
_cell_length_a 12.485481
_cell_length_b 12.485481
_cell_length_c 28.037475
_cell_angle_alpha 90.000000
_cell_angle_beta 90.000000
_cell_angle_gamma 120.000000
_cell_volume 3785.123789
_symmetry_space_group_name_H-M "P -3 M 1"
_symmetry_group_IT_number 164
_symmetry_cell_setting 'hexagonal'
loop_
_space_group_symop_operation_xyz
x,y,z
-y,x-y,z
-x+y,-x,z
x-y,-y,-z
-x,-x+y,-z
y,x,-z
-x,-y,-z
y,-x+y,-z
x-y,x,-z
-x+y,y,z
x,x-y,z
-y,-x,z
loop_
_atom_site_type_symbol
_atom_site_label
_atom_site_fract_x
_atom_site_fract_y
_atom_site_fract_z
Si Si1 0.082914 0.666917 0.180774
Si Si2 0.251310 0.000000 0.000000
Si Si3 0.584426 0.917816 0.909566
Si Si4 0.001528 0.751523 0.271235
Si Si5 0.245969 0.000090 0.554107
Si Si6 0.914721 0.332288 0.639848
O O1 0.106769 0.553385 0.185270
O O2 0.212450 0.787551 0.170241
O O3 0.991112 0.650288 0.138136
O O4 0.022169 0.676765 0.229466
O O5 0.321661 0.991662 0.953846
O O6 0.234960 0.117480 0.994164
O O7 0.453288 0.906576 0.917653
O O8 0.563451 0.781726 0.905178
O O9 0.868956 0.737912 0.264867
O O10 0.005830 0.691306 0.321108
O O11 0.104242 0.895759 0.269566
O O12 0.203258 0.101629 0.560254
O O13 0.361317 0.031351 0.587981
O O14 0.289304 0.000000 0.500000
O O15 0.131334 0.868667 0.568704
O O16 0.929054 0.464527 0.648590
O O17 0.770731 0.229270 0.644000
#
# Coordination Sequence:
#
# PCOD8323726 Si02
#       6
#    12   6  12  12  12  12
#     4  10  20  34  53  76 102 132 165 201 240 285
#     4  10  20  34  52  74 100 130 166 208 254 300
#     4  10  20  34  52  74 101 133 168 205 246 293
#     4  10  20  34  53  76 100 126 158 199 246 292
#     4   9  17  30  50  75 100 126 158 199 246 292
#     4  10  20  33  50  71  97 130 166 203 241 285
#
# _framework density 17.436682999999999
#
# number of rings (size 3 to 8) (size 9 to 14) (size 15 to 20)
#    0.000    2.182    0.000    3.455    0.000    1.091 
#    0.000    3.636    0.000   19.273    0.000    0.000 
#    0.000    0.000    0.000    0.000    0.000    0.000 
#
# Total GULP energy -818646.687979 kJ/mol
# GULP energy per Si atom -12403.737697 kJ/mol
# Density = 1.739700 g / cm^3
# Si number density = 17.436683 Si / 1000 Ang^3
#
#
#
# Elastic Constant Matrix: (Units=GPa)
#
#
# Indices 1 2 3 4 5 6 
#
# 1 62.5786 32.1433 34.7261 -2.3789 0.0000 0.0000
# 2 32.1433 62.5786 34.7261 2.3789 0.0000 0.0000
# 3 34.7261 34.7261 103.7380 0.0000 0.0000 0.0000
# 4 -2.3789 2.3789 0.0000 25.1301 0.0000 0.0000
# 5 0.0000 0.0000 0.0000 0.0000 25.1301 -2.3789
# 6 0.0000 0.0000 0.0000 0.0000 -2.3789 15.2176
#
#
#
# Elastic Compliance Matrix: (Units=1/GPa)
#
#
# Indices 1 2 3 4 5 6 
#
# 1 0.023671 -0.009679 -0.004684 0.003157 0.000000 0.000000
# 2 -0.009679 0.023671 -0.004684 -0.003157 0.000000 0.000000
# 3 -0.004684 -0.004684 0.012775 0.000000 0.000000 0.000000
# 4 0.003157 -0.003157 0.000000 0.040391 0.000000 0.000000
# 5 0.000000 0.000000 0.000000 0.000000 0.040391 0.006314
# 6 0.000000 0.000000 0.000000 0.000000 0.006314 0.066700
#
#
# Mechanical properties :
#
#
# Convention : Reuss Voigt Hill
#
# Bulk Modulus (GPa) = 45.40571 48.00959 46.70765
# Shear Modulus (GPa) = 19.76029 21.58219 20.67124
#
# Velocity S-wave (km/s) = 3.37004 3.52198 3.44685
# Velocity P-wave (km/s) = 6.42182 6.64323 6.53347
#
# Compressibility (1/GPa) = 0.02202366
#
# Stress axis : x y z
#
# Youngs Moduli (GPa) = 42.24625 42.24625 78.27599
#
# Poissons Ratio (x) = 0.40892 0.36661
# Poissons Ratio (y) = 0.40892 0.36661
# Poissons Ratio (z) = 0.19786 0.19786
#
# Static dielectric constant tensor:
#      x y z
#    x 3.147770 0.000000 0.000000 
#    y 0.000000 3.147770 0.000000 
#    z 0.000000 0.000000 3.458150 
# 
# 
# High freq. dielectric constant tensor:
#      x y z
#    x 1.672880 0.000000 0.000000 
#    y 0.000000 1.672880 0.000000 
#    z 0.000000 0.000000 1.691750 
# 
# From -- ./inp_files/5455.got.cif
#   From: 2010.03.12/outbox.cif.g09.slc.cpg/sg164_3_cif.got.tgz:5455.got - 2010.04.02 06:32:59.
