data_PCOD8323106
_publ_section_title
;
Structure prediction by ZEFSAII (Michael W. Deem and Ramdas Pophale) SiO2 
 PCOD8323106
Probable space group: P -3 1 M 
;
_chemical_formula_sum "Si O2"
_cell_formula_units_Z 84
_cell_length_a 14.428747
_cell_length_b 14.428747
_cell_length_c 23.037573
_cell_angle_alpha 90.000000
_cell_angle_beta 90.000000
_cell_angle_gamma 120.000000
_cell_volume 4153.599254
_symmetry_space_group_name_H-M "P -3 1 M "
_symmetry_group_IT_number 162
_symmetry_cell_setting 'hexagonal'
loop_
_space_group_symop_operation_xyz
x,y,z
-y,x-y,z
-x+y,-x,z
-y,-x,-z
-x+y,y,-z
x,x-y,-z
-x,-y,-z
y,-x+y,-z
x-y,x,-z
y,x,z
x-y,-y,z
-x,-x+y,z
loop_
_atom_site_type_symbol
_atom_site_label
_atom_site_fract_x
_atom_site_fract_y
_atom_site_fract_z
Si Si1 0.245158 0.120645 0.842993
Si Si2 0.575041 0.805095 0.066107
Si Si3 0.342657 0.222839 0.727974
Si Si4 0.686786 0.125357 0.343339
Si Si5 0.120566 0.556978 0.243591
Si Si6 0.428285 0.550931 0.884321
Si Si7 0.538830 0.666738 0.525139
O O1 0.201133 0.201133 0.849914
O O2 0.315895 0.133425 0.898557
O O3 0.316161 0.148654 0.784797
O O4 0.148261 0.000000 0.839227
O O5 0.497126 0.686791 0.088035
O O6 0.512844 0.870645 0.073393
O O7 0.606960 0.803480 0.000000
O O8 0.247650 0.247650 0.714758
O O9 0.352186 0.161814 0.671738
O O10 0.452750 0.329531 0.738062
O O11 0.646706 0.178887 0.293902
O O12 0.676474 0.160955 0.407509
O O13 0.614577 0.000000 0.340448
O O14 0.171858 0.597876 0.179722
O O15 0.000000 0.533509 0.238966
O O16 0.456233 0.456233 0.878171
O O17 0.426549 0.573452 0.500000
O O18 0.571556 0.785778 0.500000
O O19 0.631671 0.631671 0.516210
#
# Coordination Sequence:
#
# PCOD8323106 Si02
#       7
#    12  12  12  12  12  12  12
#     4  11  23  41  63  89 122 161 204 252 307 368
#     4  12  25  40  61  87 114 153 202 247 302 369
#     4  10  20  37  61  88 120 157 199 251 311 369
#     4  10  21  37  59  91 125 157 202 250 304 367
#     4   9  19  36  57  84 116 149 187 238 299 362
#     4  11  23  42  62  83 115 150 188 242 303 361
#     4  10  23  42  64  92 130 177 223 265 311 371
#
# _framework density 20.223424999999999
#
# number of rings (size 3 to 8) (size 9 to 14) (size 15 to 20)
#    0.000    1.571    1.429    3.143    2.000    4.571 
#    0.857    0.000    0.000    1.286    0.000    0.000 
#    0.000    0.000    0.000    0.000    0.000    0.000 
#
# Total GULP energy -1041347.247826 kJ/mol
# GULP energy per Si atom -12396.991046 kJ/mol
# Density = 2.017740 g / cm^3
# Si number density = 20.223425 Si / 1000 Ang^3
#
#
#
# Elastic Constant Matrix: (Units=GPa)
#
#
# Indices 1 2 3 4 5 6 
#
# 1 59.4985 26.8773 37.5299 -0.0002 4.3957 0.0000
# 2 26.8773 59.4985 37.5299 0.0002 -4.3957 0.0000
# 3 37.5299 37.5299 151.0778 0.0000 0.0000 0.0000
# 4 -0.0002 0.0002 0.0000 13.3005 0.0000 -4.3957
# 5 4.3957 -4.3957 0.0000 0.0000 13.3005 -0.0002
# 6 0.0000 0.0000 0.0000 -4.3957 -0.0002 16.3106
#
#
#
# Elastic Compliance Matrix: (Units=1/GPa)
#
#
# Indices 1 2 3 4 5 6 
#
# 1 0.024208 -0.009444 -0.003668 0.000001 -0.011122 0.000000
# 2 -0.009444 0.024208 -0.003668 -0.000001 0.011122 0.000000
# 3 -0.003668 -0.003668 0.008441 0.000000 0.000000 0.000000
# 4 0.000001 -0.000001 0.000000 0.082536 0.000000 0.022244
# 5 -0.011122 0.011122 0.000000 0.000000 0.082536 0.000001
# 6 0.000000 0.000000 0.000000 0.022244 0.000001 0.067304
#
#
# Mechanical properties :
#
#
# Convention : Reuss Voigt Hill
#
# Bulk Modulus (GPa) = 42.91934 52.66099 47.79016
# Shear Modulus (GPa) = 15.12582 19.79150 17.45866
#
# Velocity S-wave (km/s) = 2.73781 3.13172 2.94137
# Velocity P-wave (km/s) = 5.59131 6.25884 5.93447
#
# Compressibility (1/GPa) = 0.02329952
#
# Stress axis : x y z
#
# Youngs Moduli (GPa) = 41.30803 41.30803 118.46474
#
# Poissons Ratio (x) = 0.39011 0.43450
# Poissons Ratio (y) = 0.39011 0.43450
# Poissons Ratio (z) = 0.15151 0.15151
#
# Static dielectric constant tensor:
#      x y z
#    x 3.754850 0.000000 0.000000 
#    y 0.000000 3.754850 0.000000 
#    z 0.000000 0.000000 4.037590 
# 
# 
# High freq. dielectric constant tensor:
#      x y z
#    x 1.786450 0.000000 0.000000 
#    y 0.000000 1.786450 0.000000 
#    z 0.000000 0.000000 1.790920 
# 
# From -- ./inp_files/3976.got.cif
#   From: 2010.03.12/outbox.cif.g09.slc.cpg/sg162_2_cif.got.tgz:3976.got - 2010.04.02 06:27:41.
