data_PCOD8323398
_publ_section_title
;
Structure prediction by ZEFSAII (Michael W. Deem and Ramdas Pophale) SiO2 
 PCOD8323398
Probable space group: P -3 M 1
;
_chemical_formula_sum "Si O2"
_cell_formula_units_Z 96
_cell_length_a 17.379634
_cell_length_b 17.379634
_cell_length_c 22.003078
_cell_angle_alpha 90.000000
_cell_angle_beta 90.000000
_cell_angle_gamma 120.000000
_cell_volume 5755.662537
_symmetry_space_group_name_H-M "P -3 M 1"
_symmetry_group_IT_number 164
_symmetry_cell_setting 'hexagonal'
loop_
_space_group_symop_operation_xyz
x,y,z
-y,x-y,z
-x+y,-x,z
x-y,-y,-z
-x,-x+y,-z
y,x,-z
-x,-y,-z
y,-x+y,-z
x-y,x,-z
-x+y,y,z
x,x-y,z
-y,-x,z
loop_
_atom_site_type_symbol
_atom_site_label
_atom_site_fract_x
_atom_site_fract_y
_atom_site_fract_z
Si Si1 0.363404 0.262447 0.513686
Si Si2 0.725963 0.630842 0.872070
Si Si3 0.511799 0.668350 0.012772
Si Si4 0.307677 0.063809 0.054088
Si Si5 0.123951 0.478866 0.595489
Si Si6 0.962042 0.571736 0.757088
Si Si7 0.160512 0.489951 0.730274
Si Si8 0.920570 0.376377 0.622976
O O1 0.292421 0.292421 0.500000
O O2 0.310453 0.155227 0.516874
O O3 0.434011 0.288240 0.459609
O O4 0.416983 0.294416 0.577042
O O5 0.829783 0.659566 0.872188
O O6 0.715378 0.716640 0.886623
O O7 0.684014 0.592043 0.806922
O O8 0.672560 0.553981 0.921456
O O9 0.476594 0.738297 0.009740
O O10 0.430261 0.569739 0.000303
O O11 0.588092 0.693203 0.962324
O O12 0.285450 0.142725 0.065298
O O13 0.245715 0.000000 0.000000
O O14 0.167111 0.583556 0.580941
O O15 0.160766 0.466630 0.659383
O O16 0.019578 0.437832 0.600273
O O17 0.950233 0.475117 0.767661
O O18 0.920034 0.574730 0.692214
O O19 0.066561 0.645679 0.760547
O O20 0.240765 0.481530 0.761467
O O21 0.179023 0.589512 0.738502
O O22 0.872809 0.436405 0.619564
#
# Coordination Sequence:
#
# PCOD8323398 Si02
#       8
#    12  12  12  12  12  12  12  12
#     4  10  18  27  42  63  86 113 147 189 234 278
#     4  10  20  32  48  69  90 116 153 194 229 261
#     4   9  17  29  47  72 100 127 152 178 210 250
#     4   9  18  32  50  72  97 123 149 182 226 272
#     4   8  14  25  42  63  85 110 140 175 219 270
#     4   9  18  31  46  64  88 120 155 186 217 257
#     4   9  16  26  41  63  91 121 151 180 212 255
#     4   8  15  28  44  62  84 111 144 180 218 263
#
# _framework density 16.679227000000001
#
# number of rings (size 3 to 8) (size 9 to 14) (size 15 to 20)
#    0.000    3.000    0.000    4.000    0.000    5.250 
#    0.000    0.000    0.000    5.375    0.000    4.375 
#    0.000    0.000    0.000    3.625    0.000    0.000 
#
# Total GULP energy -1189470.085775 kJ/mol
# GULP energy per Si atom -12390.313393 kJ/mol
# Density = 1.664126 g / cm^3
# Si number density = 16.679227 Si / 1000 Ang^3
#
#
#
# Elastic Constant Matrix: (Units=GPa)
#
#
# Indices 1 2 3 4 5 6 
#
# 1 80.0993 49.0220 30.2856 -0.1374 0.0000 0.0000
# 2 49.0220 80.0993 30.2856 0.1374 0.0000 0.0000
# 3 30.2856 30.2856 77.1106 0.0000 0.0000 0.0000
# 4 -0.1374 0.1374 0.0000 36.8982 0.0000 0.0000
# 5 0.0000 0.0000 0.0000 0.0000 36.8982 -0.1374
# 6 0.0000 0.0000 0.0000 0.0000 -0.1374 15.5386
#
#
#
# Elastic Compliance Matrix: (Units=1/GPa)
#
#
# Indices 1 2 3 4 5 6 
#
# 1 0.020836 -0.011343 -0.003729 0.000120 0.000000 0.000000
# 2 -0.011343 0.020836 -0.003729 -0.000120 0.000000 0.000000
# 3 -0.003729 -0.003729 0.015897 0.000000 0.000000 0.000000
# 4 0.000120 -0.000120 0.000000 0.027102 0.000000 0.000000
# 5 0.000000 0.000000 0.000000 0.000000 0.027102 0.000240
# 6 0.000000 0.000000 0.000000 0.000000 0.000240 0.064358
#
#
# Mechanical properties :
#
#
# Convention : Reuss Voigt Hill
#
# Bulk Modulus (GPa) = 50.07511 50.72174 50.39843
# Shear Modulus (GPa) = 22.68706 26.38139 24.53422
#
# Velocity S-wave (km/s) = 3.69209 3.98136 3.83945
# Velocity P-wave (km/s) = 6.94716 7.18409 7.06662
#
# Compressibility (1/GPa) = 0.01997000
#
# Stress axis : x y z
#
# Youngs Moduli (GPa) = 47.99293 47.99293 62.90356
#
# Poissons Ratio (x) = 0.54436 0.23455
# Poissons Ratio (y) = 0.54436 0.23455
# Poissons Ratio (z) = 0.17895 0.17895
#
# Static dielectric constant tensor:
#      x y z
#    x 3.076490 0.000000 0.000000 
#    y 0.000000 3.076490 0.000000 
#    z 0.000000 0.000000 3.124600 
# 
# 
# High freq. dielectric constant tensor:
#      x y z
#    x 1.625610 0.000000 0.000000 
#    y 0.000000 1.625610 0.000000 
#    z 0.000000 0.000000 1.635640 
# 
# From -- ./inp_files/4800.got.cif
#   From: 2010.03.12/outbox.cif.g09.slc.cpg/sg164_3_cif.got.tgz:4800.got - 2010.04.02 06:32:59.
