data_PCOD8323741
_publ_section_title
;
Structure prediction by ZEFSAII (Michael W. Deem and Ramdas Pophale) SiO2 
 PCOD8323741
Probable space group: P -3 M 1
;
_chemical_formula_sum "Si O2"
_cell_formula_units_Z 72
_cell_length_a 21.344753
_cell_length_b 21.344753
_cell_length_c 10.483015
_cell_angle_alpha 90.000000
_cell_angle_beta 90.000000
_cell_angle_gamma 120.000000
_cell_volume 4136.176911
_symmetry_space_group_name_H-M "P -3 M 1"
_symmetry_group_IT_number 164
_symmetry_cell_setting 'hexagonal'
loop_
_space_group_symop_operation_xyz
x,y,z
-y,x-y,z
-x+y,-x,z
x-y,-y,-z
-x,-x+y,-z
y,x,-z
-x,-y,-z
y,-x+y,-z
x-y,x,-z
-x+y,y,z
x,x-y,z
-y,-x,z
loop_
_atom_site_type_symbol
_atom_site_label
_atom_site_fract_x
_atom_site_fract_y
_atom_site_fract_z
Si Si1 0.188395 0.665959 0.464705
Si Si2 0.453845 0.049351 0.385287
Si Si3 0.353710 0.993458 0.864377
Si Si4 0.953295 0.757621 0.120969
Si Si5 0.611119 0.735766 0.285983
Si Si6 0.232706 0.188378 0.627324
O O1 0.201459 0.600730 0.420881
O O2 0.264282 0.735719 0.502687
O O3 0.134747 0.641781 0.585259
O O4 0.148258 0.683190 0.352742
O O5 0.511239 0.022478 0.367588
O O6 0.415832 0.039903 0.250732
O O7 0.399389 0.000000 0.500000
O O8 0.267264 0.945653 0.883729
O O9 0.379412 0.076603 0.835586
O O10 0.393698 0.000000 0.000000
O O11 0.874190 0.748379 0.116319
O O12 0.992756 0.796062 0.251673
O O13 0.000000 0.804961 0.000000
O O14 0.611575 0.805788 0.231541
O O15 0.679957 0.759625 0.379512
O O16 0.199906 0.199906 0.500000
O O17 0.210576 0.105288 0.636069
#
# Coordination Sequence:
#
# PCOD8323741 Si02
#       6
#    12  12  12  12  12  12
#     4  10  20  34  55  80 108 143 184 227 268 316
#     4  10  20  35  54  77 111 147 178 218 269 323
#     4  10  21  33  52  81 111 141 180 223 271 325
#     4  10  21  36  55  75 103 142 182 225 271 327
#     4   9  19  33  51  75 106 143 179 218 269 324
#     4  10  20  33  52  77 104 134 172 222 276 328
#
# _framework density 17.407378999999999
#
# number of rings (size 3 to 8) (size 9 to 14) (size 15 to 20)
#    0.000    2.167    1.667    1.167    4.667    5.000 
#    0.000    0.000    0.000    6.667    0.000    0.000 
#    0.000    6.667    0.000    0.000    0.000    0.000 
#
# Total GULP energy -892404.053743 kJ/mol
# GULP energy per Si atom -12394.500746 kJ/mol
# Density = 1.736776 g / cm^3
# Si number density = 17.407379 Si / 1000 Ang^3
#
#
#
# Elastic Constant Matrix: (Units=GPa)
#
#
# Indices 1 2 3 4 5 6 
#
# 1 92.3118 57.8382 49.6079 9.1122 0.0000 0.0000
# 2 57.8382 92.3118 49.6079 -9.1122 0.0000 0.0000
# 3 49.6079 49.6079 138.7559 0.0000 0.0000 0.0000
# 4 9.1122 -9.1122 0.0000 6.6301 0.0000 0.0000
# 5 0.0000 0.0000 0.0000 0.0000 6.6301 9.1122
# 6 0.0000 0.0000 0.0000 0.0000 9.1122 17.2368
#
#
#
# Elastic Compliance Matrix: (Units=1/GPa)
#
#
# Indices 1 2 3 4 5 6 
#
# 1 0.057400 -0.048680 -0.003118 -0.145794 0.000000 0.000000
# 2 -0.048680 0.057400 -0.003118 0.145794 0.000000 0.000000
# 3 -0.003118 -0.003118 0.009436 0.000000 0.000000 0.000000
# 4 -0.145794 0.145794 0.000000 0.551574 0.000000 0.000000
# 5 0.000000 0.000000 0.000000 0.000000 0.551574 -0.291587
# 6 0.000000 0.000000 0.000000 0.000000 -0.291587 0.212162
#
#
# Mechanical properties :
#
#
# Convention : Reuss Voigt Hill
#
# Bulk Modulus (GPa) = 69.41629 70.83193 70.12411
# Shear Modulus (GPa) = 3.21713 17.18778 10.20246
#
# Velocity S-wave (km/s) = 1.36094 3.14568 2.42358
# Velocity P-wave (km/s) = 6.51411 7.34662 6.94285
#
# Compressibility (1/GPa) = 0.01440584
#
# Stress axis : x y z
#
# Youngs Moduli (GPa) = 17.42145 17.42145 105.97616
#
# Poissons Ratio (x) = 0.84808 0.33039
# Poissons Ratio (y) = 0.84808 0.33039
# Poissons Ratio (z) = 0.05431 0.05431
#
# Static dielectric constant tensor:
#      x y z
#    x 3.332640 0.000000 0.000000 
#    y 0.000000 3.332640 0.000000 
#    z 0.000000 0.000000 3.172600 
# 
# 
# High freq. dielectric constant tensor:
#      x y z
#    x 1.671570 0.000000 0.000000 
#    y 0.000000 1.671570 0.000000 
#    z 0.000000 0.000000 1.663820 
# 
# From -- ./inp_files/1912.got.cif
#   From: 2010.03.12/outbox.cif.g09.slc.cpg/sg164_1_cif.got.tgz:1912.got - 2010.04.02 06:32:59.
