data_PCOD8323101
_publ_section_title
;
Structure prediction by ZEFSAII (Michael W. Deem and Ramdas Pophale) SiO2 
 PCOD8323101
Probable space group: P -3 1 M 
;
_chemical_formula_sum "Si O2"
_cell_formula_units_Z 84
_cell_length_a 14.329960
_cell_length_b 14.329960
_cell_length_c 22.000469
_cell_angle_alpha 90.000000
_cell_angle_beta 90.000000
_cell_angle_gamma 120.000000
_cell_volume 3912.483572
_symmetry_space_group_name_H-M "P -3 1 M "
_symmetry_group_IT_number 162
_symmetry_cell_setting 'hexagonal'
loop_
_space_group_symop_operation_xyz
x,y,z
-y,x-y,z
-x+y,-x,z
-y,-x,-z
-x+y,y,-z
x,x-y,-z
-x,-y,-z
y,-x+y,-z
x-y,x,-z
y,x,z
x-y,-y,z
-x,-x+y,z
loop_
_atom_site_type_symbol
_atom_site_label
_atom_site_fract_x
_atom_site_fract_y
_atom_site_fract_z
Si Si1 0.715293 0.593919 0.546156
Si Si2 0.123072 0.699174 0.844008
Si Si3 0.877819 0.452906 0.064973
Si Si4 0.209150 0.764500 0.713752
Si Si5 0.122010 0.879137 0.642556
Si Si6 0.877375 0.421226 0.652413
Si Si7 0.877788 0.209252 0.932886
O O1 0.779222 0.558443 0.500000
O O2 0.645517 0.645517 0.516629
O O3 0.806058 0.685168 0.587621
O O4 0.633856 0.488368 0.585485
O O5 0.174583 0.641508 0.884928
O O6 0.193937 0.731847 0.783592
O O7 0.127214 0.799627 0.881383
O O8 0.000000 0.618200 0.825291
O O9 0.874958 0.558295 0.083881
O O10 0.000000 0.476470 0.058106
O O11 0.818713 0.409357 0.000000
O O12 0.129714 0.810331 0.698250
O O13 0.332446 0.856809 0.703787
O O14 0.192927 0.670197 0.666722
O O15 0.000000 0.826505 0.619662
O O16 0.162592 0.000000 0.665358
O O17 0.000000 0.514565 0.657956
O O18 0.000000 0.231487 0.927191
O O19 0.834241 0.165760 0.000000
#
# Coordination Sequence:
#
# PCOD8323101 Si02
#       7
#    12  12  12  12  12  12  12
#     4   9  18  34  59  91 126 162 203 254 311 369
#     4  11  23  39  60  86 119 158 201 249 305 366
#     4   9  18  36  57  80 113 146 185 239 294 348
#     4  11  23  40  61  87 123 164 208 257 313 371
#     4  10  20  36  59  87 121 162 206 255 310 369
#     4  10  22  41  63  89 124 164 207 255 309 371
#     4  11  22  38  61  88 120 158 199 246 304 366
#
# _framework density 21.469739000000001
#
# number of rings (size 3 to 8) (size 9 to 14) (size 15 to 20)
#    0.000    1.857    1.429    3.857    2.000    1.143 
#    0.857    3.571    0.000   12.571    0.000    0.000 
#    0.000    0.571    0.000    0.000    0.000    0.000 
#
# Total GULP energy -1041295.376120 kJ/mol
# GULP energy per Si atom -12396.373525 kJ/mol
# Density = 2.142087 g / cm^3
# Si number density = 21.469739 Si / 1000 Ang^3
#
#
#
# Elastic Constant Matrix: (Units=GPa)
#
#
# Indices 1 2 3 4 5 6 
#
# 1 70.6660 12.7648 21.6636 -0.0001 -2.6320 0.0000
# 2 12.7648 70.6660 21.6636 0.0001 2.6320 0.0000
# 3 21.6636 21.6636 101.4294 0.0000 0.0000 0.0000
# 4 -0.0001 0.0001 0.0000 24.6047 0.0000 2.6320
# 5 -2.6320 2.6320 0.0000 0.0000 24.6047 -0.0001
# 6 0.0000 0.0000 0.0000 2.6320 -0.0001 28.9506
#
#
#
# Elastic Compliance Matrix: (Units=1/GPa)
#
#
# Indices 1 2 3 4 5 6 
#
# 1 0.015461 -0.001980 -0.002879 0.000000 0.001866 0.000000
# 2 -0.001980 0.015461 -0.002879 0.000000 -0.001866 0.000000
# 3 -0.002879 -0.002879 0.011089 0.000000 0.000000 0.000000
# 4 0.000000 0.000000 0.000000 0.041042 0.000000 -0.003731
# 5 0.001866 -0.001866 0.000000 0.000000 0.041042 0.000000
# 6 0.000000 0.000000 0.000000 -0.003731 0.000000 0.034881
#
#
# Mechanical properties :
#
#
# Convention : Reuss Voigt Hill
#
# Bulk Modulus (GPa) = 37.68733 39.43839 38.56286
# Shear Modulus (GPa) = 27.27823 28.07664 27.67743
#
# Velocity S-wave (km/s) = 3.56833 3.62018 3.59435
# Velocity P-wave (km/s) = 5.87955 5.99028 5.93517
#
# Compressibility (1/GPa) = 0.02653412
#
# Stress axis : x y z
#
# Youngs Moduli (GPa) = 64.67951 64.67951 90.17908
#
# Poissons Ratio (x) = 0.12804 0.25966
# Poissons Ratio (y) = 0.12804 0.25966
# Poissons Ratio (z) = 0.18624 0.18624
#
# Static dielectric constant tensor:
#      x y z
#    x 3.924180 0.000000 0.000000 
#    y 0.000000 3.924180 0.000000 
#    z 0.000000 0.000000 3.718590 
# 
# 
# High freq. dielectric constant tensor:
#      x y z
#    x 1.840110 0.000000 0.000000 
#    y 0.000000 1.840110 0.000000 
#    z 0.000000 0.000000 1.827490 
# 
# From -- ./inp_files/3966.got.cif
#   From: 2010.03.12/outbox.cif.g09.slc.cpg/sg162_2_cif.got.tgz:3966.got - 2010.04.02 06:27:41.
