data_PCOD8323286
_publ_section_title
;
Structure prediction by ZEFSAII (Michael W. Deem and Ramdas Pophale) SiO2 
 PCOD8323286
Probable space group: P -3 1 C
;
_chemical_formula_sum "Si O2"
_cell_formula_units_Z 74
_cell_length_a 14.168659
_cell_length_b 14.168659
_cell_length_c 18.463765
_cell_angle_alpha 90.000000
_cell_angle_beta 90.000000
_cell_angle_gamma 120.000000
_cell_volume 3210.024832
_symmetry_space_group_name_H-M "P -3 1 C"
_symmetry_group_IT_number 163
_symmetry_cell_setting 'hexagonal'
loop_
_space_group_symop_operation_xyz
x,y,z
-y,x-y,z
-x+y,-x,z
-y,-x,1/2-z
-x+y,y,1/2-z
x,x-y,1/2-z
-x,-y,-z
y,-x+y,-z
x-y,x,-z
y,x,1/2+z
x-y,-y,1/2+z
-x,-x+y,1/2+z
loop_
_atom_site_type_symbol
_atom_site_label
_atom_site_fract_x
_atom_site_fract_y
_atom_site_fract_z
Si Si1 0.600660 0.504799 0.082710
Si Si2 0.333335 0.666667 0.092310
Si Si3 0.859651 0.929826 0.250000
Si Si4 0.662203 0.814283 0.351777
Si Si5 0.503684 0.119531 0.675744
Si Si6 0.666667 0.333335 0.418770
Si Si7 0.921552 0.156230 0.503732
Si Si8 0.360991 0.372240 0.056449
O O1 0.566615 0.563339 0.144384
O O2 0.659710 0.438437 0.110995
O O3 0.486876 0.412071 0.050404
O O4 0.671461 0.586926 0.017743
O O5 0.208356 0.590417 0.119364
O O6 0.333334 0.666667 0.005993
O O7 0.782508 0.873035 0.318567
O O8 0.938211 0.876421 0.250000
O O9 0.585797 0.844836 0.305038
O O10 0.678161 0.858351 0.433552
O O11 0.600030 0.681610 0.367697
O O12 0.560858 0.121715 0.750000
O O13 0.038296 0.178749 0.532898
O O14 0.942895 0.241591 0.440151
#
# Coordination Sequence:
#
# PCOD8323286 Si02
#       8
#    12   4   6  12  12   4  12  12
#     4  11  24  44  64  99 141 179 239 282 364 414
#     4  12  25  43  78 112 145 171 235 299 382 408
#     4  10  28  48  64  96 140 194 244 292 350 446
#     4  11  24  43  70  98 139 180 240 288 360 424
#     4  12  26  45  71 107 143 189 228 292 353 452
#     4  12  27  43  74  97 138 192 232 317 337 414
#     4  10  22  36  64  97 131 172 222 285 347 408
#     4  10  22  39  69  97 134 174 220 300 353 422
#
# _framework density 23.052782000000001
#
# number of rings (size 3 to 8) (size 9 to 14) (size 15 to 20)
#    0.162    0.973    1.622    4.541   13.622    0.000 
#    0.000    0.811    0.000    0.000    0.000    0.000 
#    0.000    0.000    0.000    0.000    0.000    0.000 
#
# Total GULP energy -916741.098273 kJ/mol
# GULP energy per Si atom -12388.393220 kJ/mol
# Density = 2.300031 g / cm^3
# Si number density = 23.052782 Si / 1000 Ang^3
#
#
#
# Elastic Constant Matrix: (Units=GPa)
#
#
# Indices 1 2 3 4 5 6 
#
# 1 92.3372 21.4313 31.5571 0.0002 5.0783 0.0004
# 2 21.4313 92.3382 31.5571 0.0000 -5.0782 0.0005
# 3 31.5571 31.5571 78.9889 0.0002 0.0001 0.0000
# 4 0.0002 0.0000 0.0002 38.3384 0.0000 -5.0783
# 5 5.0783 -5.0782 0.0001 0.0000 38.3384 0.0000
# 6 0.0004 0.0005 0.0000 -5.0783 0.0000 35.4532
#
#
#
# Elastic Compliance Matrix: (Units=1/GPa)
#
#
# Indices 1 2 3 4 5 6 
#
# 1 0.012834 -0.001542 -0.004512 0.000000 -0.001904 0.000000
# 2 -0.001542 0.012834 -0.004511 0.000000 0.001904 0.000000
# 3 -0.004512 -0.004511 0.016265 0.000000 0.000000 0.000000
# 4 0.000000 0.000000 0.000000 0.026588 0.000000 0.003808
# 5 -0.001904 0.001904 0.000000 0.000000 0.026588 0.000000
# 6 0.000000 0.000000 0.000000 0.003808 0.000000 0.028752
#
#
# Mechanical properties :
#
#
# Convention : Reuss Voigt Hill
#
# Bulk Modulus (GPa) = 48.06805 48.08391 48.07598
# Shear Modulus (GPa) = 32.91102 34.36727 33.63914
#
# Velocity S-wave (km/s) = 3.78251 3.86529 3.82412
# Velocity P-wave (km/s) = 6.32242 6.38937 6.35599
#
# Compressibility (1/GPa) = 0.02080384
#
# Stress axis : x y z
#
# Youngs Moduli (GPa) = 77.91631 77.91735 61.48237
#
# Poissons Ratio (x) = 0.12012 0.27738
# Poissons Ratio (y) = 0.12012 0.27738
# Poissons Ratio (z) = 0.35152 0.35152
#
# Static dielectric constant tensor:
#      x y z
#    x 4.478940 0.000000 0.000000 
#    y 0.000000 4.478940 0.000000 
#    z 0.000000 0.000000 3.753950 
# 
# 
# High freq. dielectric constant tensor:
#      x y z
#    x 1.925660 0.000000 0.000000 
#    y 0.000000 1.925660 0.000000 
#    z 0.000000 0.000000 1.873220 
# 
# From -- ./inp_files/3649.got.cif
#   From: 2010.03.12/outbox.cif.g09.slc.cpg/sg163_2_cif.got.tgz:3649.got - 2010.04.02 06:30:25.
