data_PCOD8323574
_publ_section_title
;
Structure prediction by ZEFSAII (Michael W. Deem and Ramdas Pophale) SiO2 
 PCOD8323574
Probable space group: P -3 M 1
;
_chemical_formula_sum "Si O2"
_cell_formula_units_Z 60
_cell_length_a 21.303146
_cell_length_b 21.303146
_cell_length_c 8.729129
_cell_angle_alpha 90.000000
_cell_angle_beta 90.000000
_cell_angle_gamma 120.000000
_cell_volume 3430.749675
_symmetry_space_group_name_H-M "P -3 M 1"
_symmetry_group_IT_number 164
_symmetry_cell_setting 'hexagonal'
loop_
_space_group_symop_operation_xyz
x,y,z
-y,x-y,z
-x+y,-x,z
x-y,-y,-z
-x,-x+y,-z
y,x,-z
-x,-y,-z
y,-x+y,-z
x-y,x,-z
-x+y,y,z
x,x-y,z
-y,-x,z
loop_
_atom_site_type_symbol
_atom_site_label
_atom_site_fract_x
_atom_site_fract_y
_atom_site_fract_z
Si Si1 0.341315 0.924282 0.411074
Si Si2 0.893920 0.446960 0.128743
Si Si3 0.530173 0.060345 0.789305
Si Si4 0.696473 0.918575 0.846690
Si Si5 0.779990 0.701760 0.800343
Si Si6 0.545188 0.699691 0.710077
O O1 0.397108 0.918538 0.299929
O O2 0.271126 0.909522 0.314765
O O3 0.319012 0.858957 0.530816
O O4 0.376842 0.000000 0.500000
O O5 0.851524 0.365451 0.189428
O O6 0.974712 0.487356 0.191340
O O7 0.894540 0.447270 0.945772
O O8 0.718705 0.859353 0.799533
O O9 0.625610 0.907153 0.759336
O O10 0.763860 0.995512 0.792068
O O11 0.674589 0.911628 0.024919
O O12 0.864050 0.728100 0.760087
O O13 0.532070 0.766035 0.740202
#
# Coordination Sequence:
#
# PCOD8323574 Si02
#       6
#    12   6   6  12  12  12
#     4  12  20  33  52  82 111 139 169 221 269 326
#     4  11  21  38  57  84 103 142 183 226 269 318
#     4  11  22  35  60  81 110 135 180 229 274 317
#     4   9  18  33  52  75 105 142 180 221 262 317
#     4  10  19  32  51  77 109 141 176 218 272 318
#     4  11  22  36  55  79 109 141 179 219 268 321
#
# _framework density 17.488887999999999
#
# number of rings (size 3 to 8) (size 9 to 14) (size 15 to 20)
#    0.000    1.400    4.000    2.700    0.000    3.200 
#    0.600    1.000    0.000    0.400    0.000    2.800 
#    0.000    0.800    0.000    0.000    0.000    0.000 
#
# Total GULP energy -743972.646921 kJ/mol
# GULP energy per Si atom -12399.544115 kJ/mol
# Density = 1.744908 g / cm^3
# Si number density = 17.488888 Si / 1000 Ang^3
#
#
#
# Elastic Constant Matrix: (Units=GPa)
#
#
# Indices 1 2 3 4 5 6 
#
# 1 104.2346 73.6752 50.7585 -60.3610 0.0000 0.0000
# 2 73.6752 104.2346 50.7585 60.3610 0.0000 0.0000
# 3 50.7585 50.7585 93.9395 0.0000 0.0000 0.0000
# 4 -60.3610 60.3610 0.0000 -461.4569 0.0000 0.0000
# 5 0.0000 0.0000 0.0000 0.0000 -461.4569 -60.3610
# 6 0.0000 0.0000 0.0000 0.0000 -60.3610 15.2797
#
#
#
# Elastic Compliance Matrix: (Units=1/GPa)
#
#
# Indices 1 2 3 4 5 6 
#
# 1 0.014851 -0.006724 -0.004391 -0.002822 0.000000 0.000000
# 2 -0.006724 0.014851 -0.004391 0.002822 0.000000 0.000000
# 3 -0.004391 -0.004391 0.015390 0.000000 0.000000 0.000000
# 4 -0.002822 0.002822 0.000000 -0.001429 0.000000 0.000000
# 5 0.000000 0.000000 0.000000 0.000000 -0.001429 -0.005644
# 6 0.000000 0.000000 0.000000 0.000000 -0.005644 0.043150
#
#
# Mechanical properties :
#
#
# Convention : Reuss Voigt Hill
#
# Bulk Modulus (GPa) = 71.02650 72.53255 71.77952
# Shear Modulus (GPa) = 41.29210 -173.04571 -65.87681
#
# Velocity S-wave (km/s) = 4.86433 -9.95796 -6.14407
# Velocity P-wave (km/s) = 8.49997 9.52108 3.03327
#
# Compressibility (1/GPa) = 0.01407925
#
# Stress axis : x y z
#
# Youngs Moduli (GPa) = 67.33758 67.33758 64.97628
#
# Poissons Ratio (x) = 0.45279 0.28530
# Poissons Ratio (y) = 0.45279 0.28530
# Poissons Ratio (z) = 0.29567 0.29567
#
# Static dielectric constant tensor:
#      x y z
#    x 3.247520 0.000000 0.000000 
#    y 0.000000 3.247520 0.000000 
#    z 0.000000 0.000000 3.494740 
# 
# 
# High freq. dielectric constant tensor:
#      x y z
#    x 1.664610 0.000000 0.000000 
#    y 0.000000 1.664610 0.000000 
#    z 0.000000 0.000000 1.692350 
# 
# From -- ./inp_files/1620.got.cif
#   From: 2010.03.12/outbox.cif.g09.slc.cpg/sg164_1_cif.got.tgz:1620.got - 2010.04.02 06:32:59.
