data_PCOD8323225
_publ_section_title
;
Structure prediction by ZEFSAII (Michael W. Deem and Ramdas Pophale) SiO2 
 PCOD8323225
Probable space group: P -3 1 C
;
_chemical_formula_sum "Si O2"
_cell_formula_units_Z 72
_cell_length_a 24.200932
_cell_length_b 24.200932
_cell_length_c 8.731558
_cell_angle_alpha 90.000000
_cell_angle_beta 90.000000
_cell_angle_gamma 120.000000
_cell_volume 4428.804989
_symmetry_space_group_name_H-M "P -3 1 C"
_symmetry_group_IT_number 163
_symmetry_cell_setting 'hexagonal'
loop_
_space_group_symop_operation_xyz
x,y,z
-y,x-y,z
-x+y,-x,z
-y,-x,1/2-z
-x+y,y,1/2-z
x,x-y,1/2-z
-x,-y,-z
y,-x+y,-z
x-y,x,-z
y,x,1/2+z
x-y,-y,1/2+z
-x,-x+y,1/2+z
loop_
_atom_site_type_symbol
_atom_site_label
_atom_site_fract_x
_atom_site_fract_y
_atom_site_fract_z
Si Si1 0.013289 0.727650 0.978855
Si Si2 0.470866 0.067395 0.707689
Si Si3 0.715860 0.797657 0.253729
Si Si4 0.254836 0.864074 0.674926
Si Si5 0.587902 0.636055 0.886501
Si Si6 0.431330 0.269405 0.663272
O O1 0.072684 0.749097 0.863914
O O2 0.953295 0.727768 0.905998
O O3 0.031372 0.779711 0.111020
O O4 0.992477 0.658575 0.045704
O O5 0.539696 0.079392 0.750000
O O6 0.462869 0.069030 0.524304
O O7 0.468529 0.126191 0.785425
O O8 0.418182 0.998126 0.768843
O O9 0.746637 0.873319 0.250000
O O10 0.640879 0.761196 0.283094
O O11 0.188575 0.811426 0.750000
O O12 0.312864 0.887562 0.796777
O O13 0.266363 0.832852 0.522253
O O14 0.461163 0.230582 0.750000
#
# Coordination Sequence:
#
# PCOD8323225 Si02
#       6
#    12  12  12  12  12  12
#     4  11  18  32  48  67 109 132 170 214 245 301
#     4  12  22  34  52  74 103 146 180 219 274 328
#     4  10  20  30  50  71  98 142 176 201 262 312
#     4  11  21  31  54  78  99 141 178 210 266 319
#     4  12  19  36  47  73 111 138 179 216 263 317
#     4  10  19  35  51  74 102 127 176 227 262 322
#
# _framework density 16.257207000000001
#
# number of rings (size 3 to 8) (size 9 to 14) (size 15 to 20)
#    0.000    1.000    8.333    1.500    4.667    0.000 
#    0.000    0.000    0.000    0.333    0.000    0.000 
#    0.000    0.000    0.000   19.500    0.000    0.500 
#
# Total GULP energy -892592.264934 kJ/mol
# GULP energy per Si atom -12397.114791 kJ/mol
# Density = 1.622021 g / cm^3
# Si number density = 16.257207 Si / 1000 Ang^3
#
#
#
# Elastic Constant Matrix: (Units=GPa)
#
#
# Indices 1 2 3 4 5 6 
#
# 1 62.2850 38.6423 43.3946 0.0004 0.6904 0.0000
# 2 38.6423 62.2850 43.3946 -0.0004 -0.6904 0.0000
# 3 43.3946 43.3946 107.2473 0.0000 0.0000 0.0000
# 4 0.0004 -0.0004 0.0000 23.0494 0.0000 -0.6904
# 5 0.6904 -0.6904 0.0000 0.0000 23.0494 0.0004
# 6 0.0000 0.0000 0.0000 -0.6904 0.0004 11.8214
#
#
#
# Elastic Compliance Matrix: (Units=1/GPa)
#
#
# Indices 1 2 3 4 5 6 
#
# 1 0.028783 -0.013588 -0.006148 -0.000001 -0.001269 0.000000
# 2 -0.013588 0.028783 -0.006148 0.000001 0.001269 0.000000
# 3 -0.006148 -0.006148 0.014300 0.000000 0.000000 0.000000
# 4 -0.000001 0.000001 0.000000 0.043461 0.000000 0.002538
# 5 -0.001269 0.001269 0.000000 0.000000 0.043461 -0.000002
# 6 0.000000 0.000000 0.000000 0.002538 -0.000002 0.084741
#
#
# Mechanical properties :
#
#
# Convention : Reuss Voigt Hill
#
# Bulk Modulus (GPa) = 49.75903 53.63114 51.69508
# Shear Modulus (GPa) = 16.55652 18.67640 17.61646
#
# Velocity S-wave (km/s) = 3.19472 3.39308 3.29539
# Velocity P-wave (km/s) = 6.65448 6.95783 6.80785
#
# Compressibility (1/GPa) = 0.02009685
#
# Stress axis : x y z
#
# Youngs Moduli (GPa) = 34.74299 34.74299 69.93140
#
# Poissons Ratio (x) = 0.47207 0.42996
# Poissons Ratio (y) = 0.47207 0.42996
# Poissons Ratio (z) = 0.21361 0.21361
#
# Static dielectric constant tensor:
#      x y z
#    x 2.792490 0.000000 0.000000 
#    y 0.000000 2.792490 0.000000 
#    z 0.000000 0.000000 3.543580 
# 
# 
# High freq. dielectric constant tensor:
#      x y z
#    x 1.595480 0.000000 0.000000 
#    y 0.000000 1.595480 0.000000 
#    z 0.000000 0.000000 1.652320 
# 
# From -- ./inp_files/1210.got.cif
#   From: 2010.03.12/outbox.cif.g09.slc.cpg/sg163_1_cif.got.tgz:1210.got - 2010.04.02 06:30:25.
