data_PCOD8323367
_publ_section_title
;
Structure prediction by ZEFSAII (Michael W. Deem and Ramdas Pophale) SiO2 
 PCOD8323367
Probable space group: P -3 M 1
;
_chemical_formula_sum "Si O2"
_cell_formula_units_Z 96
_cell_length_a 18.179793
_cell_length_b 18.179793
_cell_length_c 20.616842
_cell_angle_alpha 90.000000
_cell_angle_beta 90.000000
_cell_angle_gamma 120.000000
_cell_volume 5901.068313
_symmetry_space_group_name_H-M "P -3 M 1"
_symmetry_group_IT_number 164
_symmetry_cell_setting 'hexagonal'
loop_
_space_group_symop_operation_xyz
x,y,z
-y,x-y,z
-x+y,-x,z
x-y,-y,-z
-x,-x+y,-z
y,x,-z
-x,-y,-z
y,-x+y,-z
x-y,x,-z
-x+y,y,z
x,x-y,z
-y,-x,z
loop_
_atom_site_type_symbol
_atom_site_label
_atom_site_fract_x
_atom_site_fract_y
_atom_site_fract_z
Si Si1 0.332933 0.497158 0.942671
Si Si2 0.013764 0.592279 0.855337
Si Si3 0.423650 0.014118 0.291281
Si Si4 0.834345 0.498598 0.538622
Si Si5 0.739081 0.643535 0.636902
Si Si6 0.561380 0.862149 0.597913
Si Si7 0.204639 0.244690 0.569043
Si Si8 0.496750 0.333086 0.905702
O O1 0.247184 0.494368 0.921190
O O2 0.410277 0.589724 0.924200
O O3 0.338298 0.423008 0.903066
O O4 0.333316 0.478805 0.018309
O O5 0.006905 0.503453 0.872360
O O6 0.044279 0.621884 0.781766
O O7 0.919256 0.576978 0.868585
O O8 0.489824 0.979648 0.296778
O O9 0.451573 0.091189 0.341300
O O10 0.328424 0.939717 0.305245
O O11 0.737895 0.475789 0.549422
O O12 0.846281 0.423141 0.568715
O O13 0.897630 0.587648 0.573561
O O14 0.855018 0.502135 0.462193
O O15 0.813738 0.627475 0.660014
O O16 0.779721 0.744150 0.621016
O O17 0.538817 0.769409 0.623330
O O18 0.654160 0.909454 0.566220
O O19 0.203940 0.203940 0.500000
O O20 0.106177 0.212353 0.589432
O O21 0.489986 0.244993 0.883734
O O22 0.591102 0.408899 0.888117
#
# Coordination Sequence:
#
# PCOD8323367 Si02
#       8
#    12  12  12  12  12  12  12  12
#     4   9  16  27  45  68  92 119 150 184 219 260
#     4   9  18  30  42  61  92 123 151 185 224 256
#     4  10  20  32  46  65  88 120 158 187 212 256
#     4  10  18  29  45  66  90 116 148 187 228 265
#     4  10  20  33  48  66  88 115 146 183 227 269
#     4   9  18  30  45  64  86 113 145 182 222 261
#     4  10  17  29  47  66  85 105 132 168 216 272
#     4   9  16  27  45  67  90 118 153 188 222 259
#
# _framework density 16.268241
#
# number of rings (size 3 to 8) (size 9 to 14) (size 15 to 20)
#    0.000    2.500    1.250    1.875    0.000    3.500 
#    0.000    1.875    0.000    2.750    0.000    0.000 
#    0.000    0.000    0.000    0.375    0.000    5.625 
#
# Total GULP energy -1189883.481670 kJ/mol
# GULP energy per Si atom -12394.619601 kJ/mol
# Density = 1.623121 g / cm^3
# Si number density = 16.268241 Si / 1000 Ang^3
#
#
#
# Elastic Constant Matrix: (Units=GPa)
#
#
# Indices 1 2 3 4 5 6 
#
# 1 67.3783 30.8568 22.3695 -0.2371 0.0000 0.0000
# 2 30.8568 67.3783 22.3695 0.2371 0.0000 0.0000
# 3 22.3695 22.3695 49.2543 0.0000 0.0000 0.0000
# 4 -0.2371 0.2371 0.0000 17.9971 0.0000 0.0000
# 5 0.0000 0.0000 0.0000 0.0000 17.9971 -0.2371
# 6 0.0000 0.0000 0.0000 0.0000 -0.2371 18.2607
#
#
#
# Elastic Compliance Matrix: (Units=1/GPa)
#
#
# Indices 1 2 3 4 5 6 
#
# 1 0.020110 -0.007276 -0.005829 0.000361 0.000000 0.000000
# 2 -0.007276 0.020110 -0.005829 -0.000361 0.000000 0.000000
# 3 -0.005829 -0.005829 0.025597 0.000000 0.000000 0.000000
# 4 0.000361 -0.000361 0.000000 0.055574 0.000000 0.000000
# 5 0.000000 0.000000 0.000000 0.000000 0.055574 0.000722
# 6 0.000000 0.000000 0.000000 0.000000 0.000722 0.054772
#
#
# Mechanical properties :
#
#
# Convention : Reuss Voigt Hill
#
# Bulk Modulus (GPa) = 35.77760 37.24470 36.51115
# Shear Modulus (GPa) = 17.92622 18.07865 18.00244
#
# Velocity S-wave (km/s) = 3.32311 3.33721 3.33017
# Velocity P-wave (km/s) = 6.06334 6.14761 6.10562
#
# Compressibility (1/GPa) = 0.02795045
#
# Stress axis : x y z
#
# Youngs Moduli (GPa) = 49.72636 49.72636 39.06658
#
# Poissons Ratio (x) = 0.36180 0.22771
# Poissons Ratio (y) = 0.36180 0.22771
# Poissons Ratio (z) = 0.28985 0.28985
#
# Static dielectric constant tensor:
#      x y z
#    x 3.102280 0.000000 0.000000 
#    y 0.000000 3.102280 0.000000 
#    z 0.000000 0.000000 2.872010 
# 
# 
# High freq. dielectric constant tensor:
#      x y z
#    x 1.613890 0.000000 0.000000 
#    y 0.000000 1.613890 0.000000 
#    z 0.000000 0.000000 1.605810 
# 
# From -- ./inp_files/4691.got.cif
#   From: 2010.03.12/outbox.cif.g09.slc.cpg/sg164_3_cif.got.tgz:4691.got - 2010.04.02 06:32:59.
