data_PCOD8323359
_publ_section_title
;
Structure prediction by ZEFSAII (Michael W. Deem and Ramdas Pophale) SiO2 
 PCOD8323359
Probable space group: P -3 M 1
;
_chemical_formula_sum "Si O2"
_cell_formula_units_Z 48
_cell_length_a 26.444014
_cell_length_b 26.444014
_cell_length_c 5.159816
_cell_angle_alpha 90.000000
_cell_angle_beta 90.000000
_cell_angle_gamma 120.000000
_cell_volume 3124.781131
_symmetry_space_group_name_H-M "P -3 M 1"
_symmetry_group_IT_number 164
_symmetry_cell_setting 'hexagonal'
loop_
_space_group_symop_operation_xyz
x,y,z
-y,x-y,z
-x+y,-x,z
x-y,-y,-z
-x,-x+y,-z
y,x,-z
-x,-y,-z
y,-x+y,-z
x-y,x,-z
-x+y,y,z
x,x-y,z
-y,-x,z
loop_
_atom_site_type_symbol
_atom_site_label
_atom_site_fract_x
_atom_site_fract_y
_atom_site_fract_z
Si Si1 0.651751 0.069320 0.999697
Si Si2 0.819506 0.754885 0.463921
Si Si3 0.408643 0.930644 0.500285
Si Si4 0.320315 0.102297 0.964191
O O1 0.631765 0.091606 0.752384
O O2 0.720927 0.099237 0.000814
O O3 0.632454 0.091649 0.249086
O O4 0.624323 0.000000 0.000000
O O5 0.810680 0.810680 0.500000
O O6 0.888501 0.777002 0.480821
O O7 0.783944 0.707793 0.686220
O O8 0.792605 0.726093 0.188325
O O9 0.452251 0.904501 0.502093
O O10 0.446339 0.000000 0.500000
O O11 0.339987 0.169994 0.983590
#
# Coordination Sequence:
#
# PCOD8323359 Si02
#       4
#    12  12  12  12
#     4  10  17  26  42  59  80 112 143 169 199 240
#     4  10  19  31  46  63  85 111 143 183 223 267
#     4   9  17  27  39  58  82 108 138 168 195 226
#     4  10  20  31  44  64  88 114 144 179 216 255
#
# _framework density 15.361076000000001
#
# number of rings (size 3 to 8) (size 9 to 14) (size 15 to 20)
#    0.000    2.250    0.000    4.500    0.000    5.000 
#    0.000    0.000    0.000    0.250    0.000    0.000 
#    0.000    6.000    0.000   15.000    0.000    1.000 
#
# Total GULP energy -595269.197239 kJ/mol
# GULP energy per Si atom -12401.441609 kJ/mol
# Density = 1.532611 g / cm^3
# Si number density = 15.361076 Si / 1000 Ang^3
#
#
#
# Elastic Constant Matrix: (Units=GPa)
#
#
# Indices 1 2 3 4 5 6 
#
# 1 85.4072 33.9044 24.8606 1.1497 0.0000 0.0000
# 2 33.9044 85.4072 24.8606 -1.1497 0.0000 0.0000
# 3 24.8606 24.8606 106.4149 0.0000 0.0000 0.0000
# 4 1.1497 -1.1497 0.0000 15.7411 0.0000 0.0000
# 5 0.0000 0.0000 0.0000 0.0000 15.7411 1.1497
# 6 0.0000 0.0000 0.0000 0.0000 1.1497 25.7514
#
#
#
# Elastic Compliance Matrix: (Units=1/GPa)
#
#
# Indices 1 2 3 4 5 6 
#
# 1 0.014383 -0.005097 -0.002169 -0.001423 0.000000 0.000000
# 2 -0.005097 0.014383 -0.002169 0.001423 0.000000 0.000000
# 3 -0.002169 -0.002169 0.010411 0.000000 0.000000 0.000000
# 4 -0.001423 0.001423 0.000000 0.063736 0.000000 0.000000
# 5 0.000000 0.000000 0.000000 0.000000 0.063736 -0.002846
# 6 0.000000 0.000000 0.000000 0.000000 -0.002846 0.038960
#
#
# Mechanical properties :
#
#
# Convention : Reuss Voigt Hill
#
# Bulk Modulus (GPa) = 49.25002 49.38671 49.31837
# Shear Modulus (GPa) = 21.62187 24.35363 22.98775
#
# Velocity S-wave (km/s) = 3.75584 3.98604 3.87265
# Velocity P-wave (km/s) = 7.13720 7.30788 7.22304
#
# Compressibility (1/GPa) = 0.02030456
#
# Stress axis : x y z
#
# Youngs Moduli (GPa) = 69.52803 69.52803 96.05461
#
# Poissons Ratio (x) = 0.35440 0.20837
# Poissons Ratio (y) = 0.35440 0.20837
# Poissons Ratio (z) = 0.15082 0.15082
#
# Static dielectric constant tensor:
#      x y z
#    x 2.779160 0.000000 0.000000 
#    y 0.000000 2.779160 0.000000 
#    z 0.000000 0.000000 3.293070 
# 
# 
# High freq. dielectric constant tensor:
#      x y z
#    x 1.560770 0.000000 0.000000 
#    y 0.000000 1.560770 0.000000 
#    z 0.000000 0.000000 1.616960 
# 
# From -- ./inp_files/479.got.cif
#   From: 2010.03.12/outbox.cif.g09.slc.cpg/sg164_1_cif.got.tgz:479.got - 2010.04.02 06:32:59.
