data_PCOD8323472
_publ_section_title
;
Structure prediction by ZEFSAII (Michael W. Deem and Ramdas Pophale) SiO2 
 PCOD8323472
Probable space group: P -3 M 1
;
_chemical_formula_sum "Si O2"
_cell_formula_units_Z 60
_cell_length_a 19.822496
_cell_length_b 19.822496
_cell_length_c 9.871037
_cell_angle_alpha 90.000000
_cell_angle_beta 90.000000
_cell_angle_gamma 120.000000
_cell_volume 3359.000661
_symmetry_space_group_name_H-M "P -3 M 1"
_symmetry_group_IT_number 164
_symmetry_cell_setting 'hexagonal'
loop_
_space_group_symop_operation_xyz
x,y,z
-y,x-y,z
-x+y,-x,z
x-y,-y,-z
-x,-x+y,-z
y,x,-z
-x,-y,-z
y,-x+y,-z
x-y,x,-z
-x+y,y,z
x,x-y,z
-y,-x,z
loop_
_atom_site_type_symbol
_atom_site_label
_atom_site_fract_x
_atom_site_fract_y
_atom_site_fract_z
Si Si1 0.079992 0.308977 0.779002
Si Si2 0.288952 0.863371 0.534463
Si Si3 0.570476 0.708816 0.006127
Si Si4 0.662004 0.752570 0.266742
Si Si5 0.076535 0.538268 0.909840
Si Si6 0.461763 0.923525 0.591210
O O1 0.134522 0.269043 0.768259
O O2 0.106962 0.376714 0.670109
O O3 0.989397 0.246169 0.758777
O O4 0.090951 0.349537 0.923477
O O5 0.227059 0.772942 0.506502
O O6 0.287392 0.915352 0.410708
O O7 0.372175 0.870837 0.551045
O O8 0.538810 0.769405 0.000213
O O9 0.594866 0.700203 0.158358
O O10 0.501793 0.628714 0.947987
O O11 0.684160 0.842080 0.260980
O O12 0.055023 0.527512 0.750798
O O13 0.000000 0.500000 0.000000
O O14 0.500000 0.000000 0.500000
#
# Coordination Sequence:
#
# PCOD8323472 Si02
#       6
#    12  12  12  12   6   6
#     4  10  18  33  55  78 109 137 177 221 263 319
#     4  10  22  37  54  79 108 141 182 223 274 326
#     4  10  22  37  54  79 108 141 182 223 274 326
#     4  10  20  35  55  80 109 143 177 223 273 323
#     4  12  24  36  58  84 112 142 186 234 280 328
#     4  12  24  36  58  84 112 142 186 234 280 328
#
# _framework density 17.862455000000001
#
# number of rings (size 3 to 8) (size 9 to 14) (size 15 to 20)
#    0.000    1.600    2.000    3.600    2.800    0.000 
#    1.200    0.000    0.000    0.400    0.000    0.000 
#    0.000    9.600    0.000    0.000    0.000    1.600 
#
# Total GULP energy -744039.690939 kJ/mol
# GULP energy per Si atom -12400.661516 kJ/mol
# Density = 1.782180 g / cm^3
# Si number density = 17.862455 Si / 1000 Ang^3
#
#
#
# Elastic Constant Matrix: (Units=GPa)
#
#
# Indices 1 2 3 4 5 6 
#
# 1 100.4416 56.1770 27.0493 2.1431 0.0000 0.0000
# 2 56.1770 100.4416 27.0493 -2.1431 0.0000 0.0000
# 3 27.0493 27.0493 65.0988 0.0000 0.0000 0.0000
# 4 2.1431 -2.1431 0.0000 23.5995 0.0000 0.0000
# 5 0.0000 0.0000 0.0000 0.0000 23.5995 2.1431
# 6 0.0000 0.0000 0.0000 0.0000 2.1431 22.1323
#
#
#
# Elastic Compliance Matrix: (Units=1/GPa)
#
#
# Indices 1 2 3 4 5 6 
#
# 1 0.015123 -0.007668 -0.003098 -0.002070 0.000000 0.000000
# 2 -0.007668 0.015123 -0.003098 0.002070 0.000000 0.000000
# 3 -0.003098 -0.003098 0.017935 0.000000 0.000000 0.000000
# 4 -0.002070 0.002070 0.000000 0.042750 0.000000 0.000000
# 5 0.000000 0.000000 0.000000 0.000000 0.042750 -0.004140
# 6 0.000000 0.000000 0.000000 0.000000 -0.004140 0.045584
#
#
# Mechanical properties :
#
#
# Convention : Reuss Voigt Hill
#
# Bulk Modulus (GPa) = 48.88813 54.05922 51.47368
# Shear Modulus (GPa) = 23.38514 24.24668 23.81591
#
# Velocity S-wave (km/s) = 3.62218 3.68830 3.65539
# Velocity P-wave (km/s) = 6.70240 6.96189 6.83338
#
# Compressibility (1/GPa) = 0.02045486
#
# Stress axis : x y z
#
# Youngs Moduli (GPa) = 66.12282 66.12282 55.75554
#
# Poissons Ratio (x) = 0.50706 0.17271
# Poissons Ratio (y) = 0.50706 0.17271
# Poissons Ratio (z) = 0.20482 0.20482
#
# Static dielectric constant tensor:
#      x y z
#    x 3.300160 0.000000 0.000000 
#    y 0.000000 3.300160 0.000000 
#    z 0.000000 0.000000 3.638010 
# 
# 
# High freq. dielectric constant tensor:
#      x y z
#    x 1.677120 0.000000 0.000000 
#    y 0.000000 1.677120 0.000000 
#    z 0.000000 0.000000 1.718570 
# 
# From -- ./inp_files/1633.got.cif
#   From: 2010.03.12/outbox.cif.g09.slc.cpg/sg164_1_cif.got.tgz:1633.got - 2010.04.02 06:32:59.
