data_PCOD8323792
_publ_section_title
;
Structure prediction by ZEFSAII (Michael W. Deem and Ramdas Pophale) SiO2 
 PCOD8323792
Probable space group: P -3 M 1
;
_chemical_formula_sum "Si O2"
_cell_formula_units_Z 60
_cell_length_a 17.790938
_cell_length_b 17.790938
_cell_length_c 10.436063
_cell_angle_alpha 90.000000
_cell_angle_beta 90.000000
_cell_angle_gamma 120.000000
_cell_volume 2860.651917
_symmetry_space_group_name_H-M "P -3 M 1"
_symmetry_group_IT_number 164
_symmetry_cell_setting 'hexagonal'
loop_
_space_group_symop_operation_xyz
x,y,z
-y,x-y,z
-x+y,-x,z
x-y,-y,-z
-x,-x+y,-z
y,x,-z
-x,-y,-z
y,-x+y,-z
x-y,x,-z
-x+y,y,z
x,x-y,z
-y,-x,z
loop_
_atom_site_type_symbol
_atom_site_label
_atom_site_fract_x
_atom_site_fract_y
_atom_site_fract_z
Si Si1 0.173866 0.000188 0.144841
Si Si2 0.708830 0.767507 0.614185
Si Si3 0.163961 0.496260 0.204578
Si Si4 0.427958 0.402811 0.298479
Si Si5 0.164869 0.667217 0.910300
O O1 0.144925 0.072463 0.154905
O O2 0.249123 0.019832 0.247006
O O3 0.091882 0.908119 0.179846
O O4 0.207475 0.000000 0.000000
O O5 0.771691 0.771691 0.500000
O O6 0.690167 0.845084 0.595176
O O7 0.616442 0.677865 0.603845
O O8 0.240190 0.480379 0.257693
O O9 0.194715 0.597358 0.221154
O O10 0.076493 0.437149 0.281773
O O11 0.144905 0.468477 0.056898
O O12 0.520191 0.479810 0.352863
O O13 0.442496 0.367231 0.164689
O O14 0.200145 0.600073 0.896290
O O15 0.239608 0.760393 0.856595
#
# Coordination Sequence:
#
# PCOD8323792 Si02
#       5
#    12  12  12  12  12
#     4   9  18  34  58  88 121 156 193 233 278 330
#     4  11  24  41  61  86 117 152 190 232 279 334
#     4   9  17  29  48  76 111 151 192 235 283 335
#     4  10  21  36  54  77 106 142 186 236 287 337
#     4   9  16  28  48  76 111 149 189 232 281 338
#
# _framework density 20.974240000000002
#
# number of rings (size 3 to 8) (size 9 to 14) (size 15 to 20)
#    0.000    2.400    0.000    2.400    0.000    8.400 
#    0.000    4.000    0.000    3.600    0.000    1.400 
#    0.000    0.000    0.000    0.000    0.000    0.200 
#
# Total GULP energy -743883.227697 kJ/mol
# GULP energy per Si atom -12398.053795 kJ/mol
# Density = 2.092650 g / cm^3
# Si number density = 20.974240 Si / 1000 Ang^3
#
#
#
# Elastic Constant Matrix: (Units=GPa)
#
#
# Indices 1 2 3 4 5 6 
#
# 1 123.1823 62.7069 37.9668 3.7576 0.0000 0.0000
# 2 62.7069 123.1823 37.9668 -3.7576 0.0000 0.0000
# 3 37.9668 37.9668 75.5209 0.0000 0.0000 0.0000
# 4 3.7576 -3.7576 0.0000 24.3800 0.0000 0.0000
# 5 0.0000 0.0000 0.0000 0.0000 24.3800 3.7576
# 6 0.0000 0.0000 0.0000 0.0000 3.7576 30.2377
#
#
#
# Elastic Compliance Matrix: (Units=1/GPa)
#
#
# Indices 1 2 3 4 5 6 
#
# 1 0.011814 -0.005044 -0.003403 -0.002598 0.000000 0.000000
# 2 -0.005044 0.011814 -0.003403 0.002598 0.000000 0.000000
# 3 -0.003403 -0.003403 0.016663 0.000000 0.000000 0.000000
# 4 -0.002598 0.002598 0.000000 0.041818 0.000000 0.000000
# 5 0.000000 0.000000 0.000000 0.000000 0.041818 -0.005197
# 6 0.000000 0.000000 0.000000 0.000000 -0.005197 0.033717
#
#
# Mechanical properties :
#
#
# Convention : Reuss Voigt Hill
#
# Bulk Modulus (GPa) = 60.27956 66.57405 63.42680
# Shear Modulus (GPa) = 26.75556 28.01589 27.38573
#
# Velocity S-wave (km/s) = 3.57548 3.65873 3.61734
# Velocity P-wave (km/s) = 6.77109 7.04685 6.91035
#
# Compressibility (1/GPa) = 0.01658937
#
# Stress axis : x y z
#
# Youngs Moduli (GPa) = 84.64420 84.64420 60.01193
#
# Poissons Ratio (x) = 0.42698 0.20424
# Poissons Ratio (y) = 0.42698 0.20424
# Poissons Ratio (z) = 0.28808 0.28808
#
# Static dielectric constant tensor:
#      x y z
#    x 3.816210 0.000000 0.000000 
#    y 0.000000 3.816210 0.000000 
#    z 0.000000 0.000000 3.517100 
# 
# 
# High freq. dielectric constant tensor:
#      x y z
#    x 1.824920 0.000000 0.000000 
#    y 0.000000 1.824920 0.000000 
#    z 0.000000 0.000000 1.795030 
# 
# From -- ./inp_files/2711.got.cif
#   From: 2010.03.12/outbox.cif.g09.slc.cpg/sg164_2_cif.got.tgz:2711.got - 2010.04.02 06:32:59.
