data_PCOD8323597
_publ_section_title
;
Structure prediction by ZEFSAII (Michael W. Deem and Ramdas Pophale) SiO2 
 PCOD8323597
Probable space group: P -3 M 1
;
_chemical_formula_sum "Si O2"
_cell_formula_units_Z 54
_cell_length_a 24.682005
_cell_length_b 24.682005
_cell_length_c 5.247202
_cell_angle_alpha 90.000000
_cell_angle_beta 90.000000
_cell_angle_gamma 120.000000
_cell_volume 2768.339102
_symmetry_space_group_name_H-M "P -3 M 1"
_symmetry_group_IT_number 164
_symmetry_cell_setting 'hexagonal'
loop_
_space_group_symop_operation_xyz
x,y,z
-y,x-y,z
-x+y,-x,z
x-y,-y,-z
-x,-x+y,-z
y,x,-z
-x,-y,-z
y,-x+y,-z
x-y,x,-z
-x+y,y,z
x,x-y,z
-y,-x,z
loop_
_atom_site_type_symbol
_atom_site_label
_atom_site_fract_x
_atom_site_fract_y
_atom_site_fract_z
Si Si1 0.539915 0.707202 0.077419
Si Si2 0.833954 0.793419 0.744091
Si Si3 0.000000 0.392993 0.500000
Si Si4 0.273672 0.333333 0.166667
Si Si5 0.499380 0.873248 0.589238
O O1 0.524526 0.762263 0.106803
O O2 0.503170 0.666671 0.833317
O O3 0.615024 0.737486 0.024436
O O4 0.516877 0.666662 0.333316
O O5 0.830166 0.830166 0.500000
O O6 0.904405 0.808809 0.773459
O O7 0.789129 0.718311 0.691104
O O8 0.816455 0.816455 0.000000
O O9 0.956988 0.333332 0.666663
O O10 0.948357 0.404151 0.357769
O O11 0.290322 0.290322 0.000000
O O12 0.428930 0.857859 0.559887
#
# Coordination Sequence:
#
# PCOD8323597 Si02
#       5
#    12  12   6  12  12
#     4  11  23  39  62  88 122 160 203 248 298 353
#     4  11  23  39  62  88 122 160 203 248 298 353
#     4  10  19  36  56  92 128 158 189 232 302 374
#     4  10  19  36  56  92 128 158 189 232 302 374
#     4  11  23  39  62  88 122 160 203 248 298 353
#
# _framework density 19.506281000000001
#
# number of rings (size 3 to 8) (size 9 to 14) (size 15 to 20)
#    0.000    1.333    3.333    3.000    0.000    0.000 
#    0.000   10.000    0.000   13.333    0.000    0.000 
#    0.000    0.000    0.000    0.000    0.000    0.000 
#
# Total GULP energy -669175.456830 kJ/mol
# GULP energy per Si atom -12392.138089 kJ/mol
# Density = 1.946188 g / cm^3
# Si number density = 19.506281 Si / 1000 Ang^3
#
#
#
# Elastic Constant Matrix: (Units=GPa)
#
#
# Indices 1 2 3 4 5 6 
#
# 1 111.8226 82.0897 48.7879 14.5866 0.0000 0.0000
# 2 82.0897 111.8226 48.7879 -14.5866 0.0000 0.0000
# 3 48.7879 48.7879 126.9374 0.0000 0.0000 0.0000
# 4 14.5866 -14.5866 0.0000 0.8035 0.0000 0.0000
# 5 0.0000 0.0000 0.0000 0.0000 0.8035 14.5866
# 6 0.0000 0.0000 0.0000 0.0000 14.5866 14.8665
#
#
#
# Elastic Compliance Matrix: (Units=1/GPa)
#
#
# Indices 1 2 3 4 5 6 
#
# 1 0.002197 0.004197 -0.002457 0.036317 0.000000 0.000000
# 2 0.004197 0.002197 -0.002457 -0.036317 0.000000 0.000000
# 3 -0.002457 -0.002457 0.009767 0.000000 0.000000 0.000000
# 4 0.036317 -0.036317 0.000000 -0.074027 0.000000 0.000000
# 5 0.000000 0.000000 0.000000 0.000000 -0.074027 0.072634
# 6 0.000000 0.000000 0.000000 0.000000 0.072634 -0.004001
#
#
# Mechanical properties :
#
#
# Convention : Reuss Voigt Hill
#
# Bulk Modulus (GPa) = 78.58834 78.87928 78.73381
# Shear Modulus (GPa) = -37.81637 14.68915 -11.56361
#
# Velocity S-wave (km/s) = -4.40782 2.74715 -2.43742
# Velocity P-wave (km/s) = 3.80408 7.11253 5.70347
#
# Compressibility (1/GPa) = 0.01272453
#
# Stress axis : x y z
#
# Youngs Moduli (GPa) = 455.26332 455.26332 102.38753
#
# Poissons Ratio (x) = -1.91072 0.25160
# Poissons Ratio (y) = -1.91072 0.25160
# Poissons Ratio (z) = 1.11872 1.11872
#
# Static dielectric constant tensor:
#      x y z
#    x 3.784190 0.000000 0.000000 
#    y 0.000000 3.784190 0.000000 
#    z 0.000000 0.000000 3.517520 
# 
# 
# High freq. dielectric constant tensor:
#      x y z
#    x 1.759030 0.000000 0.000000 
#    y 0.000000 1.759030 0.000000 
#    z 0.000000 0.000000 1.754030 
# 
# From -- ./inp_files/555.got.cif
#   From: 2010.03.12/outbox.cif.g09.slc.cpg/sg164_1_cif.got.tgz:555.got - 2010.04.02 06:32:59.
