data_PCOD8323060
_publ_section_title
;
Structure prediction by ZEFSAII (Michael W. Deem and Ramdas Pophale) SiO2 
 PCOD8323060
Probable space group: P -3 1 M 
;
_chemical_formula_sum "Si O2"
_cell_formula_units_Z 84
_cell_length_a 17.852315
_cell_length_b 17.852315
_cell_length_c 14.861330
_cell_angle_alpha 90.000000
_cell_angle_beta 90.000000
_cell_angle_gamma 120.000000
_cell_volume 4101.827497
_symmetry_space_group_name_H-M "P -3 1 M "
_symmetry_group_IT_number 162
_symmetry_cell_setting 'hexagonal'
loop_
_space_group_symop_operation_xyz
x,y,z
-y,x-y,z
-x+y,-x,z
-y,-x,-z
-x+y,y,-z
x,x-y,-z
-x,-y,-z
y,-x+y,-z
x-y,x,-z
y,x,z
x-y,-y,z
-x,-x+y,z
loop_
_atom_site_type_symbol
_atom_site_label
_atom_site_fract_x
_atom_site_fract_y
_atom_site_fract_z
Si Si1 0.900539 0.325615 0.611096
Si Si2 0.545767 0.103334 0.270276
Si Si3 0.096308 0.663996 0.583644
Si Si4 0.849948 0.135796 0.602562
Si Si5 0.221523 0.898604 0.075952
Si Si6 0.099808 0.903343 0.218197
Si Si7 0.605879 0.502956 0.079185
O O1 0.862717 0.357475 0.691596
O O2 0.855928 0.320754 0.513585
O O3 0.890598 0.234382 0.634186
O O4 0.000000 0.395984 0.600950
O O5 0.502689 0.142781 0.338011
O O6 0.551552 0.140878 0.171024
O O7 0.488591 0.000000 0.263814
O O8 0.089900 0.747260 0.610966
O O9 0.000000 0.583410 0.575047
O O10 0.875054 0.124947 0.500000
O O11 0.886638 0.094950 0.673750
O O12 0.166127 0.878770 0.168674
O O13 0.291723 0.865931 0.076505
O O14 0.270292 0.000000 0.053636
O O15 0.151550 0.848451 0.000000
O O16 0.000000 0.836905 0.192297
O O17 0.123344 0.000000 0.189376
O O18 0.553282 0.553282 0.076862
O O19 0.569568 0.430433 0.000000
#
# Coordination Sequence:
#
# PCOD8323060 Si02
#       7
#    12  12  12  12  12  12  12
#     4   9  17  28  45  71  99 129 169 217 268 320
#     4   9  16  28  47  70  97 126 156 197 249 308
#     4   9  16  28  47  70  97 132 174 217 264 320
#     4  10  20  33  50  75 109 147 189 240 292 340
#     4  10  21  38  60  85 112 145 188 241 299 353
#     4  11  23  38  56  79 110 151 199 249 301 356
#     4   9  18  32  51  77 106 133 164 208 270 343
#
# _framework density 20.478677000000001
#
# number of rings (size 3 to 8) (size 9 to 14) (size 15 to 20)
#    0.000    2.429    0.000    2.714    0.000    6.857 
#    0.000    2.857    0.000    4.000    0.000    4.000 
#    0.000    0.000    0.000    0.000    0.000    0.000 
#
# Total GULP energy -1040735.568787 kJ/mol
# GULP energy per Si atom -12389.709152 kJ/mol
# Density = 2.043207 g / cm^3
# Si number density = 20.478677 Si / 1000 Ang^3
#
#
#
# Elastic Constant Matrix: (Units=GPa)
#
#
# Indices 1 2 3 4 5 6 
#
# 1 72.7555 25.2791 43.2410 0.0002 0.6927 0.0000
# 2 25.2791 72.7555 43.2410 -0.0002 -0.6927 0.0000
# 3 43.2410 43.2410 137.4173 0.0000 0.0000 0.0000
# 4 0.0002 -0.0002 0.0000 25.7031 0.0000 -0.6927
# 5 0.6927 -0.6927 0.0000 0.0000 25.7031 0.0002
# 6 0.0000 0.0000 0.0000 -0.6927 0.0002 23.7382
#
#
#
# Elastic Compliance Matrix: (Units=1/GPa)
#
#
# Indices 1 2 3 4 5 6 
#
# 1 0.017600 -0.003480 -0.004443 0.000000 -0.000568 0.000000
# 2 -0.003480 0.017600 -0.004443 0.000000 0.000568 0.000000
# 3 -0.004443 -0.004443 0.010073 0.000000 0.000000 0.000000
# 4 0.000000 0.000000 0.000000 0.038937 0.000000 0.001136
# 5 -0.000568 0.000568 0.000000 0.000000 0.038937 0.000000
# 6 0.000000 0.000000 0.000000 0.001136 0.000000 0.042159
#
#
# Mechanical properties :
#
#
# Convention : Reuss Voigt Hill
#
# Bulk Modulus (GPa) = 48.68352 56.27231 52.47792
# Shear Modulus (GPa) = 25.39558 26.44000 25.91779
#
# Velocity S-wave (km/s) = 3.52532 3.59708 3.56139
# Velocity P-wave (km/s) = 6.35570 6.69255 6.52630
#
# Compressibility (1/GPa) = 0.02054083
#
# Stress axis : x y z
#
# Youngs Moduli (GPa) = 56.81865 56.81865 99.27185
#
# Poissons Ratio (x) = 0.19772 0.44108
# Poissons Ratio (y) = 0.19772 0.44108
# Poissons Ratio (z) = 0.25245 0.25245
#
# Static dielectric constant tensor:
#      x y z
#    x 3.519820 0.000000 0.000000 
#    y 0.000000 3.519820 0.000000 
#    z 0.000000 0.000000 4.000740 
# 
# 
# High freq. dielectric constant tensor:
#      x y z
#    x 1.771990 0.000000 0.000000 
#    y 0.000000 1.771990 0.000000 
#    z 0.000000 0.000000 1.807720 
# 
# From -- ./inp_files/3193.got.cif
#   From: 2010.03.12/outbox.cif.g09.slc.cpg/sg162_2_cif.got.tgz:3193.got - 2010.04.02 06:27:41.
