data_PCOD8323877
_publ_section_title
;
Structure prediction by ZEFSAII (Michael W. Deem and Ramdas Pophale) SiO2 
 PCOD8323877
Probable space group: P -3 C 1
;
_chemical_formula_sum "Si O2"
_cell_formula_units_Z 60
_cell_length_a 14.378013
_cell_length_b 14.378013
_cell_length_c 15.665324
_cell_angle_alpha 90.000000
_cell_angle_beta 90.000000
_cell_angle_gamma 120.000000
_cell_volume 2804.579513
_symmetry_space_group_name_H-M "P -3 C 1"
_symmetry_group_IT_number 165
_symmetry_cell_setting 'hexagonal'
loop_
_space_group_symop_operation_xyz
x,y,z
-y,x-y,z
-x+y,-x,z
x-y,-y,1/2-z
-x,-x+y,1/2-z
y,x,1/2-z
-x,-y,-z
y,-x+y,-z
x-y,x,-z
-x+y,y,1/2+z
x,x-y,1/2+z
-y,-x,1/2+z
loop_
_atom_site_type_symbol
_atom_site_label
_atom_site_fract_x
_atom_site_fract_y
_atom_site_fract_z
Si Si1 0.834461 0.757222 0.513194
Si Si2 0.536789 0.435852 0.104406
Si Si3 0.090473 0.750639 0.312962
Si Si4 0.870323 0.546328 0.751816
Si Si5 0.544568 0.893866 0.563041
O O1 0.804170 0.849626 0.518089
O O2 0.830159 0.719146 0.609602
O O3 0.756786 0.659775 0.450910
O O4 0.421715 0.369122 0.151331
O O5 0.625334 0.455771 0.176937
O O6 0.564161 0.550579 0.068333
O O7 0.533659 0.367940 0.019245
O O8 0.198092 0.804467 0.258829
O O9 0.000000 0.744023 0.250000
O O10 0.836329 0.493190 0.846649
O O11 0.000000 0.624576 0.750000
#
# Coordination Sequence:
#
# PCOD8323877 Si02
#       5
#    12  12  12  12  12
#     4  11  22  37  57  86 122 163 209 254 301 360
#     4   9  19  36  57  84 111 150 199 251 300 360
#     4  11  22  36  59  88 117 160 207 251 306 372
#     4  10  19  36  59  85 121 158 198 249 305 364
#     4   9  18  35  60  83 113 158 199 243 306 361
#
# _framework density 21.393583
#
# number of rings (size 3 to 8) (size 9 to 14) (size 15 to 20)
#    0.000    2.000    0.000    5.600    0.000    0.000 
#    1.200    4.000    0.000    0.400    5.200    0.000 
#    0.000    0.000    0.000    0.000    0.000    0.000 
#
# Total GULP energy -743390.328199 kJ/mol
# GULP energy per Si atom -12389.838803 kJ/mol
# Density = 2.134489 g / cm^3
# Si number density = 21.393583 Si / 1000 Ang^3
#
#
#
# Elastic Constant Matrix: (Units=GPa)
#
#
# Indices 1 2 3 4 5 6 
#
# 1 67.1340 16.9270 40.6420 -4.2440 0.0000 0.0000
# 2 16.9270 67.1340 40.6420 4.2440 0.0000 0.0000
# 3 40.6420 40.6420 203.2246 0.0000 0.0000 0.0000
# 4 -4.2440 4.2440 0.0000 17.9020 0.0000 0.0000
# 5 0.0000 0.0000 0.0000 0.0000 17.9020 -4.2440
# 6 0.0000 0.0000 0.0000 0.0000 -4.2440 25.1035
#
#
#
# Elastic Compliance Matrix: (Units=1/GPa)
#
#
# Indices 1 2 3 4 5 6 
#
# 1 0.017749 -0.003001 -0.002949 0.004919 0.000000 0.000000
# 2 -0.003001 0.017749 -0.002949 -0.004919 0.000000 0.000000
# 3 -0.002949 -0.002949 0.006100 0.000000 0.000000 0.000000
# 4 0.004919 -0.004919 0.000000 0.058192 0.000000 0.000000
# 5 0.000000 0.000000 0.000000 0.000000 0.058192 0.009838
# 6 0.000000 0.000000 0.000000 0.000000 0.009838 0.041498
#
#
# Mechanical properties :
#
#
# Convention : Reuss Voigt Hill
#
# Bulk Modulus (GPa) = 42.01876 59.32386 50.67131
# Shear Modulus (GPa) = 22.20136 28.13359 25.16748
#
# Velocity S-wave (km/s) = 3.22492 3.63029 3.43359
# Velocity P-wave (km/s) = 5.79226 6.73513 6.28141
#
# Compressibility (1/GPa) = 0.02379889
#
# Stress axis : x y z
#
# Youngs Moduli (GPa) = 56.34246 56.34246 163.92521
#
# Poissons Ratio (x) = 0.16906 0.48348
# Poissons Ratio (y) = 0.16906 0.48348
# Poissons Ratio (z) = 0.16618 0.16618
#
# Static dielectric constant tensor:
#      x y z
#    x 3.588910 0.000000 0.000000 
#    y 0.000000 3.588910 0.000000 
#    z 0.000000 0.000000 4.644770 
# 
# 
# High freq. dielectric constant tensor:
#      x y z
#    x 1.812290 0.000000 0.000000 
#    y 0.000000 1.812290 0.000000 
#    z 0.000000 0.000000 1.875580 
# 
# From -- ./inp_files/1661.got.cif
#   From: 2010.03.12/outbox.cif.g09.slc.cpg/sg165_1_cif.got.tgz:1661.got - 2010.04.02 06:36:38.
