data_PCOD8323988
_publ_section_title
;
Structure prediction by ZEFSAII (Michael W. Deem and Ramdas Pophale) SiO2 
 PCOD8323988
Probable space group: R -3 M
;
_chemical_formula_sum "Si O2"
_cell_formula_units_Z 216
_cell_length_a 25.474284
_cell_length_b 25.474284
_cell_length_c 24.424621
_cell_angle_alpha 90.000000
_cell_angle_beta 90.000000
_cell_angle_gamma 120.000000
_cell_volume 13726.582910
_symmetry_space_group_name_H-M "R -3 M"
_symmetry_group_IT_number 166
_symmetry_cell_setting 'hexagonal'
loop_
_space_group_symop_operation_xyz
x,y,z
-y,x-y,z
-x+y,-x,z
x-y,-y,-z
-x,-x+y,-z
y,x,-z
-x,-y,-z
y,-x+y,-z
x-y,x,-z
-x+y,y,z
x,x-y,z
-y,-x,z
2/3+x,1/3+y,1/3+z
2/3-y,1/3+x-y,1/3+z
2/3-x+y,1/3-x,1/3+z
2/3+x-y,1/3-y,1/3-z
2/3-x,1/3-x+y,1/3-z
2/3+y,1/3+x,1/3-z
2/3-x,1/3-y,1/3-z
2/3+y,1/3-x+y,1/3-z
2/3+x-y,1/3+x,1/3-z
2/3-x+y,1/3+y,1/3+z
2/3+x,1/3+x-y,1/3+z
2/3-y,1/3-x,1/3+z
1/3+x,2/3+y,2/3+z
1/3-y,2/3+x-y,2/3+z
1/3-x+y,2/3-x,2/3+z
1/3+x-y,2/3-y,2/3-z
1/3-x,2/3-x+y,2/3-z
1/3+y,2/3+x,2/3-z
1/3-x,2/3-y,2/3-z
1/3+y,2/3-x+y,2/3-z
1/3+x-y,2/3+x,2/3-z
1/3-x+y,2/3+y,2/3+z
1/3+x,2/3+x-y,2/3+z
1/3-y,2/3-x,2/3+z
loop_
_atom_site_type_symbol
_atom_site_label
_atom_site_fract_x
_atom_site_fract_y
_atom_site_fract_z
Si Si1 0.311785 0.376733 0.881681
Si Si2 0.183864 0.934116 0.481503
Si Si3 0.846332 0.270802 0.358660
Si Si4 0.041711 0.640352 0.049766
Si Si5 0.420723 0.960130 0.349179
Si Si6 0.797030 0.083207 0.854555
O O1 0.269982 0.333334 0.833334
O O2 0.341631 0.341820 0.913421
O O3 0.271623 0.391727 0.922592
O O4 0.363922 0.440824 0.857499
O O5 0.112129 0.887872 0.484863
O O6 0.205170 0.935219 0.418981
O O7 0.220580 0.913218 0.521726
O O8 0.196857 0.000000 0.500000
O O9 0.774325 0.225676 0.358557
O O10 0.857428 0.333334 0.333334
O O11 0.879350 0.245277 0.320127
O O12 0.872351 0.278494 0.419750
O O13 0.101637 0.700065 0.028300
O O14 0.000000 0.598543 0.000000
O O15 0.468551 0.937102 0.336862
O O16 0.865114 0.134886 0.838977
#
# Coordination Sequence:
#
# PCOD8323988 Si02
#       6
#    36  36  36  36  36  36
#     4  10  17  27  42  60  87 115 143 174 207 244
#     4  10  19  30  45  66  87 110 142 177 213 250
#     4  10  18  29  45  64  87 115 145 175 209 250
#     4   9  17  29  44  61  84 115 145 175 207 243
#     4  10  19  28  41  62  88 117 144 171 207 253
#     4   9  17  29  46  64  85 115 145 173 205 245
#
# _framework density 15.735891000000001
#
# number of rings (size 3 to 8) (size 9 to 14) (size 15 to 20)
#    0.000    2.333    0.000    6.500    0.000    2.667 
#    0.000    3.333    0.000    0.333    0.000    0.000 
#    0.000    0.000    0.000    2.667    0.000    0.000 
#
# Total GULP energy -892680.587595 kJ/mol
# GULP energy per Si atom -12398.341494 kJ/mol
# Density = 1.570008 g / cm^3
# Si number density = 15.735891 Si / 1000 Ang^3
#
#
#
# Elastic Constant Matrix: (Units=GPa)
#
#
# Indices 1 2 3 4 5 6 
#
# 1 77.9092 40.5516 43.9965 0.6038 0.0000 0.0000
# 2 40.5516 77.9092 43.9965 -0.6038 0.0000 0.0000
# 3 43.9965 43.9965 100.4028 0.0000 0.0000 0.0000
# 4 0.6038 -0.6038 0.0000 22.3249 0.0000 0.0000
# 5 0.0000 0.0000 0.0000 0.0000 22.3249 0.6038
# 6 0.0000 0.0000 0.0000 0.0000 0.6038 18.6788
#
#
#
# Elastic Compliance Matrix: (Units=1/GPa)
#
#
# Indices 1 2 3 4 5 6 
#
# 1 0.019654 -0.007138 -0.005484 -0.000725 0.000000 0.000000
# 2 -0.007138 0.019654 -0.005484 0.000725 0.000000 0.000000
# 3 -0.005484 -0.005484 0.014766 0.000000 0.000000 0.000000
# 4 -0.000725 0.000725 0.000000 0.044832 0.000000 0.000000
# 5 0.000000 0.000000 0.000000 0.000000 0.044832 -0.001449
# 6 0.000000 0.000000 0.000000 0.000000 -0.001449 0.053583
#
#
# Mechanical properties :
#
#
# Convention : Reuss Voigt Hill
#
# Bulk Modulus (GPa) = 55.99096 57.03446 56.51271
# Shear Modulus (GPa) = 20.87791 21.17751 21.02771
#
# Velocity S-wave (km/s) = 3.64644 3.67251 3.65950
# Velocity P-wave (km/s) = 7.30668 7.36930 7.33806
#
# Compressibility (1/GPa) = 0.01786002
#
# Stress axis : x y z
#
# Youngs Moduli (GPa) = 50.88152 50.88152 67.72213
#
# Poissons Ratio (x) = 0.36320 0.37140
# Poissons Ratio (y) = 0.36320 0.37140
# Poissons Ratio (z) = 0.27904 0.27904
#
# Static dielectric constant tensor:
#      x y z
#    x 2.805240 0.000000 0.000000 
#    y 0.000000 2.805240 0.000000 
#    z 0.000000 0.000000 3.175110 
# 
# 
# High freq. dielectric constant tensor:
#      x y z
#    x 1.571880 0.000000 0.000000 
#    y 0.000000 1.571880 0.000000 
#    z 0.000000 0.000000 1.621590 
# 
# From -- ./inp_files/8645.got.cif
#   From: 2010.03.12/outbox.cif.g09.slc.cpg/sg166_5_cif.got.tgz:8645.got - 2010.04.02 06:38:31.
