data_PCOD8323212
_publ_section_title
;
Structure prediction by ZEFSAII (Michael W. Deem and Ramdas Pophale) SiO2 
 PCOD8323212
Probable space group: P -3 1 C
;
_chemical_formula_sum "Si O2"
_cell_formula_units_Z 48
_cell_length_a 18.642098
_cell_length_b 18.642098
_cell_length_c 9.934185
_cell_angle_alpha 90.000000
_cell_angle_beta 90.000000
_cell_angle_gamma 120.000000
_cell_volume 2989.870984
_symmetry_space_group_name_H-M "P -3 1 C"
_symmetry_group_IT_number 163
_symmetry_cell_setting 'hexagonal'
loop_
_space_group_symop_operation_xyz
x,y,z
-y,x-y,z
-x+y,-x,z
-y,-x,1/2-z
-x+y,y,1/2-z
x,x-y,1/2-z
-x,-y,-z
y,-x+y,-z
x-y,x,-z
y,x,1/2+z
x-y,-y,1/2+z
-x,-x+y,1/2+z
loop_
_atom_site_type_symbol
_atom_site_label
_atom_site_fract_x
_atom_site_fract_y
_atom_site_fract_z
Si Si1 0.964603 0.398436 0.250000
Si Si2 0.493897 0.827107 0.541727
Si Si3 0.141457 0.441890 0.250000
Si Si4 0.333210 0.827106 0.541727
O O1 0.993636 0.496818 0.250000
O O2 0.912028 0.354465 0.383753
O O3 0.042066 0.381656 0.250000
O O4 0.912028 0.354464 0.116248
O O5 0.501498 0.836880 0.381476
O O6 0.401069 0.802137 0.583189
O O7 0.511290 0.755645 0.592978
O O8 0.198502 0.397004 0.250000
O O9 0.163120 0.498501 0.381477
#
# Coordination Sequence:
#
# PCOD8323212 Si02
#       4
#    12  12  12  12
#     4  10  19  31  46  62  84 115 147 179 219 263
#     4  10  19  30  45  65  89 116 147 182 218 255
#     4  10  20  31  44  62  82 111 151 191 225 255
#     4  10  19  30  45  65  89 116 147 182 218 255
#
# _framework density 16.054206000000001
#
# number of rings (size 3 to 8) (size 9 to 14) (size 15 to 20)
#    0.000    2.000    0.000    5.000    0.000    4.000 
#    0.000    5.000    0.000    0.500    0.000    0.000 
#    0.000    0.000    0.000    6.000    0.000   90.000 
#
# Total GULP energy -594842.269096 kJ/mol
# GULP energy per Si atom -12392.547273 kJ/mol
# Density = 1.601767 g / cm^3
# Si number density = 16.054206 Si / 1000 Ang^3
#
#
#
# Elastic Constant Matrix: (Units=GPa)
#
#
# Indices 1 2 3 4 5 6 
#
# 1 106.9553 59.7551 29.6183 0.0000 0.0000 0.0000
# 2 59.7551 106.9553 29.6183 0.0000 0.0000 0.0000
# 3 29.6183 29.6183 87.1367 0.0000 0.0000 0.0000
# 4 0.0000 0.0000 0.0000 19.8118 0.0000 0.0000
# 5 0.0000 0.0000 0.0000 0.0000 19.8118 0.0000
# 6 0.0000 0.0000 0.0000 0.0000 0.0000 23.6001
#
#
#
# Elastic Compliance Matrix: (Units=1/GPa)
#
#
# Indices 1 2 3 4 5 6 
#
# 1 0.014004 -0.007182 -0.002319 0.000000 0.000000 0.000000
# 2 -0.007182 0.014004 -0.002319 0.000000 0.000000 0.000000
# 3 -0.002319 -0.002319 0.013053 0.000000 0.000000 0.000000
# 4 0.000000 0.000000 0.000000 0.050475 0.000000 0.000000
# 5 0.000000 0.000000 0.000000 0.000000 0.050475 0.000000
# 6 0.000000 0.000000 0.000000 0.000000 0.000000 0.042373
#
#
# Mechanical properties :
#
#
# Convention : Reuss Voigt Hill
#
# Bulk Modulus (GPa) = 57.40001 59.89231 58.64616
# Shear Modulus (GPa) = 23.38294 24.78178 24.08236
#
# Velocity S-wave (km/s) = 3.82055 3.93317 3.87727
# Velocity P-wave (km/s) = 7.43597 7.61667 7.52686
#
# Compressibility (1/GPa) = 0.01742160
#
# Stress axis : x y z
#
# Youngs Moduli (GPa) = 71.40619 71.40619 76.61252
#
# Poissons Ratio (x) = 0.51284 0.17766
# Poissons Ratio (y) = 0.51284 0.17766
# Poissons Ratio (z) = 0.16559 0.16559
#
# Static dielectric constant tensor:
#      x y z
#    x 2.974930 0.000000 0.000000 
#    y 0.000000 2.974930 0.000000 
#    z 0.000000 0.000000 3.364640 
# 
# 
# High freq. dielectric constant tensor:
#      x y z
#    x 1.586380 0.000000 0.000000 
#    y 0.000000 1.586380 0.000000 
#    z 0.000000 0.000000 1.647750 
# 
# From -- ./inp_files/860.got.cif
#   From: 2010.03.12/outbox.cif.g09.slc.cpg/sg163_1_cif.got.tgz:860.got - 2010.04.02 06:30:25.
