data_PCOD8323874
_publ_section_title
;
Structure prediction by ZEFSAII (Michael W. Deem and Ramdas Pophale) SiO2 
 PCOD8323874
Probable space group: P -3 C 1
;
_chemical_formula_sum "Si O2"
_cell_formula_units_Z 72
_cell_length_a 16.641287
_cell_length_b 16.641287
_cell_length_c 16.527788
_cell_angle_alpha 90.000000
_cell_angle_beta 90.000000
_cell_angle_gamma 120.000000
_cell_volume 3963.868026
_symmetry_space_group_name_H-M "P -3 C 1"
_symmetry_group_IT_number 165
_symmetry_cell_setting 'hexagonal'
loop_
_space_group_symop_operation_xyz
x,y,z
-y,x-y,z
-x+y,-x,z
x-y,-y,1/2-z
-x,-x+y,1/2-z
y,x,1/2-z
-x,-y,-z
y,-x+y,-z
x-y,x,-z
-x+y,y,1/2+z
x,x-y,1/2+z
-y,-x,1/2+z
loop_
_atom_site_type_symbol
_atom_site_label
_atom_site_fract_x
_atom_site_fract_y
_atom_site_fract_z
Si Si1 0.806103 0.974107 0.477876
Si Si2 0.477463 0.318816 0.084364
Si Si3 0.673978 0.046665 0.937075
Si Si4 0.268952 0.375881 0.733432
Si Si5 0.779061 0.699910 0.685816
Si Si6 0.852361 0.345322 0.119946
O O1 0.898739 0.073225 0.480085
O O2 0.727413 0.981212 0.527639
O O3 0.776109 0.946733 0.384617
O O4 0.397210 0.298041 0.148414
O O5 0.572062 0.402560 0.117740
O O6 0.485432 0.227000 0.070091
O O7 0.454502 0.350169 0.000005
O O8 0.720618 0.117960 0.861969
O O9 0.579364 0.952895 0.915809
O O10 0.319419 0.319419 0.750000
O O11 0.164708 0.309714 0.762712
O O12 0.316486 0.470630 0.785679
O O13 0.726925 0.726925 0.750000
#
# Coordination Sequence:
#
# PCOD8323874 Si02
#       6
#    12  12  12  12  12  12
#     4  11  21  35  54  78 110 145 181 226 275 323
#     4  10  21  36  55  80 106 140 176 220 274 324
#     4  10  19  35  57  79 104 139 183 221 262 323
#     4   9  18  34  54  76 103 139 176 216 266 319
#     4  10  21  34  53  79 105 138 181 224 267 322
#     4  10  20  36  55  76 107 139 172 217 271 321
#
# _framework density 18.164076000000001
#
# number of rings (size 3 to 8) (size 9 to 14) (size 15 to 20)
#    0.000    2.000    0.000    6.000    0.000    3.333 
#    0.000    3.333    0.000    0.333    0.000    0.000 
#    0.000    0.000    0.000    0.000    0.000    0.000 
#
# Total GULP energy -892769.325318 kJ/mol
# GULP energy per Si atom -12399.573963 kJ/mol
# Density = 1.812273 g / cm^3
# Si number density = 18.164076 Si / 1000 Ang^3
#
#
#
# Elastic Constant Matrix: (Units=GPa)
#
#
# Indices 1 2 3 4 5 6 
#
# 1 88.1386 19.0709 25.8128 1.9833 0.0000 0.0000
# 2 19.0709 88.1386 25.8128 -1.9833 0.0000 0.0000
# 3 25.8128 25.8128 83.2062 0.0000 0.0000 0.0000
# 4 1.9833 -1.9833 0.0000 20.6567 0.0000 0.0000
# 5 0.0000 0.0000 0.0000 0.0000 20.6567 1.9833
# 6 0.0000 0.0000 0.0000 0.0000 1.9833 34.5339
#
#
#
# Elastic Compliance Matrix: (Units=1/GPa)
#
#
# Indices 1 2 3 4 5 6 
#
# 1 0.012762 -0.001797 -0.003402 -0.001398 0.000000 0.000000
# 2 -0.001797 0.012762 -0.003402 0.001398 0.000000 0.000000
# 3 -0.003402 -0.003402 0.014129 0.000000 0.000000 0.000000
# 4 -0.001398 0.001398 0.000000 0.048679 0.000000 0.000000
# 5 0.000000 0.000000 0.000000 0.000000 0.048679 -0.002796
# 6 0.000000 0.000000 0.000000 0.000000 -0.002796 0.029118
#
#
# Mechanical properties :
#
#
# Convention : Reuss Voigt Hill
#
# Bulk Modulus (GPa) = 44.53755 44.54182 44.53969
# Shear Modulus (GPa) = 26.20355 27.75524 26.97939
#
# Velocity S-wave (km/s) = 3.80228 3.91324 3.85816
# Velocity P-wave (km/s) = 6.62188 6.70769 6.66492
#
# Compressibility (1/GPa) = 0.02245296
#
# Stress axis : x y z
#
# Youngs Moduli (GPa) = 78.35616 78.35616 70.77630
#
# Poissons Ratio (x) = 0.14077 0.24077
# Poissons Ratio (y) = 0.14077 0.24077
# Poissons Ratio (z) = 0.26656 0.26656
#
# Static dielectric constant tensor:
#      x y z
#    x 3.221350 0.000000 0.000000 
#    y 0.000000 3.221350 0.000000 
#    z 0.000000 0.000000 4.485790 
# 
# 
# High freq. dielectric constant tensor:
#      x y z
#    x 1.704290 0.000000 0.000000 
#    y 0.000000 1.704290 0.000000 
#    z 0.000000 0.000000 1.708880 
# 
# From -- ./inp_files/2260.got.cif
#   From: 2010.03.12/outbox.cif.g09.slc.cpg/sg165_2_cif.got.tgz:2260.got - 2010.04.02 06:36:38.
