data_PCOD8323907
_publ_section_title
;
Structure prediction by ZEFSAII (Michael W. Deem and Ramdas Pophale) SiO2 
 PCOD8323907
Probable space group: P -3 C 1
;
_chemical_formula_sum "Si O2"
_cell_formula_units_Z 60
_cell_length_a 14.800488
_cell_length_b 14.800488
_cell_length_c 12.803030
_cell_angle_alpha 90.000000
_cell_angle_beta 90.000000
_cell_angle_gamma 120.000000
_cell_volume 2428.820753
_symmetry_space_group_name_H-M "P -3 C 1"
_symmetry_group_IT_number 165
_symmetry_cell_setting 'hexagonal'
loop_
_space_group_symop_operation_xyz
x,y,z
-y,x-y,z
-x+y,-x,z
x-y,-y,1/2-z
-x,-x+y,1/2-z
y,x,1/2-z
-x,-y,-z
y,-x+y,-z
x-y,x,-z
-x+y,y,1/2+z
x,x-y,1/2+z
-y,-x,1/2+z
loop_
_atom_site_type_symbol
_atom_site_label
_atom_site_fract_x
_atom_site_fract_y
_atom_site_fract_z
Si Si1 0.260168 0.430569 0.374077
Si Si2 0.483045 0.884211 0.870940
Si Si3 0.115789 0.598834 0.629060
Si Si4 0.881434 0.118566 0.500000
Si Si5 0.170401 0.739832 0.125923
O O1 0.378135 0.501570 0.421303
O O2 0.195342 0.483835 0.418246
O O3 0.199414 0.310781 0.410787
O O4 0.265368 0.427553 0.250000
O O5 0.456926 0.854845 0.750000
O O6 0.579652 1.000000 0.885688
O O7 0.123435 0.501570 0.578697
O O8 0.195342 0.711507 0.581754
O O9 0.800586 0.111367 0.410787
O O10 0.000000 0.163298 0.457680
#
# Coordination Sequence:
#
# PCOD8323907 Si02
#       5
#    12  12  12  12  12
#     4  10  21  39  63  92 125 158 193 241 305 372
#     4   9  17  32  57  87 117 149 185 227 283 358
#     4   9  17  32  57  87 117 149 185 227 283 358
#     4  12  27  44  62  84 114 160 219 274 314 350
#     4  10  21  39  63  92 125 158 193 241 305 372
#
# _framework density 24.703344999999999
#
# number of rings (size 3 to 8) (size 9 to 14) (size 15 to 20)
#    0.000    2.000    0.000    3.400    0.000    9.600 
#    0.000    4.000    0.000    2.400    0.000    0.000 
#    0.000    0.000    0.000    0.000    0.000    0.000 
#
# Total GULP energy -743939.006547 kJ/mol
# GULP energy per Si atom -12398.983442 kJ/mol
# Density = 2.464712 g / cm^3
# Si number density = 24.703345 Si / 1000 Ang^3
#
#
#
# Elastic Constant Matrix: (Units=GPa)
#
#
# Indices 1 2 3 4 5 6 
#
# 1 156.7412 69.1712 3.8849 0.0000 0.0000 0.0000
# 2 69.1712 156.7412 3.8849 0.0000 0.0000 0.0000
# 3 3.8849 3.8849 8.9685 0.0000 0.0000 0.0000
# 4 0.0000 0.0000 0.0000 23.3804 0.0000 0.0000
# 5 0.0000 0.0000 0.0000 0.0000 23.3804 0.0000
# 6 0.0000 0.0000 0.0000 0.0000 0.0000 43.7850
#
#
#
# Elastic Compliance Matrix: (Units=1/GPa)
#
#
# Indices 1 2 3 4 5 6 
#
# 1 0.007956 -0.003463 -0.001946 0.000000 0.000000 0.000000
# 2 -0.003463 0.007956 -0.001946 0.000000 0.000000 0.000000
# 3 -0.001946 -0.001946 0.113188 0.000000 0.000000 0.000000
# 4 0.000000 0.000000 0.000000 0.042771 0.000000 0.000000
# 5 0.000000 0.000000 0.000000 0.000000 0.042771 0.000000
# 6 0.000000 0.000000 0.000000 0.000000 0.000000 0.022839
#
#
# Mechanical properties :
#
#
# Convention : Reuss Voigt Hill
#
# Bulk Modulus (GPa) = 8.74207 52.92587 30.83397
# Shear Modulus (GPa) = 17.22217 34.47646 25.84932
#
# Velocity S-wave (km/s) = 2.64324 3.73985 3.23830
# Velocity P-wave (km/s) = 3.58638 6.33401 5.14694
#
# Compressibility (1/GPa) = 0.11438935
#
# Stress axis : x y z
#
# Youngs Moduli (GPa) = 125.68436 125.68436 8.83484
#
# Poissons Ratio (x) = 0.43524 0.01720
# Poissons Ratio (y) = 0.43524 0.01720
# Poissons Ratio (z) = 0.24464 0.24464
#
# Static dielectric constant tensor:
#      x y z
#    x 4.455460 0.000000 0.000000 
#    y 0.000000 4.455460 0.000000 
#    z 0.000000 0.000000 4.562730 
# 
# 
# High freq. dielectric constant tensor:
#      x y z
#    x 1.982210 0.000000 0.000000 
#    y 0.000000 1.982210 0.000000 
#    z 0.000000 0.000000 2.013040 
# 
# From -- ./inp_files/1662.got.cif
#   From: 2010.03.12/outbox.cif.g09.slc.cpg/sg165_1_cif.got.tgz:1662.got - 2010.04.02 06:36:38.
