data_PCOD8323624
_publ_section_title
;
Structure prediction by ZEFSAII (Michael W. Deem and Ramdas Pophale) SiO2 
 PCOD8323624
Probable space group: P -3 M 1
;
_chemical_formula_sum "Si O2"
_cell_formula_units_Z 72
_cell_length_a 12.600771
_cell_length_b 12.600771
_cell_length_c 30.528939
_cell_angle_alpha 90.000000
_cell_angle_beta 90.000000
_cell_angle_gamma 120.000000
_cell_volume 4197.943420
_symmetry_space_group_name_H-M "P -3 M 1"
_symmetry_group_IT_number 164
_symmetry_cell_setting 'hexagonal'
loop_
_space_group_symop_operation_xyz
x,y,z
-y,x-y,z
-x+y,-x,z
x-y,-y,-z
-x,-x+y,-z
y,x,-z
-x,-y,-z
y,-x+y,-z
x-y,x,-z
-x+y,y,z
x,x-y,z
-y,-x,z
loop_
_atom_site_type_symbol
_atom_site_label
_atom_site_fract_x
_atom_site_fract_y
_atom_site_fract_z
Si Si1 0.247761 0.247761 0.000000
Si Si2 0.578269 0.911616 0.077036
Si Si3 0.085174 0.665407 0.745813
Si Si4 0.664831 0.580128 0.664885
Si Si5 0.752365 0.000000 0.500000
Si Si6 0.911160 0.333139 0.823840
Si Si7 0.914459 0.581269 0.417531
O O1 0.319383 0.317413 0.043801
O O2 0.115777 0.231554 0.998420
O O3 0.459954 0.919908 0.065786
O O4 0.544101 0.772051 0.069922
O O5 0.624115 0.953808 0.126647
O O6 0.124130 0.562065 0.742074
O O7 0.203882 0.796119 0.739302
O O8 0.986413 0.645619 0.709046
O O9 0.025589 0.661315 0.792806
O O10 0.796488 0.592976 0.660894
O O11 0.562879 0.437122 0.665266
O O12 0.645665 0.649163 0.624542
O O13 0.768762 0.884381 0.490521
O O14 0.667479 0.979816 0.541419
O O15 0.870505 0.435253 0.819123
O O16 0.795854 0.204147 0.809949
O O17 0.780834 0.561668 0.408742
O O18 0.900498 0.450249 0.427067
#
# Coordination Sequence:
#
# PCOD8323624 Si02
#       7
#     6  12  12  12   6  12  12
#     4  10  20  32  46  64  90 126 164 198 230 272
#     4   9  17  30  49  72  95 119 150 192 241 288
#     4  10  20  33  50  71  97 129 162 196 233 277
#     4  10  20  34  53  76 100 126 158 199 246 292
#     4  10  20  34  52  74 102 136 172 208 246 290
#     4   9  17  30  50  74  97 121 151 191 239 287
#     4  10  20  34  53  76 102 132 166 204 245 290
#
# _framework density 17.151256
#
# number of rings (size 3 to 8) (size 9 to 14) (size 15 to 20)
#    0.000    2.333    0.000    3.000    0.000    2.000 
#    0.000    3.333    0.000   12.667    0.000    0.000 
#    0.000    0.000    0.000    0.000    0.000    0.000 
#
# Total GULP energy -892969.820549 kJ/mol
# GULP energy per Si atom -12402.358619 kJ/mol
# Density = 1.711222 g / cm^3
# Si number density = 17.151256 Si / 1000 Ang^3
#
#
#
# Elastic Constant Matrix: (Units=GPa)
#
#
# Indices 1 2 3 4 5 6 
#
# 1 99.2715 59.9376 61.0587 1.4330 0.0000 0.0000
# 2 59.9376 99.2715 61.0587 -1.4330 0.0000 0.0000
# 3 61.0587 61.0587 118.1051 0.0000 0.0000 0.0000
# 4 1.4330 -1.4330 0.0000 23.2084 0.0000 0.0000
# 5 0.0000 0.0000 0.0000 0.0000 23.2084 1.4330
# 6 0.0000 0.0000 0.0000 0.0000 1.4330 19.6669
#
#
#
# Elastic Compliance Matrix: (Units=1/GPa)
#
#
# Indices 1 2 3 4 5 6 
#
# 1 0.017973 -0.007565 -0.005381 -0.001577 0.000000 0.000000
# 2 -0.007565 0.017973 -0.005381 0.001577 0.000000 0.000000
# 3 -0.005381 -0.005381 0.014031 0.000000 0.000000 0.000000
# 4 -0.001577 0.001577 0.000000 0.043283 0.000000 0.000000
# 5 0.000000 0.000000 0.000000 0.000000 0.043283 -0.003154
# 6 0.000000 0.000000 0.000000 0.000000 -0.003154 0.051077
#
#
# Mechanical properties :
#
#
# Convention : Reuss Voigt Hill
#
# Bulk Modulus (GPa) = 75.05448 75.63977 75.34712
# Shear Modulus (GPa) = 21.86132 22.18961 22.02546
#
# Velocity S-wave (km/s) = 3.57405 3.60079 3.58745
# Velocity P-wave (km/s) = 7.80302 7.84123 7.82215
#
# Compressibility (1/GPa) = 0.01332365
#
# Stress axis : x y z
#
# Youngs Moduli (GPa) = 55.63795 55.63795 71.27156
#
# Poissons Ratio (x) = 0.42090 0.38351
# Poissons Ratio (y) = 0.42090 0.38351
# Poissons Ratio (z) = 0.29939 0.29939
#
# Static dielectric constant tensor:
#      x y z
#    x 3.108350 0.000000 0.000000 
#    y 0.000000 3.108350 0.000000 
#    z 0.000000 0.000000 3.444990 
# 
# 
# High freq. dielectric constant tensor:
#      x y z
#    x 1.658820 0.000000 0.000000 
#    y 0.000000 1.658820 0.000000 
#    z 0.000000 0.000000 1.679030 
# 
# From -- ./inp_files/5595.got.cif
#   From: 2010.03.12/outbox.cif.g09.slc.cpg/sg164_3_cif.got.tgz:5595.got - 2010.04.02 06:32:59.
