data_PCOD8323829
_publ_section_title
;
Structure prediction by ZEFSAII (Michael W. Deem and Ramdas Pophale) SiO2 
 PCOD8323829
Probable space group: P -3 M 1
;
_chemical_formula_sum "Si O2"
_cell_formula_units_Z 72
_cell_length_a 20.862285
_cell_length_b 20.862285
_cell_length_c 16.483519
_cell_angle_alpha 90.000000
_cell_angle_beta 90.000000
_cell_angle_gamma 120.000000
_cell_volume 6213.042334
_symmetry_space_group_name_H-M "P -3 M 1"
_symmetry_group_IT_number 164
_symmetry_cell_setting 'hexagonal'
loop_
_space_group_symop_operation_xyz
x,y,z
-y,x-y,z
-x+y,-x,z
x-y,-y,-z
-x,-x+y,-z
y,x,-z
-x,-y,-z
y,-x+y,-z
x-y,x,-z
-x+y,y,z
x,x-y,z
-y,-x,z
loop_
_atom_site_type_symbol
_atom_site_label
_atom_site_fract_x
_atom_site_fract_y
_atom_site_fract_z
Si Si1 0.408471 0.439348 0.583999
Si Si2 0.184565 0.667019 0.980240
Si Si3 0.372337 0.476438 0.825131
Si Si4 0.516785 0.332897 0.837228
Si Si5 0.041573 0.597150 0.254033
Si Si6 0.332583 0.516423 0.661637
O O1 0.394093 0.394093 0.500000
O O2 0.485672 0.514329 0.580574
O O3 0.412405 0.387494 0.654614
O O4 0.345556 0.461167 0.603020
O O5 0.193530 0.596765 0.965104
O O6 0.264150 0.735850 0.966009
O O7 0.129330 0.668592 0.912274
O O8 0.155934 0.667163 0.071037
O O9 0.451937 0.548064 0.830585
O O10 0.384210 0.407544 0.803904
O O11 0.326209 0.488862 0.754360
O O12 0.516707 0.258354 0.815859
O O13 0.599867 0.400134 0.825509
O O14 0.458824 0.337998 0.776716
O O15 0.041062 0.520531 0.249927
O O16 0.256430 0.512860 0.636131
O O17 0.399710 0.600291 0.652155
#
# Coordination Sequence:
#
# PCOD8323829 Si02
#       6
#    12  12  12  12  12  12
#     4   8  14  25  38  47  57  77 101 122 149 188
#     4   9  15  21  29  42  61  83 104 125 152 185
#     4   8  14  22  31  44  60  79 101 122 148 185
#     4   9  16  24  33  44  59  79 102 129 159 187
#     4   8  14  24  35  45  56  72  97 125 152 185
#     4   9  15  22  33  49  67  82  97 122 158 195
#
# _framework density 11.588525000000001
#
# number of rings (size 3 to 8) (size 9 to 14) (size 15 to 20)
#    0.000    3.500    0.000    3.000    0.000    2.000 
#    0.000    5.833    0.000    0.000    0.000    2.333 
#    0.000    0.000    0.000    0.000    0.000    0.000 
#
# Total GULP energy -892048.885868 kJ/mol
# GULP energy per Si atom -12389.567859 kJ/mol
# Density = 1.156215 g / cm^3
# Si number density = 11.588525 Si / 1000 Ang^3
#
#
#
# Elastic Constant Matrix: (Units=GPa)
#
#
# Indices 1 2 3 4 5 6 
#
# 1 47.8301 27.1667 40.0706 -0.3261 0.0000 0.0000
# 2 27.1667 47.8301 40.0706 0.3261 0.0000 0.0000
# 3 40.0706 40.0706 87.0824 0.0000 0.0000 0.0000
# 4 -0.3261 0.3261 0.0000 13.0946 0.0000 0.0000
# 5 0.0000 0.0000 0.0000 0.0000 13.0946 -0.3261
# 6 0.0000 0.0000 0.0000 0.0000 -0.3261 10.3317
#
#
#
# Elastic Compliance Matrix: (Units=1/GPa)
#
#
# Indices 1 2 3 4 5 6 
#
# 1 0.037333 -0.011100 -0.012071 0.001206 0.000000 0.000000
# 2 -0.011100 0.037333 -0.012071 -0.001206 0.000000 0.000000
# 3 -0.012071 -0.012071 0.022592 0.000000 0.000000 0.000000
# 4 0.001206 -0.001206 0.000000 0.076427 0.000000 0.000000
# 5 0.000000 0.000000 0.000000 0.000000 0.076427 0.002412
# 6 0.000000 0.000000 0.000000 0.000000 0.002412 0.096866
#
#
# Mechanical properties :
#
#
# Convention : Reuss Voigt Hill
#
# Bulk Modulus (GPa) = 37.34950 44.15093 40.75021
# Shear Modulus (GPa) = 11.72644 12.33316 12.02980
#
# Velocity S-wave (km/s) = 3.18449 3.26583 3.22542
# Velocity P-wave (km/s) = 6.76912 7.23895 7.00797
#
# Compressibility (1/GPa) = 0.02677412
#
# Stress axis : x y z
#
# Youngs Moduli (GPa) = 26.78603 26.78603 44.26305
#
# Poissons Ratio (x) = 0.29732 0.53430
# Poissons Ratio (y) = 0.29732 0.53430
# Poissons Ratio (z) = 0.32333 0.32333
#
# Static dielectric constant tensor:
#      x y z
#    x 2.260830 0.000000 0.000000 
#    y 0.000000 2.260830 0.000000 
#    z 0.000000 0.000000 2.732990 
# 
# 
# High freq. dielectric constant tensor:
#      x y z
#    x 1.403170 0.000000 0.000000 
#    y 0.000000 1.403170 0.000000 
#    z 0.000000 0.000000 1.446030 
# 
# From -- ./inp_files/4068.got.cif
#   From: 2010.03.12/outbox.cif.g09.slc.cpg/sg164_3_cif.got.tgz:4068.got - 2010.04.02 06:32:59.
