data_PCOD8323021
_publ_section_title
;
Structure prediction by ZEFSAII (Michael W. Deem and Ramdas Pophale) SiO2 
 PCOD8323021
Probable space group: P -3 1 M 
;
_chemical_formula_sum "Si O2"
_cell_formula_units_Z 84
_cell_length_a 20.683789
_cell_length_b 20.683789
_cell_length_c 12.554260
_cell_angle_alpha 90.000000
_cell_angle_beta 90.000000
_cell_angle_gamma 120.000000
_cell_volume 4651.381358
_symmetry_space_group_name_H-M "P -3 1 M "
_symmetry_group_IT_number 162
_symmetry_cell_setting 'hexagonal'
loop_
_space_group_symop_operation_xyz
x,y,z
-y,x-y,z
-x+y,-x,z
-y,-x,-z
-x+y,y,-z
x,x-y,-z
-x,-y,-z
y,-x+y,-z
x-y,x,-z
y,x,z
x-y,-y,z
-x,-x+y,z
loop_
_atom_site_type_symbol
_atom_site_label
_atom_site_fract_x
_atom_site_fract_y
_atom_site_fract_z
Si Si1 0.858262 0.289388 0.888564
Si Si2 0.316449 0.085487 0.293550
Si Si3 0.292397 0.852227 0.126719
Si Si4 0.497584 0.409001 0.409297
Si Si5 0.276670 0.360350 0.480853
Si Si6 0.910643 0.451310 0.821782
Si Si7 0.213615 0.919101 0.738978
O O1 0.771080 0.234919 0.855870
O O2 0.882374 0.375920 0.887863
O O3 0.909494 0.274231 0.807511
O O4 0.874648 0.276268 0.010262
O O5 0.382128 0.094671 0.216154
O O6 0.351394 0.121141 0.410464
O O7 0.278522 0.130141 0.240411
O O8 0.252129 0.000000 0.302119
O O9 0.375179 0.864681 0.134927
O O10 0.559245 0.440756 0.500000
O O11 0.447394 0.447394 0.405881
O O12 0.445005 0.321037 0.435735
O O13 0.540394 0.424629 0.298422
O O14 0.337301 0.337301 0.517696
O O15 0.226058 0.307758 0.387010
O O16 0.000000 0.506054 0.834357
O O17 0.223925 0.000000 0.769253
#
# Coordination Sequence:
#
# PCOD8323021 Si02
#       7
#    12  12  12  12  12  12  12
#     4  10  21  37  52  74 104 138 175 212 261 313
#     4  10  20  33  51  76 105 135 168 211 262 312
#     4  10  22  36  51  74 107 138 171 215 262 310
#     4   9  16  26  45  74 104 130 163 208 255 300
#     4   9  16  29  47  71 101 131 165 204 251 303
#     4  11  20  33  55  79 101 133 178 222 259 301
#     4  10  19  33  53  75 101 133 169 211 258 311
#
# _framework density 18.059152000000001
#
# number of rings (size 3 to 8) (size 9 to 14) (size 15 to 20)
#    0.000    2.143    1.429    2.571    0.000    5.143 
#    0.857    0.000    0.000    0.286    0.000    0.000 
#    0.000    3.429    0.000    7.143    0.000    0.000 
#
# Total GULP energy -1041029.612201 kJ/mol
# GULP energy per Si atom -12393.209669 kJ/mol
# Density = 1.801805 g / cm^3
# Si number density = 18.059152 Si / 1000 Ang^3
#
#
#
# Elastic Constant Matrix: (Units=GPa)
#
#
# Indices 1 2 3 4 5 6 
#
# 1 75.7101 33.5694 20.9879 0.0000 -0.0343 0.0000
# 2 33.5694 75.7101 20.9879 0.0000 0.0343 0.0000
# 3 20.9879 20.9879 97.9300 0.0000 0.0000 0.0000
# 4 0.0000 0.0000 0.0000 19.3519 0.0000 0.0343
# 5 -0.0343 0.0343 0.0000 0.0000 19.3519 0.0000
# 6 0.0000 0.0000 0.0000 0.0343 0.0000 21.0703
#
#
#
# Elastic Compliance Matrix: (Units=1/GPa)
#
#
# Indices 1 2 3 4 5 6 
#
# 1 0.016851 -0.006879 -0.002137 0.000000 0.000042 0.000000
# 2 -0.006879 0.016851 -0.002137 0.000000 -0.000042 0.000000
# 3 -0.002137 -0.002137 0.011127 0.000000 0.000000 0.000000
# 4 0.000000 0.000000 0.000000 0.051675 0.000000 -0.000084
# 5 0.000042 -0.000042 0.000000 0.000000 0.051675 0.000000
# 6 0.000000 0.000000 0.000000 -0.000084 0.000000 0.047460
#
#
# Mechanical properties :
#
#
# Convention : Reuss Voigt Hill
#
# Bulk Modulus (GPa) = 44.40009 44.49342 44.44676
# Shear Modulus (GPa) = 22.17755 23.54181 22.85968
#
# Velocity S-wave (km/s) = 3.50816 3.61445 3.56170
# Velocity P-wave (km/s) = 6.40694 6.48923 6.44821
#
# Compressibility (1/GPa) = 0.02252248
#
# Stress axis : x y z
#
# Youngs Moduli (GPa) = 59.34390 59.34390 89.86823
#
# Poissons Ratio (x) = 0.40824 0.19206
# Poissons Ratio (y) = 0.40824 0.19206
# Poissons Ratio (z) = 0.12682 0.12682
#
# Static dielectric constant tensor:
#      x y z
#    x 3.186890 0.000000 0.000000 
#    y 0.000000 3.186890 0.000000 
#    z 0.000000 0.000000 3.578800 
# 
# 
# High freq. dielectric constant tensor:
#      x y z
#    x 1.673710 0.000000 0.000000 
#    y 0.000000 1.673710 0.000000 
#    z 0.000000 0.000000 1.720230 
# 
# From -- ./inp_files/2507.got.cif
#   From: 2010.03.12/outbox.cif.g09.slc.cpg/sg162_2_cif.got.tgz:2507.got - 2010.04.02 06:27:41.
