data_PCOD8323645
_publ_section_title
;
Structure prediction by ZEFSAII (Michael W. Deem and Ramdas Pophale) SiO2 
 PCOD8323645
Probable space group: P -3 M 1
;
_chemical_formula_sum "Si O2"
_cell_formula_units_Z 84
_cell_length_a 17.349859
_cell_length_b 17.349859
_cell_length_c 18.669205
_cell_angle_alpha 90.000000
_cell_angle_beta 90.000000
_cell_angle_gamma 120.000000
_cell_volume 4866.854421
_symmetry_space_group_name_H-M "P -3 M 1"
_symmetry_group_IT_number 164
_symmetry_cell_setting 'hexagonal'
loop_
_space_group_symop_operation_xyz
x,y,z
-y,x-y,z
-x+y,-x,z
x-y,-y,-z
-x,-x+y,-z
y,x,-z
-x,-y,-z
y,-x+y,-z
x-y,x,-z
-x+y,y,z
x,x-y,z
-y,-x,z
loop_
_atom_site_type_symbol
_atom_site_label
_atom_site_fract_x
_atom_site_fract_y
_atom_site_fract_z
Si Si1 0.904266 0.630136 0.910452
Si Si2 0.363871 0.093663 0.469195
Si Si3 0.841543 0.332634 0.599108
Si Si4 0.000015 0.167759 0.082704
Si Si5 0.574549 0.970347 0.821007
Si Si6 0.486718 0.153951 0.048052
Si Si7 0.029506 0.425501 0.662333
O O1 0.809030 0.618060 0.890665
O O2 0.981917 0.732946 0.909605
O O3 0.934175 0.586850 0.848761
O O4 0.900088 0.586199 0.987245
O O5 0.329450 0.164725 0.464374
O O6 0.448733 0.128590 0.520620
O O7 0.396991 0.082408 0.391701
O O8 0.283940 0.000000 0.500000
O O9 0.811033 0.405517 0.592650
O O10 0.759187 0.240813 0.628103
O O11 0.923286 0.363619 0.653490
O O12 0.903756 0.096245 0.116240
O O13 0.078687 0.157374 0.120400
O O14 0.000000 0.146394 0.000000
O O15 0.492724 0.985448 0.812849
O O16 0.555178 0.891364 0.876093
O O17 0.593674 0.946445 0.741866
O O18 0.574715 0.149430 0.029851
O O19 0.512367 0.256184 0.051438
O O20 0.057850 0.528925 0.650017
#
# Coordination Sequence:
#
# PCOD8323645 Si02
#       7
#    12  12  12  12  12  12  12
#     4  10  20  32  48  69  90 116 152 194 236 279
#     4   9  17  30  49  72  97 125 157 193 229 268
#     4   9  16  27  46  71  98 126 155 186 220 263
#     4   9  16  26  41  62  87 111 135 168 215 270
#     4  10  20  33  48  66  92 124 155 191 236 281
#     4  10  20  34  51  68  87 114 152 197 242 286
#     4   9  18  31  46  67  96 128 157 187 228 275
#
# _framework density 17.259608
#
# number of rings (size 3 to 8) (size 9 to 14) (size 15 to 20)
#    0.000    2.571    0.000    2.571    0.000    6.286 
#    0.000    0.000    0.000    0.714    0.000    0.000 
#    0.000    1.143    0.000    0.000    0.000    0.000 
#
# Total GULP energy -1041215.600772 kJ/mol
# GULP energy per Si atom -12395.423819 kJ/mol
# Density = 1.722032 g / cm^3
# Si number density = 17.259608 Si / 1000 Ang^3
#
#
#
# Elastic Constant Matrix: (Units=GPa)
#
#
# Indices 1 2 3 4 5 6 
#
# 1 75.3592 34.3752 32.2767 -1.8222 0.0000 0.0000
# 2 34.3752 75.3592 32.2767 1.8222 0.0000 0.0000
# 3 32.2767 32.2767 92.5493 0.0000 0.0000 0.0000
# 4 -1.8222 1.8222 0.0000 16.8640 0.0000 0.0000
# 5 0.0000 0.0000 0.0000 0.0000 16.8640 -1.8222
# 6 0.0000 0.0000 0.0000 0.0000 -1.8222 20.4920
#
#
#
# Elastic Compliance Matrix: (Units=1/GPa)
#
#
# Indices 1 2 3 4 5 6 
#
# 1 0.018051 -0.006586 -0.003998 0.002662 0.000000 0.000000
# 2 -0.006586 0.018051 -0.003998 -0.002662 0.000000 0.000000
# 3 -0.003998 -0.003998 0.013594 0.000000 0.000000 0.000000
# 4 0.002662 -0.002662 0.000000 0.059873 0.000000 0.000000
# 5 0.000000 0.000000 0.000000 0.000000 0.059873 0.005324
# 6 0.000000 0.000000 0.000000 0.000000 0.005324 0.049273
#
#
# Mechanical properties :
#
#
# Convention : Reuss Voigt Hill
#
# Bulk Modulus (GPa) = 48.70847 49.01387 48.86117
# Shear Modulus (GPa) = 19.62914 20.46661 20.04787
#
# Velocity S-wave (km/s) = 3.37603 3.44729 3.41185
# Velocity P-wave (km/s) = 6.59387 6.65618 6.62510
#
# Compressibility (1/GPa) = 0.02053031
#
# Stress axis : x y z
#
# Youngs Moduli (GPa) = 55.39921 55.39921 73.56194
#
# Poissons Ratio (x) = 0.36484 0.29413
# Poissons Ratio (y) = 0.36484 0.29413
# Poissons Ratio (z) = 0.22151 0.22151
#
# Static dielectric constant tensor:
#      x y z
#    x 3.281080 0.000000 0.000000 
#    y 0.000000 3.281080 0.000000 
#    z 0.000000 0.000000 3.124380 
# 
# 
# High freq. dielectric constant tensor:
#      x y z
#    x 1.665940 0.000000 0.000000 
#    y 0.000000 1.665940 0.000000 
#    z 0.000000 0.000000 1.641770 
# 
# From -- ./inp_files/3635.got.cif
#   From: 2010.03.12/outbox.cif.g09.slc.cpg/sg164_2_cif.got.tgz:3635.got - 2010.04.02 06:32:59.
