data_PCOD8323584
_publ_section_title
;
Structure prediction by ZEFSAII (Michael W. Deem and Ramdas Pophale) SiO2 
 PCOD8323584
Probable space group: P -3 M 1
;
_chemical_formula_sum "Si O2"
_cell_formula_units_Z 60
_cell_length_a 17.792904
_cell_length_b 17.792904
_cell_length_c 12.405923
_cell_angle_alpha 90.000000
_cell_angle_beta 90.000000
_cell_angle_gamma 120.000000
_cell_volume 3401.366140
_symmetry_space_group_name_H-M "P -3 M 1"
_symmetry_group_IT_number 164
_symmetry_cell_setting 'hexagonal'
loop_
_space_group_symop_operation_xyz
x,y,z
-y,x-y,z
-x+y,-x,z
x-y,-y,-z
-x,-x+y,-z
y,x,-z
-x,-y,-z
y,-x+y,-z
x-y,x,-z
-x+y,y,z
x,x-y,z
-y,-x,z
loop_
_atom_site_type_symbol
_atom_site_label
_atom_site_fract_x
_atom_site_fract_y
_atom_site_fract_z
Si Si1 0.366327 0.467566 0.519763
Si Si2 0.354061 0.262011 0.045986
Si Si3 0.908281 0.646767 0.295850
Si Si4 0.332048 0.840670 0.128540
Si Si5 0.898883 0.631143 0.677817
O O1 0.426099 0.426099 0.500000
O O2 0.427538 0.572463 0.516384
O O3 0.318809 0.441000 0.635695
O O4 0.294968 0.431984 0.425577
O O5 0.321030 0.160515 0.024439
O O6 0.373979 0.285683 0.171020
O O7 0.279515 0.279515 0.000000
O O8 0.444930 0.321895 0.985810
O O9 0.840940 0.681879 0.315083
O O10 0.004530 0.718415 0.336764
O O11 0.425607 0.851214 0.134941
O O12 0.259651 0.740350 0.144665
O O13 0.324558 0.899536 0.221306
O O14 0.834201 0.668401 0.698999
#
# Coordination Sequence:
#
# PCOD8323584 Si02
#       5
#    12  12  12  12  12
#     4   9  18  32  50  74 103 132 165 207 251 300
#     4  10  20  35  52  75 103 137 177 218 264 314
#     4  10  20  34  52  76 105 137 174 216 263 312
#     4  10  20  33  50  74 102 131 166 210 262 311
#     4  10  19  33  54  78 103 134 174 216 260 308
#
# _framework density 17.639970999999999
#
# number of rings (size 3 to 8) (size 9 to 14) (size 15 to 20)
#    0.000    2.200    2.000    1.400    0.000    2.000 
#    0.000    0.000    0.000    5.000    0.000    0.000 
#    0.000    4.800    0.000    0.000    0.000    0.000 
#
# Total GULP energy -743831.721056 kJ/mol
# GULP energy per Si atom -12397.195351 kJ/mol
# Density = 1.759982 g / cm^3
# Si number density = 17.639971 Si / 1000 Ang^3
#
#
#
# Elastic Constant Matrix: (Units=GPa)
#
#
# Indices 1 2 3 4 5 6 
#
# 1 95.7328 64.7210 37.3943 -0.5265 0.0000 0.0000
# 2 64.7210 95.7328 37.3943 0.5265 0.0000 0.0000
# 3 37.3943 37.3943 122.6865 0.0000 0.0000 0.0000
# 4 -0.5265 0.5265 0.0000 19.1332 0.0000 0.0000
# 5 0.0000 0.0000 0.0000 0.0000 19.1332 -0.5265
# 6 0.0000 0.0000 0.0000 0.0000 -0.5265 15.5059
#
#
#
# Elastic Compliance Matrix: (Units=1/GPa)
#
#
# Indices 1 2 3 4 5 6 
#
# 1 0.019770 -0.012506 -0.002214 0.000888 0.000000 0.000000
# 2 -0.012506 0.019770 -0.002214 -0.000888 0.000000 0.000000
# 3 -0.002214 -0.002214 0.009501 0.000000 0.000000 0.000000
# 4 0.000888 -0.000888 0.000000 0.052314 0.000000 0.000000
# 5 0.000000 0.000000 0.000000 0.000000 0.052314 0.001776
# 6 0.000000 0.000000 0.000000 0.000000 0.001776 0.064552
#
#
# Mechanical properties :
#
#
# Convention : Reuss Voigt Hill
#
# Bulk Modulus (GPa) = 65.90782 65.90794 65.90788
# Shear Modulus (GPa) = 19.44416 22.39729 20.92072
#
# Velocity S-wave (km/s) = 3.32366 3.56714 3.44755
# Velocity P-wave (km/s) = 7.22308 7.37631 7.30009
#
# Compressibility (1/GPa) = 0.01517271
#
# Stress axis : x y z
#
# Youngs Moduli (GPa) = 50.58139 50.58139 105.25681
#
# Poissons Ratio (x) = 0.63256 0.23305
# Poissons Ratio (y) = 0.63256 0.23305
# Poissons Ratio (z) = 0.11199 0.11199
#
# Static dielectric constant tensor:
#      x y z
#    x 3.217990 0.000000 0.000000 
#    y 0.000000 3.217990 0.000000 
#    z 0.000000 0.000000 3.522370 
# 
# 
# High freq. dielectric constant tensor:
#      x y z
#    x 1.664570 0.000000 0.000000 
#    y 0.000000 1.664570 0.000000 
#    z 0.000000 0.000000 1.700930 
# 
# From -- ./inp_files/2668.got.cif
#   From: 2010.03.12/outbox.cif.g09.slc.cpg/sg164_2_cif.got.tgz:2668.got - 2010.04.02 06:32:59.
