data_PCOD8323851
_publ_section_title
;
Structure prediction by ZEFSAII (Michael W. Deem and Ramdas Pophale) SiO2 
 PCOD8323851
Probable space group: P -3 C 1
;
_chemical_formula_sum "Si O2"
_cell_formula_units_Z 78
_cell_length_a 23.575196
_cell_length_b 23.575196
_cell_length_c 8.871258
_cell_angle_alpha 90.000000
_cell_angle_beta 90.000000
_cell_angle_gamma 120.000000
_cell_volume 4269.986144
_symmetry_space_group_name_H-M "P -3 C 1"
_symmetry_group_IT_number 165
_symmetry_cell_setting 'hexagonal'
loop_
_space_group_symop_operation_xyz
x,y,z
-y,x-y,z
-x+y,-x,z
x-y,-y,1/2-z
-x,-x+y,1/2-z
y,x,1/2-z
-x,-y,-z
y,-x+y,-z
x-y,x,-z
-x+y,y,1/2+z
x,x-y,1/2+z
-y,-x,1/2+z
loop_
_atom_site_type_symbol
_atom_site_label
_atom_site_fract_x
_atom_site_fract_y
_atom_site_fract_z
Si Si1 0.384781 0.078950 0.034750
Si Si2 0.711756 0.800044 0.999544
Si Si3 0.143217 0.442684 0.988328
Si Si4 0.725716 0.725716 0.250000
Si Si5 0.564262 0.762981 0.286709
Si Si6 0.447496 0.014724 0.573199
Si Si7 0.690546 0.801149 0.684218
O O1 0.342792 0.056922 0.187626
O O2 0.435210 0.155488 0.068654
O O3 0.342158 0.070723 0.885248
O O4 0.419147 0.036982 0.010641
O O5 0.636004 0.742223 0.991504
O O6 0.750564 0.777564 0.112012
O O7 0.726465 0.872024 0.052169
O O8 0.737160 0.807398 0.825927
O O9 0.184303 0.470547 0.145457
O O10 0.196493 0.470304 0.849962
O O11 0.089487 0.465127 0.961962
O O12 0.638192 0.817324 0.245047
O O13 0.441467 0.000000 0.750000
O O14 0.500000 0.000000 0.500000
#
# Coordination Sequence:
#
# PCOD8323851 Si02
#       7
#    12  12  12   6  12  12  12
#     4  12  20  33  51  72 105 143 181 220 275 342
#     4  10  17  29  45  70  94 127 172 215 268 303
#     4  10  19  35  53  77 104 136 183 226 270 327
#     4  12  20  28  48  70  98 142 166 210 282 316
#     4  10  17  31  56  74  94 130 183 230 258 299
#     4  12  28  40  53  78 122 160 182 223 307 393
#     4  10  17  30  47  72  94 125 173 227 253 304
#
# _framework density 18.267036999999998
#
# number of rings (size 3 to 8) (size 9 to 14) (size 15 to 20)
#    0.000    1.231    9.231    1.846    3.231    0.000 
#    0.000    0.000    0.000    0.000    0.000    0.000 
#    1.538    2.769    0.000    0.000    0.000    0.000 
#
# Total GULP energy -966279.066003 kJ/mol
# GULP energy per Si atom -12388.193154 kJ/mol
# Density = 1.822546 g / cm^3
# Si number density = 18.267037 Si / 1000 Ang^3
#
#
#
# Elastic Constant Matrix: (Units=GPa)
#
#
# Indices 1 2 3 4 5 6 
#
# 1 68.8042 39.4866 35.0423 -2.0528 0.0000 0.0000
# 2 39.4866 68.8042 35.0423 2.0528 0.0000 0.0000
# 3 35.0423 35.0423 134.0850 0.0000 0.0000 0.0000
# 4 -2.0528 2.0528 0.0000 26.4222 0.0000 0.0000
# 5 0.0000 0.0000 0.0000 0.0000 26.4222 -2.0528
# 6 0.0000 0.0000 0.0000 0.0000 -2.0528 14.6588
#
#
#
# Elastic Compliance Matrix: (Units=1/GPa)
#
#
# Indices 1 2 3 4 5 6 
#
# 1 0.022799 -0.011685 -0.002905 0.002679 0.000000 0.000000
# 2 -0.011685 0.022799 -0.002905 -0.002679 0.000000 0.000000
# 3 -0.002905 -0.002905 0.008976 0.000000 0.000000 0.000000
# 4 0.002679 -0.002679 0.000000 0.038263 0.000000 0.000000
# 5 0.000000 0.000000 0.000000 0.000000 0.038263 0.005358
# 6 0.000000 0.000000 0.000000 0.000000 0.005358 0.068969
#
#
# Mechanical properties :
#
#
# Convention : Reuss Voigt Hill
#
# Bulk Modulus (GPa) = 51.05660 54.53731 52.79696
# Shear Modulus (GPa) = 20.69642 24.30878 22.50260
#
# Velocity S-wave (km/s) = 3.36965 3.65190 3.51361
# Velocity P-wave (km/s) = 6.56888 6.90668 6.73989
#
# Compressibility (1/GPa) = 0.01958611
#
# Stress axis : x y z
#
# Youngs Moduli (GPa) = 43.86093 43.86093 111.40602
#
# Poissons Ratio (x) = 0.51252 0.32359
# Poissons Ratio (y) = 0.51252 0.32359
# Poissons Ratio (z) = 0.12740 0.12740
#
# Static dielectric constant tensor:
#      x y z
#    x 3.097220 0.000000 0.000000 
#    y 0.000000 3.097220 0.000000 
#    z 0.000000 0.000000 4.135780 
# 
# 
# High freq. dielectric constant tensor:
#      x y z
#    x 1.654800 0.000000 0.000000 
#    y 0.000000 1.654800 0.000000 
#    z 0.000000 0.000000 1.747340 
# 
# From -- ./inp_files/814.got.cif
#   From: 2010.03.12/outbox.cif.g09.slc.cpg/sg165_1_cif.got.tgz:814.got - 2010.04.02 06:36:38.
