data_PCOD8323531
_publ_section_title
;
Structure prediction by ZEFSAII (Michael W. Deem and Ramdas Pophale) SiO2 
 PCOD8323531
Probable space group: P -3 M 1
;
_chemical_formula_sum "Si O2"
_cell_formula_units_Z 96
_cell_length_a 17.807504
_cell_length_b 17.807504
_cell_length_c 22.022014
_cell_angle_alpha 90.000000
_cell_angle_beta 90.000000
_cell_angle_gamma 120.000000
_cell_volume 6047.749124
_symmetry_space_group_name_H-M "P -3 M 1"
_symmetry_group_IT_number 164
_symmetry_cell_setting 'hexagonal'
loop_
_space_group_symop_operation_xyz
x,y,z
-y,x-y,z
-x+y,-x,z
x-y,-y,-z
-x,-x+y,-z
y,x,-z
-x,-y,-z
y,-x+y,-z
x-y,x,-z
-x+y,y,z
x,x-y,z
-y,-x,z
loop_
_atom_site_type_symbol
_atom_site_label
_atom_site_fract_x
_atom_site_fract_y
_atom_site_fract_z
Si Si1 0.841890 0.331955 0.650747
Si Si2 0.265545 0.363576 0.242441
Si Si3 0.841890 0.331955 0.349253
Si Si4 0.839903 0.332297 0.000001
Si Si5 0.410951 1.000000 0.432048
Si Si6 0.734456 0.636425 0.242442
Si Si7 0.903820 0.639981 0.104184
Si Si8 0.736160 0.096181 0.895817
O O1 0.830022 0.415011 0.651379
O O2 0.751169 0.248832 0.632281
O O3 0.873757 0.322356 0.717151
O O4 0.913466 0.340246 0.602223
O O5 0.162846 0.325691 0.255003
O O6 0.288436 0.288437 0.257616
O O7 0.288561 0.394820 0.172922
O O8 0.830022 0.415011 0.348620
O O9 0.751168 0.248833 0.367719
O O10 0.873757 0.322355 0.282849
O O11 0.913466 0.340246 0.397777
O O12 0.852331 0.426166 0.000001
O O13 0.738681 0.261320 0.000000
O O14 0.886065 0.324404 0.939853
O O15 0.886064 0.324403 0.060149
O O16 0.500000 0.999999 0.433883
O O17 0.377159 0.000000 0.500000
O O18 0.837156 0.674311 0.255004
O O19 0.711440 0.605182 0.172923
O O20 0.837131 0.674262 0.090153
O O21 0.000000 0.720400 0.092919
O O22 0.837131 0.162870 0.909848
#
# Coordination Sequence:
#
# PCOD8323531 Si02
#       8
#    12  12  12  12  12  12  12  12
#     4  10  19  31  47  68  94 123 155 190 230 274
#     4   9  17  30  48  69  92 120 153 190 230 273
#     4  10  19  31  47  68  94 123 155 190 230 274
#     4  10  20  33  46  63  88 120 155 192 232 273
#     4   9  18  32  48  66  90 119 150 186 226 267
#     4   9  17  30  48  69  92 120 153 190 230 273
#     4   9  18  31  47  67  91 119 152 188 229 273
#     4   9  18  31  47  67  91 119 152 188 229 273
#
# _framework density 15.873673999999999
#
# number of rings (size 3 to 8) (size 9 to 14) (size 15 to 20)
#    0.000    2.625    1.250    0.750    0.000    2.500 
#    0.000    2.500    0.000    5.000    0.000    3.500 
#    0.000    3.000    0.000    0.250    0.000   11.375 
#
# Total GULP energy -1190118.143526 kJ/mol
# GULP energy per Si atom -12397.063995 kJ/mol
# Density = 1.583755 g / cm^3
# Si number density = 15.873674 Si / 1000 Ang^3
#
#
#
# Elastic Constant Matrix: (Units=GPa)
#
#
# Indices 1 2 3 4 5 6 
#
# 1 108.9353 73.9861 56.7814 0.0000 0.0000 0.0000
# 2 73.9861 108.9353 56.7814 0.0000 0.0000 0.0000
# 3 56.7814 56.7814 101.0855 0.0000 0.0000 0.0000
# 4 0.0000 0.0000 0.0000 20.4333 0.0000 0.0000
# 5 0.0000 0.0000 0.0000 0.0000 20.4333 0.0000
# 6 0.0000 0.0000 0.0000 0.0000 0.0000 17.4746
#
#
#
# Elastic Compliance Matrix: (Units=1/GPa)
#
#
# Indices 1 2 3 4 5 6 
#
# 1 0.018504 -0.010109 -0.004715 0.000000 0.000000 0.000000
# 2 -0.010109 0.018504 -0.004715 0.000000 0.000000 0.000000
# 3 -0.004715 -0.004715 0.015190 0.000000 0.000000 0.000000
# 4 0.000000 0.000000 0.000000 0.048940 0.000000 0.000000
# 5 0.000000 0.000000 0.000000 0.000000 0.048940 0.000000
# 6 0.000000 0.000000 0.000000 0.000000 0.000000 0.057226
#
#
# Mechanical properties :
#
#
# Convention : Reuss Voigt Hill
#
# Bulk Modulus (GPa) = 76.23403 77.11710 76.67556
# Shear Modulus (GPa) = 19.93983 20.42869 20.18426
#
# Velocity S-wave (km/s) = 3.54808 3.59131 3.56976
# Velocity P-wave (km/s) = 8.05697 8.11689 8.08699
#
# Compressibility (1/GPa) = 0.01311750
#
# Stress axis : x y z
#
# Youngs Moduli (GPa) = 54.04364 54.04364 65.83396
#
# Poissons Ratio (x) = 0.54635 0.31041
# Poissons Ratio (y) = 0.54635 0.31041
# Poissons Ratio (z) = 0.25482 0.25482
#
# Static dielectric constant tensor:
#      x y z
#    x 3.007430 0.000000 0.000000 
#    y 0.000000 3.007430 0.000000 
#    z 0.000000 0.000000 3.230410 
# 
# 
# High freq. dielectric constant tensor:
#      x y z
#    x 1.598830 0.000000 0.000000 
#    y 0.000000 1.598830 0.000000 
#    z 0.000000 0.000000 1.619520 
# 
# From -- ./inp_files/4753.got.cif
#   From: 2010.03.12/outbox.cif.g09.slc.cpg/sg164_3_cif.got.tgz:4753.got - 2010.04.02 06:32:59.
