data_PCOD8323668
_publ_section_title
;
Structure prediction by ZEFSAII (Michael W. Deem and Ramdas Pophale) SiO2 
 PCOD8323668
Probable space group: P -3 M 1
;
_chemical_formula_sum "Si O2"
_cell_formula_units_Z 66
_cell_length_a 12.448711
_cell_length_b 12.448711
_cell_length_c 28.831404
_cell_angle_alpha 90.000000
_cell_angle_beta 90.000000
_cell_angle_gamma 120.000000
_cell_volume 3869.413950
_symmetry_space_group_name_H-M "P -3 M 1"
_symmetry_group_IT_number 164
_symmetry_cell_setting 'hexagonal'
loop_
_space_group_symop_operation_xyz
x,y,z
-y,x-y,z
-x+y,-x,z
x-y,-y,-z
-x,-x+y,-z
y,x,-z
-x,-y,-z
y,-x+y,-z
x-y,x,-z
-x+y,y,z
x,x-y,z
-y,-x,z
loop_
_atom_site_type_symbol
_atom_site_label
_atom_site_fract_x
_atom_site_fract_y
_atom_site_fract_z
Si Si1 0.251440 0.001631 0.176354
Si Si2 0.249571 0.248544 0.451101
Si Si3 0.916290 0.583707 0.264729
Si Si4 0.748100 0.000000 0.000000
Si Si5 0.251411 0.998155 0.649300
Si Si6 0.585434 0.917648 0.911500
O O1 0.130277 0.869724 0.172692
O O2 0.212174 0.106087 0.172328
O O3 0.317757 0.010439 0.224745
O O4 0.343060 0.014839 0.135113
O O5 0.318690 0.318690 0.500000
O O6 0.215263 0.107632 0.457640
O O7 0.319245 0.301442 0.401802
O O8 0.124822 0.249644 0.444209
O O9 0.772214 0.544428 0.265058
O O10 0.926156 0.463078 0.255621
O O11 0.981885 0.644770 0.313331
O O12 0.669336 0.991205 0.955045
O O13 0.765189 0.882595 0.005796
O O14 0.261172 0.130586 0.656130
O O15 0.107868 0.892133 0.656134
O O16 0.461434 0.922867 0.914123
O O17 0.550262 0.775131 0.911827
#
# Coordination Sequence:
#
# PCOD8323668 Si02
#       6
#    12  12  12   6  12  12
#     4  10  20  34  54  78 102 126 152 189 237 287
#     4   8  12  18  31  55  87 118 144 172 214 271
#     4  10  20  33  49  67  89 119 155 194 232 272
#     4  10  20  34  54  78 104 134 168 210 256 298
#     4   9  16  26  43  67  93 119 146 182 229 279
#     4  10  20  34  53  76 103 135 169 203 237 277
#
# _framework density 17.056847000000001
#
# number of rings (size 3 to 8) (size 9 to 14) (size 15 to 20)
#    0.000    2.545    0.000    2.909    0.000    2.182 
#    0.000    5.455    0.000   11.818    0.000    0.000 
#    0.000    0.000    0.000    0.000    0.000    0.000 
#
# Total GULP energy -817848.913510 kJ/mol
# GULP energy per Si atom -12391.650205 kJ/mol
# Density = 1.701803 g / cm^3
# Si number density = 17.056847 Si / 1000 Ang^3
#
#
#
# Elastic Constant Matrix: (Units=GPa)
#
#
# Indices 1 2 3 4 5 6 
#
# 1 65.5291 37.8562 37.8640 -4.6769 0.0000 0.0000
# 2 37.8562 65.5291 37.8640 4.6769 0.0000 0.0000
# 3 37.8640 37.8640 145.7623 0.0000 0.0000 0.0000
# 4 -4.6769 4.6769 0.0000 6.4235 0.0000 0.0000
# 5 0.0000 0.0000 0.0000 0.0000 6.4235 -4.6769
# 6 0.0000 0.0000 0.0000 0.0000 -4.6769 13.8364
#
#
#
# Elastic Compliance Matrix: (Units=1/GPa)
#
#
# Indices 1 2 3 4 5 6 
#
# 1 0.029939 -0.017994 -0.003103 0.034899 0.000000 0.000000
# 2 -0.017994 0.029939 -0.003103 -0.034899 0.000000 0.000000
# 3 -0.003103 -0.003103 0.008473 0.000000 0.000000 0.000000
# 4 0.034899 -0.034899 0.000000 0.206497 0.000000 0.000000
# 5 0.000000 0.000000 0.000000 0.000000 0.206497 0.069799
# 6 0.000000 0.000000 0.000000 0.000000 0.069799 0.095866
#
#
# Mechanical properties :
#
#
# Convention : Reuss Voigt Hill
#
# Bulk Modulus (GPa) = 50.12169 55.99879 53.06024
# Shear Modulus (GPa) = 7.90812 16.21911 12.06362
#
# Velocity S-wave (km/s) = 2.15555 3.08699 2.66232
# Velocity P-wave (km/s) = 5.97027 6.75337 6.37385
#
# Compressibility (1/GPa) = 0.01995144
#
# Stress axis : x y z
#
# Youngs Moduli (GPa) = 33.40107 33.40107 118.02751
#
# Poissons Ratio (x) = 0.60101 0.36624
# Poissons Ratio (y) = 0.60101 0.36624
# Poissons Ratio (z) = 0.10364 0.10364
#
# Static dielectric constant tensor:
#      x y z
#    x 2.916820 0.000000 0.000000 
#    y 0.000000 2.916820 0.000000 
#    z 0.000000 0.000000 3.819870 
# 
# 
# High freq. dielectric constant tensor:
#      x y z
#    x 1.632250 0.000000 0.000000 
#    y 0.000000 1.632250 0.000000 
#    z 0.000000 0.000000 1.693190 
# 
# From -- ./inp_files/5459.got.cif
#   From: 2010.03.12/outbox.cif.g09.slc.cpg/sg164_3_cif.got.tgz:5459.got - 2010.04.02 06:32:59.
