data_PCOD8323913
_publ_section_title
;
Structure prediction by ZEFSAII (Michael W. Deem and Ramdas Pophale) SiO2 
 PCOD8323913
Probable space group: P -3 C 1
;
_chemical_formula_sum "Si O2"
_cell_formula_units_Z 36
_cell_length_a 9.317453
_cell_length_b 9.317453
_cell_length_c 25.296346
_cell_angle_alpha 90.000000
_cell_angle_beta 90.000000
_cell_angle_gamma 120.000000
_cell_volume 1901.878837
_symmetry_space_group_name_H-M "P -3 C 1"
_symmetry_group_IT_number 165
_symmetry_cell_setting 'hexagonal'
loop_
_space_group_symop_operation_xyz
x,y,z
-y,x-y,z
-x+y,-x,z
x-y,-y,1/2-z
-x,-x+y,1/2-z
y,x,1/2-z
-x,-y,-z
y,-x+y,-z
x-y,x,-z
-x+y,y,1/2+z
x,x-y,1/2+z
-y,-x,1/2+z
loop_
_atom_site_type_symbol
_atom_site_label
_atom_site_fract_x
_atom_site_fract_y
_atom_site_fract_z
Si Si1 0.115026 0.300545 0.867121
Si Si2 0.333333 0.666667 0.364490
Si Si3 0.804684 0.696240 0.298281
Si Si4 0.000000 0.000000 0.562333
Si Si5 0.333334 0.666668 0.738948
O O1 0.185411 0.489879 0.885439
O O2 0.271936 0.287234 0.846892
O O3 0.986260 0.249489 0.817968
O O4 0.031899 0.177616 0.916674
O O5 0.333334 0.666667 0.301565
O O6 0.815395 0.815395 0.250000
O O7 0.694236 0.506563 0.281916
O O8 0.000000 0.000000 0.500000
#
# Coordination Sequence:
#
# PCOD8323913 Si02
#       5
#    12   4  12   4   4
#     4  10  22  36  59  79 110 146 184 239 263 325
#     4  12  21  36  51  88 119 142 189 219 279 310
#     4  11  21  34  48  78 111 157 191 208 259 314
#     4   9  21  45  64  80 100 141 189 231 292 341
#     4  12  24  30  51  76 125 163 174 216 252 316
#
# _framework density 18.928650999999999
#
# number of rings (size 3 to 8) (size 9 to 14) (size 15 to 20)
#    0.000    1.333    3.333    3.667    0.000    0.000 
#    0.000    1.667    0.000    0.000    0.000    0.000 
#    0.000    0.000    0.000    0.000    0.000    0.000 
#
# Total GULP energy -446310.056667 kJ/mol
# GULP energy per Si atom -12397.501574 kJ/mol
# Density = 1.888557 g / cm^3
# Si number density = 18.928651 Si / 1000 Ang^3
#
#
#
# Elastic Constant Matrix: (Units=GPa)
#
#
# Indices 1 2 3 4 5 6 
#
# 1 93.0847 36.3835 30.2701 -4.3055 0.0000 0.0000
# 2 36.3835 93.0850 30.2704 4.3058 0.0000 0.0000
# 3 30.2701 30.2704 93.8389 -0.0001 0.0000 0.0000
# 4 -4.3055 4.3058 -0.0001 11.8113 0.0000 0.0000
# 5 0.0000 0.0000 0.0000 0.0000 11.8110 -4.3057
# 6 0.0000 0.0000 0.0000 0.0000 -4.3057 28.3515
#
#
#
# Elastic Compliance Matrix: (Units=1/GPa)
#
#
# Indices 1 2 3 4 5 6 
#
# 1 0.013883 -0.004787 -0.002934 0.006806 0.000000 0.000000
# 2 -0.004787 0.013883 -0.002934 -0.006806 0.000000 0.000000
# 3 -0.002934 -0.002934 0.012550 0.000000 0.000000 0.000000
# 4 0.006806 -0.006806 0.000000 0.089627 0.000000 0.000000
# 5 0.000000 0.000000 0.000000 0.000000 0.089629 0.013612
# 6 0.000000 0.000000 0.000000 0.000000 0.013612 0.037339
#
#
# Mechanical properties :
#
#
# Convention : Reuss Voigt Hill
#
# Bulk Modulus (GPa) = 52.61819 52.65075 52.63447
# Shear Modulus (GPa) = 17.57126 22.60039 20.08583
#
# Velocity S-wave (km/s) = 3.05009 3.45915 3.26104
# Velocity P-wave (km/s) = 6.34528 6.62042 6.48431
#
# Compressibility (1/GPa) = 0.01900483
#
# Stress axis : x y z
#
# Youngs Moduli (GPa) = 72.03110 72.03093 79.68432
#
# Poissons Ratio (x) = 0.34481 0.23380
# Poissons Ratio (y) = 0.34481 0.23381
# Poissons Ratio (z) = 0.21135 0.21135
#
# Static dielectric constant tensor:
#      x y z
#    x 3.603920 0.000000 0.000000 
#    y 0.000000 3.603910 0.000000 
#    z 0.000000 0.000000 2.960440 
# 
# 
# High freq. dielectric constant tensor:
#      x y z
#    x 1.742780 0.000000 0.000000 
#    y 0.000000 1.742780 0.000000 
#    z 0.000000 0.000000 1.677000 
# 
# From -- ./inp_files/3228.got.cif
#   From: 2010.03.12/outbox.cif.g09.slc.cpg/sg165_2_cif.got.tgz:3228.got - 2010.04.02 06:36:38.
