data_PCOD8323557
_publ_section_title
;
Structure prediction by ZEFSAII (Michael W. Deem and Ramdas Pophale) SiO2 
 PCOD8323557
Probable space group: P -3 M 1
;
_chemical_formula_sum "Si O2"
_cell_formula_units_Z 90
_cell_length_a 18.056662
_cell_length_b 18.056662
_cell_length_c 17.884599
_cell_angle_alpha 90.000000
_cell_angle_beta 90.000000
_cell_angle_gamma 120.000000
_cell_volume 5049.923231
_symmetry_space_group_name_H-M "P -3 M 1"
_symmetry_group_IT_number 164
_symmetry_cell_setting 'hexagonal'
loop_
_space_group_symop_operation_xyz
x,y,z
-y,x-y,z
-x+y,-x,z
x-y,-y,-z
-x,-x+y,-z
y,x,-z
-x,-y,-z
y,-x+y,-z
x-y,x,-z
-x+y,y,z
x,x-y,z
-y,-x,z
loop_
_atom_site_type_symbol
_atom_site_label
_atom_site_fract_x
_atom_site_fract_y
_atom_site_fract_z
Si Si1 0.232666 0.937220 0.636561
Si Si2 0.169890 0.665676 0.338788
Si Si3 0.012447 0.426657 0.913569
Si Si4 0.581134 0.993443 0.588073
Si Si5 0.058677 0.290052 0.925833
Si Si6 0.301010 0.860445 0.180377
Si Si7 0.824950 0.000000 0.500000
Si Si8 0.038810 0.245223 0.217214
O O1 0.160499 0.839502 0.629606
O O2 0.320407 0.933449 0.626619
O O3 0.225087 0.994714 0.572011
O O4 0.220033 0.973171 0.714733
O O5 0.199651 0.599826 0.366265
O O6 0.239433 0.760567 0.362518
O O7 0.157528 0.654223 0.249640
O O8 0.085301 0.647584 0.380188
O O9 0.051121 0.525561 0.883420
O O10 0.069123 0.381351 0.897415
O O11 0.917192 0.370223 0.880642
O O12 0.000000 0.428921 0.000000
O O13 0.482431 0.964862 0.609847
O O14 0.593337 0.000000 0.500000
O O15 0.151799 0.303597 0.944245
O O16 0.013824 0.220763 0.860032
O O17 0.000000 0.257539 0.000000
O O18 0.229244 0.770757 0.143181
O O19 0.254826 0.908342 0.214603
O O20 0.917947 0.082054 0.508072
O O21 0.104307 0.208613 0.227511
#
# Coordination Sequence:
#
# PCOD8323557 Si02
#       8
#    12  12  12  12  12  12   6  12
#     4  11  21  34  54  79 105 138 182 226 265 320
#     4  10  19  31  51  78 109 139 169 208 259 319
#     4   9  18  31  48  73 106 140 176 217 261 314
#     4  10  21  37  54  76 106 139 174 217 265 310
#     4  10  20  35  56  80 106 142 188 234 282 337
#     4   9  17  29  50  76 103 137 171 210 256 310
#     4  10  21  34  51  74 104 140 176 218 267 320
#     4  10  19  33  53  78 108 138 175 223 275 323
#
# _framework density 17.822053
#
# number of rings (size 3 to 8) (size 9 to 14) (size 15 to 20)
#    0.000    2.133    2.000    1.800    0.000    4.267 
#    0.000    0.000    0.000    6.667    0.000    2.800 
#    0.000    1.067    0.000    0.000    0.000    0.000 
#
# Total GULP energy -1115289.236655 kJ/mol
# GULP energy per Si atom -12392.102629 kJ/mol
# Density = 1.778149 g / cm^3
# Si number density = 17.822053 Si / 1000 Ang^3
#
#
#
# Elastic Constant Matrix: (Units=GPa)
#
#
# Indices 1 2 3 4 5 6 
#
# 1 92.2716 64.8331 31.1718 6.7061 0.0000 0.0000
# 2 64.8331 92.2716 31.1718 -6.7061 0.0000 0.0000
# 3 31.1718 31.1718 84.3466 0.0000 0.0000 0.0000
# 4 6.7061 -6.7061 0.0000 16.7686 0.0000 0.0000
# 5 0.0000 0.0000 0.0000 0.0000 16.7686 6.7061
# 6 0.0000 0.0000 0.0000 0.0000 6.7061 13.7192
#
#
#
# Elastic Compliance Matrix: (Units=1/GPa)
#
#
# Indices 1 2 3 4 5 6 
#
# 1 0.026380 -0.018921 -0.002757 -0.018117 0.000000 0.000000
# 2 -0.018921 0.026380 -0.002757 0.018117 0.000000 0.000000
# 3 -0.002757 -0.002757 0.013893 0.000000 0.000000 0.000000
# 4 -0.018117 0.018117 0.000000 0.074126 0.000000 0.000000
# 5 0.000000 0.000000 0.000000 0.000000 0.074126 -0.036233
# 6 0.000000 0.000000 0.000000 0.000000 -0.036233 0.090601
#
#
# Mechanical properties :
#
#
# Convention : Reuss Voigt Hill
#
# Bulk Modulus (GPa) = 56.22719 58.13815 57.18267
# Shear Modulus (GPa) = 13.87725 18.89882 16.38803
#
# Velocity S-wave (km/s) = 2.79347 3.25994 3.03568
# Velocity P-wave (km/s) = 6.48246 6.84557 6.66649
#
# Compressibility (1/GPa) = 0.01778499
#
# Stress axis : x y z
#
# Youngs Moduli (GPa) = 37.90770 37.90770 71.97671
#
# Poissons Ratio (x) = 0.71724 0.19841
# Poissons Ratio (y) = 0.71724 0.19841
# Poissons Ratio (z) = 0.10450 0.10450
#
# Static dielectric constant tensor:
#      x y z
#    x 3.426450 0.000000 0.000000 
#    y 0.000000 3.426450 0.000000 
#    z 0.000000 0.000000 3.289130 
# 
# 
# High freq. dielectric constant tensor:
#      x y z
#    x 1.682120 0.000000 0.000000 
#    y 0.000000 1.682120 0.000000 
#    z 0.000000 0.000000 1.690390 
# 
# From -- ./inp_files/4245.got.cif
#   From: 2010.03.12/outbox.cif.g09.slc.cpg/sg164_3_cif.got.tgz:4245.got - 2010.04.02 06:32:59.
