data_PCOD8323343
_publ_section_title
;
Structure prediction by ZEFSAII (Michael W. Deem and Ramdas Pophale) SiO2 
 PCOD8323343
Probable space group: P -3 1 C
;
_chemical_formula_sum "Si O2"
_cell_formula_units_Z 40
_cell_length_a 10.899225
_cell_length_b 10.899225
_cell_length_c 15.508543
_cell_angle_alpha 90.000000
_cell_angle_beta 90.000000
_cell_angle_gamma 120.000000
_cell_volume 1595.485518
_symmetry_space_group_name_H-M "P -3 1 C"
_symmetry_group_IT_number 163
_symmetry_cell_setting 'hexagonal'
loop_
_space_group_symop_operation_xyz
x,y,z
-y,x-y,z
-x+y,-x,z
-y,-x,1/2-z
-x+y,y,1/2-z
x,x-y,1/2-z
-x,-y,-z
y,-x+y,-z
x-y,x,-z
y,x,1/2+z
x-y,-y,1/2+z
-x,-x+y,1/2+z
loop_
_atom_site_type_symbol
_atom_site_label
_atom_site_fract_x
_atom_site_fract_y
_atom_site_fract_z
Si Si1 0.610917 0.868492 0.344881
Si Si2 0.000000 0.000000 0.601868
Si Si3 0.160621 0.294955 0.652621
Si Si4 0.413658 0.959249 0.412529
O O1 0.636952 0.818476 0.250000
O O2 0.482833 0.903175 0.341010
O O3 0.579758 0.749052 0.417074
O O4 0.737080 0.016099 0.385607
O O5 0.141511 0.137644 0.639484
O O6 0.000000 0.000000 0.500000
O O7 0.170282 0.340564 0.750000
O O8 0.309546 0.412796 0.612977
O O9 0.500000 0.000000 0.500000
#
# Coordination Sequence:
#
# PCOD8323343 Si02
#       4
#    12   4  12  12
#     4  12  26  53  84 116 171 234 283 347 442 536
#     4  12  25  41  79 123 157 197 277 369 412 500
#     4  12  25  50  83 119 160 223 289 347 424 526
#     4  12  30  49  82 127 172 223 288 369 441 514
#
# _framework density 25.070737999999999
#
# number of rings (size 3 to 8) (size 9 to 14) (size 15 to 20)
#    0.000    0.000    6.000    2.400    8.400    0.000 
#    1.800    0.000    0.000    0.000    0.000    0.000 
#    0.000    0.000    0.000    0.000    0.000    0.000 
#
# Total GULP energy -495586.386574 kJ/mol
# GULP energy per Si atom -12389.659664 kJ/mol
# Density = 2.501368 g / cm^3
# Si number density = 25.070738 Si / 1000 Ang^3
#
#
#
# Elastic Constant Matrix: (Units=GPa)
#
#
# Indices 1 2 3 4 5 6 
#
# 1 184.3464 78.1968 66.9850 0.0000 -6.4068 0.0000
# 2 78.1968 184.3464 66.9850 0.0000 6.4068 0.0000
# 3 66.9850 66.9850 135.0256 0.0000 0.0000 0.0000
# 4 0.0000 0.0000 0.0000 43.9188 0.0000 6.4068
# 5 -6.4068 6.4068 0.0000 0.0000 43.9188 0.0000
# 6 0.0000 0.0000 0.0000 6.4068 0.0000 53.0748
#
#
#
# Elastic Compliance Matrix: (Units=1/GPa)
#
#
# Indices 1 2 3 4 5 6 
#
# 1 0.007345 -0.002245 -0.002530 0.000000 0.001399 0.000000
# 2 -0.002245 0.007345 -0.002530 0.000000 -0.001399 0.000000
# 3 -0.002530 -0.002530 0.009916 0.000000 0.000000 0.000000
# 4 0.000000 0.000000 0.000000 0.023177 0.000000 -0.002798
# 5 0.001399 -0.001399 0.000000 0.000000 0.023177 0.000000
# 6 0.000000 0.000000 0.000000 -0.002798 0.000000 0.019179
#
#
# Mechanical properties :
#
#
# Convention : Reuss Voigt Hill
#
# Bulk Modulus (GPa) = 100.04019 103.11690 101.57855
# Shear Modulus (GPa) = 46.26148 47.61927 46.94037
#
# Velocity S-wave (km/s) = 4.30028 4.36293 4.33172
# Velocity P-wave (km/s) = 8.04030 8.16088 8.10081
#
# Compressibility (1/GPa) = 0.00999598
#
# Stress axis : x y z
#
# Youngs Moduli (GPa) = 136.15223 136.15223 100.84466
#
# Poissons Ratio (x) = 0.30564 0.25514
# Poissons Ratio (y) = 0.30564 0.25514
# Poissons Ratio (z) = 0.34447 0.34447
#
# Static dielectric constant tensor:
#      x y z
#    x 5.469200 0.000000 0.000000 
#    y 0.000000 5.469200 0.000000 
#    z 0.000000 0.000000 4.005660 
# 
# 
# High freq. dielectric constant tensor:
#      x y z
#    x 2.015410 0.000000 0.000000 
#    y 0.000000 2.015410 0.000000 
#    z 0.000000 0.000000 1.977210 
# 
# From -- ./inp_files/2877.got.cif
#   From: 2010.03.12/outbox.cif.g09.slc.cpg/sg163_2_cif.got.tgz:2877.got - 2010.04.02 06:30:25.
