data_PCOD8323886
_publ_section_title
;
Structure prediction by ZEFSAII (Michael W. Deem and Ramdas Pophale) SiO2 
 PCOD8323886
Probable space group: P -3 C 1
;
_chemical_formula_sum "Si O2"
_cell_formula_units_Z 74
_cell_length_a 13.853453
_cell_length_b 13.853453
_cell_length_c 22.293863
_cell_angle_alpha 90.000000
_cell_angle_beta 90.000000
_cell_angle_gamma 120.000000
_cell_volume 3705.373839
_symmetry_space_group_name_H-M "P -3 C 1"
_symmetry_group_IT_number 165
_symmetry_cell_setting 'hexagonal'
loop_
_space_group_symop_operation_xyz
x,y,z
-y,x-y,z
-x+y,-x,z
x-y,-y,1/2-z
-x,-x+y,1/2-z
y,x,1/2-z
-x,-y,-z
y,-x+y,-z
x-y,x,-z
-x+y,y,1/2+z
x,x-y,1/2+z
-y,-x,1/2+z
loop_
_atom_site_type_symbol
_atom_site_label
_atom_site_fract_x
_atom_site_fract_y
_atom_site_fract_z
Si Si1 0.693839 0.829017 0.838669
Si Si2 0.529540 0.448924 0.444029
Si Si3 0.254360 0.254360 0.750000
Si Si4 0.123147 0.460519 0.746038
Si Si5 0.333335 0.666667 0.563034
Si Si6 0.094850 0.755081 0.124285
Si Si7 0.967956 0.310926 0.371758
Si Si8 0.666667 0.333333 0.292367
O O1 0.580010 0.730312 0.809068
O O2 0.761809 0.780107 0.873286
O O3 0.767311 0.907850 0.782717
O O4 0.670266 0.907165 0.884447
O O5 0.500000 0.500000 0.500000
O O6 0.615973 0.407669 0.461812
O O7 0.417856 0.345673 0.419144
O O8 0.583370 0.544225 0.393718
O O9 0.298638 0.352161 0.699938
O O10 0.128151 0.388683 0.690875
O O11 0.209908 0.589406 0.733603
O O12 0.000000 0.445139 0.750000
O O13 0.333334 0.666667 0.635543
O O14 0.195900 0.870817 0.097958
#
# Coordination Sequence:
#
# PCOD8323886 Si02
#       8
#    12  12   6  12   4  12  12   4
#     4   9  20  35  59  95 138 171 201 252 322 388
#     4  12  26  42  68  93 125 170 221 282 325 388
#     4   8  18  36  60  90 136 170 202 242 324 378
#     4  10  20  34  57  91 133 169 208 253 309 385
#     4  12  24  45  66  97 110 157 228 267 337 395
#     4  11  20  39  62  95 127 165 222 263 318 380
#     4  10  20  41  63  91 131 170 210 264 320 381
#     4  12  21  36  60  94 122 172 216 255 301 392
#
# _framework density 19.970996
#
# number of rings (size 3 to 8) (size 9 to 14) (size 15 to 20)
#    0.973    0.649    4.865    0.000    0.000    3.892 
#    6.811    0.000    5.351    4.541    0.000    1.135 
#    0.000    0.000    0.000    0.000    0.000    0.000 
#
# Total GULP energy -916806.295606 kJ/mol
# GULP energy per Si atom -12389.274265 kJ/mol
# Density = 1.992554 g / cm^3
# Si number density = 19.970996 Si / 1000 Ang^3
#
#
#
# Elastic Constant Matrix: (Units=GPa)
#
#
# Indices 1 2 3 4 5 6 
#
# 1 126.8246 68.3816 43.7281 2.3303 0.0000 0.0000
# 2 68.3816 126.8256 43.7284 -2.3306 0.0000 0.0000
# 3 43.7281 43.7284 60.6198 0.0001 0.0000 0.0000
# 4 2.3303 -2.3306 0.0001 25.5174 0.0000 0.0000
# 5 0.0000 0.0000 0.0000 0.0000 25.5176 2.3303
# 6 0.0000 0.0000 0.0000 0.0000 2.3303 29.2214
#
#
#
# Elastic Compliance Matrix: (Units=1/GPa)
#
#
# Indices 1 2 3 4 5 6 
#
# 1 0.012403 -0.004834 -0.005460 -0.001574 0.000000 0.000000
# 2 -0.004834 0.012402 -0.005460 0.001574 0.000000 0.000000
# 3 -0.005460 -0.005460 0.024373 0.000000 0.000000 0.000000
# 4 -0.001574 0.001574 0.000000 0.039477 0.000000 0.000000
# 5 0.000000 0.000000 0.000000 0.000000 0.039476 -0.003148
# 6 0.000000 0.000000 0.000000 0.000000 -0.003148 0.034473
#
#
# Mechanical properties :
#
#
# Convention : Reuss Voigt Hill
#
# Bulk Modulus (GPa) = 56.58788 69.54959 63.06873
# Shear Modulus (GPa) = 24.99993 26.61340 25.80667
#
# Velocity S-wave (km/s) = 3.54193 3.65444 3.59863
# Velocity P-wave (km/s) = 6.71741 7.25999 6.99397
#
# Compressibility (1/GPa) = 0.01767163
#
# Stress axis : x y z
#
# Youngs Moduli (GPa) = 80.62877 80.62914 41.02860
#
# Poissons Ratio (x) = 0.38973 0.22401
# Poissons Ratio (y) = 0.38973 0.22401
# Poissons Ratio (z) = 0.44022 0.44023
#
# Static dielectric constant tensor:
#      x y z
#    x 3.703180 0.000000 0.000000 
#    y 0.000000 3.703180 0.000000 
#    z 0.000000 0.000000 3.243720 
# 
# 
# High freq. dielectric constant tensor:
#      x y z
#    x 1.779000 0.000000 0.000000 
#    y 0.000000 1.779000 0.000000 
#    z 0.000000 0.000000 1.732830 
# 
# From -- ./inp_files/2952.got.cif
#   From: 2010.03.12/outbox.cif.g09.slc.cpg/sg165_2_cif.got.tgz:2952.got - 2010.04.02 06:36:38.
