data_PCOD8323706
_publ_section_title
;
Structure prediction by ZEFSAII (Michael W. Deem and Ramdas Pophale) SiO2 
 PCOD8323706
Probable space group: P -3 M 1
;
_chemical_formula_sum "Si O2"
_cell_formula_units_Z 54
_cell_length_a 12.719265
_cell_length_b 12.719265
_cell_length_c 22.696235
_cell_angle_alpha 90.000000
_cell_angle_beta 90.000000
_cell_angle_gamma 120.000000
_cell_volume 3179.863537
_symmetry_space_group_name_H-M "P -3 M 1"
_symmetry_group_IT_number 164
_symmetry_cell_setting 'hexagonal'
loop_
_space_group_symop_operation_xyz
x,y,z
-y,x-y,z
-x+y,-x,z
x-y,-y,-z
-x,-x+y,-z
y,x,-z
-x,-y,-z
y,-x+y,-z
x-y,x,-z
-x+y,y,z
x,x-y,z
-y,-x,z
loop_
_atom_site_type_symbol
_atom_site_label
_atom_site_fract_x
_atom_site_fract_y
_atom_site_fract_z
Si Si1 0.666518 0.574380 0.790074
Si Si2 0.422436 0.087844 0.446047
Si Si3 0.754446 0.754446 0.000000
Si Si4 0.333344 0.424561 0.344412
Si Si5 0.578323 0.911266 0.892111
O O1 0.795032 0.590063 0.808606
O O2 0.566470 0.433531 0.798485
O O3 0.668045 0.615706 0.722930
O O4 0.637257 0.659153 0.830845
O O5 0.563539 0.127077 0.445978
O O6 0.410766 0.205383 0.452882
O O7 0.352995 0.000000 0.500000
O O8 0.358446 0.021594 0.385243
O O9 0.689954 0.672447 0.056351
O O10 0.885201 0.770402 0.988102
O O11 0.206394 0.412788 0.362483
O O12 0.436080 0.563921 0.354672
O O13 0.455455 0.910909 0.906876
O O14 0.547786 0.773893 0.886337
#
# Coordination Sequence:
#
# PCOD8323706 Si02
#       5
#    12  12   6  12  12
#     4   9  17  30  49  73  98 124 156 194 235 277
#     4  10  20  33  50  72  97 125 157 195 238 283
#     4  10  20  34  52  72  94 122 158 200 242 284
#     4   9  17  30  50  74  98 124 155 193 235 278
#     4  10  20  33  49  70  97 128 160 194 235 284
#
# _framework density 16.981859
#
# number of rings (size 3 to 8) (size 9 to 14) (size 15 to 20)
#    0.000    2.444    0.000    2.667    0.000    2.667 
#    0.000    2.222    0.000   14.222    0.000    0.000 
#    0.000    0.000    0.000    0.000    0.000    0.000 
#
# Total GULP energy -669725.682095 kJ/mol
# GULP energy per Si atom -12402.327446 kJ/mol
# Density = 1.694321 g / cm^3
# Si number density = 16.981859 Si / 1000 Ang^3
#
#
#
# Elastic Constant Matrix: (Units=GPa)
#
#
# Indices 1 2 3 4 5 6 
#
# 1 111.5718 72.8720 64.5828 -2.7332 0.0000 0.0000
# 2 72.8720 111.5718 64.5828 2.7332 0.0000 0.0000
# 3 64.5828 64.5828 105.7990 0.0000 0.0000 0.0000
# 4 -2.7332 2.7332 0.0000 25.1335 0.0000 0.0000
# 5 0.0000 0.0000 0.0000 0.0000 25.1335 -2.7332
# 6 0.0000 0.0000 0.0000 0.0000 -2.7332 19.3499
#
#
#
# Elastic Compliance Matrix: (Units=1/GPa)
#
#
# Indices 1 2 3 4 5 6 
#
# 1 0.017856 -0.008387 -0.005781 0.002854 0.000000 0.000000
# 2 -0.008387 0.017856 -0.005781 -0.002854 0.000000 0.000000
# 3 -0.005781 -0.005781 0.016509 0.000000 0.000000 0.000000
# 4 0.002854 -0.002854 0.000000 0.040408 0.000000 0.000000
# 5 0.000000 0.000000 0.000000 0.000000 0.040408 0.005708
# 6 0.000000 0.000000 0.000000 0.000000 0.005708 0.052486
#
#
# Mechanical properties :
#
#
# Convention : Reuss Voigt Hill
#
# Bulk Modulus (GPa) = 81.12733 81.44642 81.28688
# Shear Modulus (GPa) = 21.78368 22.38371 22.08369
#
# Velocity S-wave (km/s) = 3.58545 3.63450 3.61006
# Velocity P-wave (km/s) = 8.06333 8.10418 8.08378
#
# Compressibility (1/GPa) = 0.01232630
#
# Stress axis : x y z
#
# Youngs Moduli (GPa) = 56.00208 56.00208 60.57173
#
# Poissons Ratio (x) = 0.46966 0.35015
# Poissons Ratio (y) = 0.46966 0.35015
# Poissons Ratio (z) = 0.32373 0.32373
#
# Static dielectric constant tensor:
#      x y z
#    x 3.078010 0.000000 0.000000 
#    y 0.000000 3.078010 0.000000 
#    z 0.000000 0.000000 3.393490 
# 
# 
# High freq. dielectric constant tensor:
#      x y z
#    x 1.649620 0.000000 0.000000 
#    y 0.000000 1.649620 0.000000 
#    z 0.000000 0.000000 1.669000 
# 
# From -- ./inp_files/4835.got.cif
#   From: 2010.03.12/outbox.cif.g09.slc.cpg/sg164_3_cif.got.tgz:4835.got - 2010.04.02 06:32:59.
