data_PCOD8323793
_publ_section_title
;
Structure prediction by ZEFSAII (Michael W. Deem and Ramdas Pophale) SiO2 
 PCOD8323793
Probable space group: P -3 M 1
;
_chemical_formula_sum "Si O2"
_cell_formula_units_Z 42
_cell_length_a 20.859628
_cell_length_b 20.859628
_cell_length_c 5.126593
_cell_angle_alpha 90.000000
_cell_angle_beta 90.000000
_cell_angle_gamma 120.000000
_cell_volume 1931.846388
_symmetry_space_group_name_H-M "P -3 M 1"
_symmetry_group_IT_number 164
_symmetry_cell_setting 'hexagonal'
loop_
_space_group_symop_operation_xyz
x,y,z
-y,x-y,z
-x+y,-x,z
x-y,-y,-z
-x,-x+y,-z
y,x,-z
-x,-y,-z
y,-x+y,-z
x-y,x,-z
-x+y,y,z
x,x-y,z
-y,-x,z
loop_
_atom_site_type_symbol
_atom_site_label
_atom_site_fract_x
_atom_site_fract_y
_atom_site_fract_z
Si Si1 0.383935 0.470913 0.460527
Si Si2 0.713861 0.139380 0.048649
Si Si3 0.277848 0.068628 0.341230
Si Si4 0.861351 0.861351 0.000000
O O1 0.421167 0.421167 0.500000
O O2 0.445487 0.554514 0.388415
O O3 0.344471 0.473042 0.726959
O O4 0.324370 0.436938 0.230757
O O5 0.774047 0.225954 0.029012
O O6 0.751763 0.090493 0.116295
O O7 0.293673 0.146837 0.485654
O O8 0.196866 0.033171 0.228511
O O9 0.275800 0.000000 0.500000
O O10 0.873744 0.936872 0.128590
#
# Coordination Sequence:
#
# PCOD8323793 Si02
#       4
#    12  12  12   6
#     4  11  24  43  69  99 130 170 215 264 322 387
#     4  11  24  41  66  98 134 170 209 264 326 385
#     4  10  22  36  56  85 120 163 213 267 323 378
#     4  10  21  36  54  78 113 160 214 264 312 364
#
# _framework density 21.740860000000001
#
# number of rings (size 3 to 8) (size 9 to 14) (size 15 to 20)
#    0.000    1.429    0.000    4.429    8.000    2.286 
#    0.000    0.000    0.000   16.000    0.000    0.000 
#    0.000    0.000    0.000    0.000    0.000    0.000 
#
# Total GULP energy -520514.068499 kJ/mol
# GULP energy per Si atom -12393.192107 kJ/mol
# Density = 2.169138 g / cm^3
# Si number density = 21.740860 Si / 1000 Ang^3
#
#
#
# Elastic Constant Matrix: (Units=GPa)
#
#
# Indices 1 2 3 4 5 6 
#
# 1 97.9398 60.7569 17.0593 6.9945 0.0000 0.0000
# 2 60.7569 97.9398 17.0593 -6.9945 0.0000 0.0000
# 3 17.0593 17.0593 72.2003 0.0000 0.0000 0.0000
# 4 6.9945 -6.9945 0.0000 34.4615 0.0000 0.0000
# 5 0.0000 0.0000 0.0000 0.0000 34.4615 6.9945
# 6 0.0000 0.0000 0.0000 0.0000 6.9945 18.5915
#
#
#
# Elastic Compliance Matrix: (Units=1/GPa)
#
#
# Indices 1 2 3 4 5 6 
#
# 1 0.017878 -0.011239 -0.001569 -0.005910 0.000000 0.000000
# 2 -0.011239 0.017878 -0.001569 0.005910 0.000000 0.000000
# 3 -0.001569 -0.001569 0.014592 0.000000 0.000000 0.000000
# 4 -0.005910 0.005910 0.000000 0.031417 0.000000 0.000000
# 5 0.000000 0.000000 0.000000 0.000000 0.031417 -0.011820
# 6 0.000000 0.000000 0.000000 0.000000 -0.011820 0.058235
#
#
# Mechanical properties :
#
#
# Convention : Reuss Voigt Hill
#
# Bulk Modulus (GPa) = 46.30801 50.87008 48.58904
# Shear Modulus (GPa) = 24.11176 29.04987 26.58081
#
# Velocity S-wave (km/s) = 3.33386 3.65936 3.50039
# Velocity P-wave (km/s) = 6.01379 6.42679 6.22372
#
# Compressibility (1/GPa) = 0.02159454
#
# Stress axis : x y z
#
# Youngs Moduli (GPa) = 55.93459 55.93459 68.53267
#
# Poissons Ratio (x) = 0.62868 0.10750
# Poissons Ratio (y) = 0.62868 0.10750
# Poissons Ratio (z) = 0.08774 0.08774
#
# Static dielectric constant tensor:
#      x y z
#    x 4.340170 0.000000 0.000000 
#    y 0.000000 4.340170 0.000000 
#    z 0.000000 0.000000 3.705450 
# 
# 
# High freq. dielectric constant tensor:
#      x y z
#    x 1.861170 0.000000 0.000000 
#    y 0.000000 1.861170 0.000000 
#    z 0.000000 0.000000 1.842020 
# 
# From -- ./inp_files/339.got.cif
#   From: 2010.03.12/outbox.cif.g09.slc.cpg/sg164_1_cif.got.tgz:339.got - 2010.04.02 06:32:59.
