data_PCOD8323833
_publ_section_title
;
Structure prediction by ZEFSAII (Michael W. Deem and Ramdas Pophale) SiO2 
 PCOD8323833
Probable space group: P -3 M 1
;
_chemical_formula_sum "Si O2"
_cell_formula_units_Z 84
_cell_length_a 16.878398
_cell_length_b 16.878398
_cell_length_c 22.661252
_cell_angle_alpha 90.000000
_cell_angle_beta 90.000000
_cell_angle_gamma 120.000000
_cell_volume 5590.838910
_symmetry_space_group_name_H-M "P -3 M 1"
_symmetry_group_IT_number 164
_symmetry_cell_setting 'hexagonal'
loop_
_space_group_symop_operation_xyz
x,y,z
-y,x-y,z
-x+y,-x,z
x-y,-y,-z
-x,-x+y,-z
y,x,-z
-x,-y,-z
y,-x+y,-z
x-y,x,-z
-x+y,y,z
x,x-y,z
-y,-x,z
loop_
_atom_site_type_symbol
_atom_site_label
_atom_site_fract_x
_atom_site_fract_y
_atom_site_fract_z
Si Si1 0.667420 0.153819 0.522093
Si Si2 0.362420 0.274526 0.764721
Si Si3 0.757299 0.694750 0.449306
Si Si4 0.273953 0.908993 0.368329
Si Si5 0.936857 0.243025 0.944970
Si Si6 0.185909 0.999271 0.168299
Si Si7 0.149674 0.483191 0.130263
O O1 0.566831 0.133662 0.507176
O O2 0.738464 0.261537 0.516459
O O3 0.691661 0.098447 0.474880
O O4 0.670163 0.121739 0.588898
O O5 0.360693 0.180347 0.774448
O O6 0.388769 0.312080 0.698116
O O7 0.260837 0.253167 0.783060
O O8 0.441301 0.346300 0.808160
O O9 0.765899 0.765899 0.500000
O O10 0.856395 0.712790 0.433046
O O11 0.717610 0.711837 0.389682
O O12 0.166384 0.833617 0.370582
O O13 0.852481 0.147520 0.966693
O O14 0.993372 0.222879 0.895964
O O15 0.899989 0.307702 0.920198
O O16 0.000000 0.294388 0.000000
O O17 0.081384 0.918617 0.176645
O O18 0.191319 0.095660 0.176785
O O19 0.255673 0.511345 0.136090
O O20 0.143365 0.571683 0.113249
#
# Coordination Sequence:
#
# PCOD8323833 Si02
#       7
#    12  12  12  12  12  12  12
#     4   9  17  28  42  60  80 101 125 156 196 240
#     4   8  16  29  41  57  81 106 131 162 201 237
#     4   9  17  28  42  59  79 105 134 163 198 238
#     4   9  17  29  43  58  79 105 132 163 197 234
#     4   9  17  28  42  61  85 111 137 166 201 238
#     4   9  16  26  41  60  82 108 137 166 195 230
#     4   9  17  29  44  61  82 108 137 167 200 239
#
# _framework density 15.024578999999999
#
# number of rings (size 3 to 8) (size 9 to 14) (size 15 to 20)
#    0.000    3.143    0.000    3.857    0.000    4.000 
#    0.000    0.000    0.000    6.571    0.000    0.000 
#    0.000    0.000    0.000   14.143    0.000    0.000 
#
# Total GULP energy -1041190.326284 kJ/mol
# GULP energy per Si atom -12395.122932 kJ/mol
# Density = 1.499038 g / cm^3
# Si number density = 15.024579 Si / 1000 Ang^3
#
#
#
# Elastic Constant Matrix: (Units=GPa)
#
#
# Indices 1 2 3 4 5 6 
#
# 1 69.8104 31.8605 23.6245 -1.8384 0.0000 0.0000
# 2 31.8605 69.8104 23.6245 1.8384 0.0000 0.0000
# 3 23.6245 23.6245 75.8224 0.0000 0.0000 0.0000
# 4 -1.8384 1.8384 0.0000 14.3973 0.0000 0.0000
# 5 0.0000 0.0000 0.0000 0.0000 14.3973 -1.8384
# 6 0.0000 0.0000 0.0000 0.0000 -1.8384 18.9749
#
#
#
# Elastic Compliance Matrix: (Units=1/GPa)
#
#
# Indices 1 2 3 4 5 6 
#
# 1 0.019091 -0.007590 -0.003583 0.003407 0.000000 0.000000
# 2 -0.007590 0.019091 -0.003583 -0.003407 0.000000 0.000000
# 3 -0.003583 -0.003583 0.015422 0.000000 0.000000 0.000000
# 4 0.003407 -0.003407 0.000000 0.070327 0.000000 0.000000
# 5 0.000000 0.000000 0.000000 0.000000 0.070327 0.006814
# 6 0.000000 0.000000 0.000000 0.000000 0.006814 0.053361
#
#
# Mechanical properties :
#
#
# Convention : Reuss Voigt Hill
#
# Bulk Modulus (GPa) = 41.51108 41.51800 41.51454
# Shear Modulus (GPa) = 17.53385 18.64283 18.08834
#
# Velocity S-wave (km/s) = 3.41986 3.52635 3.47351
# Velocity P-wave (km/s) = 6.57896 6.65384 6.61650
#
# Compressibility (1/GPa) = 0.02408995
#
# Stress axis : x y z
#
# Youngs Moduli (GPa) = 52.38130 52.38130 64.84352
#
# Poissons Ratio (x) = 0.39756 0.23236
# Poissons Ratio (y) = 0.39756 0.23236
# Poissons Ratio (z) = 0.18770 0.18770
#
# Static dielectric constant tensor:
#      x y z
#    x 2.760390 0.000000 0.000000 
#    y 0.000000 2.760390 0.000000 
#    z 0.000000 0.000000 2.879170 
# 
# 
# High freq. dielectric constant tensor:
#      x y z
#    x 1.563450 0.000000 0.000000 
#    y 0.000000 1.563450 0.000000 
#    z 0.000000 0.000000 1.569540 
# 
# From -- ./inp_files/4676.got.cif
#   From: 2010.03.12/outbox.cif.g09.slc.cpg/sg164_3_cif.got.tgz:4676.got - 2010.04.02 06:32:59.
