data_PCOD8323041
_publ_section_title
;
Structure prediction by ZEFSAII (Michael W. Deem and Ramdas Pophale) SiO2 
 PCOD8323041
Probable space group: P -3 1 M 
;
_chemical_formula_sum "Si O2"
_cell_formula_units_Z 54
_cell_length_a 24.039177
_cell_length_b 24.039177
_cell_length_c 5.037863
_cell_angle_alpha 90.000000
_cell_angle_beta 90.000000
_cell_angle_gamma 120.000000
_cell_volume 2521.251532
_symmetry_space_group_name_H-M "P -3 1 M "
_symmetry_group_IT_number 162
_symmetry_cell_setting 'hexagonal'
loop_
_space_group_symop_operation_xyz
x,y,z
-y,x-y,z
-x+y,-x,z
-y,-x,-z
-x+y,y,-z
x,x-y,-z
-x,-y,-z
y,-x+y,-z
x-y,x,-z
y,x,z
x-y,-y,z
-x,-x+y,z
loop_
_atom_site_type_symbol
_atom_site_label
_atom_site_fract_x
_atom_site_fract_y
_atom_site_fract_z
Si Si1 0.493048 0.861480 0.594798
Si Si2 0.653556 0.780435 0.808039
Si Si3 0.075690 0.924311 0.000000
Si Si4 0.879587 0.759174 0.500000
Si Si5 0.231156 0.462312 0.500000
Si Si6 0.357733 0.928057 0.906281
O O1 0.425159 0.850317 0.500000
O O2 0.490313 0.793393 0.598596
O O3 0.548019 0.910893 0.397289
O O4 0.511812 0.887350 0.893513
O O5 0.709031 0.803601 0.578567
O O6 0.583939 0.769219 0.728135
O O7 0.634933 0.712612 0.946171
O O8 0.684820 0.842410 0.000000
O O9 0.082215 0.887048 0.746184
O O10 0.000000 0.893200 0.064714
O O11 0.411541 0.000000 0.961455
#
# Coordination Sequence:
#
# PCOD8323041 Si02
#       6
#    12  12   6   6   6  12
#     4  11  23  40  62  88 125 169 210 263 312 365
#     4  10  19  41  66  93 128 165 205 260 327 385
#     4  12  27  48  68  92 128 172 214 256 318 390
#     4  11  24  42  69 100 123 156 210 272 320 370
#     4   9  20  38  64  90 123 166 217 254 319 382
#     4  11  24  39  61  93 125 165 210 252 311 385
#
# _framework density 21.417933000000001
#
# number of rings (size 3 to 8) (size 9 to 14) (size 15 to 20)
#    0.000    1.333    3.333    2.111    0.000    4.444 
#    0.667    1.111    0.000    0.000    0.000    0.000 
#    0.000    0.000    0.000    0.000    0.000    0.000 
#
# Total GULP energy -669113.707005 kJ/mol
# GULP energy per Si atom -12390.994574 kJ/mol
# Density = 2.136918 g / cm^3
# Si number density = 21.417933 Si / 1000 Ang^3
#
#
#
# Elastic Constant Matrix: (Units=GPa)
#
#
# Indices 1 2 3 4 5 6 
#
# 1 100.4687 61.0801 19.7323 0.0002 3.8455 0.0000
# 2 61.0801 100.4687 19.7323 -0.0002 -3.8455 0.0000
# 3 19.7323 19.7323 87.8350 0.0000 0.0000 0.0000
# 4 0.0002 -0.0002 0.0000 28.0190 0.0000 -3.8455
# 5 3.8455 -3.8455 0.0000 0.0000 28.0190 0.0002
# 6 0.0000 0.0000 0.0000 -3.8455 0.0002 19.6943
#
#
#
# Elastic Compliance Matrix: (Units=1/GPa)
#
#
# Indices 1 2 3 4 5 6 
#
# 1 0.016318 -0.009769 -0.001471 0.000000 -0.003580 0.000000
# 2 -0.009769 0.016318 -0.001471 0.000000 0.003580 0.000000
# 3 -0.001471 -0.001471 0.012046 0.000000 0.000000 0.000000
# 4 0.000000 0.000000 0.000000 0.036673 0.000000 0.007161
# 5 -0.003580 0.003580 0.000000 0.000000 0.036673 0.000000
# 6 0.000000 0.000000 0.000000 0.007161 0.000000 0.052174
#
#
# Mechanical properties :
#
#
# Convention : Reuss Voigt Hill
#
# Bulk Modulus (GPa) = 51.92197 54.42907 53.17552
# Shear Modulus (GPa) = 24.74688 27.69498 26.22093
#
# Velocity S-wave (km/s) = 3.40285 3.59984 3.50273
# Velocity P-wave (km/s) = 6.30350 6.53808 6.42186
#
# Compressibility (1/GPa) = 0.01925967
#
# Stress axis : x y z
#
# Youngs Moduli (GPa) = 61.28072 61.28072 83.01458
#
# Poissons Ratio (x) = 0.59864 0.12214
# Poissons Ratio (y) = 0.59864 0.12214
# Poissons Ratio (z) = 0.09017 0.09017
#
# Static dielectric constant tensor:
#      x y z
#    x 3.833670 0.000000 0.000000 
#    y 0.000000 3.833670 0.000000 
#    z 0.000000 0.000000 3.936610 
# 
# 
# High freq. dielectric constant tensor:
#      x y z
#    x 1.827040 0.000000 0.000000 
#    y 0.000000 1.827040 0.000000 
#    z 0.000000 0.000000 1.848250 
# 
# From -- ./inp_files/575.got.cif
#   From: 2010.03.12/outbox.cif.g09.slc.cpg/sg162_1_cif.got.tgz:575.got - 2010.04.02 06:27:41.
