data_PCOD8323930
_publ_section_title
;
Structure prediction by ZEFSAII (Michael W. Deem and Ramdas Pophale) SiO2 
 PCOD8323930
Probable space group: P -3 C 1
;
_chemical_formula_sum "Si O2"
_cell_formula_units_Z 42
_cell_length_a 10.867769
_cell_length_b 10.867769
_cell_length_c 19.144939
_cell_angle_alpha 90.000000
_cell_angle_beta 90.000000
_cell_angle_gamma 120.000000
_cell_volume 1958.237739
_symmetry_space_group_name_H-M "P -3 C 1"
_symmetry_group_IT_number 165
_symmetry_cell_setting 'hexagonal'
loop_
_space_group_symop_operation_xyz
x,y,z
-y,x-y,z
-x+y,-x,z
x-y,-y,1/2-z
-x,-x+y,1/2-z
y,x,1/2-z
-x,-y,-z
y,-x+y,-z
x-y,x,-z
-x+y,y,1/2+z
x,x-y,1/2+z
-y,-x,1/2+z
loop_
_atom_site_type_symbol
_atom_site_label
_atom_site_fract_x
_atom_site_fract_y
_atom_site_fract_z
Si Si1 0.662901 0.174145 0.128163
Si Si2 0.940198 0.683412 0.000000
Si Si3 0.500000 0.000000 0.750000
Si Si4 0.488756 0.662901 0.128163
O O1 0.804538 0.328479 0.122604
O O2 0.662946 0.074397 0.067176
O O3 0.640122 0.096385 0.202652
O O4 0.823531 0.731775 0.000000
O O5 0.925602 0.588548 0.932824
O O6 0.640122 0.096384 0.797348
O O7 0.476059 0.804538 0.122604
#
# Coordination Sequence:
#
# PCOD8323930 Si02
#       4
#    12  12   6  12
#     4  10  23  40  64  99 131 171 216 265 332 395
#     4  12  25  44  66  93 128 176 226 284 338 403
#     4  12  20  38  64  96 150 162 206 264 336 408
#     4  10  23  40  64  99 131 171 216 265 332 395
#
# _framework density 21.447856999999999
#
# number of rings (size 3 to 8) (size 9 to 14) (size 15 to 20)
#    1.143    0.000    0.000    7.143    0.000    3.429 
#    0.000    0.000    0.000    0.000    0.000    4.000 
#    0.000    0.000    0.000    0.000    0.000    0.000 
#
# Total GULP energy -520334.317568 kJ/mol
# GULP energy per Si atom -12388.912323 kJ/mol
# Density = 2.139904 g / cm^3
# Si number density = 21.447857 Si / 1000 Ang^3
#
#
#
# Elastic Constant Matrix: (Units=GPa)
#
#
# Indices 1 2 3 4 5 6 
#
# 1 99.4200 58.0537 65.8402 0.0001 0.0000 0.0000
# 2 58.0537 99.4200 65.8402 -0.0001 0.0000 0.0000
# 3 65.8402 65.8402 194.7593 0.0000 0.0000 0.0000
# 4 0.0001 -0.0001 0.0000 30.3869 0.0000 0.0000
# 5 0.0000 0.0000 0.0000 0.0000 30.3869 0.0001
# 6 0.0000 0.0000 0.0000 0.0000 0.0001 20.6831
#
#
#
# Elastic Compliance Matrix: (Units=1/GPa)
#
#
# Indices 1 2 3 4 5 6 
#
# 1 0.016514 -0.007661 -0.002993 0.000000 0.000000 0.000000
# 2 -0.007661 0.016514 -0.002993 0.000000 0.000000 0.000000
# 3 -0.002993 -0.002993 0.007158 0.000000 0.000000 0.000000
# 4 0.000000 0.000000 0.000000 0.032909 0.000000 0.000000
# 5 0.000000 0.000000 0.000000 0.000000 0.032909 0.000000
# 6 0.000000 0.000000 0.000000 0.000000 0.000000 0.048349
#
#
# Mechanical properties :
#
#
# Convention : Reuss Voigt Hill
#
# Bulk Modulus (GPa) = 77.56404 85.89639 81.73021
# Shear Modulus (GPa) = 26.89014 29.88239 28.38627
#
# Velocity S-wave (km/s) = 3.54467 3.73669 3.64194
# Velocity P-wave (km/s) = 7.27979 7.66505 7.47490
#
# Compressibility (1/GPa) = 0.01289257
#
# Stress axis : x y z
#
# Youngs Moduli (GPa) = 60.55626 60.55626 139.70342
#
# Poissons Ratio (x) = 0.46390 0.41810
# Poissons Ratio (y) = 0.46390 0.41810
# Poissons Ratio (z) = 0.18123 0.18123
#
# Static dielectric constant tensor:
#      x y z
#    x 3.740390 0.000000 0.000000 
#    y 0.000000 3.740390 0.000000 
#    z 0.000000 0.000000 3.877850 
# 
# 
# High freq. dielectric constant tensor:
#      x y z
#    x 1.834020 0.000000 0.000000 
#    y 0.000000 1.834020 0.000000 
#    z 0.000000 0.000000 1.851950 
# 
# From -- ./inp_files/2083.got.cif
#   From: 2010.03.12/outbox.cif.g09.slc.cpg/sg165_2_cif.got.tgz:2083.got - 2010.04.02 06:36:38.
