data_PCOD8323540
_publ_section_title
;
Structure prediction by ZEFSAII (Michael W. Deem and Ramdas Pophale) SiO2 
 PCOD8323540
Probable space group: P -3 M 1
;
_chemical_formula_sum "Si O2"
_cell_formula_units_Z 96
_cell_length_a 17.386030
_cell_length_b 17.386030
_cell_length_c 22.487345
_cell_angle_alpha 90.000000
_cell_angle_beta 90.000000
_cell_angle_gamma 120.000000
_cell_volume 5886.669641
_symmetry_space_group_name_H-M "P -3 M 1"
_symmetry_group_IT_number 164
_symmetry_cell_setting 'hexagonal'
loop_
_space_group_symop_operation_xyz
x,y,z
-y,x-y,z
-x+y,-x,z
x-y,-y,-z
-x,-x+y,-z
y,x,-z
-x,-y,-z
y,-x+y,-z
x-y,x,-z
-x+y,y,z
x,x-y,z
-y,-x,z
loop_
_atom_site_type_symbol
_atom_site_label
_atom_site_fract_x
_atom_site_fract_y
_atom_site_fract_z
Si Si1 0.513534 0.668498 0.348419
Si Si2 0.627209 0.726774 0.231911
Si Si3 0.668382 0.512154 0.883170
Si Si4 0.372794 0.099566 0.231910
Si Si5 0.843772 0.512153 0.116829
Si Si6 0.408671 0.408672 0.433553
Si Si7 0.845036 0.331503 0.348418
Si Si8 0.724870 0.099844 0.999999
O O1 0.499889 0.749945 0.365285
O O2 0.418909 0.581092 0.346388
O O3 0.557571 0.679316 0.284520
O O4 0.576619 0.663720 0.398862
O O5 0.665503 0.832752 0.232531
O O6 0.577048 0.683179 0.171139
O O7 0.709927 0.709926 0.238710
O O8 0.738977 0.477953 0.881036
O O9 0.570729 0.429272 0.879238
O O10 0.677908 0.564643 0.943255
O O11 0.334503 0.167252 0.232531
O O12 0.422952 0.106129 0.171138
O O13 0.442433 0.121742 0.284518
O O14 0.738977 0.477953 0.118965
O O15 0.858545 0.429273 0.120758
O O16 0.886732 0.564644 0.056744
O O17 0.373535 0.373535 0.500000
O O18 0.500000 0.500000 0.436188
O O19 0.423380 0.336281 0.398861
O O20 0.837813 0.418907 0.346391
O O21 0.749948 0.250053 0.365283
O O22 0.830788 0.169213 0.999997
O O23 0.709165 0.000000 0.000000
#
# Coordination Sequence:
#
# PCOD8323540 Si02
#       8
#    12  12  12  12  12  12  12  12
#     4  10  19  31  48  70  97 127 161 198 238 282
#     4  10  20  33  50  72  96 125 159 199 243 286
#     4  10  20  32  48  70  99 132 165 198 234 277
#     4  10  20  33  50  72  96 125 159 199 243 286
#     4  10  20  32  48  70  99 132 165 198 234 277
#     4   9  18  32  48  66  92 125 158 194 234 277
#     4  10  19  31  48  70  97 127 161 198 238 282
#     4  10  21  35  49  68  93 125 162 202 247 291
#
# _framework density 16.308032000000001
#
# number of rings (size 3 to 8) (size 9 to 14) (size 15 to 20)
#    0.000    2.125    1.250    2.375    0.000    4.000 
#    0.000    3.750    0.000    1.875    0.000    0.000 
#    0.000    6.000    0.000    0.000    0.000   11.875 
#
# Total GULP energy -1190494.625752 kJ/mol
# GULP energy per Si atom -12400.985685 kJ/mol
# Density = 1.627091 g / cm^3
# Si number density = 16.308032 Si / 1000 Ang^3
#
#
#
# Elastic Constant Matrix: (Units=GPa)
#
#
# Indices 1 2 3 4 5 6 
#
# 1 104.5428 70.5119 38.2930 0.0003 0.0000 0.0000
# 2 70.5119 104.5428 38.2930 -0.0003 0.0000 0.0000
# 3 38.2930 38.2930 123.9860 0.0000 0.0000 0.0000
# 4 0.0003 -0.0003 0.0000 22.3440 0.0000 0.0000
# 5 0.0000 0.0000 0.0000 0.0000 22.3440 0.0003
# 6 0.0000 0.0000 0.0000 0.0000 0.0003 17.0154
#
#
#
# Elastic Compliance Matrix: (Units=1/GPa)
#
#
# Indices 1 2 3 4 5 6 
#
# 1 0.017995 -0.011390 -0.002040 0.000000 0.000000 0.000000
# 2 -0.011390 0.017995 -0.002040 0.000000 0.000000 0.000000
# 3 -0.002040 -0.002040 0.009325 0.000000 0.000000 0.000000
# 4 0.000000 0.000000 0.000000 0.044755 0.000000 0.000000
# 5 0.000000 0.000000 0.000000 0.000000 0.044755 -0.000001
# 6 0.000000 0.000000 0.000000 0.000000 -0.000001 0.058770
#
#
# Mechanical properties :
#
#
# Convention : Reuss Voigt Hill
#
# Bulk Modulus (GPa) = 69.56198 69.69639 69.62919
# Shear Modulus (GPa) = 21.80291 24.73890 23.27091
#
# Velocity S-wave (km/s) = 3.66039 3.89906 3.78161
# Velocity P-wave (km/s) = 7.78539 7.94358 7.86488
#
# Compressibility (1/GPa) = 0.01437567
#
# Stress axis : x y z
#
# Youngs Moduli (GPa) = 55.57088 55.57088 107.23286
#
# Poissons Ratio (x) = 0.63296 0.21875
# Poissons Ratio (y) = 0.63296 0.21875
# Poissons Ratio (z) = 0.11336 0.11336
#
# Static dielectric constant tensor:
#      x y z
#    x 3.035930 0.000000 0.000000 
#    y 0.000000 3.035930 0.000000 
#    z 0.000000 0.000000 3.320500 
# 
# 
# High freq. dielectric constant tensor:
#      x y z
#    x 1.613590 0.000000 0.000000 
#    y 0.000000 1.613590 0.000000 
#    z 0.000000 0.000000 1.644970 
# 
# From -- ./inp_files/4703.got.cif
#   From: 2010.03.12/outbox.cif.g09.slc.cpg/sg164_3_cif.got.tgz:4703.got - 2010.04.02 06:32:59.
