data_PCOD8323980
_publ_section_title
;
Structure prediction by ZEFSAII (Michael W. Deem and Ramdas Pophale) SiO2 
 PCOD8323980
Probable space group: R -3 M
;
_chemical_formula_sum "Si O2"
_cell_formula_units_Z 162
_cell_length_a 23.451613
_cell_length_b 23.451613
_cell_length_c 21.911932
_cell_angle_alpha 90.000000
_cell_angle_beta 90.000000
_cell_angle_gamma 120.000000
_cell_volume 10436.544779
_symmetry_space_group_name_H-M "R -3 M"
_symmetry_group_IT_number 166
_symmetry_cell_setting 'hexagonal'
loop_
_space_group_symop_operation_xyz
x,y,z
-y,x-y,z
-x+y,-x,z
x-y,-y,-z
-x,-x+y,-z
y,x,-z
-x,-y,-z
y,-x+y,-z
x-y,x,-z
-x+y,y,z
x,x-y,z
-y,-x,z
2/3+x,1/3+y,1/3+z
2/3-y,1/3+x-y,1/3+z
2/3-x+y,1/3-x,1/3+z
2/3+x-y,1/3-y,1/3-z
2/3-x,1/3-x+y,1/3-z
2/3+y,1/3+x,1/3-z
2/3-x,1/3-y,1/3-z
2/3+y,1/3-x+y,1/3-z
2/3+x-y,1/3+x,1/3-z
2/3-x+y,1/3+y,1/3+z
2/3+x,1/3+x-y,1/3+z
2/3-y,1/3-x,1/3+z
1/3+x,2/3+y,2/3+z
1/3-y,2/3+x-y,2/3+z
1/3-x+y,2/3-x,2/3+z
1/3+x-y,2/3-y,2/3-z
1/3-x,2/3-x+y,2/3-z
1/3+y,2/3+x,2/3-z
1/3-x,2/3-y,2/3-z
1/3+y,2/3-x+y,2/3-z
1/3+x-y,2/3+x,2/3-z
1/3-x+y,2/3+y,2/3+z
1/3+x,2/3+x-y,2/3+z
1/3-y,2/3-x,2/3+z
loop_
_atom_site_type_symbol
_atom_site_label
_atom_site_fract_x
_atom_site_fract_y
_atom_site_fract_z
Si Si1 0.742092 0.936983 0.043501
Si Si2 0.206133 0.920461 0.175859
Si Si3 0.927247 0.400197 0.022636
Si Si4 0.080011 0.666667 0.166667
Si Si5 0.808130 0.746292 0.379416
O O1 0.761655 0.880828 0.028993
O O2 0.756122 0.959631 0.115362
O O3 0.664333 0.907971 0.033787
O O4 0.784273 0.000000 0.000000
O O5 0.157093 0.842908 0.160248
O O6 0.184720 0.939453 0.238228
O O7 0.277514 0.932984 0.193329
O O8 0.914902 0.457451 0.995816
O O9 0.873055 0.329156 0.000315
O O10 0.000000 0.417191 0.000000
O O11 0.102132 0.634956 0.219707
O O12 0.882872 0.765743 0.369186
#
# Coordination Sequence:
#
# PCOD8323980 Si02
#       5
#    36  36  36  18  36
#     4   9  18  32  49  69  98 128 157 191 241 290
#     4   9  18  29  44  70  93 120 161 197 232 277
#     4  10  18  30  49  69  90 120 162 204 238 274
#     4  10  16  26  44  62  90 126 154 192 228 272
#     4  10  20  30  44  70  99 125 156 195 240 286
#
# _framework density 15.522379000000001
#
# number of rings (size 3 to 8) (size 9 to 14) (size 15 to 20)
#    0.000    2.444    2.222    2.667    3.111    0.889 
#    0.000    1.111    0.000    3.333    0.000    0.778 
#    0.000    0.000    0.000    0.000    0.000    0.000 
#
# Total GULP energy -669026.278110 kJ/mol
# GULP energy per Si atom -12389.375521 kJ/mol
# Density = 1.548705 g / cm^3
# Si number density = 15.522379 Si / 1000 Ang^3
#
#
#
# Elastic Constant Matrix: (Units=GPa)
#
#
# Indices 1 2 3 4 5 6 
#
# 1 87.2915 41.8294 47.0331 0.3794 0.0000 0.0000
# 2 41.8294 87.2915 47.0331 -0.3794 0.0000 0.0000
# 3 47.0331 47.0331 108.4204 0.0000 0.0000 0.0000
# 4 0.3794 -0.3794 0.0000 24.7419 0.0000 0.0000
# 5 0.0000 0.0000 0.0000 0.0000 24.7419 0.3794
# 6 0.0000 0.0000 0.0000 0.0000 0.3794 22.7310
#
#
#
# Elastic Compliance Matrix: (Units=1/GPa)
#
#
# Indices 1 2 3 4 5 6 
#
# 1 0.016663 -0.005339 -0.004912 -0.000337 0.000000 0.000000
# 2 -0.005339 0.016663 -0.004912 0.000337 0.000000 0.000000
# 3 -0.004912 -0.004912 0.013485 0.000000 0.000000 0.000000
# 4 -0.000337 0.000337 0.000000 0.040428 0.000000 0.000000
# 5 0.000000 0.000000 0.000000 0.000000 0.040428 -0.000675
# 6 0.000000 0.000000 0.000000 0.000000 -0.000675 0.044004
#
#
# Mechanical properties :
#
#
# Convention : Reuss Voigt Hill
#
# Bulk Modulus (GPa) = 60.66751 61.64381 61.15566
# Shear Modulus (GPa) = 24.09747 24.25016 24.17382
#
# Velocity S-wave (km/s) = 3.94437 3.95685 3.95061
# Velocity P-wave (km/s) = 7.74034 7.78939 7.76490
#
# Compressibility (1/GPa) = 0.01648329
#
# Stress axis : x y z
#
# Youngs Moduli (GPa) = 60.01475 60.01475 74.15621
#
# Poissons Ratio (x) = 0.32044 0.36426
# Poissons Ratio (y) = 0.32044 0.36426
# Poissons Ratio (z) = 0.29479 0.29479
#
# Static dielectric constant tensor:
#      x y z
#    x 2.810210 0.000000 0.000000 
#    y 0.000000 2.810210 0.000000 
#    z 0.000000 0.000000 3.108870 
# 
# 
# High freq. dielectric constant tensor:
#      x y z
#    x 1.567880 0.000000 0.000000 
#    y 0.000000 1.567880 0.000000 
#    z 0.000000 0.000000 1.610760 
# 
# From -- ./inp_files/8220.got.cif
#   From: 2010.03.12/outbox.cif.g09.slc.cpg/sg166_5_cif.got.tgz:8220.got - 2010.04.02 06:38:31.
