data_PCOD8323133
_publ_section_title
;
Structure prediction by ZEFSAII (Michael W. Deem and Ramdas Pophale) SiO2 
 PCOD8323133
Probable space group: P -3 1 M 
;
_chemical_formula_sum "Si O2"
_cell_formula_units_Z 42
_cell_length_a 22.176221
_cell_length_b 22.176221
_cell_length_c 5.121664
_cell_angle_alpha 90.000000
_cell_angle_beta 90.000000
_cell_angle_gamma 120.000000
_cell_volume 2181.307022
_symmetry_space_group_name_H-M "P -3 1 M "
_symmetry_group_IT_number 162
_symmetry_cell_setting 'hexagonal'
loop_
_space_group_symop_operation_xyz
x,y,z
-y,x-y,z
-x+y,-x,z
-y,-x,-z
-x+y,y,-z
x,x-y,-z
-x,-y,-z
y,-x+y,-z
x-y,x,-z
y,x,z
x-y,-y,z
-x,-x+y,z
loop_
_atom_site_type_symbol
_atom_site_label
_atom_site_fract_x
_atom_site_fract_y
_atom_site_fract_z
Si Si1 0.419704 0.000000 0.159725
Si Si2 0.340600 0.340600 0.330385
Si Si3 0.878754 0.439377 0.000000
Si Si4 0.854496 0.639141 0.253566
Si Si5 0.773512 0.299658 0.752061
O O1 0.493680 0.071629 0.181343
O O2 0.366979 0.000000 0.374772
O O3 0.396340 0.000000 0.864795
O O4 0.329509 0.265625 0.268951
O O5 0.830371 0.449319 0.212812
O O6 0.834562 0.669124 0.500000
O O7 0.816352 0.556394 0.260079
O O8 0.833130 0.666260 0.000000
O O9 0.722057 0.277943 0.500000
O O10 0.723127 0.276874 0.000000
#
# Coordination Sequence:
#
# PCOD8323133 Si02
#       5
#     6   6   6  12  12
#     4  11  26  36  64  98 118 150 196 273 336 360
#     4  12  22  41  62  96 124 158 206 243 310 392
#     4  11  24  44  62  90 122 148 208 278 326 378
#     4  10  21  38  59  85 120 157 193 237 298 369
#     4  10  23  39  60  79 107 156 197 248 321 382
#
# _framework density 19.254514
#
# number of rings (size 3 to 8) (size 9 to 14) (size 15 to 20)
#    0.000    1.429    2.857    1.714    8.000    5.714 
#    0.857    0.000    0.000    0.000    0.000    0.000 
#    0.000    0.000    0.000    8.571    0.000    0.000 
#
# Total GULP energy -520699.159823 kJ/mol
# GULP energy per Si atom -12397.599043 kJ/mol
# Density = 1.921069 g / cm^3
# Si number density = 19.254514 Si / 1000 Ang^3
#
#
#
# Elastic Constant Matrix: (Units=GPa)
#
#
# Indices 1 2 3 4 5 6 
#
# 1 118.1541 40.8689 54.4417 0.0004 -0.7050 0.0000
# 2 40.8689 118.1541 54.4417 -0.0004 0.7050 0.0000
# 3 54.4417 54.4417 149.9391 0.0000 0.0000 0.0000
# 4 0.0004 -0.0004 0.0000 25.5873 0.0000 0.7050
# 5 -0.7050 0.7050 0.0000 0.0000 25.5873 0.0004
# 6 0.0000 0.0000 0.0000 0.7050 0.0004 38.6426
#
#
#
# Elastic Compliance Matrix: (Units=1/GPa)
#
#
# Indices 1 2 3 4 5 6 
#
# 1 0.010657 -0.002288 -0.003039 0.000000 0.000357 0.000000
# 2 -0.002288 0.010657 -0.003039 0.000000 -0.000357 0.000000
# 3 -0.003039 -0.003039 0.008876 0.000000 0.000000 0.000000
# 4 0.000000 0.000000 0.000000 0.039101 0.000000 -0.000713
# 5 0.000357 -0.000357 0.000000 0.000000 0.039101 0.000000
# 6 0.000000 0.000000 0.000000 -0.000713 0.000000 0.025891
#
#
# Mechanical properties :
#
#
# Convention : Reuss Voigt Hill
#
# Bulk Modulus (GPa) = 74.29869 76.19467 75.24668
# Shear Modulus (GPa) = 32.15378 33.72978 32.94178
#
# Velocity S-wave (km/s) = 4.09092 4.18997 4.14074
# Velocity P-wave (km/s) = 7.80933 7.94142 7.87565
#
# Compressibility (1/GPa) = 0.01345919
#
# Stress axis : x y z
#
# Youngs Moduli (GPa) = 93.83228 93.83228 112.66271
#
# Poissons Ratio (x) = 0.21472 0.34235
# Poissons Ratio (y) = 0.21472 0.34235
# Poissons Ratio (z) = 0.28513 0.28513
#
# Static dielectric constant tensor:
#      x y z
#    x 3.449000 0.000000 0.000000 
#    y 0.000000 3.449000 0.000000 
#    z 0.000000 0.000000 3.726990 
# 
# 
# High freq. dielectric constant tensor:
#      x y z
#    x 1.725980 0.000000 0.000000 
#    y 0.000000 1.725980 0.000000 
#    z 0.000000 0.000000 1.765020 
# 
# From -- ./inp_files/382.got.cif
#   From: 2010.03.12/outbox.cif.g09.slc.cpg/sg162_1_cif.got.tgz:382.got - 2010.04.02 06:27:41.
