data_PCOD8323391
_publ_section_title
;
Structure prediction by ZEFSAII (Michael W. Deem and Ramdas Pophale) SiO2 
 PCOD8323391
Probable space group: P -3 M 1
;
_chemical_formula_sum "Si O2"
_cell_formula_units_Z 60
_cell_length_a 19.646895
_cell_length_b 19.646895
_cell_length_c 10.911391
_cell_angle_alpha 90.000000
_cell_angle_beta 90.000000
_cell_angle_gamma 120.000000
_cell_volume 3647.527699
_symmetry_space_group_name_H-M "P -3 M 1"
_symmetry_group_IT_number 164
_symmetry_cell_setting 'hexagonal'
loop_
_space_group_symop_operation_xyz
x,y,z
-y,x-y,z
-x+y,-x,z
x-y,-y,-z
-x,-x+y,-z
y,x,-z
-x,-y,-z
y,-x+y,-z
x-y,x,-z
-x+y,y,z
x,x-y,z
-y,-x,z
loop_
_atom_site_type_symbol
_atom_site_label
_atom_site_fract_x
_atom_site_fract_y
_atom_site_fract_z
Si Si1 0.340056 0.245653 0.591421
Si Si2 0.945289 0.628028 0.109706
Si Si3 0.719729 0.784482 0.668879
Si Si4 0.179007 0.666052 0.035409
Si Si5 0.068227 0.610888 0.256868
O O1 0.355676 0.177838 0.642498
O O2 0.342086 0.247663 0.443979
O O3 0.253434 0.224578 0.644756
O O4 0.408436 0.331033 0.632990
O O5 0.922443 0.676907 0.201592
O O6 0.864448 0.558633 0.058198
O O7 0.991232 0.590107 0.177643
O O8 0.000000 0.684712 0.000000
O O9 0.761755 0.880878 0.669270
O O10 0.169937 0.584969 0.986394
O O11 0.269951 0.730050 0.041706
O O12 0.144343 0.655286 0.171536
O O13 0.059774 0.529887 0.309182
#
# Coordination Sequence:
#
# PCOD8323391 Si02
#       5
#    12  12  12  12  12
#     4   9  17  30  48  69  93 120 148 183 228 273
#     4   9  17  29  44  62  85 114 146 184 225 262
#     4   9  17  30  48  70  93 116 146 183 224 269
#     4  10  18  27  40  58  83 114 147 183 222 265
#     4   9  17  29  44  63  86 113 148 188 227 265
#
# _framework density 16.449498999999999
#
# number of rings (size 3 to 8) (size 9 to 14) (size 15 to 20)
#    0.000    2.800    0.000    2.000    0.000    2.400 
#    0.000   10.000    0.000    0.800    0.000    2.800 
#    0.000    0.800    0.000    0.000    0.000    0.000 
#
# Total GULP energy -743518.034664 kJ/mol
# GULP energy per Si atom -12391.967244 kJ/mol
# Density = 1.641206 g / cm^3
# Si number density = 16.449499 Si / 1000 Ang^3
#
#
#
# Elastic Constant Matrix: (Units=GPa)
#
#
# Indices 1 2 3 4 5 6 
#
# 1 68.0462 30.8793 23.7837 -0.5746 0.0000 0.0000
# 2 30.8793 68.0462 23.7837 0.5746 0.0000 0.0000
# 3 23.7837 23.7837 66.5753 0.0000 0.0000 0.0000
# 4 -0.5746 0.5746 0.0000 15.4067 0.0000 0.0000
# 5 0.0000 0.0000 0.0000 0.0000 15.4067 -0.5746
# 6 0.0000 0.0000 0.0000 0.0000 -0.5746 18.5835
#
#
#
# Elastic Compliance Matrix: (Units=1/GPa)
#
#
# Indices 1 2 3 4 5 6 
#
# 1 0.019571 -0.007366 -0.004360 0.001005 0.000000 0.000000
# 2 -0.007366 0.019571 -0.004360 -0.001005 0.000000 0.000000
# 3 -0.004360 -0.004360 0.018136 0.000000 0.000000 0.000000
# 4 0.001005 -0.001005 0.000000 0.064982 0.000000 0.000000
# 5 0.000000 0.000000 0.000000 0.000000 0.064982 0.002009
# 6 0.000000 0.000000 0.000000 0.000000 0.002009 0.053873
#
#
# Mechanical properties :
#
#
# Convention : Reuss Voigt Hill
#
# Bulk Modulus (GPa) = 39.83212 39.95121 39.89167
# Shear Modulus (GPa) = 17.75215 18.16077 17.95646
#
# Velocity S-wave (km/s) = 3.28867 3.32630 3.30754
# Velocity P-wave (km/s) = 6.21995 6.25238 6.23619
#
# Compressibility (1/GPa) = 0.02510536
#
# Stress axis : x y z
#
# Youngs Moduli (GPa) = 51.09615 51.09615 55.13912
#
# Poissons Ratio (x) = 0.37636 0.24042
# Poissons Ratio (y) = 0.37636 0.24042
# Poissons Ratio (z) = 0.22279 0.22279
#
# Static dielectric constant tensor:
#      x y z
#    x 3.074070 0.000000 0.000000 
#    y 0.000000 3.074070 0.000000 
#    z 0.000000 0.000000 3.071760 
# 
# 
# High freq. dielectric constant tensor:
#      x y z
#    x 1.620680 0.000000 0.000000 
#    y 0.000000 1.620680 0.000000 
#    z 0.000000 0.000000 1.630710 
# 
# From -- ./inp_files/2722.got.cif
#   From: 2010.03.12/outbox.cif.g09.slc.cpg/sg164_2_cif.got.tgz:2722.got - 2010.04.02 06:32:59.
