data_PCOD8323019
_publ_section_title
;
Structure prediction by ZEFSAII (Michael W. Deem and Ramdas Pophale) SiO2 
 PCOD8323019
Probable space group: P -3 1 M 
;
_chemical_formula_sum "Si O2"
_cell_formula_units_Z 66
_cell_length_a 17.300991
_cell_length_b 17.300991
_cell_length_c 14.374961
_cell_angle_alpha 90.000000
_cell_angle_beta 90.000000
_cell_angle_gamma 120.000000
_cell_volume 3726.312447
_symmetry_space_group_name_H-M "P -3 1 M "
_symmetry_group_IT_number 162
_symmetry_cell_setting 'hexagonal'
loop_
_space_group_symop_operation_xyz
x,y,z
-y,x-y,z
-x+y,-x,z
-y,-x,-z
-x+y,y,-z
x,x-y,-z
-x,-y,-z
y,-x+y,-z
x-y,x,-z
y,x,z
x-y,-y,z
-x,-x+y,z
loop_
_atom_site_type_symbol
_atom_site_label
_atom_site_fract_x
_atom_site_fract_y
_atom_site_fract_z
Si Si1 0.606749 0.104056 0.383431
Si Si2 0.837936 0.508774 0.841872
Si Si3 0.773692 0.226309 0.500000
Si Si4 0.633029 0.732371 0.985711
Si Si5 0.157648 0.492158 0.816524
Si Si6 0.575394 0.675261 0.351248
O O1 0.672283 0.176885 0.459278
O O2 0.661699 0.122381 0.287773
O O3 0.525618 0.122959 0.371992
O O4 0.568844 0.000000 0.414647
O O5 0.732268 0.468487 0.826620
O O6 0.863854 0.432608 0.843545
O O7 0.886429 0.580566 0.759007
O O8 0.870767 0.553894 0.940955
O O9 0.764091 0.162663 0.587334
O O10 0.711655 0.711655 0.004003
O O11 0.592951 0.698885 0.883266
O O12 0.676487 0.838244 0.000000
O O13 0.647107 0.647107 0.378688
#
# Coordination Sequence:
#
# PCOD8323019 Si02
#       6
#    12  12   6  12  12  12
#     4  10  21  36  51  70  99 133 170 216 263 303
#     4  10  19  33  51  77 106 137 172 207 245 291
#     4  12  20  34  48  68  92 126 178 210 262 306
#     4  10  21  35  55  78 103 135 170 206 253 309
#     4  10  19  33  51  77 106 137 172 207 245 291
#     4  10  21  36  51  70  99 133 170 216 263 303
#
# _framework density 17.711880000000001
#
# number of rings (size 3 to 8) (size 9 to 14) (size 15 to 20)
#    0.000    1.818    1.818    3.091    0.000    4.364 
#    4.364    1.818    0.000    0.182    0.000    0.000 
#    0.000    0.000    0.000   17.455    0.000    0.000 
#
# Total GULP energy -817857.582799 kJ/mol
# GULP energy per Si atom -12391.781558 kJ/mol
# Density = 1.767157 g / cm^3
# Si number density = 17.711880 Si / 1000 Ang^3
#
#
#
# Elastic Constant Matrix: (Units=GPa)
#
#
# Indices 1 2 3 4 5 6 
#
# 1 62.1707 27.3040 22.8039 -0.0001 -0.6405 0.0000
# 2 27.3040 62.1707 22.8039 0.0001 0.6405 0.0000
# 3 22.8039 22.8039 101.1043 0.0000 0.0000 0.0000
# 4 -0.0001 0.0001 0.0000 15.6871 0.0000 0.6405
# 5 -0.6405 0.6405 0.0000 0.0000 15.6871 -0.0001
# 6 0.0000 0.0000 0.0000 0.6405 -0.0001 17.4334
#
#
#
# Elastic Compliance Matrix: (Units=1/GPa)
#
#
# Indices 1 2 3 4 5 6 
#
# 1 0.020676 -0.008048 -0.002848 0.000000 0.001173 0.000000
# 2 -0.008048 0.020676 -0.002848 0.000000 -0.001173 0.000000
# 3 -0.002848 -0.002848 0.011176 0.000000 0.000000 0.000000
# 4 0.000000 0.000000 0.000000 0.063842 0.000000 -0.002346
# 5 0.001173 -0.001173 0.000000 0.000000 0.063842 0.000000
# 6 0.000000 0.000000 0.000000 -0.002346 0.000000 0.057447
#
#
# Mechanical properties :
#
#
# Convention : Reuss Voigt Hill
#
# Bulk Modulus (GPa) = 39.93780 41.25213 40.59496
# Shear Modulus (GPa) = 18.28188 19.93044 19.10616
#
# Velocity S-wave (km/s) = 3.21624 3.35813 3.28795
# Velocity P-wave (km/s) = 6.03240 6.19494 6.11421
#
# Compressibility (1/GPa) = 0.02503894
#
# Stress axis : x y z
#
# Youngs Moduli (GPa) = 48.36534 48.36534 89.48055
#
# Poissons Ratio (x) = 0.38923 0.25486
# Poissons Ratio (y) = 0.38923 0.25486
# Poissons Ratio (z) = 0.13776 0.13776
#
# Static dielectric constant tensor:
#      x y z
#    x 3.144590 0.000000 0.000000 
#    y 0.000000 3.144590 0.000000 
#    z 0.000000 0.000000 3.722280 
# 
# 
# High freq. dielectric constant tensor:
#      x y z
#    x 1.652010 0.000000 0.000000 
#    y 0.000000 1.652010 0.000000 
#    z 0.000000 0.000000 1.718610 
# 
# From -- ./inp_files/3059.got.cif
#   From: 2010.03.12/outbox.cif.g09.slc.cpg/sg162_2_cif.got.tgz:3059.got - 2010.04.02 06:27:41.
