data_PCOD8323431
_publ_section_title
;
Structure prediction by ZEFSAII (Michael W. Deem and Ramdas Pophale) SiO2 
 PCOD8323431
Probable space group: P -3 M 1
;
_chemical_formula_sum "Si O2"
_cell_formula_units_Z 84
_cell_length_a 18.533565
_cell_length_b 18.533565
_cell_length_c 19.818842
_cell_angle_alpha 90.000000
_cell_angle_beta 90.000000
_cell_angle_gamma 120.000000
_cell_volume 5895.584089
_symmetry_space_group_name_H-M "P -3 M 1"
_symmetry_group_IT_number 164
_symmetry_cell_setting 'hexagonal'
loop_
_space_group_symop_operation_xyz
x,y,z
-y,x-y,z
-x+y,-x,z
x-y,-y,-z
-x,-x+y,-z
y,x,-z
-x,-y,-z
y,-x+y,-z
x-y,x,-z
-x+y,y,z
x,x-y,z
-y,-x,z
loop_
_atom_site_type_symbol
_atom_site_label
_atom_site_fract_x
_atom_site_fract_y
_atom_site_fract_z
Si Si1 0.668626 0.502242 0.152493
Si Si2 0.539649 0.631207 0.708445
Si Si3 0.497759 0.166385 0.847508
Si Si4 0.832125 0.500865 0.573157
Si Si5 0.500866 0.668741 0.573158
Si Si6 0.539646 0.908438 0.291555
Si Si7 0.585574 0.585574 0.076412
O O1 0.751852 0.503704 0.126098
O O2 0.590238 0.409763 0.141850
O O3 0.682470 0.528297 0.231238
O O4 0.655280 0.570773 0.112442
O O5 0.456027 0.543974 0.701645
O O6 0.560124 0.679596 0.636660
O O7 0.615689 0.615687 0.725969
O O8 0.590239 0.180477 0.858153
O O9 0.496295 0.248148 0.873904
O O10 0.471707 0.154176 0.768762
O O11 0.429228 0.084507 0.887557
O O12 0.735315 0.470630 0.580198
O O13 0.841826 0.420913 0.576259
O O14 0.866726 0.546188 0.499999
O O15 0.880526 0.560123 0.636660
O O16 0.470632 0.735316 0.580202
O O17 0.420912 0.579089 0.576260
O O18 0.456026 0.912051 0.298358
O O19 0.500001 0.500000 0.079908
O O20 0.614389 0.614389 0.000000
#
# Coordination Sequence:
#
# PCOD8323431 Si02
#       7
#    12  12  12  12  12  12  12
#     4  10  18  29  45  64  84 109 142 177 209 244
#     4   9  16  26  38  52  73 101 133 169 209 248
#     4  10  18  29  45  64  84 109 142 177 209 244
#     4   9  16  24  34  49  70  96 128 169 212 246
#     4   9  16  24  34  49  70  96 128 169 212 246
#     4   9  16  26  38  52  73 101 133 169 209 248
#     4   9  18  32  46  60  83 111 134 164 211 254
#
# _framework density 14.247952
#
# number of rings (size 3 to 8) (size 9 to 14) (size 15 to 20)
#    0.000    2.714    1.429    1.429    0.000    2.286 
#    0.000    5.714    0.000    1.714    0.000    0.000 
#    0.000    0.000    0.000    0.429    0.000    1.857 
#
# Total GULP energy -1040654.116555 kJ/mol
# GULP energy per Si atom -12388.739483 kJ/mol
# Density = 1.421552 g / cm^3
# Si number density = 14.247952 Si / 1000 Ang^3
#
#
#
# Elastic Constant Matrix: (Units=GPa)
#
#
# Indices 1 2 3 4 5 6 
#
# 1 53.4964 26.8819 30.9357 -0.0001 0.0000 0.0000
# 2 26.8819 53.4964 30.9357 0.0001 0.0000 0.0000
# 3 30.9357 30.9357 103.5760 0.0000 0.0000 0.0000
# 4 -0.0001 0.0001 0.0000 15.0717 0.0000 0.0000
# 5 0.0000 0.0000 0.0000 0.0000 15.0717 -0.0001
# 6 0.0000 0.0000 0.0000 0.0000 -0.0001 13.3072
#
#
#
# Elastic Compliance Matrix: (Units=1/GPa)
#
#
# Indices 1 2 3 4 5 6 
#
# 1 0.026864 -0.010709 -0.004825 0.000000 0.000000 0.000000
# 2 -0.010709 0.026864 -0.004825 0.000000 0.000000 0.000000
# 3 -0.004825 -0.004825 0.012537 0.000000 0.000000 0.000000
# 4 0.000000 0.000000 0.000000 0.066350 0.000000 0.000000
# 5 0.000000 0.000000 0.000000 0.000000 0.066350 0.000001
# 6 0.000000 0.000000 0.000000 0.000000 0.000001 0.075147
#
#
# Mechanical properties :
#
#
# Convention : Reuss Voigt Hill
#
# Bulk Modulus (GPa) = 39.14358 43.11949 41.13153
# Shear Modulus (GPa) = 15.46328 16.81116 16.13722
#
# Velocity S-wave (km/s) = 3.29796 3.43869 3.36906
# Velocity P-wave (km/s) = 6.48343 6.78937 6.63816
#
# Compressibility (1/GPa) = 0.02554697
#
# Stress axis : x y z
#
# Youngs Moduli (GPa) = 37.22391 37.22391 79.76317
#
# Poissons Ratio (x) = 0.39863 0.38488
# Poissons Ratio (y) = 0.39863 0.38488
# Poissons Ratio (z) = 0.17961 0.17961
#
# Static dielectric constant tensor:
#      x y z
#    x 2.544680 0.000000 0.000000 
#    y 0.000000 2.544680 0.000000 
#    z 0.000000 0.000000 3.235030 
# 
# 
# High freq. dielectric constant tensor:
#      x y z
#    x 1.500620 0.000000 0.000000 
#    y 0.000000 1.500620 0.000000 
#    z 0.000000 0.000000 1.567110 
# 
# From -- ./inp_files/4640.got.cif
#   From: 2010.03.12/outbox.cif.g09.slc.cpg/sg164_3_cif.got.tgz:4640.got - 2010.04.02 06:32:59.
