data_PCOD8323748
_publ_section_title
;
Structure prediction by ZEFSAII (Michael W. Deem and Ramdas Pophale) SiO2 
 PCOD8323748
Probable space group: P -3 M 1
;
_chemical_formula_sum "Si O2"
_cell_formula_units_Z 60
_cell_length_a 12.440887
_cell_length_b 12.440887
_cell_length_c 25.493785
_cell_angle_alpha 90.000000
_cell_angle_beta 90.000000
_cell_angle_gamma 120.000000
_cell_volume 3417.178313
_symmetry_space_group_name_H-M "P -3 M 1"
_symmetry_group_IT_number 164
_symmetry_cell_setting 'hexagonal'
loop_
_space_group_symop_operation_xyz
x,y,z
-y,x-y,z
-x+y,-x,z
x-y,-y,-z
-x,-x+y,-z
y,x,-z
-x,-y,-z
y,-x+y,-z
x-y,x,-z
-x+y,y,z
x,x-y,z
-y,-x,z
loop_
_atom_site_type_symbol
_atom_site_label
_atom_site_fract_x
_atom_site_fract_y
_atom_site_fract_z
Si Si1 0.917150 0.333726 0.201376
Si Si2 0.749761 0.749760 0.699129
Si Si3 0.917245 0.332049 0.599092
Si Si4 0.750118 0.750118 0.000000
Si Si5 0.416563 0.332998 0.898947
Si Si6 0.000000 0.747333 0.500000
O O1 0.912544 0.456272 0.215717
O O2 0.777866 0.222134 0.195544
O O3 0.991202 0.309850 0.246741
O O4 0.987827 0.347106 0.147525
O O5 0.890251 0.780501 0.703614
O O6 0.676699 0.653759 0.653157
O O7 0.751461 0.875731 0.685914
O O8 0.924008 0.462004 0.596910
O O9 0.774953 0.225048 0.594592
O O10 0.996899 0.325299 0.551233
O O11 0.661747 0.686165 0.049059
O O12 0.767431 0.883716 0.987270
O O13 0.425728 0.212864 0.884331
O O14 0.554127 0.445874 0.908110
O O15 0.882175 0.764349 0.496358
#
# Coordination Sequence:
#
# PCOD8323748 Si02
#       6
#    12  12  12   6  12   6
#     4  10  20  34  52  74 101 133 168 206 248 295
#     4  10  20  34  53  76 102 132 166 206 250 296
#     4  10  20  34  52  74 101 133 168 206 248 295
#     4  10  20  34  52  74 100 130 164 202 246 296
#     4  10  20  34  52  74 100 130 165 205 249 296
#     4  10  20  34  54  78 104 134 168 208 252 298
#
# _framework density 17.558347000000001
#
# number of rings (size 3 to 8) (size 9 to 14) (size 15 to 20)
#    0.000    2.000    0.000    4.000    0.000    0.000 
#    0.000    2.000    0.000   24.800    0.000    0.000 
#    0.000    0.000    0.000    0.000    0.000    0.000 
#
# Total GULP energy -744268.899985 kJ/mol
# GULP energy per Si atom -12404.481666 kJ/mol
# Density = 1.751838 g / cm^3
# Si number density = 17.558347 Si / 1000 Ang^3
#
#
#
# Elastic Constant Matrix: (Units=GPa)
#
#
# Indices 1 2 3 4 5 6 
#
# 1 86.7365 42.0717 34.9955 5.0777 0.0000 0.0000
# 2 42.0717 86.7365 34.9955 -5.0777 0.0000 0.0000
# 3 34.9955 34.9955 72.1226 0.0000 0.0000 0.0000
# 4 5.0777 -5.0777 0.0000 26.0784 0.0000 0.0000
# 5 0.0000 0.0000 0.0000 0.0000 26.0784 5.0777
# 6 0.0000 0.0000 0.0000 0.0000 5.0777 22.3324
#
#
#
# Elastic Compliance Matrix: (Units=1/GPa)
#
#
# Indices 1 2 3 4 5 6 
#
# 1 0.016985 -0.006441 -0.005116 -0.004561 0.000000 0.000000
# 2 -0.006441 0.016985 -0.005116 0.004561 0.000000 0.000000
# 3 -0.005116 -0.005116 0.018830 0.000000 0.000000 0.000000
# 4 -0.004561 0.004561 0.000000 0.040122 0.000000 0.000000
# 5 0.000000 0.000000 0.000000 0.000000 0.040122 -0.009123
# 6 0.000000 0.000000 0.000000 0.000000 -0.009123 0.046852
#
#
# Mechanical properties :
#
#
# Convention : Reuss Voigt Hill
#
# Bulk Modulus (GPa) = 51.40556 52.19121 51.79838
# Shear Modulus (GPa) = 22.75558 23.80003 23.27781
#
# Velocity S-wave (km/s) = 3.60390 3.68568 3.64502
# Velocity P-wave (km/s) = 6.83067 6.92108 6.87602
#
# Compressibility (1/GPa) = 0.01945315
#
# Stress axis : x y z
#
# Youngs Moduli (GPa) = 58.87657 58.87657 53.10698
#
# Poissons Ratio (x) = 0.37925 0.27169
# Poissons Ratio (y) = 0.37925 0.27169
# Poissons Ratio (z) = 0.30120 0.30120
#
# Static dielectric constant tensor:
#      x y z
#    x 3.310070 0.000000 0.000000 
#    y 0.000000 3.310070 0.000000 
#    z 0.000000 0.000000 3.388700 
# 
# 
# High freq. dielectric constant tensor:
#      x y z
#    x 1.689110 0.000000 0.000000 
#    y 0.000000 1.689110 0.000000 
#    z 0.000000 0.000000 1.694130 
# 
# From -- ./inp_files/5231.got.cif
#   From: 2010.03.12/outbox.cif.g09.slc.cpg/sg164_3_cif.got.tgz:5231.got - 2010.04.02 06:32:59.
