data_PCOD8323691
_publ_section_title
;
Structure prediction by ZEFSAII (Michael W. Deem and Ramdas Pophale) SiO2 
 PCOD8323691
Probable space group: P -3 M 1
;
_chemical_formula_sum "Si O2"
_cell_formula_units_Z 60
_cell_length_a 12.624582
_cell_length_b 12.624582
_cell_length_c 25.466624
_cell_angle_alpha 90.000000
_cell_angle_beta 90.000000
_cell_angle_gamma 120.000000
_cell_volume 3515.086551
_symmetry_space_group_name_H-M "P -3 M 1"
_symmetry_group_IT_number 164
_symmetry_cell_setting 'hexagonal'
loop_
_space_group_symop_operation_xyz
x,y,z
-y,x-y,z
-x+y,-x,z
x-y,-y,-z
-x,-x+y,-z
y,x,-z
-x,-y,-z
y,-x+y,-z
x-y,x,-z
-x+y,y,z
x,x-y,z
-y,-x,z
loop_
_atom_site_type_symbol
_atom_site_label
_atom_site_fract_x
_atom_site_fract_y
_atom_site_fract_z
Si Si1 0.333352 0.911512 0.161844
Si Si2 0.000516 0.754237 0.744374
Si Si3 0.084156 0.419408 0.451422
Si Si4 0.333106 0.913540 0.646971
Si Si5 0.911797 0.333023 0.955879
O O1 0.461669 0.923337 0.177871
O O2 0.230999 0.769002 0.165611
O O3 0.303438 0.992965 0.200440
O O4 0.337866 0.962171 0.103026
O O5 0.874798 0.749596 0.729976
O O6 0.029153 0.682263 0.700286
O O7 0.105575 0.894426 0.748591
O O8 0.204733 0.409466 0.451620
O O9 0.122358 0.561179 0.456009
O O10 0.000000 0.343228 0.500000
O O11 0.010413 0.359689 0.398565
O O12 0.443030 0.886059 0.653979
O O13 0.212303 0.787698 0.632246
O O14 0.892639 0.446320 0.966133
O O15 0.783460 0.216541 0.964711
O O16 0.000000 0.327750 0.000000
#
# Coordination Sequence:
#
# PCOD8323691 Si02
#       5
#    12  12  12  12  12
#     4   9  17  30  48  69  91 117 152 194 238 279
#     4  10  20  33  49  69  95 127 160 193 231 278
#     4  10  20  34  53  76 102 131 163 200 240 282
#     4  10  20  34  53  75  99 127 159 197 239 283
#     4   9  17  29  46  67  91 119 151 189 232 279
#
# _framework density 17.069282000000001
#
# number of rings (size 3 to 8) (size 9 to 14) (size 15 to 20)
#    0.000    2.400    0.000    2.800    0.000    2.400 
#    0.000    2.000    0.000   11.800    0.000    0.000 
#    0.000    0.000    0.000    0.000    0.000    0.000 
#
# Total GULP energy -744044.943782 kJ/mol
# GULP energy per Si atom -12400.749063 kJ/mol
# Density = 1.703043 g / cm^3
# Si number density = 17.069282 Si / 1000 Ang^3
#
#
#
# Elastic Constant Matrix: (Units=GPa)
#
#
# Indices 1 2 3 4 5 6 
#
# 1 97.8727 50.7995 55.0164 -1.2163 0.0000 0.0000
# 2 50.7995 97.8727 55.0164 1.2163 0.0000 0.0000
# 3 55.0164 55.0164 108.5398 0.0000 0.0000 0.0000
# 4 -1.2163 1.2163 0.0000 27.1660 0.0000 0.0000
# 5 0.0000 0.0000 0.0000 0.0000 27.1660 -1.2163
# 6 0.0000 0.0000 0.0000 0.0000 -1.2163 23.5366
#
#
#
# Elastic Compliance Matrix: (Units=1/GPa)
#
#
# Indices 1 2 3 4 5 6 
#
# 1 0.016029 -0.005264 -0.005456 0.000953 0.000000 0.000000
# 2 -0.005264 0.016029 -0.005456 -0.000953 0.000000 0.000000
# 3 -0.005456 -0.005456 0.014744 0.000000 0.000000 0.000000
# 4 0.000953 -0.000953 0.000000 0.036896 0.000000 0.000000
# 5 0.000000 0.000000 0.000000 0.000000 0.036896 0.001907
# 6 0.000000 0.000000 0.000000 0.000000 0.001907 0.042586
#
#
# Mechanical properties :
#
#
# Convention : Reuss Voigt Hill
#
# Bulk Modulus (GPa) = 69.21205 69.54996 69.38100
# Shear Modulus (GPa) = 24.95650 25.13727 25.04688
#
# Velocity S-wave (km/s) = 3.82785 3.84169 3.83478
# Velocity P-wave (km/s) = 7.75708 7.77896 7.76803
#
# Compressibility (1/GPa) = 0.01444835
#
# Stress axis : x y z
#
# Youngs Moduli (GPa) = 62.38863 62.38863 67.82205
#
# Poissons Ratio (x) = 0.32843 0.37005
# Poissons Ratio (y) = 0.32843 0.37005
# Poissons Ratio (z) = 0.34041 0.34041
#
# Static dielectric constant tensor:
#      x y z
#    x 3.135120 0.000000 0.000000 
#    y 0.000000 3.135120 0.000000 
#    z 0.000000 0.000000 3.430480 
# 
# 
# High freq. dielectric constant tensor:
#      x y z
#    x 1.656420 0.000000 0.000000 
#    y 0.000000 1.656420 0.000000 
#    z 0.000000 0.000000 1.673610 
# 
# From -- ./inp_files/5159.got.cif
#   From: 2010.03.12/outbox.cif.g09.slc.cpg/sg164_3_cif.got.tgz:5159.got - 2010.04.02 06:32:59.
