data_PCOD8323438
_publ_section_title
;
Structure prediction by ZEFSAII (Michael W. Deem and Ramdas Pophale) SiO2 
 PCOD8323438
Probable space group: P -3 M 1
;
_chemical_formula_sum "Si O2"
_cell_formula_units_Z 96
_cell_length_a 17.840345
_cell_length_b 17.840345
_cell_length_c 21.978506
_cell_angle_alpha 90.000000
_cell_angle_beta 90.000000
_cell_angle_gamma 120.000000
_cell_volume 6058.084080
_symmetry_space_group_name_H-M "P -3 M 1"
_symmetry_group_IT_number 164
_symmetry_cell_setting 'hexagonal'
loop_
_space_group_symop_operation_xyz
x,y,z
-y,x-y,z
-x+y,-x,z
x-y,-y,-z
-x,-x+y,-z
y,x,-z
-x,-y,-z
y,-x+y,-z
x-y,x,-z
-x+y,y,z
x,x-y,z
-y,-x,z
loop_
_atom_site_type_symbol
_atom_site_label
_atom_site_fract_x
_atom_site_fract_y
_atom_site_fract_z
Si Si1 0.333578 0.491165 0.653228
Si Si2 0.667044 0.159008 0.106075
Si Si3 0.166791 0.666580 0.100812
Si Si4 0.502568 0.667381 0.364233
Si Si5 0.700967 0.567368 0.767668
Si Si6 0.004064 0.412923 0.568351
Si Si7 0.096462 0.362554 0.004564
Si Si8 0.947753 0.386790 0.226963
O O1 0.244784 0.489568 0.643919
O O2 0.410916 0.589085 0.646504
O O3 0.338294 0.429693 0.601363
O O4 0.335479 0.453890 0.719214
O O5 0.583489 0.166978 0.091979
O O6 0.746153 0.253848 0.119944
O O7 0.684934 0.115846 0.048595
O O8 0.652723 0.098896 0.163792
O O9 0.144768 0.572384 0.078142
O O10 0.264595 0.735406 0.080823
O O11 0.157597 0.665168 0.173163
O O12 0.102308 0.692688 0.068522
O O13 0.512131 0.756066 0.389248
O O14 0.410074 0.589927 0.385475
O O15 0.507053 0.666378 0.291393
O O16 0.580264 0.658295 0.393774
O O17 0.807722 0.615444 0.768260
O O18 0.658915 0.629414 0.767626
O O19 0.001480 0.500740 0.568399
O O20 0.000000 0.378515 0.500000
O O21 0.163247 0.326494 0.002296
O O22 0.000000 0.280950 0.000000
O O23 0.978946 0.489473 0.231439
#
# Coordination Sequence:
#
# PCOD8323438 Si02
#       8
#    12  12  12  12  12  12  12  12
#     4  10  19  31  48  68  91 119 155 195 232 270
#     4  10  20  32  48  69  96 129 164 198 230 268
#     4  10  19  29  43  64  93 126 159 192 225 264
#     4  10  18  29  45  66  91 120 155 191 226 266
#     4  10  19  29  44  65  89 121 159 195 231 271
#     4   9  18  32  47  63  88 120 150 183 226 271
#     4  10  21  35  49  67  90 120 156 196 241 286
#     4  10  18  30  47  66  91 123 156 194 238 277
#
# _framework density 15.846594
#
# number of rings (size 3 to 8) (size 9 to 14) (size 15 to 20)
#    0.000    2.125    1.250    3.125    0.000    2.500 
#    0.000    3.750    0.000    1.875    0.000    0.000 
#    0.000    0.000    0.000    6.750    0.000    3.875 
#
# Total GULP energy -1190108.825007 kJ/mol
# GULP energy per Si atom -12396.966927 kJ/mol
# Density = 1.581053 g / cm^3
# Si number density = 15.846594 Si / 1000 Ang^3
#
#
#
# Elastic Constant Matrix: (Units=GPa)
#
#
# Indices 1 2 3 4 5 6 
#
# 1 100.2939 58.0441 33.2849 -0.3125 0.0000 0.0000
# 2 58.0441 100.2939 33.2849 0.3125 0.0000 0.0000
# 3 33.2849 33.2849 87.0573 0.0000 0.0000 0.0000
# 4 -0.3125 0.3125 0.0000 16.9689 0.0000 0.0000
# 5 0.0000 0.0000 0.0000 0.0000 16.9689 -0.3125
# 6 0.0000 0.0000 0.0000 0.0000 -0.3125 21.1249
#
#
#
# Elastic Compliance Matrix: (Units=1/GPa)
#
#
# Indices 1 2 3 4 5 6 
#
# 1 0.015600 -0.008075 -0.002877 0.000436 0.000000 0.000000
# 2 -0.008075 0.015600 -0.002877 -0.000436 0.000000 0.000000
# 3 -0.002877 -0.002877 0.013687 0.000000 0.000000 0.000000
# 4 0.000436 -0.000436 0.000000 0.058947 0.000000 0.000000
# 5 0.000000 0.000000 0.000000 0.000000 0.058947 0.000872
# 6 0.000000 0.000000 0.000000 0.000000 0.000872 0.047350
#
#
# Mechanical properties :
#
#
# Convention : Reuss Voigt Hill
#
# Bulk Modulus (GPa) = 58.04290 59.65253 58.84772
# Shear Modulus (GPa) = 20.53104 21.88130 21.20617
#
# Velocity S-wave (km/s) = 3.60337 3.71997 3.66213
# Velocity P-wave (km/s) = 7.34982 7.49509 7.42281
#
# Compressibility (1/GPa) = 0.01722864
#
# Stress axis : x y z
#
# Youngs Moduli (GPa) = 64.10171 64.10171 73.06337
#
# Poissons Ratio (x) = 0.51762 0.21021
# Poissons Ratio (y) = 0.51762 0.21021
# Poissons Ratio (z) = 0.18443 0.18443
#
# Static dielectric constant tensor:
#      x y z
#    x 2.920710 0.000000 0.000000 
#    y 0.000000 2.920710 0.000000 
#    z 0.000000 0.000000 3.202750 
# 
# 
# High freq. dielectric constant tensor:
#      x y z
#    x 1.584330 0.000000 0.000000 
#    y 0.000000 1.584330 0.000000 
#    z 0.000000 0.000000 1.623960 
# 
# From -- ./inp_files/4698.got.cif
#   From: 2010.03.12/outbox.cif.g09.slc.cpg/sg164_3_cif.got.tgz:4698.got - 2010.04.02 06:32:59.
