data_PCOD8323941
_publ_section_title
;
Structure prediction by ZEFSAII (Michael W. Deem and Ramdas Pophale) SiO2 
 PCOD8323941
Probable space group: P -3 C 1
;
_chemical_formula_sum "Si O2"
_cell_formula_units_Z 68
_cell_length_a 15.823693
_cell_length_b 15.823693
_cell_length_c 21.872702
_cell_angle_alpha 90.000000
_cell_angle_beta 90.000000
_cell_angle_gamma 120.000000
_cell_volume 4742.952384
_symmetry_space_group_name_H-M "P -3 C 1"
_symmetry_group_IT_number 165
_symmetry_cell_setting 'hexagonal'
loop_
_space_group_symop_operation_xyz
x,y,z
-y,x-y,z
-x+y,-x,z
x-y,-y,1/2-z
-x,-x+y,1/2-z
y,x,1/2-z
-x,-y,-z
y,-x+y,-z
x-y,x,-z
-x+y,y,1/2+z
x,x-y,1/2+z
-y,-x,1/2+z
loop_
_atom_site_type_symbol
_atom_site_label
_atom_site_fract_x
_atom_site_fract_y
_atom_site_fract_z
Si Si1 0.430845 0.409797 0.914373
Si Si2 0.827319 0.350432 0.135728
Si Si3 0.586118 0.958929 0.047102
Si Si4 0.333334 0.666667 0.779427
Si Si5 0.666667 0.333333 0.864842
Si Si6 0.692647 0.176413 0.064952
Si Si7 0.779530 0.245009 0.427780
O O1 0.394658 0.450084 0.857077
O O2 0.545302 0.479348 0.929203
O O3 0.412240 0.301382 0.899108
O O4 0.369675 0.409526 0.973513
O O5 0.773191 0.354282 0.197285
O O6 0.780615 0.239848 0.111359
O O7 0.812224 0.412664 0.082927
O O8 0.605383 0.872842 0.070909
O O9 0.668143 0.064464 0.072268
O O10 0.333334 0.666667 0.707813
O O11 0.557247 0.265751 0.887211
O O12 0.715760 0.213531 0.996039
#
# Coordination Sequence:
#
# PCOD8323941 Si02
#       7
#    12  12  12   4   4  12  12
#     4   9  16  25  40  62  80 106 136 166 209 250
#     4   9  15  30  44  55  77 104 147 172 197 236
#     4   9  16  24  35  65  89  96 128 163 214 252
#     4   9  21  31  41  55  78 114 151 173 193 249
#     4  12  21  28  38  58  84 117 142 164 217 243
#     4   9  16  24  44  63  79 106 129 172 210 243
#     4  11  17  26  41  60  89 105 127 174 210 253
#
# _framework density 14.337062
#
# number of rings (size 3 to 8) (size 9 to 14) (size 15 to 20)
#    0.000    2.471    3.529    2.471    0.000    0.000 
#    0.000    0.882    0.000    0.000    0.000    0.000 
#    1.765    3.176    0.000    0.000    0.000    0.000 
#
# Total GULP energy -842564.578593 kJ/mol
# GULP energy per Si atom -12390.655568 kJ/mol
# Density = 1.430443 g / cm^3
# Si number density = 14.337062 Si / 1000 Ang^3
#
#
#
# Elastic Constant Matrix: (Units=GPa)
#
#
# Indices 1 2 3 4 5 6 
#
# 1 78.9372 37.8291 23.6107 -0.5945 0.0000 0.0000
# 2 37.8291 78.9376 23.6108 0.5948 0.0000 0.0000
# 3 23.6107 23.6108 52.5888 0.0002 0.0000 0.0000
# 4 -0.5945 0.5948 0.0002 7.3070 0.0000 0.0000
# 5 0.0000 0.0000 0.0000 0.0000 7.3070 -0.5946
# 6 0.0000 0.0000 0.0000 0.0000 -0.5946 20.5541
#
#
#
# Elastic Compliance Matrix: (Units=1/GPa)
#
#
# Indices 1 2 3 4 5 6 
#
# 1 0.017424 -0.006960 -0.004698 0.001984 0.000000 0.000000
# 2 -0.006960 0.017424 -0.004698 -0.001984 0.000000 0.000000
# 3 -0.004698 -0.004698 0.023234 0.000000 0.000000 0.000000
# 4 0.001984 -0.001984 0.000000 0.137178 0.000000 0.000000
# 5 0.000000 0.000000 0.000000 0.000000 0.137179 0.003968
# 6 0.000000 0.000000 0.000000 0.000000 0.003968 0.048767
#
#
# Mechanical properties :
#
#
# Convention : Reuss Voigt Hill
#
# Bulk Modulus (GPa) = 39.41672 42.28499 40.85086
# Shear Modulus (GPa) = 11.83789 15.39448 13.61618
#
# Velocity S-wave (km/s) = 2.87659 3.28037 3.08509
# Velocity P-wave (km/s) = 6.21173 6.62611 6.42226
#
# Compressibility (1/GPa) = 0.02536994
#
# Stress axis : x y z
#
# Youngs Moduli (GPa) = 57.39290 57.39313 43.04033
#
# Poissons Ratio (x) = 0.39944 0.20220
# Poissons Ratio (y) = 0.39944 0.20220
# Poissons Ratio (z) = 0.26963 0.26963
#
# Static dielectric constant tensor:
#      x y z
#    x 2.856990 0.000000 0.000000 
#    y 0.000000 2.856990 0.000000 
#    z 0.000000 0.000000 2.443130 
# 
# 
# High freq. dielectric constant tensor:
#      x y z
#    x 1.531590 0.000000 0.000000 
#    y 0.000000 1.531590 0.000000 
#    z 0.000000 0.000000 1.508120 
# 
# From -- ./inp_files/2688.got.cif
#   From: 2010.03.12/outbox.cif.g09.slc.cpg/sg165_2_cif.got.tgz:2688.got - 2010.04.02 06:36:38.
