data_PCOD8323145
_publ_section_title
;
Structure prediction by ZEFSAII (Michael W. Deem and Ramdas Pophale) SiO2 
 PCOD8323145
Probable space group: P -3 1 M 
;
_chemical_formula_sum "Si O2"
_cell_formula_units_Z 66
_cell_length_a 20.904458
_cell_length_b 20.904458
_cell_length_c 7.783987
_cell_angle_alpha 90.000000
_cell_angle_beta 90.000000
_cell_angle_gamma 120.000000
_cell_volume 2945.849513
_symmetry_space_group_name_H-M "P -3 1 M "
_symmetry_group_IT_number 162
_symmetry_cell_setting 'hexagonal'
loop_
_space_group_symop_operation_xyz
x,y,z
-y,x-y,z
-x+y,-x,z
-y,-x,-z
-x+y,y,-z
x,x-y,-z
-x,-y,-z
y,-x+y,-z
x-y,x,-z
y,x,z
x-y,-y,z
-x,-x+y,z
loop_
_atom_site_type_symbol
_atom_site_label
_atom_site_fract_x
_atom_site_fract_y
_atom_site_fract_z
Si Si1 0.844497 0.688994 0.500000
Si Si2 0.780620 0.461088 0.850900
Si Si3 0.083481 0.833539 0.840032
Si Si4 0.691736 0.082978 0.970350
Si Si5 0.914093 0.314790 0.631858
Si Si6 0.556912 0.210421 0.645670
O O1 0.870501 0.741348 0.332696
O O2 0.755785 0.639714 0.507796
O O3 0.859692 0.532388 0.882589
O O4 0.795091 0.392654 0.820677
O O5 0.740520 0.471296 0.679597
O O6 0.722498 0.444996 0.000000
O O7 0.092448 0.763768 0.880844
O O8 0.000000 0.811607 0.804518
O O9 0.110914 0.889087 0.000000
O O10 0.622754 0.000000 0.945842
O O11 0.711376 0.100634 0.170585
O O12 0.869354 0.357700 0.594714
O O13 0.000000 0.369761 0.591035
O O14 0.619203 0.238406 0.500000
#
# Coordination Sequence:
#
# PCOD8323145 Si02
#       6
#     6  12  12  12  12  12
#     4  12  24  42  72 106 145 188 234 292 371 436
#     4  12  24  45  67  95 124 176 239 292 353 426
#     4  11  23  41  70 107 144 184 232 285 348 422
#     4  10  22  43  72 101 132 173 226 298 367 427
#     4  11  25  45  70 100 139 182 232 298 370 434
#     4  12  28  43  64  92 134 182 238 296 351 422
#
# _framework density 22.404401
#
# number of rings (size 3 to 8) (size 9 to 14) (size 15 to 20)
#    0.000    0.727    3.636    3.636    5.091    1.818 
#    0.000    1.818    0.000    0.182    0.000    0.636 
#    0.000    0.000    0.000    0.000    0.000    0.000 
#
# Total GULP energy -818548.254242 kJ/mol
# GULP energy per Si atom -12402.246276 kJ/mol
# Density = 2.235341 g / cm^3
# Si number density = 22.404401 Si / 1000 Ang^3
#
#
#
# Elastic Constant Matrix: (Units=GPa)
#
#
# Indices 1 2 3 4 5 6 
#
# 1 108.5370 48.8754 21.3627 0.0001 -2.4739 0.0000
# 2 48.8754 108.5370 21.3627 -0.0001 2.4739 0.0000
# 3 21.3627 21.3627 91.1818 0.0000 0.0000 0.0000
# 4 0.0001 -0.0001 0.0000 30.5339 0.0000 2.4739
# 5 -2.4739 2.4739 0.0000 0.0000 30.5339 0.0001
# 6 0.0000 0.0000 0.0000 2.4739 0.0001 29.8308
#
#
#
# Elastic Compliance Matrix: (Units=1/GPa)
#
#
# Indices 1 2 3 4 5 6 
#
# 1 0.011829 -0.005045 -0.001589 0.000000 0.001367 0.000000
# 2 -0.005045 0.011829 -0.001589 0.000000 -0.001367 0.000000
# 3 -0.001589 -0.001589 0.011712 0.000000 0.000000 0.000000
# 4 0.000000 0.000000 0.000000 0.032972 0.000000 -0.002734
# 5 0.001367 -0.001367 0.000000 0.000000 0.032972 0.000000
# 6 0.000000 0.000000 0.000000 -0.002734 0.000000 0.033749
#
#
# Mechanical properties :
#
#
# Convention : Reuss Voigt Hill
#
# Bulk Modulus (GPa) = 52.84737 54.60638 53.72687
# Shear Modulus (GPa) = 31.68175 32.62338 32.15257
#
# Velocity S-wave (km/s) = 3.76451 3.82005 3.79238
# Velocity P-wave (km/s) = 6.52185 6.62442 6.57334
#
# Compressibility (1/GPa) = 0.01892242
#
# Stress axis : x y z
#
# Youngs Moduli (GPa) = 84.53536 84.53536 85.38349
#
# Poissons Ratio (x) = 0.42650 0.13571
# Poissons Ratio (y) = 0.42650 0.13571
# Poissons Ratio (z) = 0.13436 0.13436
#
# Static dielectric constant tensor:
#      x y z
#    x 4.014690 0.000000 0.000000 
#    y 0.000000 4.014690 0.000000 
#    z 0.000000 0.000000 4.485830 
# 
# 
# High freq. dielectric constant tensor:
#      x y z
#    x 1.868930 0.000000 0.000000 
#    y 0.000000 1.868930 0.000000 
#    z 0.000000 0.000000 1.908000 
# 
# From -- ./inp_files/1593.got.cif
#   From: 2010.03.12/outbox.cif.g09.slc.cpg/sg162_1_cif.got.tgz:1593.got - 2010.04.02 06:27:41.
