data_PCOD8323712
_publ_section_title
;
Structure prediction by ZEFSAII (Michael W. Deem and Ramdas Pophale) SiO2 
 PCOD8323712
Probable space group: P -3 M 1
;
_chemical_formula_sum "Si O2"
_cell_formula_units_Z 84
_cell_length_a 17.924482
_cell_length_b 17.924482
_cell_length_c 15.351259
_cell_angle_alpha 90.000000
_cell_angle_beta 90.000000
_cell_angle_gamma 120.000000
_cell_volume 4271.376543
_symmetry_space_group_name_H-M "P -3 M 1"
_symmetry_group_IT_number 164
_symmetry_cell_setting 'hexagonal'
loop_
_space_group_symop_operation_xyz
x,y,z
-y,x-y,z
-x+y,-x,z
x-y,-y,-z
-x,-x+y,-z
y,x,-z
-x,-y,-z
y,-x+y,-z
x-y,x,-z
-x+y,y,z
x,x-y,z
-y,-x,z
loop_
_atom_site_type_symbol
_atom_site_label
_atom_site_fract_x
_atom_site_fract_y
_atom_site_fract_z
Si Si1 0.100654 0.631581 0.497857
Si Si2 0.101524 0.633439 0.004048
Si Si3 0.093717 0.737665 0.155572
Si Si4 0.350455 0.258805 0.651432
Si Si5 0.000444 0.831725 0.603277
Si Si6 0.268856 0.369605 0.842488
Si Si7 0.838970 0.507536 0.313364
O O1 0.144124 0.572062 0.481567
O O2 0.121497 0.695643 0.418463
O O3 0.133605 0.680522 0.589769
O O4 0.000000 0.570813 0.500000
O O5 0.143985 0.571993 0.005317
O O6 0.127592 0.689973 0.091920
O O7 0.134479 0.695066 0.920271
O O8 0.000000 0.574185 0.000000
O O9 0.158615 0.841386 0.147162
O O10 0.094052 0.704582 0.253491
O O11 0.994359 0.710972 0.135384
O O12 0.318051 0.159026 0.644581
O O13 0.258359 0.253689 0.634406
O O14 0.090425 0.909576 0.639580
O O15 0.000000 0.830917 0.500000
O O16 0.922952 0.845903 0.637864
O O17 0.166707 0.333414 0.833754
O O18 0.319234 0.418581 0.754519
O O19 0.739721 0.479441 0.296510
O O20 0.852157 0.426079 0.300555
#
# Coordination Sequence:
#
# PCOD8323712 Si02
#       7
#    12  12  12  12  12  12  12
#     4  10  20  33  49  70  98 134 177 221 264 316
#     4   9  18  34  57  82 105 131 167 213 266 323
#     4  10  21  36  54  78 110 147 187 229 268 310
#     4  10  20  33  49  71 101 139 182 224 263 305
#     4   9  17  29  47  71 101 139 182 228 278 329
#     4  10  20  34  56  85 113 143 179 221 273 329
#     4  10  20  34  54  81 111 140 172 217 276 339
#
# _framework density 19.665790999999999
#
# number of rings (size 3 to 8) (size 9 to 14) (size 15 to 20)
#    0.000    2.286    0.000    2.857    0.000    2.286 
#    0.000    3.571    0.000    3.714    0.000    0.000 
#    0.000    3.429    0.000    0.429    0.000    0.000 
#
# Total GULP energy -1040993.389300 kJ/mol
# GULP energy per Si atom -12392.778444 kJ/mol
# Density = 1.962103 g / cm^3
# Si number density = 19.665791 Si / 1000 Ang^3
#
#
#
# Elastic Constant Matrix: (Units=GPa)
#
#
# Indices 1 2 3 4 5 6 
#
# 1 88.3113 40.1834 45.0249 -2.7978 0.0000 0.0000
# 2 40.1834 88.3113 45.0249 2.7978 0.0000 0.0000
# 3 45.0249 45.0249 133.6060 0.0000 0.0000 0.0000
# 4 -2.7978 2.7978 0.0000 25.2196 0.0000 0.0000
# 5 0.0000 0.0000 0.0000 0.0000 25.2196 -2.7978
# 6 0.0000 0.0000 0.0000 0.0000 -2.7978 24.0639
#
#
#
# Elastic Compliance Matrix: (Units=1/GPa)
#
#
# Indices 1 2 3 4 5 6 
#
# 1 0.015619 -0.005430 -0.003434 0.002335 0.000000 0.000000
# 2 -0.005430 0.015619 -0.003434 -0.002335 0.000000 0.000000
# 3 -0.003434 -0.003434 0.009799 0.000000 0.000000 0.000000
# 4 0.002335 -0.002335 0.000000 0.040170 0.000000 0.000000
# 5 0.000000 0.000000 0.000000 0.000000 0.040170 0.004670
# 6 0.000000 0.000000 0.000000 0.000000 0.004670 0.042099
#
#
# Mechanical properties :
#
#
# Convention : Reuss Voigt Hill
#
# Bulk Modulus (GPa) = 60.81980 63.41054 62.11517
# Shear Modulus (GPa) = 25.83296 26.90034 26.36665
#
# Velocity S-wave (km/s) = 3.62829 3.70249 3.66558
# Velocity P-wave (km/s) = 6.96753 7.11281 7.04054
#
# Compressibility (1/GPa) = 0.01644202
#
# Stress axis : x y z
#
# Youngs Moduli (GPa) = 64.02428 64.02428 102.05236
#
# Poissons Ratio (x) = 0.34768 0.35040
# Poissons Ratio (y) = 0.34768 0.35040
# Poissons Ratio (z) = 0.21983 0.21983
#
# Static dielectric constant tensor:
#      x y z
#    x 3.679400 0.000000 0.000000 
#    y 0.000000 3.679400 0.000000 
#    z 0.000000 0.000000 3.583280 
# 
# 
# High freq. dielectric constant tensor:
#      x y z
#    x 1.754610 0.000000 0.000000 
#    y 0.000000 1.754610 0.000000 
#    z 0.000000 0.000000 1.767240 
# 
# From -- ./inp_files/3625.got.cif
#   From: 2010.03.12/outbox.cif.g09.slc.cpg/sg164_2_cif.got.tgz:3625.got - 2010.04.02 06:32:59.
