data_PCOD8323294
_publ_section_title
;
Structure prediction by ZEFSAII (Michael W. Deem and Ramdas Pophale) SiO2 
 PCOD8323294
Probable space group: P -3 1 C
;
_chemical_formula_sum "Si O2"
_cell_formula_units_Z 42
_cell_length_a 8.622186
_cell_length_b 8.622186
_cell_length_c 31.841032
_cell_angle_alpha 90.000000
_cell_angle_beta 90.000000
_cell_angle_gamma 120.000000
_cell_volume 2049.993772
_symmetry_space_group_name_H-M "P -3 1 C"
_symmetry_group_IT_number 163
_symmetry_cell_setting 'hexagonal'
loop_
_space_group_symop_operation_xyz
x,y,z
-y,x-y,z
-x+y,-x,z
-y,-x,1/2-z
-x+y,y,1/2-z
x,x-y,1/2-z
-x,-y,-z
y,-x+y,-z
x-y,x,-z
y,x,1/2+z
x-y,-y,1/2+z
-x,-x+y,1/2+z
loop_
_atom_site_type_symbol
_atom_site_label
_atom_site_fract_x
_atom_site_fract_y
_atom_site_fract_z
Si Si1 0.666667 0.333334 0.537294
Si Si2 0.648850 0.972791 0.417172
Si Si3 0.437682 0.218841 0.750000
Si Si4 0.333334 0.666667 0.563351
Si Si5 0.000000 0.000000 0.951299
Si Si6 0.919795 0.773669 0.835035
O O1 0.609305 0.471767 0.554964
O O2 0.666668 0.333334 0.487146
O O3 0.696791 0.177372 0.418304
O O4 0.624253 0.891735 0.369789
O O5 0.805398 0.947830 0.436018
O O6 0.564781 0.129561 0.750000
O O7 0.313300 0.181244 0.789776
O O8 0.000000 0.000000 0.000000
O O9 0.799987 0.870383 0.840389
#
# Coordination Sequence:
#
# PCOD8323294 Si02
#       6
#     4  12   6   4   4  12
#     4  12  27  42  69  94 145 190 238 300 354 408
#     4  12  24  42  67  99 135 185 235 287 353 414
#     4  10  24  38  68 106 128 166 220 280 334 410
#     4  12  27  45  63 105 140 185 243 300 351 417
#     4  12  21  42  66  97 137 178 234 279 342 411
#     4  10  22  43  69  95 133 180 224 271 348 410
#
# _framework density 20.487867000000001
#
# number of rings (size 3 to 8) (size 9 to 14) (size 15 to 20)
#    0.857    0.000    2.857    5.143    4.000    0.000 
#    0.000    0.000    0.000    4.571    0.000    0.000 
#    0.000    0.000    0.000    0.000    0.000    0.000 
#
# Total GULP energy -520547.401515 kJ/mol
# GULP energy per Si atom -12393.985750 kJ/mol
# Density = 2.044124 g / cm^3
# Si number density = 20.487867 Si / 1000 Ang^3
#
#
#
# Elastic Constant Matrix: (Units=GPa)
#
#
# Indices 1 2 3 4 5 6 
#
# 1 68.5279 18.4937 41.4465 -0.0006 -5.4161 0.0007
# 2 18.4937 68.5283 41.4460 -0.0002 5.4156 -0.0003
# 3 41.4465 41.4460 177.5295 0.0007 0.0004 -0.0005
# 4 -0.0006 -0.0002 0.0007 18.2125 0.0000 5.4161
# 5 -5.4161 5.4156 0.0004 0.0000 18.2126 0.0003
# 6 0.0007 -0.0003 -0.0005 5.4161 0.0003 25.0166
#
#
#
# Elastic Compliance Matrix: (Units=1/GPa)
#
#
# Indices 1 2 3 4 5 6 
#
# 1 0.018070 -0.003292 -0.003450 0.000001 0.006353 -0.000001
# 2 -0.003292 0.018069 -0.003450 0.000000 -0.006352 0.000000
# 3 -0.003450 -0.003450 0.007244 -0.000001 0.000000 0.000000
# 4 0.000001 0.000000 -0.000001 0.058686 0.000001 -0.012705
# 5 0.006353 -0.006352 0.000000 0.000001 0.058685 -0.000001
# 6 -0.000001 0.000000 0.000000 -0.012705 -0.000001 0.042724
#
#
# Mechanical properties :
#
#
# Convention : Reuss Voigt Hill
#
# Bulk Modulus (GPa) = 43.48006 57.48423 50.48214
# Shear Modulus (GPa) = 21.59569 26.50166 24.04868
#
# Velocity S-wave (km/s) = 3.25017 3.60047 3.42979
# Velocity P-wave (km/s) = 5.94586 6.73818 6.35438
#
# Compressibility (1/GPa) = 0.02299905
#
# Stress axis : x y z
#
# Youngs Moduli (GPa) = 55.34128 55.34229 138.05002
#
# Poissons Ratio (x) = 0.18218 0.47629
# Poissons Ratio (y) = 0.18218 0.47626
# Poissons Ratio (z) = 0.19093 0.19093
#
# Static dielectric constant tensor:
#      x y z
#    x 3.705690 0.000010 0.000000 
#    y 0.000010 3.705700 0.000000 
#    z 0.000000 0.000000 4.030140 
# 
# 
# High freq. dielectric constant tensor:
#      x y z
#    x 1.797540 0.000000 0.000000 
#    y 0.000000 1.797540 0.000000 
#    z 0.000000 0.000000 1.815980 
# 
# From -- ./inp_files/4285.got.cif
#   From: 2010.03.12/outbox.cif.g09.slc.cpg/sg163_3_cif.got.tgz:4285.got - 2010.04.02 06:30:25.
