data_PCOD8323450
_publ_section_title
;
Structure prediction by ZEFSAII (Michael W. Deem and Ramdas Pophale) SiO2 
 PCOD8323450
Probable space group: P -3 M 1
;
_chemical_formula_sum "Si O2"
_cell_formula_units_Z 48
_cell_length_a 16.342858
_cell_length_b 16.342858
_cell_length_c 11.824848
_cell_angle_alpha 90.000000
_cell_angle_beta 90.000000
_cell_angle_gamma 120.000000
_cell_volume 2735.156703
_symmetry_space_group_name_H-M "P -3 M 1"
_symmetry_group_IT_number 164
_symmetry_cell_setting 'hexagonal'
loop_
_space_group_symop_operation_xyz
x,y,z
-y,x-y,z
-x+y,-x,z
x-y,-y,-z
-x,-x+y,-z
y,x,-z
-x,-y,-z
y,-x+y,-z
x-y,x,-z
-x+y,y,z
x,x-y,z
-y,-x,z
loop_
_atom_site_type_symbol
_atom_site_label
_atom_site_fract_x
_atom_site_fract_y
_atom_site_fract_z
Si Si1 0.602636 0.709167 0.262277
Si Si2 0.148010 0.668643 0.503076
Si Si3 0.713418 0.105010 0.259426
Si Si4 0.444591 0.889182 0.870393
Si Si5 0.443410 0.886820 0.123914
O O1 0.642751 0.821376 0.250245
O O2 0.578078 0.674550 0.390947
O O3 0.682892 0.684764 0.221144
O O4 0.507162 0.655370 0.188060
O O5 0.125986 0.562993 0.520620
O O6 0.260428 0.739573 0.493032
O O7 0.105012 0.697166 0.607021
O O8 0.823872 0.176129 0.230081
O O9 0.653122 0.144788 0.195368
O O10 0.500561 0.001121 0.875432
O O11 0.422971 0.845942 0.996700
#
# Coordination Sequence:
#
# PCOD8323450 Si02
#       5
#    12  12  12   6   6
#     4  10  20  33  51  73  99 131 166 204 245 289
#     4  10  18  29  48  73 100 128 160 199 242 290
#     4  10  20  33  51  73  99 131 166 204 245 289
#     4   9  18  33  51  71  97 128 161 197 239 291
#     4   9  18  33  51  71  97 128 161 197 239 291
#
# _framework density 17.549268999999999
#
# number of rings (size 3 to 8) (size 9 to 14) (size 15 to 20)
#    0.000    2.250    2.500    1.000    0.000    2.000 
#    1.500    0.000    0.000    0.500    0.000    0.000 
#    0.000    6.000    0.000   12.500    0.000    0.000 
#
# Total GULP energy -595108.229339 kJ/mol
# GULP energy per Si atom -12398.088111 kJ/mol
# Density = 1.750933 g / cm^3
# Si number density = 17.549269 Si / 1000 Ang^3
#
#
#
# Elastic Constant Matrix: (Units=GPa)
#
#
# Indices 1 2 3 4 5 6 
#
# 1 80.1463 43.5881 7.1109 0.5056 0.0000 0.0000
# 2 43.5881 80.1463 7.1109 -0.5056 0.0000 0.0000
# 3 7.1109 7.1109 98.7129 0.0000 0.0000 0.0000
# 4 0.5056 -0.5056 0.0000 6.1313 0.0000 0.0000
# 5 0.0000 0.0000 0.0000 0.0000 6.1313 0.5056
# 6 0.0000 0.0000 0.0000 0.0000 0.5056 18.2791
#
#
#
# Elastic Compliance Matrix: (Units=1/GPa)
#
#
# Indices 1 2 3 4 5 6 
#
# 1 0.017783 -0.009633 -0.000587 -0.002261 0.000000 0.000000
# 2 -0.009633 0.017783 -0.000587 0.002261 0.000000 0.000000
# 3 -0.000587 -0.000587 0.010215 0.000000 0.000000 0.000000
# 4 -0.002261 0.002261 0.000000 0.163472 0.000000 0.000000
# 5 0.000000 0.000000 0.000000 0.000000 0.163472 -0.004522
# 6 0.000000 0.000000 0.000000 0.000000 -0.004522 0.054832
#
#
# Mechanical properties :
#
#
# Convention : Reuss Voigt Hill
#
# Bulk Modulus (GPa) = 41.38150 41.62503 41.50327
# Shear Modulus (GPa) = 10.93551 19.52137 15.22844
#
# Velocity S-wave (km/s) = 2.49897 3.33885 2.94896
# Velocity P-wave (km/s) = 5.65313 6.21565 5.94105
#
# Compressibility (1/GPa) = 0.02416539
#
# Stress axis : x y z
#
# Youngs Moduli (GPa) = 56.23437 56.23437 97.89559
#
# Poissons Ratio (x) = 0.54173 0.05747
# Poissons Ratio (y) = 0.54173 0.05747
# Poissons Ratio (z) = 0.03301 0.03301
#
# Static dielectric constant tensor:
#      x y z
#    x 3.096440 0.000000 0.000000 
#    y 0.000000 3.096440 0.000000 
#    z 0.000000 0.000000 3.446850 
# 
# 
# High freq. dielectric constant tensor:
#      x y z
#    x 1.654440 0.000000 0.000000 
#    y 0.000000 1.654440 0.000000 
#    z 0.000000 0.000000 1.685060 
# 
# From -- ./inp_files/2490.got.cif
#   From: 2010.03.12/outbox.cif.g09.slc.cpg/sg164_2_cif.got.tgz:2490.got - 2010.04.02 06:32:59.
