data_PCOD8323374
_publ_section_title
;
Structure prediction by ZEFSAII (Michael W. Deem and Ramdas Pophale) SiO2 
 PCOD8323374
Probable space group: P -3 M 1
;
_chemical_formula_sum "Si O2"
_cell_formula_units_Z 96
_cell_length_a 20.899501
_cell_length_b 20.899501
_cell_length_c 20.299316
_cell_angle_alpha 90.000000
_cell_angle_beta 90.000000
_cell_angle_gamma 120.000000
_cell_volume 7678.632273
_symmetry_space_group_name_H-M "P -3 M 1"
_symmetry_group_IT_number 164
_symmetry_cell_setting 'hexagonal'
loop_
_space_group_symop_operation_xyz
x,y,z
-y,x-y,z
-x+y,-x,z
x-y,-y,-z
-x,-x+y,-z
y,x,-z
-x,-y,-z
y,-x+y,-z
x-y,x,-z
-x+y,y,z
x,x-y,z
-y,-x,z
loop_
_atom_site_type_symbol
_atom_site_label
_atom_site_fract_x
_atom_site_fract_y
_atom_site_fract_z
Si Si1 0.817559 0.332818 0.396165
Si Si2 0.516107 0.183767 0.778360
Si Si3 0.081458 0.464661 0.485331
Si Si4 0.929539 0.388720 0.285273
Si Si5 0.666662 0.485201 0.026046
Si Si6 0.466200 0.381702 0.660903
Si Si7 0.540514 0.929249 0.862669
Si Si8 0.620255 0.531599 0.901117
O O1 0.808409 0.404205 0.398510
O O2 0.737610 0.262391 0.394038
O O3 0.860626 0.328666 0.460773
O O4 0.861744 0.332831 0.331048
O O5 0.595123 0.190245 0.779835
O O6 0.529062 0.264531 0.786186
O O7 0.473666 0.147875 0.710250
O O8 0.465905 0.133572 0.838046
O O9 0.079052 0.539526 0.489332
O O10 0.104995 0.452682 0.412518
O O11 0.000000 0.396481 0.500000
O O12 0.933967 0.466984 0.283462
O O13 0.918586 0.356054 0.211279
O O14 0.005352 0.398998 0.315981
O O15 0.740265 0.480530 0.021917
O O16 0.597547 0.402453 0.021930
O O17 0.666618 0.525518 0.093751
O O18 0.664849 0.535986 0.967010
O O19 0.539798 0.460203 0.662291
O O20 0.467816 0.935632 0.859798
O O21 0.605216 0.004941 0.895558
O O22 0.543254 0.456747 0.902217
#
# Coordination Sequence:
#
# PCOD8323374 Si02
#       8
#    12  12  12  12  12  12  12  12
#     4  10  19  28  39  56  78  99 120 153 200 244
#     4  10  18  26  37  54  76  96 114 142 188 238
#     4   9  15  25  41  55  66  89 124 153 178 216
#     4   9  15  26  42  55  67  89 123 156 184 219
#     4  10  19  28  38  53  75  98 119 148 193 242
#     4   9  15  25  40  54  67  88 120 152 179 215
#     4   9  16  27  42  56  67  87 123 160 186 215
#     4   9  16  27  41  54  68  91 123 153 180 218
#
# _framework density 12.502226
#
# number of rings (size 3 to 8) (size 9 to 14) (size 15 to 20)
#    0.000    2.625    2.500    1.125    0.000    2.500 
#    0.000    1.250    0.000    3.000    0.000    0.000 
#    0.000    0.000    0.000    0.000    0.000    0.000 
#
# Total GULP energy -1189917.217466 kJ/mol
# GULP energy per Si atom -12394.971015 kJ/mol
# Density = 1.247377 g / cm^3
# Si number density = 12.502226 Si / 1000 Ang^3
#
#
#
# Elastic Constant Matrix: (Units=GPa)
#
#
# Indices 1 2 3 4 5 6 
#
# 1 39.9193 20.6662 29.7917 0.4398 0.0000 0.0000
# 2 20.6662 39.9193 29.7917 -0.4398 0.0000 0.0000
# 3 29.7917 29.7917 110.1120 0.0000 0.0000 0.0000
# 4 0.4398 -0.4398 0.0000 13.3890 0.0000 0.0000
# 5 0.0000 0.0000 0.0000 0.0000 13.3890 0.4398
# 6 0.0000 0.0000 0.0000 0.0000 0.4398 9.6266
#
#
#
# Elastic Compliance Matrix: (Units=1/GPa)
#
#
# Indices 1 2 3 4 5 6 
#
# 1 0.037254 -0.014764 -0.006085 -0.001709 0.000000 0.000000
# 2 -0.014764 0.037254 -0.006085 0.001709 0.000000 0.000000
# 3 -0.006085 -0.006085 0.012374 0.000000 0.000000 0.000000
# 4 -0.001709 0.001709 0.000000 0.074800 0.000000 0.000000
# 5 0.000000 0.000000 0.000000 0.000000 0.074800 -0.003418
# 6 0.000000 0.000000 0.000000 0.000000 -0.003418 0.104035
#
#
# Mechanical properties :
#
#
# Convention : Reuss Voigt Hill
#
# Bulk Modulus (GPa) = 30.28963 38.93885 34.61424
# Shear Modulus (GPa) = 12.33382 14.59433 13.46408
#
# Velocity S-wave (km/s) = 3.14431 3.42034 3.28523
# Velocity P-wave (km/s) = 6.12064 6.84189 6.49129
#
# Compressibility (1/GPa) = 0.03301460
#
# Stress axis : x y z
#
# Youngs Moduli (GPa) = 26.84297 26.84297 80.81307
#
# Poissons Ratio (x) = 0.39631 0.49173
# Poissons Ratio (y) = 0.39631 0.49173
# Poissons Ratio (z) = 0.16333 0.16333
#
# Static dielectric constant tensor:
#      x y z
#    x 2.282320 0.000000 0.000000 
#    y 0.000000 2.282320 0.000000 
#    z 0.000000 0.000000 2.959970 
# 
# 
# High freq. dielectric constant tensor:
#      x y z
#    x 1.433240 0.000000 0.000000 
#    y 0.000000 1.433240 0.000000 
#    z 0.000000 0.000000 1.499830 
# 
# From -- ./inp_files/4304.got.cif
#   From: 2010.03.12/outbox.cif.g09.slc.cpg/sg164_3_cif.got.tgz:4304.got - 2010.04.02 06:32:59.
