data_PCOD8323407
_publ_section_title
;
Structure prediction by ZEFSAII (Michael W. Deem and Ramdas Pophale) SiO2 
 PCOD8323407
Probable space group: P -3 M 1
;
_chemical_formula_sum "Si O2"
_cell_formula_units_Z 54
_cell_length_a 27.088702
_cell_length_b 27.088702
_cell_length_c 5.160697
_cell_angle_alpha 90.000000
_cell_angle_beta 90.000000
_cell_angle_gamma 120.000000
_cell_volume 3279.558514
_symmetry_space_group_name_H-M "P -3 M 1"
_symmetry_group_IT_number 164
_symmetry_cell_setting 'hexagonal'
loop_
_space_group_symop_operation_xyz
x,y,z
-y,x-y,z
-x+y,-x,z
x-y,-y,-z
-x,-x+y,-z
y,x,-z
-x,-y,-z
y,-x+y,-z
x-y,x,-z
-x+y,y,z
x,x-y,z
-y,-x,z
loop_
_atom_site_type_symbol
_atom_site_label
_atom_site_fract_x
_atom_site_fract_y
_atom_site_fract_z
Si Si1 0.704710 0.521534 0.643013
Si Si2 0.039854 0.519927 0.755627
Si Si3 0.657423 0.720023 0.905949
Si Si4 0.657088 0.773286 0.402662
Si Si5 0.522979 0.872749 0.853681
O O1 0.750340 0.500679 0.690776
O O2 0.736522 0.589332 0.620834
O O3 0.672396 0.497365 0.371319
O O4 0.657457 0.497687 0.873619
O O5 0.079242 0.587446 0.774200
O O6 0.000000 0.500000 0.500000
O O7 0.000000 0.500000 0.000000
O O8 0.681712 0.749453 0.627294
O O9 0.590154 0.688206 0.879697
O O10 0.674253 0.674253 0.000000
O O11 0.681604 0.769273 0.124570
O O12 0.677313 0.838657 0.467272
#
# Coordination Sequence:
#
# PCOD8323407 Si02
#       5
#    12   6  12  12  12
#     4   9  17  31  50  69  87 105 142 191 237 267
#     4  12  24  36  48  66 102 142 164 182 216 278
#     4  10  18  28  43  62  84 113 149 183 219 259
#     4   9  17  28  42  60  83 110 136 179 225 259
#     4  10  20  32  47  67  93 121 153 185 220 279
#
# _framework density 16.465631999999999
#
# number of rings (size 3 to 8) (size 9 to 14) (size 15 to 20)
#    0.000    2.222    0.000    4.000    0.000    8.889 
#    0.000    0.000    0.000    0.000    0.000    0.000 
#   22.222    0.000    0.000    0.000    0.000    0.000 
#
# Total GULP energy -669139.662796 kJ/mol
# GULP energy per Si atom -12391.475237 kJ/mol
# Density = 1.642816 g / cm^3
# Si number density = 16.465632 Si / 1000 Ang^3
#
#
#
# Elastic Constant Matrix: (Units=GPa)
#
#
# Indices 1 2 3 4 5 6 
#
# 1 53.1311 10.2493 43.4273 -2.5792 0.0000 0.0000
# 2 10.2493 53.1311 43.4273 2.5792 0.0000 0.0000
# 3 43.4273 43.4273 157.1739 0.0000 0.0000 0.0000
# 4 -2.5792 2.5792 0.0000 42.8294 0.0000 0.0000
# 5 0.0000 0.0000 0.0000 0.0000 42.8294 -2.5792
# 6 0.0000 0.0000 0.0000 0.0000 -2.5792 21.4409
#
#
#
# Elastic Compliance Matrix: (Units=1/GPa)
#
#
# Indices 1 2 3 4 5 6 
#
# 1 0.024441 0.000951 -0.007016 0.001415 0.000000 0.000000
# 2 0.000951 0.024441 -0.007016 -0.001415 0.000000 0.000000
# 3 -0.007016 -0.007016 0.010239 0.000000 0.000000 0.000000
# 4 0.001415 -0.001415 0.000000 0.023519 0.000000 0.000000
# 5 0.000000 0.000000 0.000000 0.000000 0.023519 0.002829
# 6 0.000000 0.000000 0.000000 0.000000 0.002829 0.046980
#
#
# Mechanical properties :
#
#
# Convention : Reuss Voigt Hill
#
# Bulk Modulus (GPa) = 30.33977 50.84931 40.59454
# Shear Modulus (GPa) = 26.27606 32.50876 29.39241
#
# Velocity S-wave (km/s) = 3.99910 4.44818 4.22960
# Velocity P-wave (km/s) = 6.30792 7.57171 6.96852
#
# Compressibility (1/GPa) = 0.03296004
#
# Stress axis : x y z
#
# Youngs Moduli (GPa) = 40.91478 40.91478 97.66251
#
# Poissons Ratio (x) = -0.03891 0.68518
# Poissons Ratio (y) = -0.03891 0.68518
# Poissons Ratio (z) = 0.28705 0.28705
#
# Static dielectric constant tensor:
#      x y z
#    x 2.868150 0.000000 0.000000 
#    y 0.000000 2.868150 0.000000 
#    z 0.000000 0.000000 3.695930 
# 
# 
# High freq. dielectric constant tensor:
#      x y z
#    x 1.593990 0.000000 0.000000 
#    y 0.000000 1.593990 0.000000 
#    z 0.000000 0.000000 1.666540 
# 
# From -- ./inp_files/551.got.cif
#   From: 2010.03.12/outbox.cif.g09.slc.cpg/sg164_1_cif.got.tgz:551.got - 2010.04.02 06:32:59.
