data_PCOD8323601
_publ_section_title
;
Structure prediction by ZEFSAII (Michael W. Deem and Ramdas Pophale) SiO2 
 PCOD8323601
Probable space group: P -3 M 1
;
_chemical_formula_sum "Si O2"
_cell_formula_units_Z 84
_cell_length_a 17.939418
_cell_length_b 17.939418
_cell_length_c 21.365135
_cell_angle_alpha 90.000000
_cell_angle_beta 90.000000
_cell_angle_gamma 120.000000
_cell_volume 5954.605191
_symmetry_space_group_name_H-M "P -3 M 1"
_symmetry_group_IT_number 164
_symmetry_cell_setting 'hexagonal'
loop_
_space_group_symop_operation_xyz
x,y,z
-y,x-y,z
-x+y,-x,z
x-y,-y,-z
-x,-x+y,-z
y,x,-z
-x,-y,-z
y,-x+y,-z
x-y,x,-z
-x+y,y,z
x,x-y,z
-y,-x,z
loop_
_atom_site_type_symbol
_atom_site_label
_atom_site_fract_x
_atom_site_fract_y
_atom_site_fract_z
Si Si1 0.595736 0.023368 0.855999
Si Si2 0.174030 0.175071 0.298938
Si Si3 0.667708 0.165347 0.099050
Si Si4 0.498957 0.332749 0.954850
Si Si5 0.827354 0.000253 0.928872
Si Si6 0.827255 0.826544 0.566038
Si Si7 0.766096 0.060845 0.813454
O O1 0.518674 0.037347 0.829807
O O2 0.562090 0.922767 0.865007
O O3 0.633137 0.075839 0.920208
O O4 0.675286 0.058875 0.808035
O O5 0.075640 0.151280 0.289446
O O6 0.209796 0.222320 0.367421
O O7 0.233005 0.238427 0.244886
O O8 0.177826 0.088913 0.292144
O O9 0.597627 0.195253 0.108393
O O10 0.759041 0.240959 0.125346
O O11 0.676566 0.148304 0.026725
O O12 0.480501 0.240251 0.928389
O O13 0.600235 0.399766 0.946615
O O14 0.927449 0.072552 0.922846
O O15 0.770981 0.019153 0.879579
O O16 0.818221 0.909111 0.911710
O O17 0.794948 0.000000 0.000000
O O18 0.778775 0.778775 0.500000
O O19 0.826526 0.913263 0.574918
O O20 0.925167 0.850333 0.557831
O O21 0.841239 0.158762 0.807996
#
# Coordination Sequence:
#
# PCOD8323601 Si02
#       7
#    12  12  12  12  12  12  12
#     4  10  20  32  43  54  69  90 117 149 188 233
#     4   9  16  25  38  57  83 114 142 163 181 204
#     4   9  17  28  42  58  73  89 110 141 183 230
#     4   9  16  27  43  60  75  89 108 138 180 231
#     4   9  17  28  41  56  76 105 139 169 191 211
#     4   8  12  18  30  50  77 109 142 168 183 196
#     4  10  20  31  41  55  75  97 124 160 198 231
#
# _framework density 14.106728
#
# number of rings (size 3 to 8) (size 9 to 14) (size 15 to 20)
#    0.000    2.857    0.000    2.000    0.000    7.429 
#    0.000    4.286    0.000    0.286    0.000    0.000 
#    0.000    0.571    0.000    0.000    0.000    0.000 
#
# Total GULP energy -1040608.590279 kJ/mol
# GULP energy per Si atom -12388.197503 kJ/mol
# Density = 1.407462 g / cm^3
# Si number density = 14.106728 Si / 1000 Ang^3
#
#
#
# Elastic Constant Matrix: (Units=GPa)
#
#
# Indices 1 2 3 4 5 6 
#
# 1 63.2331 27.9920 27.4214 -0.3511 0.0000 0.0000
# 2 27.9920 63.2331 27.4214 0.3511 0.0000 0.0000
# 3 27.4214 27.4214 86.8137 0.0000 0.0000 0.0000
# 4 -0.3511 0.3511 0.0000 8.1920 0.0000 0.0000
# 5 0.0000 0.0000 0.0000 0.0000 8.1920 -0.3511
# 6 0.0000 0.0000 0.0000 0.0000 -0.3511 17.6205
#
#
#
# Elastic Compliance Matrix: (Units=1/GPa)
#
#
# Indices 1 2 3 4 5 6 
#
# 1 0.020966 -0.007434 -0.004274 0.001217 0.000000 0.000000
# 2 -0.007434 0.020966 -0.004274 -0.001217 0.000000 0.000000
# 3 -0.004274 -0.004274 0.014219 0.000000 0.000000 0.000000
# 4 0.001217 -0.001217 0.000000 0.122174 0.000000 0.000000
# 5 0.000000 0.000000 0.000000 0.000000 0.122174 0.002435
# 6 0.000000 0.000000 0.000000 0.000000 0.002435 0.056800
#
#
# Mechanical properties :
#
#
# Convention : Reuss Voigt Hill
#
# Bulk Modulus (GPa) = 41.34723 42.10549 41.72636
# Shear Modulus (GPa) = 12.58409 15.49726 14.04068
#
# Velocity S-wave (km/s) = 2.98998 3.31807 3.15829
# Velocity P-wave (km/s) = 6.42603 6.67773 6.55309
#
# Compressibility (1/GPa) = 0.02418541
#
# Stress axis : x y z
#
# Youngs Moduli (GPa) = 47.69671 47.69671 70.32853
#
# Poissons Ratio (x) = 0.35460 0.30059
# Poissons Ratio (y) = 0.35460 0.30059
# Poissons Ratio (z) = 0.20386 0.20386
#
# Static dielectric constant tensor:
#      x y z
#    x 2.692220 0.000000 0.000000 
#    y 0.000000 2.692220 0.000000 
#    z 0.000000 0.000000 2.914970 
# 
# 
# High freq. dielectric constant tensor:
#      x y z
#    x 1.523580 0.000000 0.000000 
#    y 0.000000 1.523580 0.000000 
#    z 0.000000 0.000000 1.508320 
# 
# From -- ./inp_files/4636.got.cif
#   From: 2010.03.12/outbox.cif.g09.slc.cpg/sg164_3_cif.got.tgz:4636.got - 2010.04.02 06:32:59.
