data_PCOD8323199
_publ_section_title
;
Structure prediction by ZEFSAII (Michael W. Deem and Ramdas Pophale) SiO2 
 PCOD8323199
Probable space group: P -3 1 C
;
_chemical_formula_sum "Si O2"
_cell_formula_units_Z 54
_cell_length_a 13.449220
_cell_length_b 13.449220
_cell_length_c 19.967631
_cell_angle_alpha 90.000000
_cell_angle_beta 90.000000
_cell_angle_gamma 120.000000
_cell_volume 3127.889265
_symmetry_space_group_name_H-M "P -3 1 C"
_symmetry_group_IT_number 163
_symmetry_cell_setting 'hexagonal'
loop_
_space_group_symop_operation_xyz
x,y,z
-y,x-y,z
-x+y,-x,z
-y,-x,1/2-z
-x+y,y,1/2-z
x,x-y,1/2-z
-x,-y,-z
y,-x+y,-z
x-y,x,-z
y,x,1/2+z
x-y,-y,1/2+z
-x,-x+y,1/2+z
loop_
_atom_site_type_symbol
_atom_site_label
_atom_site_fract_x
_atom_site_fract_y
_atom_site_fract_z
Si Si1 0.889282 0.543433 0.871677
Si Si2 0.500001 0.500000 0.250000
Si Si3 0.449249 0.131332 0.076462
Si Si4 0.550751 0.682083 0.423537
Si Si5 0.654151 0.543433 0.371677
O O1 0.917795 0.528075 0.795183
O O2 0.785946 0.569984 0.874925
O O3 0.851941 0.426989 0.912723
O O4 0.001870 0.648662 0.905115
O O5 0.610281 0.528075 0.295184
O O6 0.430016 0.215962 0.125074
O O7 0.575047 0.148059 0.087277
O O8 0.435591 0.158855 1.000000
O O9 0.646792 0.648662 0.405115
#
# Coordination Sequence:
#
# PCOD8323199 Si02
#       5
#    12   6  12  12  12
#     4  10  20  31  51  70 102 133 163 210 247 305
#     4   8  20  36  46  76 100 134 172 194 256 302
#     4  10  18  31  48  73  96 128 166 206 253 295
#     4  10  18  31  48  73  96 128 166 206 253 295
#     4  10  20  31  51  70 102 133 163 210 247 305
#
# _framework density 17.264037999999999
#
# number of rings (size 3 to 8) (size 9 to 14) (size 15 to 20)
#    0.000    2.667    0.000    6.222    0.000    7.111 
#    0.000    0.000    0.000    0.889    0.000    3.111 
#    0.000   14.222    0.000    0.000    0.000    0.000 
#
# Total GULP energy -669545.888313 kJ/mol
# GULP energy per Si atom -12398.997932 kJ/mol
# Density = 1.722474 g / cm^3
# Si number density = 17.264038 Si / 1000 Ang^3
#
#
#
# Elastic Constant Matrix: (Units=GPa)
#
#
# Indices 1 2 3 4 5 6 
#
# 1 110.8958 60.4542 35.9732 0.0001 0.0001 0.0000
# 2 60.4542 110.8958 35.9732 -0.0001 -0.0001 0.0000
# 3 35.9732 35.9732 132.1746 0.0000 0.0000 0.0000
# 4 0.0001 -0.0001 0.0000 20.0292 0.0000 -0.0001
# 5 0.0001 -0.0001 0.0000 0.0000 20.0292 0.0001
# 6 0.0000 0.0000 0.0000 -0.0001 0.0001 25.2208
#
#
#
# Elastic Compliance Matrix: (Units=1/GPa)
#
#
# Indices 1 2 3 4 5 6 
#
# 1 0.013207 -0.006618 -0.001793 0.000000 0.000000 0.000000
# 2 -0.006618 0.013207 -0.001793 0.000000 0.000000 0.000000
# 3 -0.001793 -0.001793 0.008542 0.000000 0.000000 0.000000
# 4 0.000000 0.000000 0.000000 0.049927 0.000000 0.000000
# 5 0.000000 0.000000 0.000000 0.000000 0.049927 0.000000
# 6 0.000000 0.000000 0.000000 0.000000 0.000000 0.039650
#
#
# Mechanical properties :
#
#
# Convention : Reuss Voigt Hill
#
# Bulk Modulus (GPa) = 68.74410 68.75191 68.74801
# Shear Modulus (GPa) = 25.03533 27.82689 26.43111
#
# Velocity S-wave (km/s) = 3.81221 4.01913 3.91703
# Velocity P-wave (km/s) = 7.69954 7.83888 7.76952
#
# Compressibility (1/GPa) = 0.01454670
#
# Stress axis : x y z
#
# Youngs Moduli (GPa) = 75.71783 75.71783 117.07016
#
# Poissons Ratio (x) = 0.50110 0.20994
# Poissons Ratio (y) = 0.50110 0.20994
# Poissons Ratio (z) = 0.13578 0.13578
#
# Static dielectric constant tensor:
#      x y z
#    x 3.070900 0.000000 0.000000 
#    y 0.000000 3.070900 0.000000 
#    z 0.000000 0.000000 3.237380 
# 
# 
# High freq. dielectric constant tensor:
#      x y z
#    x 1.646910 0.000000 0.000000 
#    y 0.000000 1.646910 0.000000 
#    z 0.000000 0.000000 1.677820 
# 
# From -- ./inp_files/3024.got.cif
#   From: 2010.03.12/outbox.cif.g09.slc.cpg/sg163_2_cif.got.tgz:3024.got - 2010.04.02 06:30:25.
