data_PCOD8323784
_publ_section_title
;
Structure prediction by ZEFSAII (Michael W. Deem and Ramdas Pophale) SiO2 
 PCOD8323784
Probable space group: P -3 M 1
;
_chemical_formula_sum "Si O2"
_cell_formula_units_Z 54
_cell_length_a 22.993932
_cell_length_b 22.993932
_cell_length_c 5.027489
_cell_angle_alpha 90.000000
_cell_angle_beta 90.000000
_cell_angle_gamma 120.000000
_cell_volume 2302.015514
_symmetry_space_group_name_H-M "P -3 M 1"
_symmetry_group_IT_number 164
_symmetry_cell_setting 'hexagonal'
loop_
_space_group_symop_operation_xyz
x,y,z
-y,x-y,z
-x+y,-x,z
x-y,-y,-z
-x,-x+y,-z
y,x,-z
-x,-y,-z
y,-x+y,-z
x-y,x,-z
-x+y,y,z
x,x-y,z
-y,-x,z
loop_
_atom_site_type_symbol
_atom_site_label
_atom_site_fract_x
_atom_site_fract_y
_atom_site_fract_z
Si Si1 0.360699 0.180350 0.552932
Si Si2 0.941355 0.313781 0.691949
Si Si3 0.136873 0.863127 0.941199
Si Si4 0.885456 0.378145 0.041388
Si Si5 0.759540 0.759540 0.000000
Si Si6 0.799303 0.464793 0.537232
O O1 0.400134 0.137235 0.589474
O O2 0.338721 0.169361 0.246588
O O3 0.298350 0.149175 0.754932
O O4 0.938494 0.356305 0.942457
O O5 0.000000 0.368967 0.500000
O O6 0.967965 0.264158 0.773168
O O7 0.057865 0.829358 0.878544
O O8 0.918038 0.459019 0.029725
O O9 0.821733 0.343952 0.843291
O O10 0.862572 0.352024 0.342094
O O11 0.740960 0.481920 0.482896
O O12 0.773393 0.386697 0.467704
#
# Coordination Sequence:
#
# PCOD8323784 Si02
#       6
#     6  12   6  12   6  12
#     4  10  22  36  58  88 116 151 196 242 294 348
#     4  11  23  39  62  86 121 158 202 245 298 355
#     4  10  20  38  60  87 126 152 192 236 290 344
#     4  10  24  40  56  86 121 156 201 250 305 361
#     4  10  22  40  61  93 122 158 198 242 294 344
#     4  10  21  39  61  86 116 154 201 254 310 364
#
# _framework density 23.457704
#
# number of rings (size 3 to 8) (size 9 to 14) (size 15 to 20)
#    0.000    1.778    2.222    0.889    6.222    0.444 
#    0.000    2.778    0.000    0.222    0.000    0.000 
#    0.000    4.000    0.000    0.000    0.000    0.444 
#
# Total GULP energy -669133.612791 kJ/mol
# GULP energy per Si atom -12391.363200 kJ/mol
# Density = 2.340431 g / cm^3
# Si number density = 23.457704 Si / 1000 Ang^3
#
#
#
# Elastic Constant Matrix: (Units=GPa)
#
#
# Indices 1 2 3 4 5 6 
#
# 1 63.5788 39.5492 -8.6543 5.8565 0.0000 0.0000
# 2 39.5492 63.5788 -8.6543 -5.8565 0.0000 0.0000
# 3 -8.6543 -8.6543 56.2180 0.0000 0.0000 0.0000
# 4 5.8565 -5.8565 0.0000 24.6447 0.0000 0.0000
# 5 0.0000 0.0000 0.0000 0.0000 24.6447 5.8565
# 6 0.0000 0.0000 0.0000 0.0000 5.8565 12.0148
#
#
#
# Elastic Compliance Matrix: (Units=1/GPa)
#
#
# Indices 1 2 3 4 5 6 
#
# 1 0.028511 -0.018557 0.001532 -0.011185 0.000000 0.000000
# 2 -0.018557 0.028511 0.001532 0.011185 0.000000 0.000000
# 3 0.001532 0.001532 0.018260 0.000000 0.000000 0.000000
# 4 -0.011185 0.011185 0.000000 0.045892 0.000000 0.000000
# 5 0.000000 0.000000 0.000000 0.000000 0.045892 -0.022370
# 6 0.000000 0.000000 0.000000 0.000000 -0.022370 0.094135
#
#
# Mechanical properties :
#
#
# Convention : Reuss Voigt Hill
#
# Bulk Modulus (GPa) = 22.57509 25.31744 23.94626
# Shear Modulus (GPa) = 16.28930 23.00318 19.64624
#
# Velocity S-wave (km/s) = 2.63803 3.13489 2.89713
# Velocity P-wave (km/s) = 4.35012 4.89077 4.62834
#
# Compressibility (1/GPa) = 0.04429662
#
# Stress axis : x y z
#
# Youngs Moduli (GPa) = 35.07471 35.07471 54.76554
#
# Poissons Ratio (x) = 0.65087 -0.08392
# Poissons Ratio (y) = 0.65087 -0.08392
# Poissons Ratio (z) = -0.05375 -0.05375
#
# Static dielectric constant tensor:
#      x y z
#    x 4.479850 0.000000 0.000000 
#    y 0.000000 4.479850 0.000000 
#    z 0.000000 0.000000 4.083120 
# 
# 
# High freq. dielectric constant tensor:
#      x y z
#    x 1.920530 0.000000 0.000000 
#    y 0.000000 1.920530 0.000000 
#    z 0.000000 0.000000 1.930090 
# 
# From -- ./inp_files/594.got.cif
#   From: 2010.03.12/outbox.cif.g09.slc.cpg/sg164_1_cif.got.tgz:594.got - 2010.04.02 06:32:59.
