data_PCOD8323639
_publ_section_title
;
Structure prediction by ZEFSAII (Michael W. Deem and Ramdas Pophale) SiO2 
 PCOD8323639
Probable space group: P -3 M 1
;
_chemical_formula_sum "Si O2"
_cell_formula_units_Z 66
_cell_length_a 12.805115
_cell_length_b 12.805115
_cell_length_c 27.695442
_cell_angle_alpha 90.000000
_cell_angle_beta 90.000000
_cell_angle_gamma 120.000000
_cell_volume 3932.836561
_symmetry_space_group_name_H-M "P -3 M 1"
_symmetry_group_IT_number 164
_symmetry_cell_setting 'hexagonal'
loop_
_space_group_symop_operation_xyz
x,y,z
-y,x-y,z
-x+y,-x,z
x-y,-y,-z
-x,-x+y,-z
y,x,-z
-x,-y,-z
y,-x+y,-z
x-y,x,-z
-x+y,y,z
x,x-y,z
-y,-x,z
loop_
_atom_site_type_symbol
_atom_site_label
_atom_site_fract_x
_atom_site_fract_y
_atom_site_fract_z
Si Si1 0.906622 0.573486 0.192252
Si Si2 0.244398 0.000000 0.000000
Si Si3 0.573714 0.907185 0.917796
Si Si4 0.000384 0.756151 0.275008
Si Si5 0.240119 0.000037 0.555239
Si Si6 0.909535 0.331748 0.637517
O O1 0.766980 0.533960 0.199243
O O2 0.921468 0.460734 0.207126
O O3 0.948048 0.613620 0.137270
O O4 0.991739 0.686473 0.225638
O O5 0.317474 0.004368 0.047787
O O6 0.228682 0.114341 0.994899
O O7 0.458662 0.917323 0.932126
O O8 0.539012 0.769506 0.925769
O O9 0.108496 0.891505 0.269544
O O10 0.020812 0.686667 0.318484
O O11 0.880007 0.760013 0.286071
O O12 0.201335 0.100668 0.563502
O O13 0.354295 0.027765 0.587919
O O14 0.278444 0.000000 0.500000
O O15 0.127558 0.872443 0.570340
O O16 0.922709 0.461355 0.642194
O O17 0.768970 0.231031 0.637987
#
# Coordination Sequence:
#
# PCOD8323639 Si02
#       6
#    12   6  12  12  12  12
#     4   9  17  30  49  72  96 122 153 190 233 280
#     4  10  20  32  46  66  94 128 162 194 232 280
#     4   9  17  30  49  71  93 119 154 196 238 278
#     4  10  20  33  50  72  97 125 157 194 235 278
#     4   9  17  30  50  75 100 126 157 194 235 278
#     4  10  20  33  49  68  92 124 161 199 238 282
#
# _framework density 16.781779
#
# number of rings (size 3 to 8) (size 9 to 14) (size 15 to 20)
#    0.000    2.545    0.000    2.364    0.000    3.273 
#    0.000    1.818    0.000    6.909    0.000    0.000 
#    0.000    0.000    0.000    0.000    0.000    0.000 
#
# Total GULP energy -818522.207506 kJ/mol
# GULP energy per Si atom -12401.851629 kJ/mol
# Density = 1.674358 g / cm^3
# Si number density = 16.781779 Si / 1000 Ang^3
#
#
#
# Elastic Constant Matrix: (Units=GPa)
#
#
# Indices 1 2 3 4 5 6 
#
# 1 112.3957 68.4925 67.4417 1.1939 0.0000 0.0000
# 2 68.4925 112.3957 67.4417 -1.1939 0.0000 0.0000
# 3 67.4417 67.4417 110.3136 0.0000 0.0000 0.0000
# 4 1.1939 -1.1939 0.0000 26.3084 0.0000 0.0000
# 5 0.0000 0.0000 0.0000 0.0000 26.3084 1.1939
# 6 0.0000 0.0000 0.0000 0.0000 1.1939 21.9516
#
#
#
# Elastic Compliance Matrix: (Units=1/GPa)
#
#
# Indices 1 2 3 4 5 6 
#
# 1 0.016497 -0.006337 -0.006211 -0.001036 0.000000 0.000000
# 2 -0.006337 0.016497 -0.006211 0.001036 0.000000 0.000000
# 3 -0.006211 -0.006211 0.016660 0.000000 0.000000 0.000000
# 4 -0.001036 0.001036 0.000000 0.038105 0.000000 0.000000
# 5 0.000000 0.000000 0.000000 0.000000 0.038105 -0.002072
# 6 0.000000 0.000000 0.000000 0.000000 -0.002072 0.045667
#
#
# Mechanical properties :
#
#
# Convention : Reuss Voigt Hill
#
# Bulk Modulus (GPa) = 82.41200 82.42856 82.42028
# Shear Modulus (GPa) = 23.46374 23.69562 23.57968
#
# Velocity S-wave (km/s) = 3.74326 3.76172 3.75250
# Velocity P-wave (km/s) = 8.23998 8.25178 8.24588
#
# Compressibility (1/GPa) = 0.01213415
#
# Stress axis : x y z
#
# Youngs Moduli (GPa) = 60.61761 60.61761 60.02411
#
# Poissons Ratio (x) = 0.38413 0.37284
# Poissons Ratio (y) = 0.38413 0.37284
# Poissons Ratio (z) = 0.37652 0.37652
#
# Static dielectric constant tensor:
#      x y z
#    x 3.045170 0.000000 0.000000 
#    y 0.000000 3.045170 0.000000 
#    z 0.000000 0.000000 3.362720 
# 
# 
# High freq. dielectric constant tensor:
#      x y z
#    x 1.641350 0.000000 0.000000 
#    y 0.000000 1.641350 0.000000 
#    z 0.000000 0.000000 1.659130 
# 
# From -- ./inp_files/5423.got.cif
#   From: 2010.03.12/outbox.cif.g09.slc.cpg/sg164_3_cif.got.tgz:5423.got - 2010.04.02 06:32:59.
