data_PCOD8323306
_publ_section_title
;
Structure prediction by ZEFSAII (Michael W. Deem and Ramdas Pophale) SiO2 
 PCOD8323306
Probable space group: P -3 1 C
;
_chemical_formula_sum "Si O2"
_cell_formula_units_Z 60
_cell_length_a 16.996755
_cell_length_b 16.996755
_cell_length_c 11.018421
_cell_angle_alpha 90.000000
_cell_angle_beta 90.000000
_cell_angle_gamma 120.000000
_cell_volume 2756.652497
_symmetry_space_group_name_H-M "P -3 1 C"
_symmetry_group_IT_number 163
_symmetry_cell_setting 'hexagonal'
loop_
_space_group_symop_operation_xyz
x,y,z
-y,x-y,z
-x+y,-x,z
-y,-x,1/2-z
-x+y,y,1/2-z
x,x-y,1/2-z
-x,-y,-z
y,-x+y,-z
x-y,x,-z
y,x,1/2+z
x-y,-y,1/2+z
-x,-x+y,1/2+z
loop_
_atom_site_type_symbol
_atom_site_label
_atom_site_fract_x
_atom_site_fract_y
_atom_site_fract_z
Si Si1 0.762278 0.147083 0.009841
Si Si2 0.702355 0.549041 0.833821
Si Si3 0.948566 0.726615 0.801349
Si Si4 0.607697 0.392303 0.250000
Si Si5 0.302009 0.151005 0.250000
Si Si6 0.893013 0.436180 0.498539
O O1 0.836688 0.244187 0.958532
O O2 0.774337 0.068717 0.944657
O O3 0.777894 0.146163 0.151545
O O4 0.664849 0.131788 0.974703
O O5 0.756689 0.513377 0.750000
O O6 0.700473 0.633183 0.765151
O O7 0.607404 0.466271 0.881243
O O8 0.877377 0.754754 0.750000
O O9 0.049060 0.811440 0.795164
O O10 0.563778 0.281889 0.250000
O O11 0.564847 0.411847 0.369456
O O12 0.000000 0.500000 0.500000
#
# Coordination Sequence:
#
# PCOD8323306 Si02
#       6
#    12  12  12   6   6  12
#     4  10  25  41  66  98 132 176 230 275 349 411
#     4   9  22  46  65  93 141 177 229 287 345 413
#     4   9  23  45  65  99 134 171 229 281 336 428
#     4  10  26  47  64  94 150 184 230 284 367 430
#     4  12  24  39  76  94 138 188 208 280 367 408
#     4  12  25  40  69 103 135 178 241 295 338 416
#
# _framework density 21.765529999999998
#
# number of rings (size 3 to 8) (size 9 to 14) (size 15 to 20)
#    0.200    2.000    0.000    2.400   12.600    6.400 
#    1.800    0.000    0.000    1.200    0.000    0.000 
#    0.000    0.000    0.000    0.000    0.000    0.000 
#
# Total GULP energy -743387.662428 kJ/mol
# GULP energy per Si atom -12389.794374 kJ/mol
# Density = 2.171599 g / cm^3
# Si number density = 21.765530 Si / 1000 Ang^3
#
#
#
# Elastic Constant Matrix: (Units=GPa)
#
#
# Indices 1 2 3 4 5 6 
#
# 1 110.1762 63.0898 49.9407 0.0000 5.4146 0.0000
# 2 63.0898 110.1762 49.9407 0.0000 -5.4146 0.0000
# 3 49.9407 49.9407 120.0023 0.0000 0.0000 0.0000
# 4 0.0000 0.0000 0.0000 32.7804 0.0000 -5.4146
# 5 5.4146 -5.4146 0.0000 0.0000 32.7804 0.0000
# 6 0.0000 0.0000 0.0000 -5.4146 0.0000 23.5432
#
#
#
# Elastic Compliance Matrix: (Units=1/GPa)
#
#
# Indices 1 2 3 4 5 6 
#
# 1 0.014835 -0.007242 -0.003160 0.000000 -0.003647 0.000000
# 2 -0.007242 0.014835 -0.003160 0.000000 0.003647 0.000000
# 3 -0.003160 -0.003160 0.010963 0.000000 0.000000 0.000000
# 4 0.000000 0.000000 0.000000 0.031711 0.000000 0.007293
# 5 -0.003647 0.003647 0.000000 0.000000 0.031711 0.000000
# 6 0.000000 0.000000 0.000000 0.007293 0.000000 0.044152
#
#
# Mechanical properties :
#
#
# Convention : Reuss Voigt Hill
#
# Bulk Modulus (GPa) = 74.02150 74.03300 74.02725
# Shear Modulus (GPa) = 27.80364 29.64637 28.72500
#
# Velocity S-wave (km/s) = 3.57797 3.69464 3.63677
# Velocity P-wave (km/s) = 7.15204 7.23106 7.19165
#
# Compressibility (1/GPa) = 0.01350959
#
# Stress axis : x y z
#
# Youngs Moduli (GPa) = 67.40979 67.40979 91.21341
#
# Poissons Ratio (x) = 0.48815 0.28823
# Poissons Ratio (y) = 0.48815 0.28823
# Poissons Ratio (z) = 0.21301 0.21301
#
# Static dielectric constant tensor:
#      x y z
#    x 3.793950 0.000000 0.000000 
#    y 0.000000 3.793950 0.000000 
#    z 0.000000 0.000000 4.230070 
# 
# 
# High freq. dielectric constant tensor:
#      x y z
#    x 1.842390 0.000000 0.000000 
#    y 0.000000 1.842390 0.000000 
#    z 0.000000 0.000000 1.874640 
# 
# From -- ./inp_files/1785.got.cif
#   From: 2010.03.12/outbox.cif.g09.slc.cpg/sg163_1_cif.got.tgz:1785.got - 2010.04.02 06:30:25.
