data_PCOD8323754
_publ_section_title
;
Structure prediction by ZEFSAII (Michael W. Deem and Ramdas Pophale) SiO2 
 PCOD8323754
Probable space group: P -3 M 1
;
_chemical_formula_sum "Si O2"
_cell_formula_units_Z 66
_cell_length_a 12.395812
_cell_length_b 12.395812
_cell_length_c 28.174097
_cell_angle_alpha 90.000000
_cell_angle_beta 90.000000
_cell_angle_gamma 120.000000
_cell_volume 3749.130857
_symmetry_space_group_name_H-M "P -3 M 1"
_symmetry_group_IT_number 164
_symmetry_cell_setting 'hexagonal'
loop_
_space_group_symop_operation_xyz
x,y,z
-y,x-y,z
-x+y,-x,z
x-y,-y,-z
-x,-x+y,-z
y,x,-z
-x,-y,-z
y,-x+y,-z
x-y,x,-z
-x+y,y,z
x,x-y,z
-y,-x,z
loop_
_atom_site_type_symbol
_atom_site_label
_atom_site_fract_x
_atom_site_fract_y
_atom_site_fract_z
Si Si1 0.000268 0.749254 0.362382
Si Si2 0.667674 0.081210 0.090284
Si Si3 0.252246 0.001203 0.181471
Si Si4 0.000000 0.746457 0.000000
Si Si5 0.668302 0.083018 0.271644
Si Si6 0.082126 0.415758 0.453835
O O1 0.124593 0.875408 0.348901
O O2 0.013318 0.691983 0.411220
O O3 0.890172 0.780344 0.367318
O O4 0.972617 0.648783 0.321814
O O5 0.539136 0.078272 0.088499
O O6 0.776666 0.223335 0.087229
O O7 0.674079 0.018089 0.138791
O O8 0.673172 0.002113 0.046400
O O9 0.213316 0.106658 0.180263
O O10 0.318331 0.003867 0.230574
O O11 0.130099 0.869902 0.175818
O O12 0.881809 0.763619 0.997130
O O13 0.534910 0.069820 0.266261
O O14 0.772222 0.227778 0.267234
O O15 0.218968 0.437935 0.463051
O O16 0.094198 0.547099 0.441150
O O17 0.000000 0.354784 0.500000
#
# Coordination Sequence:
#
# PCOD8323754 Si02
#       6
#    12  12  12   6  12  12
#     4  10  20  34  53  76 102 132 166 206 251 299
#     4  10  20  34  53  76 103 135 170 208 250 298
#     4  10  20  34  54  78 104 134 168 209 254 300
#     4  10  20  34  54  78 104 134 168 210 256 302
#     4  10  20  34  53  76 102 132 166 205 248 295
#     4  10  20  34  52  74 101 133 169 208 251 299
#
# _framework density 17.604078999999999
#
# number of rings (size 3 to 8) (size 9 to 14) (size 15 to 20)
#    0.000    2.000    0.000    4.000    0.000    0.000 
#    0.000    5.455    0.000   21.091    0.000    0.000 
#    0.000    0.000    0.000    0.000    0.000    0.000 
#
# Total GULP energy -818692.796716 kJ/mol
# GULP energy per Si atom -12404.436314 kJ/mol
# Density = 1.756401 g / cm^3
# Si number density = 17.604079 Si / 1000 Ang^3
#
#
#
# Elastic Constant Matrix: (Units=GPa)
#
#
# Indices 1 2 3 4 5 6 
#
# 1 76.6657 41.2504 24.7353 1.3841 0.0000 0.0000
# 2 41.2504 76.6657 24.7353 -1.3841 0.0000 0.0000
# 3 24.7353 24.7353 78.1087 0.0000 0.0000 0.0000
# 4 1.3841 -1.3841 0.0000 16.3669 0.0000 0.0000
# 5 0.0000 0.0000 0.0000 0.0000 16.3669 1.3841
# 6 0.0000 0.0000 0.0000 0.0000 1.3841 17.7077
#
#
#
# Elastic Compliance Matrix: (Units=1/GPa)
#
#
# Indices 1 2 3 4 5 6 
#
# 1 0.019102 -0.009322 -0.003097 -0.002404 0.000000 0.000000
# 2 -0.009322 0.019102 -0.003097 0.002404 0.000000 0.000000
# 3 -0.003097 -0.003097 0.014764 0.000000 0.000000 0.000000
# 4 -0.002404 0.002404 0.000000 0.061505 0.000000 0.000000
# 5 0.000000 0.000000 0.000000 0.000000 0.061505 -0.004807
# 6 0.000000 0.000000 0.000000 0.000000 -0.004807 0.056848
#
#
# Mechanical properties :
#
#
# Convention : Reuss Voigt Hill
#
# Bulk Modulus (GPa) = 45.58765 45.87580 45.73172
# Shear Modulus (GPa) = 18.43846 19.46957 18.95402
#
# Velocity S-wave (km/s) = 3.23986 3.32922 3.28485
# Velocity P-wave (km/s) = 6.32044 6.39489 6.35777
#
# Compressibility (1/GPa) = 0.02193577
#
# Stress axis : x y z
#
# Youngs Moduli (GPa) = 52.35029 52.35029 67.73120
#
# Poissons Ratio (x) = 0.48802 0.20977
# Poissons Ratio (y) = 0.48802 0.20977
# Poissons Ratio (z) = 0.16213 0.16213
#
# Static dielectric constant tensor:
#      x y z
#    x 3.227750 0.000000 0.000000 
#    y 0.000000 3.227750 0.000000 
#    z 0.000000 0.000000 3.208930 
# 
# 
# High freq. dielectric constant tensor:
#      x y z
#    x 1.684490 0.000000 0.000000 
#    y 0.000000 1.684490 0.000000 
#    z 0.000000 0.000000 1.700320 
# 
# From -- ./inp_files/5418.got.cif
#   From: 2010.03.12/outbox.cif.g09.slc.cpg/sg164_3_cif.got.tgz:5418.got - 2010.04.02 06:32:59.
