data_PCOD8323461
_publ_section_title
;
Structure prediction by ZEFSAII (Michael W. Deem and Ramdas Pophale) SiO2 
 PCOD8323461
Probable space group: P -3 M 1
;
_chemical_formula_sum "Si O2"
_cell_formula_units_Z 66
_cell_length_a 17.619662
_cell_length_b 17.619662
_cell_length_c 13.321118
_cell_angle_alpha 90.000000
_cell_angle_beta 90.000000
_cell_angle_gamma 120.000000
_cell_volume 3581.512350
_symmetry_space_group_name_H-M "P -3 M 1"
_symmetry_group_IT_number 164
_symmetry_cell_setting 'hexagonal'
loop_
_space_group_symop_operation_xyz
x,y,z
-y,x-y,z
-x+y,-x,z
x-y,-y,-z
-x,-x+y,-z
y,x,-z
-x,-y,-z
y,-x+y,-z
x-y,x,-z
-x+y,y,z
x,x-y,z
-y,-x,z
loop_
_atom_site_type_symbol
_atom_site_label
_atom_site_fract_x
_atom_site_fract_y
_atom_site_fract_z
Si Si1 0.487430 0.153803 0.390849
Si Si2 0.467333 0.101855 0.012151
Si Si3 0.269392 0.369542 0.795224
Si Si4 0.665425 0.000000 0.500000
Si Si5 0.668716 0.502323 0.796301
Si Si6 0.245933 0.928153 0.298765
O O1 0.585469 0.170937 0.393707
O O2 0.490356 0.245178 0.411426
O O3 0.443714 0.111910 0.284011
O O4 0.428790 0.083486 0.475130
O O5 0.571067 0.142134 0.038779
O O6 0.414885 0.120974 0.096500
O O7 0.457356 0.141516 0.907870
O O8 0.426666 0.000000 0.000000
O O9 0.168642 0.337283 0.772924
O O10 0.277162 0.281956 0.785624
O O11 0.707207 0.972784 0.408378
O O12 0.728934 0.457868 0.784581
O O13 0.567881 0.432120 0.776477
O O14 0.697348 0.577562 0.713739
O O15 0.141997 0.858004 0.284974
#
# Coordination Sequence:
#
# PCOD8323461 Si02
#       6
#    12  12  12   6  12  12
#     4  10  20  33  50  73 102 135 172 214 260 306
#     4  10  18  30  50  77 109 145 180 213 246 287
#     4  10  20  34  53  78 105 135 173 214 256 307
#     4  10  21  36  54  74  97 132 176 220 259 314
#     4  10  20  33  51  76 109 146 183 218 254 297
#     4  10  21  37  56  77 102 132 169 215 269 321
#
# _framework density 18.427969999999998
#
# number of rings (size 3 to 8) (size 9 to 14) (size 15 to 20)
#    0.000    2.000    1.818    2.273    0.000    4.364 
#    0.000    0.000    0.000    8.364    0.000    0.636 
#    0.000    0.727    0.000    0.000    0.000    0.000 
#
# Total GULP energy -818184.366299 kJ/mol
# GULP energy per Si atom -12396.732823 kJ/mol
# Density = 1.838603 g / cm^3
# Si number density = 18.427970 Si / 1000 Ang^3
#
#
#
# Elastic Constant Matrix: (Units=GPa)
#
#
# Indices 1 2 3 4 5 6 
#
# 1 86.1608 40.0619 12.2383 -1.6268 0.0000 0.0000
# 2 40.0619 86.1608 12.2383 1.6268 0.0000 0.0000
# 3 12.2383 12.2383 59.3353 0.0000 0.0000 0.0000
# 4 -1.6268 1.6268 0.0000 23.3573 0.0000 0.0000
# 5 0.0000 0.0000 0.0000 0.0000 23.3573 -1.6268
# 6 0.0000 0.0000 0.0000 0.0000 -1.6268 23.0494
#
#
#
# Elastic Compliance Matrix: (Units=1/GPa)
#
#
# Indices 1 2 3 4 5 6 
#
# 1 0.015026 -0.006774 -0.001702 0.001518 0.000000 0.000000
# 2 -0.006774 0.015026 -0.001702 -0.001518 0.000000 0.000000
# 3 -0.001702 -0.001702 0.017556 0.000000 0.000000 0.000000
# 4 0.001518 -0.001518 0.000000 0.043025 0.000000 0.000000
# 5 0.000000 0.000000 0.000000 0.000000 0.043025 0.003037
# 6 0.000000 0.000000 0.000000 0.000000 0.003037 0.043599
#
#
# Mechanical properties :
#
#
# Convention : Reuss Voigt Hill
#
# Bulk Modulus (GPa) = 36.69442 40.08154 38.38798
# Shear Modulus (GPa) = 24.19009 25.09403 24.64206
#
# Velocity S-wave (km/s) = 3.62703 3.69417 3.66076
# Velocity P-wave (km/s) = 6.12340 6.32404 6.22453
#
# Compressibility (1/GPa) = 0.02725210
#
# Stress axis : x y z
#
# Youngs Moduli (GPa) = 66.55078 66.55078 56.96212
#
# Poissons Ratio (x) = 0.45078 0.09696
# Poissons Ratio (y) = 0.45078 0.09696
# Poissons Ratio (z) = 0.11328 0.11328
#
# Static dielectric constant tensor:
#      x y z
#    x 3.315660 0.000000 0.000000 
#    y 0.000000 3.315660 0.000000 
#    z 0.000000 0.000000 3.690870 
# 
# 
# High freq. dielectric constant tensor:
#      x y z
#    x 1.702350 0.000000 0.000000 
#    y 0.000000 1.702350 0.000000 
#    z 0.000000 0.000000 1.716500 
# 
# From -- ./inp_files/3457.got.cif
#   From: 2010.03.12/outbox.cif.g09.slc.cpg/sg164_2_cif.got.tgz:3457.got - 2010.04.02 06:32:59.
