data_PCOD8323975
_publ_section_title
;
Structure prediction by ZEFSAII (Michael W. Deem and Ramdas Pophale) SiO2 
 PCOD8323975
Probable space group: P -3 C 1
;
_chemical_formula_sum "Si O2"
_cell_formula_units_Z 72
_cell_length_a 17.083808
_cell_length_b 17.083808
_cell_length_c 17.208733
_cell_angle_alpha 90.000000
_cell_angle_beta 90.000000
_cell_angle_gamma 120.000000
_cell_volume 4349.595712
_symmetry_space_group_name_H-M "P -3 C 1"
_symmetry_group_IT_number 165
_symmetry_cell_setting 'hexagonal'
loop_
_space_group_symop_operation_xyz
x,y,z
-y,x-y,z
-x+y,-x,z
x-y,-y,1/2-z
-x,-x+y,1/2-z
y,x,1/2-z
-x,-y,-z
y,-x+y,-z
x-y,x,-z
-x+y,y,1/2+z
x,x-y,1/2+z
-y,-x,1/2+z
loop_
_atom_site_type_symbol
_atom_site_label
_atom_site_fract_x
_atom_site_fract_y
_atom_site_fract_z
Si Si1 0.312981 0.211254 0.930548
Si Si2 0.788746 0.101727 0.569452
Si Si3 0.159689 0.491599 0.984266
Si Si4 0.895314 0.271230 0.838062
Si Si5 0.895314 0.271230 0.661938
Si Si6 0.491599 0.331910 0.484266
O O1 0.239372 0.239372 0.908390
O O2 0.405449 0.299437 0.959106
O O3 0.329394 0.165223 0.855468
O O4 0.276101 0.138050 1.000000
O O5 0.834778 0.164171 0.644532
O O6 0.700563 0.106013 0.540893
O O7 0.129658 0.564829 1.000000
O O8 0.266705 0.533410 0.000000
O O9 0.134975 0.461156 0.894785
O O10 0.877565 0.289742 0.750000
O O11 0.865025 0.326181 0.894785
O O12 1.000000 0.302360 0.851777
#
# Coordination Sequence:
#
# PCOD8323975 Si02
#       6
#    12  12  12  12  12  12
#     4   9  17  29  47  69  91 118 153 189 226 271
#     4   9  17  29  47  69  91 118 153 189 226 271
#     4   9  17  30  48  68  91 121 154 184 219 265
#     4   9  18  32  48  66  90 120 152 187 229 274
#     4   9  18  32  48  66  90 120 152 187 229 274
#     4   9  17  30  48  68  91 121 154 184 219 265
#
# _framework density 16.553263000000001
#
# number of rings (size 3 to 8) (size 9 to 14) (size 15 to 20)
#    0.000    3.667    0.000    4.333    0.000    3.333 
#    0.000    6.667    0.000    6.000    0.000    0.000 
#    0.000    0.000    0.000    0.000    0.000    0.000 
#
# Total GULP energy -892318.606203 kJ/mol
# GULP energy per Si atom -12393.313975 kJ/mol
# Density = 1.651559 g / cm^3
# Si number density = 16.553263 Si / 1000 Ang^3
#
#
#
# Elastic Constant Matrix: (Units=GPa)
#
#
# Indices 1 2 3 4 5 6 
#
# 1 85.9032 63.5249 50.3882 0.0000 0.0000 0.0000
# 2 63.5249 85.9032 50.3882 0.0000 0.0000 0.0000
# 3 50.3882 50.3882 117.1124 0.0000 0.0000 0.0000
# 4 0.0000 0.0000 0.0000 15.8894 0.0000 0.0000
# 5 0.0000 0.0000 0.0000 0.0000 15.8894 0.0000
# 6 0.0000 0.0000 0.0000 0.0000 0.0000 11.1892
#
#
#
# Elastic Compliance Matrix: (Units=1/GPa)
#
#
# Indices 1 2 3 4 5 6 
#
# 1 0.027057 -0.017629 -0.004056 0.000000 0.000000 0.000000
# 2 -0.017629 0.027057 -0.004056 0.000000 0.000000 0.000000
# 3 -0.004056 -0.004056 0.012029 0.000000 0.000000 0.000000
# 4 0.000000 0.000000 0.000000 0.062935 0.000000 0.000000
# 5 0.000000 0.000000 0.000000 0.000000 0.062935 0.000000
# 6 0.000000 0.000000 0.000000 0.000000 0.000000 0.089372
#
#
# Mechanical properties :
#
#
# Convention : Reuss Voigt Hill
#
# Bulk Modulus (GPa) = 68.21490 68.61348 68.41419
# Shear Modulus (GPa) = 14.80359 16.90142 15.85250
#
# Velocity S-wave (km/s) = 2.99373 3.19883 3.09798
# Velocity P-wave (km/s) = 7.29717 7.42856 7.36316
#
# Compressibility (1/GPa) = 0.01465955
#
# Stress axis : x y z
#
# Youngs Moduli (GPa) = 36.95907 36.95907 83.12992
#
# Poissons Ratio (x) = 0.65155 0.33721
# Poissons Ratio (y) = 0.65155 0.33721
# Poissons Ratio (z) = 0.14992 0.14992
#
# Static dielectric constant tensor:
#      x y z
#    x 2.984370 0.000000 0.000000 
#    y 0.000000 2.984370 0.000000 
#    z 0.000000 0.000000 3.044840 
# 
# 
# High freq. dielectric constant tensor:
#      x y z
#    x 1.626880 0.000000 0.000000 
#    y 0.000000 1.626880 0.000000 
#    z 0.000000 0.000000 1.626170 
# 
# From -- ./inp_files/2321.got.cif
#   From: 2010.03.12/outbox.cif.g09.slc.cpg/sg165_2_cif.got.tgz:2321.got - 2010.04.02 06:36:38.
