data_PCOD8323122
_publ_section_title
;
Structure prediction by ZEFSAII (Michael W. Deem and Ramdas Pophale) SiO2 
 PCOD8323122
Probable space group: P -3 1 M 
;
_chemical_formula_sum "Si O2"
_cell_formula_units_Z 72
_cell_length_a 21.912229
_cell_length_b 21.912229
_cell_length_c 10.169070
_cell_angle_alpha 90.000000
_cell_angle_beta 90.000000
_cell_angle_gamma 120.000000
_cell_volume 4228.486852
_symmetry_space_group_name_H-M "P -3 1 M "
_symmetry_group_IT_number 162
_symmetry_cell_setting 'hexagonal'
loop_
_space_group_symop_operation_xyz
x,y,z
-y,x-y,z
-x+y,-x,z
-y,-x,-z
-x+y,y,-z
x,x-y,-z
-x,-y,-z
y,-x+y,-z
x-y,x,-z
y,x,z
x-y,-y,z
-x,-x+y,z
loop_
_atom_site_type_symbol
_atom_site_label
_atom_site_fract_x
_atom_site_fract_y
_atom_site_fract_z
Si Si1 0.813531 0.082880 0.400670
Si Si2 0.544557 0.915912 0.750000
Si Si3 0.595802 0.679514 0.977441
Si Si4 0.491115 0.084065 0.749998
Si Si5 0.679516 0.595804 0.522557
Si Si6 0.730650 0.917120 0.099329
O O1 0.879178 0.120823 0.500000
O O2 0.758890 0.109875 0.432366
O O3 0.839395 0.102252 0.250000
O O4 0.778418 0.000000 0.424865
O O5 0.460677 0.885984 0.749997
O O6 0.566187 0.887336 0.622670
O O7 0.584651 0.000000 0.750001
O O8 0.566184 0.887335 0.877332
O O9 0.636340 0.636340 0.975281
O O10 0.529869 0.642523 0.878321
O O11 0.649013 0.758888 0.932364
O O12 0.470129 0.112654 0.621678
O O13 0.450011 0.000000 0.749997
O O14 0.636342 0.636342 0.524721
O O15 0.778417 0.000000 0.075133
O O16 0.758352 0.879176 0.000000
#
# Coordination Sequence:
#
# PCOD8323122 Si02
#       6
#    12  12  12  12  12  12
#     4  10  21  36  53  73  97 127 164 208 260 319
#     4   9  16  22  37  64  91 126 164 185 208 254
#     4   9  16  27  41  62  93 126 160 194 229 276
#     4   9  14  24  39  58  91 130 160 185 212 250
#     4   9  16  27  41  62  93 126 160 194 229 276
#     4  10  21  36  53  73  97 127 164 208 260 319
#
# _framework density 17.027367999999999
#
# number of rings (size 3 to 8) (size 9 to 14) (size 15 to 20)
#    0.000    2.667    1.667    1.000    2.333    4.667 
#    0.000    0.000    0.000    0.333    0.000    0.000 
#    0.000    0.000    0.000   20.000    0.000   13.333 
#
# Total GULP energy -892591.688084 kJ/mol
# GULP energy per Si atom -12397.106779 kJ/mol
# Density = 1.698861 g / cm^3
# Si number density = 17.027368 Si / 1000 Ang^3
#
#
#
# Elastic Constant Matrix: (Units=GPa)
#
#
# Indices 1 2 3 4 5 6 
#
# 1 47.0279 25.3808 42.8133 -0.0001 -0.0001 0.0000
# 2 25.3808 47.0279 42.8133 0.0001 0.0001 0.0000
# 3 42.8133 42.8133 165.1175 0.0000 0.0000 0.0000
# 4 -0.0001 0.0001 0.0000 26.2246 0.0000 0.0001
# 5 -0.0001 0.0001 0.0000 0.0000 26.2246 -0.0001
# 6 0.0000 0.0000 0.0000 0.0001 -0.0001 10.8236
#
#
#
# Elastic Compliance Matrix: (Units=1/GPa)
#
#
# Indices 1 2 3 4 5 6 
#
# 1 0.033057 -0.013139 -0.005164 0.000000 0.000000 0.000000
# 2 -0.013139 0.033057 -0.005164 0.000000 0.000000 0.000000
# 3 -0.005164 -0.005164 0.008734 0.000000 0.000000 0.000000
# 4 0.000000 0.000000 0.000000 0.038132 0.000000 0.000000
# 5 0.000000 0.000000 0.000000 0.000000 0.038132 0.000000
# 6 0.000000 0.000000 0.000000 0.000000 0.000000 0.092391
#
#
# Mechanical properties :
#
#
# Convention : Reuss Voigt Hill
#
# Bulk Modulus (GPa) = 35.82682 53.46535 44.64608
# Shear Modulus (GPa) = 16.68098 22.53229 19.60664
#
# Velocity S-wave (km/s) = 3.13334 3.64166 3.39702
# Velocity P-wave (km/s) = 5.84610 7.01071 6.45473
#
# Compressibility (1/GPa) = 0.02791205
#
# Stress axis : x y z
#
# Youngs Moduli (GPa) = 30.25112 30.25112 114.48880
#
# Poissons Ratio (x) = 0.39747 0.59127
# Poissons Ratio (y) = 0.39747 0.59127
# Poissons Ratio (z) = 0.15623 0.15623
#
# Static dielectric constant tensor:
#      x y z
#    x 2.856820 0.000000 0.000000 
#    y 0.000000 2.856820 0.000000 
#    z 0.000000 0.000000 3.499420 
# 
# 
# High freq. dielectric constant tensor:
#      x y z
#    x 1.613490 0.000000 0.000000 
#    y 0.000000 1.613490 0.000000 
#    z 0.000000 0.000000 1.681100 
# 
# From -- ./inp_files/1707.got.cif
#   From: 2010.03.12/outbox.cif.g09.slc.cpg/sg162_1_cif.got.tgz:1707.got - 2010.04.02 06:27:41.
