data_PCOD8323504
_publ_section_title
;
Structure prediction by ZEFSAII (Michael W. Deem and Ramdas Pophale) SiO2 
 PCOD8323504
Probable space group: P -3 M 1
;
_chemical_formula_sum "Si O2"
_cell_formula_units_Z 60
_cell_length_a 16.788823
_cell_length_b 16.788823
_cell_length_c 15.426801
_cell_angle_alpha 90.000000
_cell_angle_beta 90.000000
_cell_angle_gamma 120.000000
_cell_volume 3765.711200
_symmetry_space_group_name_H-M "P -3 M 1"
_symmetry_group_IT_number 164
_symmetry_cell_setting 'hexagonal'
loop_
_space_group_symop_operation_xyz
x,y,z
-y,x-y,z
-x+y,-x,z
x-y,-y,-z
-x,-x+y,-z
y,x,-z
-x,-y,-z
y,-x+y,-z
x-y,x,-z
-x+y,y,z
x,x-y,z
-y,-x,z
loop_
_atom_site_type_symbol
_atom_site_label
_atom_site_fract_x
_atom_site_fract_y
_atom_site_fract_z
Si Si1 0.333956 0.480583 0.542452
Si Si2 0.276257 0.907624 0.194016
Si Si3 0.485653 0.153078 0.972373
Si Si4 0.387776 0.428001 0.367617
Si Si5 0.697391 0.939151 0.923416
O O1 0.235452 0.470904 0.562247
O O2 0.413152 0.586849 0.552315
O O3 0.335834 0.444926 0.446491
O O4 0.352026 0.416992 0.609197
O O5 0.169728 0.830273 0.197973
O O6 0.329775 0.879171 0.125306
O O7 0.319016 0.922208 0.288117
O O8 0.283910 0.002635 0.163702
O O9 0.566240 0.132479 0.994715
O O10 0.522925 0.261463 0.980628
O O11 0.405879 0.097811 0.042027
O O12 0.478243 0.521758 0.342500
O O13 0.716128 0.858064 0.899231
O O14 0.766842 0.000000 0.000000
#
# Coordination Sequence:
#
# PCOD8323504 Si02
#       5
#    12  12  12  12  12
#     4   9  17  30  47  67  91 119 150 181 214 253
#     4  10  19  30  46  66  87 113 145 181 221 264
#     4   9  17  28  43  64  90 120 151 181 213 251
#     4   9  18  30  45  67  93 119 147 179 215 257
#     4   9  18  31  46  64  86 114 147 183 223 264
#
# _framework density 15.933244999999999
#
# number of rings (size 3 to 8) (size 9 to 14) (size 15 to 20)
#    0.000    2.800    0.000    4.600    0.000    5.200 
#    0.000    0.000    0.000   10.000    0.000    7.000 
#    0.000    0.000    0.000   10.200    0.000    0.000 
#
# Total GULP energy -743853.958286 kJ/mol
# GULP energy per Si atom -12397.565971 kJ/mol
# Density = 1.589698 g / cm^3
# Si number density = 15.933245 Si / 1000 Ang^3
#
#
#
# Elastic Constant Matrix: (Units=GPa)
#
#
# Indices 1 2 3 4 5 6 
#
# 1 92.2431 59.6175 31.8485 2.9896 0.0000 0.0000
# 2 59.6175 92.2431 31.8485 -2.9896 0.0000 0.0000
# 3 31.8485 31.8485 67.5925 0.0000 0.0000 0.0000
# 4 2.9896 -2.9896 0.0000 21.2286 0.0000 0.0000
# 5 0.0000 0.0000 0.0000 0.0000 21.2286 2.9896
# 6 0.0000 0.0000 0.0000 0.0000 2.9896 16.3128
#
#
#
# Elastic Compliance Matrix: (Units=1/GPa)
#
#
# Indices 1 2 3 4 5 6 
#
# 1 0.019835 -0.011628 -0.003867 -0.004431 0.000000 0.000000
# 2 -0.011628 0.019835 -0.003867 0.004431 0.000000 0.000000
# 3 -0.003867 -0.003867 0.018439 0.000000 0.000000 0.000000
# 4 -0.004431 0.004431 0.000000 0.048354 0.000000 0.000000
# 5 0.000000 0.000000 0.000000 0.000000 0.048354 -0.008862
# 6 0.000000 0.000000 0.000000 0.000000 -0.008862 0.062926
#
#
# Mechanical properties :
#
#
# Convention : Reuss Voigt Hill
#
# Bulk Modulus (GPa) = 51.58727 55.41200 53.49963
# Shear Modulus (GPa) = 19.01658 20.33826 19.67742
#
# Velocity S-wave (km/s) = 3.45848 3.57664 3.51806
# Velocity P-wave (km/s) = 6.95669 7.20483 7.08185
#
# Compressibility (1/GPa) = 0.01938463
#
# Stress axis : x y z
#
# Youngs Moduli (GPa) = 50.41610 50.41610 54.23384
#
# Poissons Ratio (x) = 0.58624 0.20972
# Poissons Ratio (y) = 0.58624 0.20972
# Poissons Ratio (z) = 0.19496 0.19496
#
# Static dielectric constant tensor:
#      x y z
#    x 2.988370 0.000000 0.000000 
#    y 0.000000 2.988370 0.000000 
#    z 0.000000 0.000000 2.877250 
# 
# 
# High freq. dielectric constant tensor:
#      x y z
#    x 1.607860 0.000000 0.000000 
#    y 0.000000 1.607860 0.000000 
#    z 0.000000 0.000000 1.601230 
# 
# From -- ./inp_files/3389.got.cif
#   From: 2010.03.12/outbox.cif.g09.slc.cpg/sg164_2_cif.got.tgz:3389.got - 2010.04.02 06:32:59.
