data_PCOD8323539
_publ_section_title
;
Structure prediction by ZEFSAII (Michael W. Deem and Ramdas Pophale) SiO2 
 PCOD8323539
Probable space group: P -3 M 1
;
_chemical_formula_sum "Si O2"
_cell_formula_units_Z 96
_cell_length_a 16.937865
_cell_length_b 16.937865
_cell_length_c 21.702219
_cell_angle_alpha 90.000000
_cell_angle_beta 90.000000
_cell_angle_gamma 120.000000
_cell_volume 5392.027613
_symmetry_space_group_name_H-M "P -3 M 1"
_symmetry_group_IT_number 164
_symmetry_cell_setting 'hexagonal'
loop_
_space_group_symop_operation_xyz
x,y,z
-y,x-y,z
-x+y,-x,z
x-y,-y,-z
-x,-x+y,-z
y,x,-z
-x,-y,-z
y,-x+y,-z
x-y,x,-z
-x+y,y,z
x,x-y,z
-y,-x,z
loop_
_atom_site_type_symbol
_atom_site_label
_atom_site_fract_x
_atom_site_fract_y
_atom_site_fract_z
Si Si1 0.481707 0.332098 0.237262
Si Si2 0.513041 0.667562 0.972858
Si Si3 0.612824 0.569592 0.360111
Si Si4 0.846909 0.514281 0.598261
Si Si5 0.180917 0.180594 0.070397
Si Si6 0.846595 0.332353 0.883645
Si Si7 0.274729 0.902410 0.520253
Si Si8 0.672818 0.638302 0.127850
O O1 0.504042 0.252021 0.250514
O O2 0.575465 0.424535 0.223249
O O3 0.428697 0.343259 0.294757
O O4 0.414689 0.304799 0.179396
O O5 0.525137 0.762569 0.948276
O O6 0.409110 0.590891 0.961951
O O7 0.579779 0.644168 0.935054
O O8 0.538303 0.675370 0.044355
O O9 0.529576 0.470425 0.375948
O O10 0.577503 0.642568 0.359436
O O11 0.688415 0.592599 0.411776
O O12 0.763411 0.526821 0.621476
O O13 0.817584 0.408792 0.603713
O O14 0.871550 0.543937 0.527115
O O15 0.148761 0.074381 0.077589
O O16 0.263808 0.239065 0.116331
O O17 0.097766 0.195532 0.089198
O O18 0.211912 0.211912 0.000000
O O19 0.826873 0.413437 0.868836
O O20 0.760527 0.239473 0.859286
O O21 0.938151 0.349676 0.849540
O O22 0.167005 0.832996 0.519099
O O23 0.289051 0.000000 0.500000
#
# Coordination Sequence:
#
# PCOD8323539 Si02
#       8
#    12  12  12  12  12  12  12  12
#     4  11  23  38  54  71  95 128 166 206 245 286
#     4  10  19  31  48  70  96 124 154 191 237 290
#     4   9  18  32  49  69  96 131 169 206 240 278
#     4   9  16  27  46  74 106 135 162 195 239 290
#     4  10  20  35  55  78 102 126 154 193 245 303
#     4  10  20  34  51  71  95 123 155 192 237 289
#     4   9  16  27  46  72 100 129 162 201 247 295
#     4  12  22  33  50  72  97 125 159 199 242 287
#
# _framework density 17.804062999999999
#
# number of rings (size 3 to 8) (size 9 to 14) (size 15 to 20)
#    0.000    2.000    0.000    5.125    0.000    6.000 
#    0.000    2.500    0.000    4.125    0.000    1.750 
#    0.000    0.000    0.000    0.250    0.000    0.000 
#
# Total GULP energy -1190645.288487 kJ/mol
# GULP energy per Si atom -12402.555088 kJ/mol
# Density = 1.776354 g / cm^3
# Si number density = 17.804063 Si / 1000 Ang^3
#
#
#
# Elastic Constant Matrix: (Units=GPa)
#
#
# Indices 1 2 3 4 5 6 
#
# 1 104.0978 41.8602 32.3383 2.1917 0.0000 0.0000
# 2 41.8602 104.0978 32.3383 -2.1917 0.0000 0.0000
# 3 32.3383 32.3383 55.3699 0.0000 0.0000 0.0000
# 4 2.1917 -2.1917 0.0000 20.5447 0.0000 0.0000
# 5 0.0000 0.0000 0.0000 0.0000 20.5447 2.1917
# 6 0.0000 0.0000 0.0000 0.0000 2.1917 31.1188
#
#
#
# Elastic Compliance Matrix: (Units=1/GPa)
#
#
# Indices 1 2 3 4 5 6 
#
# 1 0.012716 -0.003473 -0.005399 -0.001727 0.000000 0.000000
# 2 -0.003473 0.012716 -0.005399 0.001727 0.000000 0.000000
# 3 -0.005399 -0.005399 0.024366 0.000000 0.000000 0.000000
# 4 -0.001727 0.001727 0.000000 0.049043 0.000000 0.000000
# 5 0.000000 0.000000 0.000000 0.000000 0.049043 -0.003454
# 6 0.000000 0.000000 0.000000 0.000000 -0.003454 0.032378
#
#
# Mechanical properties :
#
#
# Convention : Reuss Voigt Hill
#
# Bulk Modulus (GPa) = 47.03892 52.95993 49.99943
# Shear Modulus (GPa) = 23.16003 24.91020 24.03512
#
# Velocity S-wave (km/s) = 3.61061 3.74455 3.67819
# Velocity P-wave (km/s) = 6.62267 6.96463 6.79580
#
# Compressibility (1/GPa) = 0.02125899
#
# Stress axis : x y z
#
# Youngs Moduli (GPa) = 78.63925 78.63925 41.04021
#
# Poissons Ratio (x) = 0.27310 0.22156
# Poissons Ratio (y) = 0.27310 0.22156
# Poissons Ratio (z) = 0.42454 0.42454
#
# Static dielectric constant tensor:
#      x y z
#    x 3.342500 0.000000 0.000000 
#    y 0.000000 3.342500 0.000000 
#    z 0.000000 0.000000 3.033270 
# 
# 
# High freq. dielectric constant tensor:
#      x y z
#    x 1.694140 0.000000 0.000000 
#    y 0.000000 1.694140 0.000000 
#    z 0.000000 0.000000 1.656690 
# 
# From -- ./inp_files/4744.got.cif
#   From: 2010.03.12/outbox.cif.g09.slc.cpg/sg164_3_cif.got.tgz:4744.got - 2010.04.02 06:32:59.
