data_PCOD8323935
_publ_section_title
;
Structure prediction by ZEFSAII (Michael W. Deem and Ramdas Pophale) SiO2 
 PCOD8323935
Probable space group: P -3 C 1
;
_chemical_formula_sum "Si O2"
_cell_formula_units_Z 66
_cell_length_a 19.610021
_cell_length_b 19.610021
_cell_length_c 8.933355
_cell_angle_alpha 90.000000
_cell_angle_beta 90.000000
_cell_angle_gamma 120.000000
_cell_volume 2975.098451
_symmetry_space_group_name_H-M "P -3 C 1"
_symmetry_group_IT_number 165
_symmetry_cell_setting 'hexagonal'
loop_
_space_group_symop_operation_xyz
x,y,z
-y,x-y,z
-x+y,-x,z
x-y,-y,1/2-z
-x,-x+y,1/2-z
y,x,1/2-z
-x,-y,-z
y,-x+y,-z
x-y,x,-z
-x+y,y,1/2+z
x,x-y,1/2+z
-y,-x,1/2+z
loop_
_atom_site_type_symbol
_atom_site_label
_atom_site_fract_x
_atom_site_fract_y
_atom_site_fract_z
Si Si1 0.690401 0.000000 0.750000
Si Si2 0.815801 0.577114 0.319082
Si Si3 0.408546 0.498864 0.276953
Si Si4 0.104555 0.146994 0.410096
Si Si5 0.117720 0.470081 0.110227
Si Si6 0.139891 0.825979 0.920002
O O1 0.619910 0.951013 0.633435
O O2 0.710382 0.941858 0.839668
O O3 0.857718 0.525055 0.327305
O O4 0.725427 0.522757 0.369395
O O5 0.862726 0.658948 0.411650
O O6 0.821431 0.608095 0.150084
O O7 0.435431 0.435431 0.250000
O O8 0.476547 0.585922 0.236426
O O9 0.390745 0.501561 0.450254
O O10 0.112355 0.112355 0.250000
O O11 0.127727 0.111433 0.551551
O O12 0.157654 0.241819 0.414641
#
# Coordination Sequence:
#
# PCOD8323935 Si02
#       6
#     6  12  12  12  12  12
#     4  10  24  44  74 100 142 180 240 294 364 424
#     4  11  25  46  69 107 150 183 240 296 365 433
#     4  12  25  43  76 110 145 190 240 296 360 432
#     4  12  28  47  71  99 137 189 247 308 374 439
#     4  11  25  44  71 108 144 192 233 295 357 430
#     4  11  25  45  72 100 140 188 237 305 362 436
#
# _framework density 22.184138999999998
#
# number of rings (size 3 to 8) (size 9 to 14) (size 15 to 20)
#    0.000    0.727    2.727    3.455   12.727    2.182 
#    1.091    0.000    0.000    0.000    0.000    0.000 
#    0.000    0.000    0.000    0.000    0.000    0.000 
#
# Total GULP energy -818576.982627 kJ/mol
# GULP energy per Si atom -12402.681555 kJ/mol
# Density = 2.213365 g / cm^3
# Si number density = 22.184139 Si / 1000 Ang^3
#
#
#
# Elastic Constant Matrix: (Units=GPa)
#
#
# Indices 1 2 3 4 5 6 
#
# 1 111.1186 40.8551 31.5194 1.6482 0.0000 0.0000
# 2 40.8551 111.1186 31.5194 -1.6482 0.0000 0.0000
# 3 31.5194 31.5194 105.0304 0.0000 0.0000 0.0000
# 4 1.6482 -1.6482 0.0000 26.7952 0.0000 0.0000
# 5 0.0000 0.0000 0.0000 0.0000 26.7952 1.6482
# 6 0.0000 0.0000 0.0000 0.0000 1.6482 35.1317
#
#
#
# Elastic Compliance Matrix: (Units=1/GPa)
#
#
# Indices 1 2 3 4 5 6 
#
# 1 0.010894 -0.003379 -0.002255 -0.000878 0.000000 0.000000
# 2 -0.003379 0.010894 -0.002255 0.000878 0.000000 0.000000
# 3 -0.002255 -0.002255 0.010875 0.000000 0.000000 0.000000
# 4 -0.000878 0.000878 0.000000 0.037428 0.000000 0.000000
# 5 0.000000 0.000000 0.000000 0.000000 0.037428 -0.001756
# 6 0.000000 0.000000 0.000000 0.000000 -0.001756 0.028547
#
#
# Mechanical properties :
#
#
# Convention : Reuss Voigt Hill
#
# Bulk Modulus (GPa) = 59.22657 59.45062 59.33860
# Shear Modulus (GPa) = 31.75121 32.63598 32.19360
#
# Velocity S-wave (km/s) = 3.78730 3.83971 3.81359
# Velocity P-wave (km/s) = 6.77352 6.82017 6.79688
#
# Compressibility (1/GPa) = 0.01688431
#
# Stress axis : x y z
#
# Youngs Moduli (GPa) = 91.78949 91.78949 91.95609
#
# Poissons Ratio (x) = 0.31014 0.20740
# Poissons Ratio (y) = 0.31014 0.20740
# Poissons Ratio (z) = 0.20702 0.20702
#
# Static dielectric constant tensor:
#      x y z
#    x 4.017410 0.000000 0.000000 
#    y 0.000000 4.017410 0.000000 
#    z 0.000000 0.000000 4.106750 
# 
# 
# High freq. dielectric constant tensor:
#      x y z
#    x 1.872850 0.000000 0.000000 
#    y 0.000000 1.872850 0.000000 
#    z 0.000000 0.000000 1.886050 
# 
# From -- ./inp_files/715.got.cif
#   From: 2010.03.12/outbox.cif.g09.slc.cpg/sg165_1_cif.got.tgz:715.got - 2010.04.02 06:36:38.
