data_PCOD8323522
_publ_section_title
;
Structure prediction by ZEFSAII (Michael W. Deem and Ramdas Pophale) SiO2 
 PCOD8323522
Probable space group: P -3 M 1
;
_chemical_formula_sum "Si O2"
_cell_formula_units_Z 96
_cell_length_a 17.790184
_cell_length_b 17.790184
_cell_length_c 23.931550
_cell_angle_alpha 90.000000
_cell_angle_beta 90.000000
_cell_angle_gamma 120.000000
_cell_volume 6559.373176
_symmetry_space_group_name_H-M "P -3 M 1"
_symmetry_group_IT_number 164
_symmetry_cell_setting 'hexagonal'
loop_
_space_group_symop_operation_xyz
x,y,z
-y,x-y,z
-x+y,-x,z
x-y,-y,-z
-x,-x+y,-z
y,x,-z
-x,-y,-z
y,-x+y,-z
x-y,x,-z
-x+y,y,z
x,x-y,z
-y,-x,z
loop_
_atom_site_type_symbol
_atom_site_label
_atom_site_fract_x
_atom_site_fract_y
_atom_site_fract_z
Si Si1 0.489934 0.331923 0.662210
Si Si2 0.332937 0.840187 0.935861
Si Si3 0.489934 0.331924 0.337791
Si Si4 0.159813 0.667064 0.064140
Si Si5 0.363353 0.265579 0.436166
Si Si6 0.589087 0.589087 0.261540
Si Si7 0.265580 0.363354 0.436166
Si Si8 1.000000 0.410423 0.136050
O O1 0.497757 0.248879 0.679179
O O2 0.584795 0.415206 0.661559
O O3 0.426582 0.340021 0.706971
O O4 0.448355 0.322231 0.601132
O O5 0.410977 0.821954 0.924233
O O6 0.245742 0.754259 0.919691
O O7 0.338466 0.915655 0.896436
O O8 0.333747 0.867565 0.000001
O O9 0.497757 0.248879 0.320821
O O10 0.584796 0.415205 0.338443
O O11 0.448354 0.322230 0.398867
O O12 0.426585 0.340023 0.293029
O O13 0.178046 0.589023 0.075768
O O14 0.245742 0.754259 0.080311
O O15 0.084345 0.661534 0.103565
O O16 0.325600 0.162800 0.425125
O O17 0.287808 0.287808 0.421764
O O18 0.394325 0.289988 0.500000
O O19 0.499999 0.500002 0.259937
O O20 0.622107 0.622106 0.198856
O O21 0.162801 0.325601 0.425125
O O22 1.000000 0.500000 0.135435
#
# Coordination Sequence:
#
# PCOD8323522 Si02
#       8
#    12  12  12  12  12  12  12  12
#     4  10  19  31  45  62  84 111 143 179 218 258
#     4   9  16  26  41  61  84 110 140 173 209 250
#     4  10  19  31  45  62  84 111 143 179 218 258
#     4   9  16  26  41  61  84 110 140 173 209 250
#     4   9  17  29  46  67  89 114 143 176 217 264
#     4   9  18  31  43  57  79 108 142 177 212 250
#     4   9  17  29  46  67  89 114 143 176 217 264
#     4   9  17  28  41  57  80 109 140 175 212 248
#
# _framework density 14.635546
#
# number of rings (size 3 to 8) (size 9 to 14) (size 15 to 20)
#    0.000    2.750    1.250    0.875    0.000    4.000 
#    0.000    1.250    0.000    4.750    0.000    1.750 
#    0.000    0.000    0.000    0.375    0.000    8.625 
#
# Total GULP energy -1190177.450589 kJ/mol
# GULP energy per Si atom -12397.681777 kJ/mol
# Density = 1.460223 g / cm^3
# Si number density = 14.635546 Si / 1000 Ang^3
#
#
#
# Elastic Constant Matrix: (Units=GPa)
#
#
# Indices 1 2 3 4 5 6 
#
# 1 94.1537 54.8977 54.3783 0.0000 0.0000 0.0000
# 2 54.8977 94.1537 54.3783 0.0000 0.0000 0.0000
# 3 54.3783 54.3783 99.4792 0.0000 0.0000 0.0000
# 4 0.0000 0.0000 0.0000 17.2323 0.0000 0.0000
# 5 0.0000 0.0000 0.0000 0.0000 17.2323 0.0000
# 6 0.0000 0.0000 0.0000 0.0000 0.0000 19.6280
#
#
#
# Elastic Compliance Matrix: (Units=1/GPa)
#
#
# Indices 1 2 3 4 5 6 
#
# 1 0.018317 -0.007157 -0.006101 0.000000 0.000000 0.000000
# 2 -0.007157 0.018317 -0.006101 0.000000 0.000000 0.000000
# 3 -0.006101 -0.006101 0.016722 0.000000 0.000000 0.000000
# 4 0.000000 0.000000 0.000000 0.058030 0.000000 0.000000
# 5 0.000000 0.000000 0.000000 0.000000 0.058030 0.000000
# 6 0.000000 0.000000 0.000000 0.000000 0.000000 0.050948
#
#
# Mechanical properties :
#
#
# Convention : Reuss Voigt Hill
#
# Bulk Modulus (GPa) = 68.30458 68.34391 68.32425
# Shear Modulus (GPa) = 18.94221 19.09402 19.01812
#
# Velocity S-wave (km/s) = 3.60149 3.61589 3.60870
# Velocity P-wave (km/s) = 8.00412 8.01445 8.00929
#
# Compressibility (1/GPa) = 0.01464031
#
# Stress axis : x y z
#
# Youngs Moduli (GPa) = 54.59366 54.59366 59.80163
#
# Poissons Ratio (x) = 0.39071 0.36483
# Poissons Ratio (y) = 0.39071 0.36483
# Poissons Ratio (z) = 0.33306 0.33306
#
# Static dielectric constant tensor:
#      x y z
#    x 2.787430 0.000000 0.000000 
#    y 0.000000 2.787430 0.000000 
#    z 0.000000 0.000000 3.011920 
# 
# 
# High freq. dielectric constant tensor:
#      x y z
#    x 1.542570 0.000000 0.000000 
#    y 0.000000 1.542570 0.000000 
#    z 0.000000 0.000000 1.566060 
# 
# From -- ./inp_files/4777.got.cif
#   From: 2010.03.12/outbox.cif.g09.slc.cpg/sg164_3_cif.got.tgz:4777.got - 2010.04.02 06:32:59.
