data_PCOD8323963
_publ_section_title
;
Structure prediction by ZEFSAII (Michael W. Deem and Ramdas Pophale) SiO2 
 PCOD8323963
Probable space group: P -3 C 1
;
_chemical_formula_sum "Si O2"
_cell_formula_units_Z 36
_cell_length_a 20.416588
_cell_length_b 20.416588
_cell_length_c 5.231606
_cell_angle_alpha 90.000000
_cell_angle_beta 90.000000
_cell_angle_gamma 120.000000
_cell_volume 1888.565235
_symmetry_space_group_name_H-M "P -3 C 1"
_symmetry_group_IT_number 165
_symmetry_cell_setting 'hexagonal'
loop_
_space_group_symop_operation_xyz
x,y,z
-y,x-y,z
-x+y,-x,z
x-y,-y,1/2-z
-x,-x+y,1/2-z
y,x,1/2-z
-x,-y,-z
y,-x+y,-z
x-y,x,-z
-x+y,y,1/2+z
x,x-y,1/2+z
-y,-x,1/2+z
loop_
_atom_site_type_symbol
_atom_site_label
_atom_site_fract_x
_atom_site_fract_y
_atom_site_fract_z
Si Si1 0.000000 0.558807 0.250000
Si Si2 0.152246 0.599683 0.759048
Si Si3 0.841954 0.244455 0.279985
Si Si4 0.000000 0.352553 0.250000
O O1 0.928921 0.476448 0.180844
O O2 0.982632 0.594869 0.497595
O O3 0.196109 0.584429 0.528228
O O4 0.149308 0.673492 0.687914
O O5 0.794306 0.192260 0.511730
O O6 0.929751 0.267263 0.293673
#
# Coordination Sequence:
#
# PCOD8323963 Si02
#       4
#     6  12  12   6
#     4  12  19  36  64  98 102 142 206 255 280 319
#     4  12  20  35  58  86 113 139 194 248 295 328
#     4  12  25  39  56  88 119 147 191 248 297 342
#     4  12  23  40  64  90 114 150 196 243 288 349
#
# _framework density 19.062089
#
# number of rings (size 3 to 8) (size 9 to 14) (size 15 to 20)
#    0.000    0.000    6.667    6.000    0.000    0.000 
#    0.000    0.000    0.000   13.333    0.000    0.000 
#    0.000    0.000    0.000   10.000    0.000    0.000 
#
# Total GULP energy -445996.613017 kJ/mol
# GULP energy per Si atom -12388.794806 kJ/mol
# Density = 1.901870 g / cm^3
# Si number density = 19.062089 Si / 1000 Ang^3
#
#
#
# Elastic Constant Matrix: (Units=GPa)
#
#
# Indices 1 2 3 4 5 6 
#
# 1 65.4848 22.0908 3.1656 3.4126 0.0000 0.0000
# 2 22.0908 65.4848 3.1656 -3.4126 0.0000 0.0000
# 3 3.1656 3.1656 105.1579 0.0000 0.0000 0.0000
# 4 3.4126 -3.4126 0.0000 23.0930 0.0000 0.0000
# 5 0.0000 0.0000 0.0000 0.0000 23.0930 3.4126
# 6 0.0000 0.0000 0.0000 0.0000 3.4126 21.6970
#
#
#
# Elastic Compliance Matrix: (Units=1/GPa)
#
#
# Indices 1 2 3 4 5 6 
#
# 1 0.017518 -0.006075 -0.000344 -0.003486 0.000000 0.000000
# 2 -0.006075 0.017518 -0.000344 0.003486 0.000000 0.000000
# 3 -0.000344 -0.000344 0.009530 0.000000 0.000000 0.000000
# 4 -0.003486 0.003486 0.000000 0.044334 0.000000 0.000000
# 5 0.000000 0.000000 0.000000 0.000000 0.044334 -0.006973
# 6 0.000000 0.000000 0.000000 0.000000 -0.006973 0.047186
#
#
# Mechanical properties :
#
#
# Convention : Reuss Voigt Hill
#
# Bulk Modulus (GPa) = 32.21702 32.55240 32.38471
# Shear Modulus (GPa) = 24.47450 27.42361 25.94906
#
# Velocity S-wave (km/s) = 3.58709 3.79706 3.69357
# Velocity P-wave (km/s) = 5.83902 6.02808 5.93430
#
# Compressibility (1/GPa) = 0.03103950
#
# Stress axis : x y z
#
# Youngs Moduli (GPa) = 57.08307 57.08306 104.92904
#
# Poissons Ratio (x) = 0.34676 0.03615
# Poissons Ratio (y) = 0.34676 0.03615
# Poissons Ratio (z) = 0.01966 0.01966
#
# Static dielectric constant tensor:
#      x y z
#    x 3.519230 0.000000 0.000000 
#    y 0.000000 3.519230 0.000000 
#    z 0.000000 0.000000 4.599930 
# 
# 
# High freq. dielectric constant tensor:
#      x y z
#    x 1.697190 0.000000 0.000000 
#    y 0.000000 1.697190 0.000000 
#    z 0.000000 0.000000 1.797010 
# 
# From -- ./inp_files/79.got.cif
#   From: 2010.03.12/outbox.cif.g09.slc.cpg/sg165_1_cif.got.tgz:79.got - 2010.04.02 06:36:38.
