data_PCOD8323069
_publ_section_title
;
Structure prediction by ZEFSAII (Michael W. Deem and Ramdas Pophale) SiO2 
 PCOD8323069
Probable space group: P -3 1 M 
;
_chemical_formula_sum "Si O2"
_cell_formula_units_Z 60
_cell_length_a 17.854703
_cell_length_b 17.854703
_cell_length_c 10.542987
_cell_angle_alpha 90.000000
_cell_angle_beta 90.000000
_cell_angle_gamma 120.000000
_cell_volume 2910.714193
_symmetry_space_group_name_H-M "P -3 1 M "
_symmetry_group_IT_number 162
_symmetry_cell_setting 'hexagonal'
loop_
_space_group_symop_operation_xyz
x,y,z
-y,x-y,z
-x+y,-x,z
-y,-x,-z
-x+y,y,-z
x,x-y,-z
-x,-y,-z
y,-x+y,-z
x-y,x,-z
y,x,z
x-y,-y,z
-x,-x+y,z
loop_
_atom_site_type_symbol
_atom_site_label
_atom_site_fract_x
_atom_site_fract_y
_atom_site_fract_z
Si Si1 0.803051 0.901401 0.849579
Si Si2 0.587412 0.103641 0.869972
Si Si3 0.257453 0.905403 0.502650
Si Si4 0.357202 0.260668 0.783763
Si Si5 0.897027 0.403301 0.619143
O O1 0.842541 0.842541 0.798836
O O2 0.702513 0.858796 0.800738
O O3 0.862960 0.000000 0.798958
O O4 0.802044 0.901022 0.000000
O O5 0.690980 0.138877 0.861077
O O6 0.555511 0.139415 0.752449
O O7 0.536324 0.000000 0.865863
O O8 0.569444 0.138888 0.000000
O O9 0.154669 0.845332 0.500000
O O10 0.291723 0.906982 0.360714
O O11 0.302562 0.869535 0.599754
O O12 0.277219 0.000000 0.544007
O O13 0.296036 0.296036 0.837351
O O14 0.857713 0.428857 0.500000
O O15 0.000000 0.459901 0.615334
#
# Coordination Sequence:
#
# PCOD8323069 Si02
#       5
#    12  12  12  12  12
#     4   9  17  30  48  70 102 150 206 257 303 351
#     4   9  16  28  50  80 109 132 161 212 283 359
#     4  10  20  34  53  78 111 151 197 247 292 338
#     4   9  17  31  49  72 106 143 179 234 298 342
#     4   9  15  29  54  78 101 135 175 217 273 343
#
# _framework density 20.613496999999999
#
# number of rings (size 3 to 8) (size 9 to 14) (size 15 to 20)
#    0.000    2.800    2.000    0.200    0.000    1.600 
#    3.600    0.000    0.000    0.600    0.000    0.000 
#    0.000    0.000    0.000    0.000    0.000    0.200 
#
# Total GULP energy -743391.298716 kJ/mol
# GULP energy per Si atom -12389.854979 kJ/mol
# Density = 2.056658 g / cm^3
# Si number density = 20.613497 Si / 1000 Ang^3
#
#
#
# Elastic Constant Matrix: (Units=GPa)
#
#
# Indices 1 2 3 4 5 6 
#
# 1 107.2772 57.2020 37.5214 0.0002 4.0841 0.0000
# 2 57.2020 107.2772 37.5214 -0.0002 -4.0841 0.0000
# 3 37.5214 37.5214 100.4302 0.0000 0.0000 0.0000
# 4 0.0002 -0.0002 0.0000 17.7016 0.0000 -4.0841
# 5 4.0841 -4.0841 0.0000 0.0000 17.7016 0.0002
# 6 0.0000 0.0000 0.0000 -4.0841 0.0002 25.0376
#
#
#
# Elastic Compliance Matrix: (Units=1/GPa)
#
#
# Indices 1 2 3 4 5 6 
#
# 1 0.014040 -0.006711 -0.002738 0.000000 -0.004788 0.000000
# 2 -0.006711 0.014040 -0.002738 0.000000 0.004788 0.000000
# 3 -0.002738 -0.002738 0.012003 0.000000 0.000000 0.000000
# 4 0.000000 0.000000 0.000000 0.058701 0.000000 0.009575
# 5 -0.004788 0.004788 0.000000 0.000000 0.058701 -0.000001
# 6 0.000000 0.000000 0.000000 0.009575 -0.000001 0.041502
#
#
# Mechanical properties :
#
#
# Convention : Reuss Voigt Hill
#
# Bulk Modulus (GPa) = 63.65952 64.38601 64.02276
# Shear Modulus (GPa) = 21.87239 24.27081 23.07160
#
# Velocity S-wave (km/s) = 3.26094 3.43508 3.34914
# Velocity P-wave (km/s) = 6.71772 6.85826 6.78836
#
# Compressibility (1/GPa) = 0.01570857
#
# Stress axis : x y z
#
# Youngs Moduli (GPa) = 71.22506 71.22506 83.31132
#
# Poissons Ratio (x) = 0.47799 0.22812
# Poissons Ratio (y) = 0.47799 0.22812
# Poissons Ratio (z) = 0.19503 0.19503
#
# Static dielectric constant tensor:
#      x y z
#    x 3.536260 0.000000 0.000000 
#    y 0.000000 3.536260 0.000000 
#    z 0.000000 0.000000 3.779840 
# 
# 
# High freq. dielectric constant tensor:
#      x y z
#    x 1.775420 0.000000 0.000000 
#    y 0.000000 1.775420 0.000000 
#    z 0.000000 0.000000 1.797610 
# 
# From -- ./inp_files/2336.got.cif
#   From: 2010.03.12/outbox.cif.g09.slc.cpg/sg162_2_cif.got.tgz:2336.got - 2010.04.02 06:27:41.
