data_PCOD8323852
_publ_section_title
;
Structure prediction by ZEFSAII (Michael W. Deem and Ramdas Pophale) SiO2 
 PCOD8323852
Probable space group: P -3 C 1
;
_chemical_formula_sum "Si O2"
_cell_formula_units_Z 48
_cell_length_a 16.583131
_cell_length_b 16.583131
_cell_length_c 10.125923
_cell_angle_alpha 90.000000
_cell_angle_beta 90.000000
_cell_angle_gamma 120.000000
_cell_volume 2411.561353
_symmetry_space_group_name_H-M "P -3 C 1"
_symmetry_group_IT_number 165
_symmetry_cell_setting 'hexagonal'
loop_
_space_group_symop_operation_xyz
x,y,z
-y,x-y,z
-x+y,-x,z
x-y,-y,1/2-z
-x,-x+y,1/2-z
y,x,1/2-z
-x,-y,-z
y,-x+y,-z
x-y,x,-z
-x+y,y,1/2+z
x,x-y,1/2+z
-y,-x,1/2+z
loop_
_atom_site_type_symbol
_atom_site_label
_atom_site_fract_x
_atom_site_fract_y
_atom_site_fract_z
Si Si1 0.110536 0.627724 0.265803
Si Si2 0.689335 0.955715 0.890377
Si Si3 0.216918 0.293659 0.356570
Si Si4 0.490724 0.899576 0.984167
O O1 0.129136 0.729940 0.301139
O O2 0.154909 0.592590 0.378851
O O3 0.000000 0.560822 0.250000
O O4 0.154296 0.623196 0.124683
O O5 0.734226 0.889578 0.877001
O O6 0.582093 0.901253 0.930524
O O7 0.693513 0.000000 0.750000
O O8 0.745230 0.032678 0.000835
O O9 0.225294 0.225294 0.250000
O O10 0.500000 0.000000 0.000000
#
# Coordination Sequence:
#
# PCOD8323852 Si02
#       4
#    12  12  12  12
#     4   9  17  32  54  81 121 140 184 241 296 356
#     4  12  23  35  63  87 117 163 209 255 322 366
#     4  11  22  41  55  87 124 157 208 276 301 368
#     4  10  17  33  57  88 117 146 185 241 303 369
#
# _framework density 19.904119000000001
#
# number of rings (size 3 to 8) (size 9 to 14) (size 15 to 20)
#    0.000    1.500    7.500    3.750    0.000    0.000 
#    0.000    0.000    0.000   11.000    0.000    3.500 
#    0.000    0.000    0.000    0.000    0.000    0.000 
#
# Total GULP energy -594907.222867 kJ/mol
# GULP energy per Si atom -12393.900476 kJ/mol
# Density = 1.985882 g / cm^3
# Si number density = 19.904119 Si / 1000 Ang^3
#
#
#
# Elastic Constant Matrix: (Units=GPa)
#
#
# Indices 1 2 3 4 5 6 
#
# 1 46.2378 19.2930 25.0631 3.7688 0.0000 0.0000
# 2 19.2930 46.2378 25.0631 -3.7688 0.0000 0.0000
# 3 25.0631 25.0631 185.1362 0.0000 0.0000 0.0000
# 4 3.7688 -3.7688 0.0000 10.3133 0.0000 0.0000
# 5 0.0000 0.0000 0.0000 0.0000 10.3133 3.7688
# 6 0.0000 0.0000 0.0000 0.0000 3.7688 13.4724
#
#
#
# Elastic Compliance Matrix: (Units=1/GPa)
#
#
# Indices 1 2 3 4 5 6 
#
# 1 0.029181 -0.012158 -0.002304 -0.015106 0.000000 0.000000
# 2 -0.012158 0.029181 -0.002304 0.015106 0.000000 0.000000
# 3 -0.002304 -0.002304 0.006025 0.000000 0.000000 0.000000
# 4 -0.015106 0.015106 0.000000 0.108002 0.000000 0.000000
# 5 0.000000 0.000000 0.000000 0.000000 0.108002 -0.030213
# 6 0.000000 0.000000 0.000000 0.000000 -0.030213 0.082678
#
#
# Mechanical properties :
#
#
# Convention : Reuss Voigt Hill
#
# Bulk Modulus (GPa) = 32.41177 46.27224 39.34201
# Shear Modulus (GPa) = 12.28840 20.69931 16.49386
#
# Velocity S-wave (km/s) = 2.48741 3.22833 2.88178
# Velocity P-wave (km/s) = 4.95670 6.09870 5.55712
#
# Compressibility (1/GPa) = 0.03085299
#
# Stress axis : x y z
#
# Youngs Moduli (GPa) = 34.26913 34.26913 165.96469
#
# Poissons Ratio (x) = 0.41664 0.38246
# Poissons Ratio (y) = 0.41664 0.38246
# Poissons Ratio (z) = 0.07897 0.07897
#
# Static dielectric constant tensor:
#      x y z
#    x 3.473550 0.000000 0.000000 
#    y 0.000000 3.473550 0.000000 
#    z 0.000000 0.000000 5.221000 
# 
# 
# High freq. dielectric constant tensor:
#      x y z
#    x 1.734110 0.000000 0.000000 
#    y 0.000000 1.734110 0.000000 
#    z 0.000000 0.000000 1.816070 
# 
# From -- ./inp_files/540.got.cif
#   From: 2010.03.12/outbox.cif.g09.slc.cpg/sg165_1_cif.got.tgz:540.got - 2010.04.02 06:36:38.
