data_PCOD8323769
_publ_section_title
;
Structure prediction by ZEFSAII (Michael W. Deem and Ramdas Pophale) SiO2 
 PCOD8323769
Probable space group: P -3 M 1
;
_chemical_formula_sum "Si O2"
_cell_formula_units_Z 42
_cell_length_a 22.685263
_cell_length_b 22.685263
_cell_length_c 4.941969
_cell_angle_alpha 90.000000
_cell_angle_beta 90.000000
_cell_angle_gamma 120.000000
_cell_volume 2202.512012
_symmetry_space_group_name_H-M "P -3 M 1"
_symmetry_group_IT_number 164
_symmetry_cell_setting 'hexagonal'
loop_
_space_group_symop_operation_xyz
x,y,z
-y,x-y,z
-x+y,-x,z
x-y,-y,-z
-x,-x+y,-z
y,x,-z
-x,-y,-z
y,-x+y,-z
x-y,x,-z
-x+y,y,z
x,x-y,z
-y,-x,z
loop_
_atom_site_type_symbol
_atom_site_label
_atom_site_fract_x
_atom_site_fract_y
_atom_site_fract_z
Si Si1 0.137023 0.000000 0.500000
Si Si2 0.525155 0.474846 0.257812
Si Si3 0.748301 0.115856 0.941030
Si Si4 0.218500 0.218500 0.000000
Si Si5 0.339405 0.418470 0.552929
O O1 0.064051 0.935950 0.418747
O O2 0.188786 0.022882 0.247716
O O3 0.500000 0.500000 0.500000
O O4 0.490103 0.393201 0.300626
O O5 0.500000 0.500000 0.000000
O O6 0.809689 0.190312 0.901352
O O7 0.689516 0.111690 0.740398
O O8 0.771585 0.060859 0.882060
O O9 0.723973 0.105033 0.248937
O O10 0.373360 0.373360 0.500000
#
# Coordination Sequence:
#
# PCOD8323769 Si02
#       5
#     6   6  12   6  12
#     4  12  25  42  60  78 100 137 202 270 322 366
#     4  10  20  34  60  88 118 150 182 224 286 350
#     4  12  23  37  57  83 119 157 195 240 290 352
#     4  12  24  42  57  79 114 154 194 240 310 380
#     4  11  20  38  57  84 119 151 184 231 282 343
#
# _framework density 19.069133999999998
#
# number of rings (size 3 to 8) (size 9 to 14) (size 15 to 20)
#    0.000    0.571    2.857    8.714    0.000    0.000 
#    0.000    1.429    0.000    0.000    0.000    0.000 
#   28.571    0.000    0.000    0.000    0.000    0.000 
#
# Total GULP energy -520562.580862 kJ/mol
# GULP energy per Si atom -12394.347163 kJ/mol
# Density = 1.902573 g / cm^3
# Si number density = 19.069134 Si / 1000 Ang^3
#
#
#
# Elastic Constant Matrix: (Units=GPa)
#
#
# Indices 1 2 3 4 5 6 
#
# 1 81.9414 47.7053 24.3484 4.9737 0.0000 0.0000
# 2 47.7053 81.9414 24.3484 -4.9737 0.0000 0.0000
# 3 24.3484 24.3484 110.3177 0.0000 0.0000 0.0000
# 4 4.9737 -4.9737 0.0000 36.1473 0.0000 0.0000
# 5 0.0000 0.0000 0.0000 0.0000 36.1473 4.9737
# 6 0.0000 0.0000 0.0000 0.0000 4.9737 17.1180
#
#
#
# Elastic Compliance Matrix: (Units=1/GPa)
#
#
# Indices 1 2 3 4 5 6 
#
# 1 0.019418 -0.011007 -0.001856 -0.004186 0.000000 0.000000
# 2 -0.011007 0.019418 -0.001856 0.004186 0.000000 0.000000
# 3 -0.001856 -0.001856 0.009884 0.000000 0.000000 0.000000
# 4 -0.004186 0.004186 0.000000 0.028817 0.000000 0.000000
# 5 0.000000 0.000000 0.000000 0.000000 0.028817 -0.008373
# 6 0.000000 0.000000 0.000000 0.000000 -0.008373 0.060851
#
#
# Mechanical properties :
#
#
# Convention : Reuss Voigt Hill
#
# Bulk Modulus (GPa) = 51.86728 51.88942 51.87835
# Shear Modulus (GPa) = 24.62197 29.73573 27.17885
#
# Velocity S-wave (km/s) = 3.59722 3.95316 3.77938
# Velocity P-wave (km/s) = 6.67173 6.93592 6.80510
#
# Compressibility (1/GPa) = 0.01927998
#
# Stress axis : x y z
#
# Youngs Moduli (GPa) = 51.49881 51.49881 101.17208
#
# Poissons Ratio (x) = 0.56687 0.18781
# Poissons Ratio (y) = 0.56687 0.18781
# Poissons Ratio (z) = 0.09560 0.09560
#
# Static dielectric constant tensor:
#      x y z
#    x 6.940720 0.000000 0.000000 
#    y 0.000000 6.940720 0.000000 
#    z 0.000000 0.000000 3.477850 
# 
# 
# High freq. dielectric constant tensor:
#      x y z
#    x 1.722400 0.000000 0.000000 
#    y 0.000000 1.722400 0.000000 
#    z 0.000000 0.000000 1.765390 
# 
# From -- ./inp_files/363.got.cif
#   From: 2010.03.12/outbox.cif.g09.slc.cpg/sg164_1_cif.got.tgz:363.got - 2010.04.02 06:32:59.
