data_PCOD8323966
_publ_section_title
;
Structure prediction by ZEFSAII (Michael W. Deem and Ramdas Pophale) SiO2 
 PCOD8323966
Probable space group: P -3 C 1
;
_chemical_formula_sum "Si O2"
_cell_formula_units_Z 72
_cell_length_a 14.016412
_cell_length_b 14.016412
_cell_length_c 19.264705
_cell_angle_alpha 90.000000
_cell_angle_beta 90.000000
_cell_angle_gamma 120.000000
_cell_volume 3277.681155
_symmetry_space_group_name_H-M "P -3 C 1"
_symmetry_group_IT_number 165
_symmetry_cell_setting 'hexagonal'
loop_
_space_group_symop_operation_xyz
x,y,z
-y,x-y,z
-x+y,-x,z
x-y,-y,1/2-z
-x,-x+y,1/2-z
y,x,1/2-z
-x,-y,-z
y,-x+y,-z
x-y,x,-z
-x+y,y,1/2+z
x,x-y,1/2+z
-y,-x,1/2+z
loop_
_atom_site_type_symbol
_atom_site_label
_atom_site_fract_x
_atom_site_fract_y
_atom_site_fract_z
Si Si1 0.854498 0.753139 0.634491
Si Si2 0.103128 0.560419 0.952305
Si Si3 0.589234 0.808856 0.482298
Si Si4 0.434403 0.896690 0.289796
Si Si5 0.113147 0.266227 0.119627
Si Si6 0.586742 0.778278 0.748192
O O1 0.776003 0.662473 0.579659
O O2 0.824581 0.849492 0.629822
O O3 0.821785 0.699171 0.709639
O O4 0.981544 0.789620 0.621531
O O5 0.135181 0.684670 0.964123
O O6 0.185777 0.523196 0.984316
O O7 0.081678 0.531553 0.870555
O O8 0.000000 0.500000 0.000000
O O9 0.668239 0.849358 0.548188
O O10 0.306816 0.804783 0.283327
O O11 0.517395 0.871229 0.245955
O O12 0.440064 0.000000 0.250000
O O13 0.166388 0.367982 0.173653
#
# Coordination Sequence:
#
# PCOD8323966 Si02
#       6
#    12  12  12  12  12  12
#     4  12  23  48  68 106 142 196 237 294 366 416
#     4  12  25  46  72 102 139 186 231 288 361 421
#     4  12  27  44  74 103 145 187 237 296 358 431
#     4  12  25  46  72 102 139 186 231 288 361 421
#     4  12  27  44  74 108 148 188 247 300 350 434
#     4  12  27  44  74 103 145 187 237 296 358 431
#
# _framework density 21.966747999999999
#
# number of rings (size 3 to 8) (size 9 to 14) (size 15 to 20)
#    0.000    0.000    3.333    7.000    4.667    0.000 
#    0.000    3.333    0.000    0.000    0.000    0.000 
#    0.000    0.000    0.000    0.000    0.000    0.000 
#
# Total GULP energy -892595.020164 kJ/mol
# GULP energy per Si atom -12397.153058 kJ/mol
# Density = 2.191675 g / cm^3
# Si number density = 21.966748 Si / 1000 Ang^3
#
#
#
# Elastic Constant Matrix: (Units=GPa)
#
#
# Indices 1 2 3 4 5 6 
#
# 1 114.6766 -18.3849 18.7644 -0.8920 0.0000 0.0000
# 2 -18.3849 114.6766 18.7644 0.8920 0.0000 0.0000
# 3 18.7644 18.7644 45.5187 0.0000 0.0000 0.0000
# 4 -0.8920 0.8920 0.0000 33.6686 0.0000 0.0000
# 5 0.0000 0.0000 0.0000 0.0000 33.6686 -0.8920
# 6 0.0000 0.0000 0.0000 0.0000 -0.8920 66.5308
#
#
#
# Elastic Compliance Matrix: (Units=1/GPa)
#
#
# Indices 1 2 3 4 5 6 
#
# 1 0.009946 0.002428 -0.005101 0.000199 0.000000 0.000000
# 2 0.002428 0.009946 -0.005101 -0.000199 0.000000 0.000000
# 3 -0.005101 -0.005101 0.026174 0.000000 0.000000 0.000000
# 4 0.000199 -0.000199 0.000000 0.029712 0.000000 0.000000
# 5 0.000000 0.000000 0.000000 0.000000 0.029712 0.000398
# 6 0.000000 0.000000 0.000000 0.000000 0.000398 0.015036
#
#
# Mechanical properties :
#
#
# Convention : Reuss Voigt Hill
#
# Bulk Modulus (GPa) = 32.76759 34.79550 33.78155
# Shear Modulus (GPa) = 34.18926 43.82214 39.00570
#
# Velocity S-wave (km/s) = 3.94942 4.47131 4.21844
# Velocity P-wave (km/s) = 5.97884 6.52160 6.25611
#
# Compressibility (1/GPa) = 0.03051796
#
# Stress axis : x y z
#
# Youngs Moduli (GPa) = 100.54794 100.54794 38.20552
#
# Poissons Ratio (x) = -0.24408 0.19487
# Poissons Ratio (y) = -0.24408 0.19487
# Poissons Ratio (z) = 0.51285 0.51285
#
# Static dielectric constant tensor:
#      x y z
#    x 3.909580 0.000000 0.000000 
#    y 0.000000 3.909580 0.000000 
#    z 0.000000 0.000000 3.927220 
# 
# 
# High freq. dielectric constant tensor:
#      x y z
#    x 1.878420 0.000000 0.000000 
#    y 0.000000 1.878420 0.000000 
#    z 0.000000 0.000000 1.872740 
# 
# From -- ./inp_files/2273.got.cif
#   From: 2010.03.12/outbox.cif.g09.slc.cpg/sg165_2_cif.got.tgz:2273.got - 2010.04.02 06:36:38.
