data_PCOD8323125
_publ_section_title
;
Structure prediction by ZEFSAII (Michael W. Deem and Ramdas Pophale) SiO2 
 PCOD8323125
Probable space group: P -3 1 M 
;
_chemical_formula_sum "Si O2"
_cell_formula_units_Z 76
_cell_length_a 17.780875
_cell_length_b 17.780875
_cell_length_c 13.138893
_cell_angle_alpha 90.000000
_cell_angle_beta 90.000000
_cell_angle_gamma 120.000000
_cell_volume 3597.457445
_symmetry_space_group_name_H-M "P -3 1 M "
_symmetry_group_IT_number 162
_symmetry_cell_setting 'hexagonal'
loop_
_space_group_symop_operation_xyz
x,y,z
-y,x-y,z
-x+y,-x,z
-y,-x,-z
-x+y,y,-z
x,x-y,-z
-x,-y,-z
y,-x+y,-z
x-y,x,-z
y,x,z
x-y,-y,z
-x,-x+y,z
loop_
_atom_site_type_symbol
_atom_site_label
_atom_site_fract_x
_atom_site_fract_y
_atom_site_fract_z
Si Si1 0.781142 0.160859 0.606080
Si Si2 0.541508 0.000000 0.345938
Si Si3 0.412586 0.586247 0.758978
Si Si4 0.333334 0.666668 0.379158
Si Si5 0.767445 0.231402 0.187790
Si Si6 0.183584 0.284113 0.100757
Si Si7 0.098967 0.899624 0.309025
Si Si8 0.390358 0.390358 0.548345
O O1 0.791046 0.208955 0.500000
O O2 0.798129 0.226927 0.697432
O O3 0.848013 0.125330 0.613105
O O4 0.684794 0.081125 0.606949
O O5 0.577364 0.082717 0.273066
O O6 0.615727 0.000000 0.422588
O O7 0.476496 0.000000 0.426674
O O8 0.366236 0.601891 0.661138
O O9 0.336598 0.502855 0.821120
O O10 0.454743 0.671157 0.831389
O O11 0.333334 0.666667 0.500000
O O12 0.784564 0.171482 0.110242
O O13 0.263383 0.263383 0.095481
O O14 0.120940 0.233482 0.193760
O O15 0.124814 0.249627 0.000000
O O16 0.000000 0.845348 0.343756
O O17 0.129252 0.000000 0.317030
#
# Coordination Sequence:
#
# PCOD8323125 Si02
#       8
#    12   6  12   4  12  12  12   6
#     4  11  22  37  54  79 120 167 208 251 307 360
#     4  11  22  32  54  82 116 153 210 266 293 345
#     4  10  21  37  54  84 116 158 200 252 301 354
#     4   9  21  33  54  72 115 164 211 243 303 348
#     4  10  22  40  62  86 122 162 203 247 308 364
#     4  10  22  42  68  97 122 154 193 248 312 378
#     4  10  21  37  60  86 118 157 205 255 311 372
#     4  11  22  34  50  80 114 154 213 257 306 351
#
# _framework density 21.126031999999999
#
# number of rings (size 3 to 8) (size 9 to 14) (size 15 to 20)
#    0.000    1.737    2.368    1.895    4.421    2.526 
#    1.421    0.789    0.000    4.421    0.000    0.000 
#    0.000    0.000    0.000    0.000    0.000    0.000 
#
# Total GULP energy -941987.988930 kJ/mol
# GULP energy per Si atom -12394.578802 kJ/mol
# Density = 2.107795 g / cm^3
# Si number density = 21.126032 Si / 1000 Ang^3
#
#
#
# Elastic Constant Matrix: (Units=GPa)
#
#
# Indices 1 2 3 4 5 6 
#
# 1 93.2016 24.2526 6.6679 0.0000 2.1628 0.0000
# 2 24.2526 93.2016 6.6680 -0.0002 -2.1629 0.0000
# 3 6.6679 6.6680 42.1282 -0.0001 -0.0001 0.0000
# 4 0.0000 -0.0002 -0.0001 22.6536 -0.0001 -2.1629
# 5 2.1628 -2.1629 -0.0001 -0.0001 22.6536 0.0000
# 6 0.0000 0.0000 0.0000 -2.1629 0.0000 34.4745
#
#
#
# Elastic Compliance Matrix: (Units=1/GPa)
#
#
# Indices 1 2 3 4 5 6 
#
# 1 0.011630 -0.002961 -0.001372 0.000000 -0.001393 0.000000
# 2 -0.002961 0.011630 -0.001372 0.000000 0.001393 0.000000
# 3 -0.001372 -0.001372 0.024171 0.000000 0.000000 0.000000
# 4 0.000000 0.000000 0.000000 0.044409 0.000000 0.002786
# 5 -0.001393 0.001393 0.000000 0.000000 0.044409 0.000000
# 6 0.000000 0.000000 0.000000 0.002786 0.000000 0.029182
#
#
# Mechanical properties :
#
#
# Convention : Reuss Voigt Hill
#
# Bulk Modulus (GPa) = 27.76076 33.74538 30.75307
# Shear Modulus (GPa) = 26.47613 28.68587 27.58100
#
# Velocity S-wave (km/s) = 3.54396 3.68889 3.61715
# Velocity P-wave (km/s) = 5.46949 5.84397 5.65983
#
# Compressibility (1/GPa) = 0.03602207
#
# Stress axis : x y z
#
# Youngs Moduli (GPa) = 85.98224 85.98216 41.37108
#
# Poissons Ratio (x) = 0.25455 0.05677
# Poissons Ratio (y) = 0.25455 0.05677
# Poissons Ratio (z) = 0.11799 0.11799
#
# Static dielectric constant tensor:
#      x y z
#    x 3.941780 0.000000 0.000000 
#    y 0.000000 3.941790 0.000000 
#    z 0.000000 0.000000 3.395790 
# 
# 
# High freq. dielectric constant tensor:
#      x y z
#    x 1.834430 0.000000 0.000000 
#    y 0.000000 1.834430 0.000000 
#    z 0.000000 0.000000 1.790540 
# 
# From -- ./inp_files/3150.got.cif
#   From: 2010.03.12/outbox.cif.g09.slc.cpg/sg162_2_cif.got.tgz:3150.got - 2010.04.02 06:27:41.
