data_PCOD8323023
_publ_section_title
;
Structure prediction by ZEFSAII (Michael W. Deem and Ramdas Pophale) SiO2 
 PCOD8323023
Probable space group: P -3 1 M 
;
_chemical_formula_sum "Si O2"
_cell_formula_units_Z 72
_cell_length_a 15.528900
_cell_length_b 15.528900
_cell_length_c 18.118325
_cell_angle_alpha 90.000000
_cell_angle_beta 90.000000
_cell_angle_gamma 120.000000
_cell_volume 3783.816475
_symmetry_space_group_name_H-M "P -3 1 M "
_symmetry_group_IT_number 162
_symmetry_cell_setting 'hexagonal'
loop_
_space_group_symop_operation_xyz
x,y,z
-y,x-y,z
-x+y,-x,z
-y,-x,-z
-x+y,y,-z
x,x-y,-z
-x,-y,-z
y,-x+y,-z
x-y,x,-z
y,x,z
x-y,-y,z
-x,-x+y,z
loop_
_atom_site_type_symbol
_atom_site_label
_atom_site_fract_x
_atom_site_fract_y
_atom_site_fract_z
Si Si1 0.213000 0.439000 0.662189
Si Si2 0.114597 0.229243 0.914171
Si Si3 0.111635 0.549328 0.162158
Si Si4 0.885355 0.770757 0.585829
Si Si5 0.439000 0.226000 0.162189
Si Si6 0.549328 0.111635 0.337842
O O1 0.151249 0.328447 0.632079
O O2 0.210117 0.433168 0.750000
O O3 0.164758 0.503076 0.632474
O O4 0.325465 0.493321 0.631967
O O5 0.177413 0.177413 0.890097
O O6 0.151249 0.328447 0.867921
O O7 0.000000 0.153355 0.895469
O O8 0.128531 0.257061 0.000000
O O9 0.167856 0.493321 0.131967
O O10 0.164758 0.661682 0.132474
O O11 0.112469 0.549564 0.250000
O O12 0.000000 0.491513 0.130989
O O13 0.871470 0.742939 0.500000
O O14 0.846644 0.846644 0.604532
O O15 0.000000 0.822588 0.609903
O O16 0.491513 0.000000 0.369011
#
# Coordination Sequence:
#
# PCOD8323023 Si02
#       6
#    12  12  12  12  12  12
#     4  10  19  33  54  78 104 135 172 212 253 304
#     4  10  21  37  55  75 102 137 175 216 265 317
#     4   9  17  29  47  73 102 129 159 200 250 297
#     4  10  21  37  55  75 102 137 175 216 265 317
#     4  10  19  33  54  78 104 135 172 212 253 304
#     4   9  17  29  47  73 102 129 159 200 250 297
#
# _framework density 19.028407000000001
#
# number of rings (size 3 to 8) (size 9 to 14) (size 15 to 20)
#    0.000    2.333    0.000    3.000    0.000    8.000 
#    0.000    1.667    0.000    8.000    0.000    0.000 
#    0.000    0.000    0.000    0.000    0.000    0.000 
#
# Total GULP energy -892954.741958 kJ/mol
# GULP energy per Si atom -12402.149194 kJ/mol
# Density = 1.898510 g / cm^3
# Si number density = 19.028407 Si / 1000 Ang^3
#
#
#
# Elastic Constant Matrix: (Units=GPa)
#
#
# Indices 1 2 3 4 5 6 
#
# 1 127.0111 34.2418 18.5336 0.0000 0.0000 0.0000
# 2 34.2418 127.0111 18.5336 0.0000 0.0000 0.0000
# 3 18.5336 18.5336 18.8848 0.0000 0.0000 0.0000
# 4 0.0000 0.0000 0.0000 19.5691 0.0000 0.0000
# 5 0.0000 0.0000 0.0000 0.0000 19.5691 0.0000
# 6 0.0000 0.0000 0.0000 0.0000 0.0000 46.3846
#
#
#
# Elastic Compliance Matrix: (Units=1/GPa)
#
#
# Indices 1 2 3 4 5 6 
#
# 1 0.009394 -0.001386 -0.007859 0.000000 0.000000 0.000000
# 2 -0.001386 0.009394 -0.007859 0.000000 0.000000 0.000000
# 3 -0.007859 -0.007859 0.068379 0.000000 0.000000 0.000000
# 4 0.000000 0.000000 0.000000 0.051101 0.000000 0.000000
# 5 0.000000 0.000000 0.000000 0.000000 0.051101 0.000000
# 6 0.000000 0.000000 0.000000 0.000000 0.000000 0.021559
#
#
# Mechanical properties :
#
#
# Convention : Reuss Voigt Hill
#
# Bulk Modulus (GPa) = 18.88282 46.16944 32.52613
# Shear Modulus (GPa) = 19.02677 30.54441 24.78559
#
# Velocity S-wave (km/s) = 3.16557 4.01084 3.61301
# Velocity P-wave (km/s) = 4.82765 6.76500 5.87671
#
# Compressibility (1/GPa) = 0.05295819
#
# Stress axis : x y z
#
# Youngs Moduli (GPa) = 106.45406 106.45406 14.62446
#
# Poissons Ratio (x) = 0.14751 0.11494
# Poissons Ratio (y) = 0.14751 0.11494
# Poissons Ratio (z) = 0.83663 0.83663
#
# Static dielectric constant tensor:
#      x y z
#    x 3.713520 0.000000 0.000000 
#    y 0.000000 3.713520 0.000000 
#    z 0.000000 0.000000 3.003430 
# 
# 
# High freq. dielectric constant tensor:
#      x y z
#    x 1.759800 0.000000 0.000000 
#    y 0.000000 1.759800 0.000000 
#    z 0.000000 0.000000 1.689220 
# 
# From -- ./inp_files/3516.got.cif
#   From: 2010.03.12/outbox.cif.g09.slc.cpg/sg162_2_cif.got.tgz:3516.got - 2010.04.02 06:27:41.
