data_PCOD8323298
_publ_section_title
;
Structure prediction by ZEFSAII (Michael W. Deem and Ramdas Pophale) SiO2 
 PCOD8323298
Probable space group: P -3 1 C
;
_chemical_formula_sum "Si O2"
_cell_formula_units_Z 48
_cell_length_a 18.149340
_cell_length_b 18.149340
_cell_length_c 8.070755
_cell_angle_alpha 90.000000
_cell_angle_beta 90.000000
_cell_angle_gamma 120.000000
_cell_volume 2302.324148
_symmetry_space_group_name_H-M "P -3 1 C"
_symmetry_group_IT_number 163
_symmetry_cell_setting 'hexagonal'
loop_
_space_group_symop_operation_xyz
x,y,z
-y,x-y,z
-x+y,-x,z
-y,-x,1/2-z
-x+y,y,1/2-z
x,x-y,1/2-z
-x,-y,-z
y,-x+y,-z
x-y,x,-z
y,x,1/2+z
x-y,-y,1/2+z
-x,-x+y,1/2+z
loop_
_atom_site_type_symbol
_atom_site_label
_atom_site_fract_x
_atom_site_fract_y
_atom_site_fract_z
Si Si1 0.077310 0.343174 0.102538
Si Si2 0.343410 0.105688 0.986059
Si Si3 0.828983 0.363386 0.588026
Si Si4 0.692181 0.215501 0.411655
O O1 0.138085 0.315266 0.005983
O O2 0.093377 0.356854 0.296125
O O3 0.095137 0.437491 0.049635
O O4 0.984675 0.263425 0.066232
O O5 0.427868 0.137601 0.094881
O O6 0.841683 0.420842 0.750000
O O7 0.740014 0.272535 0.577669
O O8 0.824926 0.416119 0.430449
O O9 0.726147 0.273854 0.250000
#
# Coordination Sequence:
#
# PCOD8323298 Si02
#       4
#    12  12  12  12
#     4  10  23  42  66  97 126 168 212 262 326 391
#     4  10  23  42  65  95 127 164 210 262 330 386
#     4  11  21  40  59  85 127 176 216 270 315 364
#     4  11  23  38  59  88 125 172 225 269 313 367
#
# _framework density 20.848497999999999
#
# number of rings (size 3 to 8) (size 9 to 14) (size 15 to 20)
#    0.000    1.500    2.500    2.000    7.000    1.000 
#    0.000    0.000    0.000    0.500    0.000    0.000 
#    0.000    0.000    0.000    0.000    0.000    0.000 
#
# Total GULP energy -594651.597066 kJ/mol
# GULP energy per Si atom -12388.574939 kJ/mol
# Density = 2.080105 g / cm^3
# Si number density = 20.848498 Si / 1000 Ang^3
#
#
#
# Elastic Constant Matrix: (Units=GPa)
#
#
# Indices 1 2 3 4 5 6 
#
# 1 114.2158 63.8308 29.4835 0.0000 -1.7857 0.0000
# 2 63.8308 114.2158 29.4835 0.0000 1.7857 0.0000
# 3 29.4835 29.4835 67.4570 0.0000 0.0000 0.0000
# 4 0.0000 0.0000 0.0000 29.6538 0.0000 1.7857
# 5 -1.7857 1.7857 0.0000 0.0000 29.6538 0.0000
# 6 0.0000 0.0000 0.0000 1.7857 0.0000 25.1925
#
#
#
# Elastic Compliance Matrix: (Units=1/GPa)
#
#
# Indices 1 2 3 4 5 6 
#
# 1 0.013250 -0.006683 -0.002870 0.000000 0.001200 0.000000
# 2 -0.006683 0.013250 -0.002870 0.000000 -0.001200 0.000000
# 3 -0.002870 -0.002870 0.017333 0.000000 0.000000 0.000000
# 4 0.000000 0.000000 0.000000 0.033867 0.000000 -0.002401
# 5 0.001200 -0.001200 0.000000 0.000000 0.033867 0.000000
# 6 0.000000 0.000000 0.000000 -0.002401 0.000000 0.039864
#
#
# Mechanical properties :
#
#
# Convention : Reuss Voigt Hill
#
# Bulk Modulus (GPa) = 52.66941 60.16491 56.41716
# Shear Modulus (GPa) = 27.38130 28.43941 27.91036
#
# Velocity S-wave (km/s) = 3.62794 3.69738 3.66283
# Velocity P-wave (km/s) = 6.54730 6.86646 6.70878
#
# Compressibility (1/GPa) = 0.01898635
#
# Stress axis : x y z
#
# Youngs Moduli (GPa) = 75.47353 75.47353 57.69247
#
# Poissons Ratio (x) = 0.50436 0.16559
# Poissons Ratio (y) = 0.50436 0.16559
# Poissons Ratio (z) = 0.21663 0.21663
#
# Static dielectric constant tensor:
#      x y z
#    x 4.273250 0.000000 0.000000 
#    y 0.000000 4.273250 0.000000 
#    z 0.000000 0.000000 3.763670 
# 
# 
# High freq. dielectric constant tensor:
#      x y z
#    x 1.795580 0.000000 0.000000 
#    y 0.000000 1.795580 0.000000 
#    z 0.000000 0.000000 1.824580 
# 
# From -- ./inp_files/851.got.cif
#   From: 2010.03.12/outbox.cif.g09.slc.cpg/sg163_1_cif.got.tgz:851.got - 2010.04.02 06:30:25.
