data_PCOD8323108
_publ_section_title
;
Structure prediction by ZEFSAII (Michael W. Deem and Ramdas Pophale) SiO2 
 PCOD8323108
Probable space group: P -3 1 M 
;
_chemical_formula_sum "Si O2"
_cell_formula_units_Z 72
_cell_length_a 14.632340
_cell_length_b 14.632340
_cell_length_c 18.237320
_cell_angle_alpha 90.000000
_cell_angle_beta 90.000000
_cell_angle_gamma 120.000000
_cell_volume 3381.576510
_symmetry_space_group_name_H-M "P -3 1 M "
_symmetry_group_IT_number 162
_symmetry_cell_setting 'hexagonal'
loop_
_space_group_symop_operation_xyz
x,y,z
-y,x-y,z
-x+y,-x,z
-y,-x,-z
-x+y,y,-z
x,x-y,-z
-x,-y,-z
y,-x+y,-z
x-y,x,-z
y,x,z
x-y,-y,z
-x,-x+y,z
loop_
_atom_site_type_symbol
_atom_site_label
_atom_site_fract_x
_atom_site_fract_y
_atom_site_fract_z
Si Si1 0.117474 0.235944 0.082807
Si Si2 0.878605 0.662011 0.421301
Si Si3 0.120059 0.571457 0.420720
Si Si4 0.768267 0.212781 0.841364
Si Si5 0.122536 0.415753 0.313513
Si Si6 0.552213 0.430281 0.084919
O O1 0.198753 0.198753 0.108339
O O2 0.125557 0.327958 0.133967
O O3 0.000000 0.136621 0.088376
O O4 0.139949 0.279898 0.000000
O O5 0.828677 0.657354 0.500000
O O6 0.873250 0.553179 0.397833
O O7 0.803975 0.673924 0.361570
O O8 0.000000 0.757864 0.418378
O O9 0.177122 0.588561 0.500000
O O10 0.166832 0.525513 0.359826
O O11 0.000000 0.477592 0.430028
O O12 0.757349 0.203722 0.753860
O O13 0.858175 0.323228 0.875624
O O14 0.658524 0.192717 0.872052
O O15 0.000000 0.367558 0.288596
O O16 0.515776 0.515776 0.093894
O O17 0.577622 0.422378 0.000000
#
# Coordination Sequence:
#
# PCOD8323108 Si02
#       6
#    12  12  12  12  12  12
#     4  10  20  37  63  93 123 160 211 269 325 383
#     4  11  22  39  66  96 128 170 218 266 323 386
#     4   9  18  37  62  87 120 161 207 260 315 378
#     4  12  25  41  63  91 130 172 214 266 329 399
#     4  11  24  42  63  92 132 171 214 269 330 392
#     4  11  24  43  67  94 126 170 222 270 322 390
#
# _framework density 21.291846
#
# number of rings (size 3 to 8) (size 9 to 14) (size 15 to 20)
#    0.000    1.333    1.667    4.500    2.333    4.667 
#    1.000    0.833    0.000    3.000    0.000    0.000 
#    0.000    0.000    0.000    0.000    0.000    0.000 
#
# Total GULP energy -892634.960487 kJ/mol
# GULP energy per Si atom -12397.707785 kJ/mol
# Density = 2.124338 g / cm^3
# Si number density = 21.291846 Si / 1000 Ang^3
#
#
#
# Elastic Constant Matrix: (Units=GPa)
#
#
# Indices 1 2 3 4 5 6 
#
# 1 75.2325 17.5227 36.2521 0.0000 -1.3808 0.0000
# 2 17.5227 75.2325 36.2521 0.0000 1.3808 0.0000
# 3 36.2521 36.2521 147.3585 0.0000 0.0000 0.0000
# 4 0.0000 0.0000 0.0000 16.3525 0.0000 1.3808
# 5 -1.3808 1.3808 0.0000 0.0000 16.3525 0.0000
# 6 0.0000 0.0000 0.0000 1.3808 0.0000 28.8549
#
#
#
# Elastic Compliance Matrix: (Units=1/GPa)
#
#
# Indices 1 2 3 4 5 6 
#
# 1 0.015373 -0.002025 -0.003284 0.000000 0.001469 0.000000
# 2 -0.002025 0.015373 -0.003284 0.000000 -0.001469 0.000000
# 3 -0.003284 -0.003284 0.008402 0.000000 0.000000 0.000000
# 4 0.000000 0.000000 0.000000 0.061401 0.000000 -0.002938
# 5 0.001469 -0.001469 0.000000 0.000000 0.061401 0.000000
# 6 0.000000 0.000000 0.000000 -0.002938 0.000000 0.034797
#
#
# Mechanical properties :
#
#
# Convention : Reuss Voigt Hill
#
# Bulk Modulus (GPa) = 45.53191 53.09749 49.31470
# Shear Modulus (GPa) = 22.59854 26.16507 24.38180
#
# Velocity S-wave (km/s) = 3.26140 3.50934 3.38764
# Velocity P-wave (km/s) = 5.96770 6.43527 6.20589
#
# Compressibility (1/GPa) = 0.02196262
#
# Stress axis : x y z
#
# Youngs Moduli (GPa) = 65.04852 65.04852 119.02127
#
# Poissons Ratio (x) = 0.13174 0.39084
# Poissons Ratio (y) = 0.13174 0.39084
# Poissons Ratio (z) = 0.21360 0.21360
#
# Static dielectric constant tensor:
#      x y z
#    x 3.736810 0.000000 0.000000 
#    y 0.000000 3.736810 0.000000 
#    z 0.000000 0.000000 3.915340 
# 
# 
# High freq. dielectric constant tensor:
#      x y z
#    x 1.829370 0.000000 0.000000 
#    y 0.000000 1.829370 0.000000 
#    z 0.000000 0.000000 1.833340 
# 
# From -- ./inp_files/3515.got.cif
#   From: 2010.03.12/outbox.cif.g09.slc.cpg/sg162_2_cif.got.tgz:3515.got - 2010.04.02 06:27:41.
