data_PCOD8323219
_publ_section_title
;
Structure prediction by ZEFSAII (Michael W. Deem and Ramdas Pophale) SiO2 
 PCOD8323219
Probable space group: P -3 1 C
;
_chemical_formula_sum "Si O2"
_cell_formula_units_Z 84
_cell_length_a 32.251521
_cell_length_b 32.251521
_cell_length_c 5.037679
_cell_angle_alpha 90.000000
_cell_angle_beta 90.000000
_cell_angle_gamma 120.000000
_cell_volume 4537.968998
_symmetry_space_group_name_H-M "P -3 1 C"
_symmetry_group_IT_number 163
_symmetry_cell_setting 'hexagonal'
loop_
_space_group_symop_operation_xyz
x,y,z
-y,x-y,z
-x+y,-x,z
-y,-x,1/2-z
-x+y,y,1/2-z
x,x-y,1/2-z
-x,-y,-z
y,-x+y,-z
x-y,x,-z
y,x,1/2+z
x-y,-y,1/2+z
-x,-x+y,1/2+z
loop_
_atom_site_type_symbol
_atom_site_label
_atom_site_fract_x
_atom_site_fract_y
_atom_site_fract_z
Si Si1 0.969708 0.748253 0.704810
Si Si2 0.173567 0.541922 0.304135
Si Si3 0.121001 0.689180 0.189796
Si Si4 0.683281 0.456875 0.288794
Si Si5 0.739141 0.567045 0.297364
Si Si6 0.837266 0.966789 0.285826
Si Si7 0.340374 0.308866 0.823764
O O1 0.943516 0.779039 0.765454
O O2 0.941740 0.691299 0.777463
O O3 0.983041 0.754114 0.393907
O O4 0.149466 0.574733 0.250000
O O5 0.131270 0.486460 0.316677
O O6 0.203233 0.562799 0.576087
O O7 0.213097 0.549889 0.084546
O O8 0.156006 0.729069 0.399121
O O9 0.066706 0.670081 0.277048
O O10 0.127441 0.714874 0.905374
O O11 0.715954 0.431907 0.250000
O O12 0.716116 0.512163 0.210862
O O13 0.796341 0.592681 0.250000
O O14 0.849670 0.924835 0.250000
O O15 0.856253 0.991548 0.569639
O O16 0.321344 0.334491 0.623838
#
# Coordination Sequence:
#
# PCOD8323219 Si02
#       7
#    12  12  12  12  12  12  12
#     4   8  16  30  49  70  92 121 157 199 242 285
#     4  10  19  31  49  72  97 128 164 203 245 292
#     4  10  19  31  50  73  98 130 166 203 246 300
#     4   9  17  30  49  68  89 120 156 193 237 290
#     4   9  17  30  47  70  96 121 151 190 241 298
#     4  10  19  33  53  75 100 132 169 204 241 285
#     4  10  19  33  52  72  97 130 169 210 252 300
#
# _framework density 18.510484999999999
#
# number of rings (size 3 to 8) (size 9 to 14) (size 15 to 20)
#    0.000    2.571    0.000    2.571    0.000    3.429 
#    0.000    1.429    0.000    9.429    0.000    0.000 
#    0.000    0.000    0.000    0.000    0.000    0.000 
#
# Total GULP energy -1040834.686012 kJ/mol
# GULP energy per Si atom -12390.889119 kJ/mol
# Density = 1.846835 g / cm^3
# Si number density = 18.510485 Si / 1000 Ang^3
#
#
#
# Elastic Constant Matrix: (Units=GPa)
#
#
# Indices 1 2 3 4 5 6 
#
# 1 66.9052 33.3680 2.6414 0.0000 -2.1579 0.0000
# 2 33.3680 66.9052 2.6414 0.0000 2.1579 0.0000
# 3 2.6414 2.6414 75.8773 0.0000 0.0000 0.0000
# 4 0.0000 0.0000 0.0000 20.5605 0.0000 2.1579
# 5 -2.1579 2.1579 0.0000 0.0000 20.5605 0.0000
# 6 0.0000 0.0000 0.0000 2.1579 0.0000 16.7686
#
#
#
# Elastic Compliance Matrix: (Units=1/GPa)
#
#
# Indices 1 2 3 4 5 6 
#
# 1 0.020108 -0.010117 -0.000348 0.000000 0.003172 0.000000
# 2 -0.010117 0.020108 -0.000348 0.000000 -0.003172 0.000000
# 3 -0.000348 -0.000348 0.013203 0.000000 0.000000 0.000000
# 4 0.000000 0.000000 0.000000 0.049303 0.000000 -0.006345
# 5 0.003172 -0.003172 0.000000 0.000000 0.049303 0.000000
# 6 0.000000 0.000000 0.000000 -0.006345 0.000000 0.060452
#
#
# Mechanical properties :
#
#
# Convention : Reuss Voigt Hill
#
# Bulk Modulus (GPa) = 31.45215 31.88770 31.66993
# Shear Modulus (GPa) = 20.43305 22.98040 21.70672
#
# Velocity S-wave (km/s) = 3.32605 3.52729 3.42814
# Velocity P-wave (km/s) = 5.63725 5.81835 5.72852
#
# Compressibility (1/GPa) = 0.03179433
#
# Stress axis : x y z
#
# Youngs Moduli (GPa) = 49.73033 49.73033 75.73812
#
# Poissons Ratio (x) = 0.50314 0.02634
# Poissons Ratio (y) = 0.50314 0.02634
# Poissons Ratio (z) = 0.01730 0.01730
#
# Static dielectric constant tensor:
#      x y z
#    x 3.196420 0.000000 0.000000 
#    y 0.000000 3.196420 0.000000 
#    z 0.000000 0.000000 3.551440 
# 
# 
# High freq. dielectric constant tensor:
#      x y z
#    x 1.684700 0.000000 0.000000 
#    y 0.000000 1.684700 0.000000 
#    z 0.000000 0.000000 1.744250 
# 
# From -- ./inp_files/452.got.cif
#   From: 2010.03.12/outbox.cif.g09.slc.cpg/sg163_1_cif.got.tgz:452.got - 2010.04.02 06:30:25.
