data_PCOD8323954
_publ_section_title
;
Structure prediction by ZEFSAII (Michael W. Deem and Ramdas Pophale) SiO2 
 PCOD8323954
Probable space group: P -3 C 1
;
_chemical_formula_sum "Si O2"
_cell_formula_units_Z 48
_cell_length_a 11.952152
_cell_length_b 11.952152
_cell_length_c 18.523895
_cell_angle_alpha 90.000000
_cell_angle_beta 90.000000
_cell_angle_gamma 120.000000
_cell_volume 2291.686242
_symmetry_space_group_name_H-M "P -3 C 1"
_symmetry_group_IT_number 165
_symmetry_cell_setting 'hexagonal'
loop_
_space_group_symop_operation_xyz
x,y,z
-y,x-y,z
-x+y,-x,z
x-y,-y,1/2-z
-x,-x+y,1/2-z
y,x,1/2-z
-x,-y,-z
y,-x+y,-z
x-y,x,-z
-x+y,y,1/2+z
x,x-y,1/2+z
-y,-x,1/2+z
loop_
_atom_site_type_symbol
_atom_site_label
_atom_site_fract_x
_atom_site_fract_y
_atom_site_fract_z
Si Si1 0.666668 0.333335 0.269103
Si Si2 0.333335 0.666668 0.401005
Si Si3 0.042037 0.769316 0.166554
Si Si4 0.437465 0.487853 0.423044
Si Si5 0.914474 0.339066 0.316301
Si Si6 0.000000 0.000000 0.835039
O O1 0.666668 0.333334 0.184348
O O2 0.811133 0.383565 0.296858
O O3 0.348330 0.550804 0.431605
O O4 0.194784 0.844607 0.155277
O O5 0.991251 0.865791 0.140013
O O6 0.000000 0.721225 0.250000
O O7 0.993650 0.652353 0.110291
O O8 0.500000 0.500000 0.500000
O O9 0.559745 0.573188 0.372726
O O10 0.000000 0.341337 0.250000
O O11 0.000000 0.000000 0.750000
#
# Coordination Sequence:
#
# PCOD8323954 Si02
#       6
#     4   4  12  12  12   4
#     4  12  21  40  71 106 132 178 233 292 345 400
#     4  12  27  46  71 103 138 175 242 286 345 406
#     4  11  23  45  71 104 138 174 231 286 353 410
#     4  12  29  44  68  99 141 187 226 282 341 419
#     4  12  23  41  71 100 136 177 230 284 345 407
#     4   9  21  39  75 106 134 172 220 296 355 420
#
# _framework density 20.945277000000001
#
# number of rings (size 3 to 8) (size 9 to 14) (size 15 to 20)
#    0.000    0.500    5.000    4.500    7.000    0.000 
#    0.000    0.000    0.000    1.500    0.000    0.000 
#    0.000    0.000    0.000    0.000    0.000    0.000 
#
# Total GULP energy -595147.153810 kJ/mol
# GULP energy per Si atom -12398.899038 kJ/mol
# Density = 2.089760 g / cm^3
# Si number density = 20.945277 Si / 1000 Ang^3
#
#
#
# Elastic Constant Matrix: (Units=GPa)
#
#
# Indices 1 2 3 4 5 6 
#
# 1 143.7482 58.3892 45.9724 2.1459 0.0000 0.0000
# 2 58.3892 143.7496 45.9724 -2.1461 0.0000 0.0000
# 3 45.9724 45.9724 100.9250 -0.0068 0.0000 0.0000
# 4 2.1459 -2.1461 -0.0068 -29.1730 0.0000 0.0000
# 5 0.0000 0.0000 0.0000 0.0000 -29.0627 2.1345
# 6 0.0000 0.0000 0.0000 0.0000 2.1345 42.6803
#
#
#
# Elastic Compliance Matrix: (Units=1/GPa)
#
#
# Indices 1 2 3 4 5 6 
#
# 1 0.008956 -0.002716 -0.002842 0.000859 0.000000 0.000000
# 2 -0.002716 0.008956 -0.002842 -0.000858 0.000000 0.000000
# 3 -0.002842 -0.002842 0.012498 -0.000003 0.000000 0.000000
# 4 0.000859 -0.000858 -0.000003 -0.034152 0.000000 0.000000
# 5 0.000000 0.000000 0.000000 0.000000 -0.034282 0.001715
# 6 0.000000 0.000000 0.000000 0.000000 0.001715 0.023344
#
#
# Mechanical properties :
#
#
# Convention : Reuss Voigt Hill
#
# Bulk Modulus (GPa) = 73.48466 76.56564 75.02515
# Shear Modulus (GPa) = 751.06180 12.76151 381.91165
#
# Velocity S-wave (km/s) = 18.95683 2.47103 13.51790
# Velocity P-wave (km/s) = 22.67838 6.69147 16.71952
#
# Compressibility (1/GPa) = 0.01360828
#
# Stress axis : x y z
#
# Youngs Moduli (GPa) = 111.65701 111.65746 80.01390
#
# Poissons Ratio (x) = 0.30326 0.22743
# Poissons Ratio (y) = 0.30326 0.22743
# Poissons Ratio (z) = 0.31737 0.31738
#
# Static dielectric constant tensor:
#      x y z
#    x 3.935630 0.000000 0.000000 
#    y 0.000000 3.935640 -0.000020 
#    z 0.000000 -0.000020 3.224540 
# 
# 
# High freq. dielectric constant tensor:
#      x y z
#    x 1.841160 0.000000 0.000000 
#    y 0.000000 1.841160 0.000000 
#    z 0.000000 0.000000 1.789780 
# 
# From -- ./inp_files/2553.got.cif
#   From: 2010.03.12/outbox.cif.g09.slc.cpg/sg165_2_cif.got.tgz:2553.got - 2010.04.02 06:36:38.
