data_PCOD8323011
_publ_section_title
;
Structure prediction by ZEFSAII (Michael W. Deem and Ramdas Pophale) SiO2 
 PCOD8323011
Probable space group: P -3 1 M 
;
_chemical_formula_sum "Si O2"
_cell_formula_units_Z 48
_cell_length_a 16.385694
_cell_length_b 16.385694
_cell_length_c 11.886511
_cell_angle_alpha 90.000000
_cell_angle_beta 90.000000
_cell_angle_gamma 120.000000
_cell_volume 2763.851524
_symmetry_space_group_name_H-M "P -3 1 M "
_symmetry_group_IT_number 162
_symmetry_cell_setting 'hexagonal'
loop_
_space_group_symop_operation_xyz
x,y,z
-y,x-y,z
-x+y,-x,z
-y,-x,-z
-x+y,y,-z
x,x-y,-z
-x,-y,-z
y,-x+y,-z
x-y,x,-z
y,x,z
x-y,-y,z
-x,-x+y,z
loop_
_atom_site_type_symbol
_atom_site_label
_atom_site_fract_x
_atom_site_fract_y
_atom_site_fract_z
Si Si1 0.716512 0.606532 0.735837
Si Si2 0.358224 0.464893 0.493104
Si Si3 0.555402 0.110352 0.124692
Si Si4 0.602300 0.892751 0.739373
O O1 0.688763 0.688763 0.743304
O O2 0.714373 0.567146 0.610107
O O3 0.651259 0.518562 0.814673
O O4 0.825559 0.645748 0.771598
O O5 0.420793 0.579208 0.500000
O O6 0.429817 0.429817 0.455115
O O7 0.305360 0.417330 0.607005
O O8 0.497661 0.148018 0.196540
O O9 0.487601 0.000000 0.114586
O O10 0.578176 0.156351 0.000000
O O11 0.677902 0.000000 0.774796
#
# Coordination Sequence:
#
# PCOD8323011 Si02
#       4
#    12  12  12  12
#     4  10  19  32  51  73  99 131 166 202 242 288
#     4   9  15  28  49  70  93 123 158 198 244 290
#     4   9  18  33  51  69  93 126 161 199 243 291
#     4  10  19  32  51  73  99 131 166 202 242 288
#
# _framework density 17.367069999999998
#
# number of rings (size 3 to 8) (size 9 to 14) (size 15 to 20)
#    0.000    2.500    2.500    0.750    0.000    1.000 
#    1.500    0.000    0.000    0.500    0.000    0.000 
#    0.000    6.000    0.000   12.500    0.000    0.000 
#
# Total GULP energy -594719.933600 kJ/mol
# GULP energy per Si atom -12389.998617 kJ/mol
# Density = 1.732754 g / cm^3
# Si number density = 17.367070 Si / 1000 Ang^3
#
#
#
# Elastic Constant Matrix: (Units=GPa)
#
#
# Indices 1 2 3 4 5 6 
#
# 1 90.5520 50.5049 17.4347 0.0000 0.7406 0.0000
# 2 50.5049 90.5520 17.4347 0.0000 -0.7406 0.0000
# 3 17.4347 17.4347 104.9430 0.0000 0.0000 0.0000
# 4 0.0000 0.0000 0.0000 4.4256 0.0000 -0.7406
# 5 0.7406 -0.7406 0.0000 0.0000 4.4256 0.0000
# 6 0.0000 0.0000 0.0000 -0.7406 0.0000 20.0236
#
#
#
# Elastic Compliance Matrix: (Units=1/GPa)
#
#
# Indices 1 2 3 4 5 6 
#
# 1 0.016260 -0.008867 -0.001228 0.000000 -0.004205 0.000000
# 2 -0.008867 0.016260 -0.001228 0.000000 0.004205 0.000000
# 3 -0.001228 -0.001228 0.009937 0.000000 0.000000 0.000000
# 4 0.000000 0.000000 0.000000 0.227365 0.000000 0.008409
# 5 -0.004205 0.004205 0.000000 0.000000 0.227365 0.000000
# 6 0.000000 0.000000 0.000000 0.008409 0.000000 0.050252
#
#
# Mechanical properties :
#
#
# Convention : Reuss Voigt Hill
#
# Bulk Modulus (GPa) = 50.47935 50.75507 50.61721
# Shear Modulus (GPa) = 8.67021 19.15314 13.91167
#
# Velocity S-wave (km/s) = 2.23678 3.32451 2.83333
# Velocity P-wave (km/s) = 5.98332 6.63512 6.31763
#
# Compressibility (1/GPa) = 0.01981008
#
# Stress axis : x y z
#
# Youngs Moduli (GPa) = 61.50239 61.50239 100.63316
#
# Poissons Ratio (x) = 0.54532 0.12360
# Poissons Ratio (y) = 0.54532 0.12360
# Poissons Ratio (z) = 0.07554 0.07554
#
# Static dielectric constant tensor:
#      x y z
#    x 3.056870 0.000000 0.000000 
#    y 0.000000 3.056870 0.000000 
#    z 0.000000 0.000000 3.490340 
# 
# 
# High freq. dielectric constant tensor:
#      x y z
#    x 1.642850 0.000000 0.000000 
#    y 0.000000 1.642850 0.000000 
#    z 0.000000 0.000000 1.680290 
# 
# From -- ./inp_files/2143.got.cif
#   From: 2010.03.12/outbox.cif.g09.slc.cpg/sg162_2_cif.got.tgz:2143.got - 2010.04.02 06:27:41.
