data_PCOD8323908
_publ_section_title
;
Structure prediction by ZEFSAII (Michael W. Deem and Ramdas Pophale) SiO2 
 PCOD8323908
Probable space group: P -3 C 1
;
_chemical_formula_sum "Si O2"
_cell_formula_units_Z 84
_cell_length_a 18.402475
_cell_length_b 18.402475
_cell_length_c 13.611095
_cell_angle_alpha 90.000000
_cell_angle_beta 90.000000
_cell_angle_gamma 120.000000
_cell_volume 3991.867980
_symmetry_space_group_name_H-M "P -3 C 1"
_symmetry_group_IT_number 165
_symmetry_cell_setting 'hexagonal'
loop_
_space_group_symop_operation_xyz
x,y,z
-y,x-y,z
-x+y,-x,z
x-y,-y,1/2-z
-x,-x+y,1/2-z
y,x,1/2-z
-x,-y,-z
y,-x+y,-z
x-y,x,-z
-x+y,y,1/2+z
x,x-y,1/2+z
-y,-x,1/2+z
loop_
_atom_site_type_symbol
_atom_site_label
_atom_site_fract_x
_atom_site_fract_y
_atom_site_fract_z
Si Si1 0.475742 0.869539 0.550581
Si Si2 0.237687 0.950184 0.432152
Si Si3 0.833863 0.000000 0.250000
Si Si4 0.943939 0.393126 0.071324
Si Si5 0.832285 0.000000 0.750000
Si Si6 0.551659 0.389155 0.724298
Si Si7 0.281271 0.789740 0.869514
Si Si8 0.698039 0.911903 0.413756
O O1 0.402628 0.888709 0.516132
O O2 0.464196 0.833741 0.660643
O O3 0.480522 0.801537 0.479279
O O4 0.561310 0.958310 0.543733
O O5 0.295031 0.909375 0.407484
O O6 0.214947 0.985918 0.338767
O O7 0.149866 0.873285 0.470870
O O8 0.296438 0.022726 0.506834
O O9 0.845623 0.922315 0.219049
O O10 0.767875 0.970055 0.336769
O O11 0.930123 0.430161 0.174282
O O12 0.520420 0.306277 0.655636
O O13 0.648693 0.457348 0.712620
O O14 0.248551 0.856713 0.859979
#
# Coordination Sequence:
#
# PCOD8323908 Si02
#       8
#    12  12   6  12   6  12  12  12
#     4  10  23  41  64  91 131 170 216 287 340 391
#     4  11  22  39  65  92 131 168 217 266 335 389
#     4  10  23  42  64  99 136 172 224 268 331 396
#     4  10  21  39  63  94 124 169 221 272 335 408
#     4  10  23  40  68  97 134 182 216 274 331 406
#     4  11  24  42  65  93 131 178 226 273 345 411
#     4  11  24  43  63  97 130 172 230 281 334 414
#     4  11  23  42  63  98 133 172 216 280 327 398
#
# _framework density 21.042778999999999
#
# number of rings (size 3 to 8) (size 9 to 14) (size 15 to 20)
#    0.000    1.429    2.857    1.714    2.000    3.429 
#    2.571    0.000    0.000    4.571    0.000    0.000 
#    0.000    0.000    0.000    0.000    0.000    0.000 
#
# Total GULP energy -1040666.908289 kJ/mol
# GULP energy per Si atom -12388.891765 kJ/mol
# Density = 2.099488 g / cm^3
# Si number density = 21.042779 Si / 1000 Ang^3
#
#
#
# Elastic Constant Matrix: (Units=GPa)
#
#
# Indices 1 2 3 4 5 6 
#
# 1 135.6600 34.0121 49.5789 5.0721 0.0000 0.0000
# 2 34.0121 135.6600 49.5789 -5.0721 0.0000 0.0000
# 3 49.5789 49.5789 115.3981 0.0000 0.0000 0.0000
# 4 5.0721 -5.0721 0.0000 30.8838 0.0000 0.0000
# 5 0.0000 0.0000 0.0000 0.0000 30.8838 5.0721
# 6 0.0000 0.0000 0.0000 0.0000 5.0721 50.8240
#
#
#
# Elastic Compliance Matrix: (Units=1/GPa)
#
#
# Indices 1 2 3 4 5 6 
#
# 1 0.008936 -0.001066 -0.003381 -0.001643 0.000000 0.000000
# 2 -0.001066 0.008936 -0.003381 0.001643 0.000000 0.000000
# 3 -0.003381 -0.003381 0.011571 0.000000 0.000000 0.000000
# 4 -0.001643 0.001643 0.000000 0.032919 0.000000 0.000000
# 5 0.000000 0.000000 0.000000 0.000000 0.032919 -0.003285
# 6 0.000000 0.000000 0.000000 0.000000 -0.003285 0.020004
#
#
# Mechanical properties :
#
#
# Convention : Reuss Voigt Hill
#
# Bulk Modulus (GPa) = 72.53777 72.56200 72.54989
# Shear Modulus (GPa) = 36.89064 39.42151 38.15608
#
# Velocity S-wave (km/s) = 4.19158 4.33297 4.26286
# Velocity P-wave (km/s) = 7.61395 7.71951 7.66691
#
# Compressibility (1/GPa) = 0.01378592
#
# Stress axis : x y z
#
# Youngs Moduli (GPa) = 111.91032 111.91032 86.42375
#
# Poissons Ratio (x) = 0.11931 0.29220
# Poissons Ratio (y) = 0.11931 0.29220
# Poissons Ratio (z) = 0.37838 0.37838
#
# Static dielectric constant tensor:
#      x y z
#    x 3.924830 0.000000 0.000000 
#    y 0.000000 3.924830 0.000000 
#    z 0.000000 0.000000 3.719520 
# 
# 
# High freq. dielectric constant tensor:
#      x y z
#    x 1.837990 0.000000 0.000000 
#    y 0.000000 1.837990 0.000000 
#    z 0.000000 0.000000 1.807010 
# 
# From -- ./inp_files/1894.got.cif
#   From: 2010.03.12/outbox.cif.g09.slc.cpg/sg165_1_cif.got.tgz:1894.got - 2010.04.02 06:36:38.
