data_PCOD8323482
_publ_section_title
;
Structure prediction by ZEFSAII (Michael W. Deem and Ramdas Pophale) SiO2 
 PCOD8323482
Probable space group: P -3 M 1
;
_chemical_formula_sum "Si O2"
_cell_formula_units_Z 60
_cell_length_a 17.362566
_cell_length_b 17.362566
_cell_length_c 13.850902
_cell_angle_alpha 90.000000
_cell_angle_beta 90.000000
_cell_angle_gamma 120.000000
_cell_volume 3616.067323
_symmetry_space_group_name_H-M "P -3 M 1"
_symmetry_group_IT_number 164
_symmetry_cell_setting 'hexagonal'
loop_
_space_group_symop_operation_xyz
x,y,z
-y,x-y,z
-x+y,-x,z
x-y,-y,-z
-x,-x+y,-z
y,x,-z
-x,-y,-z
y,-x+y,-z
x-y,x,-z
-x+y,y,z
x,x-y,z
-y,-x,z
loop_
_atom_site_type_symbol
_atom_site_label
_atom_site_fract_x
_atom_site_fract_y
_atom_site_fract_z
Si Si1 0.414943 0.005302 0.612731
Si Si2 0.914921 0.652177 0.239225
Si Si3 0.177576 0.000093 0.109870
Si Si4 0.491358 0.155872 0.753542
Si Si5 0.585941 0.994190 0.894227
O O1 0.485527 0.971054 0.637363
O O2 0.459335 0.107002 0.649952
O O3 0.396578 0.000000 0.500000
O O4 0.318435 0.949038 0.661927
O O5 0.818537 0.637073 0.261072
O O6 0.980406 0.748516 0.191584
O O7 0.910374 0.582159 0.159888
O O8 0.147654 0.073827 0.115255
O O9 0.094571 0.905430 0.137275
O O10 0.211589 0.000000 0.000000
O O11 0.596290 0.192579 0.767603
O O12 0.471410 0.235705 0.760066
O O13 0.435830 0.085063 0.836984
O O14 0.485936 0.971872 0.899846
O O15 0.625327 0.000000 0.000000
#
# Coordination Sequence:
#
# PCOD8323482 Si02
#       5
#    12  12  12  12  12
#     4   9  19  36  53  67  88 119 151 185 232 287
#     4  10  19  29  45  70  94 116 149 195 235 266
#     4   9  17  29  45  67  97 131 162 190 222 261
#     4   9  17  29  48  73  96 118 148 189 233 273
#     4   9  18  32  47  64  92 130 161 183 219 271
#
# _framework density 16.592610000000001
#
# number of rings (size 3 to 8) (size 9 to 14) (size 15 to 20)
#    0.000    2.800    0.000    2.800    0.000    5.600 
#    0.000    0.000    0.000    3.200    0.000    0.000 
#    0.000    4.000    0.000    0.000    0.000    0.000 
#
# Total GULP energy -743422.934110 kJ/mol
# GULP energy per Si atom -12390.382235 kJ/mol
# Density = 1.655484 g / cm^3
# Si number density = 16.592610 Si / 1000 Ang^3
#
#
#
# Elastic Constant Matrix: (Units=GPa)
#
#
# Indices 1 2 3 4 5 6 
#
# 1 88.9475 57.0964 45.4583 -7.0247 0.0000 0.0000
# 2 57.0964 88.9475 45.4583 7.0247 0.0000 0.0000
# 3 45.4583 45.4583 124.3845 0.0000 0.0000 0.0000
# 4 -7.0247 7.0247 0.0000 18.7342 0.0000 0.0000
# 5 0.0000 0.0000 0.0000 0.0000 18.7342 -7.0247
# 6 0.0000 0.0000 0.0000 0.0000 -7.0247 15.9256
#
#
#
# Elastic Compliance Matrix: (Units=1/GPa)
#
#
# Indices 1 2 3 4 5 6 
#
# 1 0.023241 -0.014377 -0.003239 0.014106 0.000000 0.000000
# 2 -0.014377 0.023241 -0.003239 -0.014106 0.000000 0.000000
# 3 -0.003239 -0.003239 0.010407 0.000000 0.000000 0.000000
# 4 0.014106 -0.014106 0.000000 0.063957 0.000000 0.000000
# 5 0.000000 0.000000 0.000000 0.000000 0.063957 0.028211
# 6 0.000000 0.000000 0.000000 0.000000 0.028211 0.075236
#
#
# Mechanical properties :
#
#
# Convention : Reuss Voigt Hill
#
# Bulk Modulus (GPa) = 65.88742 66.47839 66.18291
# Shear Modulus (GPa) = 16.29675 20.96321 18.62998
#
# Velocity S-wave (km/s) = 3.13736 3.55830 3.35444
# Velocity P-wave (km/s) = 7.27455 7.55209 7.41462
#
# Compressibility (1/GPa) = 0.01517740
#
# Stress axis : x y z
#
# Youngs Moduli (GPa) = 43.02751 43.02751 96.08535
#
# Poissons Ratio (x) = 0.61861 0.31126
# Poissons Ratio (y) = 0.61861 0.31126
# Poissons Ratio (z) = 0.13939 0.13939
#
# Static dielectric constant tensor:
#      x y z
#    x 3.091210 0.000000 0.000000 
#    y 0.000000 3.091210 0.000000 
#    z 0.000000 0.000000 3.185940 
# 
# 
# High freq. dielectric constant tensor:
#      x y z
#    x 1.633360 0.000000 0.000000 
#    y 0.000000 1.633360 0.000000 
#    z 0.000000 0.000000 1.635350 
# 
# From -- ./inp_files/3386.got.cif
#   From: 2010.03.12/outbox.cif.g09.slc.cpg/sg164_2_cif.got.tgz:3386.got - 2010.04.02 06:32:59.
