data_PCOD8323879
_publ_section_title
;
Structure prediction by ZEFSAII (Michael W. Deem and Ramdas Pophale) SiO2 
 PCOD8323879
Probable space group: P -3 C 1
;
_chemical_formula_sum "Si O2"
_cell_formula_units_Z 72
_cell_length_a 21.648281
_cell_length_b 21.648281
_cell_length_c 8.917891
_cell_angle_alpha 90.000000
_cell_angle_beta 90.000000
_cell_angle_gamma 120.000000
_cell_volume 3619.425357
_symmetry_space_group_name_H-M "P -3 C 1"
_symmetry_group_IT_number 165
_symmetry_cell_setting 'hexagonal'
loop_
_space_group_symop_operation_xyz
x,y,z
-y,x-y,z
-x+y,-x,z
x-y,-y,1/2-z
-x,-x+y,1/2-z
y,x,1/2-z
-x,-y,-z
y,-x+y,-z
x-y,x,-z
-x+y,y,1/2+z
x,x-y,1/2+z
-y,-x,1/2+z
loop_
_atom_site_type_symbol
_atom_site_label
_atom_site_fract_x
_atom_site_fract_y
_atom_site_fract_z
Si Si1 0.253737 0.989483 0.581935
Si Si2 0.940124 0.418391 0.132819
Si Si3 0.127505 0.738523 0.884631
Si Si4 0.043213 0.602654 0.384862
Si Si5 0.133172 0.025393 0.914462
Si Si6 0.629947 0.875721 0.538263
O O1 0.275704 0.942421 0.478702
O O2 0.168483 0.952600 0.584990
O O3 0.284478 0.000000 0.750000
O O4 0.289547 0.069331 0.513867
O O5 0.873926 0.336828 0.131328
O O6 0.912836 0.475241 0.165414
O O7 0.000000 0.425394 0.250000
O O8 0.976152 0.434138 0.972482
O O9 0.128423 0.764670 0.716304
O O10 0.197801 0.797118 0.969596
O O11 0.094178 0.673616 0.477799
O O12 0.000000 0.614739 0.250000
O O13 0.099341 0.000000 0.750000
O O14 0.127769 0.093530 0.959201
#
# Coordination Sequence:
#
# PCOD8323879 Si02
#       6
#    12  12  12  12  12  12
#     4  11  23  41  60  84 113 151 195 241 301 359
#     4  10  19  39  62  91 118 159 197 257 307 361
#     4  12  24  38  59  88 128 160 199 244 300 360
#     4  10  21  36  65  90 120 152 207 253 307 363
#     4  11  24  40  58  77 101 136 184 234 286 342
#     4  12  24  38  57  90 125 163 197 247 299 361
#
# _framework density 19.892659999999999
#
# number of rings (size 3 to 8) (size 9 to 14) (size 15 to 20)
#    0.000    1.000    3.333    3.667    2.333    5.333 
#    0.000    0.000    0.000    0.667    0.000    0.000 
#    0.000    0.000    0.000    0.000    0.000    0.000 
#
# Total GULP energy -892139.732108 kJ/mol
# GULP energy per Si atom -12390.829613 kJ/mol
# Density = 1.984738 g / cm^3
# Si number density = 19.892660 Si / 1000 Ang^3
#
#
#
# Elastic Constant Matrix: (Units=GPa)
#
#
# Indices 1 2 3 4 5 6 
#
# 1 79.9660 27.1296 25.8101 -6.1139 0.0000 0.0000
# 2 27.1296 79.9660 25.8101 6.1139 0.0000 0.0000
# 3 25.8101 25.8101 145.5294 0.0000 0.0000 0.0000
# 4 -6.1139 6.1139 0.0000 26.7152 0.0000 0.0000
# 5 0.0000 0.0000 0.0000 0.0000 26.7152 -6.1139
# 6 0.0000 0.0000 0.0000 0.0000 -6.1139 26.4182
#
#
#
# Elastic Compliance Matrix: (Units=1/GPa)
#
#
# Indices 1 2 3 4 5 6 
#
# 1 0.015098 -0.004887 -0.001811 0.004574 0.000000 0.000000
# 2 -0.004887 0.015098 -0.001811 -0.004574 0.000000 0.000000
# 3 -0.001811 -0.001811 0.007514 0.000000 0.000000 0.000000
# 4 0.004574 -0.004574 0.000000 0.039525 0.000000 0.000000
# 5 0.000000 0.000000 0.000000 0.000000 0.039525 0.009147
# 6 0.000000 0.000000 0.000000 0.000000 0.009147 0.039970
#
#
# Mechanical properties :
#
#
# Convention : Reuss Voigt Hill
#
# Bulk Modulus (GPa) = 48.33015 51.44011 49.88513
# Shear Modulus (GPa) = 27.67877 31.08381 29.38129
#
# Velocity S-wave (km/s) = 3.73420 3.95723 3.84733
# Velocity P-wave (km/s) = 6.55291 6.84066 6.69833
#
# Compressibility (1/GPa) = 0.02069102
#
# Stress axis : x y z
#
# Youngs Moduli (GPa) = 66.23599 66.23599 133.08888
#
# Poissons Ratio (x) = 0.32371 0.24100
# Poissons Ratio (y) = 0.32371 0.24100
# Poissons Ratio (z) = 0.11994 0.11994
#
# Static dielectric constant tensor:
#      x y z
#    x 3.609230 0.000000 0.000000 
#    y 0.000000 3.609230 0.000000 
#    z 0.000000 0.000000 4.040150 
# 
# 
# High freq. dielectric constant tensor:
#      x y z
#    x 1.758450 0.000000 0.000000 
#    y 0.000000 1.758450 0.000000 
#    z 0.000000 0.000000 1.803420 
# 
# From -- ./inp_files/780.got.cif
#   From: 2010.03.12/outbox.cif.g09.slc.cpg/sg165_1_cif.got.tgz:780.got - 2010.04.02 06:36:38.
