data_PCOD8323074
_publ_section_title
;
Structure prediction by ZEFSAII (Michael W. Deem and Ramdas Pophale) SiO2 
 PCOD8323074
Probable space group: P -3 1 M 
;
_chemical_formula_sum "Si O2"
_cell_formula_units_Z 96
_cell_length_a 13.942991
_cell_length_b 13.942991
_cell_length_c 25.801654
_cell_angle_alpha 90.000000
_cell_angle_beta 90.000000
_cell_angle_gamma 120.000000
_cell_volume 4344.002563
_symmetry_space_group_name_H-M "P -3 1 M "
_symmetry_group_IT_number 162
_symmetry_cell_setting 'hexagonal'
loop_
_space_group_symop_operation_xyz
x,y,z
-y,x-y,z
-x+y,-x,z
-y,-x,-z
-x+y,y,-z
x,x-y,-z
-x,-y,-z
y,-x+y,-z
x-y,x,-z
y,x,z
x-y,-y,z
-x,-x+y,z
loop_
_atom_site_type_symbol
_atom_site_label
_atom_site_fract_x
_atom_site_fract_y
_atom_site_fract_z
Si Si1 0.555103 0.433580 0.374505
Si Si2 0.297113 0.423905 0.539294
Si Si3 0.124525 0.874045 0.619779
Si Si4 0.793398 0.232191 0.060414
Si Si5 0.443168 0.877435 0.115709
Si Si6 0.760919 0.554555 0.315740
Si Si7 0.567447 0.871592 0.793706
Si Si8 0.873213 0.746528 0.867681
O O1 0.445380 0.445380 0.376525
O O2 0.612938 0.461648 0.431834
O O3 0.642148 0.529178 0.336721
O O4 0.524836 0.316367 0.349532
O O5 0.227756 0.455511 0.500000
O O6 0.363130 0.363130 0.516030
O O7 0.203841 0.338796 0.577874
O O8 0.168090 0.851470 0.674249
O O9 0.000000 0.849059 0.626615
O O10 0.199144 0.000000 0.601958
O O11 0.883467 0.357039 0.075623
O O12 0.686468 0.207297 0.094852
O O13 0.838016 0.148922 0.075482
O O14 0.771386 0.228615 0.000000
O O15 0.386481 0.844973 0.172862
O O16 0.550432 0.000000 0.117581
O O17 0.745596 0.531357 0.254345
O O18 0.649787 0.848407 0.827478
O O19 0.630594 0.000000 0.775404
O O20 0.800282 0.800282 0.851534
O O21 0.000000 0.842110 0.868491
#
# Coordination Sequence:
#
# PCOD8323074 Si02
#       8
#    12  12  12  12  12  12  12  12
#     4  10  22  38  58  87 119 155 201 245 295 360
#     4   9  18  35  59  87 122 162 203 249 300 357
#     4  10  20  34  55  85 120 157 199 248 302 357
#     4  11  22  37  60  88 117 154 199 242 296 366
#     4  10  22  39  58  84 120 156 193 247 306 354
#     4  11  21  38  60  84 119 159 196 244 299 353
#     4   9  20  39  61  87 119 156 202 251 300 359
#     4  10  22  39  58  83 117 158 203 247 290 342
#
# _framework density 22.099433000000001
#
# number of rings (size 3 to 8) (size 9 to 14) (size 15 to 20)
#    0.000    2.000    0.000    5.250    0.000    5.500 
#    0.000    2.500    0.000   11.000    0.000    0.000 
#    0.000    5.000    0.000    0.000    0.000    0.000 
#
# Total GULP energy -1189647.685908 kJ/mol
# GULP energy per Si atom -12392.163395 kJ/mol
# Density = 2.204913 g / cm^3
# Si number density = 22.099433 Si / 1000 Ang^3
#
#
#
# Elastic Constant Matrix: (Units=GPa)
#
#
# Indices 1 2 3 4 5 6 
#
# 1 93.6024 30.0600 41.0505 0.0000 0.6343 0.0000
# 2 30.0600 93.6024 41.0505 0.0000 -0.6343 0.0000
# 3 41.0505 41.0505 118.8234 0.0000 0.0000 0.0000
# 4 0.0000 0.0000 0.0000 22.9620 0.0000 -0.6343
# 5 0.6343 -0.6343 0.0000 0.0000 22.9620 0.0000
# 6 0.0000 0.0000 0.0000 -0.6343 0.0000 31.7712
#
#
#
# Elastic Compliance Matrix: (Units=1/GPa)
#
#
# Indices 1 2 3 4 5 6 
#
# 1 0.013120 -0.002626 -0.003625 0.000000 -0.000435 0.000000
# 2 -0.002626 0.013120 -0.003625 0.000000 0.000435 0.000000
# 3 -0.003625 -0.003625 0.010921 0.000000 0.000000 0.000000
# 4 0.000000 0.000000 0.000000 0.043574 0.000000 0.000870
# 5 -0.000435 0.000435 0.000000 0.000000 0.043574 0.000000
# 6 0.000000 0.000000 0.000000 0.000870 0.000000 0.031492
#
#
# Mechanical properties :
#
#
# Convention : Reuss Voigt Hill
#
# Bulk Modulus (GPa) = 57.44945 58.92779 58.18862
# Shear Modulus (GPa) = 27.56993 28.46351 28.01672
#
# Velocity S-wave (km/s) = 3.53589 3.59273 3.56442
# Velocity P-wave (km/s) = 6.53623 6.62820 6.58237
#
# Compressibility (1/GPa) = 0.01740661
#
# Stress axis : x y z
#
# Youngs Moduli (GPa) = 76.22089 76.22089 91.56946
#
# Poissons Ratio (x) = 0.20019 0.33196
# Poissons Ratio (y) = 0.20019 0.33196
# Poissons Ratio (z) = 0.27631 0.27631
#
# Static dielectric constant tensor:
#      x y z
#    x 3.970140 0.000000 0.000000 
#    y 0.000000 3.970140 0.000000 
#    z 0.000000 0.000000 3.914720 
# 
# 
# High freq. dielectric constant tensor:
#      x y z
#    x 1.871550 0.000000 0.000000 
#    y 0.000000 1.871550 0.000000 
#    z 0.000000 0.000000 1.854050 
# 
# From -- ./inp_files/4081.got.cif
#   From: 2010.03.12/outbox.cif.g09.slc.cpg/sg162_3_cif.got.tgz:4081.got - 2010.04.02 06:27:41.
