data_PCOD8323053
_publ_section_title
;
Structure prediction by ZEFSAII (Michael W. Deem and Ramdas Pophale) SiO2 
 PCOD8323053
Probable space group: P -3 1 M 
;
_chemical_formula_sum "Si O2"
_cell_formula_units_Z 60
_cell_length_a 17.722099
_cell_length_b 17.722099
_cell_length_c 12.630304
_cell_angle_alpha 90.000000
_cell_angle_beta 90.000000
_cell_angle_gamma 120.000000
_cell_volume 3435.379756
_symmetry_space_group_name_H-M "P -3 1 M "
_symmetry_group_IT_number 162
_symmetry_cell_setting 'hexagonal'
loop_
_space_group_symop_operation_xyz
x,y,z
-y,x-y,z
-x+y,-x,z
-y,-x,-z
-x+y,y,-z
x,x-y,-z
-x,-y,-z
y,-x+y,-z
x-y,x,-z
y,x,z
x-y,-y,z
-x,-x+y,z
loop_
_atom_site_type_symbol
_atom_site_label
_atom_site_fract_x
_atom_site_fract_y
_atom_site_fract_z
Si Si1 0.902561 0.633682 0.000000
Si Si2 0.840006 0.507974 0.805293
Si Si3 0.364130 0.266508 0.620924
Si Si4 0.635869 0.733492 0.620924
Si Si5 0.159994 0.667968 0.194707
O O1 0.890809 0.576563 0.102903
O O2 0.000000 0.716379 0.000000
O O3 0.834563 0.669125 0.000000
O O4 0.890809 0.576562 0.897099
O O5 0.879765 0.552703 0.692865
O O6 0.854904 0.427452 0.820677
O O7 0.737375 0.474750 0.810885
O O8 0.285596 0.285596 0.644025
O O9 0.396195 0.289074 0.500000
O O10 0.328986 0.164493 0.646137
O O11 0.714403 0.714403 0.644025
O O12 0.552703 0.672939 0.692864
#
# Coordination Sequence:
#
# PCOD8323053 Si02
#       5
#    12  12  12  12  12
#     4  10  21  35  51  72  97 125 156 192 235 279
#     4  10  20  33  49  70  97 128 160 193 230 272
#     4   9  18  32  49  69  93 122 156 194 237 282
#     4   9  18  32  49  69  93 122 156 194 237 282
#     4  10  20  33  49  70  97 128 160 193 230 272
#
# _framework density 17.465318
#
# number of rings (size 3 to 8) (size 9 to 14) (size 15 to 20)
#    0.000    2.400    0.000    2.200    0.000    4.800 
#    0.000    4.000    0.000    3.000    0.000    2.800 
#    0.000    9.600    0.000    0.400    0.000    0.800 
#
# Total GULP energy -743977.633550 kJ/mol
# GULP energy per Si atom -12399.627226 kJ/mol
# Density = 1.742557 g / cm^3
# Si number density = 17.465318 Si / 1000 Ang^3
#
#
#
# Elastic Constant Matrix: (Units=GPa)
#
#
# Indices 1 2 3 4 5 6 
#
# 1 107.6972 79.2312 41.5440 0.0000 0.0000 0.0000
# 2 79.2312 107.6972 41.5440 0.0000 0.0000 0.0000
# 3 41.5440 41.5440 90.7943 0.0000 0.0000 0.0000
# 4 0.0000 0.0000 0.0000 18.4974 0.0000 0.0000
# 5 0.0000 0.0000 0.0000 0.0000 18.4974 0.0000
# 6 0.0000 0.0000 0.0000 0.0000 0.0000 14.2330
#
#
#
# Elastic Compliance Matrix: (Units=1/GPa)
#
#
# Indices 1 2 3 4 5 6 
#
# 1 0.020923 -0.014207 -0.003073 0.000000 0.000000 0.000000
# 2 -0.014207 0.020923 -0.003073 0.000000 0.000000 0.000000
# 3 -0.003073 -0.003073 0.013826 0.000000 0.000000 0.000000
# 4 0.000000 0.000000 0.000000 0.054062 0.000000 0.000000
# 5 0.000000 0.000000 0.000000 0.000000 0.054062 0.000000
# 6 0.000000 0.000000 0.000000 0.000000 0.000000 0.070259
#
#
# Mechanical properties :
#
#
# Convention : Reuss Voigt Hill
#
# Bulk Modulus (GPa) = 66.81901 70.09190 68.45546
# Shear Modulus (GPa) = 17.87328 19.83685 18.85507
#
# Velocity S-wave (km/s) = 3.20247 3.37380 3.28925
# Velocity P-wave (km/s) = 7.21218 7.44284 7.32842
#
# Compressibility (1/GPa) = 0.01496580
#
# Stress axis : x y z
#
# Youngs Moduli (GPa) = 47.79541 47.79541 72.32835
#
# Poissons Ratio (x) = 0.67903 0.22225
# Poissons Ratio (y) = 0.67903 0.22225
# Poissons Ratio (z) = 0.14686 0.14686
#
# Static dielectric constant tensor:
#      x y z
#    x 3.193980 0.000000 0.000000 
#    y 0.000000 3.193980 0.000000 
#    z 0.000000 0.000000 3.524530 
# 
# 
# High freq. dielectric constant tensor:
#      x y z
#    x 1.660860 0.000000 0.000000 
#    y 0.000000 1.660860 0.000000 
#    z 0.000000 0.000000 1.697200 
# 
# From -- ./inp_files/2283.got.cif
#   From: 2010.03.12/outbox.cif.g09.slc.cpg/sg162_2_cif.got.tgz:2283.got - 2010.04.02 06:27:41.
