data_PCOD8323805
_publ_section_title
;
Structure prediction by ZEFSAII (Michael W. Deem and Ramdas Pophale) SiO2 
 PCOD8323805
Probable space group: P -3 M 1
;
_chemical_formula_sum "Si O2"
_cell_formula_units_Z 42
_cell_length_a 20.335353
_cell_length_b 20.335353
_cell_length_c 5.212522
_cell_angle_alpha 90.000000
_cell_angle_beta 90.000000
_cell_angle_gamma 120.000000
_cell_volume 1866.731964
_symmetry_space_group_name_H-M "P -3 M 1"
_symmetry_group_IT_number 164
_symmetry_cell_setting 'hexagonal'
loop_
_space_group_symop_operation_xyz
x,y,z
-y,x-y,z
-x+y,-x,z
x-y,-y,-z
-x,-x+y,-z
y,x,-z
-x,-y,-z
y,-x+y,-z
x-y,x,-z
-x+y,y,z
x,x-y,z
-y,-x,z
loop_
_atom_site_type_symbol
_atom_site_label
_atom_site_fract_x
_atom_site_fract_y
_atom_site_fract_z
Si Si1 0.474283 0.525718 0.748223
Si Si2 0.404948 0.083230 0.110866
Si Si3 0.470850 0.235425 0.885749
Si Si4 0.950410 0.748568 0.256867
Si Si5 0.715030 0.284971 0.386281
O O1 0.500000 0.500000 0.500000
O O2 0.515837 0.618493 0.745792
O O3 0.500000 0.500000 0.000000
O O4 0.420605 0.143671 0.881664
O O5 0.342213 0.083924 0.300561
O O6 0.371568 0.000000 0.000000
O O7 0.508051 0.254026 0.167056
O O8 0.530994 0.265497 0.662473
O O9 0.883941 0.767881 0.227840
O O10 0.000000 0.793922 0.500000
O O11 0.000000 0.774698 0.000000
O O12 0.753143 0.376572 0.367291
#
# Coordination Sequence:
#
# PCOD8323805 Si02
#       5
#     6  12   6  12   6
#     4  10  22  38  60  90 128 170 210 268 330 386
#     4  10  24  44  67 101 135 177 225 282 339 412
#     4  12  24  44  71  98 136 178 229 281 352 402
#     4  11  23  43  70 101 140 178 229 277 340 408
#     4  10  26  44  67  96 131 178 232 281 330 398
#
# _framework density 22.499213999999998
#
# number of rings (size 3 to 8) (size 9 to 14) (size 15 to 20)
#    0.286    1.143    1.429    2.571    4.000    9.143 
#    0.000    0.000    0.000    5.714    0.000    0.000 
#    0.000    0.000    0.000    0.000    0.000    0.000 
#
# Total GULP energy -520590.129840 kJ/mol
# GULP energy per Si atom -12395.003091 kJ/mol
# Density = 2.244800 g / cm^3
# Si number density = 22.499214 Si / 1000 Ang^3
#
#
#
# Elastic Constant Matrix: (Units=GPa)
#
#
# Indices 1 2 3 4 5 6 
#
# 1 115.9863 51.8116 29.0159 -2.7627 0.0000 0.0000
# 2 51.8116 115.9863 29.0159 2.7627 0.0000 0.0000
# 3 29.0159 29.0159 110.2971 0.0000 0.0000 0.0000
# 4 -2.7627 2.7627 0.0000 13.2264 0.0000 0.0000
# 5 0.0000 0.0000 0.0000 0.0000 13.2264 -2.7627
# 6 0.0000 0.0000 0.0000 0.0000 -2.7627 32.0873
#
#
#
# Elastic Compliance Matrix: (Units=1/GPa)
#
#
# Indices 1 2 3 4 5 6 
#
# 1 0.011212 -0.004656 -0.001725 0.003314 0.000000 0.000000
# 2 -0.004656 0.011212 -0.001725 -0.003314 0.000000 0.000000
# 3 -0.001725 -0.001725 0.009974 0.000000 0.000000 0.000000
# 4 0.003314 -0.003314 0.000000 0.076991 0.000000 0.000000
# 5 0.000000 0.000000 0.000000 0.000000 0.076991 0.006629
# 6 0.000000 0.000000 0.000000 0.000000 0.006629 0.031736
#
#
# Mechanical properties :
#
#
# Convention : Reuss Voigt Hill
#
# Bulk Modulus (GPa) = 61.77754 62.43965 62.10860
# Shear Modulus (GPa) = 20.85757 27.20313 24.03035
#
# Velocity S-wave (km/s) = 3.04803 3.48094 3.27165
# Velocity P-wave (km/s) = 6.31701 6.63084 6.47583
#
# Compressibility (1/GPa) = 0.01618711
#
# Stress axis : x y z
#
# Youngs Moduli (GPa) = 89.19074 89.19074 100.26212
#
# Poissons Ratio (x) = 0.41526 0.17292
# Poissons Ratio (y) = 0.41526 0.17292
# Poissons Ratio (z) = 0.15383 0.15383
#
# Static dielectric constant tensor:
#      x y z
#    x 4.461640 0.000000 0.000000 
#    y 0.000000 4.461640 0.000000 
#    z 0.000000 0.000000 3.801850 
# 
# 
# High freq. dielectric constant tensor:
#      x y z
#    x 1.897560 0.000000 0.000000 
#    y 0.000000 1.897560 0.000000 
#    z 0.000000 0.000000 1.867120 
# 
# From -- ./inp_files/359.got.cif
#   From: 2010.03.12/outbox.cif.g09.slc.cpg/sg164_1_cif.got.tgz:359.got - 2010.04.02 06:32:59.
