data_PCOD8323716
_publ_section_title
;
Structure prediction by ZEFSAII (Michael W. Deem and Ramdas Pophale) SiO2 
 PCOD8323716
Probable space group: P -3 M 1
;
_chemical_formula_sum "Si O2"
_cell_formula_units_Z 54
_cell_length_a 12.936094
_cell_length_b 12.936094
_cell_length_c 23.127041
_cell_angle_alpha 90.000000
_cell_angle_beta 90.000000
_cell_angle_gamma 120.000000
_cell_volume 3351.637396
_symmetry_space_group_name_H-M "P -3 M 1"
_symmetry_group_IT_number 164
_symmetry_cell_setting 'hexagonal'
loop_
_space_group_symop_operation_xyz
x,y,z
-y,x-y,z
-x+y,-x,z
x-y,-y,-z
-x,-x+y,-z
y,x,-z
-x,-y,-z
y,-x+y,-z
x-y,x,-z
-x+y,y,z
x,x-y,z
-y,-x,z
loop_
_atom_site_type_symbol
_atom_site_label
_atom_site_fract_x
_atom_site_fract_y
_atom_site_fract_z
Si Si1 0.000000 0.760789 0.000000
Si Si2 0.428483 0.095380 0.781109
Si Si3 0.242403 0.242732 0.124553
Si Si4 0.575615 0.664793 0.551821
Si Si5 0.905389 0.572480 0.649510
O O1 0.009686 0.703694 0.061194
O O2 0.890035 0.780069 0.008588
O O3 0.544150 0.088299 0.795152
O O4 0.459558 0.229779 0.792901
O O5 0.328496 0.004310 0.824734
O O6 0.384762 0.057728 0.715363
O O7 0.107244 0.214488 0.130863
O O8 0.243678 0.121839 0.132686
O O9 0.648081 0.648081 0.500000
O O10 0.586222 0.793111 0.547399
O O11 0.436593 0.563407 0.549386
O O12 0.636781 0.657025 0.611040
O O13 0.792119 0.584237 0.630004
O O14 0.868259 0.434130 0.642011
#
# Coordination Sequence:
#
# PCOD8323716 Si02
#       5
#     6  12  12  12  12
#     4   8  13  22  37  58  82 108 140 178 220 262
#     4   9  17  29  45  65  88 115 147 181 216 255
#     4   9  16  26  42  63  86 111 141 180 224 267
#     4  10  20  33  50  71  94 119 147 181 218 255
#     4   9  17  30  49  70  90 114 146 184 221 256
#
# _framework density 16.111529000000001
#
# number of rings (size 3 to 8) (size 9 to 14) (size 15 to 20)
#    0.000    2.889    0.000    1.667    0.000    4.444 
#    0.000    2.778    0.000    4.444    0.000    0.000 
#    0.000    0.000    0.000    0.000    0.000    0.000 
#
# Total GULP energy -669176.560417 kJ/mol
# GULP energy per Si atom -12392.158526 kJ/mol
# Density = 1.607486 g / cm^3
# Si number density = 16.111529 Si / 1000 Ang^3
#
#
#
# Elastic Constant Matrix: (Units=GPa)
#
#
# Indices 1 2 3 4 5 6 
#
# 1 87.9885 46.2721 62.1977 -2.8761 0.0000 0.0000
# 2 46.2721 87.9885 62.1977 2.8761 0.0000 0.0000
# 3 62.1977 62.1977 131.3712 0.0000 0.0000 0.0000
# 4 -2.8761 2.8761 0.0000 24.7824 0.0000 0.0000
# 5 0.0000 0.0000 0.0000 0.0000 24.7824 -2.8761
# 6 0.0000 0.0000 0.0000 0.0000 -2.8761 20.8582
#
#
#
# Elastic Compliance Matrix: (Units=1/GPa)
#
#
# Indices 1 2 3 4 5 6 
#
# 1 0.018815 -0.005546 -0.006282 0.002827 0.000000 0.000000
# 2 -0.005546 0.018815 -0.006282 -0.002827 0.000000 0.000000
# 3 -0.006282 -0.006282 0.013560 0.000000 0.000000 0.000000
# 4 0.002827 -0.002827 0.000000 0.041008 0.000000 0.000000
# 5 0.000000 0.000000 0.000000 0.000000 0.041008 0.005655
# 6 0.000000 0.000000 0.000000 0.000000 0.005655 0.048722
#
#
# Mechanical properties :
#
#
# Convention : Reuss Voigt Hill
#
# Bulk Modulus (GPa) = 66.80200 72.07591 69.43895
# Shear Modulus (GPa) = 22.40761 23.19664 22.80212
#
# Velocity S-wave (km/s) = 3.73336 3.79853 3.76609
# Velocity P-wave (km/s) = 7.75476 8.00444 7.88059
#
# Compressibility (1/GPa) = 0.01496961
#
# Stress axis : x y z
#
# Youngs Moduli (GPa) = 53.14925 53.14925 73.74369
#
# Poissons Ratio (x) = 0.29478 0.46326
# Poissons Ratio (y) = 0.29478 0.46326
# Poissons Ratio (z) = 0.33389 0.33389
#
# Static dielectric constant tensor:
#      x y z
#    x 2.836970 0.000000 0.000000 
#    y 0.000000 2.836970 0.000000 
#    z 0.000000 0.000000 3.506860 
# 
# 
# High freq. dielectric constant tensor:
#      x y z
#    x 1.597270 0.000000 0.000000 
#    y 0.000000 1.597270 0.000000 
#    z 0.000000 0.000000 1.643040 
# 
# From -- ./inp_files/4837.got.cif
#   From: 2010.03.12/outbox.cif.g09.slc.cpg/sg164_3_cif.got.tgz:4837.got - 2010.04.02 06:32:59.
