data_PCOD8323139
_publ_section_title
;
Structure prediction by ZEFSAII (Michael W. Deem and Ramdas Pophale) SiO2 
 PCOD8323139
Probable space group: P -3 1 M 
;
_chemical_formula_sum "Si O2"
_cell_formula_units_Z 46
_cell_length_a 14.095372
_cell_length_b 14.095372
_cell_length_c 12.234462
_cell_angle_alpha 90.000000
_cell_angle_beta 90.000000
_cell_angle_gamma 120.000000
_cell_volume 2105.079938
_symmetry_space_group_name_H-M "P -3 1 M "
_symmetry_group_IT_number 162
_symmetry_cell_setting 'hexagonal'
loop_
_space_group_symop_operation_xyz
x,y,z
-y,x-y,z
-x+y,-x,z
-y,-x,-z
-x+y,y,-z
x,x-y,-z
-x,-y,-z
y,-x+y,-z
x-y,x,-z
y,x,z
x-y,-y,z
-x,-x+y,z
loop_
_atom_site_type_symbol
_atom_site_label
_atom_site_fract_x
_atom_site_fract_y
_atom_site_fract_z
Si Si1 0.666667 0.333335 0.126762
Si Si2 0.716981 0.595984 0.587204
Si Si3 0.742504 0.871252 0.000000
Si Si4 0.879214 0.438827 0.248298
Si Si5 0.661175 0.783763 0.230952
O O1 0.785219 0.429449 0.167133
O O2 0.666668 0.333334 0.000000
O O3 0.785552 0.571104 0.500000
O O4 0.664677 0.664677 0.533084
O O5 0.619361 0.480874 0.634433
O O6 0.793304 0.670526 0.687669
O O7 0.663504 0.817987 0.104701
O O8 0.819576 0.819576 0.979816
O O9 0.869805 0.322483 0.263079
O O10 0.000000 0.526132 0.201208
O O11 0.761576 0.761576 0.251444
#
# Coordination Sequence:
#
# PCOD8323139 Si02
#       5
#     4  12   6  12  12
#     4  12  24  42  67  98 136 174 222 280 326 391
#     4  11  23  41  66  93 125 166 216 276 334 395
#     4  10  21  38  64  94 130 172 217 270 326 388
#     4  10  23  42  63  93 130 171 218 265 326 397
#     4  10  21  39  62  93 128 168 214 262 323 393
#
# _framework density 21.851901000000002
#
# number of rings (size 3 to 8) (size 9 to 14) (size 15 to 20)
#    0.000    1.565    2.609    1.696    1.826    1.565 
#    0.000    3.913    0.000    6.261    0.000    0.000 
#    0.000    0.000    0.000    0.000    0.000    0.000 
#
# Total GULP energy -570311.462218 kJ/mol
# GULP energy per Si atom -12398.075266 kJ/mol
# Density = 2.180217 g / cm^3
# Si number density = 21.851901 Si / 1000 Ang^3
#
#
#
# Elastic Constant Matrix: (Units=GPa)
#
#
# Indices 1 2 3 4 5 6 
#
# 1 171.9701 7.9010 59.1501 -0.0285 -43.0241 -0.0462
# 2 7.9010 171.9821 59.1516 0.0271 43.0287 0.0440
# 3 59.1501 59.1516 119.8811 -0.0040 0.0009 -0.0060
# 4 -0.0285 0.0271 -0.0040 54.3366 0.0173 43.0201
# 5 -43.0241 43.0287 0.0009 0.0173 54.3434 0.0289
# 6 -0.0462 0.0440 -0.0060 43.0201 0.0289 82.0334
#
#
#
# Elastic Compliance Matrix: (Units=1/GPa)
#
#
# Indices 1 2 3 4 5 6 
#
# 1 0.009327 -0.001096 -0.004061 0.000001 0.008252 0.000002
# 2 -0.001096 0.009326 -0.004061 -0.000001 -0.008252 -0.000003
# 3 -0.004061 -0.004061 0.012349 0.000000 0.000000 0.000001
# 4 0.000001 -0.000001 0.000000 0.031470 0.000000 -0.016504
# 5 0.008252 -0.008252 0.000000 0.000000 0.031469 -0.000002
# 6 0.000002 -0.000003 0.000001 -0.016504 -0.000002 0.020845
#
#
# Mechanical properties :
#
#
# Convention : Reuss Voigt Hill
#
# Bulk Modulus (GPa) = 79.58120 79.58206 79.58163
# Shear Modulus (GPa) = 36.38721 60.65139 48.51930
#
# Velocity S-wave (km/s) = 4.08508 5.27408 4.71719
# Velocity P-wave (km/s) = 7.66472 8.57822 8.13430
#
# Compressibility (1/GPa) = 0.01256578
#
# Stress axis : x y z
#
# Youngs Moduli (GPa) = 107.21931 107.22401 80.97874
#
# Poissons Ratio (x) = 0.11756 0.32885
# Poissons Ratio (y) = 0.11755 0.32883
# Poissons Ratio (z) = 0.43541 0.43541
#
# Static dielectric constant tensor:
#      x y z
#    x 4.178350 0.000000 0.000000 
#    y 0.000000 4.178350 0.000000 
#    z 0.000000 0.000000 3.758830 
# 
# 
# High freq. dielectric constant tensor:
#      x y z
#    x 1.866070 0.000000 0.000000 
#    y 0.000000 1.866070 0.000000 
#    z 0.000000 0.000000 1.844950 
# 
# From -- ./inp_files/2093.got.cif
#   From: 2010.03.12/outbox.cif.g09.slc.cpg/sg162_2_cif.got.tgz:2093.got - 2010.04.02 06:27:41.
