data_PCOD8323931
_publ_section_title
;
Structure prediction by ZEFSAII (Michael W. Deem and Ramdas Pophale) SiO2 
 PCOD8323931
Probable space group: P -3 C 1
;
_chemical_formula_sum "Si O2"
_cell_formula_units_Z 60
_cell_length_a 15.449652
_cell_length_b 15.449652
_cell_length_c 13.093643
_cell_angle_alpha 90.000000
_cell_angle_beta 90.000000
_cell_angle_gamma 120.000000
_cell_volume 2706.627751
_symmetry_space_group_name_H-M "P -3 C 1"
_symmetry_group_IT_number 165
_symmetry_cell_setting 'hexagonal'
loop_
_space_group_symop_operation_xyz
x,y,z
-y,x-y,z
-x+y,-x,z
x-y,-y,1/2-z
-x,-x+y,1/2-z
y,x,1/2-z
-x,-y,-z
y,-x+y,-z
x-y,x,-z
-x+y,y,1/2+z
x,x-y,1/2+z
-y,-x,1/2+z
loop_
_atom_site_type_symbol
_atom_site_label
_atom_site_fract_x
_atom_site_fract_y
_atom_site_fract_z
Si Si1 0.914181 0.333693 0.871554
Si Si2 0.871561 0.380652 0.660695
Si Si3 0.786291 0.938655 0.125486
Si Si4 0.547003 0.715769 0.407735
Si Si5 0.777494 0.936327 0.882499
O O1 0.861337 0.359583 0.781433
O O2 0.916110 0.236079 0.834114
O O3 0.026050 0.423897 0.889006
O O4 0.851234 0.311403 0.973653
O O5 0.784294 0.287699 0.601116
O O6 0.866762 0.481121 0.652937
O O7 0.799799 0.846741 0.165793
O O8 0.867854 0.048897 0.167561
O O9 0.792917 0.943255 0.003509
O O10 0.659467 0.768727 0.361720
#
# Coordination Sequence:
#
# PCOD8323931 Si02
#       5
#    12  12  12  12  12
#     4  10  23  43  67  94 139 175 217 286 345 388
#     4  11  24  45  66  98 136 173 228 288 337 399
#     4   9  16  33  60  96 139 175 208 279 320 400
#     4  11  23  42  70  95 131 181 230 274 339 410
#     4   9  17  31  62 101 132 176 227 252 337 407
#
# _framework density 22.167807
#
# number of rings (size 3 to 8) (size 9 to 14) (size 15 to 20)
#    0.000    2.000    2.000    1.400    2.800    3.200 
#    7.200    0.000    0.000    0.000    0.000    0.000 
#    0.000    0.000    0.000    0.000    0.000    0.000 
#
# Total GULP energy -744220.394257 kJ/mol
# GULP energy per Si atom -12403.673238 kJ/mol
# Density = 2.211735 g / cm^3
# Si number density = 22.167807 Si / 1000 Ang^3
#
#
#
# Elastic Constant Matrix: (Units=GPa)
#
#
# Indices 1 2 3 4 5 6 
#
# 1 193.6616 76.6919 52.8698 6.7884 0.0000 0.0000
# 2 76.6919 193.6616 52.8698 -6.7884 0.0000 0.0000
# 3 52.8698 52.8698 79.4290 0.0000 0.0000 0.0000
# 4 6.7884 -6.7884 0.0000 34.7069 0.0000 0.0000
# 5 0.0000 0.0000 0.0000 0.0000 34.7069 6.7884
# 6 0.0000 0.0000 0.0000 0.0000 6.7884 58.4849
#
#
#
# Elastic Compliance Matrix: (Units=1/GPa)
#
#
# Indices 1 2 3 4 5 6 
#
# 1 0.006874 -0.001874 -0.003329 -0.001711 0.000000 0.000000
# 2 -0.001874 0.006874 -0.003329 0.001711 0.000000 0.000000
# 3 -0.003329 -0.003329 0.017021 0.000000 0.000000 0.000000
# 4 -0.001711 0.001711 0.000000 0.029482 0.000000 0.000000
# 5 0.000000 0.000000 0.000000 0.000000 0.029482 -0.003422
# 6 0.000000 0.000000 0.000000 0.000000 -0.003422 0.017496
#
#
# Mechanical properties :
#
#
# Convention : Reuss Voigt Hill
#
# Bulk Modulus (GPa) = 72.94955 92.40168 82.67561
# Shear Modulus (GPa) = 38.80173 44.53444 41.66809
#
# Velocity S-wave (km/s) = 4.18827 4.48702 4.34022
# Velocity P-wave (km/s) = 7.50787 8.28358 7.90525
#
# Compressibility (1/GPa) = 0.01370810
#
# Stress axis : x y z
#
# Youngs Moduli (GPa) = 145.46986 145.46986 58.75076
#
# Poissons Ratio (x) = 0.27254 0.19556
# Poissons Ratio (y) = 0.27254 0.19556
# Poissons Ratio (z) = 0.48421 0.48421
#
# Static dielectric constant tensor:
#      x y z
#    x 4.088210 0.000000 0.000000 
#    y 0.000000 4.088210 0.000000 
#    z 0.000000 0.000000 3.877190 
# 
# 
# High freq. dielectric constant tensor:
#      x y z
#    x 1.875500 0.000000 0.000000 
#    y 0.000000 1.875500 0.000000 
#    z 0.000000 0.000000 1.888050 
# 
# From -- ./inp_files/1652.got.cif
#   From: 2010.03.12/outbox.cif.g09.slc.cpg/sg165_1_cif.got.tgz:1652.got - 2010.04.02 06:36:38.
