data_PCOD8323369
_publ_section_title
;
Structure prediction by ZEFSAII (Michael W. Deem and Ramdas Pophale) SiO2 
 PCOD8323369
Probable space group: P -3 M 1
;
_chemical_formula_sum "Si O2"
_cell_formula_units_Z 84
_cell_length_a 22.353126
_cell_length_b 22.353126
_cell_length_c 12.495526
_cell_angle_alpha 90.000000
_cell_angle_beta 90.000000
_cell_angle_gamma 120.000000
_cell_volume 5407.066446
_symmetry_space_group_name_H-M "P -3 M 1"
_symmetry_group_IT_number 164
_symmetry_cell_setting 'hexagonal'
loop_
_space_group_symop_operation_xyz
x,y,z
-y,x-y,z
-x+y,-x,z
x-y,-y,-z
-x,-x+y,-z
y,x,-z
-x,-y,-z
y,-x+y,-z
x-y,x,-z
-x+y,y,z
x,x-y,z
-y,-x,z
loop_
_atom_site_type_symbol
_atom_site_label
_atom_site_fract_x
_atom_site_fract_y
_atom_site_fract_z
Si Si1 0.072916 0.281407 0.213722
Si Si2 0.122377 0.383595 0.032158
Si Si3 0.075277 0.291687 0.836207
Si Si4 0.876977 0.614064 0.359015
Si Si5 0.196732 0.666204 0.711476
Si Si6 0.716885 0.790257 0.461492
Si Si7 0.196161 0.529754 0.964203
O O1 0.128320 0.256640 0.189847
O O2 0.093722 0.351982 0.148990
O O3 0.073353 0.299985 0.337551
O O4 0.998512 0.219425 0.174695
O O5 0.196382 0.392764 0.006928
O O6 0.072221 0.330875 0.942100
O O7 0.134306 0.460986 0.021182
O O8 0.136769 0.273538 0.836083
O O9 0.075787 0.336817 0.735718
O O10 0.802856 0.605712 0.341796
O O11 0.864697 0.536794 0.348192
O O12 0.910269 0.647676 0.473292
O O13 0.190241 0.595121 0.672534
O O14 0.272407 0.727594 0.678839
O O15 0.185785 0.667299 0.837759
O O16 0.780176 0.780176 0.500000
O O17 0.738508 0.869254 0.488493
O O18 0.271979 0.543957 0.997435
O O19 0.189327 0.594664 0.002686
#
# Coordination Sequence:
#
# PCOD8323369 Si02
#       7
#    12  12  12  12  12  12  12
#     4  10  20  31  46  69  91 115 149 185 219 258
#     4   9  17  29  44  66  94 121 149 181 219 260
#     4  10  17  29  49  69  90 117 144 178 222 265
#     4   9  16  27  44  66  88 115 150 181 218 262
#     4   9  15  24  41  67  95 119 147 185 229 270
#     4  10  19  31  48  69  89 113 147 187 226 263
#     4   9  15  24  41  66  95 122 148 181 223 269
#
# _framework density 15.535227000000001
#
# number of rings (size 3 to 8) (size 9 to 14) (size 15 to 20)
#    0.000    2.571    2.857    0.714    0.000    1.143 
#    0.000    0.000    0.000    4.286    0.000    0.000 
#    0.000    5.714    0.000    0.000    0.000    0.000 
#
# Total GULP energy -1041102.660049 kJ/mol
# GULP energy per Si atom -12394.079286 kJ/mol
# Density = 1.549987 g / cm^3
# Si number density = 15.535227 Si / 1000 Ang^3
#
#
#
# Elastic Constant Matrix: (Units=GPa)
#
#
# Indices 1 2 3 4 5 6 
#
# 1 97.7362 56.2357 41.8655 0.5847 0.0000 0.0000
# 2 56.2357 97.7362 41.8655 -0.5847 0.0000 0.0000
# 3 41.8655 41.8655 87.3652 0.0000 0.0000 0.0000
# 4 0.5847 -0.5847 0.0000 17.5923 0.0000 0.0000
# 5 0.0000 0.0000 0.0000 0.0000 17.5923 0.5847
# 6 0.0000 0.0000 0.0000 0.0000 0.5847 20.7503
#
#
#
# Elastic Compliance Matrix: (Units=1/GPa)
#
#
# Indices 1 2 3 4 5 6 
#
# 1 0.016451 -0.007668 -0.004209 -0.000802 0.000000 0.000000
# 2 -0.007668 0.016451 -0.004209 0.000802 0.000000 0.000000
# 3 -0.004209 -0.004209 0.015480 0.000000 0.000000 0.000000
# 4 -0.000802 0.000802 0.000000 0.056896 0.000000 0.000000
# 5 0.000000 0.000000 0.000000 0.000000 0.056896 -0.001603
# 6 0.000000 0.000000 0.000000 0.000000 -0.001603 0.048237
#
#
# Mechanical properties :
#
#
# Convention : Reuss Voigt Hill
#
# Bulk Modulus (GPa) = 61.68650 62.53014 62.10832
# Shear Modulus (GPa) = 20.16227 20.71169 20.43698
#
# Velocity S-wave (km/s) = 3.60647 3.65527 3.63095
# Velocity P-wave (km/s) = 7.55882 7.62579 7.59238
#
# Compressibility (1/GPa) = 0.01621100
#
# Stress axis : x y z
#
# Youngs Moduli (GPa) = 60.78596 60.78596 64.59838
#
# Poissons Ratio (x) = 0.46608 0.27190
# Poissons Ratio (y) = 0.46608 0.27190
# Poissons Ratio (z) = 0.25586 0.25586
#
# Static dielectric constant tensor:
#      x y z
#    x 2.974510 0.000000 0.000000 
#    y 0.000000 2.974510 0.000000 
#    z 0.000000 0.000000 2.909200 
# 
# 
# High freq. dielectric constant tensor:
#      x y z
#    x 1.580990 0.000000 0.000000 
#    y 0.000000 1.580990 0.000000 
#    z 0.000000 0.000000 1.586140 
# 
# From -- ./inp_files/3033.got.cif
#   From: 2010.03.12/outbox.cif.g09.slc.cpg/sg164_2_cif.got.tgz:3033.got - 2010.04.02 06:32:59.
