data_PCOD8323746
_publ_section_title
;
Structure prediction by ZEFSAII (Michael W. Deem and Ramdas Pophale) SiO2 
 PCOD8323746
Probable space group: P -3 M 1
;
_chemical_formula_sum "Si O2"
_cell_formula_units_Z 48
_cell_length_a 23.612025
_cell_length_b 23.612025
_cell_length_c 5.102954
_cell_angle_alpha 90.000000
_cell_angle_beta 90.000000
_cell_angle_gamma 120.000000
_cell_volume 2463.875471
_symmetry_space_group_name_H-M "P -3 M 1"
_symmetry_group_IT_number 164
_symmetry_cell_setting 'hexagonal'
loop_
_space_group_symop_operation_xyz
x,y,z
-y,x-y,z
-x+y,-x,z
x-y,-y,-z
-x,-x+y,-z
y,x,-z
-x,-y,-z
y,-x+y,-z
x-y,x,-z
-x+y,y,z
x,x-y,z
-y,-x,z
loop_
_atom_site_type_symbol
_atom_site_label
_atom_site_fract_x
_atom_site_fract_y
_atom_site_fract_z
Si Si1 0.458256 0.665753 0.220692
Si Si2 0.819996 0.045552 0.254674
Si Si3 0.691771 0.041860 0.252419
Si Si4 0.499564 0.872944 0.718402
O O1 0.479334 0.739667 0.278466
O O2 0.381708 0.618293 0.284251
O O3 0.499886 0.647521 0.418111
O O4 0.470064 0.657715 0.917321
O O5 0.893123 0.106878 0.234824
O O6 0.770253 0.074661 0.297605
O O7 0.813750 0.000000 0.500000
O O8 0.803175 0.000000 0.000000
O O9 0.659899 0.086080 0.190171
O O10 0.652409 0.000000 0.500000
O O11 0.681374 0.000000 0.000000
O O12 0.453530 0.907060 0.740097
#
# Coordination Sequence:
#
# PCOD8323746 Si02
#       4
#    12  12  12  12
#     4  10  20  34  51  72 101 137 178 225 277 329
#     4  10  21  38  61  87 116 150 186 227 276 336
#     4  10  21  37  56  81 111 144 184 223 268 327
#     4  10  21  35  52  78 108 141 187 235 279 330
#
# _framework density 19.481506
#
# number of rings (size 3 to 8) (size 9 to 14) (size 15 to 20)
#    0.000    2.000    0.000    3.250    0.000    3.000 
#    0.000    2.500    0.000    5.000    0.000    0.000 
#    0.000    0.000    0.000    0.000    0.000    0.000 
#
# Total GULP energy -594662.890800 kJ/mol
# GULP energy per Si atom -12388.810225 kJ/mol
# Density = 1.943717 g / cm^3
# Si number density = 19.481506 Si / 1000 Ang^3
#
#
#
# Elastic Constant Matrix: (Units=GPa)
#
#
# Indices 1 2 3 4 5 6 
#
# 1 101.6556 64.8439 17.8231 0.8130 0.0000 0.0000
# 2 64.8439 101.6556 17.8231 -0.8130 0.0000 0.0000
# 3 17.8231 17.8231 103.6654 0.0000 0.0000 0.0000
# 4 0.8130 -0.8130 0.0000 24.0124 0.0000 0.0000
# 5 0.0000 0.0000 0.0000 0.0000 24.0124 0.8130
# 6 0.0000 0.0000 0.0000 0.0000 0.8130 18.4058
#
#
#
# Elastic Compliance Matrix: (Units=1/GPa)
#
#
# Indices 1 2 3 4 5 6 
#
# 1 0.016721 -0.010485 -0.001072 -0.000921 0.000000 0.000000
# 2 -0.010485 0.016721 -0.001072 0.000921 0.000000 0.000000
# 3 -0.001072 -0.001072 0.010015 0.000000 0.000000 0.000000
# 4 -0.000921 0.000921 0.000000 0.041708 0.000000 0.000000
# 5 0.000000 0.000000 0.000000 0.000000 0.041708 -0.001842
# 6 0.000000 0.000000 0.000000 0.000000 -0.001842 0.054412
#
#
# Mechanical properties :
#
#
# Convention : Reuss Voigt Hill
#
# Bulk Modulus (GPa) = 54.95152 56.43966 55.69559
# Shear Modulus (GPa) = 23.51742 27.05188 25.28465
#
# Velocity S-wave (km/s) = 3.47820 3.73043 3.60652
# Velocity P-wave (km/s) = 6.66324 6.89845 6.78186
#
# Compressibility (1/GPa) = 0.01819786
#
# Stress axis : x y z
#
# Youngs Moduli (GPa) = 59.80589 59.80589 99.84958
#
# Poissons Ratio (x) = 0.62708 0.10705
# Poissons Ratio (y) = 0.62708 0.10705
# Poissons Ratio (z) = 0.06412 0.06412
#
# Static dielectric constant tensor:
#      x y z
#    x 3.424400 0.000000 0.000000 
#    y 0.000000 3.424400 0.000000 
#    z 0.000000 0.000000 3.747470 
# 
# 
# High freq. dielectric constant tensor:
#      x y z
#    x 1.742700 0.000000 0.000000 
#    y 0.000000 1.742700 0.000000 
#    z 0.000000 0.000000 1.785230 
# 
# From -- ./inp_files/484.got.cif
#   From: 2010.03.12/outbox.cif.g09.slc.cpg/sg164_1_cif.got.tgz:484.got - 2010.04.02 06:32:59.
