data_PCOD8323393
_publ_section_title
;
Structure prediction by ZEFSAII (Michael W. Deem and Ramdas Pophale) SiO2 
 PCOD8323393
Probable space group: P -3 M 1
;
_chemical_formula_sum "Si O2"
_cell_formula_units_Z 66
_cell_length_a 17.358229
_cell_length_b 17.358229
_cell_length_c 17.582337
_cell_angle_alpha 90.000000
_cell_angle_beta 90.000000
_cell_angle_gamma 120.000000
_cell_volume 4587.943476
_symmetry_space_group_name_H-M "P -3 M 1"
_symmetry_group_IT_number 164
_symmetry_cell_setting 'hexagonal'
loop_
_space_group_symop_operation_xyz
x,y,z
-y,x-y,z
-x+y,-x,z
x-y,-y,-z
-x,-x+y,-z
y,x,-z
-x,-y,-z
y,-x+y,-z
x-y,x,-z
-x+y,y,z
x,x-y,z
-y,-x,z
loop_
_atom_site_type_symbol
_atom_site_label
_atom_site_fract_x
_atom_site_fract_y
_atom_site_fract_z
Si Si1 0.583557 0.995401 0.588383
Si Si2 0.063384 0.304354 0.779882
Si Si3 0.000342 0.178275 0.913092
Si Si4 0.059620 0.762679 0.356224
Si Si5 0.334469 0.487070 0.705907
Si Si6 0.000000 0.819429 0.500000
O O1 0.515064 0.030128 0.602708
O O2 0.672536 0.063312 0.632951
O O3 0.606740 0.000000 0.500000
O O4 0.544682 0.895880 0.623571
O O5 0.145632 0.291264 0.760766
O O6 0.024464 0.266630 0.863743
O O7 0.095536 0.409318 0.768426
O O8 0.986536 0.239663 0.722595
O O9 0.074613 0.149225 0.901207
O O10 0.905164 0.094837 0.889401
O O11 0.000000 0.206378 0.000000
O O12 0.159081 0.840920 0.355871
O O13 0.001617 0.768029 0.425009
O O14 0.252365 0.504730 0.697506
O O15 0.422074 0.577927 0.732736
O O16 0.915547 0.831094 0.495563
#
# Coordination Sequence:
#
# PCOD8323393 Si02
#       6
#    12  12  12  12  12   6
#     4   9  17  29  41  56  77 101 128 164 206 240
#     4   9  17  28  41  59  83 108 133 165 202 237
#     4   9  16  26  41  61  85 112 140 168 198 234
#     4  10  18  27  41  58  76 103 137 166 192 232
#     4   9  17  28  44  62  81 104 132 167 206 249
#     4  10  19  28  37  52  76 106 136 164 191 220
#
# _framework density 14.385529999999999
#
# number of rings (size 3 to 8) (size 9 to 14) (size 15 to 20)
#    0.000    2.727    0.909    1.545    0.000    2.182 
#    0.000    0.000    0.000    6.727    0.000    0.000 
#    0.000    0.000    0.000    0.000    0.000    0.000 
#
# Total GULP energy -817966.125600 kJ/mol
# GULP energy per Si atom -12393.426145 kJ/mol
# Density = 1.435279 g / cm^3
# Si number density = 14.385530 Si / 1000 Ang^3
#
#
#
# Elastic Constant Matrix: (Units=GPa)
#
#
# Indices 1 2 3 4 5 6 
#
# 1 71.1210 41.3731 45.5695 0.5811 0.0000 0.0000
# 2 41.3731 71.1210 45.5695 -0.5811 0.0000 0.0000
# 3 45.5695 45.5695 88.0962 0.0000 0.0000 0.0000
# 4 0.5811 -0.5811 0.0000 19.0216 0.0000 0.0000
# 5 0.0000 0.0000 0.0000 0.0000 19.0216 0.5811
# 6 0.0000 0.0000 0.0000 0.0000 0.5811 14.8739
#
#
#
# Elastic Compliance Matrix: (Units=1/GPa)
#
#
# Indices 1 2 3 4 5 6 
#
# 1 0.024479 -0.009177 -0.007915 -0.001028 0.000000 0.000000
# 2 -0.009177 0.024479 -0.007915 0.001028 0.000000 0.000000
# 3 -0.007915 -0.007915 0.019540 0.000000 0.000000 0.000000
# 4 -0.001028 0.001028 0.000000 0.052635 0.000000 0.000000
# 5 0.000000 0.000000 0.000000 0.000000 0.052635 -0.002056
# 6 0.000000 0.000000 0.000000 0.000000 -0.002056 0.067312
#
#
# Mechanical properties :
#
#
# Convention : Reuss Voigt Hill
#
# Bulk Modulus (GPa) = 54.10416 55.04025 54.57221
# Shear Modulus (GPa) = 16.82057 17.10518 16.96288
#
# Velocity S-wave (km/s) = 3.42317 3.45201 3.43762
# Velocity P-wave (km/s) = 7.30177 7.36426 7.33309
#
# Compressibility (1/GPa) = 0.01848287
#
# Stress axis : x y z
#
# Youngs Moduli (GPa) = 40.85127 40.85127 51.17736
#
# Poissons Ratio (x) = 0.37489 0.40508
# Poissons Ratio (y) = 0.37489 0.40508
# Poissons Ratio (z) = 0.32335 0.32335
#
# Static dielectric constant tensor:
#      x y z
#    x 2.833380 0.000000 0.000000 
#    y 0.000000 2.833380 0.000000 
#    z 0.000000 0.000000 2.818250 
# 
# 
# High freq. dielectric constant tensor:
#      x y z
#    x 1.544550 0.000000 0.000000 
#    y 0.000000 1.544550 0.000000 
#    z 0.000000 0.000000 1.536910 
# 
# From -- ./inp_files/3480.got.cif
#   From: 2010.03.12/outbox.cif.g09.slc.cpg/sg164_2_cif.got.tgz:3480.got - 2010.04.02 06:32:59.
