data_PCOD8323009
_publ_section_title
;
Structure prediction by ZEFSAII (Michael W. Deem and Ramdas Pophale) SiO2 
 PCOD8323009
Probable space group: P -3 1 M 
;
_chemical_formula_sum "Si O2"
_cell_formula_units_Z 40
_cell_length_a 14.403225
_cell_length_b 14.403225
_cell_length_c 12.720120
_cell_angle_alpha 90.000000
_cell_angle_beta 90.000000
_cell_angle_gamma 120.000000
_cell_volume 2285.290058
_symmetry_space_group_name_H-M "P -3 1 M "
_symmetry_group_IT_number 162
_symmetry_cell_setting 'hexagonal'
loop_
_space_group_symop_operation_xyz
x,y,z
-y,x-y,z
-x+y,-x,z
-y,-x,-z
-x+y,y,-z
x,x-y,-z
-x,-y,-z
y,-x+y,-z
x-y,x,-z
y,x,z
x-y,-y,z
-x,-x+y,z
loop_
_atom_site_type_symbol
_atom_site_label
_atom_site_fract_x
_atom_site_fract_y
_atom_site_fract_z
Si Si1 0.548934 0.121647 0.616488
Si Si2 0.333334 0.666668 0.878819
Si Si3 0.535224 0.786526 0.748434
Si Si4 0.874487 0.125193 0.879513
O O1 0.585633 0.171265 0.500000
O O2 0.650136 0.127976 0.677904
O O3 0.496927 0.181635 0.675830
O O4 0.455833 0.000000 0.607918
O O5 0.452302 0.752634 0.843523
O O6 0.333334 0.666667 0.000000
O O7 0.653114 0.837495 0.796740
O O8 0.000000 0.189807 0.853350
O O9 0.832256 0.000000 0.863133
O O10 0.853237 0.146764 0.000000
#
# Coordination Sequence:
#
# PCOD8323009 Si02
#       4
#    12   4  12  12
#     4  10  20  33  50  73  98 125 160 200 245 299
#     4   9  18  30  46  71 100 129 156 189 238 299
#     4  10  19  32  51  72 100 130 162 201 246 298
#     4  10  20  34  52  74 101 135 175 216 255 295
#
# _framework density 17.503249
#
# number of rings (size 3 to 8) (size 9 to 14) (size 15 to 20)
#    0.000    2.100    0.000    4.500    0.000    1.200 
#    0.000    0.000    0.000   14.400    0.000    0.000 
#    0.000   14.400    0.000    0.000    0.000    0.000 
#
# Total GULP energy -495911.802380 kJ/mol
# GULP energy per Si atom -12397.795059 kJ/mol
# Density = 1.746341 g / cm^3
# Si number density = 17.503249 Si / 1000 Ang^3
#
#
#
# Elastic Constant Matrix: (Units=GPa)
#
#
# Indices 1 2 3 4 5 6 
#
# 1 91.6817 -7.0756 33.3714 -0.0003 -1.7001 -0.0019
# 2 -7.0756 91.6823 33.3716 0.0000 1.6999 0.0045
# 3 33.3714 33.3716 123.1729 0.0000 -0.0005 0.0033
# 4 -0.0003 0.0000 0.0000 17.3059 -0.0001 1.6999
# 5 -1.7001 1.6999 -0.0005 -0.0001 17.3062 -0.0008
# 6 -0.0019 0.0045 0.0033 1.6999 -0.0008 49.3814
#
#
#
# Elastic Compliance Matrix: (Units=1/GPa)
#
#
# Indices 1 2 3 4 5 6 
#
# 1 0.012596 0.002436 -0.004073 0.000000 0.000998 0.000001
# 2 0.002436 0.012596 -0.004073 0.000000 -0.000998 -0.000001
# 3 -0.004073 -0.004073 0.010326 0.000000 0.000000 0.000000
# 4 0.000000 0.000000 0.000000 0.057980 0.000000 -0.001996
# 5 0.000998 -0.000998 0.000000 0.000000 0.057979 0.000001
# 6 0.000001 -0.000001 0.000000 -0.001996 0.000001 0.020319
#
#
# Mechanical properties :
#
#
# Convention : Reuss Voigt Hill
#
# Bulk Modulus (GPa) = 41.49521 47.31908 44.40714
# Shear Modulus (GPa) = 26.14409 33.25666 29.70038
#
# Velocity S-wave (km/s) = 3.86900 4.36366 4.12375
# Velocity P-wave (km/s) = 6.61192 7.24444 6.93539
#
# Compressibility (1/GPa) = 0.02409917
#
# Stress axis : x y z
#
# Youngs Moduli (GPa) = 79.38864 79.38920 96.84726
#
# Poissons Ratio (x) = -0.19340 0.39443
# Poissons Ratio (y) = -0.19340 0.39443
# Poissons Ratio (z) = 0.32333 0.32333
#
# Static dielectric constant tensor:
#      x y z
#    x 2.940870 -0.000020 0.000020 
#    y -0.000020 2.940840 0.000040 
#    z 0.000020 0.000040 3.342220 
# 
# 
# High freq. dielectric constant tensor:
#      x y z
#    x 1.678180 0.000000 0.000000 
#    y 0.000000 1.678180 0.000000 
#    z 0.000000 0.000000 1.683140 
# 
# From -- ./inp_files/1961.got.cif
#   From: 2010.03.12/outbox.cif.g09.slc.cpg/sg162_1_cif.got.tgz:1961.got - 2010.04.02 06:27:41.
