data_PCOD8323356
_publ_section_title
;
Structure prediction by ZEFSAII (Michael W. Deem and Ramdas Pophale) SiO2 
 PCOD8323356
Probable space group: P -3 M 1
;
_chemical_formula_sum "Si O2"
_cell_formula_units_Z 96
_cell_length_a 26.150958
_cell_length_b 26.150958
_cell_length_c 10.427470
_cell_angle_alpha 90.000000
_cell_angle_beta 90.000000
_cell_angle_gamma 120.000000
_cell_volume 6175.680039
_symmetry_space_group_name_H-M "P -3 M 1"
_symmetry_group_IT_number 164
_symmetry_cell_setting 'hexagonal'
loop_
_space_group_symop_operation_xyz
x,y,z
-y,x-y,z
-x+y,-x,z
x-y,-y,-z
-x,-x+y,-z
y,x,-z
-x,-y,-z
y,-x+y,-z
x-y,x,-z
-x+y,y,z
x,x-y,z
-y,-x,z
loop_
_atom_site_type_symbol
_atom_site_label
_atom_site_fract_x
_atom_site_fract_y
_atom_site_fract_z
Si Si1 0.813531 0.508601 0.750000
Si Si2 0.690755 0.493922 0.476519
Si Si3 0.715146 0.081050 0.750000
Si Si4 0.493923 0.690756 0.976518
Si Si5 0.365556 0.239769 0.015269
Si Si6 0.311145 0.944209 0.749999
Si Si7 0.239769 0.874213 0.515269
Si Si8 0.382405 0.875990 0.750000
O O1 0.765917 0.531834 0.750000
O O2 0.804009 0.470016 0.620682
O O3 0.879752 0.563486 0.750000
O O4 0.804009 0.470016 0.879319
O O5 0.735932 0.471864 0.432246
O O6 0.726318 0.564228 0.488112
O O7 0.638931 0.472931 0.374546
O O8 0.754700 0.094455 0.878166
O O9 0.754700 0.094456 0.621835
O O10 0.663383 0.013920 0.749999
O O11 0.471865 0.735933 0.932245
O O12 0.564229 0.726319 0.988112
O O13 0.472932 0.638932 0.874546
O O14 0.341156 0.170578 0.044691
O O15 0.345824 0.268715 0.126459
O O16 0.268715 0.922891 0.626457
O O17 0.358429 0.921425 0.750000
O O18 0.170579 0.829422 0.544692
O O19 0.454233 0.908465 0.750000
#
# Coordination Sequence:
#
# PCOD8323356 Si02
#       8
#    12  12  12  12  12  12  12  12
#     4   8  14  26  46  67  80  95 126 169 211 237
#     4   8  14  26  45  63  76  93 124 166 203 238
#     4  10  16  25  42  63  84 105 131 170 213 244
#     4   8  14  26  45  63  76  93 124 166 203 238
#     4   9  16  27  43  62  81 104 136 172 209 239
#     4  10  19  28  41  60  86 114 141 171 210 250
#     4   9  16  27  43  62  81 104 136 172 209 239
#     4  10  19  29  40  56  82 114 138 158 196 259
#
# _framework density 15.544846
#
# number of rings (size 3 to 8) (size 9 to 14) (size 15 to 20)
#    0.000    3.000    0.000    4.125    0.000    3.000 
#    0.000    0.625    0.000   29.000    0.000    0.000 
#    0.000    0.000    0.000    0.000    0.000    0.000 
#
# Total GULP energy -1189405.489257 kJ/mol
# GULP energy per Si atom -12389.640513 kJ/mol
# Density = 1.550947 g / cm^3
# Si number density = 15.544846 Si / 1000 Ang^3
#
#
#
# Elastic Constant Matrix: (Units=GPa)
#
#
# Indices 1 2 3 4 5 6 
#
# 1 53.2500 38.3564 31.1481 0.0000 0.0000 0.0000
# 2 38.3564 53.2500 31.1481 0.0000 0.0000 0.0000
# 3 31.1481 31.1481 126.9781 0.0000 0.0000 0.0000
# 4 0.0000 0.0000 0.0000 8.8519 0.0000 0.0000
# 5 0.0000 0.0000 0.0000 0.0000 8.8519 0.0000
# 6 0.0000 0.0000 0.0000 0.0000 0.0000 7.4468
#
#
#
# Elastic Compliance Matrix: (Units=1/GPa)
#
#
# Indices 1 2 3 4 5 6 
#
# 1 0.040122 -0.027021 -0.003214 0.000000 0.000000 0.000000
# 2 -0.027021 0.040122 -0.003214 0.000000 0.000000 0.000000
# 3 -0.003214 -0.003214 0.009452 0.000000 0.000000 0.000000
# 4 0.000000 0.000000 0.000000 0.112970 0.000000 0.000000
# 5 0.000000 0.000000 0.000000 0.000000 0.112970 0.000000
# 6 0.000000 0.000000 0.000000 0.000000 0.000000 0.134286
#
#
# Mechanical properties :
#
#
# Convention : Reuss Voigt Hill
#
# Bulk Modulus (GPa) = 43.85926 48.30922 46.08424
# Shear Modulus (GPa) = 9.53433 13.88514 11.70973
#
# Velocity S-wave (km/s) = 2.47926 2.99194 2.74759
# Velocity P-wave (km/s) = 6.03917 6.56357 6.30682
#
# Compressibility (1/GPa) = 0.02280020
#
# Stress axis : x y z
#
# Youngs Moduli (GPa) = 24.92370 24.92370 105.79608
#
# Poissons Ratio (x) = 0.67345 0.34002
# Poissons Ratio (y) = 0.67345 0.34002
# Poissons Ratio (z) = 0.08010 0.08010
#
# Static dielectric constant tensor:
#      x y z
#    x 2.625670 0.000000 0.000000 
#    y 0.000000 2.625670 0.000000 
#    z 0.000000 0.000000 3.660060 
# 
# 
# High freq. dielectric constant tensor:
#      x y z
#    x 1.550670 0.000000 0.000000 
#    y 0.000000 1.550670 0.000000 
#    z 0.000000 0.000000 1.629500 
# 
# From -- ./inp_files/3139.got.cif
#   From: 2010.03.12/outbox.cif.g09.slc.cpg/sg164_2_cif.got.tgz:3139.got - 2010.04.02 06:32:59.
