data_PCOD8323478
_publ_section_title
;
Structure prediction by ZEFSAII (Michael W. Deem and Ramdas Pophale) SiO2 
 PCOD8323478
Probable space group: P -3 M 1
;
_chemical_formula_sum "Si O2"
_cell_formula_units_Z 66
_cell_length_a 17.411126
_cell_length_b 17.411126
_cell_length_c 15.735959
_cell_angle_alpha 90.000000
_cell_angle_beta 90.000000
_cell_angle_gamma 120.000000
_cell_volume 4131.212778
_symmetry_space_group_name_H-M "P -3 M 1"
_symmetry_group_IT_number 164
_symmetry_cell_setting 'hexagonal'
loop_
_space_group_symop_operation_xyz
x,y,z
-y,x-y,z
-x+y,-x,z
x-y,-y,-z
-x,-x+y,-z
y,x,-z
-x,-y,-z
y,-x+y,-z
x-y,x,-z
-x+y,y,z
x,x-y,z
-y,-x,z
loop_
_atom_site_type_symbol
_atom_site_label
_atom_site_fract_x
_atom_site_fract_y
_atom_site_fract_z
Si Si1 0.175172 0.175674 0.403392
Si Si2 0.931613 0.689920 0.743198
Si Si3 0.920045 0.670611 0.121248
Si Si4 0.666827 0.512497 0.999766
Si Si5 0.167096 0.167096 0.000000
Si Si6 0.332641 0.495002 0.194061
O O1 0.205461 0.205461 0.500000
O O2 0.190731 0.095366 0.375016
O O3 0.233422 0.262363 0.346243
O O4 0.070752 0.141504 0.394030
O O5 0.858229 0.716457 0.777217
O O6 0.880600 0.583239 0.736245
O O7 0.014192 0.708227 0.801100
O O8 0.821293 0.642586 0.154233
O O9 0.914156 0.592609 0.060535
O O10 0.958373 0.761683 0.072494
O O11 0.746030 0.492059 0.015762
O O12 0.574539 0.425462 0.022935
O O13 0.667636 0.541271 0.901543
O O14 0.151579 0.075790 0.958476
O O15 0.268560 0.537119 0.193191
O O16 0.430293 0.569707 0.221316
#
# Coordination Sequence:
#
# PCOD8323478 Si02
#       6
#    12  12  12  12   6  12
#     4   9  17  30  49  71  92 113 138 170 209 254
#     4  10  19  30  44  63  87 113 141 174 214 259
#     4  10  19  29  41  58  83 113 142 175 213 251
#     4   9  17  29  45  64  86 114 148 185 223 258
#     4  10  19  30  41  52  72 106 146 178 201 232
#     4   9  17  29  45  64  86 113 146 184 222 257
#
# _framework density 15.975939
#
# number of rings (size 3 to 8) (size 9 to 14) (size 15 to 20)
#    0.000    2.545    0.000    2.818    0.000    5.818 
#    0.000    2.273    0.000    6.364    0.000    0.000 
#    0.000    0.000    0.000    0.727    0.000    0.000 
#
# Total GULP energy -817749.421838 kJ/mol
# GULP energy per Si atom -12390.142755 kJ/mol
# Density = 1.593958 g / cm^3
# Si number density = 15.975939 Si / 1000 Ang^3
#
#
#
# Elastic Constant Matrix: (Units=GPa)
#
#
# Indices 1 2 3 4 5 6 
#
# 1 96.7223 45.9267 48.6991 3.4551 0.0000 0.0000
# 2 45.9267 96.7223 48.6991 -3.4551 0.0000 0.0000
# 3 48.6991 48.6991 68.4687 0.0000 0.0000 0.0000
# 4 3.4551 -3.4551 0.0000 19.7806 0.0000 0.0000
# 5 0.0000 0.0000 0.0000 0.0000 19.7806 3.4551
# 6 0.0000 0.0000 0.0000 0.0000 3.4551 25.3978
#
#
#
# Elastic Compliance Matrix: (Units=1/GPa)
#
#
# Indices 1 2 3 4 5 6 
#
# 1 0.016897 -0.003269 -0.009694 -0.003522 0.000000 0.000000
# 2 -0.003269 0.016897 -0.009694 0.003522 0.000000 0.000000
# 3 -0.009694 -0.009694 0.028395 0.000000 0.000000 0.000000
# 4 -0.003522 0.003522 0.000000 0.051785 0.000000 0.000000
# 5 0.000000 0.000000 0.000000 0.000000 0.051785 -0.007045
# 6 0.000000 0.000000 0.000000 0.000000 -0.007045 0.040332
#
#
# Mechanical properties :
#
#
# Convention : Reuss Voigt Hill
#
# Bulk Modulus (GPa) = 59.24972 60.95143 60.10057
# Shear Modulus (GPa) = 19.45303 20.89770 20.17537
#
# Velocity S-wave (km/s) = 3.49326 3.62065 3.55753
# Velocity P-wave (km/s) = 7.31012 7.46416 7.38754
#
# Compressibility (1/GPa) = 0.01687772
#
# Stress axis : x y z
#
# Youngs Moduli (GPa) = 59.18071 59.18071 35.21783
#
# Poissons Ratio (x) = 0.19343 0.34139
# Poissons Ratio (y) = 0.19343 0.34139
# Poissons Ratio (z) = 0.57368 0.57368
#
# Static dielectric constant tensor:
#      x y z
#    x 3.160170 0.000000 0.000000 
#    y 0.000000 3.160170 0.000000 
#    z 0.000000 0.000000 2.778090 
# 
# 
# High freq. dielectric constant tensor:
#      x y z
#    x 1.617320 0.000000 0.000000 
#    y 0.000000 1.617320 0.000000 
#    z 0.000000 0.000000 1.567500 
# 
# From -- ./inp_files/3421.got.cif
#   From: 2010.03.12/outbox.cif.g09.slc.cpg/sg164_2_cif.got.tgz:3421.got - 2010.04.02 06:32:59.
