data_PCOD8323055
_publ_section_title
;
Structure prediction by ZEFSAII (Michael W. Deem and Ramdas Pophale) SiO2 
 PCOD8323055
Probable space group: P -3 1 M 
;
_chemical_formula_sum "Si O2"
_cell_formula_units_Z 48
_cell_length_a 17.395786
_cell_length_b 17.395786
_cell_length_c 10.276655
_cell_angle_alpha 90.000000
_cell_angle_beta 90.000000
_cell_angle_gamma 120.000000
_cell_volume 2693.211880
_symmetry_space_group_name_H-M "P -3 1 M "
_symmetry_group_IT_number 162
_symmetry_cell_setting 'hexagonal'
loop_
_space_group_symop_operation_xyz
x,y,z
-y,x-y,z
-x+y,-x,z
-y,-x,-z
-x+y,y,-z
x,x-y,-z
-x,-y,-z
y,-x+y,-z
x-y,x,-z
y,x,z
x-y,-y,z
-x,-x+y,z
loop_
_atom_site_type_symbol
_atom_site_label
_atom_site_fract_x
_atom_site_fract_y
_atom_site_fract_z
Si Si1 0.332113 0.845013 0.991916
Si Si2 0.362807 0.467349 0.508883
Si Si3 0.271671 0.898367 0.741792
Si Si4 0.628700 0.900107 0.760039
O O1 0.319115 0.898689 0.107993
O O2 0.258417 0.741584 0.000000
O O3 0.428078 0.856155 0.000000
O O4 0.327914 0.889369 0.857777
O O5 0.425751 0.574250 0.500000
O O6 0.423747 0.423747 0.499023
O O7 0.294660 0.431443 0.389094
O O8 0.310287 0.442910 0.644214
O O9 0.166269 0.834877 0.767943
O O10 0.293592 0.000000 0.730087
O O11 0.709634 0.000000 0.736169
#
# Coordination Sequence:
#
# PCOD8323055 Si02
#       4
#    12  12  12  12
#     4  10  20  33  50  73 100 128 157 192 236 285
#     4   9  17  30  49  72  96 122 154 191 231 280
#     4  10  20  33  50  72  97 127 163 202 242 283
#     4  10  20  33  50  72  97 127 163 202 242 283
#
# _framework density 17.822586000000001
#
# number of rings (size 3 to 8) (size 9 to 14) (size 15 to 20)
#    0.000    2.250    0.000    3.250    0.000    4.000 
#    0.000    0.000    0.000    7.500    0.000    0.000 
#    0.000   12.000    0.000    0.000    0.000    2.000 
#
# Total GULP energy -595188.190632 kJ/mol
# GULP energy per Si atom -12399.753971 kJ/mol
# Density = 1.778202 g / cm^3
# Si number density = 17.822586 Si / 1000 Ang^3
#
#
#
# Elastic Constant Matrix: (Units=GPa)
#
#
# Indices 1 2 3 4 5 6 
#
# 1 74.5202 53.4130 0.4860 0.0001 -5.4281 0.0000
# 2 53.4130 74.5202 0.4860 -0.0001 5.4281 0.0000
# 3 0.4860 0.4860 79.5680 0.0000 0.0000 0.0000
# 4 0.0001 -0.0001 0.0000 17.5549 0.0000 5.4281
# 5 -5.4281 5.4281 0.0000 0.0000 17.5549 0.0001
# 6 0.0000 0.0000 0.0000 5.4281 0.0001 10.5536
#
#
#
# Elastic Compliance Matrix: (Units=1/GPa)
#
#
# Indices 1 2 3 4 5 6 
#
# 1 0.032077 -0.024260 -0.000048 0.000000 0.017420 0.000000
# 2 -0.024260 0.032077 -0.000048 0.000000 -0.017420 0.000000
# 3 -0.000048 -0.000048 0.012568 0.000000 0.000000 0.000000
# 4 0.000000 0.000000 0.000000 0.067737 0.000000 -0.034839
# 5 0.017420 -0.017420 0.000000 0.000000 0.067737 0.000000
# 6 0.000000 0.000000 0.000000 -0.034839 0.000000 0.112673
#
#
# Mechanical properties :
#
#
# Convention : Reuss Voigt Hill
#
# Bulk Modulus (GPa) = 35.69980 37.48647 36.59313
# Shear Modulus (GPa) = 13.05768 20.74757 16.90263
#
# Velocity S-wave (km/s) = 2.70968 3.41562 3.08292
# Velocity P-wave (km/s) = 5.46479 6.05261 5.76620
#
# Compressibility (1/GPa) = 0.02801136
#
# Stress axis : x y z
#
# Youngs Moduli (GPa) = 31.17521 31.17521 79.56431
#
# Poissons Ratio (x) = 0.75631 0.00380
# Poissons Ratio (y) = 0.75631 0.00380
# Poissons Ratio (z) = 0.00149 0.00149
#
# Static dielectric constant tensor:
#      x y z
#    x 3.160680 0.000000 0.000000 
#    y 0.000000 3.160680 0.000000 
#    z 0.000000 0.000000 3.540630 
# 
# 
# High freq. dielectric constant tensor:
#      x y z
#    x 1.670800 0.000000 0.000000 
#    y 0.000000 1.670800 0.000000 
#    z 0.000000 0.000000 1.713940 
# 
# From -- ./inp_files/1177.got.cif
#   From: 2010.03.12/outbox.cif.g09.slc.cpg/sg162_1_cif.got.tgz:1177.got - 2010.04.02 06:27:41.
