data_PCOD8323153
_publ_section_title
;
Structure prediction by ZEFSAII (Michael W. Deem and Ramdas Pophale) SiO2 
 PCOD8323153
Probable space group: P -3 1 M 
;
_chemical_formula_sum "Si O2"
_cell_formula_units_Z 84
_cell_length_a 21.203813
_cell_length_b 21.203813
_cell_length_c 12.952066
_cell_angle_alpha 90.000000
_cell_angle_beta 90.000000
_cell_angle_gamma 120.000000
_cell_volume 5043.100366
_symmetry_space_group_name_H-M "P -3 1 M "
_symmetry_group_IT_number 162
_symmetry_cell_setting 'hexagonal'
loop_
_space_group_symop_operation_xyz
x,y,z
-y,x-y,z
-x+y,-x,z
-y,-x,-z
-x+y,y,-z
x,x-y,-z
-x,-y,-z
y,-x+y,-z
x-y,x,-z
y,x,z
x-y,-y,z
-x,-x+y,z
loop_
_atom_site_type_symbol
_atom_site_label
_atom_site_fract_x
_atom_site_fract_y
_atom_site_fract_z
Si Si1 0.676339 0.838169 0.877954
Si Si2 0.673852 0.087351 0.177035
Si Si3 0.613376 0.086178 0.387798
Si Si4 0.087350 0.413498 0.177036
Si Si5 0.080396 0.160793 0.876930
Si Si6 0.613376 0.086178 0.612202
Si Si7 0.664441 0.481794 0.000000
O O1 0.644325 0.757734 0.835366
O O2 0.644326 0.886592 0.835366
O O3 0.757745 0.878872 0.837164
O O4 0.667488 0.833744 0.000000
O O5 0.668912 0.112289 0.292862
O O6 0.623671 0.000000 0.158068
O O7 0.651796 0.131981 0.099109
O O8 0.653452 0.112219 0.500000
O O9 0.559064 0.118128 0.373153
O O10 0.566681 0.000000 0.386237
O O11 0.112289 0.443377 0.292863
O O12 0.131982 0.480185 0.099110
O O13 0.000000 0.376330 0.158068
O O14 0.121111 0.121111 0.830559
O O15 0.000000 0.121111 0.830559
O O16 0.078997 0.157994 0.000000
O O17 0.566681 0.000000 0.613762
O O18 0.603503 0.396498 0.000000
O O19 0.745275 0.490550 0.000000
#
# Coordination Sequence:
#
# PCOD8323153 Si02
#       7
#    12  12  12  12  12  12  12
#     4  11  20  33  45  70 111 143 169 208 268 314
#     4  11  20  33  54  77 102 133 172 214 251 303
#     4   8  15  29  49  74 100 125 159 207 259 303
#     4  11  20  33  54  77 102 133 172 214 251 303
#     4   9  17  28  45  67  95 137 184 223 258 304
#     4   8  15  29  49  74 100 125 159 207 259 303
#     4  12  24  39  53  74 105 139 172 206 249 297
#
# _framework density 16.656421000000002
#
# number of rings (size 3 to 8) (size 9 to 14) (size 15 to 20)
#    0.000    2.000    2.857    3.286    0.000    4.000 
#    0.000    0.714    0.000    0.000    0.000    0.000 
#    0.000    0.000    0.000    0.857    0.000   26.429 
#
# Total GULP energy -1040927.710023 kJ/mol
# GULP energy per Si atom -12391.996548 kJ/mol
# Density = 1.661851 g / cm^3
# Si number density = 16.656421 Si / 1000 Ang^3
#
#
#
# Elastic Constant Matrix: (Units=GPa)
#
#
# Indices 1 2 3 4 5 6 
#
# 1 86.2375 59.8612 51.4421 0.0000 0.0001 0.0000
# 2 59.8612 86.2375 51.4421 0.0000 -0.0001 0.0000
# 3 51.4421 51.4421 133.7850 0.0000 0.0000 0.0000
# 4 0.0000 0.0000 0.0000 14.7255 0.0000 -0.0001
# 5 0.0001 -0.0001 0.0000 0.0000 14.7255 0.0000
# 6 0.0000 0.0000 0.0000 -0.0001 0.0000 13.1882
#
#
#
# Elastic Compliance Matrix: (Units=1/GPa)
#
#
# Indices 1 2 3 4 5 6 
#
# 1 0.023650 -0.014263 -0.003609 0.000000 0.000000 0.000000
# 2 -0.014263 0.023650 -0.003609 0.000000 0.000000 0.000000
# 3 -0.003609 -0.003609 0.010250 0.000000 0.000000 0.000000
# 4 0.000000 0.000000 0.000000 0.067909 0.000000 0.000000
# 5 0.000000 0.000000 0.000000 0.000000 0.067909 0.000000
# 6 0.000000 0.000000 0.000000 0.000000 0.000000 0.075826
#
#
# Mechanical properties :
#
#
# Convention : Reuss Voigt Hill
#
# Bulk Modulus (GPa) = 68.55802 70.19454 69.37628
# Shear Modulus (GPa) = 15.77193 18.09546 16.93370
#
# Velocity S-wave (km/s) = 3.08051 3.29963 3.19195
# Velocity P-wave (km/s) = 7.34181 7.53332 7.43818
#
# Compressibility (1/GPa) = 0.01458618
#
# Stress axis : x y z
#
# Youngs Moduli (GPa) = 42.28408 42.28408 97.55888
#
# Poissons Ratio (x) = 0.60311 0.35211
# Poissons Ratio (y) = 0.60311 0.35211
# Poissons Ratio (z) = 0.15261 0.15261
#
# Static dielectric constant tensor:
#      x y z
#    x 3.130250 0.000000 0.000000 
#    y 0.000000 3.130250 0.000000 
#    z 0.000000 0.000000 3.397390 
# 
# 
# High freq. dielectric constant tensor:
#      x y z
#    x 1.636300 0.000000 0.000000 
#    y 0.000000 1.636300 0.000000 
#    z 0.000000 0.000000 1.628380 
# 
# From -- ./inp_files/2516.got.cif
#   From: 2010.03.12/outbox.cif.g09.slc.cpg/sg162_2_cif.got.tgz:2516.got - 2010.04.02 06:27:41.
