data_PCOD8323051
_publ_section_title
;
Structure prediction by ZEFSAII (Michael W. Deem and Ramdas Pophale) SiO2 
 PCOD8323051
Probable space group: P -3 1 M 
;
_chemical_formula_sum "Si O2"
_cell_formula_units_Z 72
_cell_length_a 23.964240
_cell_length_b 23.964240
_cell_length_c 9.002369
_cell_angle_alpha 90.000000
_cell_angle_beta 90.000000
_cell_angle_gamma 120.000000
_cell_volume 4477.285234
_symmetry_space_group_name_H-M "P -3 1 M "
_symmetry_group_IT_number 162
_symmetry_cell_setting 'hexagonal'
loop_
_space_group_symop_operation_xyz
x,y,z
-y,x-y,z
-x+y,-x,z
-y,-x,-z
-x+y,y,-z
x,x-y,-z
-x,-y,-z
y,-x+y,-z
x-y,x,-z
y,x,z
x-y,-y,z
-x,-x+y,z
loop_
_atom_site_type_symbol
_atom_site_label
_atom_site_fract_x
_atom_site_fract_y
_atom_site_fract_z
Si Si1 0.516642 0.923134 0.082201
Si Si2 0.739866 0.925571 0.424472
Si Si3 0.814296 0.074429 0.075528
Si Si4 0.076456 0.702410 0.583016
Si Si5 0.483358 0.406492 0.417798
Si Si6 0.374045 0.297589 0.916984
O O1 0.503729 0.896755 0.249999
O O2 0.555751 0.000000 0.081865
O O3 0.448524 0.897047 0.000000
O O4 0.557078 0.895575 0.997455
O O5 0.768419 0.884210 0.500000
O O6 0.732590 0.913178 0.250000
O O7 0.669325 0.901934 0.491496
O O8 0.788884 0.000000 0.462378
O O9 0.788885 0.000000 0.037623
O O10 0.884211 0.115790 0.000000
O O11 0.767393 0.098066 0.008502
O O12 0.104424 0.661502 0.502544
O O13 0.104337 0.719892 0.750000
O O14 0.000000 0.660314 0.587237
O O15 0.551477 0.448524 0.500000
O O16 0.444251 0.444251 0.418133
O O17 0.339685 0.339685 0.912764
#
# Coordination Sequence:
#
# PCOD8323051 Si02
#       6
#    12  12  12  12  12  12
#     4   9  15  22  33  51  77 109 143 174 201 231
#     4  10  20  33  49  68  88 111 141 179 225 279
#     4  10  20  33  49  68  88 111 141 179 225 279
#     4   9  16  26  40  58  81 109 140 173 209 251
#     4   9  15  22  33  51  77 109 143 174 201 231
#     4   9  16  26  40  58  81 109 140 173 209 251
#
# _framework density 16.081173
#
# number of rings (size 3 to 8) (size 9 to 14) (size 15 to 20)
#    0.000    2.667    0.000    3.000    0.000   10.000 
#    0.000    0.000    0.000    0.333    0.000    0.000 
#    0.000    0.000    0.000    1.000    0.000   14.667 
#
# Total GULP energy -892734.548164 kJ/mol
# GULP energy per Si atom -12399.090947 kJ/mol
# Density = 1.604457 g / cm^3
# Si number density = 16.081173 Si / 1000 Ang^3
#
#
#
# Elastic Constant Matrix: (Units=GPa)
#
#
# Indices 1 2 3 4 5 6 
#
# 1 69.6464 40.7306 52.0427 0.0001 0.0000 0.0000
# 2 40.7306 69.6464 52.0427 -0.0001 0.0000 0.0000
# 3 52.0427 52.0427 148.6639 0.0000 0.0000 0.0000
# 4 0.0001 -0.0001 0.0000 25.3550 0.0000 0.0000
# 5 0.0000 0.0000 0.0000 0.0000 25.3550 0.0001
# 6 0.0000 0.0000 0.0000 0.0000 0.0001 14.4579
#
#
#
# Elastic Compliance Matrix: (Units=1/GPa)
#
#
# Indices 1 2 3 4 5 6 
#
# 1 0.024054 -0.010529 -0.004735 0.000000 0.000000 0.000000
# 2 -0.010529 0.024054 -0.004735 0.000000 0.000000 0.000000
# 3 -0.004735 -0.004735 0.010041 0.000000 0.000000 0.000000
# 4 0.000000 0.000000 0.000000 0.039440 0.000000 0.000000
# 5 0.000000 0.000000 0.000000 0.000000 0.039440 0.000000
# 6 0.000000 0.000000 0.000000 0.000000 0.000000 0.069166
#
#
# Mechanical properties :
#
#
# Convention : Reuss Voigt Hill
#
# Bulk Modulus (GPa) = 55.08930 64.17651 59.63291
# Shear Modulus (GPa) = 19.82217 22.57631 21.19924
#
# Velocity S-wave (km/s) = 3.51470 3.75093 3.63473
# Velocity P-wave (km/s) = 7.12756 7.66510 7.40121
#
# Compressibility (1/GPa) = 0.01815235
#
# Stress axis : x y z
#
# Youngs Moduli (GPa) = 41.57339 41.57339 99.58773
#
# Poissons Ratio (x) = 0.43774 0.47150
# Poissons Ratio (y) = 0.43774 0.47150
# Poissons Ratio (z) = 0.19683 0.19683
#
# Static dielectric constant tensor:
#      x y z
#    x 2.794160 0.000000 0.000000 
#    y 0.000000 2.794160 0.000000 
#    z 0.000000 0.000000 3.299690 
# 
# 
# High freq. dielectric constant tensor:
#      x y z
#    x 1.578390 0.000000 0.000000 
#    y 0.000000 1.578390 0.000000 
#    z 0.000000 0.000000 1.643570 
# 
# From -- ./inp_files/1731.got.cif
#   From: 2010.03.12/outbox.cif.g09.slc.cpg/sg162_1_cif.got.tgz:1731.got - 2010.04.02 06:27:41.
