data_PCOD8323218
_publ_section_title
;
Structure prediction by ZEFSAII (Michael W. Deem and Ramdas Pophale) SiO2 
 PCOD8323218
Probable space group: P -3 1 C
;
_chemical_formula_sum "Si O2"
_cell_formula_units_Z 84
_cell_length_a 15.257241
_cell_length_b 15.257241
_cell_length_c 25.119355
_cell_angle_alpha 90.000000
_cell_angle_beta 90.000000
_cell_angle_gamma 120.000000
_cell_volume 5063.970044
_symmetry_space_group_name_H-M "P -3 1 C"
_symmetry_group_IT_number 163
_symmetry_cell_setting 'hexagonal'
loop_
_space_group_symop_operation_xyz
x,y,z
-y,x-y,z
-x+y,-x,z
-y,-x,1/2-z
-x+y,y,1/2-z
x,x-y,1/2-z
-x,-y,-z
y,-x+y,-z
x-y,x,-z
y,x,1/2+z
x-y,-y,1/2+z
-x,-x+y,1/2+z
loop_
_atom_site_type_symbol
_atom_site_label
_atom_site_fract_x
_atom_site_fract_y
_atom_site_fract_z
Si Si1 0.999933 0.798123 0.939116
Si Si2 0.017518 0.508759 0.313956
Si Si3 0.792242 0.396122 0.312483
Si Si4 0.723914 0.651124 0.653415
Si Si5 0.999933 0.201810 0.939116
Si Si6 0.000781 0.794881 0.250000
Si Si7 0.348876 0.276086 0.653415
O O1 0.975712 0.701341 0.903272
O O2 0.915194 0.830388 0.929949
O O3 0.106927 0.893073 0.922466
O O4 1.000000 0.766047 0.000000
O O5 0.023622 0.511811 0.250000
O O6 0.073318 0.620362 0.338416
O O7 0.073317 0.452956 0.338416
O O8 0.902956 0.451479 0.337998
O O9 0.724141 0.448283 0.328230
O O10 0.809756 0.404878 0.250000
O O11 0.735702 0.730453 0.698537
O O12 0.811459 0.622917 0.657865
O O13 0.975713 0.274371 0.903272
O O14 0.089408 0.910593 0.250000
O O15 0.005249 0.735702 0.198537
O O16 0.896185 0.792370 0.250000
#
# Coordination Sequence:
#
# PCOD8323218 Si02
#       7
#    12  12  12  12  12  12  12
#     4   9  17  31  53  81 111 141 170 205 250 312
#     4  11  20  34  53  69  97 141 176 219 273 314
#     4   7  14  28  42  65  93 117 157 204 242 302
#     4  10  21  35  49  73 104 130 179 223 256 310
#     4   9  17  31  53  81 111 141 170 205 250 312
#     4  10  19  31  48  74 108 138 160 197 255 328
#     4  10  21  35  49  73 104 130 179 223 256 310
#
# _framework density 16.587776000000002
#
# number of rings (size 3 to 8) (size 9 to 14) (size 15 to 20)
#    0.286    2.286    1.429    1.286    0.000    3.429 
#    0.857    3.571    0.000    0.000    0.000    0.000 
#    0.000    0.000    0.000    0.000    0.000    0.000 
#
# Total GULP energy -1041226.647638 kJ/mol
# GULP energy per Si atom -12395.555329 kJ/mol
# Density = 1.655002 g / cm^3
# Si number density = 16.587776 Si / 1000 Ang^3
#
#
#
# Elastic Constant Matrix: (Units=GPa)
#
#
# Indices 1 2 3 4 5 6 
#
# 1 101.0150 60.0625 46.7519 0.0000 -0.0001 0.0000
# 2 60.0625 101.0150 46.7519 0.0000 0.0001 0.0000
# 3 46.7519 46.7519 89.6055 0.0000 0.0000 0.0000
# 4 0.0000 0.0000 0.0000 14.6866 0.0000 0.0001
# 5 -0.0001 0.0001 0.0000 0.0000 14.6866 0.0000
# 6 0.0000 0.0000 0.0000 0.0001 0.0000 20.4763
#
#
#
# Elastic Compliance Matrix: (Units=1/GPa)
#
#
# Indices 1 2 3 4 5 6 
#
# 1 0.016662 -0.007757 -0.004646 0.000000 0.000000 0.000000
# 2 -0.007757 0.016662 -0.004646 0.000000 0.000000 0.000000
# 3 -0.004646 -0.004646 0.016009 0.000000 0.000000 0.000000
# 4 0.000000 0.000000 0.000000 0.068089 0.000000 0.000000
# 5 0.000000 0.000000 0.000000 0.000000 0.068089 0.000000
# 6 0.000000 0.000000 0.000000 0.000000 0.000000 0.048837
#
#
# Mechanical properties :
#
#
# Convention : Reuss Voigt Hill
#
# Bulk Modulus (GPa) = 65.64385 66.52979 66.08682
# Shear Modulus (GPa) = 18.27989 19.17451 18.72720
#
# Velocity S-wave (km/s) = 3.32325 3.40360 3.36367
# Velocity P-wave (km/s) = 7.37461 7.45928 7.41707
#
# Compressibility (1/GPa) = 0.01523372
#
# Stress axis : x y z
#
# Youngs Moduli (GPa) = 60.01702 60.01702 62.46648
#
# Poissons Ratio (x) = 0.46553 0.29024
# Poissons Ratio (y) = 0.46553 0.29024
# Poissons Ratio (z) = 0.27886 0.27886
#
# Static dielectric constant tensor:
#      x y z
#    x 3.064210 0.000000 0.000000 
#    y 0.000000 3.064210 0.000000 
#    z 0.000000 0.000000 3.119720 
# 
# 
# High freq. dielectric constant tensor:
#      x y z
#    x 1.628710 0.000000 0.000000 
#    y 0.000000 1.628710 0.000000 
#    z 0.000000 0.000000 1.622840 
# 
# From -- ./inp_files/3935.got.cif
#   From: 2010.03.12/outbox.cif.g09.slc.cpg/sg163_2_cif.got.tgz:3935.got - 2010.04.02 06:30:25.
