data_PCOD8323815
_publ_section_title
;
Structure prediction by ZEFSAII (Michael W. Deem and Ramdas Pophale) SiO2 
 PCOD8323815
Probable space group: P -3 M 1
;
_chemical_formula_sum "Si O2"
_cell_formula_units_Z 78
_cell_length_a 17.546536
_cell_length_b 17.546536
_cell_length_c 17.482024
_cell_angle_alpha 90.000000
_cell_angle_beta 90.000000
_cell_angle_gamma 120.000000
_cell_volume 4661.279311
_symmetry_space_group_name_H-M "P -3 M 1"
_symmetry_group_IT_number 164
_symmetry_cell_setting 'hexagonal'
loop_
_space_group_symop_operation_xyz
x,y,z
-y,x-y,z
-x+y,-x,z
x-y,-y,-z
-x,-x+y,-z
y,x,-z
-x,-y,-z
y,-x+y,-z
x-y,x,-z
-x+y,y,z
x,x-y,z
-y,-x,z
loop_
_atom_site_type_symbol
_atom_site_label
_atom_site_fract_x
_atom_site_fract_y
_atom_site_fract_z
Si Si1 0.491911 0.155369 0.454503
Si Si2 0.041448 0.781123 0.765945
Si Si3 0.440043 0.132670 0.290066
Si Si4 0.174066 0.175928 0.384652
Si Si5 0.837992 0.335174 0.123688
Si Si6 0.690137 0.000000 0.500000
Si Si7 0.239890 0.301699 0.927652
O O1 0.578599 0.157197 0.488692
O O2 0.505111 0.252556 0.461548
O O3 0.483212 0.120734 0.366807
O O4 0.405664 0.086987 0.501792
O O5 0.141828 0.858173 0.776452
O O6 0.045341 0.698814 0.728350
O O7 0.004943 0.760149 0.853100
O O8 0.988349 0.808683 0.707581
O O9 0.421197 0.210599 0.310204
O O10 0.500967 0.154326 0.215670
O O11 0.083995 0.167989 0.414492
O O12 0.256906 0.256670 0.424989
O O13 0.173909 0.086955 0.405569
O O14 0.855109 0.427555 0.088563
O O15 0.740147 0.259854 0.101583
O O16 0.907598 0.310932 0.088588
O O17 0.144172 0.288344 0.944268
O O18 0.268612 0.268612 0.000000
#
# Coordination Sequence:
#
# PCOD8323815 Si02
#       7
#    12  12  12  12  12   6  12
#     4  11  21  34  51  73  98 128 166 208 247 289
#     4   8  15  30  48  66  92 125 155 191 240 288
#     4   8  14  27  46  67  93 123 155 190 235 287
#     4  11  21  34  52  74  98 128 165 205 245 290
#     4   9  16  26  43  69  99 130 159 191 233 283
#     4  12  23  36  51  70 100 138 164 194 247 300
#     4   9  18  31  48  69  94 125 159 195 239 286
#
# _framework density 16.733604
#
# number of rings (size 3 to 8) (size 9 to 14) (size 15 to 20)
#    0.000    2.462    1.538    4.385    0.000    0.923 
#    0.000    2.308    0.000    0.154    0.000    0.000 
#    0.000    0.000    0.000    3.538    0.000    0.000 
#
# Total GULP energy -966390.947967 kJ/mol
# GULP energy per Si atom -12389.627538 kJ/mol
# Density = 1.669552 g / cm^3
# Si number density = 16.733604 Si / 1000 Ang^3
#
#
#
# Elastic Constant Matrix: (Units=GPa)
#
#
# Indices 1 2 3 4 5 6 
#
# 1 85.6244 42.1190 34.5261 -2.7558 0.0000 0.0000
# 2 42.1190 85.6244 34.5261 2.7558 0.0000 0.0000
# 3 34.5261 34.5261 84.2590 0.0000 0.0000 0.0000
# 4 -2.7558 2.7558 0.0000 17.4287 0.0000 0.0000
# 5 0.0000 0.0000 0.0000 0.0000 17.4287 -2.7558
# 6 0.0000 0.0000 0.0000 0.0000 -2.7558 21.7527
#
#
#
# Elastic Compliance Matrix: (Units=1/GPa)
#
#
# Indices 1 2 3 4 5 6 
#
# 1 0.016755 -0.006700 -0.004120 0.003709 0.000000 0.000000
# 2 -0.006700 0.016755 -0.004120 -0.003709 0.000000 0.000000
# 3 -0.004120 -0.004120 0.015245 0.000000 0.000000 0.000000
# 4 0.003709 -0.003709 0.000000 0.058549 0.000000 0.000000
# 5 0.000000 0.000000 0.000000 0.000000 0.058549 0.007417
# 6 0.000000 0.000000 0.000000 0.000000 0.007417 0.046911
#
#
# Mechanical properties :
#
#
# Convention : Reuss Voigt Hill
#
# Bulk Modulus (GPa) = 52.98170 53.09445 53.03808
# Shear Modulus (GPa) = 20.08528 20.94446 20.51487
#
# Velocity S-wave (km/s) = 3.46829 3.54169 3.50518
# Velocity P-wave (km/s) = 6.91153 6.96584 6.93874
#
# Compressibility (1/GPa) = 0.01887444
#
# Stress axis : x y z
#
# Youngs Moduli (GPa) = 59.68193 59.68193 65.59581
#
# Poissons Ratio (x) = 0.39987 0.27028
# Poissons Ratio (y) = 0.39987 0.27028
# Poissons Ratio (z) = 0.24591 0.24591
#
# Static dielectric constant tensor:
#      x y z
#    x 2.944970 0.000000 0.000000 
#    y 0.000000 2.944970 0.000000 
#    z 0.000000 0.000000 3.121220 
# 
# 
# High freq. dielectric constant tensor:
#      x y z
#    x 1.627850 0.000000 0.000000 
#    y 0.000000 1.627850 0.000000 
#    z 0.000000 0.000000 1.634500 
# 
# From -- ./inp_files/4146.got.cif
#   From: 2010.03.12/outbox.cif.g09.slc.cpg/sg164_3_cif.got.tgz:4146.got - 2010.04.02 06:32:59.
