data_PCOD8323684
_publ_section_title
;
Structure prediction by ZEFSAII (Michael W. Deem and Ramdas Pophale) SiO2 
 PCOD8323684
Probable space group: P -3 M 1
;
_chemical_formula_sum "Si O2"
_cell_formula_units_Z 60
_cell_length_a 12.819631
_cell_length_b 12.819631
_cell_length_c 25.273018
_cell_angle_alpha 90.000000
_cell_angle_beta 90.000000
_cell_angle_gamma 120.000000
_cell_volume 3596.986333
_symmetry_space_group_name_H-M "P -3 M 1"
_symmetry_group_IT_number 164
_symmetry_cell_setting 'hexagonal'
loop_
_space_group_symop_operation_xyz
x,y,z
-y,x-y,z
-x+y,-x,z
x-y,-y,-z
-x,-x+y,-z
y,x,-z
-x,-y,-z
y,-x+y,-z
x-y,x,-z
-x+y,y,z
x,x-y,z
-y,-x,z
loop_
_atom_site_type_symbol
_atom_site_label
_atom_site_fract_x
_atom_site_fract_y
_atom_site_fract_z
Si Si1 0.999845 0.760876 0.060271
Si Si2 0.667022 0.575011 0.457542
Si Si3 0.665090 0.088647 0.753391
Si Si4 0.666266 0.091150 0.337829
Si Si5 0.089609 0.423141 0.849262
O O1 0.128460 0.871541 0.076986
O O2 0.901426 0.802851 0.067445
O O3 0.969417 0.646867 0.096530
O O4 0.000000 0.720537 0.000000
O O5 0.669712 0.669712 0.500000
O O6 0.781681 0.563361 0.468319
O O7 0.554804 0.445197 0.468668
O O8 0.665466 0.618246 0.397736
O O9 0.563716 0.127432 0.752653
O O10 0.794049 0.205952 0.758434
O O11 0.661301 0.019173 0.699782
O O12 0.646480 0.002130 0.802235
O O13 0.563811 0.127622 0.329646
O O14 0.792870 0.207131 0.323201
O O15 0.213709 0.427417 0.836098
O O16 0.116491 0.558246 0.855658
#
# Coordination Sequence:
#
# PCOD8323684 Si02
#       5
#    12  12  12  12  12
#     4   9  17  30  49  72  97 126 160 196 232 271
#     4   9  17  29  46  69  95 123 155 191 231 272
#     4  10  20  33  49  69  94 122 151 185 227 277
#     4   9  17  30  49  71  94 121 154 192 231 272
#     4  10  20  33  50  71  95 123 155 193 234 276
#
# _framework density 16.680631999999999
#
# number of rings (size 3 to 8) (size 9 to 14) (size 15 to 20)
#    0.000    2.600    0.000    2.200    0.000    3.600 
#    0.000    2.000    0.000    7.400    0.000    0.000 
#    0.000    0.000    0.000    0.000    0.000    0.000 
#
# Total GULP energy -744039.520585 kJ/mol
# GULP energy per Si atom -12400.658676 kJ/mol
# Density = 1.664267 g / cm^3
# Si number density = 16.680632 Si / 1000 Ang^3
#
#
#
# Elastic Constant Matrix: (Units=GPa)
#
#
# Indices 1 2 3 4 5 6 
#
# 1 104.9688 58.5116 64.1297 -0.5333 0.0000 0.0000
# 2 58.5116 104.9688 64.1297 0.5333 0.0000 0.0000
# 3 64.1297 64.1297 115.2182 0.0000 0.0000 0.0000
# 4 -0.5333 0.5333 0.0000 27.1080 0.0000 0.0000
# 5 0.0000 0.0000 0.0000 0.0000 27.1080 -0.5333
# 6 0.0000 0.0000 0.0000 0.0000 -0.5333 23.2286
#
#
#
# Elastic Compliance Matrix: (Units=1/GPa)
#
#
# Indices 1 2 3 4 5 6 
#
# 1 0.016197 -0.005338 -0.006044 0.000424 0.000000 0.000000
# 2 -0.005338 0.016197 -0.006044 -0.000424 0.000000 0.000000
# 3 -0.006044 -0.006044 0.015407 0.000000 0.000000 0.000000
# 4 0.000424 -0.000424 0.000000 0.036906 0.000000 0.000000
# 5 0.000000 0.000000 0.000000 0.000000 0.036906 0.000847
# 6 0.000000 0.000000 0.000000 0.000000 0.000847 0.043070
#
#
# Mechanical properties :
#
#
# Convention : Reuss Voigt Hill
#
# Bulk Modulus (GPa) = 77.22588 77.63310 77.42949
# Shear Modulus (GPa) = 24.52773 24.71458 24.62116
#
# Velocity S-wave (km/s) = 3.83878 3.85338 3.84608
# Velocity P-wave (km/s) = 8.12684 8.15107 8.13896
#
# Compressibility (1/GPa) = 0.01294903
#
# Stress axis : x y z
#
# Youngs Moduli (GPa) = 61.74057 61.74057 64.90485
#
# Poissons Ratio (x) = 0.32958 0.39228
# Poissons Ratio (y) = 0.32958 0.39228
# Poissons Ratio (z) = 0.37315 0.37315
#
# Static dielectric constant tensor:
#      x y z
#    x 3.024970 0.000000 0.000000 
#    y 0.000000 3.024970 0.000000 
#    z 0.000000 0.000000 3.407270 
# 
# 
# High freq. dielectric constant tensor:
#      x y z
#    x 1.634370 0.000000 0.000000 
#    y 0.000000 1.634370 0.000000 
#    z 0.000000 0.000000 1.656670 
# 
# From -- ./inp_files/5154.got.cif
#   From: 2010.03.12/outbox.cif.g09.slc.cpg/sg164_3_cif.got.tgz:5154.got - 2010.04.02 06:32:59.
