data_PCOD8323859
_publ_section_title
;
Structure prediction by ZEFSAII (Michael W. Deem and Ramdas Pophale) SiO2 
 PCOD8323859
Probable space group: P -3 C 1
;
_chemical_formula_sum "Si O2"
_cell_formula_units_Z 72
_cell_length_a 21.869356
_cell_length_b 21.869356
_cell_length_c 9.172079
_cell_angle_alpha 90.000000
_cell_angle_beta 90.000000
_cell_angle_gamma 120.000000
_cell_volume 3799.009740
_symmetry_space_group_name_H-M "P -3 C 1"
_symmetry_group_IT_number 165
_symmetry_cell_setting 'hexagonal'
loop_
_space_group_symop_operation_xyz
x,y,z
-y,x-y,z
-x+y,-x,z
x-y,-y,1/2-z
-x,-x+y,1/2-z
y,x,1/2-z
-x,-y,-z
y,-x+y,-z
x-y,x,-z
-x+y,y,1/2+z
x,x-y,1/2+z
-y,-x,1/2+z
loop_
_atom_site_type_symbol
_atom_site_label
_atom_site_fract_x
_atom_site_fract_y
_atom_site_fract_z
Si Si1 0.240091 0.992898 0.415235
Si Si2 0.942880 0.417655 0.133446
Si Si3 0.133980 0.737576 0.853928
Si Si4 0.042906 0.600999 0.380385
Si Si5 0.134870 0.018227 0.923185
Si Si6 0.621311 0.871394 0.521183
O O1 0.271197 0.940417 0.406906
O O2 0.216701 0.000000 0.250000
O O3 0.175372 0.961692 0.529431
O O4 0.297211 0.067134 0.486905
O O5 0.873711 0.339370 0.126322
O O6 0.918946 0.475437 0.170942
O O7 0.000000 0.420619 0.250000
O O8 0.979287 0.432572 0.979005
O O9 0.151259 0.756140 0.686620
O O10 0.197263 0.800410 0.938834
O O11 0.100731 0.672718 0.454109
O O12 0.000000 0.613172 0.250000
O O13 0.120362 0.000000 0.750000
O O14 0.084583 0.957674 0.036146
#
# Coordination Sequence:
#
# PCOD8323859 Si02
#       6
#    12  12  12  12  12  12
#     4  10  21  40  58  79 112 150 187 232 288 340
#     4  10  18  39  61  84 117 157 191 250 298 340
#     4  11  22  37  57  84 123 156 188 239 290 344
#     4  10  21  34  62  90 114 149 204 244 292 353
#     4  12  25  41  59  78 102 136 183 234 283 339
#     4  11  23  37  56  87 122 155 192 237 291 347
#
# _framework density 18.952306
#
# number of rings (size 3 to 8) (size 9 to 14) (size 15 to 20)
#    0.000    1.333    3.333    3.167    2.333    4.667 
#    0.000    0.000    0.000    0.667    0.000    0.000 
#    0.000    0.000    0.000    0.000    0.000    0.000 
#
# Total GULP energy -892299.093781 kJ/mol
# GULP energy per Si atom -12393.042969 kJ/mol
# Density = 1.890917 g / cm^3
# Si number density = 18.952306 Si / 1000 Ang^3
#
#
#
# Elastic Constant Matrix: (Units=GPa)
#
#
# Indices 1 2 3 4 5 6 
#
# 1 65.8052 65.0124 34.6665 -6.8239 0.0000 0.0000
# 2 65.0124 65.8052 34.6665 6.8239 0.0000 0.0000
# 3 34.6665 34.6665 104.2180 0.0000 0.0000 0.0000
# 4 -6.8239 6.8239 0.0000 28.5766 0.0000 0.0000
# 5 0.0000 0.0000 0.0000 0.0000 28.5766 -6.8239
# 6 0.0000 0.0000 0.0000 0.0000 -6.8239 0.3964
#
#
#
# Elastic Compliance Matrix: (Units=1/GPa)
#
#
# Indices 1 2 3 4 5 6 
#
# 1 -0.198096 0.207377 -0.003087 -0.096824 0.000000 0.000000
# 2 0.207377 -0.198096 -0.003087 0.096824 0.000000 0.000000
# 3 -0.003087 -0.003087 0.011649 0.000000 0.000000 0.000000
# 4 -0.096824 0.096824 0.000000 -0.011248 0.000000 0.000000
# 5 0.000000 0.000000 0.000000 0.000000 -0.011248 -0.193648
# 6 0.000000 0.000000 0.000000 0.000000 -0.193648 -0.810946
#
#
# Mechanical properties :
#
#
# Convention : Reuss Voigt Hill
#
# Bulk Modulus (GPa) = 55.98561 56.05771 56.02166
# Shear Modulus (GPa) = -3.09705 18.27545 7.58920
#
# Velocity S-wave (km/s) = -1.27972 3.10866 2.00326
# Velocity P-wave (km/s) = 5.23649 6.52132 5.91390
#
# Compressibility (1/GPa) = 0.01786173
#
# Stress axis : x y z
#
# Youngs Moduli (GPa) = -5.04805 -5.04805 85.84481
#
# Poissons Ratio (x) = 1.04685 0.26500
# Poissons Ratio (y) = 1.04685 0.26500
# Poissons Ratio (z) = -0.01558 -0.01558
#
# Static dielectric constant tensor:
#      x y z
#    x 3.511070 0.000000 0.000000 
#    y 0.000000 3.511070 0.000000 
#    z 0.000000 0.000000 3.775630 
# 
# 
# High freq. dielectric constant tensor:
#      x y z
#    x 1.720460 0.000000 0.000000 
#    y 0.000000 1.720460 0.000000 
#    z 0.000000 0.000000 1.755150 
# 
# From -- ./inp_files/781.got.cif
#   From: 2010.03.12/outbox.cif.g09.slc.cpg/sg165_1_cif.got.tgz:781.got - 2010.04.02 06:36:38.
