data_PCOD8323864
_publ_section_title
;
Structure prediction by ZEFSAII (Michael W. Deem and Ramdas Pophale) SiO2 
 PCOD8323864
Probable space group: P -3 C 1
;
_chemical_formula_sum "Si O2"
_cell_formula_units_Z 84
_cell_length_a 31.825874
_cell_length_b 31.825874
_cell_length_c 5.341849
_cell_angle_alpha 90.000000
_cell_angle_beta 90.000000
_cell_angle_gamma 120.000000
_cell_volume 4685.791037
_symmetry_space_group_name_H-M "P -3 C 1"
_symmetry_group_IT_number 165
_symmetry_cell_setting 'hexagonal'
loop_
_space_group_symop_operation_xyz
x,y,z
-y,x-y,z
-x+y,-x,z
x-y,-y,1/2-z
-x,-x+y,1/2-z
y,x,1/2-z
-x,-y,-z
y,-x+y,-z
x-y,x,-z
-x+y,y,1/2+z
x,x-y,1/2+z
-y,-x,1/2+z
loop_
_atom_site_type_symbol
_atom_site_label
_atom_site_fract_x
_atom_site_fract_y
_atom_site_fract_z
Si Si1 0.618819 0.723707 1.000000
Si Si2 0.314577 0.143083 0.500000
Si Si3 0.412804 0.030802 0.500000
Si Si4 0.160395 0.409367 0.500000
Si Si5 0.235845 0.515722 0.500000
Si Si6 0.611944 0.190995 0.500000
Si Si7 0.918458 0.477764 1.000000
O O1 0.672642 0.772490 1.000000
O O2 0.623644 0.675919 0.000000
O O3 0.590895 0.722382 0.747019
O O4 0.590895 0.722382 0.252981
O O5 0.285169 0.142585 0.250000
O O6 0.365643 0.193833 0.500000
O O7 0.468604 0.075123 0.500000
O O8 0.404121 0.000000 0.750000
O O9 0.404121 0.000000 0.250000
O O10 0.211837 0.457863 0.500000
O O11 0.268466 0.536933 0.750000
O O12 0.193238 0.529554 0.500000
O O13 0.609052 0.218104 0.250000
O O14 0.565066 0.137267 0.499999
O O15 0.944030 0.472015 0.250000
#
# Coordination Sequence:
#
# PCOD8323864 Si02
#       7
#    12  12  12  12  12  12  12
#     4  10  20  32  53  69 104 131 149 182 234 267
#     4   8  14  27  42  71  95 114 134 167 214 275
#     4  12  26  40  55  76 101 133 175 206 229 258
#     4  10  19  31  53  81 102 119 140 179 232 284
#     4  12  23  36  59  87 108 116 134 177 223 271
#     4  10  23  40  59  81 104 123 161 182 213 267
#     4  10  23  40  59  75  90 127 158 205 229 246
#
# _framework density 17.926537
#
# number of rings (size 3 to 8) (size 9 to 14) (size 15 to 20)
#    0.000    1.714    0.000    6.000    8.000    1.714 
#    0.000    0.000    0.000    5.714    0.000    0.000 
#    0.000    0.000    0.000    0.000    0.000    0.000 
#
# Total GULP energy -1040801.360649 kJ/mol
# GULP energy per Si atom -12390.492389 kJ/mol
# Density = 1.788574 g / cm^3
# Si number density = 17.926537 Si / 1000 Ang^3
#
#
#
# Elastic Constant Matrix: (Units=GPa)
#
#
# Indices 1 2 3 4 5 6 
#
# 1 39.3702 9.1042 15.6247 0.0000 0.0000 0.0000
# 2 9.1042 39.3702 15.6247 0.0000 0.0000 0.0000
# 3 15.6247 15.6247 199.5829 0.0000 0.0000 0.0000
# 4 0.0000 0.0000 0.0000 9.9380 0.0000 0.0000
# 5 0.0000 0.0000 0.0000 0.0000 9.9380 0.0000
# 6 0.0000 0.0000 0.0000 0.0000 0.0000 15.1330
#
#
#
# Elastic Compliance Matrix: (Units=1/GPa)
#
#
# Indices 1 2 3 4 5 6 
#
# 1 0.027383 -0.005657 -0.001701 0.000000 0.000000 0.000000
# 2 -0.005657 0.027383 -0.001701 0.000000 0.000000 0.000000
# 3 -0.001701 -0.001701 0.005277 0.000000 0.000000 0.000000
# 4 0.000000 0.000000 0.000000 0.100624 0.000000 0.000000
# 5 0.000000 0.000000 0.000000 0.000000 0.100624 0.000000
# 6 0.000000 0.000000 0.000000 0.000000 0.000000 0.066081
#
#
# Mechanical properties :
#
#
# Convention : Reuss Voigt Hill
#
# Bulk Modulus (GPa) = 23.85204 39.89231 31.87218
# Shear Modulus (GPa) = 13.90960 22.86645 18.38802
#
# Velocity S-wave (km/s) = 2.78856 3.57538 3.20620
# Velocity P-wave (km/s) = 4.86851 6.27264 5.61464
#
# Compressibility (1/GPa) = 0.04192513
#
# Stress axis : x y z
#
# Youngs Moduli (GPa) = 36.51881 36.51881 189.51028
#
# Poissons Ratio (x) = 0.20660 0.32233
# Poissons Ratio (y) = 0.20660 0.32233
# Poissons Ratio (z) = 0.06211 0.06211
#
# Static dielectric constant tensor:
#      x y z
#    x 2.858220 0.000000 0.000000 
#    y 0.000000 2.858220 0.000000 
#    z 0.000000 0.000000 5.389550 
# 
# 
# High freq. dielectric constant tensor:
#      x y z
#    x 1.634030 0.000000 0.000000 
#    y 0.000000 1.634030 0.000000 
#    z 0.000000 0.000000 1.747940 
# 
# From -- ./inp_files/247.got.cif
#   From: 2010.03.12/outbox.cif.g09.slc.cpg/sg165_1_cif.got.tgz:247.got - 2010.04.02 06:36:38.
