data_PCOD8323713
_publ_section_title
;
Structure prediction by ZEFSAII (Michael W. Deem and Ramdas Pophale) SiO2 
 PCOD8323713
Probable space group: P -3 M 1
;
_chemical_formula_sum "Si O2"
_cell_formula_units_Z 84
_cell_length_a 17.899830
_cell_length_b 17.899830
_cell_length_c 15.321461
_cell_angle_alpha 90.000000
_cell_angle_beta 90.000000
_cell_angle_gamma 120.000000
_cell_volume 4251.367268
_symmetry_space_group_name_H-M "P -3 M 1"
_symmetry_group_IT_number 164
_symmetry_cell_setting 'hexagonal'
loop_
_space_group_symop_operation_xyz
x,y,z
-y,x-y,z
-x+y,-x,z
x-y,-y,-z
-x,-x+y,-z
y,x,-z
-x,-y,-z
y,-x+y,-z
x-y,x,-z
-x+y,y,z
x,x-y,z
-y,-x,z
loop_
_atom_site_type_symbol
_atom_site_label
_atom_site_fract_x
_atom_site_fract_y
_atom_site_fract_z
Si Si1 0.368201 0.469048 0.001887
Si Si2 0.093196 0.357258 0.345353
Si Si3 0.838363 0.331627 0.507397
Si Si4 0.668676 0.161209 0.187385
Si Si5 0.831177 0.999538 0.896517
Si Si6 0.369950 0.270523 0.345110
Si Si7 0.091817 0.741370 0.151438
O O1 0.427841 0.572160 0.018122
O O2 0.303962 0.426072 0.081395
O O3 0.428866 0.428866 0.000000
O O4 0.319430 0.453217 0.909669
O O5 0.161636 0.323272 0.360136
O O6 0.115770 0.437438 0.407135
O O7 0.096294 0.390339 0.246564
O O8 0.994782 0.280868 0.361609
O O9 0.853810 0.426905 0.506291
O O10 0.736613 0.263387 0.509249
O O11 0.881321 0.318469 0.422166
O O12 0.573675 0.147350 0.200996
O O13 0.738869 0.261132 0.204099
O O14 0.683273 0.101035 0.255084
O O15 0.818834 0.909417 0.859977
O O16 0.745807 0.004393 0.865664
O O17 0.922917 0.077084 0.861607
O O18 0.831215 0.000000 0.000000
O O19 0.337689 0.168845 0.344579
O O20 0.158436 0.841565 0.143961
#
# Coordination Sequence:
#
# PCOD8323713 Si02
#       7
#    12  12  12  12  12  12  12
#     4  10  20  33  49  70  99 137 181 226 268 314
#     4  10  22  38  55  78 110 147 186 229 271 313
#     4  10  21  38  61  88 116 144 175 216 270 330
#     4  10  20  34  54  81 112 143 176 219 275 338
#     4   9  17  29  48  75 106 140 178 223 276 331
#     4  10  21  36  57  85 113 143 178 220 275 333
#     4  10  20  34  51  72 101 139 183 225 264 309
#
# _framework density 19.758348999999999
#
# number of rings (size 3 to 8) (size 9 to 14) (size 15 to 20)
#    0.000    2.143    0.000    3.000    0.000    3.429 
#    0.000    5.000    0.000    0.571    0.000    0.000 
#    0.000    3.429    0.000    0.429    0.000    0.000 
#
# Total GULP energy -1041115.705150 kJ/mol
# GULP energy per Si atom -12394.234585 kJ/mol
# Density = 1.971338 g / cm^3
# Si number density = 19.758349 Si / 1000 Ang^3
#
#
#
# Elastic Constant Matrix: (Units=GPa)
#
#
# Indices 1 2 3 4 5 6 
#
# 1 97.0481 53.2979 48.1435 1.6079 0.0000 0.0000
# 2 53.2979 97.0481 48.1435 -1.6079 0.0000 0.0000
# 3 48.1435 48.1435 123.5190 0.0000 0.0000 0.0000
# 4 1.6079 -1.6079 0.0000 18.8251 0.0000 0.0000
# 5 0.0000 0.0000 0.0000 0.0000 18.8251 1.6079
# 6 0.0000 0.0000 0.0000 0.0000 1.6079 21.8751
#
#
#
# Elastic Compliance Matrix: (Units=1/GPa)
#
#
# Indices 1 2 3 4 5 6 
#
# 1 0.015933 -0.007069 -0.003455 -0.001965 0.000000 0.000000
# 2 -0.007069 0.015933 -0.003455 0.001965 0.000000 0.000000
# 3 -0.003455 -0.003455 0.010789 0.000000 0.000000 0.000000
# 4 -0.001965 0.001965 0.000000 0.053456 0.000000 0.000000
# 5 0.000000 0.000000 0.000000 0.000000 0.053456 -0.003929
# 6 0.000000 0.000000 0.000000 0.000000 -0.003929 0.046003
#
#
# Mechanical properties :
#
#
# Convention : Reuss Voigt Hill
#
# Bulk Modulus (GPa) = 68.03864 68.53166 68.28515
# Shear Modulus (GPa) = 21.88892 23.10706 22.49799
#
# Velocity S-wave (km/s) = 3.33202 3.42348 3.37806
# Velocity P-wave (km/s) = 7.02234 7.09839 7.06047
#
# Compressibility (1/GPa) = 0.01469753
#
# Stress axis : x y z
#
# Youngs Moduli (GPa) = 62.76393 62.76393 92.68613
#
# Poissons Ratio (x) = 0.44366 0.32022
# Poissons Ratio (y) = 0.44366 0.32022
# Poissons Ratio (z) = 0.21684 0.21684
#
# Static dielectric constant tensor:
#      x y z
#    x 3.790740 0.000000 0.000000 
#    y 0.000000 3.790740 0.000000 
#    z 0.000000 0.000000 3.624620 
# 
# 
# High freq. dielectric constant tensor:
#      x y z
#    x 1.764610 0.000000 0.000000 
#    y 0.000000 1.764610 0.000000 
#    z 0.000000 0.000000 1.772350 
# 
# From -- ./inp_files/3569.got.cif
#   From: 2010.03.12/outbox.cif.g09.slc.cpg/sg164_2_cif.got.tgz:3569.got - 2010.04.02 06:32:59.
