data_PCOD8323172
_publ_section_title
;
Structure prediction by ZEFSAII (Michael W. Deem and Ramdas Pophale) SiO2 
 PCOD8323172
Probable space group: P -3 1 M 
;
_chemical_formula_sum "Si O2"
_cell_formula_units_Z 48
_cell_length_a 18.754361
_cell_length_b 18.754361
_cell_length_c 9.922399
_cell_angle_alpha 90.000000
_cell_angle_beta 90.000000
_cell_angle_gamma 120.000000
_cell_volume 3022.399449
_symmetry_space_group_name_H-M "P -3 1 M "
_symmetry_group_IT_number 162
_symmetry_cell_setting 'hexagonal'
loop_
_space_group_symop_operation_xyz
x,y,z
-y,x-y,z
-x+y,-x,z
-y,-x,-z
-x+y,y,-z
x,x-y,-z
-x,-y,-z
y,-x+y,-z
x-y,x,-z
y,x,z
x-y,-y,z
-x,-x+y,z
loop_
_atom_site_type_symbol
_atom_site_label
_atom_site_fract_x
_atom_site_fract_y
_atom_site_fract_z
Si Si1 0.344264 0.251246 0.654553
Si Si2 0.902356 0.372327 0.150486
Si Si3 0.469970 0.097644 0.849515
Si Si4 0.251246 0.344264 0.345447
O O1 0.275464 0.275464 0.697163
O O2 0.427312 0.298536 0.742818
O O3 0.306436 0.153218 0.676365
O O4 0.370567 0.275927 0.500000
O O5 0.868161 0.434081 0.188541
O O6 0.000000 0.423411 0.154415
O O7 0.872273 0.336304 0.000000
O O8 0.427312 0.128776 0.742818
O O9 0.423412 0.000000 0.845587
O O10 0.275464 0.275464 0.302837
#
# Coordination Sequence:
#
# PCOD8323172 Si02
#       4
#    12  12  12  12
#     4   9  17  28  42  61  85 113 145 181 219 256
#     4   8  14  25  41  61  83 104 127 159 201 249
#     4   8  14  25  41  61  83 104 127 159 201 249
#     4   9  17  28  42  61  85 113 145 181 219 256
#
# _framework density 15.881421
#
# number of rings (size 3 to 8) (size 9 to 14) (size 15 to 20)
#    0.000    3.500    0.000    1.500    0.000    2.000 
#    0.000    5.000    0.000    1.500    0.000    3.500 
#    0.000    0.000    0.000   12.500    0.000   13.000 
#
# Total GULP energy -594698.039339 kJ/mol
# GULP energy per Si atom -12389.542486 kJ/mol
# Density = 1.584527 g / cm^3
# Si number density = 15.881421 Si / 1000 Ang^3
#
#
#
# Elastic Constant Matrix: (Units=GPa)
#
#
# Indices 1 2 3 4 5 6 
#
# 1 77.6292 43.2020 43.9814 0.0000 0.0000 0.0000
# 2 43.2020 77.6292 43.9814 0.0000 0.0000 0.0000
# 3 43.9814 43.9814 72.7051 0.0000 0.0000 0.0000
# 4 0.0000 0.0000 0.0000 17.7640 0.0000 0.0000
# 5 0.0000 0.0000 0.0000 0.0000 17.7640 0.0000
# 6 0.0000 0.0000 0.0000 0.0000 0.0000 17.2136
#
#
#
# Elastic Compliance Matrix: (Units=1/GPa)
#
#
# Indices 1 2 3 4 5 6 
#
# 1 0.021918 -0.007129 -0.008946 0.000000 0.000000 0.000000
# 2 -0.007129 0.021918 -0.008946 0.000000 0.000000 0.000000
# 3 -0.008946 -0.008946 0.024578 0.000000 0.000000 0.000000
# 4 0.000000 0.000000 0.000000 0.056294 0.000000 0.000000
# 5 0.000000 0.000000 0.000000 0.000000 0.056294 0.000000
# 6 0.000000 0.000000 0.000000 0.000000 0.000000 0.058094
#
#
# Mechanical properties :
#
#
# Convention : Reuss Voigt Hill
#
# Bulk Modulus (GPa) = 54.43474 54.47700 54.45587
# Shear Modulus (GPa) = 16.93424 17.00156 16.96790
#
# Velocity S-wave (km/s) = 3.26896 3.27545 3.27220
# Velocity P-wave (km/s) = 6.97124 6.97722 6.97423
#
# Compressibility (1/GPa) = 0.01837062
#
# Stress axis : x y z
#
# Youngs Moduli (GPa) = 45.62528 45.62528 40.68749
#
# Poissons Ratio (x) = 0.32527 0.36399
# Poissons Ratio (y) = 0.32527 0.36399
# Poissons Ratio (z) = 0.40816 0.40816
#
# Static dielectric constant tensor:
#      x y z
#    x 2.973870 0.000000 0.000000 
#    y 0.000000 2.973870 0.000000 
#    z 0.000000 0.000000 3.246600 
# 
# 
# High freq. dielectric constant tensor:
#      x y z
#    x 1.583130 0.000000 0.000000 
#    y 0.000000 1.583130 0.000000 
#    z 0.000000 0.000000 1.616060 
# 
# From -- ./inp_files/1371.got.cif
#   From: 2010.03.12/outbox.cif.g09.slc.cpg/sg162_1_cif.got.tgz:1371.got - 2010.04.02 06:27:41.
