data_PCOD8323190
_publ_section_title
;
Structure prediction by ZEFSAII (Michael W. Deem and Ramdas Pophale) SiO2 
 PCOD8323190
Probable space group: P -3 1 C
;
_chemical_formula_sum "Si O2"
_cell_formula_units_Z 84
_cell_length_a 18.422642
_cell_length_b 18.422642
_cell_length_c 13.701605
_cell_angle_alpha 90.000000
_cell_angle_beta 90.000000
_cell_angle_gamma 120.000000
_cell_volume 4027.225057
_symmetry_space_group_name_H-M "P -3 1 C"
_symmetry_group_IT_number 163
_symmetry_cell_setting 'hexagonal'
loop_
_space_group_symop_operation_xyz
x,y,z
-y,x-y,z
-x+y,-x,z
-y,-x,1/2-z
-x+y,y,1/2-z
x,x-y,1/2-z
-x,-y,-z
y,-x+y,-z
x-y,x,-z
y,x,1/2+z
x-y,-y,1/2+z
-x,-x+y,1/2+z
loop_
_atom_site_type_symbol
_atom_site_label
_atom_site_fract_x
_atom_site_fract_y
_atom_site_fract_z
Si Si1 0.773913 0.226088 0.750000
Si Si2 0.535773 0.995870 0.350383
Si Si3 0.431986 0.570468 0.510875
Si Si4 0.249099 0.490818 0.466396
Si Si5 0.784968 0.796656 0.375360
Si Si6 0.946359 0.892718 0.750000
Si Si7 0.672933 0.715394 0.202634
Si Si8 0.300233 0.174487 0.975006
O O1 0.752679 0.259031 0.651119
O O2 0.731912 0.126279 0.741866
O O3 0.486949 0.973898 0.250000
O O4 0.542475 0.080308 0.393338
O O5 0.481333 0.916734 0.418952
O O6 0.628504 0.008762 0.334517
O O7 0.337067 0.552368 0.519382
O O8 0.492815 0.669222 0.501918
O O9 0.227709 0.398416 0.499644
O O10 0.836965 0.895510 0.343230
O O11 0.745300 0.735789 0.282023
O O12 0.834759 0.759458 0.433888
O O13 0.716471 0.798814 0.446440
O O14 0.904707 0.952354 0.750000
O O15 0.717000 0.778340 0.113148
#
# Coordination Sequence:
#
# PCOD8323190 Si02
#       8
#     6  12  12  12  12   6  12  12
#     4  10  17  36  62  94 134 166 208 262 330 382
#     4  11  25  41  69  99 129 179 222 272 338 400
#     4  11  25  42  67  97 139 170 223 277 333 396
#     4  11  23  42  63 100 133 177 215 274 327 398
#     4  12  24  43  69  94 132 176 214 278 327 391
#     4  10  25  46  64  88 132 168 212 266 316 392
#     4  11  20  42  64  96 134 167 218 277 323 389
#     4  11  25  38  69  99 128 170 222 266 339 387
#
# _framework density 20.858034
#
# number of rings (size 3 to 8) (size 9 to 14) (size 15 to 20)
#    0.143    0.857    7.143    1.143    6.000    0.000 
#    0.000    1.429    0.000    0.000    0.000    0.000 
#    0.000    0.000    0.000    0.000    0.000    0.000 
#
# Total GULP energy -1041119.383717 kJ/mol
# GULP energy per Si atom -12394.278378 kJ/mol
# Density = 2.081056 g / cm^3
# Si number density = 20.858034 Si / 1000 Ang^3
#
#
#
# Elastic Constant Matrix: (Units=GPa)
#
#
# Indices 1 2 3 4 5 6 
#
# 1 86.3292 22.0623 36.8992 -0.0003 -1.3033 0.0000
# 2 22.0623 86.3292 36.8992 0.0003 1.3033 0.0000
# 3 36.8992 36.8992 75.8633 0.0000 0.0000 0.0000
# 4 -0.0003 0.0003 0.0000 23.9637 0.0000 1.3033
# 5 -1.3033 1.3033 0.0000 0.0000 23.9637 -0.0003
# 6 0.0000 0.0000 0.0000 1.3033 -0.0003 32.1334
#
#
#
# Elastic Compliance Matrix: (Units=1/GPa)
#
#
# Indices 1 2 3 4 5 6 
#
# 1 0.014694 -0.000900 -0.006709 0.000000 0.000848 0.000000
# 2 -0.000900 0.014694 -0.006709 0.000000 -0.000848 0.000000
# 3 -0.006709 -0.006709 0.019708 0.000000 0.000000 0.000000
# 4 0.000000 0.000000 0.000000 0.041822 0.000000 -0.001696
# 5 0.000848 -0.000848 0.000000 0.000000 0.041822 0.000000
# 6 0.000000 0.000000 0.000000 -0.001696 0.000000 0.031189
#
#
# Mechanical properties :
#
#
# Convention : Reuss Voigt Hill
#
# Bulk Modulus (GPa) = 48.87818 48.91591 48.89705
# Shear Modulus (GPa) = 25.07691 26.18956 25.63323
#
# Velocity S-wave (km/s) = 3.47113 3.54730 3.50942
# Velocity P-wave (km/s) = 6.28885 6.34670 6.31784
#
# Compressibility (1/GPa) = 0.02045903
#
# Stress axis : x y z
#
# Youngs Moduli (GPa) = 68.05442 68.05442 50.74045
#
# Poissons Ratio (x) = 0.06128 0.34042
# Poissons Ratio (y) = 0.06128 0.34042
# Poissons Ratio (z) = 0.45659 0.45659
#
# Static dielectric constant tensor:
#      x y z
#    x 3.699970 0.000000 0.000000 
#    y 0.000000 3.699970 0.000000 
#    z 0.000000 0.000000 3.711950 
# 
# 
# High freq. dielectric constant tensor:
#      x y z
#    x 1.811620 0.000000 0.000000 
#    y 0.000000 1.811620 0.000000 
#    z 0.000000 0.000000 1.799840 
# 
# From -- ./inp_files/2689.got.cif
#   From: 2010.03.12/outbox.cif.g09.slc.cpg/sg163_2_cif.got.tgz:2689.got - 2010.04.02 06:30:25.
