data_PCOD8323426
_publ_section_title
;
Structure prediction by ZEFSAII (Michael W. Deem and Ramdas Pophale) SiO2 
 PCOD8323426
Probable space group: P -3 M 1
;
_chemical_formula_sum "Si O2"
_cell_formula_units_Z 84
_cell_length_a 21.104413
_cell_length_b 21.104413
_cell_length_c 12.999362
_cell_angle_alpha 90.000000
_cell_angle_beta 90.000000
_cell_angle_gamma 120.000000
_cell_volume 5014.171960
_symmetry_space_group_name_H-M "P -3 M 1"
_symmetry_group_IT_number 164
_symmetry_cell_setting 'hexagonal'
loop_
_space_group_symop_operation_xyz
x,y,z
-y,x-y,z
-x+y,-x,z
x-y,-y,-z
-x,-x+y,-z
y,x,-z
-x,-y,-z
y,-x+y,-z
x-y,x,-z
-x+y,y,z
x,x-y,z
-y,-x,z
loop_
_atom_site_type_symbol
_atom_site_label
_atom_site_fract_x
_atom_site_fract_y
_atom_site_fract_z
Si Si1 0.062644 0.271631 0.574823
Si Si2 0.667997 0.477613 0.257863
Si Si3 0.268665 0.870379 0.880107
Si Si4 0.991130 0.309654 0.749033
Si Si5 0.050225 0.597419 0.400598
Si Si6 0.778625 0.076482 0.941937
Si Si7 0.149519 0.440257 0.538800
O O1 0.124597 0.249193 0.593471
O O2 0.098571 0.352891 0.527246
O O3 0.000000 0.213010 0.500000
O O4 0.021030 0.267775 0.679366
O O5 0.723959 0.447917 0.278600
O O6 0.586256 0.413745 0.262785
O O7 0.683274 0.515080 0.144779
O O8 0.676866 0.536400 0.345664
O O9 0.185861 0.814140 0.837975
O O10 0.309534 0.945334 0.821624
O O11 0.263962 0.887335 0.999525
O O12 0.962931 0.357773 0.688654
O O13 0.930815 0.247634 0.823835
O O14 0.042579 0.521290 0.358909
O O15 0.130339 0.649220 0.449511
O O16 0.000000 0.585497 0.500000
O O17 0.866539 0.133462 0.946232
O O18 0.759933 0.000000 0.000000
O O19 0.233175 0.466349 0.518229
#
# Coordination Sequence:
#
# PCOD8323426 Si02
#       7
#    12  12  12  12  12  12  12
#     4  11  20  33  51  76 105 133 169 208 249 295
#     4  10  18  28  46  70  98 131 171 213 256 299
#     4   9  17  32  48  67  94 126 159 199 250 297
#     4  11  18  31  49  75  99 130 167 205 246 301
#     4  11  20  31  46  70 106 140 172 209 255 305
#     4   9  20  35  56  79 101 125 159 205 253 306
#     4  10  18  30  47  69  98 135 176 214 251 295
#
# _framework density 16.752517999999998
#
# number of rings (size 3 to 8) (size 9 to 14) (size 15 to 20)
#    0.000    1.857    4.286    1.000    0.000    3.429 
#    0.000    0.714    0.000    3.143    0.000    1.000 
#    0.000    1.143    0.000    0.000    0.000    0.000 
#
# Total GULP energy -1040597.060464 kJ/mol
# GULP energy per Si atom -12388.060244 kJ/mol
# Density = 1.671439 g / cm^3
# Si number density = 16.752518 Si / 1000 Ang^3
#
#
#
# Elastic Constant Matrix: (Units=GPa)
#
#
# Indices 1 2 3 4 5 6 
#
# 1 84.7170 46.8946 46.0009 -0.6328 0.0000 0.0000
# 2 46.8946 84.7170 46.0009 0.6328 0.0000 0.0000
# 3 46.0009 46.0009 84.0898 0.0000 0.0000 0.0000
# 4 -0.6328 0.6328 0.0000 22.6565 0.0000 0.0000
# 5 0.0000 0.0000 0.0000 0.0000 22.6565 -0.6328
# 6 0.0000 0.0000 0.0000 0.0000 -0.6328 18.9112
#
#
#
# Elastic Compliance Matrix: (Units=1/GPa)
#
#
# Indices 1 2 3 4 5 6 
#
# 1 0.019383 -0.007081 -0.006730 0.000739 0.000000 0.000000
# 2 -0.007081 0.019383 -0.006730 -0.000739 0.000000 0.000000
# 3 -0.006730 -0.006730 0.019255 0.000000 0.000000 0.000000
# 4 0.000739 -0.000739 0.000000 0.044179 0.000000 0.000000
# 5 0.000000 0.000000 0.000000 0.000000 0.044179 0.001478
# 6 0.000000 0.000000 0.000000 0.000000 0.001478 0.052928
#
#
# Mechanical properties :
#
#
# Convention : Reuss Voigt Hill
#
# Bulk Modulus (GPa) = 59.03074 59.03518 59.03296
# Shear Modulus (GPa) = 20.32219 20.48669 20.40444
#
# Velocity S-wave (km/s) = 3.48671 3.50080 3.49376
# Velocity P-wave (km/s) = 7.17795 7.18727 7.18261
#
# Compressibility (1/GPa) = 0.01694033
#
# Stress axis : x y z
#
# Youngs Moduli (GPa) = 51.59047 51.59047 51.93333
#
# Poissons Ratio (x) = 0.36529 0.34952
# Poissons Ratio (y) = 0.36529 0.34952
# Poissons Ratio (z) = 0.34721 0.34721
#
# Static dielectric constant tensor:
#      x y z
#    x 3.168980 0.000000 0.000000 
#    y 0.000000 3.168980 0.000000 
#    z 0.000000 0.000000 3.362260 
# 
# 
# High freq. dielectric constant tensor:
#      x y z
#    x 1.634350 0.000000 0.000000 
#    y 0.000000 1.634350 0.000000 
#    z 0.000000 0.000000 1.632470 
# 
# From -- ./inp_files/2906.got.cif
#   From: 2010.03.12/outbox.cif.g09.slc.cpg/sg164_2_cif.got.tgz:2906.got - 2010.04.02 06:32:59.
