data_PCOD8323485
_publ_section_title
;
Structure prediction by ZEFSAII (Michael W. Deem and Ramdas Pophale) SiO2 
 PCOD8323485
Probable space group: P -3 M 1
;
_chemical_formula_sum "Si O2"
_cell_formula_units_Z 84
_cell_length_a 17.087725
_cell_length_b 17.087725
_cell_length_c 22.662491
_cell_angle_alpha 90.000000
_cell_angle_beta 90.000000
_cell_angle_gamma 120.000000
_cell_volume 5730.688054
_symmetry_space_group_name_H-M "P -3 M 1"
_symmetry_group_IT_number 164
_symmetry_cell_setting 'hexagonal'
loop_
_space_group_symop_operation_xyz
x,y,z
-y,x-y,z
-x+y,-x,z
x-y,-y,-z
-x,-x+y,-z
y,x,-z
-x,-y,-z
y,-x+y,-z
x-y,x,-z
-x+y,y,z
x,x-y,z
-y,-x,z
loop_
_atom_site_type_symbol
_atom_site_label
_atom_site_fract_x
_atom_site_fract_y
_atom_site_fract_z
Si Si1 0.426080 0.037537 0.138449
Si Si2 0.148280 0.666358 0.749817
Si Si3 0.667495 0.513388 0.592569
Si Si4 0.903118 0.273510 0.480095
Si Si5 0.332534 0.846183 0.968482
Si Si6 0.959508 0.389471 0.367174
Si Si7 0.667628 0.153238 0.895978
O O1 0.519282 0.038563 0.141105
O O2 0.423052 0.096961 0.192394
O O3 0.416672 0.076262 0.075514
O O4 0.346940 0.932649 0.142599
O O5 0.168763 0.584382 0.754616
O O6 0.242218 0.757783 0.741614
O O7 0.081951 0.652383 0.695857
O O8 0.762003 0.524005 0.615107
O O9 0.591258 0.408743 0.595674
O O10 0.674880 0.546152 0.525120
O O11 0.641969 0.574854 0.633726
O O12 0.833405 0.166596 0.479757
O O13 0.907104 0.312475 0.415424
O O14 0.000000 0.287925 0.500000
O O15 0.413561 0.827123 0.957431
O O16 0.243616 0.756385 0.950169
O O17 0.330369 0.873211 0.035926
O O18 0.944019 0.472010 0.383600
O O19 0.588319 0.176637 0.886033
O O20 0.760828 0.239173 0.875878
#
# Coordination Sequence:
#
# PCOD8323485 Si02
#       7
#    12  12  12  12  12  12  12
#     4   9  17  27  38  54  77 104 132 163 199 234
#     4  10  19  30  43  58  78 104 133 162 192 230
#     4   9  16  26  41  61  84 109 136 165 196 230
#     4   9  16  26  41  60  81 105 133 166 204 244
#     4   9  15  23  37  57  80 105 133 163 194 231
#     4   9  17  28  41  58  81 108 136 165 197 232
#     4   9  16  26  40  57  77 103 135 168 199 231
#
# _framework density 14.657927000000001
#
# number of rings (size 3 to 8) (size 9 to 14) (size 15 to 20)
#    0.000    2.857    0.000    2.286    0.000    4.571 
#    0.000    2.143    0.000    4.714    0.000    2.000 
#    0.000    0.000    0.000    7.429    0.000   26.857 
#
# Total GULP energy -1041267.791814 kJ/mol
# GULP energy per Si atom -12396.045141 kJ/mol
# Density = 1.462456 g / cm^3
# Si number density = 14.657927 Si / 1000 Ang^3
#
#
#
# Elastic Constant Matrix: (Units=GPa)
#
#
# Indices 1 2 3 4 5 6 
#
# 1 86.4706 44.6356 35.9663 -0.8506 0.0000 0.0000
# 2 44.6356 86.4706 35.9663 0.8506 0.0000 0.0000
# 3 35.9663 35.9663 49.9970 0.0000 0.0000 0.0000
# 4 -0.8506 0.8506 0.0000 18.2703 0.0000 0.0000
# 5 0.0000 0.0000 0.0000 0.0000 18.2703 -0.8506
# 6 0.0000 0.0000 0.0000 0.0000 -0.8506 20.9175
#
#
#
# Elastic Compliance Matrix: (Units=1/GPa)
#
#
# Indices 1 2 3 4 5 6 
#
# 1 0.018275 -0.005674 -0.009065 0.001115 0.000000 0.000000
# 2 -0.005674 0.018275 -0.009065 -0.001115 0.000000 0.000000
# 3 -0.009065 -0.009065 0.033043 0.000000 0.000000 0.000000
# 4 0.001115 -0.001115 0.000000 0.054838 0.000000 0.000000
# 5 0.000000 0.000000 0.000000 0.000000 0.054838 0.002230
# 6 0.000000 0.000000 0.000000 0.000000 0.002230 0.047898
#
#
# Mechanical properties :
#
#
# Convention : Reuss Voigt Hill
#
# Bulk Modulus (GPa) = 45.48363 50.67494 48.07928
# Shear Modulus (GPa) = 17.72420 18.58294 18.15357
#
# Velocity S-wave (km/s) = 3.48111 3.56444 3.52302
# Velocity P-wave (km/s) = 6.87422 7.18242 7.03001
#
# Compressibility (1/GPa) = 0.02198593
#
# Stress axis : x y z
#
# Youngs Moduli (GPa) = 54.72025 54.72025 30.26377
#
# Poissons Ratio (x) = 0.31048 0.27433
# Poissons Ratio (y) = 0.31048 0.27433
# Poissons Ratio (z) = 0.49602 0.49602
#
# Static dielectric constant tensor:
#      x y z
#    x 2.792880 0.000000 0.000000 
#    y 0.000000 2.792880 0.000000 
#    z 0.000000 0.000000 2.866030 
# 
# 
# High freq. dielectric constant tensor:
#      x y z
#    x 1.543400 0.000000 0.000000 
#    y 0.000000 1.543400 0.000000 
#    z 0.000000 0.000000 1.555710 
# 
# From -- ./inp_files/4619.got.cif
#   From: 2010.03.12/outbox.cif.g09.slc.cpg/sg164_3_cif.got.tgz:4619.got - 2010.04.02 06:32:59.
