data_PCOD8323336
_publ_section_title
;
Structure prediction by ZEFSAII (Michael W. Deem and Ramdas Pophale) SiO2 
 PCOD8323336
Probable space group: P -3 1 C
;
_chemical_formula_sum "Si O2"
_cell_formula_units_Z 40
_cell_length_a 11.085240
_cell_length_b 11.085240
_cell_length_c 15.357368
_cell_angle_alpha 90.000000
_cell_angle_beta 90.000000
_cell_angle_gamma 120.000000
_cell_volume 1634.321986
_symmetry_space_group_name_H-M "P -3 1 C"
_symmetry_group_IT_number 163
_symmetry_cell_setting 'hexagonal'
loop_
_space_group_symop_operation_xyz
x,y,z
-y,x-y,z
-x+y,-x,z
-y,-x,1/2-z
-x+y,y,1/2-z
x,x-y,1/2-z
-x,-y,-z
y,-x+y,-z
x-y,x,-z
y,x,1/2+z
x-y,-y,1/2+z
-x,-x+y,1/2+z
loop_
_atom_site_type_symbol
_atom_site_label
_atom_site_fract_x
_atom_site_fract_y
_atom_site_fract_z
Si Si1 0.000000 0.000000 0.101617
Si Si2 0.706975 0.099337 0.411536
Si Si3 0.618800 0.542469 0.335708
Si Si4 0.178215 0.870792 0.395669
O O1 0.126644 0.147876 0.131647
O O2 0.000000 0.000000 0.000000
O O3 0.561006 0.099195 0.417458
O O4 0.806964 0.219436 0.343674
O O5 0.786428 0.122980 0.502035
O O6 0.664311 0.946764 0.371881
O O7 0.545820 0.454181 0.250000
O O8 0.601776 0.679940 0.341012
#
# Coordination Sequence:
#
# PCOD8323336 Si02
#       4
#     4  12  12  12
#     4  12  15  39  75 114 145 177 258 324 361 462
#     4  12  24  46  77 109 151 208 263 325 389 475
#     4  12  27  46  71 112 164 208 257 326 406 465
#     4  12  22  42  81 114 147 202 267 322 381 477
#
# _framework density 24.474981
#
# number of rings (size 3 to 8) (size 9 to 14) (size 15 to 20)
#    0.000    0.000    9.000    2.400    0.000    1.200 
#    1.800    0.000    0.000    0.000    0.000    0.000 
#    0.000    0.000    0.000    0.000    0.000    0.000 
#
# Total GULP energy -495684.794593 kJ/mol
# GULP energy per Si atom -12392.119865 kJ/mol
# Density = 2.441927 g / cm^3
# Si number density = 24.474981 Si / 1000 Ang^3
#
#
#
# Elastic Constant Matrix: (Units=GPa)
#
#
# Indices 1 2 3 4 5 6 
#
# 1 170.6054 62.7926 34.1347 0.0000 1.2945 0.0000
# 2 62.7926 170.6054 34.1347 0.0000 -1.2945 0.0000
# 3 34.1347 34.1347 75.0907 0.0000 0.0000 0.0000
# 4 0.0000 0.0000 0.0000 30.6745 0.0000 -1.2945
# 5 1.2945 -1.2945 0.0000 0.0000 30.6745 0.0000
# 6 0.0000 0.0000 0.0000 -1.2945 0.0000 53.9064
#
#
#
# Elastic Compliance Matrix: (Units=1/GPa)
#
#
# Indices 1 2 3 4 5 6 
#
# 1 0.007113 -0.002172 -0.002246 0.000000 -0.000392 0.000000
# 2 -0.002172 0.007113 -0.002246 0.000000 0.000392 0.000000
# 3 -0.002246 -0.002246 0.015360 0.000000 0.000000 0.000000
# 4 0.000000 0.000000 0.000000 0.032633 0.000000 0.000784
# 5 -0.000392 0.000392 0.000000 0.000000 0.032633 0.000000
# 6 0.000000 0.000000 0.000000 0.000784 0.000000 0.018569
#
#
# Mechanical properties :
#
#
# Convention : Reuss Voigt Hill
#
# Bulk Modulus (GPa) = 61.51079 75.38062 68.44571
# Shear Modulus (GPa) = 37.83011 42.06704 39.94858
#
# Velocity S-wave (km/s) = 3.93576 4.15031 4.04446
# Velocity P-wave (km/s) = 6.77054 7.33708 7.05950
#
# Compressibility (1/GPa) = 0.01625731
#
# Stress axis : x y z
#
# Youngs Moduli (GPa) = 140.58436 140.58436 65.10619
#
# Poissons Ratio (x) = 0.30529 0.14625
# Poissons Ratio (y) = 0.30529 0.14625
# Poissons Ratio (z) = 0.31580 0.31580
#
# Static dielectric constant tensor:
#      x y z
#    x 4.387250 0.000000 0.000000 
#    y 0.000000 4.387250 0.000000 
#    z 0.000000 0.000000 4.038010 
# 
# 
# High freq. dielectric constant tensor:
#      x y z
#    x 1.985660 0.000000 0.000000 
#    y 0.000000 1.985660 0.000000 
#    z 0.000000 0.000000 1.940820 
# 
# From -- ./inp_files/2876.got.cif
#   From: 2010.03.12/outbox.cif.g09.slc.cpg/sg163_2_cif.got.tgz:2876.got - 2010.04.02 06:30:25.
