data_PCOD8323534
_publ_section_title
;
Structure prediction by ZEFSAII (Michael W. Deem and Ramdas Pophale) SiO2 
 PCOD8323534
Probable space group: P -3 M 1
;
_chemical_formula_sum "Si O2"
_cell_formula_units_Z 48
_cell_length_a 18.712934
_cell_length_b 18.712934
_cell_length_c 9.325786
_cell_angle_alpha 90.000000
_cell_angle_beta 90.000000
_cell_angle_gamma 120.000000
_cell_volume 2828.133127
_symmetry_space_group_name_H-M "P -3 M 1"
_symmetry_group_IT_number 164
_symmetry_cell_setting 'hexagonal'
loop_
_space_group_symop_operation_xyz
x,y,z
-y,x-y,z
-x+y,-x,z
x-y,-y,-z
-x,-x+y,-z
y,x,-z
-x,-y,-z
y,-x+y,-z
x-y,x,-z
-x+y,y,z
x,x-y,z
-y,-x,z
loop_
_atom_site_type_symbol
_atom_site_label
_atom_site_fract_x
_atom_site_fract_y
_atom_site_fract_z
Si Si1 0.620258 0.078722 0.407173
Si Si2 0.091979 0.344161 0.151634
Si Si3 0.494743 0.665737 0.316323
Si Si4 0.657498 0.909599 0.821357
O O1 0.532016 0.064031 0.349865
O O2 0.662228 0.157372 0.512747
O O3 0.681455 0.098670 0.274511
O O4 0.606544 0.000000 0.500000
O O5 0.159583 0.319165 0.199277
O O6 0.102490 0.422913 0.237951
O O7 0.002314 0.266292 0.190724
O O8 0.103680 0.371034 0.985918
O O9 0.476151 0.738076 0.278109
O O10 0.419709 0.580292 0.258255
O O11 0.682656 0.841328 0.774699
#
# Coordination Sequence:
#
# PCOD8323534 Si02
#       4
#    12  12  12  12
#     4  10  19  31  47  71  99 126 160 199 237 278
#     4   9  19  33  50  72  99 125 156 200 245 287
#     4  10  19  32  49  70  97 129 163 198 236 281
#     4  10  19  33  52  73  95 126 163 199 240 288
#
# _framework density 16.972327
#
# number of rings (size 3 to 8) (size 9 to 14) (size 15 to 20)
#    0.000    2.250    2.500    1.000    0.000    1.000 
#    0.000    2.500    0.000    1.000    0.000    3.500 
#    0.000    1.000    0.000    0.000    0.000    0.000 
#
# Total GULP energy -594987.989794 kJ/mol
# GULP energy per Si atom -12395.583121 kJ/mol
# Density = 1.693370 g / cm^3
# Si number density = 16.972327 Si / 1000 Ang^3
#
#
#
# Elastic Constant Matrix: (Units=GPa)
#
#
# Indices 1 2 3 4 5 6 
#
# 1 107.8203 65.2449 37.6973 -1.1313 0.0000 0.0000
# 2 65.2449 107.8203 37.6973 1.1313 0.0000 0.0000
# 3 37.6973 37.6973 54.5566 0.0000 0.0000 0.0000
# 4 -1.1313 1.1313 0.0000 24.7568 0.0000 0.0000
# 5 0.0000 0.0000 0.0000 0.0000 24.7568 -1.1313
# 6 0.0000 0.0000 0.0000 0.0000 -1.1313 21.2877
#
#
#
# Elastic Compliance Matrix: (Units=1/GPa)
#
#
# Indices 1 2 3 4 5 6 
#
# 1 0.015906 -0.007639 -0.005712 0.001076 0.000000 0.000000
# 2 -0.007639 0.015906 -0.005712 -0.001076 0.000000 0.000000
# 3 -0.005712 -0.005712 0.026223 0.000000 0.000000 0.000000
# 4 0.001076 -0.001076 0.000000 0.040491 0.000000 0.000000
# 5 0.000000 0.000000 0.000000 0.000000 0.040491 0.002152
# 6 0.000000 0.000000 0.000000 0.000000 0.002152 0.047090
#
#
# Mechanical properties :
#
#
# Convention : Reuss Voigt Hill
#
# Bulk Modulus (GPa) = 50.22999 61.27514 55.75256
# Shear Modulus (GPa) = 21.65724 22.79744 22.22734
#
# Velocity S-wave (km/s) = 3.57604 3.66896 3.62280
# Velocity P-wave (km/s) = 6.83448 7.35729 7.10070
#
# Compressibility (1/GPa) = 0.01990843
#
# Stress axis : x y z
#
# Youngs Moduli (GPa) = 62.87034 62.87034 38.13406
#
# Poissons Ratio (x) = 0.48028 0.21782
# Poissons Ratio (y) = 0.48028 0.21782
# Poissons Ratio (z) = 0.35911 0.35911
#
# Static dielectric constant tensor:
#      x y z
#    x 3.218420 0.000000 0.000000 
#    y 0.000000 3.218420 0.000000 
#    z 0.000000 0.000000 3.146410 
# 
# 
# High freq. dielectric constant tensor:
#      x y z
#    x 1.647910 0.000000 0.000000 
#    y 0.000000 1.647910 0.000000 
#    z 0.000000 0.000000 1.649410 
# 
# From -- ./inp_files/1251.got.cif
#   From: 2010.03.12/outbox.cif.g09.slc.cpg/sg164_1_cif.got.tgz:1251.got - 2010.04.02 06:32:59.
