data_PCOD8323814
_publ_section_title
;
Structure prediction by ZEFSAII (Michael W. Deem and Ramdas Pophale) SiO2 
 PCOD8323814
Probable space group: P -3 M 1
;
_chemical_formula_sum "Si O2"
_cell_formula_units_Z 60
_cell_length_a 29.556333
_cell_length_b 29.556333
_cell_length_c 5.094032
_cell_angle_alpha 90.000000
_cell_angle_beta 90.000000
_cell_angle_gamma 120.000000
_cell_volume 3853.837536
_symmetry_space_group_name_H-M "P -3 M 1"
_symmetry_group_IT_number 164
_symmetry_cell_setting 'hexagonal'
loop_
_space_group_symop_operation_xyz
x,y,z
-y,x-y,z
-x+y,-x,z
x-y,-y,-z
-x,-x+y,-z
y,x,-z
-x,-y,-z
y,-x+y,-z
x-y,x,-z
-x+y,y,z
x,x-y,z
-y,-x,z
loop_
_atom_site_type_symbol
_atom_site_label
_atom_site_fract_x
_atom_site_fract_y
_atom_site_fract_z
Si Si1 0.195297 0.287323 0.579250
Si Si2 0.136149 0.169045 0.737641
Si Si3 0.572358 0.634415 0.009750
Si Si4 0.937668 0.519754 0.491673
Si Si5 0.675395 0.939129 0.066337
O O1 0.149752 0.299503 0.501806
O O2 0.172299 0.226036 0.617411
O O3 0.238647 0.308373 0.353275
O O4 0.220309 0.315406 0.852783
O O5 0.129933 0.129933 0.500000
O O6 0.079387 0.158773 0.819048
O O7 0.162175 0.162175 0.000000
O O8 0.529446 0.613701 0.239364
O O9 0.613805 0.694891 0.060519
O O10 0.602314 0.602314 0.000000
O O11 0.540860 0.624957 0.739551
O O12 0.916447 0.458224 0.454561
O O13 0.000000 0.550677 0.500000
O O14 0.709361 0.000000 0.000000
#
# Coordination Sequence:
#
# PCOD8323814 Si02
#       5
#    12  12  12  12  12
#     4  11  22  34  49  68  87 110 139 172 215 262
#     4  11  22  37  56  75  93 111 134 163 202 259
#     4   9  17  26  38  58  79 106 140 170 209 249
#     4   9  15  24  37  54  79 108 139 174 207 237
#     4  11  20  32  48  64  87 112 138 176 219 262
#
# _framework density 15.568898000000001
#
# number of rings (size 3 to 8) (size 9 to 14) (size 15 to 20)
#    0.000    1.800    0.000    6.600    0.000    8.800 
#    0.000    0.000    0.000    4.000    0.000    0.000 
#    0.000    0.000    0.000    0.000    0.000    0.000 
#
# Total GULP energy -744022.853293 kJ/mol
# GULP energy per Si atom -12400.380888 kJ/mol
# Density = 1.553346 g / cm^3
# Si number density = 15.568898 Si / 1000 Ang^3
#
#
#
# Elastic Constant Matrix: (Units=GPa)
#
#
# Indices 1 2 3 4 5 6 
#
# 1 63.2067 30.7728 25.3605 -4.2664 0.0000 0.0000
# 2 30.7728 63.2067 25.3605 4.2664 0.0000 0.0000
# 3 25.3605 25.3605 105.1033 0.0000 0.0000 0.0000
# 4 -4.2664 4.2664 0.0000 20.9349 0.0000 0.0000
# 5 0.0000 0.0000 0.0000 0.0000 20.9349 -4.2664
# 6 0.0000 0.0000 0.0000 0.0000 -4.2664 16.2169
#
#
#
# Elastic Compliance Matrix: (Units=1/GPa)
#
#
# Indices 1 2 3 4 5 6 
#
# 1 0.022406 -0.010172 -0.002952 0.006639 0.000000 0.000000
# 2 -0.010172 0.022406 -0.002952 -0.006639 0.000000 0.000000
# 3 -0.002952 -0.002952 0.010939 0.000000 0.000000 0.000000
# 4 0.006639 -0.006639 0.000000 0.050473 0.000000 0.000000
# 5 0.000000 0.000000 0.000000 0.000000 0.050473 0.013279
# 6 0.000000 0.000000 0.000000 0.000000 0.013279 0.065157
#
#
# Mechanical properties :
#
#
# Convention : Reuss Voigt Hill
#
# Bulk Modulus (GPa) = 42.37485 43.83384 43.10434
# Shear Modulus (GPa) = 19.09312 21.61886 20.35599
#
# Velocity S-wave (km/s) = 3.50575 3.73043 3.61983
# Velocity P-wave (km/s) = 6.60785 6.83891 6.72437
#
# Compressibility (1/GPa) = 0.02359890
#
# Stress axis : x y z
#
# Youngs Moduli (GPa) = 44.63046 44.63046 91.41620
#
# Poissons Ratio (x) = 0.45400 0.26985
# Poissons Ratio (y) = 0.45400 0.26985
# Poissons Ratio (z) = 0.13174 0.13174
#
# Static dielectric constant tensor:
#      x y z
#    x 2.836010 0.000000 0.000000 
#    y 0.000000 2.836010 0.000000 
#    z 0.000000 0.000000 3.235480 
# 
# 
# High freq. dielectric constant tensor:
#      x y z
#    x 1.563210 0.000000 0.000000 
#    y 0.000000 1.563210 0.000000 
#    z 0.000000 0.000000 1.623950 
# 
# From -- ./inp_files/686.got.cif
#   From: 2010.03.12/outbox.cif.g09.slc.cpg/sg164_1_cif.got.tgz:686.got - 2010.04.02 06:32:59.
