data_PCOD8323121
_publ_section_title
;
Structure prediction by ZEFSAII (Michael W. Deem and Ramdas Pophale) SiO2 
 PCOD8323121
Probable space group: P -3 1 M 
;
_chemical_formula_sum "Si O2"
_cell_formula_units_Z 72
_cell_length_a 22.463500
_cell_length_b 22.463500
_cell_length_c 9.524642
_cell_angle_alpha 90.000000
_cell_angle_beta 90.000000
_cell_angle_gamma 120.000000
_cell_volume 4162.307297
_symmetry_space_group_name_H-M "P -3 1 M "
_symmetry_group_IT_number 162
_symmetry_cell_setting 'hexagonal'
loop_
_space_group_symop_operation_xyz
x,y,z
-y,x-y,z
-x+y,-x,z
-y,-x,-z
-x+y,y,-z
x,x-y,-z
-x,-y,-z
y,-x+y,-z
x-y,x,-z
y,x,z
x-y,-y,z
-x,-x+y,z
loop_
_atom_site_type_symbol
_atom_site_label
_atom_site_fract_x
_atom_site_fract_y
_atom_site_fract_z
Si Si1 0.418116 0.078633 0.336701
Si Si2 0.921367 0.581884 0.336701
Si Si3 0.281294 0.075076 0.667086
Si Si4 0.333044 0.802242 0.161864
Si Si5 0.666956 0.197758 0.161864
Si Si6 0.718706 0.924924 0.667086
O O1 0.433679 0.096853 0.500000
O O2 0.485112 0.129072 0.249906
O O3 0.355956 0.089741 0.285122
O O4 0.398562 0.000000 0.309049
O O5 0.910259 0.644044 0.285122
O O6 0.870928 0.514888 0.249906
O O7 0.000000 0.601438 0.309049
O O8 0.279401 0.075566 0.500000
O O9 0.267173 0.133587 0.730458
O O10 0.222920 0.000000 0.722511
O O11 0.260308 0.739692 0.215280
O O12 0.389800 0.779600 0.182905
O O13 0.327902 0.818786 1.000000
O O14 0.777080 0.000000 0.722511
#
# Coordination Sequence:
#
# PCOD8323121 Si02
#       6
#    12  12  12  12  12  12
#     4   9  18  32  50  72  95 119 151 193 238 281
#     4   9  18  32  50  72  95 119 151 193 238 281
#     4   8  13  22  38  60  85 113 145 181 221 264
#     4  10  21  36  52  69  92 124 159 192 228 275
#     4  10  21  36  52  69  92 124 159 192 228 275
#     4   8  13  22  38  60  85 113 145 181 221 264
#
# _framework density 17.298098
#
# number of rings (size 3 to 8) (size 9 to 14) (size 15 to 20)
#    0.000    3.000    0.000    3.333    0.000    5.333 
#    0.000    3.333    0.000    2.333    0.000    2.333 
#    0.000    0.000    0.000    0.000    0.000    0.000 
#
# Total GULP energy -892535.313163 kJ/mol
# GULP energy per Si atom -12396.323794 kJ/mol
# Density = 1.725873 g / cm^3
# Si number density = 17.298098 Si / 1000 Ang^3
#
#
#
# Elastic Constant Matrix: (Units=GPa)
#
#
# Indices 1 2 3 4 5 6 
#
# 1 99.0768 44.2838 37.4648 0.0000 0.0000 0.0000
# 2 44.2838 99.0768 37.4648 0.0000 0.0000 0.0000
# 3 37.4648 37.4648 42.2165 0.0000 0.0000 0.0000
# 4 0.0000 0.0000 0.0000 21.0042 0.0000 0.0000
# 5 0.0000 0.0000 0.0000 0.0000 21.0042 0.0000
# 6 0.0000 0.0000 0.0000 0.0000 0.0000 27.3965
#
#
#
# Elastic Compliance Matrix: (Units=1/GPa)
#
#
# Indices 1 2 3 4 5 6 
#
# 1 0.015630 -0.002620 -0.011545 0.000000 0.000000 0.000000
# 2 -0.002620 0.015630 -0.011545 0.000000 0.000000 0.000000
# 3 -0.011545 -0.011545 0.044179 0.000000 0.000000 0.000000
# 4 0.000000 0.000000 0.000000 0.047610 0.000000 0.000000
# 5 0.000000 0.000000 0.000000 0.000000 0.047610 0.000000
# 6 0.000000 0.000000 0.000000 0.000000 0.000000 0.036501
#
#
# Mechanical properties :
#
#
# Convention : Reuss Voigt Hill
#
# Bulk Modulus (GPa) = 41.63710 53.19964 47.41837
# Shear Modulus (GPa) = 18.75552 21.95809 20.35680
#
# Velocity S-wave (km/s) = 3.29637 3.56672 3.43421
# Velocity P-wave (km/s) = 6.21375 6.91255 6.57244
#
# Compressibility (1/GPa) = 0.02401704
#
# Stress axis : x y z
#
# Youngs Moduli (GPa) = 63.97881 63.97881 22.63502
#
# Poissons Ratio (x) = 0.16765 0.26133
# Poissons Ratio (y) = 0.16765 0.26133
# Poissons Ratio (z) = 0.73867 0.73867
#
# Static dielectric constant tensor:
#      x y z
#    x 3.353280 0.000000 0.000000 
#    y 0.000000 3.353280 0.000000 
#    z 0.000000 0.000000 2.803230 
# 
# 
# High freq. dielectric constant tensor:
#      x y z
#    x 1.669530 0.000000 0.000000 
#    y 0.000000 1.669530 0.000000 
#    z 0.000000 0.000000 1.625690 
# 
# From -- ./inp_files/1702.got.cif
#   From: 2010.03.12/outbox.cif.g09.slc.cpg/sg162_1_cif.got.tgz:1702.got - 2010.04.02 06:27:41.
