data_PCOD8323737
_publ_section_title
;
Structure prediction by ZEFSAII (Michael W. Deem and Ramdas Pophale) SiO2 
 PCOD8323737
Probable space group: P -3 M 1
;
_chemical_formula_sum "Si O2"
_cell_formula_units_Z 60
_cell_length_a 18.053696
_cell_length_b 18.053696
_cell_length_c 11.532447
_cell_angle_alpha 90.000000
_cell_angle_beta 90.000000
_cell_angle_gamma 120.000000
_cell_volume 3255.250015
_symmetry_space_group_name_H-M "P -3 M 1"
_symmetry_group_IT_number 164
_symmetry_cell_setting 'hexagonal'
loop_
_space_group_symop_operation_xyz
x,y,z
-y,x-y,z
-x+y,-x,z
x-y,-y,-z
-x,-x+y,-z
y,x,-z
-x,-y,-z
y,-x+y,-z
x-y,x,-z
-x+y,y,z
x,x-y,z
-y,-x,z
loop_
_atom_site_type_symbol
_atom_site_label
_atom_site_fract_x
_atom_site_fract_y
_atom_site_fract_z
Si Si1 0.828889 0.829088 0.634155
Si Si2 0.420104 0.408016 0.627812
Si Si3 0.744382 0.648776 0.993228
Si Si4 0.157796 0.491172 0.195720
Si Si5 0.905478 0.650797 0.256752
O O1 0.802752 0.802752 0.500000
O O2 0.856092 0.928046 0.652503
O O3 0.748945 0.767778 0.717903
O O4 0.908547 0.817093 0.670009
O O5 0.379985 0.379985 0.500000
O O6 0.497567 0.502434 0.625982
O O7 0.447479 0.343849 0.687156
O O8 0.347530 0.414523 0.697540
O O9 0.840191 0.680382 0.945488
O O10 0.677057 0.570116 0.913290
O O11 0.727584 0.727584 0.000000
O O12 0.739397 0.621076 0.125142
O O13 0.251841 0.503682 0.210740
O O14 0.165752 0.582876 0.172976
O O15 0.819646 0.639292 0.318664
#
# Coordination Sequence:
#
# PCOD8323737 Si02
#       5
#    12  12  12  12  12
#     4   9  17  29  47  73 105 141 179 220 266 314
#     4  10  21  36  55  80 108 140 176 214 264 325
#     4  10  20  35  54  79 107 141 184 226 271 321
#     4  10  21  37  59  85 111 140 177 224 276 325
#     4  10  20  33  50  75 105 139 177 216 262 313
#
# _framework density 18.431763
#
# number of rings (size 3 to 8) (size 9 to 14) (size 15 to 20)
#    0.000    2.200    2.000    1.000    0.000    4.400 
#    0.000    0.000    0.000    0.600    0.000    0.000 
#    0.000    0.000    0.000    0.000    0.000    0.000 
#
# Total GULP energy -743402.124265 kJ/mol
# GULP energy per Si atom -12390.035404 kJ/mol
# Density = 1.838981 g / cm^3
# Si number density = 18.431763 Si / 1000 Ang^3
#
#
#
# Elastic Constant Matrix: (Units=GPa)
#
#
# Indices 1 2 3 4 5 6 
#
# 1 85.2567 53.2785 44.6044 2.2339 0.0000 0.0000
# 2 53.2785 85.2567 44.6044 -2.2339 0.0000 0.0000
# 3 44.6044 44.6044 100.8214 0.0000 0.0000 0.0000
# 4 2.2339 -2.2339 0.0000 22.8769 0.0000 0.0000
# 5 0.0000 0.0000 0.0000 0.0000 22.8769 2.2339
# 6 0.0000 0.0000 0.0000 0.0000 2.2339 15.9891
#
#
#
# Elastic Compliance Matrix: (Units=1/GPa)
#
#
# Indices 1 2 3 4 5 6 
#
# 1 0.020899 -0.010805 -0.004466 -0.003096 0.000000 0.000000
# 2 -0.010805 0.020899 -0.004466 0.003096 0.000000 0.000000
# 3 -0.004466 -0.004466 0.013870 0.000000 0.000000 0.000000
# 4 -0.003096 0.003096 0.000000 0.044317 0.000000 0.000000
# 5 0.000000 0.000000 0.000000 0.000000 0.044317 -0.006192
# 6 0.000000 0.000000 0.000000 0.000000 -0.006192 0.063408
#
#
# Mechanical properties :
#
#
# Convention : Reuss Voigt Hill
#
# Bulk Modulus (GPa) = 61.74693 61.81215 61.77954
# Shear Modulus (GPa) = 19.79568 20.93841 20.36704
#
# Velocity S-wave (km/s) = 3.28075 3.37411 3.32776
# Velocity P-wave (km/s) = 6.92272 6.98484 6.95385
#
# Compressibility (1/GPa) = 0.01619514
#
# Stress axis : x y z
#
# Youngs Moduli (GPa) = 47.84926 47.84926 72.09876
#
# Poissons Ratio (x) = 0.51701 0.32197
# Poissons Ratio (y) = 0.51701 0.32197
# Poissons Ratio (z) = 0.21368 0.21368
#
# Static dielectric constant tensor:
#      x y z
#    x 3.464020 0.000000 0.000000 
#    y 0.000000 3.464020 0.000000 
#    z 0.000000 0.000000 3.641970 
# 
# 
# High freq. dielectric constant tensor:
#      x y z
#    x 1.712080 0.000000 0.000000 
#    y 0.000000 1.712080 0.000000 
#    z 0.000000 0.000000 1.715770 
# 
# From -- ./inp_files/2673.got.cif
#   From: 2010.03.12/outbox.cif.g09.slc.cpg/sg164_2_cif.got.tgz:2673.got - 2010.04.02 06:32:59.
