data_PCOD8323113
_publ_section_title
;
Structure prediction by ZEFSAII (Michael W. Deem and Ramdas Pophale) SiO2 
 PCOD8323113
Probable space group: P -3 1 M 
;
_chemical_formula_sum "Si O2"
_cell_formula_units_Z 90
_cell_length_a 17.630460
_cell_length_b 17.630460
_cell_length_c 18.984106
_cell_angle_alpha 90.000000
_cell_angle_beta 90.000000
_cell_angle_gamma 120.000000
_cell_volume 5110.319688
_symmetry_space_group_name_H-M "P -3 1 M "
_symmetry_group_IT_number 162
_symmetry_cell_setting 'hexagonal'
loop_
_space_group_symop_operation_xyz
x,y,z
-y,x-y,z
-x+y,-x,z
-y,-x,-z
-x+y,y,-z
x,x-y,-z
-x,-y,-z
y,-x+y,-z
x-y,x,-z
y,x,z
x-y,-y,z
-x,-x+y,z
loop_
_atom_site_type_symbol
_atom_site_label
_atom_site_fract_x
_atom_site_fract_y
_atom_site_fract_z
Si Si1 0.807575 0.192427 0.922473
Si Si2 0.893920 0.787840 0.000000
Si Si3 0.198128 0.801873 0.416529
Si Si4 0.896148 0.532593 0.830488
Si Si5 0.637272 0.098560 0.673620
Si Si6 0.901440 0.362727 0.673621
Si Si7 0.896148 0.532593 0.169513
Si Si8 0.901396 0.802793 0.416129
O O1 0.861147 0.138853 0.931287
O O2 0.716187 0.135115 0.883577
O O3 0.864890 0.283815 0.883578
O O4 0.786002 0.213999 0.000000
O O5 0.849117 0.849117 0.000000
O O6 0.200535 0.799466 0.500000
O O7 0.295394 0.848906 0.387352
O O8 0.151093 0.704607 0.387352
O O9 0.148242 0.851760 0.388788
O O10 0.862091 0.534614 0.751653
O O11 0.862375 0.431188 0.852641
O O12 0.000000 0.583389 0.829996
O O13 0.551398 0.102797 0.655769
O O14 0.618608 0.000000 0.670726
O O15 0.862089 0.327475 0.751653
O O16 0.000000 0.381392 0.670728
O O17 0.000000 0.583385 0.170009
O O18 0.902551 0.805101 0.500000
O O19 0.851789 0.851789 0.386159
O O20 0.000000 0.851788 0.386158
#
# Coordination Sequence:
#
# PCOD8323113 Si02
#       8
#    12   6  12  12  12  12  12  12
#     4  10  21  32  53  85 116 145 179 221 266 326
#     4  10  21  36  54  80 116 156 192 224 261 308
#     4  11  21  32  50  77 108 138 176 225 278 335
#     4   9  18  35  57  78 103 139 180 223 270 319
#     4   9  19  36  56  76 100 135 180 224 270 324
#     4   9  19  36  56  76 100 135 180 224 270 324
#     4   9  18  35  57  78 103 139 180 223 270 319
#     4   9  17  29  46  70 101 136 171 210 262 325
#
# _framework density 17.611422999999998
#
# number of rings (size 3 to 8) (size 9 to 14) (size 15 to 20)
#    0.400    2.133    0.000    4.200    0.000    3.200 
#    1.600    2.667    0.000    0.000    0.000    0.000 
#    0.000   12.800    0.000    0.000    0.000    0.000 
#
# Total GULP energy -1115429.319806 kJ/mol
# GULP energy per Si atom -12393.659109 kJ/mol
# Density = 1.757134 g / cm^3
# Si number density = 17.611423 Si / 1000 Ang^3
#
#
#
# Elastic Constant Matrix: (Units=GPa)
#
#
# Indices 1 2 3 4 5 6 
#
# 1 89.9313 49.0838 50.5572 0.0000 0.0005 0.0000
# 2 49.0838 89.9313 50.5572 0.0000 -0.0005 0.0000
# 3 50.5572 50.5572 90.6402 0.0000 0.0000 0.0000
# 4 0.0000 0.0000 0.0000 22.7037 0.0000 -0.0005
# 5 0.0005 -0.0005 0.0000 0.0000 22.7037 0.0000
# 6 0.0000 0.0000 0.0000 -0.0005 0.0000 20.4238
#
#
#
# Elastic Compliance Matrix: (Units=1/GPa)
#
#
# Indices 1 2 3 4 5 6 
#
# 1 0.018293 -0.006189 -0.006751 0.000000 -0.000001 0.000000
# 2 -0.006189 0.018293 -0.006751 0.000000 0.000001 0.000000
# 3 -0.006751 -0.006751 0.018564 0.000000 0.000000 0.000000
# 4 0.000000 0.000000 0.000000 0.044046 0.000000 0.000001
# 5 -0.000001 0.000001 0.000000 0.000000 0.044046 0.000000
# 6 0.000000 0.000000 0.000000 0.000001 0.000000 0.048963
#
#
# Mechanical properties :
#
#
# Convention : Reuss Voigt Hill
#
# Bulk Modulus (GPa) = 63.42425 63.43321 63.42873
# Shear Modulus (GPa) = 21.11108 21.18654 21.14881
#
# Velocity S-wave (km/s) = 3.46600 3.47219 3.46910
# Velocity P-wave (km/s) = 7.21865 7.22297 7.22081
#
# Compressibility (1/GPa) = 0.01576684
#
# Stress axis : x y z
#
# Youngs Moduli (GPa) = 54.66644 54.66644 53.86678
#
# Poissons Ratio (x) = 0.33830 0.36368
# Poissons Ratio (y) = 0.33830 0.36368
# Poissons Ratio (z) = 0.36908 0.36908
#
# Static dielectric constant tensor:
#      x y z
#    x 3.319630 0.000000 0.000000 
#    y 0.000000 3.319630 0.000000 
#    z 0.000000 0.000000 3.141120 
# 
# 
# High freq. dielectric constant tensor:
#      x y z
#    x 1.682920 0.000000 0.000000 
#    y 0.000000 1.682920 0.000000 
#    z 0.000000 0.000000 1.663120 
# 
# From -- ./inp_files/3661.got.cif
#   From: 2010.03.12/outbox.cif.g09.slc.cpg/sg162_2_cif.got.tgz:3661.got - 2010.04.02 06:27:41.
