data_PCOD8323697
_publ_section_title
;
Structure prediction by ZEFSAII (Michael W. Deem and Ramdas Pophale) SiO2 
 PCOD8323697
Probable space group: P -3 M 1
;
_chemical_formula_sum "Si O2"
_cell_formula_units_Z 60
_cell_length_a 12.658353
_cell_length_b 12.658353
_cell_length_c 25.329471
_cell_angle_alpha 90.000000
_cell_angle_beta 90.000000
_cell_angle_gamma 120.000000
_cell_volume 3514.885293
_symmetry_space_group_name_H-M "P -3 M 1"
_symmetry_group_IT_number 164
_symmetry_cell_setting 'hexagonal'
loop_
_space_group_symop_operation_xyz
x,y,z
-y,x-y,z
-x+y,-x,z
x-y,-y,-z
-x,-x+y,-z
y,x,-z
-x,-y,-z
y,-x+y,-z
x-y,x,-z
-x+y,y,z
x,x-y,z
-y,-x,z
loop_
_atom_site_type_symbol
_atom_site_label
_atom_site_fract_x
_atom_site_fract_y
_atom_site_fract_z
Si Si1 0.090204 0.423527 0.761016
Si Si2 0.246188 0.244761 0.146752
Si Si3 0.666682 0.575958 0.359162
Si Si4 0.087123 0.421663 0.451586
Si Si5 0.913649 0.580601 0.048908
O O1 0.231672 0.463343 0.768985
O O2 0.075209 0.537605 0.777202
O O3 0.004317 0.309138 0.797662
O O4 0.049020 0.382567 0.700885
O O5 0.204358 0.102179 0.145447
O O6 0.341751 0.317236 0.100902
O O7 0.129798 0.259596 0.138795
O O8 0.795389 0.590777 0.375303
O O9 0.565477 0.434524 0.366890
O O10 0.639733 0.661208 0.396691
O O11 0.204794 0.409588 0.456973
O O12 0.126469 0.563235 0.452998
O O13 0.000000 0.350164 0.500000
O O14 0.783087 0.566173 0.037517
O O15 0.895758 0.447879 0.057498
O O16 0.000000 0.650174 0.000000
#
# Coordination Sequence:
#
# PCOD8323697 Si02
#       5
#    12  12  12  12  12
#     4   9  17  30  50  75 100 126 158 198 242 285
#     4  10  20  33  49  69  95 128 165 203 241 282
#     4   9  17  30  50  75 100 126 157 195 238 283
#     4  10  20  33  50  71  95 124 158 197 240 285
#     4  10  20  34  53  76 101 129 161 198 241 288
#
# _framework density 17.070260000000001
#
# number of rings (size 3 to 8) (size 9 to 14) (size 15 to 20)
#    0.000    2.400    0.000    2.800    0.000    2.400 
#    0.000    4.000    0.000   11.200    0.000    0.000 
#    0.000    0.000    0.000    0.000    0.000    0.000 
#
# Total GULP energy -744163.244691 kJ/mol
# GULP energy per Si atom -12402.720745 kJ/mol
# Density = 1.703141 g / cm^3
# Si number density = 17.070260 Si / 1000 Ang^3
#
#
#
# Elastic Constant Matrix: (Units=GPa)
#
#
# Indices 1 2 3 4 5 6 
#
# 1 111.2697 72.2400 62.7627 3.7226 0.0000 0.0000
# 2 72.2400 111.2697 62.7627 -3.7226 0.0000 0.0000
# 3 62.7627 62.7627 114.4093 0.0000 0.0000 0.0000
# 4 3.7226 -3.7226 0.0000 22.1896 0.0000 0.0000
# 5 0.0000 0.0000 0.0000 0.0000 22.1896 3.7226
# 6 0.0000 0.0000 0.0000 0.0000 3.7226 19.5149
#
#
#
# Elastic Compliance Matrix: (Units=1/GPa)
#
#
# Indices 1 2 3 4 5 6 
#
# 1 0.017595 -0.008873 -0.004785 -0.004440 0.000000 0.000000
# 2 -0.008873 0.017595 -0.004785 0.004440 0.000000 0.000000
# 3 -0.004785 -0.004785 0.013990 0.000000 0.000000 0.000000
# 4 -0.004440 0.004440 0.000000 0.046556 0.000000 0.000000
# 5 0.000000 0.000000 0.000000 0.000000 0.046556 -0.008881
# 6 0.000000 0.000000 0.000000 0.000000 -0.008881 0.052937
#
#
# Mechanical properties :
#
#
# Convention : Reuss Voigt Hill
#
# Bulk Modulus (GPa) = 81.33129 81.38663 81.35896
# Shear Modulus (GPa) = 21.16718 22.05769 21.61244
#
# Velocity S-wave (km/s) = 3.52519 3.59858 3.56207
# Velocity P-wave (km/s) = 8.01983 8.06519 8.04254
#
# Compressibility (1/GPa) = 0.01229539
#
# Stress axis : x y z
#
# Youngs Moduli (GPa) = 56.83294 56.83294 71.47799
#
# Poissons Ratio (x) = 0.50429 0.34201
# Poissons Ratio (y) = 0.50429 0.34201
# Poissons Ratio (z) = 0.27194 0.27194
#
# Static dielectric constant tensor:
#      x y z
#    x 3.049690 0.000000 0.000000 
#    y 0.000000 3.049690 0.000000 
#    z 0.000000 0.000000 3.459560 
# 
# 
# High freq. dielectric constant tensor:
#      x y z
#    x 1.650840 0.000000 0.000000 
#    y 0.000000 1.650840 0.000000 
#    z 0.000000 0.000000 1.676380 
# 
# From -- ./inp_files/5164.got.cif
#   From: 2010.03.12/outbox.cif.g09.slc.cpg/sg164_3_cif.got.tgz:5164.got - 2010.04.02 06:32:59.
