data_PCOD8323614
_publ_section_title
;
Structure prediction by ZEFSAII (Michael W. Deem and Ramdas Pophale) SiO2 
 PCOD8323614
Probable space group: P -3 M 1
;
_chemical_formula_sum "Si O2"
_cell_formula_units_Z 54
_cell_length_a 13.288043
_cell_length_b 13.288043
_cell_length_c 22.224270
_cell_angle_alpha 90.000000
_cell_angle_beta 90.000000
_cell_angle_gamma 120.000000
_cell_volume 3398.444532
_symmetry_space_group_name_H-M "P -3 M 1"
_symmetry_group_IT_number 164
_symmetry_cell_setting 'hexagonal'
loop_
_space_group_symop_operation_xyz
x,y,z
-y,x-y,z
-x+y,-x,z
x-y,-y,-z
-x,-x+y,-z
y,x,-z
-x,-y,-z
y,-x+y,-z
x-y,x,-z
-x+y,y,z
x,x-y,z
-y,-x,z
loop_
_atom_site_type_symbol
_atom_site_label
_atom_site_fract_x
_atom_site_fract_y
_atom_site_fract_z
Si Si1 0.101792 0.666500 0.905681
Si Si2 0.762323 0.762323 0.000000
Si Si3 0.434307 0.333281 0.681037
Si Si4 0.564482 0.666482 0.767498
Si Si5 0.333297 0.433998 0.456379
O O1 0.085840 0.542920 0.926773
O O2 0.236790 0.763211 0.914581
O O3 0.064276 0.661069 0.836601
O O4 0.018773 0.699232 0.942913
O O5 0.888419 0.776838 0.987849
O O6 0.428426 0.214213 0.697447
O O7 0.565035 0.434966 0.692863
O O8 0.345421 0.344804 0.725063
O O9 0.396914 0.335310 0.612358
O O10 0.574583 0.787291 0.750824
O O11 0.433692 0.566309 0.753644
O O12 0.343893 0.343893 0.500000
O O13 0.214700 0.429400 0.472651
O O14 0.435778 0.564223 0.468663
#
# Coordination Sequence:
#
# PCOD8323614 Si02
#       5
#    12   6  12  12  12
#     4   9  17  30  48  68  89 114 144 179 219 262
#     4  10  20  32  46  64  88 118 150 184 220 258
#     4   9  17  29  45  64  87 116 147 178 212 253
#     4   9  17  29  46  68  92 116 142 175 217 262
#     4   9  17  29  45  65  88 114 144 178 217 259
#
# _framework density 15.889621999999999
#
# number of rings (size 3 to 8) (size 9 to 14) (size 15 to 20)
#    0.000    2.889    0.000    1.333    0.000    5.333 
#    0.000    0.000    0.000    3.778    0.000    0.000 
#    0.000    0.000    0.000    0.000    0.000    0.000 
#
# Total GULP energy -669620.500603 kJ/mol
# GULP energy per Si atom -12400.379641 kJ/mol
# Density = 1.585346 g / cm^3
# Si number density = 15.889622 Si / 1000 Ang^3
#
#
#
# Elastic Constant Matrix: (Units=GPa)
#
#
# Indices 1 2 3 4 5 6 
#
# 1 110.7530 63.1286 67.5166 2.4187 0.0000 0.0000
# 2 63.1286 110.7530 67.5166 -2.4187 0.0000 0.0000
# 3 67.5166 67.5166 90.9782 0.0000 0.0000 0.0000
# 4 2.4187 -2.4187 0.0000 28.6158 0.0000 0.0000
# 5 0.0000 0.0000 0.0000 0.0000 28.6158 2.4187
# 6 0.0000 0.0000 0.0000 0.0000 2.4187 23.8122
#
#
#
# Elastic Compliance Matrix: (Units=1/GPa)
#
#
# Indices 1 2 3 4 5 6 
#
# 1 0.017377 -0.003803 -0.010073 -0.001790 0.000000 0.000000
# 2 -0.003803 0.017377 -0.010073 0.001790 0.000000 0.000000
# 3 -0.010073 -0.010073 0.025943 0.000000 0.000000 0.000000
# 4 -0.001790 0.001790 0.000000 0.035248 0.000000 0.000000
# 5 0.000000 0.000000 0.000000 0.000000 0.035248 -0.003580
# 6 0.000000 0.000000 0.000000 0.000000 -0.003580 0.042359
#
#
# Mechanical properties :
#
#
# Convention : Reuss Voigt Hill
#
# Bulk Modulus (GPa) = 78.14301 78.75641 78.44971
# Shear Modulus (GPa) = 22.15163 23.83023 22.99093
#
# Velocity S-wave (km/s) = 3.73781 3.87684 3.80796
# Velocity P-wave (km/s) = 8.24098 8.34938 8.29536
#
# Compressibility (1/GPa) = 0.01279705
#
# Stress axis : x y z
#
# Youngs Moduli (GPa) = 57.54839 57.54839 38.54607
#
# Poissons Ratio (x) = 0.21885 0.38829
# Poissons Ratio (y) = 0.21885 0.38829
# Poissons Ratio (z) = 0.57971 0.57971
#
# Static dielectric constant tensor:
#      x y z
#    x 2.958330 0.000000 0.000000 
#    y 0.000000 2.958330 0.000000 
#    z 0.000000 0.000000 3.097690 
# 
# 
# High freq. dielectric constant tensor:
#      x y z
#    x 1.603500 0.000000 0.000000 
#    y 0.000000 1.603500 0.000000 
#    z 0.000000 0.000000 1.614000 
# 
# From -- ./inp_files/4854.got.cif
#   From: 2010.03.12/outbox.cif.g09.slc.cpg/sg164_3_cif.got.tgz:4854.got - 2010.04.02 06:32:59.
