data_PCOD8323390
_publ_section_title
;
Structure prediction by ZEFSAII (Michael W. Deem and Ramdas Pophale) SiO2 
 PCOD8323390
Probable space group: P -3 M 1
;
_chemical_formula_sum "Si O2"
_cell_formula_units_Z 48
_cell_length_a 25.100547
_cell_length_b 25.100547
_cell_length_c 5.154825
_cell_angle_alpha 90.000000
_cell_angle_beta 90.000000
_cell_angle_gamma 120.000000
_cell_volume 2812.619151
_symmetry_space_group_name_H-M "P -3 M 1"
_symmetry_group_IT_number 164
_symmetry_cell_setting 'hexagonal'
loop_
_space_group_symop_operation_xyz
x,y,z
-y,x-y,z
-x+y,-x,z
x-y,-y,-z
-x,-x+y,-z
y,x,-z
-x,-y,-z
y,-x+y,-z
x-y,x,-z
-x+y,y,z
x,x-y,z
-y,-x,z
loop_
_atom_site_type_symbol
_atom_site_label
_atom_site_fract_x
_atom_site_fract_y
_atom_site_fract_z
Si Si1 0.773049 0.104160 0.046534
Si Si2 0.255442 0.189053 0.560515
Si Si3 0.458833 0.666272 0.483663
Si Si4 0.532517 0.829466 0.979320
O O1 0.830897 0.169104 0.971017
O O2 0.778717 0.083818 0.333715
O O3 0.712534 0.111254 0.033520
O O4 0.772618 0.058510 0.824515
O O5 0.195797 0.195797 0.500000
O O6 0.233136 0.116568 0.583237
O O7 0.449490 0.724745 0.488418
O O8 0.392516 0.607485 0.455511
O O9 0.491959 0.661115 0.741318
O O10 0.500974 0.669153 0.244546
O O11 0.536808 0.768404 0.955458
#
# Coordination Sequence:
#
# PCOD8323390 Si02
#       4
#    12  12  12  12
#     4   9  17  30  47  67  92 121 151 188 233 269
#     4  10  19  31  49  73 101 127 150 178 214 260
#     4  10  18  27  39  58  87 121 155 188 227 279
#     4   9  17  28  42  59  83 116 151 191 235 275
#
# _framework density 17.065943999999998
#
# number of rings (size 3 to 8) (size 9 to 14) (size 15 to 20)
#    0.000    2.500    0.000    3.250    0.000    6.000 
#    0.000    2.500    0.000    0.250    0.000    0.000 
#    0.000   76.000    0.000    0.000    0.000    1.000 
#
# Total GULP energy -595073.268831 kJ/mol
# GULP energy per Si atom -12397.359767 kJ/mol
# Density = 1.702710 g / cm^3
# Si number density = 17.065944 Si / 1000 Ang^3
#
#
#
# Elastic Constant Matrix: (Units=GPa)
#
#
# Indices 1 2 3 4 5 6 
#
# 1 58.4364 29.1156 13.6807 -3.9206 0.0000 0.0000
# 2 29.1156 58.4364 13.6807 3.9206 0.0000 0.0000
# 3 13.6807 13.6807 85.2130 0.0000 0.0000 0.0000
# 4 -3.9206 3.9206 0.0000 18.2090 0.0000 0.0000
# 5 0.0000 0.0000 0.0000 0.0000 18.2090 -3.9206
# 6 0.0000 0.0000 0.0000 0.0000 -3.9206 14.6604
#
#
#
# Elastic Compliance Matrix: (Units=1/GPa)
#
#
# Indices 1 2 3 4 5 6 
#
# 1 0.024107 -0.012082 -0.001931 0.007792 0.000000 0.000000
# 2 -0.012082 0.024107 -0.001931 -0.007792 0.000000 0.000000
# 3 -0.001931 -0.001931 0.012355 0.000000 0.000000 0.000000
# 4 0.007792 -0.007792 0.000000 0.058273 0.000000 0.000000
# 5 0.000000 0.000000 0.000000 0.000000 0.058273 0.015584
# 6 0.000000 0.000000 0.000000 0.000000 0.015584 0.072378
#
#
# Mechanical properties :
#
#
# Convention : Reuss Voigt Hill
#
# Bulk Modulus (GPa) = 34.86377 35.00440 34.93408
# Shear Modulus (GPa) = 17.18557 19.92294 18.55426
#
# Velocity S-wave (km/s) = 3.17678 3.42044 3.30086
# Velocity P-wave (km/s) = 5.82487 6.01291 5.91964
#
# Compressibility (1/GPa) = 0.02868307
#
# Stress axis : x y z
#
# Youngs Moduli (GPa) = 41.48151 41.48151 80.93760
#
# Poissons Ratio (x) = 0.50118 0.15626
# Poissons Ratio (y) = 0.50118 0.15626
# Poissons Ratio (z) = 0.08008 0.08008
#
# Static dielectric constant tensor:
#      x y z
#    x 3.005940 0.000000 0.000000 
#    y 0.000000 3.005940 0.000000 
#    z 0.000000 0.000000 3.456610 
# 
# 
# High freq. dielectric constant tensor:
#      x y z
#    x 1.626910 0.000000 0.000000 
#    y 0.000000 1.626910 0.000000 
#    z 0.000000 0.000000 1.683920 
# 
# From -- ./inp_files/56.got.cif
#   From: 2010.03.12/outbox.cif.g09.slc.cpg/sg164_1_cif.got.tgz:56.got - 2010.04.02 06:32:59.
