data_PCOD8323890
_publ_section_title
;
Structure prediction by ZEFSAII (Michael W. Deem and Ramdas Pophale) SiO2 
 PCOD8323890
Probable space group: P -3 C 1
;
_chemical_formula_sum "Si O2"
_cell_formula_units_Z 84
_cell_length_a 17.682884
_cell_length_b 17.682884
_cell_length_c 15.569591
_cell_angle_alpha 90.000000
_cell_angle_beta 90.000000
_cell_angle_gamma 120.000000
_cell_volume 4216.130372
_symmetry_space_group_name_H-M "P -3 C 1"
_symmetry_group_IT_number 165
_symmetry_cell_setting 'hexagonal'
loop_
_space_group_symop_operation_xyz
x,y,z
-y,x-y,z
-x+y,-x,z
x-y,-y,1/2-z
-x,-x+y,1/2-z
y,x,1/2-z
-x,-y,-z
y,-x+y,-z
x-y,x,-z
-x+y,y,1/2+z
x,x-y,1/2+z
-y,-x,1/2+z
loop_
_atom_site_type_symbol
_atom_site_label
_atom_site_fract_x
_atom_site_fract_y
_atom_site_fract_z
Si Si1 0.840887 0.333783 0.686756
Si Si2 0.000000 0.321710 0.750000
Si Si3 0.063893 0.305335 0.076385
Si Si4 0.666286 0.505390 0.986856
Si Si5 0.936107 0.241442 0.923615
Si Si6 0.507104 0.666217 0.313244
Si Si7 0.321710 0.000000 0.250000
Si Si8 0.839105 0.505390 0.986856
O O1 0.915427 0.331492 0.741551
O O2 0.750207 0.249793 0.711553
O O3 0.834505 0.417252 0.714747
O O4 0.862635 0.336105 0.586614
O O5 0.987235 0.261984 0.833237
O O6 0.143693 0.287386 0.075819
O O7 0.012765 0.274749 0.166763
O O8 0.096352 0.407958 0.065018
O O9 0.000000 0.248749 1.000000
O O10 0.663895 0.526530 0.086614
O O11 0.738301 0.476603 0.971076
O O12 0.572936 0.427064 0.955611
O O13 0.688393 0.592042 0.934982
O O14 0.583934 0.668508 0.258449
#
# Coordination Sequence:
#
# PCOD8323890 Si02
#       8
#    12   6  12  12  12  12   6  12
#     4  10  20  35  56  84 122 166 212 257 302 351
#     4  12  23  38  60  92 123 160 206 252 297 352
#     4  11  24  42  65  91 122 157 197 245 301 360
#     4   9  18  34  57  86 122 166 211 252 291 339
#     4  11  24  42  65  91 122 157 197 245 301 360
#     4  10  20  35  56  84 122 166 212 257 302 351
#     4  12  23  38  60  92 123 160 206 252 297 352
#     4   9  18  34  57  86 122 166 211 252 291 339
#
# _framework density 19.923482
#
# number of rings (size 3 to 8) (size 9 to 14) (size 15 to 20)
#    0.000    1.714    2.857    1.857    0.000    6.286 
#    0.000    0.000    0.000    3.714    0.000    1.000 
#    0.000    0.000    0.000    0.000    0.000    0.000 
#
# Total GULP energy -1042025.395920 kJ/mol
# GULP energy per Si atom -12405.064237 kJ/mol
# Density = 1.987814 g / cm^3
# Si number density = 19.923482 Si / 1000 Ang^3
#
#
#
# Elastic Constant Matrix: (Units=GPa)
#
#
# Indices 1 2 3 4 5 6 
#
# 1 33.9635 104.8860 51.7274 2.0199 0.0000 0.0000
# 2 104.8860 33.9635 51.7274 -2.0199 0.0000 0.0000
# 3 51.7274 51.7274 121.3722 0.0000 0.0000 0.0000
# 4 2.0199 -2.0199 0.0000 21.2993 0.0000 0.0000
# 5 0.0000 0.0000 0.0000 0.0000 21.2993 2.0199
# 6 0.0000 0.0000 0.0000 0.0000 2.0199 -35.4612
#
#
#
# Elastic Compliance Matrix: (Units=1/GPa)
#
#
# Indices 1 2 3 4 5 6 
#
# 1 -0.001735 0.012289 -0.004498 0.001330 0.000000 0.000000
# 2 0.012289 -0.001735 -0.004498 -0.001330 0.000000 0.000000
# 3 -0.004498 -0.004498 0.012073 0.000000 0.000000 0.000000
# 4 0.001330 -0.001330 0.000000 0.046698 0.000000 0.000000
# 5 0.000000 0.000000 0.000000 0.000000 0.046698 0.002660
# 6 0.000000 0.000000 0.000000 0.000000 0.002660 -0.028048
#
#
# Mechanical properties :
#
#
# Convention : Reuss Voigt Hill
#
# Bulk Modulus (GPa) = 65.83889 67.33120 66.58505
# Shear Modulus (GPa) = 69.03725 0.15806 34.59766
#
# Velocity S-wave (km/s) = 5.89291 0.28197 4.17169
# Velocity P-wave (km/s) = 8.91176 5.82875 7.52973
#
# Compressibility (1/GPa) = 0.01518859
#
# Stress axis : x y z
#
# Youngs Moduli (GPa) = -576.20411 -576.20411 82.83089
#
# Poissons Ratio (x) = 7.08078 0.37254
# Poissons Ratio (y) = 7.08078 0.37254
# Poissons Ratio (z) = -2.59155 -2.59155
#
# Static dielectric constant tensor:
#      x y z
#    x 3.505070 0.000000 0.000000 
#    y 0.000000 3.505070 0.000000 
#    z 0.000000 0.000000 3.640050 
# 
# 
# High freq. dielectric constant tensor:
#      x y z
#    x 1.764800 0.000000 0.000000 
#    y 0.000000 1.764800 0.000000 
#    z 0.000000 0.000000 1.784530 
# 
# From -- ./inp_files/1890.got.cif
#   From: 2010.03.12/outbox.cif.g09.slc.cpg/sg165_1_cif.got.tgz:1890.got - 2010.04.02 06:36:38.
