data_PCOD8323949
_publ_section_title
;
Structure prediction by ZEFSAII (Michael W. Deem and Ramdas Pophale) SiO2 
 PCOD8323949
Probable space group: P -3 C 1
;
_chemical_formula_sum "Si O2"
_cell_formula_units_Z 64
_cell_length_a 14.501294
_cell_length_b 14.501294
_cell_length_c 17.227172
_cell_angle_alpha 90.000000
_cell_angle_beta 90.000000
_cell_angle_gamma 120.000000
_cell_volume 3137.315077
_symmetry_space_group_name_H-M "P -3 C 1"
_symmetry_group_IT_number 165
_symmetry_cell_setting 'hexagonal'
loop_
_space_group_symop_operation_xyz
x,y,z
-y,x-y,z
-x+y,-x,z
x-y,-y,1/2-z
-x,-x+y,1/2-z
y,x,1/2-z
-x,-y,-z
y,-x+y,-z
x-y,x,-z
-x+y,y,1/2+z
x,x-y,1/2+z
-y,-x,1/2+z
loop_
_atom_site_type_symbol
_atom_site_label
_atom_site_fract_x
_atom_site_fract_y
_atom_site_fract_z
Si Si1 0.815818 0.251427 0.840605
Si Si2 0.790632 0.790633 0.842187
Si Si3 0.878738 0.411666 0.414623
Si Si4 0.000000 0.000000 0.342712
Si Si5 0.564390 0.815817 0.340604
Si Si6 0.411667 0.532929 0.914622
O O1 0.867638 0.376841 0.855259
O O2 0.708341 0.190558 0.887944
O O3 0.791764 0.227851 0.750001
O O4 0.895151 0.211150 0.871169
O O5 0.791107 0.791107 0.750000
O O6 0.895091 0.895091 0.874740
O O7 0.684002 0.788855 0.871168
O O8 0.838830 0.419415 0.500000
O O9 0.000000 0.438790 0.416744
O O10 0.000000 0.000000 0.250000
O O11 0.490801 0.867640 0.355259
O O12 0.517779 0.708339 0.387942
#
# Coordination Sequence:
#
# PCOD8323949 Si02
#       6
#    12  12  12   4  12  12
#     4  11  22  39  63  93 126 160 207 264 312 374
#     4   9  20  36  60  91 127 160 199 257 314 369
#     4  11  24  41  62  90 124 168 207 253 316 384
#     4   9  18  36  57  87 124 164 199 243 316 377
#     4  11  22  39  63  93 126 160 207 264 312 374
#     4  11  24  41  62  90 124 168 207 253 316 384
#
# _framework density 20.399608000000001
#
# number of rings (size 3 to 8) (size 9 to 14) (size 15 to 20)
#    0.000    1.500    1.875    3.000    2.625    2.250 
#    0.000    0.000    0.000    0.000    0.000    5.250 
#    0.000    0.000    0.000    0.000    0.000    0.000 
#
# Total GULP energy -793860.119967 kJ/mol
# GULP energy per Si atom -12404.064374 kJ/mol
# Density = 2.035318 g / cm^3
# Si number density = 20.399608 Si / 1000 Ang^3
#
#
#
# Elastic Constant Matrix: (Units=GPa)
#
#
# Indices 1 2 3 4 5 6 
#
# 1 149.3534 71.4351 34.2963 -0.0005 0.0000 0.0000
# 2 71.4351 149.3534 34.2963 0.0005 0.0000 0.0000
# 3 34.2963 34.2963 75.0707 0.0000 0.0000 0.0000
# 4 -0.0005 0.0005 0.0000 11.5927 0.0000 0.0000
# 5 0.0000 0.0000 0.0000 0.0000 11.5927 -0.0005
# 6 0.0000 0.0000 0.0000 0.0000 -0.0005 38.9592
#
#
#
# Elastic Compliance Matrix: (Units=1/GPa)
#
#
# Indices 1 2 3 4 5 6 
#
# 1 0.009056 -0.003778 -0.002411 0.000001 0.000000 0.000000
# 2 -0.003778 0.009056 -0.002411 -0.000001 0.000000 0.000000
# 3 -0.002411 -0.002411 0.015524 0.000000 0.000000 0.000000
# 4 0.000001 -0.000001 0.000000 0.086261 0.000000 0.000000
# 5 0.000000 0.000000 0.000000 0.000000 0.086261 0.000001
# 6 0.000000 0.000000 0.000000 0.000000 0.000001 0.025668
#
#
# Mechanical properties :
#
#
# Convention : Reuss Voigt Hill
#
# Bulk Modulus (GPa) = 60.84531 72.64808 66.74670
# Shear Modulus (GPa) = 19.64585 28.01223 23.82904
#
# Velocity S-wave (km/s) = 3.10667 3.70966 3.42147
# Velocity P-wave (km/s) = 6.53911 7.35109 6.95696
#
# Compressibility (1/GPa) = 0.01643512
#
# Stress axis : x y z
#
# Youngs Moduli (GPa) = 110.42195 110.42195 64.41581
#
# Poissons Ratio (x) = 0.41715 0.15534
# Poissons Ratio (y) = 0.41715 0.15534
# Poissons Ratio (z) = 0.26628 0.26628
#
# Static dielectric constant tensor:
#      x y z
#    x 3.836980 0.000000 0.000000 
#    y 0.000000 3.836980 0.000000 
#    z 0.000000 0.000000 3.502500 
# 
# 
# High freq. dielectric constant tensor:
#      x y z
#    x 1.808270 0.000000 0.000000 
#    y 0.000000 1.808270 0.000000 
#    z 0.000000 0.000000 1.779580 
# 
# From -- ./inp_files/2229.got.cif
#   From: 2010.03.12/outbox.cif.g09.slc.cpg/sg165_2_cif.got.tgz:2229.got - 2010.04.02 06:36:38.
