data_PCOD8323820
_publ_section_title
;
Structure prediction by ZEFSAII (Michael W. Deem and Ramdas Pophale) SiO2 
 PCOD8323820
Probable space group: P -3 M 1
;
_chemical_formula_sum "Si O2"
_cell_formula_units_Z 84
_cell_length_a 13.488897
_cell_length_b 13.488897
_cell_length_c 35.017212
_cell_angle_alpha 90.000000
_cell_angle_beta 90.000000
_cell_angle_gamma 120.000000
_cell_volume 5517.788809
_symmetry_space_group_name_H-M "P -3 M 1"
_symmetry_group_IT_number 164
_symmetry_cell_setting 'hexagonal'
loop_
_space_group_symop_operation_xyz
x,y,z
-y,x-y,z
-x+y,-x,z
x-y,-y,-z
-x,-x+y,-z
y,x,-z
-x,-y,-z
y,-x+y,-z
x-y,x,-z
-x+y,y,z
x,x-y,z
-y,-x,z
loop_
_atom_site_type_symbol
_atom_site_label
_atom_site_fract_x
_atom_site_fract_y
_atom_site_fract_z
Si Si1 0.999669 0.228191 0.956021
Si Si2 0.999166 0.770360 0.459723
Si Si3 0.105146 0.438143 0.816619
Si Si4 0.895208 0.333670 0.095435
Si Si5 0.234556 0.001706 0.376724
Si Si6 0.104453 0.438046 0.322805
Si Si7 0.105390 0.438450 0.234636
O O1 0.099078 0.198156 0.948194
O O2 0.015813 0.333345 0.930303
O O3 0.880826 0.119175 0.944078
O O4 0.000000 0.261775 0.000000
O O5 0.118083 0.881918 0.454632
O O6 0.981557 0.705926 0.419105
O O7 0.000000 0.706603 0.500000
O O8 0.902884 0.805767 0.464569
O O9 0.214195 0.428389 0.804700
O O10 0.135133 0.567567 0.808801
O O11 0.071455 0.404827 0.860591
O O12 0.000190 0.349129 0.790827
O O13 0.904992 0.452496 0.083494
O O14 0.765755 0.234246 0.087634
O O15 0.106350 0.893651 0.374950
O O16 0.316805 0.986636 0.347250
O O17 0.228603 0.114302 0.365468
O O18 0.233545 0.467090 0.331104
O O19 0.095228 0.547614 0.334988
O O20 0.072635 0.406457 0.278694
O O21 0.214056 0.428112 0.222646
O O22 0.135386 0.567693 0.226421
#
# Coordination Sequence:
#
# PCOD8323820 Si02
#       7
#    12  12  12  12  12  12  12
#     4   9  17  29  45  64  85 110 140 173 207 241
#     4   8  12  18  30  50  76 103 128 154 187 230
#     4   9  17  29  45  64  85 109 136 166 200 239
#     4   9  17  29  45  64  85 110 139 169 201 238
#     4   9  16  25  39  60  84 107 129 157 197 243
#     4   9  17  29  44  60  78 103 136 171 202 232
#     4   9  17  29  45  63  81 103 133 169 206 240
#
# _framework density 15.22349
#
# number of rings (size 3 to 8) (size 9 to 14) (size 15 to 20)
#    0.000    3.143    0.000    1.000    0.000    6.000 
#    0.000    0.000    0.000    1.286    0.000    0.000 
#    0.000    0.000    0.000    0.000    0.000    0.000 
#
# Total GULP energy -1040954.434426 kJ/mol
# GULP energy per Si atom -12392.314696 kJ/mol
# Density = 1.518884 g / cm^3
# Si number density = 15.223490 Si / 1000 Ang^3
#
#
#
# Elastic Constant Matrix: (Units=GPa)
#
#
# Indices 1 2 3 4 5 6 
#
# 1 93.3683 51.3455 61.0756 4.4542 0.0000 0.0000
# 2 51.3455 93.3683 61.0756 -4.4542 0.0000 0.0000
# 3 61.0756 61.0756 87.5030 0.0000 0.0000 0.0000
# 4 4.4542 -4.4542 0.0000 21.7350 0.0000 0.0000
# 5 0.0000 0.0000 0.0000 0.0000 21.7350 4.4542
# 6 0.0000 0.0000 0.0000 0.0000 4.4542 21.0114
#
#
#
# Elastic Compliance Matrix: (Units=1/GPa)
#
#
# Indices 1 2 3 4 5 6 
#
# 1 0.020849 -0.004029 -0.011740 -0.005098 0.000000 0.000000
# 2 -0.004029 0.020849 -0.011740 0.005098 0.000000 0.000000
# 3 -0.011740 -0.011740 0.027817 0.000000 0.000000 0.000000
# 4 -0.005098 0.005098 0.000000 0.048098 0.000000 0.000000
# 5 0.000000 0.000000 0.000000 0.000000 0.048098 -0.010196
# 6 0.000000 0.000000 0.000000 0.000000 -0.010196 0.049755
#
#
# Mechanical properties :
#
#
# Convention : Reuss Voigt Hill
#
# Bulk Modulus (GPa) = 68.98191 69.02593 69.00392
# Shear Modulus (GPa) = 18.16107 19.61248 18.88678
#
# Velocity S-wave (km/s) = 3.45768 3.59319 3.52608
# Velocity P-wave (km/s) = 7.83275 7.91548 7.87422
#
# Compressibility (1/GPa) = 0.01449655
#
# Stress axis : x y z
#
# Youngs Moduli (GPa) = 47.96507 47.96507 35.94977
#
# Poissons Ratio (x) = 0.19324 0.42204
# Poissons Ratio (y) = 0.19324 0.42204
# Poissons Ratio (z) = 0.56310 0.56310
#
# Static dielectric constant tensor:
#      x y z
#    x 2.763420 0.000000 0.000000 
#    y 0.000000 2.763420 0.000000 
#    z 0.000000 0.000000 3.179150 
# 
# 
# High freq. dielectric constant tensor:
#      x y z
#    x 1.563820 0.000000 0.000000 
#    y 0.000000 1.563820 0.000000 
#    z 0.000000 0.000000 1.594170 
# 
# From -- ./inp_files/5027.got.cif
#   From: 2010.03.12/outbox.cif.g09.slc.cpg/sg164_3_cif.got.tgz:5027.got - 2010.04.02 06:32:59.
