data_PCOD8323589
_publ_section_title
;
Structure prediction by ZEFSAII (Michael W. Deem and Ramdas Pophale) SiO2 
 PCOD8323589
Probable space group: P -3 M 1
;
_chemical_formula_sum "Si O2"
_cell_formula_units_Z 66
_cell_length_a 17.534207
_cell_length_b 17.534207
_cell_length_c 13.729519
_cell_angle_alpha 90.000000
_cell_angle_beta 90.000000
_cell_angle_gamma 120.000000
_cell_volume 3655.596162
_symmetry_space_group_name_H-M "P -3 M 1"
_symmetry_group_IT_number 164
_symmetry_cell_setting 'hexagonal'
loop_
_space_group_symop_operation_xyz
x,y,z
-y,x-y,z
-x+y,-x,z
x-y,-y,-z
-x,-x+y,-z
y,x,-z
-x,-y,-z
y,-x+y,-z
x-y,x,-z
-x+y,y,z
x,x-y,z
-y,-x,z
loop_
_atom_site_type_symbol
_atom_site_label
_atom_site_fract_x
_atom_site_fract_y
_atom_site_fract_z
Si Si1 0.840663 0.331642 0.176279
Si Si2 0.732707 0.097704 0.786435
Si Si3 0.329922 0.077762 0.306233
Si Si4 0.650200 0.650200 0.500000
Si Si5 0.334344 0.490785 0.386290
Si Si6 0.732407 0.096999 0.003535
O O1 0.855908 0.427954 0.192025
O O2 0.737755 0.262246 0.158720
O O3 0.873934 0.306299 0.274180
O O4 0.895964 0.332439 0.081422
O O5 0.834103 0.165898 0.761306
O O6 0.668836 0.113980 0.716417
O O7 0.709272 0.114497 0.895005
O O8 0.721733 0.001092 0.771461
O O9 0.294856 0.147428 0.301734
O O10 0.313837 0.035503 0.413340
O O11 0.638619 0.557003 0.532116
O O12 0.241353 0.482706 0.413720
O O13 0.407174 0.592827 0.380515
O O14 0.833213 0.166788 0.032328
O O15 0.720648 0.000000 0.000000
#
# Coordination Sequence:
#
# PCOD8323589 Si02
#       6
#    12  12  12   6  12  12
#     4  10  21  35  52  76 108 144 182 220 262 308
#     4   9  19  34  52  77 107 136 170 212 258 304
#     4  10  20  36  57  78 101 134 176 216 263 320
#     4  10  21  36  52  76 103 130 170 222 267 310
#     4  10  20  34  51  72 100 134 172 212 258 309
#     4  10  19  34  53  79 109 142 177 216 259 306
#
# _framework density 18.054511000000002
#
# number of rings (size 3 to 8) (size 9 to 14) (size 15 to 20)
#    0.000    2.182    1.818    1.182    0.000    5.455 
#    0.000    0.000    0.000    4.909    0.000    0.636 
#    0.000    0.000    0.000    0.000    0.000    0.000 
#
# Total GULP energy -818139.425875 kJ/mol
# GULP energy per Si atom -12396.051907 kJ/mol
# Density = 1.801342 g / cm^3
# Si number density = 18.054511 Si / 1000 Ang^3
#
#
#
# Elastic Constant Matrix: (Units=GPa)
#
#
# Indices 1 2 3 4 5 6 
#
# 1 86.5811 49.2673 19.2684 0.7130 0.0000 0.0000
# 2 49.2673 86.5811 19.2684 -0.7130 0.0000 0.0000
# 3 19.2684 19.2684 86.8971 0.0000 0.0000 0.0000
# 4 0.7130 -0.7130 0.0000 21.3176 0.0000 0.0000
# 5 0.0000 0.0000 0.0000 0.0000 21.3176 0.7130
# 6 0.0000 0.0000 0.0000 0.0000 0.7130 18.6569
#
#
#
# Elastic Compliance Matrix: (Units=1/GPa)
#
#
# Indices 1 2 3 4 5 6 
#
# 1 0.017345 -0.009489 -0.001742 -0.000897 0.000000 0.000000
# 2 -0.009489 0.017345 -0.001742 0.000897 0.000000 0.000000
# 3 -0.001742 -0.001742 0.012280 0.000000 0.000000 0.000000
# 4 -0.000897 0.000897 0.000000 0.046970 0.000000 0.000000
# 5 0.000000 0.000000 0.000000 0.000000 0.046970 -0.001795
# 6 0.000000 0.000000 0.000000 0.000000 -0.001795 0.053668
#
#
# Mechanical properties :
#
#
# Convention : Reuss Voigt Hill
#
# Bulk Modulus (GPa) = 47.56561 48.40749 47.98655
# Shear Modulus (GPa) = 21.97507 23.74212 22.85859
#
# Velocity S-wave (km/s) = 3.49255 3.63026 3.56207
# Velocity P-wave (km/s) = 6.53197 6.66647 6.59956
#
# Compressibility (1/GPa) = 0.02102359
#
# Stress axis : x y z
#
# Youngs Moduli (GPa) = 57.65473 57.65473 81.43110
#
# Poissons Ratio (x) = 0.54711 0.14184
# Poissons Ratio (y) = 0.54711 0.14184
# Poissons Ratio (z) = 0.10042 0.10042
#
# Static dielectric constant tensor:
#      x y z
#    x 3.268340 0.000000 0.000000 
#    y 0.000000 3.268340 0.000000 
#    z 0.000000 0.000000 3.572230 
# 
# 
# High freq. dielectric constant tensor:
#      x y z
#    x 1.684840 0.000000 0.000000 
#    y 0.000000 1.684840 0.000000 
#    z 0.000000 0.000000 1.714950 
# 
# From -- ./inp_files/3445.got.cif
#   From: 2010.03.12/outbox.cif.g09.slc.cpg/sg164_2_cif.got.tgz:3445.got - 2010.04.02 06:32:59.
