data_PCOD8323260
_publ_section_title
;
Structure prediction by ZEFSAII (Michael W. Deem and Ramdas Pophale) SiO2 
 PCOD8323260
Probable space group: P -3 1 C
;
_chemical_formula_sum "Si O2"
_cell_formula_units_Z 42
_cell_length_a 8.876072
_cell_length_b 8.876072
_cell_length_c 33.921423
_cell_angle_alpha 90.000000
_cell_angle_beta 90.000000
_cell_angle_gamma 120.000000
_cell_volume 2314.442135
_symmetry_space_group_name_H-M "P -3 1 C"
_symmetry_group_IT_number 163
_symmetry_cell_setting 'hexagonal'
loop_
_space_group_symop_operation_xyz
x,y,z
-y,x-y,z
-x+y,-x,z
-y,-x,1/2-z
-x+y,y,1/2-z
x,x-y,1/2-z
-x,-y,-z
y,-x+y,-z
x-y,x,-z
y,x,1/2+z
x-y,-y,1/2+z
-x,-x+y,1/2+z
loop_
_atom_site_type_symbol
_atom_site_label
_atom_site_fract_x
_atom_site_fract_y
_atom_site_fract_z
Si Si1 0.983001 0.663318 0.985775
Si Si2 0.222012 0.777989 0.250000
Si Si3 0.860743 0.080126 0.827585
Si Si4 0.546343 0.827150 0.402566
O O1 0.920479 0.655923 0.941086
O O2 0.838948 0.671390 0.012853
O O3 0.000000 0.500000 0.000000
O O4 0.135634 0.567817 0.250000
O O5 0.187695 0.861449 0.212261
O O6 0.757374 0.099038 0.863691
O O7 0.071460 0.195670 0.829222
O O8 0.380379 0.857217 0.402824
#
# Coordination Sequence:
#
# PCOD8323260 Si02
#       4
#    12   6  12  12
#     4  12  24  42  63  93 128 174 222 281 337 398
#     4  10  20  38  66  88 118 170 202 248 322 394
#     4  10  22  35  62  93 123 154 209 261 315 383
#     4  10  21  40  61  88 123 167 213 259 325 396
#
# _framework density 18.146923999999999
#
# number of rings (size 3 to 8) (size 9 to 14) (size 15 to 20)
#    1.429    0.000    2.857    3.429    4.000    0.000 
#    0.000    0.000    0.000   16.000    0.000    0.000 
#    0.000    0.000    0.000    0.000    0.000    0.000 
#
# Total GULP energy -520358.548500 kJ/mol
# GULP energy per Si atom -12389.489250 kJ/mol
# Density = 1.810562 g / cm^3
# Si number density = 18.146924 Si / 1000 Ang^3
#
#
#
# Elastic Constant Matrix: (Units=GPa)
#
#
# Indices 1 2 3 4 5 6 
#
# 1 111.1748 55.3093 61.2546 0.0000 -6.7209 0.0000
# 2 55.3093 111.1748 61.2546 0.0000 6.7209 0.0000
# 3 61.2546 61.2546 188.7596 0.0000 0.0000 0.0000
# 4 0.0000 0.0000 0.0000 34.4905 0.0000 6.7209
# 5 -6.7209 6.7209 0.0000 0.0000 34.4905 0.0000
# 6 0.0000 0.0000 0.0000 6.7209 0.0000 27.9328
#
#
#
# Elastic Compliance Matrix: (Units=1/GPa)
#
#
# Indices 1 2 3 4 5 6 
#
# 1 0.013336 -0.005445 -0.002561 0.000000 0.003660 0.000000
# 2 -0.005445 0.013336 -0.002561 0.000000 -0.003660 0.000000
# 3 -0.002561 -0.002561 0.006960 0.000000 0.000000 0.000000
# 4 0.000000 0.000000 0.000000 0.030420 0.000000 -0.007319
# 5 0.003660 -0.003660 0.000000 0.000000 0.030420 0.000000
# 6 0.000000 0.000000 0.000000 -0.007319 0.000000 0.037561
#
#
# Mechanical properties :
#
#
# Convention : Reuss Voigt Hill
#
# Bulk Modulus (GPa) = 80.00814 85.19403 82.60109
# Shear Modulus (GPa) = 31.78017 34.93547 33.35782
#
# Velocity S-wave (km/s) = 4.18936 4.39241 4.29208
# Velocity P-wave (km/s) = 8.22106 8.53071 8.37732
#
# Compressibility (1/GPa) = 0.01249873
#
# Stress axis : x y z
#
# Youngs Moduli (GPa) = 74.98623 74.98623 143.68465
#
# Poissons Ratio (x) = 0.40829 0.36793
# Poissons Ratio (y) = 0.40829 0.36793
# Poissons Ratio (z) = 0.19202 0.19202
#
# Static dielectric constant tensor:
#      x y z
#    x 3.299960 0.000000 0.000000 
#    y 0.000000 3.299960 0.000000 
#    z 0.000000 0.000000 2.775060 
# 
# 
# High freq. dielectric constant tensor:
#      x y z
#    x 1.698690 0.000000 0.000000 
#    y 0.000000 1.698690 0.000000 
#    z 0.000000 0.000000 1.716740 
# 
# From -- ./inp_files/4258.got.cif
#   From: 2010.03.12/outbox.cif.g09.slc.cpg/sg163_3_cif.got.tgz:4258.got - 2010.04.02 06:30:25.
