data_PCOD8323502
_publ_section_title
;
Structure prediction by ZEFSAII (Michael W. Deem and Ramdas Pophale) SiO2 
 PCOD8323502
Probable space group: P -3 M 1
;
_chemical_formula_sum "Si O2"
_cell_formula_units_Z 96
_cell_length_a 24.003137
_cell_length_b 24.003137
_cell_length_c 12.400958
_cell_angle_alpha 90.000000
_cell_angle_beta 90.000000
_cell_angle_gamma 120.000000
_cell_volume 6187.594947
_symmetry_space_group_name_H-M "P -3 M 1"
_symmetry_group_IT_number 164
_symmetry_cell_setting 'hexagonal'
loop_
_space_group_symop_operation_xyz
x,y,z
-y,x-y,z
-x+y,-x,z
x-y,-y,-z
-x,-x+y,-z
y,x,-z
-x,-y,-z
y,-x+y,-z
x-y,x,-z
-x+y,y,z
x,x-y,z
-y,-x,z
loop_
_atom_site_type_symbol
_atom_site_label
_atom_site_fract_x
_atom_site_fract_y
_atom_site_fract_z
Si Si1 0.587586 0.728810 0.132033
Si Si2 0.376197 0.877124 0.299281
Si Si3 0.540444 0.207452 0.499912
Si Si4 0.569874 0.556651 0.385345
Si Si5 0.860531 0.495279 0.279914
Si Si6 0.267604 0.071478 0.868833
Si Si7 0.271856 0.198629 0.125664
Si Si8 0.141624 0.727454 0.893432
O O1 0.574894 0.787447 0.126583
O O2 0.533419 0.678552 0.211146
O O3 0.660428 0.753689 0.173930
O O4 0.578090 0.697015 0.013046
O O5 0.427647 0.855294 0.264449
O O6 0.349044 0.850952 0.418940
O O7 0.411129 0.953600 0.305365
O O8 0.615139 0.230277 0.512535
O O9 0.529296 0.264648 0.535547
O O10 0.520082 0.189839 0.375874
O O11 0.593737 0.593737 0.500000
O O12 0.517516 0.482484 0.412523
O O13 0.626204 0.554186 0.321543
O O14 0.863119 0.431560 0.245376
O O15 0.843982 0.523938 0.176596
O O16 0.246275 0.123138 0.827923
O O17 0.218483 0.998156 0.828604
O O18 0.269220 0.073404 0.997210
O O19 0.255607 0.127804 0.169983
O O20 0.344533 0.254103 0.158311
O O21 0.206648 0.793353 0.907243
#
# Coordination Sequence:
#
# PCOD8323502 Si02
#       8
#    12  12  12  12  12  12  12  12
#     4   9  18  31  45  63  88 116 146 181 220 262
#     4  10  19  30  46  65  85 111 142 179 222 265
#     4  10  19  31  47  65  83 105 138 180 221 261
#     4   9  16  30  45  61  85 111 140 171 214 267
#     4  10  19  30  46  65  85 111 142 179 222 265
#     4   8  14  25  41  60  82 110 142 173 206 246
#     4   8  14  25  41  60  82 110 142 173 206 246
#     4   9  18  31  45  63  88 116 146 181 220 262
#
# _framework density 15.514913999999999
#
# number of rings (size 3 to 8) (size 9 to 14) (size 15 to 20)
#    0.000    2.875    1.250    2.375    1.750    0.500 
#    0.000    0.000    0.000    3.000    0.000    1.750 
#    0.000    0.000    0.000    0.000    0.000    0.000 
#
# Total GULP energy -1189505.023232 kJ/mol
# GULP energy per Si atom -12390.677325 kJ/mol
# Density = 1.547960 g / cm^3
# Si number density = 15.514914 Si / 1000 Ang^3
#
#
#
# Elastic Constant Matrix: (Units=GPa)
#
#
# Indices 1 2 3 4 5 6 
#
# 1 71.9010 32.3662 21.4820 0.2539 0.0000 0.0000
# 2 32.3662 71.9010 21.4820 -0.2539 0.0000 0.0000
# 3 21.4820 21.4820 47.9139 0.0000 0.0000 0.0000
# 4 0.2539 -0.2539 0.0000 13.3028 0.0000 0.0000
# 5 0.0000 0.0000 0.0000 0.0000 13.3028 0.2539
# 6 0.0000 0.0000 0.0000 0.0000 0.2539 19.7674
#
#
#
# Elastic Compliance Matrix: (Units=1/GPa)
#
#
# Indices 1 2 3 4 5 6 
#
# 1 0.018532 -0.006768 -0.005274 -0.000483 0.000000 0.000000
# 2 -0.006768 0.018532 -0.005274 0.000483 0.000000 0.000000
# 3 -0.005274 -0.005274 0.025600 0.000000 0.000000 0.000000
# 4 -0.000483 0.000483 0.000000 0.075190 0.000000 0.000000
# 5 0.000000 0.000000 0.000000 0.000000 0.075190 -0.000966
# 6 0.000000 0.000000 0.000000 0.000000 -0.000966 0.050601
#
#
# Mechanical properties :
#
#
# Convention : Reuss Voigt Hill
#
# Bulk Modulus (GPa) = 35.67489 38.04182 36.85835
# Shear Modulus (GPa) = 16.25363 17.03367 16.64365
#
# Velocity S-wave (km/s) = 3.24020 3.31704 3.27884
# Velocity P-wave (km/s) = 6.08624 6.26443 6.17598
#
# Compressibility (1/GPa) = 0.02803092
#
# Stress axis : x y z
#
# Youngs Moduli (GPa) = 53.96010 53.96010 39.06211
#
# Poissons Ratio (x) = 0.36521 0.20603
# Poissons Ratio (y) = 0.36521 0.20603
# Poissons Ratio (z) = 0.28461 0.28461
#
# Static dielectric constant tensor:
#      x y z
#    x 2.996310 0.000000 0.000000 
#    y 0.000000 2.996310 0.000000 
#    z 0.000000 0.000000 2.931150 
# 
# 
# High freq. dielectric constant tensor:
#      x y z
#    x 1.587300 0.000000 0.000000 
#    y 0.000000 1.587300 0.000000 
#    z 0.000000 0.000000 1.563020 
# 
# From -- ./inp_files/3152.got.cif
#   From: 2010.03.12/outbox.cif.g09.slc.cpg/sg164_2_cif.got.tgz:3152.got - 2010.04.02 06:32:59.
