data_PCOD8323782
_publ_section_title
;
Structure prediction by ZEFSAII (Michael W. Deem and Ramdas Pophale) SiO2 
 PCOD8323782
Probable space group: P -3 M 1
;
_chemical_formula_sum "Si O2"
_cell_formula_units_Z 84
_cell_length_a 18.434852
_cell_length_b 18.434852
_cell_length_c 13.742115
_cell_angle_alpha 90.000000
_cell_angle_beta 90.000000
_cell_angle_gamma 120.000000
_cell_volume 4044.487718
_symmetry_space_group_name_H-M "P -3 M 1"
_symmetry_group_IT_number 164
_symmetry_cell_setting 'hexagonal'
loop_
_space_group_symop_operation_xyz
x,y,z
-y,x-y,z
-x+y,-x,z
x-y,-y,-z
-x,-x+y,-z
y,x,-z
-x,-y,-z
y,-x+y,-z
x-y,x,-z
-x+y,y,z
x,x-y,z
-y,-x,z
loop_
_atom_site_type_symbol
_atom_site_label
_atom_site_fract_x
_atom_site_fract_y
_atom_site_fract_z
Si Si1 0.505526 0.332278 0.177629
Si Si2 0.000737 0.168547 0.388654
Si Si3 0.999159 0.842758 0.112042
Si Si4 0.961315 0.656443 0.689852
Si Si5 0.172716 0.504280 0.404886
Si Si6 0.691046 0.029502 0.107861
Si Si7 0.632734 0.103188 0.385468
O O1 0.539962 0.269981 0.152209
O O2 0.574111 0.425890 0.144528
O O3 0.419897 0.300055 0.118559
O O4 0.489797 0.326792 0.292982
O O5 0.070430 0.140859 0.374720
O O6 0.025909 0.250056 0.321023
O O7 0.000000 0.194937 0.500000
O O8 0.909495 0.090506 0.359495
O O9 0.929719 0.859438 0.164149
O O10 0.967649 0.745652 0.123520
O O11 0.092171 0.907830 0.155932
O O12 0.000000 0.862894 0.000000
O O13 0.871930 0.580733 0.658260
O O14 0.971472 0.635088 0.802483
O O15 0.027613 0.651320 0.618962
O O16 0.271665 0.543330 0.388404
O O17 0.147680 0.573840 0.373643
O O18 0.155411 0.481200 0.518180
O O19 0.654360 0.000000 0.000000
O O20 0.532392 0.064784 0.386966
#
# Coordination Sequence:
#
# PCOD8323782 Si02
#       7
#    12  12  12  12  12  12  12
#     4  10  20  36  60  89 118 147 184 232 287 344
#     4  10  21  37  57  83 117 155 192 231 279 337
#     4   9  17  31  53  80 108 138 175 222 277 336
#     4  11  22  36  59  85 111 147 195 243 284 329
#     4  11  22  37  58  86 122 158 190 225 273 336
#     4  10  23  41  59  79 110 150 195 242 293 345
#     4   9  19  35  57  87 120 150 179 221 280 342
#
# _framework density 20.769007999999999
#
# number of rings (size 3 to 8) (size 9 to 14) (size 15 to 20)
#    0.000    2.000    0.000    3.571    0.000    9.429 
#    0.000    1.429    0.000    1.714    0.000    2.000 
#    0.000    0.000    0.000    0.000    0.000    0.000 
#
# Total GULP energy -1040985.245230 kJ/mol
# GULP energy per Si atom -12392.681491 kJ/mol
# Density = 2.072174 g / cm^3
# Si number density = 20.769008 Si / 1000 Ang^3
#
#
#
# Elastic Constant Matrix: (Units=GPa)
#
#
# Indices 1 2 3 4 5 6 
#
# 1 121.0922 64.5143 24.3652 9.9529 0.0000 0.0000
# 2 64.5143 121.0922 24.3652 -9.9529 0.0000 0.0000
# 3 24.3652 24.3652 101.5705 0.0000 0.0000 0.0000
# 4 9.9529 -9.9529 0.0000 4.2040 0.0000 0.0000
# 5 0.0000 0.0000 0.0000 0.0000 4.2040 9.9529
# 6 0.0000 0.0000 0.0000 0.0000 9.9529 28.2890
#
#
#
# Elastic Compliance Matrix: (Units=1/GPa)
#
#
# Indices 1 2 3 4 5 6 
#
# 1 0.055778 -0.050028 -0.001379 -0.250496 0.000000 0.000000
# 2 -0.050028 0.055778 -0.001379 0.250496 0.000000 0.000000
# 3 -0.001379 -0.001379 0.010507 0.000000 0.000000 0.000000
# 4 -0.250496 0.250496 0.000000 1.423966 0.000000 0.000000
# 5 0.000000 0.000000 0.000000 0.000000 1.423966 -0.500992
# 6 0.000000 0.000000 0.000000 0.000000 -0.500992 0.211613
#
#
# Mechanical properties :
#
#
# Convention : Reuss Voigt Hill
#
# Bulk Modulus (GPa) = 60.64410 63.36048 62.00229
# Shear Modulus (GPa) = 1.51852 22.70673 12.11263
#
# Velocity S-wave (km/s) = 0.85600 3.31009 2.41759
# Velocity P-wave (km/s) = 5.49906 6.72179 6.14093
#
# Compressibility (1/GPa) = 0.01648965
#
# Stress axis : x y z
#
# Youngs Moduli (GPa) = 17.92819 17.92819 95.17355
#
# Poissons Ratio (x) = 0.89692 0.13127
# Poissons Ratio (y) = 0.89692 0.13127
# Poissons Ratio (z) = 0.02473 0.02473
#
# Static dielectric constant tensor:
#      x y z
#    x 3.746690 0.000000 0.000000 
#    y 0.000000 3.746690 0.000000 
#    z 0.000000 0.000000 3.811540 
# 
# 
# High freq. dielectric constant tensor:
#      x y z
#    x 1.811000 0.000000 0.000000 
#    y 0.000000 1.811000 0.000000 
#    z 0.000000 0.000000 1.804050 
# 
# From -- ./inp_files/3597.got.cif
#   From: 2010.03.12/outbox.cif.g09.slc.cpg/sg164_2_cif.got.tgz:3597.got - 2010.04.02 06:32:59.
