data_PCOD8323394
_publ_section_title
;
Structure prediction by ZEFSAII (Michael W. Deem and Ramdas Pophale) SiO2 
 PCOD8323394
Probable space group: P -3 M 1
;
_chemical_formula_sum "Si O2"
_cell_formula_units_Z 96
_cell_length_a 21.667601
_cell_length_b 21.667601
_cell_length_c 16.491512
_cell_angle_alpha 90.000000
_cell_angle_beta 90.000000
_cell_angle_gamma 120.000000
_cell_volume 6705.215899
_symmetry_space_group_name_H-M "P -3 M 1"
_symmetry_group_IT_number 164
_symmetry_cell_setting 'hexagonal'
loop_
_space_group_symop_operation_xyz
x,y,z
-y,x-y,z
-x+y,-x,z
x-y,-y,-z
-x,-x+y,-z
y,x,-z
-x,-y,-z
y,-x+y,-z
x-y,x,-z
-x+y,y,z
x,x-y,z
-y,-x,z
loop_
_atom_site_type_symbol
_atom_site_label
_atom_site_fract_x
_atom_site_fract_y
_atom_site_fract_z
Si Si1 0.477506 0.384521 0.749027
Si Si2 0.720149 0.141676 0.607918
Si Si3 0.299529 0.078245 0.479880
Si Si4 0.406729 0.133024 0.342029
Si Si5 0.610091 0.075322 0.027096
Si Si6 0.188858 0.666124 0.098933
Si Si7 0.396089 0.463436 0.789564
Si Si8 0.471332 0.667957 0.528915
O O1 0.551421 0.448580 0.712320
O O2 0.426561 0.331485 0.679880
O O3 0.494386 0.340186 0.813571
O O4 0.435552 0.417887 0.793655
O O5 0.795205 0.204796 0.642313
O O6 0.733951 0.091702 0.548195
O O7 0.680119 0.176175 0.560475
O O8 0.274889 0.137445 0.485402
O O9 0.332789 0.081859 0.390184
O O10 0.232631 0.000000 0.500000
O O11 0.405189 0.202595 0.309184
O O12 0.423712 0.095581 0.268825
O O13 0.468620 0.154341 0.405972
O O14 0.535133 0.070265 0.010400
O O15 0.633574 0.094775 0.120502
O O16 0.668565 0.137926 0.970999
O O17 0.602726 0.000000 0.000000
O O18 0.204413 0.602207 0.083731
O O19 0.261637 0.738364 0.095045
O O20 0.454286 0.545714 0.764184
O O21 0.437376 0.718688 0.541478
O O22 0.413234 0.586767 0.540930
#
# Coordination Sequence:
#
# PCOD8323394 Si02
#       8
#    12  12  12  12  12  12  12  12
#     4  10  18  27  41  60  81 106 136 168 203 240
#     4   9  17  27  39  57  81 108 137 169 200 234
#     4   9  17  30  46  62  83 109 134 162 196 237
#     4   9  18  29  41  60  84 106 133 171 208 240
#     4   9  16  30  45  58  76 101 136 170 202 243
#     4  10  19  30  44  61  82 105 130 165 208 251
#     4  10  18  28  45  62  78 104 136 170 206 244
#     4   9  16  26  38  52  75 108 144 177 208 239
#
# _framework density 14.317213000000001
#
# number of rings (size 3 to 8) (size 9 to 14) (size 15 to 20)
#    0.000    2.625    1.250    3.625    0.000    0.500 
#    0.000    0.000    0.000   10.375    0.000    0.000 
#    0.000    0.000    0.000    0.000    0.000    0.000 
#
# Total GULP energy -1189844.604406 kJ/mol
# GULP energy per Si atom -12394.214629 kJ/mol
# Density = 1.428463 g / cm^3
# Si number density = 14.317213 Si / 1000 Ang^3
#
#
#
# Elastic Constant Matrix: (Units=GPa)
#
#
# Indices 1 2 3 4 5 6 
#
# 1 67.8465 31.0762 28.1481 1.4486 0.0000 0.0000
# 2 31.0762 67.8465 28.1481 -1.4486 0.0000 0.0000
# 3 28.1481 28.1481 62.5989 0.0000 0.0000 0.0000
# 4 1.4486 -1.4486 0.0000 19.6319 0.0000 0.0000
# 5 0.0000 0.0000 0.0000 0.0000 19.6319 1.4486
# 6 0.0000 0.0000 0.0000 0.0000 1.4486 18.3851
#
#
#
# Elastic Compliance Matrix: (Units=1/GPa)
#
#
# Indices 1 2 3 4 5 6 
#
# 1 0.020470 -0.006885 -0.006109 -0.002018 0.000000 0.000000
# 2 -0.006885 0.020470 -0.006109 0.002018 0.000000 0.000000
# 3 -0.006109 -0.006109 0.021468 0.000000 0.000000 0.000000
# 4 -0.002018 0.002018 0.000000 0.051235 0.000000 0.000000
# 5 0.000000 0.000000 0.000000 0.000000 0.051235 -0.004037
# 6 0.000000 0.000000 0.000000 0.000000 -0.004037 0.054710
#
#
# Mechanical properties :
#
#
# Convention : Reuss Voigt Hill
#
# Bulk Modulus (GPa) = 41.31533 41.44851 41.38192
# Shear Modulus (GPa) = 18.80675 18.92441 18.86558
#
# Velocity S-wave (km/s) = 3.62826 3.63959 3.63393
# Velocity P-wave (km/s) = 6.81705 6.83192 6.82449
#
# Compressibility (1/GPa) = 0.02420409
#
# Stress axis : x y z
#
# Youngs Moduli (GPa) = 48.85166 48.85166 46.58002
#
# Poissons Ratio (x) = 0.33633 0.28455
# Poissons Ratio (y) = 0.33633 0.28455
# Poissons Ratio (z) = 0.29842 0.29842
#
# Static dielectric constant tensor:
#      x y z
#    x 2.667260 0.000000 0.000000 
#    y 0.000000 2.667260 0.000000 
#    z 0.000000 0.000000 2.787330 
# 
# 
# High freq. dielectric constant tensor:
#      x y z
#    x 1.527330 0.000000 0.000000 
#    y 0.000000 1.527330 0.000000 
#    z 0.000000 0.000000 1.546560 
# 
# From -- ./inp_files/4292.got.cif
#   From: 2010.03.12/outbox.cif.g09.slc.cpg/sg164_3_cif.got.tgz:4292.got - 2010.04.02 06:32:59.
