data_PCOD8323446
_publ_section_title
;
Structure prediction by ZEFSAII (Michael W. Deem and Ramdas Pophale) SiO2 
 PCOD8323446
Probable space group: P -3 M 1
;
_chemical_formula_sum "Si O2"
_cell_formula_units_Z 78
_cell_length_a 17.789783
_cell_length_b 17.789783
_cell_length_c 17.294170
_cell_angle_alpha 90.000000
_cell_angle_beta 90.000000
_cell_angle_gamma 120.000000
_cell_volume 4739.927038
_symmetry_space_group_name_H-M "P -3 M 1"
_symmetry_group_IT_number 164
_symmetry_cell_setting 'hexagonal'
loop_
_space_group_symop_operation_xyz
x,y,z
-y,x-y,z
-x+y,-x,z
x-y,-y,-z
-x,-x+y,-z
y,x,-z
-x,-y,-z
y,-x+y,-z
x-y,x,-z
-x+y,y,z
x,x-y,z
-y,-x,z
loop_
_atom_site_type_symbol
_atom_site_label
_atom_site_fract_x
_atom_site_fract_y
_atom_site_fract_z
Si Si1 0.335046 0.496633 0.962681
Si Si2 0.241584 0.932025 0.568476
Si Si3 0.735607 0.955775 0.847943
Si Si4 0.555180 0.691797 0.793375
Si Si5 0.311563 0.000000 0.000000
Si Si6 0.170460 0.171165 0.304297
Si Si7 0.502729 0.663160 0.629069
O O1 0.252565 0.505130 0.987976
O O2 0.422622 0.577379 0.997856
O O3 0.345905 0.503423 0.869690
O O4 0.321675 0.406380 0.995136
O O5 0.149304 0.850697 0.544969
O O6 0.232704 0.976442 0.646539
O O7 0.311756 0.901815 0.582359
O O8 0.273585 0.000000 0.500000
O O9 0.723675 0.861838 0.869237
O O10 0.648702 0.946853 0.809504
O O11 0.812832 0.006575 0.786943
O O12 0.749130 0.008939 0.926888
O O13 0.574422 0.787211 0.771789
O O14 0.510628 0.635708 0.717190
O O15 0.142362 0.071181 0.317515
O O16 0.092619 0.185238 0.332352
O O17 0.481075 0.740538 0.626449
O O18 0.422174 0.577827 0.591021
#
# Coordination Sequence:
#
# PCOD8323446 Si02
#       7
#    12  12  12  12   6  12  12
#     4  10  19  30  45  66  95 127 161 199 242 286
#     4  10  20  34  51  71  97 127 158 193 235 282
#     4   9  17  31  48  68  94 124 158 195 238 281
#     4   8  14  27  45  66  92 121 152 187 228 280
#     4  10  19  30  48  70  93 124 162 202 233 278
#     4  10  19  32  51  73  97 124 158 198 240 285
#     4  10  18  29  47  71  99 127 157 193 235 283
#
# _framework density 16.455949
#
# number of rings (size 3 to 8) (size 9 to 14) (size 15 to 20)
#    0.000    2.462    1.538    3.000    0.000    1.538 
#    0.000    1.538    0.000    2.462    0.000    2.692 
#    0.000    0.000    0.000    0.615    0.000    0.000 
#
# Total GULP energy -966723.862257 kJ/mol
# GULP energy per Si atom -12393.895670 kJ/mol
# Density = 1.641849 g / cm^3
# Si number density = 16.455949 Si / 1000 Ang^3
#
#
#
# Elastic Constant Matrix: (Units=GPa)
#
#
# Indices 1 2 3 4 5 6 
#
# 1 87.9153 41.8846 39.8482 0.3214 0.0000 0.0000
# 2 41.8846 87.9153 39.8482 -0.3214 0.0000 0.0000
# 3 39.8482 39.8482 84.0608 0.0000 0.0000 0.0000
# 4 0.3214 -0.3214 0.0000 18.9673 0.0000 0.0000
# 5 0.0000 0.0000 0.0000 0.0000 18.9673 0.3214
# 6 0.0000 0.0000 0.0000 0.0000 0.3214 23.0154
#
#
#
# Elastic Compliance Matrix: (Units=1/GPa)
#
#
# Indices 1 2 3 4 5 6 
#
# 1 0.016298 -0.005431 -0.005151 -0.000368 0.000000 0.000000
# 2 -0.005431 0.016298 -0.005151 0.000368 0.000000 0.000000
# 3 -0.005151 -0.005151 0.016780 0.000000 0.000000 0.000000
# 4 -0.000368 0.000368 0.000000 0.052735 0.000000 0.000000
# 5 0.000000 0.000000 0.000000 0.000000 0.052735 -0.000737
# 6 0.000000 0.000000 0.000000 0.000000 -0.000737 0.043460
#
#
# Mechanical properties :
#
#
# Convention : Reuss Voigt Hill
#
# Bulk Modulus (GPa) = 55.83917 55.89484 55.86700
# Shear Modulus (GPa) = 21.20946 21.41071 21.31009
#
# Velocity S-wave (km/s) = 3.59397 3.61098 3.60248
# Velocity P-wave (km/s) = 7.15740 7.17117 7.16429
#
# Compressibility (1/GPa) = 0.01790858
#
# Stress axis : x y z
#
# Youngs Moduli (GPa) = 61.35557 61.35557 59.59429
#
# Poissons Ratio (x) = 0.33324 0.30700
# Poissons Ratio (y) = 0.33324 0.30700
# Poissons Ratio (z) = 0.31607 0.31607
#
# Static dielectric constant tensor:
#      x y z
#    x 2.969470 0.000000 0.000000 
#    y 0.000000 2.969470 0.000000 
#    z 0.000000 0.000000 3.041430 
# 
# 
# High freq. dielectric constant tensor:
#      x y z
#    x 1.623280 0.000000 0.000000 
#    y 0.000000 1.623280 0.000000 
#    z 0.000000 0.000000 1.616350 
# 
# From -- ./inp_files/4145.got.cif
#   From: 2010.03.12/outbox.cif.g09.slc.cpg/sg164_3_cif.got.tgz:4145.got - 2010.04.02 06:32:59.
