data_PCOD8323725
_publ_section_title
;
Structure prediction by ZEFSAII (Michael W. Deem and Ramdas Pophale) SiO2 
 PCOD8323725
Probable space group: P -3 M 1
;
_chemical_formula_sum "Si O2"
_cell_formula_units_Z 60
_cell_length_a 12.464205
_cell_length_b 12.464205
_cell_length_c 25.552143
_cell_angle_alpha 90.000000
_cell_angle_beta 90.000000
_cell_angle_gamma 120.000000
_cell_volume 3437.851614
_symmetry_space_group_name_H-M "P -3 M 1"
_symmetry_group_IT_number 164
_symmetry_cell_setting 'hexagonal'
loop_
_space_group_symop_operation_xyz
x,y,z
-y,x-y,z
-x+y,-x,z
x-y,-y,-z
-x,-x+y,-z
y,x,-z
-x,-y,-z
y,-x+y,-z
x-y,x,-z
-x+y,y,z
x,x-y,z
-y,-x,z
loop_
_atom_site_type_symbol
_atom_site_label
_atom_site_fract_x
_atom_site_fract_y
_atom_site_fract_z
Si Si1 0.665278 0.583687 0.950349
Si Si2 0.334730 0.416845 0.850511
Si Si3 0.333604 0.915284 0.653794
Si Si4 0.417540 0.082675 0.751801
Si Si5 0.246161 0.246026 0.440932
O O1 0.795139 0.590277 0.951352
O O2 0.559211 0.440790 0.952259
O O3 0.656805 0.649115 0.898077
O O4 0.657130 0.657130 0.000000
O O5 0.203644 0.407288 0.855773
O O6 0.439392 0.560609 0.851757
O O7 0.338983 0.353178 0.796802
O O8 0.439005 0.878009 0.652917
O O9 0.205621 0.794380 0.668622
O O10 0.328657 0.968585 0.597165
O O11 0.361607 0.020183 0.696307
O O12 0.561539 0.123078 0.756313
O O13 0.404557 0.202279 0.758366
O O14 0.291845 0.291845 0.500000
O O15 0.202177 0.101089 0.435812
O O16 0.131769 0.263538 0.425004
#
# Coordination Sequence:
#
# PCOD8323725 Si02
#       5
#    12  12  12  12  12
#     4  10  20  34  54  78 104 134 168 209 253 297
#     4  10  20  34  54  78 104 134 167 205 246 291
#     4  10  20  33  50  71  97 129 163 201 243 290
#     4  10  20  34  53  75  99 127 160 201 246 292
#     4   9  17  30  49  72  97 126 161 201 244 290
#
# _framework density 17.452760000000001
#
# number of rings (size 3 to 8) (size 9 to 14) (size 15 to 20)
#    0.000    2.200    0.000    3.400    0.000    1.200 
#    0.000    6.000    0.000   13.200    0.000    0.000 
#    0.000    0.000    0.000    0.000    0.000    0.000 
#
# Total GULP energy -744208.747281 kJ/mol
# GULP energy per Si atom -12403.479121 kJ/mol
# Density = 1.741304 g / cm^3
# Si number density = 17.452760 Si / 1000 Ang^3
#
#
#
# Elastic Constant Matrix: (Units=GPa)
#
#
# Indices 1 2 3 4 5 6 
#
# 1 103.7914 62.8601 42.6880 2.2388 0.0000 0.0000
# 2 62.8601 103.7914 42.6880 -2.2388 0.0000 0.0000
# 3 42.6880 42.6880 110.8199 0.0000 0.0000 0.0000
# 4 2.2388 -2.2388 0.0000 17.7848 0.0000 0.0000
# 5 0.0000 0.0000 0.0000 0.0000 17.7848 2.2388
# 6 0.0000 0.0000 0.0000 0.0000 2.2388 20.4657
#
#
#
# Elastic Compliance Matrix: (Units=1/GPa)
#
#
# Indices 1 2 3 4 5 6 
#
# 1 0.016124 -0.008648 -0.002880 -0.003118 0.000000 0.000000
# 2 -0.008648 0.016124 -0.002880 0.003118 0.000000 0.000000
# 3 -0.002880 -0.002880 0.011242 0.000000 0.000000 0.000000
# 4 -0.003118 0.003118 0.000000 0.057013 0.000000 0.000000
# 5 0.000000 0.000000 0.000000 0.000000 0.057013 -0.006237
# 6 0.000000 0.000000 0.000000 0.000000 -0.006237 0.049545
#
#
# Mechanical properties :
#
#
# Convention : Reuss Voigt Hill
#
# Bulk Modulus (GPa) = 68.14295 68.31942 68.23118
# Shear Modulus (GPa) = 20.76691 22.55150 21.65921
#
# Velocity S-wave (km/s) = 3.45322 3.59854 3.52663
# Velocity P-wave (km/s) = 7.41813 7.51640 7.46743
#
# Compressibility (1/GPa) = 0.01467503
#
# Stress axis : x y z
#
# Youngs Moduli (GPa) = 62.01917 62.01917 88.95078
#
# Poissons Ratio (x) = 0.53636 0.25615
# Poissons Ratio (y) = 0.53636 0.25615
# Poissons Ratio (z) = 0.17860 0.17860
#
# Static dielectric constant tensor:
#      x y z
#    x 3.110250 0.000000 0.000000 
#    y 0.000000 3.110250 0.000000 
#    z 0.000000 0.000000 3.500200 
# 
# 
# High freq. dielectric constant tensor:
#      x y z
#    x 1.670020 0.000000 0.000000 
#    y 0.000000 1.670020 0.000000 
#    z 0.000000 0.000000 1.693620 
# 
# From -- ./inp_files/5196.got.cif
#   From: 2010.03.12/outbox.cif.g09.slc.cpg/sg164_3_cif.got.tgz:5196.got - 2010.04.02 06:32:59.
