data_PCOD8323280
_publ_section_title
;
Structure prediction by ZEFSAII (Michael W. Deem and Ramdas Pophale) SiO2 
 PCOD8323280
Probable space group: P -3 1 C
;
_chemical_formula_sum "Si O2"
_cell_formula_units_Z 72
_cell_length_a 14.222254
_cell_length_b 14.222254
_cell_length_c 18.057951
_cell_angle_alpha 90.000000
_cell_angle_beta 90.000000
_cell_angle_gamma 120.000000
_cell_volume 3163.267819
_symmetry_space_group_name_H-M "P -3 1 C"
_symmetry_group_IT_number 163
_symmetry_cell_setting 'hexagonal'
loop_
_space_group_symop_operation_xyz
x,y,z
-y,x-y,z
-x+y,-x,z
-y,-x,1/2-z
-x+y,y,1/2-z
x,x-y,1/2-z
-x,-y,-z
y,-x+y,-z
x-y,x,-z
y,x,1/2+z
x-y,-y,1/2+z
-x,-x+y,1/2+z
loop_
_atom_site_type_symbol
_atom_site_label
_atom_site_fract_x
_atom_site_fract_y
_atom_site_fract_z
Si Si1 0.460656 0.550846 0.061775
Si Si2 0.856568 0.791240 0.542296
Si Si3 0.216176 0.764421 0.027731
Si Si4 0.461984 0.686506 0.625286
Si Si5 0.400141 0.417840 0.798098
Si Si6 0.802479 0.802932 0.211047
O O1 0.333054 0.469338 0.084149
O O2 0.458233 0.657897 0.034420
O O3 0.545963 0.587308 0.126614
O O4 0.500000 0.500000 0.000000
O O5 0.825577 0.844226 0.473768
O O6 0.788550 0.662067 0.536548
O O7 0.831176 0.825167 0.622750
O O8 0.173192 0.705441 0.948426
O O9 0.431582 0.781703 0.630601
O O10 0.533937 0.681411 0.691871
O O11 0.504829 0.495172 0.750000
O O12 0.320076 0.294990 0.770966
O O13 0.816685 0.908343 0.250000
O O14 0.887183 0.774365 0.250000
#
# Coordination Sequence:
#
# PCOD8323280 Si02
#       6
#    12  12  12  12  12  12
#     4  12  23  45  70 107 151 187 252 306 382 459
#     4  12  26  47  77 110 141 192 269 326 390 451
#     4  12  21  41  73 110 144 191 236 317 381 453
#     4  10  21  40  67 105 145 184 244 299 381 441
#     4  12  28  45  71 111 153 204 254 313 386 481
#     4  12  29  54  77 109 158 214 265 329 404 467
#
# _framework density 22.761272000000002
#
# number of rings (size 3 to 8) (size 9 to 14) (size 15 to 20)
#    0.333    0.000    5.000    3.667    4.667    0.000 
#    3.000    0.000    0.000    0.333    0.000    0.000 
#    0.000    0.000    0.000    0.000    0.000    0.000 
#
# Total GULP energy -891974.449714 kJ/mol
# GULP energy per Si atom -12388.534024 kJ/mol
# Density = 2.270947 g / cm^3
# Si number density = 22.761272 Si / 1000 Ang^3
#
#
#
# Elastic Constant Matrix: (Units=GPa)
#
#
# Indices 1 2 3 4 5 6 
#
# 1 118.9361 28.6023 39.0104 0.0000 5.1077 0.0000
# 2 28.6023 118.9361 39.0104 0.0000 -5.1077 0.0000
# 3 39.0104 39.0104 71.6042 0.0000 0.0000 0.0000
# 4 0.0000 0.0000 0.0000 34.3755 0.0000 -5.1077
# 5 5.1077 -5.1077 0.0000 0.0000 34.3755 0.0000
# 6 0.0000 0.0000 0.0000 -5.1077 0.0000 45.1669
#
#
#
# Elastic Compliance Matrix: (Units=1/GPa)
#
#
# Indices 1 2 3 4 5 6 
#
# 1 0.010390 -0.000869 -0.005187 0.000000 -0.001673 0.000000
# 2 -0.000869 0.010390 -0.005187 0.000000 0.001673 0.000000
# 3 -0.005187 -0.005187 0.019618 0.000000 0.000000 0.000000
# 4 0.000000 0.000000 0.000000 0.029588 0.000000 0.003346
# 5 -0.001673 0.001673 0.000000 0.000000 0.029588 0.000000
# 6 0.000000 0.000000 0.000000 0.003346 0.000000 0.022518
#
#
# Mechanical properties :
#
#
# Convention : Reuss Voigt Hill
#
# Bulk Modulus (GPa) = 55.83115 58.08028 56.95571
# Shear Modulus (GPa) = 33.21193 36.30714 34.75953
#
# Velocity S-wave (km/s) = 3.82402 3.99824 3.91210
# Velocity P-wave (km/s) = 6.63926 6.84741 6.74414
#
# Compressibility (1/GPa) = 0.01791115
#
# Stress axis : x y z
#
# Youngs Moduli (GPa) = 96.24576 96.24576 50.97486
#
# Poissons Ratio (x) = 0.08365 0.26441
# Poissons Ratio (y) = 0.08365 0.26441
# Poissons Ratio (z) = 0.49923 0.49923
#
# Static dielectric constant tensor:
#      x y z
#    x 4.252900 0.000000 0.000000 
#    y 0.000000 4.252900 0.000000 
#    z 0.000000 0.000000 4.052970 
# 
# 
# High freq. dielectric constant tensor:
#      x y z
#    x 1.909990 0.000000 0.000000 
#    y 0.000000 1.909990 0.000000 
#    z 0.000000 0.000000 1.875830 
# 
# From -- ./inp_files/3140.got.cif
#   From: 2010.03.12/outbox.cif.g09.slc.cpg/sg163_2_cif.got.tgz:3140.got - 2010.04.02 06:30:25.
