data_PCOD8323262
_publ_section_title
;
Structure prediction by ZEFSAII (Michael W. Deem and Ramdas Pophale) SiO2 
 PCOD8323262
Probable space group: P -3 1 C
;
_chemical_formula_sum "Si O2"
_cell_formula_units_Z 72
_cell_length_a 22.480509
_cell_length_b 22.480509
_cell_length_c 8.288580
_cell_angle_alpha 90.000000
_cell_angle_beta 90.000000
_cell_angle_gamma 120.000000
_cell_volume 3627.630509
_symmetry_space_group_name_H-M "P -3 1 C"
_symmetry_group_IT_number 163
_symmetry_cell_setting 'hexagonal'
loop_
_space_group_symop_operation_xyz
x,y,z
-y,x-y,z
-x+y,-x,z
-y,-x,1/2-z
-x+y,y,1/2-z
x,x-y,1/2-z
-x,-y,-z
y,-x+y,-z
x-y,x,-z
y,x,1/2+z
x-y,-y,1/2+z
-x,-x+y,1/2+z
loop_
_atom_site_type_symbol
_atom_site_label
_atom_site_fract_x
_atom_site_fract_y
_atom_site_fract_z
Si Si1 0.903508 0.555466 0.717735
Si Si2 0.810616 0.621232 0.750000
Si Si3 0.961298 0.369644 0.436709
Si Si4 0.390654 0.569942 0.029017
Si Si5 0.781784 0.155066 0.090764
Si Si6 0.748526 0.279395 0.429673
Si Si7 0.454773 0.909546 0.750000
O O1 0.843211 0.572878 0.729507
O O2 0.868221 0.473891 0.679130
O O3 0.958297 0.606208 0.583556
O O4 0.946636 0.568939 0.879564
O O5 0.819440 0.664333 0.581086
O O6 0.914709 0.290459 0.378871
O O7 0.953832 0.427987 0.341921
O O8 0.453510 0.648060 0.008781
O O9 0.318616 0.568558 0.041657
O O10 0.391787 0.530159 0.868543
O O11 0.830177 0.169824 0.250000
O O12 0.769506 0.219076 0.067291
O O13 0.720218 0.279783 0.250000
#
# Coordination Sequence:
#
# PCOD8323262 Si02
#       7
#    12   6  12  12  12  12   6
#     4  11  26  43  62  83 115 142 188 238 296 355
#     4  10  22  42  62  84 111 144 180 230 286 340
#     4  11  25  42  60  87 105 145 186 229 295 364
#     4  12  22  37  60  81 112 143 188 244 299 368
#     4  10  20  39  63  83 108 143 181 228 291 344
#     4  11  19  35  56  79 100 143 187 227 298 371
#     4  12  22  40  58  82 107 142 180 246 304 354
#
# _framework density 19.847666
#
# number of rings (size 3 to 8) (size 9 to 14) (size 15 to 20)
#    0.000    1.000    5.000    2.333    2.333    3.333 
#    0.000    0.000    0.000    2.000    0.000    0.000 
#    0.000    0.000    0.000    0.000    0.000    0.000 
#
# Total GULP energy -892069.749636 kJ/mol
# GULP energy per Si atom -12389.857634 kJ/mol
# Density = 1.980249 g / cm^3
# Si number density = 19.847666 Si / 1000 Ang^3
#
#
#
# Elastic Constant Matrix: (Units=GPa)
#
#
# Indices 1 2 3 4 5 6 
#
# 1 55.3304 32.8884 37.3747 0.0000 -8.9894 0.0000
# 2 32.8884 55.3304 37.3747 0.0000 8.9894 0.0000
# 3 37.3747 37.3747 127.2679 0.0000 0.0000 0.0000
# 4 0.0000 0.0000 0.0000 23.2496 0.0000 8.9894
# 5 -8.9894 8.9894 0.0000 0.0000 23.2496 0.0000
# 6 0.0000 0.0000 0.0000 8.9894 0.0000 11.2210
#
#
#
# Elastic Compliance Matrix: (Units=1/GPa)
#
#
# Indices 1 2 3 4 5 6 
#
# 1 0.039823 -0.024733 -0.004432 0.000000 0.024960 0.000000
# 2 -0.024733 0.039823 -0.004432 0.000000 -0.024960 0.000000
# 3 -0.004432 -0.004432 0.010460 0.000000 0.000000 0.000000
# 4 0.000000 0.000000 0.000000 0.062313 0.000000 -0.049921
# 5 0.024960 -0.024960 0.000000 0.000000 0.062313 0.000000
# 6 0.000000 0.000000 0.000000 -0.049921 0.000000 0.129111
#
#
# Mechanical properties :
#
#
# Convention : Reuss Voigt Hill
#
# Bulk Modulus (GPa) = 43.64003 50.35606 46.99804
# Shear Modulus (GPa) = 11.94248 20.23010 16.08629
#
# Velocity S-wave (km/s) = 2.45563 3.19606 2.85000
# Velocity P-wave (km/s) = 5.48410 6.24869 5.87884
#
# Compressibility (1/GPa) = 0.02291474
#
# Stress axis : x y z
#
# Youngs Moduli (GPa) = 25.11112 25.11112 95.59965
#
# Poissons Ratio (x) = 0.62106 0.42366
# Poissons Ratio (y) = 0.62106 0.42366
# Poissons Ratio (z) = 0.11128 0.11128
#
# Static dielectric constant tensor:
#      x y z
#    x 3.344450 0.000000 0.000000 
#    y 0.000000 3.344450 0.000000 
#    z 0.000000 0.000000 4.466870 
# 
# 
# High freq. dielectric constant tensor:
#      x y z
#    x 1.728580 0.000000 0.000000 
#    y 0.000000 1.728580 0.000000 
#    z 0.000000 0.000000 1.807150 
# 
# From -- ./inp_files/1282.got.cif
#   From: 2010.03.12/outbox.cif.g09.slc.cpg/sg163_1_cif.got.tgz:1282.got - 2010.04.02 06:30:25.
