data_PCOD8323617
_publ_section_title
;
Structure prediction by ZEFSAII (Michael W. Deem and Ramdas Pophale) SiO2 
 PCOD8323617
Probable space group: P -3 M 1
;
_chemical_formula_sum "Si O2"
_cell_formula_units_Z 66
_cell_length_a 13.098011
_cell_length_b 13.098011
_cell_length_c 27.842571
_cell_angle_alpha 90.000000
_cell_angle_beta 90.000000
_cell_angle_gamma 120.000000
_cell_volume 4136.668023
_symmetry_space_group_name_H-M "P -3 M 1"
_symmetry_group_IT_number 164
_symmetry_cell_setting 'hexagonal'
loop_
_space_group_symop_operation_xyz
x,y,z
-y,x-y,z
-x+y,-x,z
x-y,-y,-z
-x,-x+y,-z
y,x,-z
-x,-y,-z
y,-x+y,-z
x-y,x,-z
-x+y,y,z
x,x-y,z
-y,-x,z
loop_
_atom_site_type_symbol
_atom_site_label
_atom_site_fract_x
_atom_site_fract_y
_atom_site_fract_z
Si Si1 0.234027 0.000173 0.944880
Si Si2 0.901651 0.568464 0.320644
Si Si3 0.666662 0.093627 0.867217
Si Si4 0.760101 0.760627 0.603611
Si Si5 0.764467 0.000000 0.500000
Si Si6 0.431662 0.332993 0.211029
O O1 0.125815 0.874185 0.929309
O O2 0.194362 0.097181 0.936737
O O3 0.348066 0.029615 0.913657
O O4 0.269852 0.000000 0.000000
O O5 0.768325 0.536650 0.330460
O O6 0.911081 0.455541 0.333423
O O7 0.991940 0.671328 0.355379
O O8 0.937715 0.609413 0.265804
O O9 0.554305 0.108610 0.876146
O O10 0.779077 0.220924 0.858212
O O11 0.651569 0.014261 0.820946
O O12 0.790481 0.895241 0.608914
O O13 0.698152 0.708970 0.550781
O O14 0.877912 0.755823 0.611294
O O15 0.783675 0.891838 0.491718
O O16 0.417261 0.208631 0.194813
O O17 0.568528 0.431473 0.204963
#
# Coordination Sequence:
#
# PCOD8323617 Si02
#       6
#    12  12  12  12   6  12
#     4   9  17  30  49  71  92 114 142 178 218 256
#     4   9  17  29  45  64  85 110 140 174 212 253
#     4  10  20  32  46  64  89 120 149 176 207 249
#     4   9  16  26  42  63  86 110 137 172 212 253
#     4   8  13  22  37  58  82 108 138 170 206 246
#     4   9  17  30  48  67  85 107 139 180 220 254
#
# _framework density 15.954871000000001
#
# number of rings (size 3 to 8) (size 9 to 14) (size 15 to 20)
#    0.000    2.909    0.000    1.545    0.000    4.727 
#    0.000    0.455    0.000    1.091    0.000    0.000 
#    0.000    0.000    0.000    0.000    0.000    0.000 
#
# Total GULP energy -818054.140866 kJ/mol
# GULP energy per Si atom -12394.759710 kJ/mol
# Density = 1.591856 g / cm^3
# Si number density = 15.954871 Si / 1000 Ang^3
#
#
#
# Elastic Constant Matrix: (Units=GPa)
#
#
# Indices 1 2 3 4 5 6 
#
# 1 98.0087 55.9920 66.5582 -2.8848 0.0000 0.0000
# 2 55.9920 98.0087 66.5582 2.8848 0.0000 0.0000
# 3 66.5582 66.5582 115.1076 0.0000 0.0000 0.0000
# 4 -2.8848 2.8848 0.0000 25.1809 0.0000 0.0000
# 5 0.0000 0.0000 0.0000 0.0000 25.1809 -2.8848
# 6 0.0000 0.0000 0.0000 0.0000 -2.8848 21.0084
#
#
#
# Elastic Compliance Matrix: (Units=1/GPa)
#
#
# Indices 1 2 3 4 5 6 
#
# 1 0.018581 -0.005599 -0.007507 0.002770 0.000000 0.000000
# 2 -0.005599 0.018581 -0.007507 -0.002770 0.000000 0.000000
# 3 -0.007507 -0.007507 0.017369 0.000000 0.000000 0.000000
# 4 0.002770 -0.002770 0.000000 0.040347 0.000000 0.000000
# 5 0.000000 0.000000 0.000000 0.000000 0.040347 0.005540
# 6 0.000000 0.000000 0.000000 0.000000 0.005540 0.048361
#
#
# Mechanical properties :
#
#
# Convention : Reuss Voigt Hill
#
# Bulk Modulus (GPa) = 75.15197 76.59353 75.87275
# Shear Modulus (GPa) = 21.81054 22.40845 22.10949
#
# Velocity S-wave (km/s) = 3.70133 3.75172 3.72661
# Velocity P-wave (km/s) = 8.09145 8.17788 8.13478
#
# Compressibility (1/GPa) = 0.01330637
#
# Stress axis : x y z
#
# Youngs Moduli (GPa) = 53.81765 53.81765 57.57542
#
# Poissons Ratio (x) = 0.30133 0.43219
# Poissons Ratio (y) = 0.30133 0.43219
# Poissons Ratio (z) = 0.40399 0.40399
#
# Static dielectric constant tensor:
#      x y z
#    x 2.883380 0.000000 0.000000 
#    y 0.000000 2.883380 0.000000 
#    z 0.000000 0.000000 3.278350 
# 
# 
# High freq. dielectric constant tensor:
#      x y z
#    x 1.599760 0.000000 0.000000 
#    y 0.000000 1.599760 0.000000 
#    z 0.000000 0.000000 1.626440 
# 
# From -- ./inp_files/5537.got.cif
#   From: 2010.03.12/outbox.cif.g09.slc.cpg/sg164_3_cif.got.tgz:5537.got - 2010.04.02 06:32:59.
