data_PCOD8323412
_publ_section_title
;
Structure prediction by ZEFSAII (Michael W. Deem and Ramdas Pophale) SiO2 
 PCOD8323412
Probable space group: P -3 M 1
;
_chemical_formula_sum "Si O2"
_cell_formula_units_Z 84
_cell_length_a 19.891436
_cell_length_b 19.891436
_cell_length_c 14.103507
_cell_angle_alpha 90.000000
_cell_angle_beta 90.000000
_cell_angle_gamma 120.000000
_cell_volume 4832.702086
_symmetry_space_group_name_H-M "P -3 M 1"
_symmetry_group_IT_number 164
_symmetry_cell_setting 'hexagonal'
loop_
_space_group_symop_operation_xyz
x,y,z
-y,x-y,z
-x+y,-x,z
x-y,-y,-z
-x,-x+y,-z
y,x,-z
-x,-y,-z
y,-x+y,-z
x-y,x,-z
-x+y,y,z
x,x-y,z
-y,-x,z
loop_
_atom_site_type_symbol
_atom_site_label
_atom_site_fract_x
_atom_site_fract_y
_atom_site_fract_z
Si Si1 0.898556 0.332733 0.679236
Si Si2 0.111700 0.373480 0.024088
Si Si3 0.540980 0.927771 0.688061
Si Si4 0.749296 0.091184 0.183099
Si Si5 0.514823 0.336898 0.860710
Si Si6 0.215603 0.284769 0.212558
Si Si7 0.178978 0.667579 0.508896
O O1 0.856679 0.359622 0.755262
O O2 0.897522 0.257192 0.720742
O O3 0.851984 0.307592 0.581627
O O4 0.983408 0.404458 0.658815
O O5 0.198775 0.397549 0.994005
O O6 0.114364 0.449905 0.068358
O O7 0.079980 0.306244 0.101885
O O8 0.064296 0.345216 0.925457
O O9 0.457058 0.914115 0.723542
O O10 0.582576 0.903438 0.767918
O O11 0.531137 0.877056 0.596299
O O12 0.828556 0.171445 0.194560
O O13 0.764905 0.024241 0.228474
O O14 0.508425 0.254213 0.857850
O O15 0.598638 0.401363 0.898218
O O16 0.121835 0.243669 0.234572
O O17 0.182823 0.591412 0.483288
O O18 0.264091 0.735910 0.536413
#
# Coordination Sequence:
#
# PCOD8323412 Si02
#       7
#    12  12  12  12  12  12  12
#     4  10  19  32  49  68  90 117 150 189 235 285
#     4   8  16  29  44  64  90 120 153 189 227 272
#     4  10  21  34  48  66  91 124 159 196 235 273
#     4  10  19  32  50  71  95 125 163 200 233 277
#     4  10  18  28  43  65  93 121 152 191 237 285
#     4   9  17  31  50  72  96 120 148 187 240 292
#     4  11  21  33  48  66  90 119 153 190 230 275
#
# _framework density 17.38158
#
# number of rings (size 3 to 8) (size 9 to 14) (size 15 to 20)
#    0.000    2.286    0.000    5.000    0.000    1.714 
#    0.000    1.429    0.000    5.714    0.000    0.000 
#    0.000    3.429    0.000    0.000    0.000   29.714 
#
# Total GULP energy -1040944.934292 kJ/mol
# GULP energy per Si atom -12392.201599 kJ/mol
# Density = 1.734202 g / cm^3
# Si number density = 17.381580 Si / 1000 Ang^3
#
#
#
# Elastic Constant Matrix: (Units=GPa)
#
#
# Indices 1 2 3 4 5 6 
#
# 1 68.7289 35.3287 26.9124 -0.9330 0.0000 0.0000
# 2 35.3287 68.7289 26.9124 0.9330 0.0000 0.0000
# 3 26.9124 26.9124 56.2918 0.0000 0.0000 0.0000
# 4 -0.9330 0.9330 0.0000 19.4557 0.0000 0.0000
# 5 0.0000 0.0000 0.0000 0.0000 19.4557 -0.9330
# 6 0.0000 0.0000 0.0000 0.0000 -0.9330 16.7001
#
#
#
# Elastic Compliance Matrix: (Units=1/GPa)
#
#
# Indices 1 2 3 4 5 6 
#
# 1 0.021394 -0.008627 -0.006104 0.001440 0.000000 0.000000
# 2 -0.008627 0.021394 -0.006104 -0.001440 0.000000 0.000000
# 3 -0.006104 -0.006104 0.023601 0.000000 0.000000 0.000000
# 4 0.001440 -0.001440 0.000000 0.051537 0.000000 0.000000
# 5 0.000000 0.000000 0.000000 0.000000 0.051537 0.002879
# 6 0.000000 0.000000 0.000000 0.000000 0.002879 0.060041
#
#
# Mechanical properties :
#
#
# Convention : Reuss Voigt Hill
#
# Bulk Modulus (GPa) = 40.45298 41.33962 40.89630
# Shear Modulus (GPa) = 17.89470 18.09536 17.99503
#
# Velocity S-wave (km/s) = 3.21210 3.23005 3.22109
# Velocity P-wave (km/s) = 6.08940 6.14379 6.11666
#
# Compressibility (1/GPa) = 0.02472006
#
# Stress axis : x y z
#
# Youngs Moduli (GPa) = 46.74232 46.74232 42.37107
#
# Poissons Ratio (x) = 0.40322 0.25863
# Poissons Ratio (y) = 0.40322 0.25863
# Poissons Ratio (z) = 0.28531 0.28531
#
# Static dielectric constant tensor:
#      x y z
#    x 3.229600 0.000000 0.000000 
#    y 0.000000 3.229600 0.000000 
#    z 0.000000 0.000000 3.225180 
# 
# 
# High freq. dielectric constant tensor:
#      x y z
#    x 1.663130 0.000000 0.000000 
#    y 0.000000 1.663130 0.000000 
#    z 0.000000 0.000000 1.666090 
# 
# From -- ./inp_files/2942.got.cif
#   From: 2010.03.12/outbox.cif.g09.slc.cpg/sg164_2_cif.got.tgz:2942.got - 2010.04.02 06:32:59.
