data_PCOD8323115
_publ_section_title
;
Structure prediction by ZEFSAII (Michael W. Deem and Ramdas Pophale) SiO2 
 PCOD8323115
Probable space group: P -3 1 M 
;
_chemical_formula_sum "Si O2"
_cell_formula_units_Z 84
_cell_length_a 17.908147
_cell_length_b 17.908147
_cell_length_c 15.703233
_cell_angle_alpha 90.000000
_cell_angle_beta 90.000000
_cell_angle_gamma 120.000000
_cell_volume 4361.350676
_symmetry_space_group_name_H-M "P -3 1 M "
_symmetry_group_IT_number 162
_symmetry_cell_setting 'hexagonal'
loop_
_space_group_symop_operation_xyz
x,y,z
-y,x-y,z
-x+y,-x,z
-y,-x,-z
-x+y,y,-z
x,x-y,-z
-x,-y,-z
y,-x+y,-z
x-y,x,-z
y,x,z
x-y,-y,z
-x,-x+y,z
loop_
_atom_site_type_symbol
_atom_site_label
_atom_site_fract_x
_atom_site_fract_y
_atom_site_fract_z
Si Si1 0.161079 0.372530 0.748880
Si Si2 0.604157 0.504781 0.786140
Si Si3 0.319847 0.098936 0.935850
Si Si4 0.468468 0.100290 0.488614
Si Si5 0.319719 0.217665 0.429212
Si Si6 0.651187 0.098237 0.704437
Si Si7 0.822383 0.486383 0.040524
O O1 0.116037 0.429834 0.730621
O O2 0.130182 0.323842 0.838878
O O3 0.132844 0.310345 0.665937
O O4 0.264494 0.427158 0.757322
O O5 0.555533 0.555533 0.821106
O O6 0.541684 0.425460 0.727676
O O7 0.644714 0.471476 0.858936
O O8 0.411637 0.117451 0.974411
O O9 0.252997 0.000000 0.937916
O O10 0.281856 0.140928 0.000000
O O11 0.572831 0.145662 0.500000
O O12 0.421341 0.134334 0.552304
O O13 0.445827 0.117683 0.394544
O O14 0.430003 0.000000 0.506214
O O15 0.285145 0.142573 0.500000
O O16 0.261037 0.261037 0.437462
O O17 0.624019 0.000000 0.726972
O O18 0.727526 0.455052 0.000000
O O19 0.861434 0.430717 0.000000
#
# Coordination Sequence:
#
# PCOD8323115 Si02
#       7
#    12  12  12  12  12  12  12
#     4  11  21  38  59  85 118 159 199 247 302 360
#     4  10  22  37  55  79 112 156 201 245 302 361
#     4  10  23  41  61  87 115 150 199 250 306 361
#     4   9  17  32  55  79 110 149 190 238 287 338
#     4  11  21  35  59  87 119 155 196 243 295 359
#     4  10  21  36  55  86 117 150 201 251 295 347
#     4  10  21  35  53  79 111 152 193 242 292 354
#
# _framework density 19.260088
#
# number of rings (size 3 to 8) (size 9 to 14) (size 15 to 20)
#    0.000    1.857    1.429    3.571    6.000    4.000 
#    0.857    0.000    0.000    0.571    0.000    0.000 
#    0.000    0.000    0.000    0.000    0.000    0.000 
#
# Total GULP energy -1041016.440591 kJ/mol
# GULP energy per Si atom -12393.052864 kJ/mol
# Density = 1.921625 g / cm^3
# Si number density = 19.260088 Si / 1000 Ang^3
#
#
#
# Elastic Constant Matrix: (Units=GPa)
#
#
# Indices 1 2 3 4 5 6 
#
# 1 69.0304 22.9820 37.7545 0.0000 1.8998 0.0000
# 2 22.9820 69.0304 37.7545 0.0000 -1.8998 0.0000
# 3 37.7545 37.7545 104.6768 0.0000 0.0000 0.0000
# 4 0.0000 0.0000 0.0000 26.2125 0.0000 -1.8998
# 5 1.8998 -1.8998 0.0000 0.0000 26.2125 0.0000
# 6 0.0000 0.0000 0.0000 -1.8998 0.0000 23.0242
#
#
#
# Elastic Compliance Matrix: (Units=1/GPa)
#
#
# Indices 1 2 3 4 5 6 
#
# 1 0.018642 -0.003205 -0.005568 0.000000 -0.001583 0.000000
# 2 -0.003205 0.018642 -0.005568 0.000000 0.001583 0.000000
# 3 -0.005568 -0.005568 0.013570 0.000000 0.000000 0.000000
# 4 0.000000 0.000000 0.000000 0.038379 0.000000 0.003167
# 5 -0.001583 0.001583 0.000000 0.000000 0.038379 0.000000
# 6 0.000000 0.000000 0.000000 0.003167 0.000000 0.043694
#
#
# Mechanical properties :
#
#
# Convention : Reuss Voigt Hill
#
# Bulk Modulus (GPa) = 45.10044 48.85775 46.97909
# Shear Modulus (GPa) = 24.11052 24.70627 24.40839
#
# Velocity S-wave (km/s) = 3.54197 3.58546 3.56378
# Velocity P-wave (km/s) = 6.33993 6.52404 6.43265
#
# Compressibility (1/GPa) = 0.02217273
#
# Stress axis : x y z
#
# Youngs Moduli (GPa) = 53.64191 53.64191 73.69389
#
# Poissons Ratio (x) = 0.17191 0.41032
# Poissons Ratio (y) = 0.17191 0.41032
# Poissons Ratio (z) = 0.29867 0.29867
#
# Static dielectric constant tensor:
#      x y z
#    x 3.448600 0.000000 0.000000 
#    y 0.000000 3.448600 0.000000 
#    z 0.000000 0.000000 3.860210 
# 
# 
# High freq. dielectric constant tensor:
#      x y z
#    x 1.727840 0.000000 0.000000 
#    y 0.000000 1.727840 0.000000 
#    z 0.000000 0.000000 1.761950 
# 
# From -- ./inp_files/3205.got.cif
#   From: 2010.03.12/outbox.cif.g09.slc.cpg/sg162_2_cif.got.tgz:3205.got - 2010.04.02 06:27:41.
