data_PCOD8323611
_publ_section_title
;
Structure prediction by ZEFSAII (Michael W. Deem and Ramdas Pophale) SiO2 
 PCOD8323611
Probable space group: P -3 M 1
;
_chemical_formula_sum "Si O2"
_cell_formula_units_Z 84
_cell_length_a 13.131791
_cell_length_b 13.131791
_cell_length_c 35.665961
_cell_angle_alpha 90.000000
_cell_angle_beta 90.000000
_cell_angle_gamma 120.000000
_cell_volume 5326.384159
_symmetry_space_group_name_H-M "P -3 M 1"
_symmetry_group_IT_number 164
_symmetry_cell_setting 'hexagonal'
loop_
_space_group_symop_operation_xyz
x,y,z
-y,x-y,z
-x+y,-x,z
x-y,-y,-z
-x,-x+y,-z
y,x,-z
-x,-y,-z
y,-x+y,-z
x-y,x,-z
-x+y,y,z
x,x-y,z
-y,-x,z
loop_
_atom_site_type_symbol
_atom_site_label
_atom_site_fract_x
_atom_site_fract_y
_atom_site_fract_z
Si Si1 0.437021 0.105359 0.747096
Si Si2 0.430912 0.097519 0.028493
Si Si3 0.666540 0.569133 0.113622
Si Si4 0.330271 0.426933 0.171772
Si Si5 0.572492 0.903715 0.334388
Si Si6 0.093693 0.426800 0.603433
Si Si7 0.233310 0.000262 0.456897
O O1 0.534994 0.069988 0.747159
O O2 0.493119 0.246560 0.747466
O O3 0.366681 0.055547 0.786469
O O4 0.368396 0.057657 0.707484
O O5 0.562067 0.124133 0.021046
O O6 0.429464 0.214732 0.019450
O O7 0.391177 0.054666 0.071056
O O8 0.340455 0.000000 0.000000
O O9 0.786104 0.572207 0.122933
O O10 0.562683 0.437318 0.120754
O O11 0.657280 0.659435 0.141558
O O12 0.219681 0.439362 0.159892
O O13 0.443679 0.556322 0.171596
O O14 0.437553 0.875106 0.334144
O O15 0.573438 0.786719 0.348027
O O16 0.652402 0.012358 0.361115
O O17 0.221327 0.442654 0.610662
O O18 0.107402 0.553701 0.596977
O O19 0.031294 0.348607 0.566949
O O20 0.193240 0.096620 0.450328
O O21 0.268054 0.000000 0.500000
O O22 0.125849 0.874152 0.444604
#
# Coordination Sequence:
#
# PCOD8323611 Si02
#       7
#    12  12  12  12  12  12  12
#     4   8  13  22  38  61  87 112 136 165 207 257
#     4   9  17  29  45  64  85 110 139 172 211 253
#     4   9  17  29  44  61  83 113 147 178 206 241
#     4   9  16  26  42  65  91 114 136 167 211 259
#     4   9  16  27  45  67  88 109 137 176 219 258
#     4  10  20  32  45  61  86 121 154 179 204 244
#     4   9  17  30  49  71  91 110 136 176 225 268
#
# _framework density 15.770548
#
# number of rings (size 3 to 8) (size 9 to 14) (size 15 to 20)
#    0.000    3.000    0.000    1.429    0.000    4.857 
#    0.000    0.714    0.000    2.714    0.000    2.000 
#    0.000    0.000    0.000    0.000    0.000    0.000 
#
# Total GULP energy -1040870.600441 kJ/mol
# GULP energy per Si atom -12391.316672 kJ/mol
# Density = 1.573465 g / cm^3
# Si number density = 15.770548 Si / 1000 Ang^3
#
#
#
# Elastic Constant Matrix: (Units=GPa)
#
#
# Indices 1 2 3 4 5 6 
#
# 1 84.8171 43.4528 63.2986 0.7275 0.0000 0.0000
# 2 43.4528 84.8171 63.2986 -0.7275 0.0000 0.0000
# 3 63.2986 63.2986 121.6621 0.0000 0.0000 0.0000
# 4 0.7275 -0.7275 0.0000 23.6464 0.0000 0.0000
# 5 0.0000 0.0000 0.0000 0.0000 23.6464 0.7275
# 6 0.0000 0.0000 0.0000 0.0000 0.7275 20.6822
#
#
#
# Elastic Compliance Matrix: (Units=1/GPa)
#
#
# Indices 1 2 3 4 5 6 
#
# 1 0.020113 -0.004088 -0.008337 -0.000745 0.000000 0.000000
# 2 -0.004088 0.020113 -0.008337 0.000745 0.000000 0.000000
# 3 -0.008337 -0.008337 0.016895 0.000000 0.000000 0.000000
# 4 -0.000745 0.000745 0.000000 0.042335 0.000000 0.000000
# 5 0.000000 0.000000 0.000000 0.000000 0.042335 -0.001489
# 6 0.000000 0.000000 0.000000 0.000000 -0.001489 0.048403
#
#
# Mechanical properties :
#
#
# Convention : Reuss Voigt Hill
#
# Bulk Modulus (GPa) = 64.12313 70.15516 67.13915
# Shear Modulus (GPa) = 21.10414 21.67809 21.39112
#
# Velocity S-wave (km/s) = 3.66211 3.71157 3.68692
# Velocity P-wave (km/s) = 7.65700 7.93405 7.79676
#
# Compressibility (1/GPa) = 0.01559500
#
# Stress axis : x y z
#
# Youngs Moduli (GPa) = 49.71866 49.71866 59.18886
#
# Poissons Ratio (x) = 0.20327 0.49348
# Poissons Ratio (y) = 0.20327 0.49348
# Poissons Ratio (z) = 0.41452 0.41452
#
# Static dielectric constant tensor:
#      x y z
#    x 2.821710 0.000000 0.000000 
#    y 0.000000 2.821710 0.000000 
#    z 0.000000 0.000000 3.369570 
# 
# 
# High freq. dielectric constant tensor:
#      x y z
#    x 1.584590 0.000000 0.000000 
#    y 0.000000 1.584590 0.000000 
#    z 0.000000 0.000000 1.622180 
# 
# From -- ./inp_files/5299.got.cif
#   From: 2010.03.12/outbox.cif.g09.slc.cpg/sg164_3_cif.got.tgz:5299.got - 2010.04.02 06:32:59.
