data_PCOD8323213
_publ_section_title
;
Structure prediction by ZEFSAII (Michael W. Deem and Ramdas Pophale) SiO2 
 PCOD8323213
Probable space group: P -3 1 C
;
_chemical_formula_sum "Si O2"
_cell_formula_units_Z 96
_cell_length_a 17.105058
_cell_length_b 17.105058
_cell_length_c 22.788758
_cell_angle_alpha 90.000000
_cell_angle_beta 90.000000
_cell_angle_gamma 120.000000
_cell_volume 5774.313919
_symmetry_space_group_name_H-M "P -3 1 C"
_symmetry_group_IT_number 163
_symmetry_cell_setting 'hexagonal'
loop_
_space_group_symop_operation_xyz
x,y,z
-y,x-y,z
-x+y,-x,z
-y,-x,1/2-z
-x+y,y,1/2-z
x,x-y,1/2-z
-x,-y,-z
y,-x+y,-z
x-y,x,-z
y,x,1/2+z
x-y,-y,1/2+z
-x,-x+y,1/2+z
loop_
_atom_site_type_symbol
_atom_site_label
_atom_site_fract_x
_atom_site_fract_y
_atom_site_fract_z
Si Si1 0.820087 0.829759 0.345753
Si Si2 0.324195 0.845022 0.130962
Si Si3 0.931649 0.694474 0.258984
Si Si4 0.383432 0.945352 0.251300
Si Si5 0.492130 0.342018 0.627410
Si Si6 0.062950 0.323489 0.446211
Si Si7 0.765508 0.081487 0.957319
Si Si8 0.009634 0.179933 0.635878
O O1 0.801095 0.780003 0.283944
O O2 0.736763 0.774453 0.388459
O O3 0.909510 0.839833 0.376083
O O4 0.833981 0.927849 0.332635
O O5 0.328871 0.882920 0.196282
O O6 0.252359 0.739429 0.128201
O O7 0.419262 0.855270 0.113323
O O8 0.298466 0.900508 0.085641
O O9 0.823035 0.646070 0.250000
O O10 0.957970 0.731527 0.324665
O O11 0.963601 0.622367 0.247539
O O12 0.488977 0.977954 0.250000
O O13 0.338508 0.888615 0.309309
O O14 0.423912 0.330876 0.575458
O O15 0.148125 0.324034 0.478326
O O16 0.976072 0.291868 0.487160
O O17 0.802214 0.022039 0.926195
#
# Coordination Sequence:
#
# PCOD8323213 Si02
#       8
#    12  12  12  12  12  12  12  12
#     4  10  19  30  46  68  98 131 164 199 238 285
#     4  10  20  33  52  75 101 128 155 195 245 300
#     4  10  19  31  49  74 101 128 158 196 239 287
#     4  10  19  33  53  78 103 126 156 192 241 297
#     4  10  20  33  52  75 101 128 155 195 245 300
#     4  10  20  33  49  68  94 129 168 207 241 277
#     4  10  20  33  49  68  94 129 168 207 241 277
#     4  10  19  30  46  68  98 131 164 199 238 285
#
# _framework density 16.625351999999999
#
# number of rings (size 3 to 8) (size 9 to 14) (size 15 to 20)
#    0.000    2.000    2.500    2.000    0.000    1.500 
#    0.000    2.500    0.000    4.250    0.000    0.000 
#    0.000    0.000    0.000    0.000    0.000    0.000 
#
# Total GULP energy -1190455.754310 kJ/mol
# GULP energy per Si atom -12400.580774 kJ/mol
# Density = 1.658751 g / cm^3
# Si number density = 16.625352 Si / 1000 Ang^3
#
#
#
# Elastic Constant Matrix: (Units=GPa)
#
#
# Indices 1 2 3 4 5 6 
#
# 1 79.0345 35.1124 20.1738 0.0000 0.8431 0.0000
# 2 35.1124 79.0345 20.1738 0.0000 -0.8431 0.0000
# 3 20.1738 20.1738 46.7622 0.0000 0.0000 0.0000
# 4 0.0000 0.0000 0.0000 23.3634 0.0000 -0.8431
# 5 0.8431 -0.8431 0.0000 0.0000 23.3634 0.0000
# 6 0.0000 0.0000 0.0000 -0.8431 0.0000 21.9610
#
#
#
# Elastic Compliance Matrix: (Units=1/GPa)
#
#
# Indices 1 2 3 4 5 6 
#
# 1 0.016568 -0.006231 -0.004459 0.000000 -0.000823 0.000000
# 2 -0.006231 0.016568 -0.004459 0.000000 0.000823 0.000000
# 3 -0.004459 -0.004459 0.025233 0.000000 0.000000 0.000000
# 4 0.000000 0.000000 0.000000 0.042861 0.000000 0.001645
# 5 -0.000823 0.000823 0.000000 0.000000 0.042861 0.000000
# 6 0.000000 0.000000 0.000000 0.001645 0.000000 0.045598
#
#
# Mechanical properties :
#
#
# Convention : Reuss Voigt Hill
#
# Bulk Modulus (GPa) = 35.62716 39.52793 37.57755
# Shear Modulus (GPa) = 21.80111 22.36231 22.08171
#
# Velocity S-wave (km/s) = 3.62514 3.67150 3.64839
# Velocity P-wave (km/s) = 6.24485 6.46533 6.35605
#
# Compressibility (1/GPa) = 0.02806847
#
# Stress axis : x y z
#
# Youngs Moduli (GPa) = 60.35707 60.35707 39.63132
#
# Poissons Ratio (x) = 0.37609 0.17674
# Poissons Ratio (y) = 0.37609 0.17674
# Poissons Ratio (z) = 0.26916 0.26916
#
# Static dielectric constant tensor:
#      x y z
#    x 3.127850 0.000000 0.000000 
#    y 0.000000 3.127850 0.000000 
#    z 0.000000 0.000000 2.959530 
# 
# 
# High freq. dielectric constant tensor:
#      x y z
#    x 1.637520 0.000000 0.000000 
#    y 0.000000 1.637520 0.000000 
#    z 0.000000 0.000000 1.631870 
# 
# From -- ./inp_files/3701.got.cif
#   From: 2010.03.12/outbox.cif.g09.slc.cpg/sg163_2_cif.got.tgz:3701.got - 2010.04.02 06:30:25.
