data_PCOD8323338
_publ_section_title
;
Structure prediction by ZEFSAII (Michael W. Deem and Ramdas Pophale) SiO2 
 PCOD8323338
Probable space group: P -3 1 C
;
_chemical_formula_sum "Si O2"
_cell_formula_units_Z 48
_cell_length_a 16.225622
_cell_length_b 16.225622
_cell_length_c 9.197528
_cell_angle_alpha 90.000000
_cell_angle_beta 90.000000
_cell_angle_gamma 120.000000
_cell_volume 2097.029108
_symmetry_space_group_name_H-M "P -3 1 C"
_symmetry_group_IT_number 163
_symmetry_cell_setting 'hexagonal'
loop_
_space_group_symop_operation_xyz
x,y,z
-y,x-y,z
-x+y,-x,z
-y,-x,1/2-z
-x+y,y,1/2-z
x,x-y,1/2-z
-x,-y,-z
y,-x+y,-z
x-y,x,-z
y,x,1/2+z
x-y,-y,1/2+z
-x,-x+y,1/2+z
loop_
_atom_site_type_symbol
_atom_site_label
_atom_site_fract_x
_atom_site_fract_y
_atom_site_fract_z
Si Si1 0.829361 0.336971 0.667894
Si Si2 0.690770 0.713912 0.269704
Si Si3 0.836492 0.045324 0.481054
Si Si4 0.509531 0.923937 0.602867
O O1 0.729444 0.270557 0.750000
O O2 0.877545 0.438773 0.750000
O O3 0.899270 0.294761 0.675664
O O4 0.826659 0.356885 0.495189
O O5 0.781644 0.743232 0.167556
O O6 0.714164 0.794982 0.389622
O O7 0.661454 0.617204 0.355661
O O8 0.825630 0.946424 0.536385
O O9 0.449219 0.898437 0.750000
O O10 0.500000 0.000000 0.500000
#
# Coordination Sequence:
#
# PCOD8323338 Si02
#       4
#    12  12  12  12
#     4  12  25  45  71 103 148 190 238 296 378 441
#     4  12  23  42  71 104 132 178 250 292 351 431
#     4  12  26  45  66  99 143 187 235 297 366 434
#     4  12  21  44  74 106 140 188 241 308 365 435
#
# _framework density 22.889526
#
# number of rings (size 3 to 8) (size 9 to 14) (size 15 to 20)
#    0.000    0.000    7.500    3.500    0.000    0.000 
#    0.000    3.750    0.000    0.000    0.000    0.000 
#    0.000    0.000    0.000    0.000    0.000    0.000 
#
# Total GULP energy -595041.634721 kJ/mol
# GULP energy per Si atom -12396.700723 kJ/mol
# Density = 2.283743 g / cm^3
# Si number density = 22.889526 Si / 1000 Ang^3
#
#
#
# Elastic Constant Matrix: (Units=GPa)
#
#
# Indices 1 2 3 4 5 6 
#
# 1 83.7287 42.1726 47.0391 -0.0001 2.3689 0.0000
# 2 42.1726 83.7287 47.0391 0.0001 -2.3689 0.0000
# 3 47.0391 47.0391 185.3234 0.0000 0.0000 0.0000
# 4 -0.0001 0.0001 0.0000 40.0573 0.0000 -2.3689
# 5 2.3689 -2.3689 0.0000 0.0000 40.0573 -0.0001
# 6 0.0000 0.0000 0.0000 -2.3689 -0.0001 20.7780
#
#
#
# Elastic Compliance Matrix: (Units=1/GPa)
#
#
# Indices 1 2 3 4 5 6 
#
# 1 0.017015 -0.007213 -0.002488 0.000000 -0.001433 0.000000
# 2 -0.007213 0.017015 -0.002488 0.000000 0.001433 0.000000
# 3 -0.002488 -0.002488 0.006659 0.000000 0.000000 0.000000
# 4 0.000000 0.000000 0.000000 0.025134 0.000000 0.002865
# 5 -0.001433 0.001433 0.000000 0.000000 0.025134 0.000000
# 6 0.000000 0.000000 0.000000 0.002865 0.000000 0.048454
#
#
# Mechanical properties :
#
#
# Convention : Reuss Voigt Hill
#
# Bulk Modulus (GPa) = 61.30872 69.47582 65.39227
# Shear Modulus (GPa) = 29.54665 34.61384 32.08024
#
# Velocity S-wave (km/s) = 3.59672 3.89294 3.74776
# Velocity P-wave (km/s) = 6.64013 7.11514 6.88173
#
# Compressibility (1/GPa) = 0.01631089
#
# Stress axis : x y z
#
# Youngs Moduli (GPa) = 58.77335 58.77335 150.17402
#
# Poissons Ratio (x) = 0.42392 0.37362
# Poissons Ratio (y) = 0.42392 0.37362
# Poissons Ratio (z) = 0.14622 0.14622
#
# Static dielectric constant tensor:
#      x y z
#    x 4.131230 0.000000 0.000000 
#    y 0.000000 4.131230 0.000000 
#    z 0.000000 0.000000 4.494220 
# 
# 
# High freq. dielectric constant tensor:
#      x y z
#    x 1.894540 0.000000 0.000000 
#    y 0.000000 1.894540 0.000000 
#    z 0.000000 0.000000 1.927310 
# 
# From -- ./inp_files/862.got.cif
#   From: 2010.03.12/outbox.cif.g09.slc.cpg/sg163_1_cif.got.tgz:862.got - 2010.04.02 06:30:25.
