data_PCOD8323819
_publ_section_title
;
Structure prediction by ZEFSAII (Michael W. Deem and Ramdas Pophale) SiO2 
 PCOD8323819
Probable space group: P -3 M 1
;
_chemical_formula_sum "Si O2"
_cell_formula_units_Z 48
_cell_length_a 17.002527
_cell_length_b 17.002527
_cell_length_c 10.166039
_cell_angle_alpha 90.000000
_cell_angle_beta 90.000000
_cell_angle_gamma 120.000000
_cell_volume 2545.126363
_symmetry_space_group_name_H-M "P -3 M 1"
_symmetry_group_IT_number 164
_symmetry_cell_setting 'hexagonal'
loop_
_space_group_symop_operation_xyz
x,y,z
-y,x-y,z
-x+y,-x,z
x-y,-y,-z
-x,-x+y,-z
y,x,-z
-x,-y,-z
y,-x+y,-z
x-y,x,-z
-x+y,y,z
x,x-y,z
-y,-x,z
loop_
_atom_site_type_symbol
_atom_site_label
_atom_site_fract_x
_atom_site_fract_y
_atom_site_fract_z
Si Si1 0.311572 0.066486 0.882117
Si Si2 0.824266 0.823913 0.645261
Si Si3 0.424513 0.393679 0.703360
Si Si4 0.518489 0.852527 0.549544
O O1 0.336277 0.168139 0.921452
O O2 0.256187 0.035076 0.747591
O O3 0.399349 0.059434 0.842561
O O4 0.255275 0.000000 0.000000
O O5 0.784593 0.784593 0.500000
O O6 0.932801 0.865601 0.641440
O O7 0.803027 0.901514 0.689325
O O8 0.514273 0.485728 0.734857
O O9 0.348144 0.418194 0.655094
O O10 0.444211 0.336745 0.594773
O O11 0.413963 0.827926 0.563553
O O12 0.526163 0.763082 0.574254
#
# Coordination Sequence:
#
# PCOD8323819 Si02
#       4
#    12  12  12  12
#     4  11  23  37  54  79 109 143 184 226 269 319
#     4   9  18  32  51  75 104 139 178 219 264 314
#     4   9  20  36  53  78 108 142 181 222 272 329
#     4   9  17  31  54  83 113 142 176 220 272 327
#
# _framework density 18.859575
#
# number of rings (size 3 to 8) (size 9 to 14) (size 15 to 20)
#    0.000    2.500    0.000    3.500    3.500    3.500 
#    0.000    0.000    0.000    4.500    0.000    1.750 
#    0.000    0.000    0.000    0.000    0.000    0.000 
#
# Total GULP energy -595012.983107 kJ/mol
# GULP energy per Si atom -12396.103815 kJ/mol
# Density = 1.881665 g / cm^3
# Si number density = 18.859575 Si / 1000 Ang^3
#
#
#
# Elastic Constant Matrix: (Units=GPa)
#
#
# Indices 1 2 3 4 5 6 
#
# 1 98.3337 49.6618 35.3446 5.3325 0.0000 0.0000
# 2 49.6618 98.3337 35.3446 -5.3325 0.0000 0.0000
# 3 35.3446 35.3446 81.7593 0.0000 0.0000 0.0000
# 4 5.3325 -5.3325 0.0000 26.9729 0.0000 0.0000
# 5 0.0000 0.0000 0.0000 0.0000 26.9729 5.3325
# 6 0.0000 0.0000 0.0000 0.0000 5.3325 24.3359
#
#
#
# Elastic Compliance Matrix: (Units=1/GPa)
#
#
# Indices 1 2 3 4 5 6 
#
# 1 0.014996 -0.006480 -0.003681 -0.004246 0.000000 0.000000
# 2 -0.006480 0.014996 -0.003681 0.004246 0.000000 0.000000
# 3 -0.003681 -0.003681 0.015414 0.000000 0.000000 0.000000
# 4 -0.004246 0.004246 0.000000 0.038753 0.000000 0.000000
# 5 0.000000 0.000000 0.000000 0.000000 0.038753 -0.008491
# 6 0.000000 0.000000 0.000000 0.000000 -0.008491 0.042952
#
#
# Mechanical properties :
#
#
# Convention : Reuss Voigt Hill
#
# Bulk Modulus (GPa) = 56.43450 57.68095 57.05773
# Shear Modulus (GPa) = 25.06831 26.19474 25.63152
#
# Velocity S-wave (km/s) = 3.64979 3.73089 3.69056
# Velocity P-wave (km/s) = 6.91012 7.01500 6.96276
#
# Compressibility (1/GPa) = 0.01771966
#
# Stress axis : x y z
#
# Youngs Moduli (GPa) = 66.68600 66.68600 64.87714
#
# Poissons Ratio (x) = 0.43215 0.23882
# Poissons Ratio (y) = 0.43215 0.23882
# Poissons Ratio (z) = 0.24548 0.24548
#
# Static dielectric constant tensor:
#      x y z
#    x 3.503460 0.000000 0.000000 
#    y 0.000000 3.503460 0.000000 
#    z 0.000000 0.000000 3.293200 
# 
# 
# High freq. dielectric constant tensor:
#      x y z
#    x 1.735440 0.000000 0.000000 
#    y 0.000000 1.735440 0.000000 
#    z 0.000000 0.000000 1.709500 
# 
# From -- ./inp_files/1234.got.cif
#   From: 2010.03.12/outbox.cif.g09.slc.cpg/sg164_1_cif.got.tgz:1234.got - 2010.04.02 06:32:59.
