data_PCOD8323310
_publ_section_title
;
Structure prediction by ZEFSAII (Michael W. Deem and Ramdas Pophale) SiO2 
 PCOD8323310
Probable space group: P -3 1 C
;
_chemical_formula_sum "Si O2"
_cell_formula_units_Z 54
_cell_length_a 11.500443
_cell_length_b 11.500443
_cell_length_c 22.397878
_cell_angle_alpha 90.000000
_cell_angle_beta 90.000000
_cell_angle_gamma 120.000000
_cell_volume 2565.468261
_symmetry_space_group_name_H-M "P -3 1 C"
_symmetry_group_IT_number 163
_symmetry_cell_setting 'hexagonal'
loop_
_space_group_symop_operation_xyz
x,y,z
-y,x-y,z
-x+y,-x,z
-y,-x,1/2-z
-x+y,y,1/2-z
x,x-y,1/2-z
-x,-y,-z
y,-x+y,-z
x-y,x,-z
y,x,1/2+z
x-y,-y,1/2+z
-x,-x+y,1/2+z
loop_
_atom_site_type_symbol
_atom_site_label
_atom_site_fract_x
_atom_site_fract_y
_atom_site_fract_z
Si Si1 0.581013 0.162027 0.750000
Si Si2 0.465586 0.503230 0.642038
Si Si3 0.907982 0.587960 0.956572
Si Si4 0.000000 0.000000 0.429632
Si Si5 0.666667 0.333334 0.007420
Si Si6 0.275807 0.249092 0.574378
Si Si7 0.666668 0.333334 0.148676
O O1 0.743261 0.256740 0.750000
O O2 0.533324 0.075423 0.690652
O O3 0.563192 0.577234 0.586117
O O4 0.329806 0.372014 0.620172
O O5 0.420736 0.601942 0.672014
O O6 0.814564 0.441244 0.984689
O O7 0.818909 0.632321 0.918344
O O8 0.987886 0.701424 0.006127
O O9 0.877237 0.857740 0.407285
O O10 0.000000 0.000000 0.500000
O O11 0.666668 0.333334 0.077659
#
# Coordination Sequence:
#
# PCOD8323310 Si02
#       7
#     6  12  12   4   4  12   4
#     4  10  26  52  74  96 120 164 234 284 338 388
#     4  12  26  43  68  99 133 176 224 283 335 396
#     4  12  22  37  64  98 139 178 224 273 332 396
#     4  12  24  39  60  96 147 190 216 255 333 414
#     4  12  21  36  61 107 142 174 222 268 344 403
#     4  12  23  39  63  98 137 184 222 270 327 401
#     4  12  27  40  67 102 142 178 213 265 344 412
#
# _framework density 21.04879
#
# number of rings (size 3 to 8) (size 9 to 14) (size 15 to 20)
#    0.222    0.000    6.667    3.333    3.111    0.889 
#    0.000    0.000    0.000    0.000    0.000    0.000 
#    0.000    0.000    0.000    0.000    0.000    0.000 
#
# Total GULP energy -669901.004805 kJ/mol
# GULP energy per Si atom -12405.574163 kJ/mol
# Density = 2.100088 g / cm^3
# Si number density = 21.048790 Si / 1000 Ang^3
#
#
#
# Elastic Constant Matrix: (Units=GPa)
#
#
# Indices 1 2 3 4 5 6 
#
# 1 132.9525 51.5206 32.2915 -0.0002 -4.0966 -0.0001
# 2 51.5206 132.9522 32.2916 0.0002 4.0966 -0.0002
# 3 32.2915 32.2916 67.4141 -0.0004 -0.0002 0.0001
# 4 -0.0002 0.0002 -0.0004 23.4045 -0.0001 4.0967
# 5 -4.0966 4.0966 -0.0002 -0.0001 23.4046 0.0002
# 6 -0.0001 -0.0002 0.0001 4.0967 0.0002 40.7159
#
#
#
# Elastic Compliance Matrix: (Units=1/GPa)
#
#
# Indices 1 2 3 4 5 6 
#
# 1 0.009507 -0.002994 -0.003120 0.000000 0.002188 0.000000
# 2 -0.002994 0.009507 -0.003120 0.000000 -0.002188 0.000000
# 3 -0.003120 -0.003120 0.017822 0.000000 0.000000 0.000000
# 4 0.000000 0.000000 0.000000 0.043493 0.000000 -0.004376
# 5 0.002188 -0.002188 0.000000 0.000000 0.043493 0.000000
# 6 0.000000 0.000000 0.000000 -0.004376 0.000000 0.025001
#
#
# Mechanical properties :
#
#
# Convention : Reuss Voigt Hill
#
# Bulk Modulus (GPa) = 54.43811 62.83624 58.63717
# Shear Modulus (GPa) = 28.83311 31.98599 30.40955
#
# Velocity S-wave (km/s) = 3.70513 3.90245 3.80507
# Velocity P-wave (km/s) = 6.65003 7.08681 6.87189
#
# Compressibility (1/GPa) = 0.01836949
#
# Stress axis : x y z
#
# Youngs Moduli (GPa) = 105.18904 105.18863 56.10893
#
# Poissons Ratio (x) = 0.31490 0.17505
# Poissons Ratio (y) = 0.31490 0.17505
# Poissons Ratio (z) = 0.32816 0.32817
#
# Static dielectric constant tensor:
#      x y z
#    x 4.135140 -0.000010 0.000000 
#    y -0.000010 4.135130 0.000000 
#    z 0.000000 0.000000 3.369110 
# 
# 
# High freq. dielectric constant tensor:
#      x y z
#    x 1.840800 0.000000 0.000000 
#    y 0.000000 1.840800 0.000000 
#    z 0.000000 0.000000 1.777080 
# 
# From -- ./inp_files/3862.got.cif
#   From: 2010.03.12/outbox.cif.g09.slc.cpg/sg163_2_cif.got.tgz:3862.got - 2010.04.02 06:30:25.
