data_PCOD8323052
_publ_section_title
;
Structure prediction by ZEFSAII (Michael W. Deem and Ramdas Pophale) SiO2 
 PCOD8323052
Probable space group: P -3 1 M 
;
_chemical_formula_sum "Si O2"
_cell_formula_units_Z 60
_cell_length_a 17.738855
_cell_length_b 17.738855
_cell_length_c 12.644441
_cell_angle_alpha 90.000000
_cell_angle_beta 90.000000
_cell_angle_gamma 120.000000
_cell_volume 3445.731503
_symmetry_space_group_name_H-M "P -3 1 M "
_symmetry_group_IT_number 162
_symmetry_cell_setting 'hexagonal'
loop_
_space_group_symop_operation_xyz
x,y,z
-y,x-y,z
-x+y,-x,z
-y,-x,-z
-x+y,y,-z
x,x-y,-z
-x,-y,-z
y,-x+y,-z
x-y,x,-z
y,x,z
x-y,-y,z
-x,-x+y,z
loop_
_atom_site_type_symbol
_atom_site_label
_atom_site_fract_x
_atom_site_fract_y
_atom_site_fract_z
Si Si1 0.333355 0.839438 0.120532
Si Si2 0.506083 0.666645 0.879469
Si Si3 0.102668 0.467590 0.500000
Si Si4 0.267133 0.901568 0.696299
Si Si5 0.901568 0.267133 0.303702
O O1 0.261569 0.738431 0.135329
O O2 0.425953 0.851906 0.154120
O O3 0.311822 0.899744 0.193964
O O4 0.335262 0.869534 0.000000
O O5 0.587923 0.688179 0.806037
O O6 0.145237 0.572619 0.500000
O O7 0.132516 0.437605 0.603928
O O8 0.132517 0.437605 0.396073
O O9 0.000000 0.424573 0.500000
O O10 0.162773 0.837227 0.700812
O O11 0.287380 0.000000 0.676029
O O12 0.000000 0.287381 0.323971
#
# Coordination Sequence:
#
# PCOD8323052 Si02
#       5
#    12  12  12  12  12
#     4   9  17  29  46  69  97 127 156 186 223 270
#     4   9  17  29  46  69  97 127 156 186 223 270
#     4   9  17  30  49  72  96 120 146 177 215 264
#     4  10  20  33  49  69  93 122 157 197 239 279
#     4  10  20  33  49  69  93 122 157 197 239 279
#
# _framework density 17.412848
#
# number of rings (size 3 to 8) (size 9 to 14) (size 15 to 20)
#    0.000    2.600    0.000    2.200    0.000    4.800 
#    0.000    2.000    0.000    6.000    0.000    0.000 
#    0.000    4.800    0.000   10.000    0.000    0.000 
#
# Total GULP energy -743934.514377 kJ/mol
# GULP energy per Si atom -12398.908573 kJ/mol
# Density = 1.737322 g / cm^3
# Si number density = 17.412848 Si / 1000 Ang^3
#
#
#
# Elastic Constant Matrix: (Units=GPa)
#
#
# Indices 1 2 3 4 5 6 
#
# 1 82.9446 51.2795 32.4078 0.0000 0.0000 0.0000
# 2 51.2795 82.9446 32.4078 0.0000 0.0000 0.0000
# 3 32.4078 32.4078 91.2689 0.0000 0.0000 0.0000
# 4 0.0000 0.0000 0.0000 21.5366 0.0000 0.0000
# 5 0.0000 0.0000 0.0000 0.0000 21.5366 0.0000
# 6 0.0000 0.0000 0.0000 0.0000 0.0000 15.8325
#
#
#
# Elastic Compliance Matrix: (Units=1/GPa)
#
#
# Indices 1 2 3 4 5 6 
#
# 1 0.020286 -0.011294 -0.003193 0.000000 0.000000 0.000000
# 2 -0.011294 0.020286 -0.003193 0.000000 0.000000 0.000000
# 3 -0.003193 -0.003193 0.013224 0.000000 0.000000 0.000000
# 4 0.000000 0.000000 0.000000 0.046433 0.000000 0.000000
# 5 0.000000 0.000000 0.000000 0.000000 0.046433 0.000000
# 6 0.000000 0.000000 0.000000 0.000000 0.000000 0.063161
#
#
# Mechanical properties :
#
#
# Convention : Reuss Voigt Hill
#
# Bulk Modulus (GPa) = 54.23990 54.37201 54.30595
# Shear Modulus (GPa) = 19.89427 21.18535 20.53981
#
# Velocity S-wave (km/s) = 3.38376 3.49184 3.43822
# Velocity P-wave (km/s) = 6.81788 6.89567 6.85688
#
# Compressibility (1/GPa) = 0.01843661
#
# Stress axis : x y z
#
# Youngs Moduli (GPa) = 49.29434 49.29434 75.61949
#
# Poissons Ratio (x) = 0.55674 0.24145
# Poissons Ratio (y) = 0.55674 0.24145
# Poissons Ratio (z) = 0.15739 0.15739
#
# Static dielectric constant tensor:
#      x y z
#    x 3.026270 0.000000 0.000000 
#    y 0.000000 3.026270 0.000000 
#    z 0.000000 0.000000 3.456230 
# 
# 
# High freq. dielectric constant tensor:
#      x y z
#    x 1.647550 0.000000 0.000000 
#    y 0.000000 1.647550 0.000000 
#    z 0.000000 0.000000 1.690610 
# 
# From -- ./inp_files/2299.got.cif
#   From: 2010.03.12/outbox.cif.g09.slc.cpg/sg162_2_cif.got.tgz:2299.got - 2010.04.02 06:27:41.
