data_PCOD8323048
_publ_section_title
;
Structure prediction by ZEFSAII (Michael W. Deem and Ramdas Pophale) SiO2 
 PCOD8323048
Probable space group: P -3 1 M 
;
_chemical_formula_sum "Si O2"
_cell_formula_units_Z 48
_cell_length_a 20.638257
_cell_length_b 20.638257
_cell_length_c 7.844464
_cell_angle_alpha 90.000000
_cell_angle_beta 90.000000
_cell_angle_gamma 120.000000
_cell_volume 2893.609612
_symmetry_space_group_name_H-M "P -3 1 M "
_symmetry_group_IT_number 162
_symmetry_cell_setting 'hexagonal'
loop_
_space_group_symop_operation_xyz
x,y,z
-y,x-y,z
-x+y,-x,z
-y,-x,-z
-x+y,y,-z
x,x-y,-z
-x,-y,-z
y,-x+y,-z
x-y,x,-z
y,x,z
x-y,-y,z
-x,-x+y,z
loop_
_atom_site_type_symbol
_atom_site_label
_atom_site_fract_x
_atom_site_fract_y
_atom_site_fract_z
Si Si1 0.088393 0.407561 0.187110
Si Si2 0.592441 0.911607 0.187104
Si Si3 0.087907 0.317341 0.500002
Si Si4 0.910815 0.455409 0.307176
O O1 0.112760 0.370207 0.333786
O O2 0.121673 0.496181 0.217999
O O3 0.000000 0.368981 0.193711
O O4 0.115279 0.396548 0.000004
O O5 0.629798 0.887242 0.333775
O O6 0.503820 0.878326 0.218001
O O7 0.631018 0.000000 0.193698
O O8 0.138671 0.277342 0.500000
O O9 0.000000 0.254651 0.499998
O O10 0.882548 0.441274 0.500000
O O11 0.000000 0.500002 0.298905
#
# Coordination Sequence:
#
# PCOD8323048 Si02
#       4
#    12  12  12  12
#     4   9  16  26  42  65  93 122 147 175 217 270
#     4   9  16  26  42  65  93 122 147 175 217 270
#     4  10  20  33  47  64  89 121 157 201 254 310
#     4   9  13  21  39  64  95 125 146 165 197 248
#
# _framework density 16.588277999999999
#
# number of rings (size 3 to 8) (size 9 to 14) (size 15 to 20)
#    0.000    2.750    2.500    0.750    0.000    4.000 
#    0.000    0.000    0.000    0.250    0.000    0.000 
#   10.000    0.000    3.000   12.500    0.000    0.000 
#
# Total GULP energy -594657.465458 kJ/mol
# GULP energy per Si atom -12388.697197 kJ/mol
# Density = 1.655052 g / cm^3
# Si number density = 16.588278 Si / 1000 Ang^3
#
#
#
# Elastic Constant Matrix: (Units=GPa)
#
#
# Indices 1 2 3 4 5 6 
#
# 1 62.5203 36.9605 30.6650 0.0000 0.0000 0.0000
# 2 36.9605 62.5203 30.6650 0.0000 0.0000 0.0000
# 3 30.6650 30.6650 144.9259 0.0000 0.0000 0.0000
# 4 0.0000 0.0000 0.0000 3.5982 0.0000 0.0000
# 5 0.0000 0.0000 0.0000 0.0000 3.5982 0.0000
# 6 0.0000 0.0000 0.0000 0.0000 0.0000 12.7799
#
#
#
# Elastic Compliance Matrix: (Units=1/GPa)
#
#
# Indices 1 2 3 4 5 6 
#
# 1 0.025342 -0.013782 -0.002446 0.000000 0.000000 0.000000
# 2 -0.013782 0.025342 -0.002446 0.000000 0.000000 0.000000
# 3 -0.002446 -0.002446 0.007935 0.000000 0.000000 0.000000
# 4 0.000000 0.000000 0.000000 0.277914 0.000000 -0.000001
# 5 0.000000 0.000000 0.000000 0.000000 0.277914 0.000000
# 6 0.000000 0.000000 0.000000 -0.000001 0.000000 0.078248
#
#
# Mechanical properties :
#
#
# Convention : Reuss Voigt Hill
#
# Bulk Modulus (GPa) = 47.01144 51.83862 49.42503
# Shear Modulus (GPa) = 6.78303 15.44035 11.11169
#
# Velocity S-wave (km/s) = 2.02433 3.05421 2.59096
# Velocity P-wave (km/s) = 5.81941 6.61480 6.22981
#
# Compressibility (1/GPa) = 0.02127142
#
# Stress axis : x y z
#
# Youngs Moduli (GPa) = 39.46020 39.46020 126.02082
#
# Poissons Ratio (x) = 0.54383 0.30825
# Poissons Ratio (y) = 0.54383 0.30825
# Poissons Ratio (z) = 0.09652 0.09652
#
# Static dielectric constant tensor:
#      x y z
#    x 2.729820 0.000000 0.000000 
#    y 0.000000 2.729820 0.000000 
#    z 0.000000 0.000000 3.615580 
# 
# 
# High freq. dielectric constant tensor:
#      x y z
#    x 1.590950 0.000000 0.000000 
#    y 0.000000 1.590950 0.000000 
#    z 0.000000 0.000000 1.665020 
# 
# From -- ./inp_files/1363.got.cif
#   From: 2010.03.12/outbox.cif.g09.slc.cpg/sg162_1_cif.got.tgz:1363.got - 2010.04.02 06:27:41.
