data_PCOD8323580
_publ_section_title
;
Structure prediction by ZEFSAII (Michael W. Deem and Ramdas Pophale) SiO2 
 PCOD8323580
Probable space group: P -3 M 1
;
_chemical_formula_sum "Si O2"
_cell_formula_units_Z 66
_cell_length_a 20.965944
_cell_length_b 20.965944
_cell_length_c 10.093068
_cell_angle_alpha 90.000000
_cell_angle_beta 90.000000
_cell_angle_gamma 120.000000
_cell_volume 3842.223942
_symmetry_space_group_name_H-M "P -3 M 1"
_symmetry_group_IT_number 164
_symmetry_cell_setting 'hexagonal'
loop_
_space_group_symop_operation_xyz
x,y,z
-y,x-y,z
-x+y,-x,z
x-y,-y,-z
-x,-x+y,-z
y,x,-z
-x,-y,-z
y,-x+y,-z
x-y,x,-z
-x+y,y,z
x,x-y,z
-y,-x,z
loop_
_atom_site_type_symbol
_atom_site_label
_atom_site_fract_x
_atom_site_fract_y
_atom_site_fract_z
Si Si1 0.380862 0.043111 0.635638
Si Si2 0.284379 0.068505 0.815401
Si Si3 0.848932 0.000000 0.000000
Si Si4 0.332236 0.816132 0.283754
Si Si5 0.408598 0.451006 0.861251
Si Si6 0.858415 0.284755 0.977447
O O1 0.304500 0.038815 0.683008
O O2 0.449173 0.126884 0.620607
O O3 0.365552 0.000000 0.500000
O O4 0.407701 0.006541 0.743600
O O5 0.291474 0.145737 0.777232
O O6 0.346121 0.080627 0.923450
O O7 0.202801 0.012804 0.871915
O O8 0.928700 0.071301 0.027631
O O9 0.410035 0.820070 0.307837
O O10 0.266030 0.733971 0.314764
O O11 0.327867 0.838493 0.132462
O O12 0.465951 0.534050 0.820956
O O13 0.329844 0.443991 0.886195
O O14 0.429722 0.429722 0.000000
O O15 0.788154 0.211847 0.024841
#
# Coordination Sequence:
#
# PCOD8323580 Si02
#       6
#    12  12   6  12  12  12
#     4  11  22  35  52  76 108 139 177 222 266 311
#     4   9  17  32  52  74 103 138 171 212 262 310
#     4  10  19  32  54  84 115 144 176 216 264 320
#     4  10  19  33  53  77 104 135 172 214 262 317
#     4  11  19  30  51  75 101 133 172 214 262 320
#     4   9  17  30  50  75 102 130 169 216 262 313
#
# _framework density 17.177551000000001
#
# number of rings (size 3 to 8) (size 9 to 14) (size 15 to 20)
#    0.000    2.000    3.636    4.091    0.000    1.455 
#    0.000    3.636    0.000    0.364    0.000    0.000 
#    0.000    3.636    0.000    0.000    0.000    0.000 
#
# Total GULP energy -818016.808411 kJ/mol
# GULP energy per Si atom -12394.194067 kJ/mol
# Density = 1.713845 g / cm^3
# Si number density = 17.177551 Si / 1000 Ang^3
#
#
#
# Elastic Constant Matrix: (Units=GPa)
#
#
# Indices 1 2 3 4 5 6 
#
# 1 109.2361 41.1310 35.1073 12.9100 0.0000 0.0000
# 2 41.1310 109.2361 35.1073 -12.9100 0.0000 0.0000
# 3 35.1073 35.1073 62.1774 0.0000 0.0000 0.0000
# 4 12.9100 -12.9100 0.0000 55.0445 0.0000 0.0000
# 5 0.0000 0.0000 0.0000 0.0000 55.0445 12.9100
# 6 0.0000 0.0000 0.0000 0.0000 12.9100 34.0525
#
#
#
# Elastic Compliance Matrix: (Units=1/GPa)
#
#
# Indices 1 2 3 4 5 6 
#
# 1 0.012574 -0.003542 -0.005100 -0.003780 0.000000 0.000000
# 2 -0.003542 0.012574 -0.005100 0.003780 0.000000 0.000000
# 3 -0.005100 -0.005100 0.021842 0.000000 0.000000 0.000000
# 4 -0.003780 0.003780 0.000000 0.019940 0.000000 0.000000
# 5 0.000000 0.000000 0.000000 0.000000 0.019940 -0.007560
# 6 0.000000 0.000000 0.000000 0.000000 -0.007560 0.032232
#
#
# Mechanical properties :
#
#
# Convention : Reuss Voigt Hill
#
# Bulk Modulus (GPa) = 51.26408 55.92676 53.59542
# Shear Modulus (GPa) = 32.66105 40.11523 36.38814
#
# Velocity S-wave (km/s) = 4.36521 4.83777 4.60755
# Velocity P-wave (km/s) = 7.43742 7.98962 7.71846
#
# Compressibility (1/GPa) = 0.01950684
#
# Stress axis : x y z
#
# Youngs Moduli (GPa) = 79.52954 79.52954 45.78387
#
# Poissons Ratio (x) = 0.28172 0.23348
# Poissons Ratio (y) = 0.28172 0.23348
# Poissons Ratio (z) = 0.40557 0.40557
#
# Static dielectric constant tensor:
#      x y z
#    x 3.465180 0.000000 0.000000 
#    y 0.000000 3.465180 0.000000 
#    z 0.000000 0.000000 3.699500 
# 
# 
# High freq. dielectric constant tensor:
#      x y z
#    x 1.671650 0.000000 0.000000 
#    y 0.000000 1.671650 0.000000 
#    z 0.000000 0.000000 1.612440 
# 
# From -- ./inp_files/1705.got.cif
#   From: 2010.03.12/outbox.cif.g09.slc.cpg/sg164_1_cif.got.tgz:1705.got - 2010.04.02 06:32:59.
