data_PCOD8323566
_publ_section_title
;
Structure prediction by ZEFSAII (Michael W. Deem and Ramdas Pophale) SiO2 
 PCOD8323566
Probable space group: P -3 M 1
;
_chemical_formula_sum "Si O2"
_cell_formula_units_Z 60
_cell_length_a 16.269203
_cell_length_b 16.269203
_cell_length_c 15.117760
_cell_angle_alpha 90.000000
_cell_angle_beta 90.000000
_cell_angle_gamma 120.000000
_cell_volume 3465.378163
_symmetry_space_group_name_H-M "P -3 M 1"
_symmetry_group_IT_number 164
_symmetry_cell_setting 'hexagonal'
loop_
_space_group_symop_operation_xyz
x,y,z
-y,x-y,z
-x+y,-x,z
x-y,-y,-z
-x,-x+y,-z
y,x,-z
-x,-y,-z
y,-x+y,-z
x-y,x,-z
-x+y,y,z
x,x-y,z
-y,-x,z
loop_
_atom_site_type_symbol
_atom_site_label
_atom_site_fract_x
_atom_site_fract_y
_atom_site_fract_z
Si Si1 0.337032 0.367028 0.863494
Si Si2 0.754102 0.058971 0.413209
Si Si3 0.334269 0.854201 0.703506
Si Si4 0.808462 0.808478 0.759252
Si Si5 0.332417 0.475224 0.030646
O O1 0.369854 0.441534 0.783722
O O2 0.246625 0.267197 0.836382
O O3 0.425903 0.352926 0.886491
O O4 0.306264 0.407120 0.946183
O O5 0.859530 0.140471 0.437903
O O6 0.690393 0.103518 0.381715
O O7 0.705645 0.000000 0.500000
O O8 0.759875 0.994302 0.335357
O O9 0.415993 0.831985 0.675505
O O10 0.241614 0.758387 0.735757
O O11 0.901698 0.803395 0.779683
O O12 0.834175 0.917088 0.758850
O O13 0.245735 0.491470 0.054853
O O14 0.424501 0.575500 0.009131
#
# Coordination Sequence:
#
# PCOD8323566 Si02
#       5
#    12  12  12  12  12
#     4  10  20  34  50  71  97 129 159 193 238 287
#     4   9  18  31  48  70  96 125 157 193 234 282
#     4  10  19  32  50  72  97 124 158 198 239 281
#     4  10  19  32  50  72  98 127 161 198 237 280
#     4  11  21  34  52  73  97 124 159 199 239 281
#
# _framework density 17.314128
#
# number of rings (size 3 to 8) (size 9 to 14) (size 15 to 20)
#    0.000    2.000    0.000    7.200    0.000    0.400 
#    0.000    2.000    0.000    3.200    0.000    7.000 
#    0.000   12.800    0.000    0.000    0.000    0.000 
#
# Total GULP energy -744143.222465 kJ/mol
# GULP energy per Si atom -12402.387041 kJ/mol
# Density = 1.727472 g / cm^3
# Si number density = 17.314128 Si / 1000 Ang^3
#
#
#
# Elastic Constant Matrix: (Units=GPa)
#
#
# Indices 1 2 3 4 5 6 
#
# 1 113.4460 54.9979 48.9652 1.5783 0.0000 0.0000
# 2 54.9979 113.4460 48.9652 -1.5783 0.0000 0.0000
# 3 48.9652 48.9652 89.2091 0.0000 0.0000 0.0000
# 4 1.5783 -1.5783 0.0000 17.6004 0.0000 0.0000
# 5 0.0000 0.0000 0.0000 0.0000 17.6004 1.5783
# 6 0.0000 0.0000 0.0000 0.0000 1.5783 29.2240
#
#
#
# Elastic Compliance Matrix: (Units=1/GPa)
#
#
# Indices 1 2 3 4 5 6 
#
# 1 0.012956 -0.004237 -0.004786 -0.001542 0.000000 0.000000
# 2 -0.004237 0.012956 -0.004786 0.001542 0.000000 0.000000
# 3 -0.004786 -0.004786 0.016463 0.000000 0.000000 0.000000
# 4 -0.001542 0.001542 0.000000 0.057093 0.000000 0.000000
# 5 0.000000 0.000000 0.000000 0.000000 0.057093 -0.003083
# 6 0.000000 0.000000 0.000000 0.000000 -0.003083 0.034385
#
#
# Mechanical properties :
#
#
# Convention : Reuss Voigt Hill
#
# Bulk Modulus (GPa) = 67.75801 69.10642 68.43222
# Shear Modulus (GPa) = 22.37314 23.76314 23.06814
#
# Velocity S-wave (km/s) = 3.59860 3.70871 3.65407
# Velocity P-wave (km/s) = 7.51572 7.63802 7.57712
#
# Compressibility (1/GPa) = 0.01475840
#
# Stress axis : x y z
#
# Youngs Moduli (GPa) = 77.18583 77.18583 60.74151
#
# Poissons Ratio (x) = 0.32701 0.29069
# Poissons Ratio (y) = 0.32701 0.29069
# Poissons Ratio (z) = 0.36939 0.36939
#
# Static dielectric constant tensor:
#      x y z
#    x 3.232850 0.000000 0.000000 
#    y 0.000000 3.232850 0.000000 
#    z 0.000000 0.000000 3.068990 
# 
# 
# High freq. dielectric constant tensor:
#      x y z
#    x 1.673150 0.000000 0.000000 
#    y 0.000000 1.673150 0.000000 
#    z 0.000000 0.000000 1.655800 
# 
# From -- ./inp_files/3318.got.cif
#   From: 2010.03.12/outbox.cif.g09.slc.cpg/sg164_2_cif.got.tgz:3318.got - 2010.04.02 06:32:59.
