data_PCOD8323492
_publ_section_title
;
Structure prediction by ZEFSAII (Michael W. Deem and Ramdas Pophale) SiO2 
 PCOD8323492
Probable space group: P -3 M 1
;
_chemical_formula_sum "Si O2"
_cell_formula_units_Z 66
_cell_length_a 17.365263
_cell_length_b 17.365263
_cell_length_c 15.647631
_cell_angle_alpha 90.000000
_cell_angle_beta 90.000000
_cell_angle_gamma 120.000000
_cell_volume 4086.410186
_symmetry_space_group_name_H-M "P -3 M 1"
_symmetry_group_IT_number 164
_symmetry_cell_setting 'hexagonal'
loop_
_space_group_symop_operation_xyz
x,y,z
-y,x-y,z
-x+y,-x,z
x-y,-y,-z
-x,-x+y,-z
y,x,-z
-x,-y,-z
y,-x+y,-z
x-y,x,-z
-x+y,y,z
x,x-y,z
-y,-x,z
loop_
_atom_site_type_symbol
_atom_site_label
_atom_site_fract_x
_atom_site_fract_y
_atom_site_fract_z
Si Si1 0.488954 0.155840 0.393785
Si Si2 0.412760 0.001919 0.096981
Si Si3 0.269749 0.363601 0.765477
Si Si4 0.652274 0.000000 0.500000
Si Si5 0.666752 0.509159 0.779059
Si Si6 0.248780 0.926206 0.331095
O O1 0.590793 0.181585 0.385344
O O2 0.484512 0.242256 0.423955
O O3 0.442292 0.121828 0.302600
O O4 0.440210 0.077835 0.462889
O O5 0.517196 0.034392 0.101041
O O6 0.355092 0.904481 0.138095
O O7 0.396200 0.072770 0.146659
O O8 0.382047 0.000000 0.000000
O O9 0.170604 0.341207 0.783894
O O10 0.263209 0.272948 0.730359
O O11 0.687140 0.958554 0.428336
O O12 0.746354 0.492708 0.805789
O O13 0.582609 0.417392 0.749207
O O14 0.692425 0.574750 0.698220
O O15 0.144078 0.855923 0.322720
#
# Coordination Sequence:
#
# PCOD8323492 Si02
#       6
#    12  12  12   6  12  12
#     4  10  19  30  44  63  89 120 153 187 222 259
#     4   9  17  29  45  66  93 122 149 180 219 259
#     4   9  18  31  48  68  88 115 150 184 219 261
#     4  10  19  30  46  66  87 116 152 186 221 262
#     4   9  17  29  45  65  89 118 150 182 217 257
#     4   9  18  32  48  66  89 115 145 182 223 264
#
# _framework density 16.151094000000001
#
# number of rings (size 3 to 8) (size 9 to 14) (size 15 to 20)
#    0.000    2.727    0.000    1.727    0.000    6.545 
#    0.000    0.000    0.000    2.909    0.000    0.636 
#    0.000    0.727    0.000    0.000    0.000    0.000 
#
# Total GULP energy -818469.965981 kJ/mol
# GULP energy per Si atom -12401.060091 kJ/mol
# Density = 1.611433 g / cm^3
# Si number density = 16.151094 Si / 1000 Ang^3
#
#
#
# Elastic Constant Matrix: (Units=GPa)
#
#
# Indices 1 2 3 4 5 6 
#
# 1 107.5102 61.1057 47.9834 -1.9312 0.0000 0.0000
# 2 61.1057 107.5102 47.9834 1.9312 0.0000 0.0000
# 3 47.9834 47.9834 111.4298 0.0000 0.0000 0.0000
# 4 -1.9312 1.9312 0.0000 17.9016 0.0000 0.0000
# 5 0.0000 0.0000 0.0000 0.0000 17.9016 -1.9312
# 6 0.0000 0.0000 0.0000 0.0000 -1.9312 23.2023
#
#
#
# Elastic Compliance Matrix: (Units=1/GPa)
#
#
# Indices 1 2 3 4 5 6 
#
# 1 0.014800 -0.006944 -0.003383 0.002346 0.000000 0.000000
# 2 -0.006944 0.014800 -0.003383 -0.002346 0.000000 0.000000
# 3 -0.003383 -0.003383 0.011888 0.000000 0.000000 0.000000
# 4 0.002346 -0.002346 0.000000 0.056367 0.000000 0.000000
# 5 0.000000 0.000000 0.000000 0.000000 0.056367 0.004692
# 6 0.000000 0.000000 0.000000 0.000000 0.004692 0.043490
#
#
# Mechanical properties :
#
#
# Convention : Reuss Voigt Hill
#
# Bulk Modulus (GPa) = 71.08292 71.17724 71.13008
# Shear Modulus (GPa) = 21.75596 23.09295 22.42445
#
# Velocity S-wave (km/s) = 3.67417 3.78538 3.73019
# Velocity P-wave (km/s) = 7.88074 7.95429 7.91760
#
# Compressibility (1/GPa) = 0.01406808
#
# Stress axis : x y z
#
# Youngs Moduli (GPa) = 67.56554 67.56554 84.12032
#
# Poissons Ratio (x) = 0.46920 0.28457
# Poissons Ratio (y) = 0.46920 0.28457
# Poissons Ratio (z) = 0.22857 0.22857
#
# Static dielectric constant tensor:
#      x y z
#    x 3.046040 0.000000 0.000000 
#    y 0.000000 3.046040 0.000000 
#    z 0.000000 0.000000 3.018180 
# 
# 
# High freq. dielectric constant tensor:
#      x y z
#    x 1.613420 0.000000 0.000000 
#    y 0.000000 1.613420 0.000000 
#    z 0.000000 0.000000 1.618040 
# 
# From -- ./inp_files/3458.got.cif
#   From: 2010.03.12/outbox.cif.g09.slc.cpg/sg164_2_cif.got.tgz:3458.got - 2010.04.02 06:32:59.
