data_PCOD8323707
_publ_section_title
;
Structure prediction by ZEFSAII (Michael W. Deem and Ramdas Pophale) SiO2 
 PCOD8323707
Probable space group: P -3 M 1
;
_chemical_formula_sum "Si O2"
_cell_formula_units_Z 66
_cell_length_a 12.616149
_cell_length_b 12.616149
_cell_length_c 27.908631
_cell_angle_alpha 90.000000
_cell_angle_beta 90.000000
_cell_angle_gamma 120.000000
_cell_volume 3847.005297
_symmetry_space_group_name_H-M "P -3 M 1"
_symmetry_group_IT_number 164
_symmetry_cell_setting 'hexagonal'
loop_
_space_group_symop_operation_xyz
x,y,z
-y,x-y,z
-x+y,-x,z
x-y,-y,-z
-x,-x+y,-z
y,x,-z
-x,-y,-z
y,-x+y,-z
x-y,x,-z
-x+y,y,z
x,x-y,z
-y,-x,z
loop_
_atom_site_type_symbol
_atom_site_label
_atom_site_fract_x
_atom_site_fract_y
_atom_site_fract_z
Si Si1 0.000000 0.247989 0.000000
Si Si2 0.579434 0.665496 0.633701
Si Si3 0.333464 0.423363 0.172922
Si Si4 0.084217 0.664955 0.455488
Si Si5 0.419572 0.333044 0.088519
Si Si6 0.910927 0.333548 0.717909
O O1 0.988911 0.315509 0.046472
O O2 0.116007 0.232013 0.007324
O O3 0.592155 0.796078 0.625656
O O4 0.436723 0.563278 0.631664
O O5 0.654434 0.642417 0.592939
O O6 0.638506 0.664236 0.684705
O O7 0.204460 0.408919 0.158392
O O8 0.435070 0.564931 0.166002
O O9 0.360313 0.337253 0.138980
O O10 0.332668 0.381294 0.227450
O O11 0.122121 0.561061 0.458354
O O12 0.205070 0.794931 0.456905
O O13 0.000000 0.655155 0.500000
O O14 0.449326 0.224663 0.091040
O O15 0.543761 0.456240 0.077689
O O16 0.872282 0.436141 0.709988
O O17 0.795401 0.204600 0.703466
#
# Coordination Sequence:
#
# PCOD8323707 Si02
#       6
#     6  12  12  12  12  12
#     4  10  20  34  52  72  94 122 158 200 242 284
#     4  10  20  33  50  72  99 131 165 202 243 287
#     4   9  17  30  49  73  98 124 156 195 240 286
#     4  10  20  34  54  78 102 128 159 198 242 287
#     4  10  20  33  49  70  97 128 160 194 235 284
#     4   9  17  30  50  74  98 124 156 198 244 287
#
# _framework density 17.156202
#
# number of rings (size 3 to 8) (size 9 to 14) (size 15 to 20)
#    0.000    2.364    0.000    2.909    0.000    2.182 
#    0.000    3.636    0.000   15.273    0.000    0.000 
#    0.000    0.000    0.000    0.000    0.000    0.000 
#
# Total GULP energy -818568.558109 kJ/mol
# GULP energy per Si atom -12402.553911 kJ/mol
# Density = 1.711715 g / cm^3
# Si number density = 17.156202 Si / 1000 Ang^3
#
#
#
# Elastic Constant Matrix: (Units=GPa)
#
#
# Indices 1 2 3 4 5 6 
#
# 1 105.5360 67.5817 60.5520 -2.4257 0.0000 0.0000
# 2 67.5817 105.5360 60.5520 2.4257 0.0000 0.0000
# 3 60.5520 60.5520 111.5611 0.0000 0.0000 0.0000
# 4 -2.4257 2.4257 0.0000 23.6819 0.0000 0.0000
# 5 0.0000 0.0000 0.0000 0.0000 23.6819 -2.4257
# 6 0.0000 0.0000 0.0000 0.0000 -2.4257 18.9772
#
#
#
# Elastic Compliance Matrix: (Units=1/GPa)
#
#
# Indices 1 2 3 4 5 6 
#
# 1 0.018005 -0.008692 -0.005054 0.002735 0.000000 0.000000
# 2 -0.008692 0.018005 -0.005054 -0.002735 0.000000 0.000000
# 3 -0.005054 -0.005054 0.014450 0.000000 0.000000 0.000000
# 4 0.002735 -0.002735 0.000000 0.042787 0.000000 0.000000
# 5 0.000000 0.000000 0.000000 0.000000 0.042787 0.005469
# 6 0.000000 0.000000 0.000000 0.000000 0.005469 0.053394
#
#
# Mechanical properties :
#
#
# Convention : Reuss Voigt Hill
#
# Bulk Modulus (GPa) = 77.77682 77.77828 77.77755
# Shear Modulus (GPa) = 21.61557 22.19802 21.90680
#
# Velocity S-wave (km/s) = 3.55340 3.60095 3.57725
# Velocity P-wave (km/s) = 7.89104 7.91978 7.90542
#
# Compressibility (1/GPa) = 0.01285730
#
# Stress axis : x y z
#
# Youngs Moduli (GPa) = 55.54140 55.54140 69.20223
#
# Poissons Ratio (x) = 0.48279 0.34977
# Poissons Ratio (y) = 0.48279 0.34977
# Poissons Ratio (z) = 0.28073 0.28073
#
# Static dielectric constant tensor:
#      x y z
#    x 3.075860 0.000000 0.000000 
#    y 0.000000 3.075860 0.000000 
#    z 0.000000 0.000000 3.450820 
# 
# 
# High freq. dielectric constant tensor:
#      x y z
#    x 1.655660 0.000000 0.000000 
#    y 0.000000 1.655660 0.000000 
#    z 0.000000 0.000000 1.679080 
# 
# From -- ./inp_files/5501.got.cif
#   From: 2010.03.12/outbox.cif.g09.slc.cpg/sg164_3_cif.got.tgz:5501.got - 2010.04.02 06:32:59.
