data_PCOD8323116
_publ_section_title
;
Structure prediction by ZEFSAII (Michael W. Deem and Ramdas Pophale) SiO2 
 PCOD8323116
Probable space group: P -3 1 M 
;
_chemical_formula_sum "Si O2"
_cell_formula_units_Z 96
_cell_length_a 14.622434
_cell_length_b 14.622434
_cell_length_c 25.512835
_cell_angle_alpha 90.000000
_cell_angle_beta 90.000000
_cell_angle_gamma 120.000000
_cell_volume 4724.204529
_symmetry_space_group_name_H-M "P -3 1 M "
_symmetry_group_IT_number 162
_symmetry_cell_setting 'hexagonal'
loop_
_space_group_symop_operation_xyz
x,y,z
-y,x-y,z
-x+y,-x,z
-y,-x,-z
-x+y,y,-z
x,x-y,-z
-x,-y,-z
y,-x+y,-z
x-y,x,-z
y,x,z
x-y,-y,z
-x,-x+y,z
loop_
_atom_site_type_symbol
_atom_site_label
_atom_site_fract_x
_atom_site_fract_y
_atom_site_fract_z
Si Si1 0.756297 0.878163 0.938609
Si Si2 0.416381 0.213793 0.854978
Si Si3 0.121321 0.565992 0.176255
Si Si4 0.451355 0.560743 0.440456
Si Si5 0.750093 0.876207 0.761863
Si Si6 0.793927 0.574494 0.440225
Si Si7 0.878819 0.423371 0.705610
Si Si8 0.814320 0.228242 0.330003
O O1 0.821712 0.821712 0.921391
O O2 0.643643 0.823724 0.910155
O O3 0.825391 0.000000 0.921743
O O4 0.732605 0.866303 0.000000
O O5 0.473718 0.339779 0.850470
O O6 0.508108 0.183791 0.854685
O O7 0.331372 0.154850 0.809251
O O8 0.164647 0.581998 0.235657
O O9 0.000000 0.533466 0.174995
O O10 0.459413 0.540588 0.500000
O O11 0.538036 0.538036 0.411518
O O12 0.472113 0.678142 0.435418
O O13 0.338144 0.468302 0.422868
O O14 0.817748 0.817748 0.754697
O O15 0.682311 0.863792 0.710230
O O16 0.828719 0.000000 0.772908
O O17 0.812862 0.625723 0.500000
O O18 0.801716 0.643279 0.388521
O O19 0.816062 0.309812 0.678748
O O20 0.866771 0.511489 0.673187
O O21 0.000000 0.454222 0.707907
#
# Coordination Sequence:
#
# PCOD8323116 Si02
#       8
#    12  12  12  12  12  12  12  12
#     4  10  21  39  65  98 135 175 221 275 329 372
#     4  12  23  40  65  93 128 168 211 252 301 370
#     4  11  21  37  60  88 122 161 200 244 298 355
#     4   9  18  34  54  75 103 138 178 226 277 335
#     4  12  25  42  63  88 117 151 197 257 320 374
#     4  10  21  35  53  80 112 149 191 236 294 362
#     4  11  22  38  57  83 117 153 193 236 293 358
#     4  12  23  36  59  86 118 155 195 242 295 365
#
# _framework density 20.320879999999999
#
# number of rings (size 3 to 8) (size 9 to 14) (size 15 to 20)
#    0.000    1.125    2.500    4.750    0.000    4.500 
#    0.000    1.875    0.000    2.250    0.000    0.000 
#    0.000    1.000    0.000    0.000    0.000    0.000 
#
# Total GULP energy -1189325.918880 kJ/mol
# GULP energy per Si atom -12388.811655 kJ/mol
# Density = 2.027463 g / cm^3
# Si number density = 20.320880 Si / 1000 Ang^3
#
#
#
# Elastic Constant Matrix: (Units=GPa)
#
#
# Indices 1 2 3 4 5 6 
#
# 1 91.6217 18.7714 25.6877 0.0000 2.2507 0.0000
# 2 18.7714 91.6217 25.6877 0.0000 -2.2507 0.0000
# 3 25.6877 25.6877 97.3276 0.0000 0.0000 0.0000
# 4 0.0000 0.0000 0.0000 14.7961 0.0000 -2.2507
# 5 2.2507 -2.2507 0.0000 0.0000 14.7961 0.0000
# 6 0.0000 0.0000 0.0000 -2.2507 0.0000 36.4252
#
#
#
# Elastic Compliance Matrix: (Units=1/GPa)
#
#
# Indices 1 2 3 4 5 6 
#
# 1 0.012092 -0.001765 -0.002726 0.000000 -0.002108 0.000000
# 2 -0.001765 0.012092 -0.002726 0.000000 0.002108 0.000000
# 3 -0.002726 -0.002726 0.011713 0.000000 0.000000 0.000000
# 4 0.000000 0.000000 0.000000 0.068227 0.000000 0.004216
# 5 -0.002108 0.002108 0.000000 0.000000 0.068227 0.000000
# 6 0.000000 0.000000 0.000000 0.004216 0.000000 0.027714
#
#
# Mechanical properties :
#
#
# Convention : Reuss Voigt Hill
#
# Bulk Modulus (GPa) = 46.58774 46.76276 46.67525
# Shear Modulus (GPa) = 22.55785 27.23175 24.89480
#
# Velocity S-wave (km/s) = 3.33540 3.66469 3.50392
# Velocity P-wave (km/s) = 6.14891 6.40068 6.27606
#
# Compressibility (1/GPa) = 0.02146487
#
# Stress axis : x y z
#
# Youngs Moduli (GPa) = 82.69926 82.69926 85.37293
#
# Poissons Ratio (x) = 0.14597 0.23269
# Poissons Ratio (y) = 0.14597 0.23269
# Poissons Ratio (z) = 0.22541 0.22541
#
# Static dielectric constant tensor:
#      x y z
#    x 3.694310 0.000000 0.000000 
#    y 0.000000 3.694310 0.000000 
#    z 0.000000 0.000000 3.889330 
# 
# 
# High freq. dielectric constant tensor:
#      x y z
#    x 1.788180 0.000000 0.000000 
#    y 0.000000 1.788180 0.000000 
#    z 0.000000 0.000000 1.798000 
# 
# From -- ./inp_files/4086.got.cif
#   From: 2010.03.12/outbox.cif.g09.slc.cpg/sg162_3_cif.got.tgz:4086.got - 2010.04.02 06:27:41.
