data_PCOD8323591
_publ_section_title
;
Structure prediction by ZEFSAII (Michael W. Deem and Ramdas Pophale) SiO2 
 PCOD8323591
Probable space group: P -3 M 1
;
_chemical_formula_sum "Si O2"
_cell_formula_units_Z 84
_cell_length_a 18.679456
_cell_length_b 18.679456
_cell_length_c 14.613396
_cell_angle_alpha 90.000000
_cell_angle_beta 90.000000
_cell_angle_gamma 120.000000
_cell_volume 4415.808521
_symmetry_space_group_name_H-M "P -3 M 1"
_symmetry_group_IT_number 164
_symmetry_cell_setting 'hexagonal'
loop_
_space_group_symop_operation_xyz
x,y,z
-y,x-y,z
-x+y,-x,z
x-y,-y,-z
-x,-x+y,-z
y,x,-z
-x,-y,-z
y,-x+y,-z
x-y,x,-z
-x+y,y,z
x,x-y,z
-y,-x,z
loop_
_atom_site_type_symbol
_atom_site_label
_atom_site_fract_x
_atom_site_fract_y
_atom_site_fract_z
Si Si1 0.528984 0.630126 0.137033
Si Si2 0.502489 0.170803 0.061256
Si Si3 0.763397 0.686489 0.373497
Si Si4 0.745795 0.095082 0.574183
Si Si5 0.704903 0.050618 0.177839
Si Si6 0.165154 0.000980 0.106805
Si Si7 0.827777 0.334074 0.672775
O O1 0.469407 0.530594 0.132006
O O2 0.620542 0.652124 0.158907
O O3 0.498726 0.667284 0.217304
O O4 0.525195 0.670906 0.042907
O O5 0.576351 0.152701 0.089614
O O6 0.536688 0.268344 0.072234
O O7 0.419050 0.122543 0.120069
O O8 0.862591 0.725181 0.363537
O O9 0.738039 0.755670 0.393452
O O10 0.732037 0.630476 0.465559
O O11 0.716503 0.634936 0.283118
O O12 0.829433 0.170568 0.610859
O O13 0.670543 0.095868 0.627076
O O14 0.777456 0.029849 0.156740
O O15 0.137720 0.068860 0.128074
O O16 0.089926 0.910074 0.137957
O O17 0.182698 0.000000 0.000000
O O18 0.834813 0.417406 0.635387
O O19 0.741137 0.258864 0.639078
#
# Coordination Sequence:
#
# PCOD8323591 Si02
#       7
#    12  12  12  12  12  12  12
#     4  10  21  36  55  81 112 146 185 231 283 335
#     4  11  23  39  58  81 115 157 199 239 280 331
#     4  10  20  36  57  81 109 143 186 235 285 338
#     4   9  19  37  59  81 109 144 185 232 287 347
#     4  12  22  36  57  83 115 145 192 237 283 334
#     4  10  21  36  54  78 111 150 189 230 280 337
#     4  10  19  34  56  85 116 145 181 228 284 341
#
# _framework density 19.022565
#
# number of rings (size 3 to 8) (size 9 to 14) (size 15 to 20)
#    0.000    1.714    1.429    3.857    0.000    4.571 
#    0.000    4.286    0.000    0.286    0.000    4.000 
#    0.000    0.000    0.000    0.000    0.000    0.000 
#
# Total GULP energy -1040849.149897 kJ/mol
# GULP energy per Si atom -12391.061308 kJ/mol
# Density = 1.897927 g / cm^3
# Si number density = 19.022565 Si / 1000 Ang^3
#
#
#
# Elastic Constant Matrix: (Units=GPa)
#
#
# Indices 1 2 3 4 5 6 
#
# 1 111.5494 57.8299 40.9629 -4.0172 0.0000 0.0000
# 2 57.8299 111.5494 40.9629 4.0172 0.0000 0.0000
# 3 40.9629 40.9629 98.6209 0.0000 0.0000 0.0000
# 4 -4.0172 4.0172 0.0000 19.8783 0.0000 0.0000
# 5 0.0000 0.0000 0.0000 0.0000 19.8783 -4.0172
# 6 0.0000 0.0000 0.0000 0.0000 -4.0172 26.8597
#
#
#
# Elastic Compliance Matrix: (Units=1/GPa)
#
#
# Indices 1 2 3 4 5 6 
#
# 1 0.013292 -0.005904 -0.003069 0.003879 0.000000 0.000000
# 2 -0.005904 0.013292 -0.003069 -0.003879 0.000000 0.000000
# 3 -0.003069 -0.003069 0.012689 0.000000 0.000000 0.000000
# 4 0.003879 -0.003879 0.000000 0.051874 0.000000 0.000000
# 5 0.000000 0.000000 0.000000 0.000000 0.051874 0.007758
# 6 0.000000 0.000000 0.000000 0.000000 0.007758 0.038391
#
#
# Mechanical properties :
#
#
# Convention : Reuss Voigt Hill
#
# Bulk Modulus (GPa) = 65.83053 66.80347 66.31700
# Shear Modulus (GPa) = 23.74651 25.45420 24.60036
#
# Velocity S-wave (km/s) = 3.53701 3.66198 3.60004
# Velocity P-wave (km/s) = 7.16675 7.28522 7.22622
#
# Compressibility (1/GPa) = 0.01519052
#
# Stress axis : x y z
#
# Youngs Moduli (GPa) = 75.23430 75.23430 78.80782
#
# Poissons Ratio (x) = 0.44415 0.24184
# Poissons Ratio (y) = 0.44415 0.24184
# Poissons Ratio (z) = 0.23087 0.23087
#
# Static dielectric constant tensor:
#      x y z
#    x 3.558030 0.000000 0.000000 
#    y 0.000000 3.558030 0.000000 
#    z 0.000000 0.000000 3.655250 
# 
# 
# High freq. dielectric constant tensor:
#      x y z
#    x 1.736580 0.000000 0.000000 
#    y 0.000000 1.736580 0.000000 
#    z 0.000000 0.000000 1.741040 
# 
# From -- ./inp_files/3576.got.cif
#   From: 2010.03.12/outbox.cif.g09.slc.cpg/sg164_2_cif.got.tgz:3576.got - 2010.04.02 06:32:59.
