data_PCOD8323375
_publ_section_title
;
Structure prediction by ZEFSAII (Michael W. Deem and Ramdas Pophale) SiO2 
 PCOD8323375
Probable space group: P -3 M 1
;
_chemical_formula_sum "Si O2"
_cell_formula_units_Z 60
_cell_length_a 20.889728
_cell_length_b 20.889728
_cell_length_c 12.675096
_cell_angle_alpha 90.000000
_cell_angle_beta 90.000000
_cell_angle_gamma 120.000000
_cell_volume 4790.131758
_symmetry_space_group_name_H-M "P -3 M 1"
_symmetry_group_IT_number 164
_symmetry_cell_setting 'hexagonal'
loop_
_space_group_symop_operation_xyz
x,y,z
-y,x-y,z
-x+y,-x,z
x-y,-y,-z
-x,-x+y,-z
y,x,-z
-x,-y,-z
y,-x+y,-z
x-y,x,-z
-x+y,y,z
x,x-y,z
-y,-x,z
loop_
_atom_site_type_symbol
_atom_site_label
_atom_site_fract_x
_atom_site_fract_y
_atom_site_fract_z
Si Si1 0.538943 0.613058 0.946898
Si Si2 0.667056 0.181682 0.465136
Si Si3 0.528537 0.905088 0.329265
Si Si4 0.183017 0.667174 0.125594
Si Si5 0.931789 0.542053 0.289121
O O1 0.466353 0.533648 0.942942
O O2 0.561258 0.644894 0.828495
O O3 0.604297 0.604297 0.000000
O O4 0.524979 0.669005 0.016921
O O5 0.596080 0.192159 0.466517
O O6 0.738476 0.261525 0.457954
O O7 0.670792 0.139617 0.569448
O O8 0.666387 0.133488 0.365450
O O9 0.453443 0.906885 0.330477
O O10 0.533582 0.865474 0.223492
O O11 0.596828 0.989160 0.331003
O O12 0.192438 0.596219 0.131755
O O13 0.262879 0.737122 0.130840
O O14 0.934158 0.467079 0.287808
#
# Coordination Sequence:
#
# PCOD8323375 Si02
#       5
#    12  12  12  12  12
#     4   9  15  26  41  53  67  90 120 150 179 215
#     4  10  19  28  38  53  75  98 119 149 194 240
#     4   9  16  27  41  54  68  91 124 155 182 220
#     4  10  18  26  38  56  77  96 116 149 196 240
#     4   9  16  27  42  55  66  89 125 156 180 216
#
# _framework density 12.525751
#
# number of rings (size 3 to 8) (size 9 to 14) (size 15 to 20)
#    0.000    2.600    2.000    1.600    0.000    3.200 
#    0.000    2.000    0.000    2.400    0.000    0.000 
#    0.000    0.000    0.000    0.000    0.000    0.000 
#
# Total GULP energy -743769.382916 kJ/mol
# GULP energy per Si atom -12396.156382 kJ/mol
# Density = 1.249724 g / cm^3
# Si number density = 12.525751 Si / 1000 Ang^3
#
#
#
# Elastic Constant Matrix: (Units=GPa)
#
#
# Indices 1 2 3 4 5 6 
#
# 1 44.5146 24.8062 37.0913 -0.7647 0.0000 0.0000
# 2 24.8062 44.5146 37.0913 0.7647 0.0000 0.0000
# 3 37.0913 37.0913 115.8095 0.0000 0.0000 0.0000
# 4 -0.7647 0.7647 0.0000 14.4081 0.0000 0.0000
# 5 0.0000 0.0000 0.0000 0.0000 14.4081 -0.7647
# 6 0.0000 0.0000 0.0000 0.0000 -0.7647 9.8542
#
#
#
# Elastic Compliance Matrix: (Units=1/GPa)
#
#
# Indices 1 2 3 4 5 6 
#
# 1 0.036449 -0.014501 -0.007030 0.002704 0.000000 0.000000
# 2 -0.014501 0.036449 -0.007030 -0.002704 0.000000 0.000000
# 3 -0.007030 -0.007030 0.013138 0.000000 0.000000 0.000000
# 4 0.002704 -0.002704 0.000000 0.069693 0.000000 0.000000
# 5 0.000000 0.000000 0.000000 0.000000 0.069693 0.005409
# 6 0.000000 0.000000 0.000000 0.000000 0.005409 0.101899
#
#
# Mechanical properties :
#
#
# Convention : Reuss Voigt Hill
#
# Bulk Modulus (GPa) = 34.58290 44.75733 39.67012
# Shear Modulus (GPa) = 12.68783 14.79073 13.73928
#
# Velocity S-wave (km/s) = 3.18612 3.44004 3.31551
# Velocity P-wave (km/s) = 6.41908 7.18250 6.81149
#
# Compressibility (1/GPa) = 0.02891603
#
# Stress axis : x y z
#
# Youngs Moduli (GPa) = 27.43562 27.43562 76.11680
#
# Poissons Ratio (x) = 0.39784 0.53507
# Poissons Ratio (y) = 0.39784 0.53507
# Poissons Ratio (z) = 0.19286 0.19286
#
# Static dielectric constant tensor:
#      x y z
#    x 2.307060 0.000000 0.000000 
#    y 0.000000 2.307060 0.000000 
#    z 0.000000 0.000000 2.940820 
# 
# 
# High freq. dielectric constant tensor:
#      x y z
#    x 1.436610 0.000000 0.000000 
#    y 0.000000 1.436610 0.000000 
#    z 0.000000 0.000000 1.499380 
# 
# From -- ./inp_files/3367.got.cif
#   From: 2010.03.12/outbox.cif.g09.slc.cpg/sg164_2_cif.got.tgz:3367.got - 2010.04.02 06:32:59.
