data_PCOD8323948
_publ_section_title
;
Structure prediction by ZEFSAII (Michael W. Deem and Ramdas Pophale) SiO2 
 PCOD8323948
Probable space group: P -3 C 1
;
_chemical_formula_sum "Si O2"
_cell_formula_units_Z 44
_cell_length_a 13.039610
_cell_length_b 13.039610
_cell_length_c 13.801667
_cell_angle_alpha 90.000000
_cell_angle_beta 90.000000
_cell_angle_gamma 120.000000
_cell_volume 2032.316678
_symmetry_space_group_name_H-M "P -3 C 1"
_symmetry_group_IT_number 165
_symmetry_cell_setting 'hexagonal'
loop_
_space_group_symop_operation_xyz
x,y,z
-y,x-y,z
-x+y,-x,z
x-y,-y,1/2-z
-x,-x+y,1/2-z
y,x,1/2-z
-x,-y,-z
y,-x+y,-z
x-y,x,-z
-x+y,y,1/2+z
x,x-y,1/2+z
-y,-x,1/2+z
loop_
_atom_site_type_symbol
_atom_site_label
_atom_site_fract_x
_atom_site_fract_y
_atom_site_fract_z
Si Si1 0.772745 0.178741 0.517355
Si Si2 0.333334 0.666667 0.040029
Si Si3 0.576077 0.071404 0.662069
Si Si4 0.682929 0.999787 0.361767
Si Si5 0.333335 0.666668 0.767510
O O1 0.757372 0.292665 0.498898
O O2 0.659198 0.076462 0.574682
O O3 0.887134 0.214240 0.582528
O O4 0.780065 0.119716 0.416138
O O5 0.333334 0.666667 0.153745
O O6 0.438804 0.997128 0.632061
O O7 0.604457 0.201176 0.693422
O O8 0.594123 0.000000 0.750000
O O9 0.721027 0.000000 0.250000
#
# Coordination Sequence:
#
# PCOD8323948 Si02
#       5
#    12   4  12  12   4
#     4  12  24  41  65  94 132 180 224 274 340 398
#     4  12  22  35  61  94 137 184 220 263 331 397
#     4  11  22  39  60  92 133 177 223 267 327 401
#     4  11  25  43  63  97 135 176 229 275 331 405
#     4  12  22  38  61  91 137 184 214 278 322 385
#
# _framework density 21.650171
#
# number of rings (size 3 to 8) (size 9 to 14) (size 15 to 20)
#    0.000    0.545    5.455    4.091    3.818    0.000 
#    0.000    0.000    0.000    0.545    0.000    1.909 
#    0.000    0.000    0.000    0.000    0.000    0.000 
#
# Total GULP energy -545755.865389 kJ/mol
# GULP energy per Si atom -12403.542395 kJ/mol
# Density = 2.160089 g / cm^3
# Si number density = 21.650171 Si / 1000 Ang^3
#
#
#
# Elastic Constant Matrix: (Units=GPa)
#
#
# Indices 1 2 3 4 5 6 
#
# 1 67.8490 14.1312 40.6772 0.2838 0.0000 0.0000
# 2 14.1312 67.8480 40.6772 -0.2834 0.0000 0.0000
# 3 40.6772 40.6772 167.2961 0.0002 0.0000 0.0000
# 4 0.2838 -0.2834 0.0002 40.1691 0.0000 0.0000
# 5 0.0000 0.0000 0.0000 0.0000 40.1704 0.2835
# 6 0.0000 0.0000 0.0000 0.0000 0.2835 26.8572
#
#
#
# Elastic Compliance Matrix: (Units=1/GPa)
#
#
# Indices 1 2 3 4 5 6 
#
# 1 0.017347 -0.001270 -0.003909 -0.000131 0.000000 0.000000
# 2 -0.001270 0.017348 -0.003909 0.000131 0.000000 0.000000
# 3 -0.003909 -0.003909 0.007878 0.000000 0.000000 0.000000
# 4 -0.000131 0.000131 0.000000 0.024897 0.000000 0.000000
# 5 0.000000 0.000000 0.000000 0.000000 0.024896 -0.000263
# 6 0.000000 0.000000 0.000000 0.000000 -0.000263 0.037237
#
#
# Mechanical properties :
#
#
# Convention : Reuss Voigt Hill
#
# Bulk Modulus (GPa) = 40.98910 54.88493 47.93702
# Shear Modulus (GPa) = 32.06954 35.27316 33.67135
#
# Velocity S-wave (km/s) = 3.85289 4.04075 3.94794
# Velocity P-wave (km/s) = 6.22628 6.86849 6.55525
#
# Compressibility (1/GPa) = 0.02439673
#
# Stress axis : x y z
#
# Youngs Moduli (GPa) = 57.64598 57.64488 126.92915
#
# Poissons Ratio (x) = 0.07321 0.49618
# Poissons Ratio (y) = 0.07321 0.49619
# Poissons Ratio (z) = 0.22534 0.22535
#
# Static dielectric constant tensor:
#      x y z
#    x 3.398030 0.000000 0.000000 
#    y 0.000000 3.397820 0.000110 
#    z 0.000000 0.000110 4.424280 
# 
# 
# High freq. dielectric constant tensor:
#      x y z
#    x 1.817390 0.000000 0.000000 
#    y 0.000000 1.817390 0.000000 
#    z 0.000000 0.000000 1.884600 
# 
# From -- ./inp_files/1009.got.cif
#   From: 2010.03.12/outbox.cif.g09.slc.cpg/sg165_1_cif.got.tgz:1009.got - 2010.04.02 06:36:38.
