data_PCOD8323674
_publ_section_title
;
Structure prediction by ZEFSAII (Michael W. Deem and Ramdas Pophale) SiO2 
 PCOD8323674
Probable space group: P -3 M 1
;
_chemical_formula_sum "Si O2"
_cell_formula_units_Z 60
_cell_length_a 12.838102
_cell_length_b 12.838102
_cell_length_c 25.234811
_cell_angle_alpha 90.000000
_cell_angle_beta 90.000000
_cell_angle_gamma 120.000000
_cell_volume 3601.905644
_symmetry_space_group_name_H-M "P -3 M 1"
_symmetry_group_IT_number 164
_symmetry_cell_setting 'hexagonal'
loop_
_space_group_symop_operation_xyz
x,y,z
-y,x-y,z
-x+y,-x,z
x-y,-y,-z
-x,-x+y,-z
y,x,-z
-x,-y,-z
y,-x+y,-z
x-y,x,-z
-x+y,y,z
x,x-y,z
-y,-x,z
loop_
_atom_site_type_symbol
_atom_site_label
_atom_site_fract_x
_atom_site_fract_y
_atom_site_fract_z
Si Si1 0.577440 0.668354 0.849574
Si Si2 0.093067 0.666314 0.456879
Si Si3 0.000256 0.756494 0.753844
Si Si4 0.239452 0.239512 0.939275
Si Si5 0.333985 0.426563 0.337473
O O1 0.537459 0.768730 0.849159
O O2 0.461192 0.538809 0.844465
O O3 0.665865 0.687455 0.801409
O O4 0.645739 0.673804 0.903901
O O5 0.123909 0.561955 0.467016
O O6 0.210916 0.789085 0.467473
O O7 0.043880 0.658074 0.397196
O O8 0.000000 0.662115 0.500000
O O9 0.108829 0.891171 0.747229
O O10 0.880645 0.761289 0.766434
O O11 0.989374 0.685380 0.699987
O O12 0.254669 0.127335 0.922577
O O13 0.100501 0.201002 0.929843
O O14 0.276877 0.276877 0.000000
O O15 0.232384 0.464768 0.333742
O O16 0.459266 0.540734 0.319682
#
# Coordination Sequence:
#
# PCOD8323674 Si02
#       5
#    12  12  12  12  12
#     4  10  20  33  49  68  92 123 157 192 229 272
#     4   9  17  29  46  67  91 120 154 192 231 272
#     4  10  20  33  50  71  94 120 150 187 231 277
#     4   9  17  30  50  75 100 126 157 194 234 274
#     4   9  17  30  48  69  92 120 154 190 229 273
#
# _framework density 16.65785
#
# number of rings (size 3 to 8) (size 9 to 14) (size 15 to 20)
#    0.000    2.600    0.000    2.200    0.000    3.600 
#    0.000    2.000    0.000    5.000    0.000    0.000 
#    0.000    0.000    0.000    0.000    0.000    0.000 
#
# Total GULP energy -744046.126442 kJ/mol
# GULP energy per Si atom -12400.768774 kJ/mol
# Density = 1.661994 g / cm^3
# Si number density = 16.657850 Si / 1000 Ang^3
#
#
#
# Elastic Constant Matrix: (Units=GPa)
#
#
# Indices 1 2 3 4 5 6 
#
# 1 102.5596 67.6304 64.3401 4.1253 0.0000 0.0000
# 2 67.6304 102.5596 64.3401 -4.1253 0.0000 0.0000
# 3 64.3401 64.3401 111.9338 0.0000 0.0000 0.0000
# 4 4.1253 -4.1253 0.0000 24.4678 0.0000 0.0000
# 5 0.0000 0.0000 0.0000 0.0000 24.4678 4.1253
# 6 0.0000 0.0000 0.0000 0.0000 4.1253 17.4646
#
#
#
# Elastic Compliance Matrix: (Units=1/GPa)
#
#
# Indices 1 2 3 4 5 6 
#
# 1 0.020105 -0.009712 -0.005974 -0.005027 0.000000 0.000000
# 2 -0.009712 0.020105 -0.005974 0.005027 0.000000 0.000000
# 3 -0.005974 -0.005974 0.015801 0.000000 0.000000 0.000000
# 4 -0.005027 0.005027 0.000000 0.042565 0.000000 0.000000
# 5 0.000000 0.000000 0.000000 0.000000 0.042565 -0.010054
# 6 0.000000 0.000000 0.000000 0.000000 -0.010054 0.059634
#
#
# Mechanical properties :
#
#
# Convention : Reuss Voigt Hill
#
# Bulk Modulus (GPa) = 78.79250 78.85267 78.82259
# Shear Modulus (GPa) = 20.13499 21.32952 20.73225
#
# Velocity S-wave (km/s) = 3.48046 3.58222 3.53171
# Velocity P-wave (km/s) = 7.97212 8.03425 8.00324
#
# Compressibility (1/GPa) = 0.01269156
#
# Stress axis : x y z
#
# Youngs Moduli (GPa) = 49.73981 49.73981 63.28641
#
# Poissons Ratio (x) = 0.48308 0.37805
# Poissons Ratio (y) = 0.48308 0.37805
# Poissons Ratio (z) = 0.29713 0.29713
#
# Static dielectric constant tensor:
#      x y z
#    x 3.017210 0.000000 0.000000 
#    y 0.000000 3.017210 0.000000 
#    z 0.000000 0.000000 3.368030 
# 
# 
# High freq. dielectric constant tensor:
#      x y z
#    x 1.634630 0.000000 0.000000 
#    y 0.000000 1.634630 0.000000 
#    z 0.000000 0.000000 1.655080 
# 
# From -- ./inp_files/5172.got.cif
#   From: 2010.03.12/outbox.cif.g09.slc.cpg/sg164_3_cif.got.tgz:5172.got - 2010.04.02 06:32:59.
