data_PCOD8323337
_publ_section_title
;
Structure prediction by ZEFSAII (Michael W. Deem and Ramdas Pophale) SiO2 
 PCOD8323337
Probable space group: P -3 1 C
;
_chemical_formula_sum "Si O2"
_cell_formula_units_Z 48
_cell_length_a 11.652195
_cell_length_b 11.652195
_cell_length_c 18.672177
_cell_angle_alpha 90.000000
_cell_angle_beta 90.000000
_cell_angle_gamma 120.000000
_cell_volume 2195.538591
_symmetry_space_group_name_H-M "P -3 1 C"
_symmetry_group_IT_number 163
_symmetry_cell_setting 'hexagonal'
loop_
_space_group_symop_operation_xyz
x,y,z
-y,x-y,z
-x+y,-x,z
-y,-x,1/2-z
-x+y,y,1/2-z
x,x-y,1/2-z
-x,-y,-z
y,-x+y,-z
x-y,x,-z
y,x,1/2+z
x-y,-y,1/2+z
-x,-x+y,1/2+z
loop_
_atom_site_type_symbol
_atom_site_label
_atom_site_fract_x
_atom_site_fract_y
_atom_site_fract_z
Si Si1 0.449033 0.959262 0.826515
Si Si2 0.666668 0.333335 0.156784
Si Si3 0.333334 0.666668 0.010212
Si Si4 0.000000 0.000000 0.916590
Si Si5 0.039340 0.760960 0.088947
Si Si6 0.590161 0.666957 0.055146
O O1 0.513941 0.027882 0.750000
O O2 0.358146 0.804580 0.813073
O O3 0.346678 0.007416 0.846611
O O4 0.555705 0.980702 0.888558
O O5 0.666668 0.333334 0.072968
O O6 0.440379 0.627240 0.035819
O O7 0.026646 0.146916 0.895065
O O8 0.000000 0.000000 0.000000
O O9 0.194375 0.859204 0.094023
O O10 0.999882 0.678874 0.014073
#
# Coordination Sequence:
#
# PCOD8323337 Si02
#       6
#    12   4   4   4  12  12
#     4  12  28  45  68 100 143 189 232 282 344 418
#     4  12  25  46  69  97 136 178 236 289 334 409
#     4  12  21  40  74 106 129 169 242 289 339 403
#     4  12  24  42  75 114 142 174 231 300 364 423
#     4  12  24  44  74 104 142 181 229 292 356 420
#     4  12  23  43  71 106 135 176 233 291 351 406
#
# _framework density 21.862515999999999
#
# number of rings (size 3 to 8) (size 9 to 14) (size 15 to 20)
#    0.000    0.000    7.500    3.000    3.500    1.000 
#    0.000    0.000    0.000    0.000    0.000    0.000 
#    0.000    0.000    0.000    0.000    0.000    0.000 
#
# Total GULP energy -594980.682059 kJ/mol
# GULP energy per Si atom -12395.430876 kJ/mol
# Density = 2.181276 g / cm^3
# Si number density = 21.862516 Si / 1000 Ang^3
#
#
#
# Elastic Constant Matrix: (Units=GPa)
#
#
# Indices 1 2 3 4 5 6 
#
# 1 116.7327 27.8822 34.7506 0.0006 -3.3230 0.0005
# 2 27.8822 116.7336 34.7507 0.0002 3.3234 0.0003
# 3 34.7506 34.7507 116.4471 -0.0004 -0.0002 0.0000
# 4 0.0006 0.0002 -0.0004 15.2375 -0.0010 3.3230
# 5 -3.3230 3.3234 -0.0002 -0.0010 15.2386 -0.0002
# 6 0.0005 0.0003 0.0000 3.3230 -0.0002 44.4254
#
#
#
# Elastic Compliance Matrix: (Units=1/GPa)
#
#
# Indices 1 2 3 4 5 6 
#
# 1 0.009757 -0.001684 -0.002409 0.000000 0.002495 0.000000
# 2 -0.001684 0.009757 -0.002409 0.000000 -0.002495 0.000000
# 3 -0.002409 -0.002409 0.010025 0.000000 0.000000 0.000000
# 4 0.000000 0.000000 0.000000 0.066716 0.000004 -0.004990
# 5 0.002495 -0.002495 0.000000 0.000004 0.066711 0.000000
# 6 0.000000 0.000000 0.000000 -0.004990 0.000000 0.022883
#
#
# Mechanical properties :
#
#
# Convention : Reuss Voigt Hill
#
# Bulk Modulus (GPa) = 60.47968 60.52005 60.49986
# Shear Modulus (GPa) = 24.46588 31.81561 28.14075
#
# Velocity S-wave (km/s) = 3.34889 3.81892 3.59161
# Velocity P-wave (km/s) = 6.53277 6.86934 6.70317
#
# Compressibility (1/GPa) = 0.01653448
#
# Stress axis : x y z
#
# Youngs Moduli (GPa) = 102.48949 102.49013 99.74610
#
# Poissons Ratio (x) = 0.17263 0.24030
# Poissons Ratio (y) = 0.17263 0.24030
# Poissons Ratio (z) = 0.24691 0.24691
#
# Static dielectric constant tensor:
#      x y z
#    x 3.788870 0.000030 -0.000020 
#    y 0.000030 3.788900 -0.000030 
#    z -0.000020 -0.000030 3.989320 
# 
# 
# High freq. dielectric constant tensor:
#      x y z
#    x 1.874720 0.000000 0.000000 
#    y 0.000000 1.874720 0.000000 
#    z 0.000000 0.000000 1.838810 
# 
# From -- ./inp_files/3481.got.cif
#   From: 2010.03.12/outbox.cif.g09.slc.cpg/sg163_2_cif.got.tgz:3481.got - 2010.04.02 06:30:25.
