data_PCOD8323263
_publ_section_title
;
Structure prediction by ZEFSAII (Michael W. Deem and Ramdas Pophale) SiO2 
 PCOD8323263
Probable space group: P -3 1 C
;
_chemical_formula_sum "Si O2"
_cell_formula_units_Z 46
_cell_length_a 13.913501
_cell_length_b 13.913501
_cell_length_c 12.445369
_cell_angle_alpha 90.000000
_cell_angle_beta 90.000000
_cell_angle_gamma 120.000000
_cell_volume 2086.465734
_symmetry_space_group_name_H-M "P -3 1 C"
_symmetry_group_IT_number 163
_symmetry_cell_setting 'hexagonal'
loop_
_space_group_symop_operation_xyz
x,y,z
-y,x-y,z
-x+y,-x,z
-y,-x,1/2-z
-x+y,y,1/2-z
x,x-y,1/2-z
-x,-y,-z
y,-x+y,-z
x-y,x,-z
y,x,1/2+z
x-y,-y,1/2+z
-x,-x+y,1/2+z
loop_
_atom_site_type_symbol
_atom_site_label
_atom_site_fract_x
_atom_site_fract_y
_atom_site_fract_z
Si Si1 0.570887 0.813001 0.985319
Si Si2 0.070471 0.140942 0.250000
Si Si3 0.258015 0.293616 0.382356
Si Si4 0.333335 0.666668 0.622221
Si Si5 0.462518 0.334245 0.709626
O O1 0.459974 0.738515 0.917815
O O2 0.669827 0.907839 0.914971
O O3 0.614660 0.732977 0.032325
O O4 0.544536 0.874859 0.080935
O O5 0.125771 0.211078 0.359592
O O6 0.127063 0.063532 0.250000
O O7 0.300862 0.344990 0.263606
O O8 0.333334 0.666667 0.750000
O O9 0.542746 0.457255 0.750000
O O10 0.507479 0.253740 0.750000
#
# Coordination Sequence:
#
# PCOD8323263 Si02
#       5
#    12   6  12   4  12
#     4  11  25  44  72 100 146 185 245 287 363 425
#     4  10  24  44  70 100 148 182 228 290 358 408
#     4  11  24  43  70 110 138 189 237 292 349 436
#     4  12  30  51  67 107 142 195 231 306 370 425
#     4  10  20  39  66  98 137 179 239 288 349 413
#
# _framework density 22.046852000000001
#
# number of rings (size 3 to 8) (size 9 to 14) (size 15 to 20)
#    0.261    1.043    3.913    3.391    3.652    8.348 
#    0.000    1.304    0.000    0.000    0.000    0.000 
#    0.000    0.000    0.000    0.000    0.000    0.000 
#
# Total GULP energy -569934.720363 kJ/mol
# GULP energy per Si atom -12389.885225 kJ/mol
# Density = 2.199667 g / cm^3
# Si number density = 22.046852 Si / 1000 Ang^3
#
#
#
# Elastic Constant Matrix: (Units=GPa)
#
#
# Indices 1 2 3 4 5 6 
#
# 1 105.3730 38.5454 44.5235 -0.0003 -1.0750 0.0005
# 2 38.5454 105.3736 44.5238 -0.0004 1.0747 0.0003
# 3 44.5235 44.5238 126.3257 -0.0002 -0.0001 0.0005
# 4 -0.0003 -0.0004 -0.0002 34.4206 0.0000 1.0748
# 5 -1.0750 1.0747 -0.0001 0.0000 34.4206 0.0001
# 6 0.0005 0.0003 0.0005 1.0748 0.0001 33.4139
#
#
#
# Elastic Compliance Matrix: (Units=1/GPa)
#
#
# Indices 1 2 3 4 5 6 
#
# 1 0.011933 -0.003046 -0.003132 0.000000 0.000468 0.000000
# 2 -0.003046 0.011933 -0.003132 0.000000 -0.000468 0.000000
# 3 -0.003132 -0.003132 0.010124 0.000000 0.000000 0.000000
# 4 0.000000 0.000000 0.000000 0.029082 0.000000 -0.000935
# 5 0.000468 -0.000468 0.000000 0.000000 0.029082 0.000000
# 6 0.000000 0.000000 0.000000 -0.000935 0.000000 0.029958
#
#
# Mechanical properties :
#
#
# Convention : Reuss Voigt Hill
#
# Bulk Modulus (GPa) = 65.06872 65.80642 65.43757
# Shear Modulus (GPa) = 34.28109 34.41633 34.34871
#
# Velocity S-wave (km/s) = 3.94753 3.95530 3.95142
# Velocity P-wave (km/s) = 7.09614 7.12548 7.11082
#
# Compressibility (1/GPa) = 0.01536837
#
# Stress axis : x y z
#
# Youngs Moduli (GPa) = 83.80429 83.80464 98.77738
#
# Poissons Ratio (x) = 0.25530 0.30937
# Poissons Ratio (y) = 0.25529 0.30937
# Poissons Ratio (z) = 0.26247 0.26247
#
# Static dielectric constant tensor:
#      x y z
#    x 3.894810 0.000000 0.000010 
#    y 0.000000 3.894810 0.000010 
#    z 0.000010 0.000010 3.990950 
# 
# 
# High freq. dielectric constant tensor:
#      x y z
#    x 1.863100 0.000000 0.000000 
#    y 0.000000 1.863100 0.000000 
#    z 0.000000 0.000000 1.862150 
# 
# From -- ./inp_files/1591.got.cif
#   From: 2010.03.12/outbox.cif.g09.slc.cpg/sg163_1_cif.got.tgz:1591.got - 2010.04.02 06:30:25.
