data_PCOD8323825
_publ_section_title
;
Structure prediction by ZEFSAII (Michael W. Deem and Ramdas Pophale) SiO2 
 PCOD8323825
Probable space group: P -3 M 1
;
_chemical_formula_sum "Si O2"
_cell_formula_units_Z 84
_cell_length_a 13.482739
_cell_length_b 13.482739
_cell_length_c 35.008946
_cell_angle_alpha 90.000000
_cell_angle_beta 90.000000
_cell_angle_gamma 120.000000
_cell_volume 5511.450643
_symmetry_space_group_name_H-M "P -3 M 1"
_symmetry_group_IT_number 164
_symmetry_cell_setting 'hexagonal'
loop_
_space_group_symop_operation_xyz
x,y,z
-y,x-y,z
-x+y,-x,z
x-y,-y,-z
-x,-x+y,-z
y,x,-z
-x,-y,-z
y,-x+y,-z
x-y,x,-z
-x+y,y,z
x,x-y,z
-y,-x,z
loop_
_atom_site_type_symbol
_atom_site_label
_atom_site_fract_x
_atom_site_fract_y
_atom_site_fract_z
Si Si1 0.669428 0.102176 0.332989
Si Si2 0.666927 0.104930 0.886330
Si Si3 0.438004 0.333073 0.613670
Si Si4 0.438078 0.105175 0.525395
Si Si5 0.330573 0.897825 0.832988
Si Si6 0.332903 0.438077 0.025395
Si Si7 0.668297 0.111782 0.250001
O O1 0.561345 0.122689 0.333485
O O2 0.780820 0.219181 0.346199
O O3 0.688737 0.064612 0.290206
O O4 0.652501 0.002839 0.361793
O O5 0.566899 0.133798 0.877986
O O6 0.785502 0.214499 0.874070
O O7 0.667667 0.073710 0.930469
O O8 0.649662 0.997161 0.861792
O O9 0.428996 0.214498 0.625930
O O10 0.566900 0.433101 0.622015
O O11 0.406046 0.332335 0.569530
O O12 0.566241 0.132482 0.516817
O O13 0.430675 0.215338 0.513229
O O14 0.347155 0.000000 0.500000
O O15 0.438656 0.877312 0.833484
O O16 0.219180 0.780821 0.846197
O O17 0.311267 0.935391 0.790204
O O18 0.215338 0.430675 0.013230
O O19 0.433760 0.566241 0.016819
O O20 0.347156 0.347156 0.000000
O O21 0.538220 0.076439 0.250001
O O22 0.750557 0.249444 0.250000
#
# Coordination Sequence:
#
# PCOD8323825 Si02
#       7
#    12  12  12  12  12  12  12
#     4   9  16  26  42  64  88 111 136 169 210 252
#     4   9  17  29  44  61  83 113 145 172 199 238
#     4   9  17  29  44  61  83 113 145 172 199 238
#     4   9  17  29  45  64  85 110 139 170 205 245
#     4   9  16  26  42  64  88 111 136 169 210 252
#     4   9  17  29  45  64  85 110 139 170 205 245
#     4   8  13  22  37  58  84 112 138 164 200 248
#
# _framework density 15.240997
#
# number of rings (size 3 to 8) (size 9 to 14) (size 15 to 20)
#    0.000    3.143    0.000    1.000    0.000    5.714 
#    0.000    0.714    0.000    4.286    0.000    2.000 
#    0.000    0.000    0.000    0.000    0.000    0.000 
#
# Total GULP energy -1040934.812933 kJ/mol
# GULP energy per Si atom -12392.081106 kJ/mol
# Density = 1.520631 g / cm^3
# Si number density = 15.240997 Si / 1000 Ang^3
#
#
#
# Elastic Constant Matrix: (Units=GPa)
#
#
# Indices 1 2 3 4 5 6 
#
# 1 93.5083 46.9759 59.6674 -0.0001 0.0000 0.0000
# 2 46.9759 93.5083 59.6674 0.0001 0.0000 0.0000
# 3 59.6674 59.6674 88.0560 0.0000 0.0000 0.0000
# 4 -0.0001 0.0001 0.0000 24.1434 0.0000 0.0000
# 5 0.0000 0.0000 0.0000 0.0000 24.1434 -0.0001
# 6 0.0000 0.0000 0.0000 0.0000 -0.0001 23.2662
#
#
#
# Elastic Compliance Matrix: (Units=1/GPa)
#
#
# Indices 1 2 3 4 5 6 
#
# 1 0.019131 -0.002359 -0.011365 0.000000 0.000000 0.000000
# 2 -0.002359 0.019131 -0.011365 0.000000 0.000000 0.000000
# 3 -0.011365 -0.011365 0.026758 0.000000 0.000000 0.000000
# 4 0.000000 0.000000 0.000000 0.041419 0.000000 0.000000
# 5 0.000000 0.000000 0.000000 0.000000 0.041419 0.000000
# 6 0.000000 0.000000 0.000000 0.000000 0.000000 0.042981
#
#
# Mechanical properties :
#
#
# Convention : Reuss Voigt Hill
#
# Bulk Modulus (GPa) = 67.37209 67.52154 67.44682
# Shear Modulus (GPa) = 20.32801 21.56141 20.94471
#
# Velocity S-wave (km/s) = 3.65605 3.76533 3.71109
# Velocity P-wave (km/s) = 7.88180 7.95628 7.91912
#
# Compressibility (1/GPa) = 0.01484294
#
# Stress axis : x y z
#
# Youngs Moduli (GPa) = 52.27024 52.27024 37.37139
#
# Poissons Ratio (x) = 0.12331 0.42473
# Poissons Ratio (y) = 0.12331 0.42473
# Poissons Ratio (z) = 0.59405 0.59405
#
# Static dielectric constant tensor:
#      x y z
#    x 2.753880 0.000000 0.000000 
#    y 0.000000 2.753880 0.000000 
#    z 0.000000 0.000000 3.183590 
# 
# 
# High freq. dielectric constant tensor:
#      x y z
#    x 1.560890 0.000000 0.000000 
#    y 0.000000 1.560890 0.000000 
#    z 0.000000 0.000000 1.595990 
# 
# From -- ./inp_files/5291.got.cif
#   From: 2010.03.12/outbox.cif.g09.slc.cpg/sg164_3_cif.got.tgz:5291.got - 2010.04.02 06:32:59.
