data_PCOD8323775
_publ_section_title
;
Structure prediction by ZEFSAII (Michael W. Deem and Ramdas Pophale) SiO2 
 PCOD8323775
Probable space group: P -3 M 1
;
_chemical_formula_sum "Si O2"
_cell_formula_units_Z 84
_cell_length_a 18.456846
_cell_length_b 18.456846
_cell_length_c 13.695903
_cell_angle_alpha 90.000000
_cell_angle_beta 90.000000
_cell_angle_gamma 120.000000
_cell_volume 4040.510878
_symmetry_space_group_name_H-M "P -3 M 1"
_symmetry_group_IT_number 164
_symmetry_cell_setting 'hexagonal'
loop_
_space_group_symop_operation_xyz
x,y,z
-y,x-y,z
-x+y,-x,z
x-y,-y,-z
-x,-x+y,-z
y,x,-z
-x,-y,-z
y,-x+y,-z
x-y,x,-z
-x+y,y,z
x,x-y,z
-y,-x,z
loop_
_atom_site_type_symbol
_atom_site_label
_atom_site_fract_x
_atom_site_fract_y
_atom_site_fract_z
Si Si1 0.507170 0.333632 0.172321
Si Si2 0.000794 0.166715 0.389046
Si Si3 0.999179 0.843207 0.112294
Si Si4 0.966942 0.663474 0.688185
Si Si5 0.169667 0.503572 0.407008
Si Si6 0.691526 0.029162 0.107930
Si Si7 0.697570 0.139641 0.381952
O O1 0.539275 0.269638 0.146451
O O2 0.574861 0.425140 0.132210
O O3 0.418260 0.298644 0.120148
O O4 0.501657 0.340276 0.288705
O O5 0.067514 0.135027 0.379700
O O6 0.031294 0.247728 0.318360
O O7 0.000000 0.195730 0.500000
O O8 0.909247 0.090754 0.358764
O O9 0.929795 0.859589 0.164994
O O10 0.967042 0.745859 0.122182
O O11 0.092031 0.907970 0.156310
O O12 0.000000 0.863799 0.000000
O O13 0.884456 0.585488 0.645444
O O14 0.971012 0.637226 0.801119
O O15 0.045232 0.677397 0.624025
O O16 0.266509 0.533018 0.388526
O O17 0.151695 0.575848 0.366473
O O18 0.150027 0.495348 0.521950
O O19 0.653696 0.000000 0.000000
O O20 0.798226 0.201775 0.386181
#
# Coordination Sequence:
#
# PCOD8323775 Si02
#       7
#    12  12  12  12  12  12  12
#     4  10  20  36  60  89 118 147 184 232 287 344
#     4  10  20  35  56  84 120 159 195 230 273 331
#     4   9  17  31  53  80 108 139 177 223 276 334
#     4  11  22  36  59  85 112 148 194 242 284 329
#     4  11  23  39  59  85 119 155 189 227 278 340
#     4  10  23  41  59  79 111 151 194 241 293 345
#     4   9  19  35  58  90 123 151 178 218 277 342
#
# _framework density 20.789449999999999
#
# number of rings (size 3 to 8) (size 9 to 14) (size 15 to 20)
#    0.000    2.000    0.000    3.571    0.000   10.571 
#    0.000    1.429    0.000    1.714    0.000    2.000 
#    0.000    0.000    0.000    0.000    0.000    0.000 
#
# Total GULP energy -1040971.787142 kJ/mol
# GULP energy per Si atom -12392.521275 kJ/mol
# Density = 2.074213 g / cm^3
# Si number density = 20.789450 Si / 1000 Ang^3
#
#
#
# Elastic Constant Matrix: (Units=GPa)
#
#
# Indices 1 2 3 4 5 6 
#
# 1 115.2071 77.9423 23.6822 16.0437 0.0000 0.0000
# 2 77.9423 115.2071 23.6822 -16.0437 0.0000 0.0000
# 3 23.6822 23.6822 99.7338 0.0000 0.0000 0.0000
# 4 16.0437 -16.0437 0.0000 5.8497 0.0000 0.0000
# 5 0.0000 0.0000 0.0000 0.0000 5.8497 16.0437
# 6 0.0000 0.0000 0.0000 0.0000 16.0437 18.6324
#
#
#
# Elastic Compliance Matrix: (Units=1/GPa)
#
#
# Indices 1 2 3 4 5 6 
#
# 1 -0.007106 0.012603 -0.001305 0.054054 0.000000 0.000000
# 2 0.012603 -0.007106 -0.001305 -0.054054 0.000000 0.000000
# 3 -0.001305 -0.001305 0.010647 0.000000 0.000000 0.000000
# 4 0.054054 -0.054054 0.000000 -0.125551 0.000000 0.000000
# 5 0.000000 0.000000 0.000000 0.000000 -0.125551 0.108107
# 6 0.000000 0.000000 0.000000 0.000000 0.108107 -0.039417
#
#
# Mechanical properties :
#
#
# Convention : Reuss Voigt Hill
#
# Bulk Modulus (GPa) = 60.90148 64.52904 62.71526
# Shear Modulus (GPa) = -16.20245 19.72246 1.76000
#
# Velocity S-wave (km/s) = -2.79473 3.08340 0.92110
# Velocity P-wave (km/s) = 4.35247 6.61689 5.60032
#
# Compressibility (1/GPa) = 0.01641996
#
# Stress axis : x y z
#
# Youngs Moduli (GPa) = -140.73397 -140.73397 93.92643
#
# Poissons Ratio (x) = 1.77368 0.12261
# Poissons Ratio (y) = 1.77368 0.12261
# Poissons Ratio (z) = -0.18371 -0.18371
#
# Static dielectric constant tensor:
#      x y z
#    x 3.634340 0.000000 0.000000 
#    y 0.000000 3.634340 0.000000 
#    z 0.000000 0.000000 3.866540 
# 
# 
# High freq. dielectric constant tensor:
#      x y z
#    x 1.807970 0.000000 0.000000 
#    y 0.000000 1.807970 0.000000 
#    z 0.000000 0.000000 1.804900 
# 
# From -- ./inp_files/3596.got.cif
#   From: 2010.03.12/outbox.cif.g09.slc.cpg/sg164_2_cif.got.tgz:3596.got - 2010.04.02 06:32:59.
