data_PCOD8323411
_publ_section_title
;
Structure prediction by ZEFSAII (Michael W. Deem and Ramdas Pophale) SiO2 
 PCOD8323411
Probable space group: P -3 M 1
;
_chemical_formula_sum "Si O2"
_cell_formula_units_Z 96
_cell_length_a 23.780775
_cell_length_b 23.780775
_cell_length_c 11.859326
_cell_angle_alpha 90.000000
_cell_angle_beta 90.000000
_cell_angle_gamma 120.000000
_cell_volume 5808.214504
_symmetry_space_group_name_H-M "P -3 M 1"
_symmetry_group_IT_number 164
_symmetry_cell_setting 'hexagonal'
loop_
_space_group_symop_operation_xyz
x,y,z
-y,x-y,z
-x+y,-x,z
x-y,-y,-z
-x,-x+y,-z
y,x,-z
-x,-y,-z
y,-x+y,-z
x-y,x,-z
-x+y,y,z
x,x-y,z
-y,-x,z
loop_
_atom_site_type_symbol
_atom_site_label
_atom_site_fract_x
_atom_site_fract_y
_atom_site_fract_z
Si Si1 0.435725 0.438483 0.631735
Si Si2 0.334008 0.794727 0.040627
Si Si3 0.414451 0.110975 0.343890
Si Si4 0.802369 0.729355 0.359150
Si Si5 0.927244 0.728066 0.627719
Si Si6 0.205760 0.667339 0.788123
Si Si7 0.412453 0.268718 0.588079
Si Si8 0.137426 0.506156 0.263743
O O1 0.421751 0.421751 0.500000
O O2 0.485096 0.514905 0.646053
O O3 0.369975 0.419668 0.698029
O O4 0.461393 0.397458 0.697614
O O5 0.383711 0.767421 0.049047
O O6 0.262932 0.737069 0.072465
O O7 0.353947 0.853160 0.130102
O O8 0.337260 0.821858 0.914855
O O9 0.343975 0.101003 0.312145
O O10 0.474708 0.174196 0.289899
O O11 0.423939 0.111776 0.478620
O O12 0.876524 0.753047 0.317998
O O13 0.776502 0.778028 0.317727
O O14 0.800880 0.730466 0.493148
O O15 0.873298 0.746596 0.671653
O O16 0.906122 0.653179 0.657597
O O17 0.192973 0.596487 0.747057
O O18 0.283274 0.716727 0.788646
O O19 0.401750 0.200875 0.541143
O O20 0.476361 0.301622 0.667240
O O21 0.162432 0.581216 0.297093
#
# Coordination Sequence:
#
# PCOD8323411 Si02
#       8
#    12  12  12  12  12  12  12  12
#     4  10  19  30  44  64  88 119 150 178 225 284
#     4   9  18  33  51  67  84 112 152 195 235 275
#     4  11  19  29  45  66  92 119 151 188 231 280
#     4   9  16  25  40  62  88 115 145 183 224 265
#     4   8  15  26  41  60  85 116 148 179 216 264
#     4  10  20  34  50  66  86 117 158 200 239 281
#     4  10  18  28  43  65  89 115 146 183 225 271
#     4  10  19  30  45  66  89 113 145 185 229 276
#
# _framework density 16.528314999999999
#
# number of rings (size 3 to 8) (size 9 to 14) (size 15 to 20)
#    0.000    2.375    1.250    3.625    1.750    1.500 
#    0.000    0.625    0.000    3.500    0.000    1.750 
#    0.000    0.000    0.000    0.000    0.000    0.000 
#
# Total GULP energy -1189310.645787 kJ/mol
# GULP energy per Si atom -12388.652560 kJ/mol
# Density = 1.649070 g / cm^3
# Si number density = 16.528315 Si / 1000 Ang^3
#
#
#
# Elastic Constant Matrix: (Units=GPa)
#
#
# Indices 1 2 3 4 5 6 
#
# 1 98.0709 45.9144 30.4362 -2.7006 0.0000 0.0000
# 2 45.9144 98.0709 30.4362 2.7006 0.0000 0.0000
# 3 30.4362 30.4362 33.5167 0.0000 0.0000 0.0000
# 4 -2.7006 2.7006 0.0000 14.3608 0.0000 0.0000
# 5 0.0000 0.0000 0.0000 0.0000 14.3608 -2.7006
# 6 0.0000 0.0000 0.0000 0.0000 -2.7006 26.0783
#
#
#
# Elastic Compliance Matrix: (Units=1/GPa)
#
#
# Indices 1 2 3 4 5 6 
#
# 1 0.015413 -0.004140 -0.010237 0.003677 0.000000 0.000000
# 2 -0.004140 0.015413 -0.010237 -0.003677 0.000000 0.000000
# 3 -0.010237 -0.010237 0.048428 0.000000 0.000000 0.000000
# 4 0.003677 -0.003677 0.000000 0.071017 0.000000 0.000000
# 5 0.000000 0.000000 0.000000 0.000000 0.071017 0.007354
# 6 0.000000 0.000000 0.000000 0.000000 0.007354 0.039108
#
#
# Mechanical properties :
#
#
# Convention : Reuss Voigt Hill
#
# Bulk Modulus (GPa) = 33.30408 49.24801 41.27604
# Shear Modulus (GPa) = 15.64290 19.15143 17.39716
#
# Velocity S-wave (km/s) = 3.07975 3.40767 3.24785
# Velocity P-wave (km/s) = 5.73061 6.73378 6.25235
#
# Compressibility (1/GPa) = 0.03002635
#
# Stress axis : x y z
#
# Youngs Moduli (GPa) = 64.87847 64.87847 20.64917
#
# Poissons Ratio (x) = 0.26862 0.21138
# Poissons Ratio (y) = 0.26862 0.21138
# Poissons Ratio (z) = 0.66416 0.66416
#
# Static dielectric constant tensor:
#      x y z
#    x 3.265820 0.000000 0.000000 
#    y 0.000000 3.265820 0.000000 
#    z 0.000000 0.000000 2.826740 
# 
# 
# High freq. dielectric constant tensor:
#      x y z
#    x 1.636590 0.000000 0.000000 
#    y 0.000000 1.636590 0.000000 
#    z 0.000000 0.000000 1.583580 
# 
# From -- ./inp_files/3112.got.cif
#   From: 2010.03.12/outbox.cif.g09.slc.cpg/sg164_2_cif.got.tgz:3112.got - 2010.04.02 06:32:59.
