data_PCOD8323301
_publ_section_title
;
Structure prediction by ZEFSAII (Michael W. Deem and Ramdas Pophale) SiO2 
 PCOD8323301
Probable space group: P -3 1 C
;
_chemical_formula_sum "Si O2"
_cell_formula_units_Z 72
_cell_length_a 14.774625
_cell_length_b 14.774625
_cell_length_c 16.495885
_cell_angle_alpha 90.000000
_cell_angle_beta 90.000000
_cell_angle_gamma 120.000000
_cell_volume 3118.452874
_symmetry_space_group_name_H-M "P -3 1 C"
_symmetry_group_IT_number 163
_symmetry_cell_setting 'hexagonal'
loop_
_space_group_symop_operation_xyz
x,y,z
-y,x-y,z
-x+y,-x,z
-y,-x,1/2-z
-x+y,y,1/2-z
x,x-y,1/2-z
-x,-y,-z
y,-x+y,-z
x-y,x,-z
y,x,1/2+z
x-y,-y,1/2+z
-x,-x+y,1/2+z
loop_
_atom_site_type_symbol
_atom_site_label
_atom_site_fract_x
_atom_site_fract_y
_atom_site_fract_z
Si Si1 0.809266 0.054035 0.812947
Si Si2 0.140798 0.222013 0.967637
Si Si3 0.871424 0.448181 0.946071
Si Si4 0.694424 0.097882 0.248316
Si Si5 0.908327 0.452263 0.118961
Si Si6 0.587243 0.811909 0.077762
O O1 0.907544 0.092457 0.750000
O O2 0.835562 0.161923 0.855322
O O3 0.796330 0.964967 0.876511
O O4 0.700280 0.011191 0.765848
O O5 0.175146 0.159085 0.029394
O O6 0.199635 0.345737 0.992852
O O7 0.866335 0.347307 0.903748
O O8 0.802128 0.494863 0.914262
O O9 0.988251 0.536475 0.924002
O O10 0.834901 0.424510 0.040545
O O11 0.814583 0.185418 0.250000
O O12 0.637429 0.083157 0.162153
O O13 0.640246 0.132591 0.316649
#
# Coordination Sequence:
#
# PCOD8323301 Si02
#       6
#    12  12  12  12  12  12
#     4  11  24  45  70 106 142 190 240 291 365 436
#     4  10  24  44  72 101 145 187 241 302 365 426
#     4  11  23  42  71 100 138 179 238 288 350 419
#     4  11  24  44  67  99 145 188 230 284 361 425
#     4  10  24  42  66 100 137 184 230 287 347 418
#     4  11  24  43  72 108 142 181 242 299 355 434
#
# _framework density 23.088370000000001
#
# number of rings (size 3 to 8) (size 9 to 14) (size 15 to 20)
#    0.000    1.333    1.667    2.500   11.667    2.667 
#    4.000    0.000    0.000    0.333    0.000    0.000 
#    0.000    0.000    0.000    0.000    0.000    0.000 
#
# Total GULP energy -891962.282703 kJ/mol
# GULP energy per Si atom -12388.365038 kJ/mol
# Density = 2.303582 g / cm^3
# Si number density = 23.088370 Si / 1000 Ang^3
#
#
#
# Elastic Constant Matrix: (Units=GPa)
#
#
# Indices 1 2 3 4 5 6 
#
# 1 88.9029 14.0753 25.6305 0.0000 -1.9889 0.0000
# 2 14.0753 88.9029 25.6305 0.0000 1.9889 0.0000
# 3 25.6305 25.6305 89.2107 0.0000 0.0000 0.0000
# 4 0.0000 0.0000 0.0000 26.5330 0.0000 1.9889
# 5 -1.9889 1.9889 0.0000 0.0000 26.5330 0.0000
# 6 0.0000 0.0000 0.0000 1.9889 0.0000 37.4138
#
#
#
# Elastic Compliance Matrix: (Units=1/GPa)
#
#
# Indices 1 2 3 4 5 6 
#
# 1 0.012374 -0.001043 -0.003256 0.000000 0.001006 0.000000
# 2 -0.001043 0.012374 -0.003256 0.000000 -0.001006 0.000000
# 3 -0.003256 -0.003256 0.013080 0.000000 0.000000 0.000000
# 4 0.000000 0.000000 0.000000 0.037840 0.000000 -0.002012
# 5 0.001006 -0.001006 0.000000 0.000000 0.037840 0.000000
# 6 0.000000 0.000000 0.000000 -0.002012 0.000000 0.026835
#
#
# Mechanical properties :
#
#
# Convention : Reuss Voigt Hill
#
# Bulk Modulus (GPa) = 44.01282 44.18765 44.10023
# Shear Modulus (GPa) = 30.67009 31.54130 31.10569
#
# Velocity S-wave (km/s) = 3.64865 3.70010 3.67447
# Velocity P-wave (km/s) = 6.07078 6.11837 6.09462
#
# Compressibility (1/GPa) = 0.02272065
#
# Stress axis : x y z
#
# Youngs Moduli (GPa) = 80.81179 80.81179 76.45224
#
# Poissons Ratio (x) = 0.08429 0.24889
# Poissons Ratio (y) = 0.08429 0.24889
# Poissons Ratio (z) = 0.26308 0.26308
#
# Static dielectric constant tensor:
#      x y z
#    x 4.066160 0.000000 0.000000 
#    y 0.000000 4.066160 0.000000 
#    z 0.000000 0.000000 4.321680 
# 
# 
# High freq. dielectric constant tensor:
#      x y z
#    x 1.909800 0.000000 0.000000 
#    y 0.000000 1.909800 0.000000 
#    z 0.000000 0.000000 1.909570 
# 
# From -- ./inp_files/3121.got.cif
#   From: 2010.03.12/outbox.cif.g09.slc.cpg/sg163_2_cif.got.tgz:3121.got - 2010.04.02 06:30:25.
