data_PCOD8323817
_publ_section_title
;
Structure prediction by ZEFSAII (Michael W. Deem and Ramdas Pophale) SiO2 
 PCOD8323817
Probable space group: P -3 M 1
;
_chemical_formula_sum "Si O2"
_cell_formula_units_Z 72
_cell_length_a 21.555388
_cell_length_b 21.555388
_cell_length_c 9.851599
_cell_angle_alpha 90.000000
_cell_angle_beta 90.000000
_cell_angle_gamma 120.000000
_cell_volume 3964.140575
_symmetry_space_group_name_H-M "P -3 M 1"
_symmetry_group_IT_number 164
_symmetry_cell_setting 'hexagonal'
loop_
_space_group_symop_operation_xyz
x,y,z
-y,x-y,z
-x+y,-x,z
x-y,-y,-z
-x,-x+y,-z
y,x,-z
-x,-y,-z
y,-x+y,-z
x-y,x,-z
-x+y,y,z
x,x-y,z
-y,-x,z
loop_
_atom_site_type_symbol
_atom_site_label
_atom_site_fract_x
_atom_site_fract_y
_atom_site_fract_z
Si Si1 0.666381 0.478021 0.745992
Si Si2 0.877526 0.607541 0.557487
Si Si3 0.599775 0.872764 0.747779
Si Si4 0.333947 0.522929 0.943122
Si Si5 0.051425 0.248084 0.873714
Si Si6 0.190223 0.234588 0.370735
O O1 0.731460 0.462919 0.721824
O O2 0.593616 0.406385 0.706598
O O3 0.673727 0.542355 0.651245
O O4 0.665076 0.500557 0.901658
O O5 0.803713 0.607425 0.551012
O O6 0.901035 0.599334 0.404610
O O7 0.937425 0.682649 0.622416
O O8 0.589887 0.794944 0.734444
O O9 0.536135 0.868363 0.840453
O O10 0.672415 0.924549 0.825242
O O11 0.267247 0.534493 0.919394
O O12 0.403692 0.596309 0.906505
O O13 0.118949 0.237898 0.908470
O O14 0.004247 0.194990 0.755394
O O15 0.000000 0.230711 0.000000
O O16 0.191188 0.191188 0.500000
O O17 0.115809 0.231618 0.362132
#
# Coordination Sequence:
#
# PCOD8323817 Si02
#       6
#    12  12  12  12  12  12
#     4   9  17  29  48  75 109 147 188 232 279 326
#     4   9  18  32  51  78 107 140 182 228 270 310
#     4   9  18  33  51  76 108 141 181 228 270 309
#     4   9  17  29  48  74 108 148 190 233 278 325
#     4  11  23  39  60  87 114 140 173 214 260 313
#     4  11  21  37  62  87 112 140 174 215 258 310
#
# _framework density 18.162828000000001
#
# number of rings (size 3 to 8) (size 9 to 14) (size 15 to 20)
#    0.000    2.333    1.667    1.333    2.333    2.000 
#    0.000    0.000    0.000   10.667    0.000    0.000 
#    0.000    0.000    0.000    0.000    0.000    0.000 
#
# Total GULP energy -892615.250861 kJ/mol
# GULP energy per Si atom -12397.434040 kJ/mol
# Density = 1.812149 g / cm^3
# Si number density = 18.162828 Si / 1000 Ang^3
#
#
#
# Elastic Constant Matrix: (Units=GPa)
#
#
# Indices 1 2 3 4 5 6 
#
# 1 70.1727 26.3406 31.6658 -2.2216 0.0000 0.0000
# 2 26.3406 70.1727 31.6658 2.2216 0.0000 0.0000
# 3 31.6658 31.6658 94.4970 0.0000 0.0000 0.0000
# 4 -2.2216 2.2216 0.0000 33.0079 0.0000 0.0000
# 5 0.0000 0.0000 0.0000 0.0000 33.0079 -2.2216
# 6 0.0000 0.0000 0.0000 0.0000 -2.2216 21.9160
#
#
#
# Elastic Compliance Matrix: (Units=1/GPa)
#
#
# Indices 1 2 3 4 5 6 
#
# 1 0.018126 -0.004845 -0.004451 0.001546 0.000000 0.000000
# 2 -0.004845 0.018126 -0.004451 -0.001546 0.000000 0.000000
# 3 -0.004451 -0.004451 0.013565 0.000000 0.000000 0.000000
# 4 0.001546 -0.001546 0.000000 0.030504 0.000000 0.000000
# 5 0.000000 0.000000 0.000000 0.000000 0.030504 0.003092
# 6 0.000000 0.000000 0.000000 0.000000 0.003092 0.045942
#
#
# Mechanical properties :
#
#
# Convention : Reuss Voigt Hill
#
# Bulk Modulus (GPa) = 44.79091 46.02075 45.40583
# Shear Modulus (GPa) = 26.08216 27.26440 26.67328
#
# Velocity S-wave (km/s) = 3.79359 3.87862 3.83634
# Velocity P-wave (km/s) = 6.62592 6.74175 6.68408
#
# Compressibility (1/GPa) = 0.02232596
#
# Stress axis : x y z
#
# Youngs Moduli (GPa) = 55.16809 55.16809 73.71810
#
# Poissons Ratio (x) = 0.26727 0.32810
# Poissons Ratio (y) = 0.26727 0.32810
# Poissons Ratio (z) = 0.24554 0.24554
#
# Static dielectric constant tensor:
#      x y z
#    x 3.283540 0.000000 0.000000 
#    y 0.000000 3.283540 0.000000 
#    z 0.000000 0.000000 3.596990 
# 
# 
# High freq. dielectric constant tensor:
#      x y z
#    x 1.688310 0.000000 0.000000 
#    y 0.000000 1.688310 0.000000 
#    z 0.000000 0.000000 1.715720 
# 
# From -- ./inp_files/1957.got.cif
#   From: 2010.03.12/outbox.cif.g09.slc.cpg/sg164_1_cif.got.tgz:1957.got - 2010.04.02 06:32:59.
