data_PCOD8323163
_publ_section_title
;
Structure prediction by ZEFSAII (Michael W. Deem and Ramdas Pophale) SiO2 
 PCOD8323163
Probable space group: P -3 1 M 
;
_chemical_formula_sum "Si O2"
_cell_formula_units_Z 72
_cell_length_a 22.667849
_cell_length_b 22.667849
_cell_length_c 8.817876
_cell_angle_alpha 90.000000
_cell_angle_beta 90.000000
_cell_angle_gamma 120.000000
_cell_volume 3923.875696
_symmetry_space_group_name_H-M "P -3 1 M "
_symmetry_group_IT_number 162
_symmetry_cell_setting 'hexagonal'
loop_
_space_group_symop_operation_xyz
x,y,z
-y,x-y,z
-x+y,-x,z
-y,-x,-z
-x+y,y,-z
x,x-y,-z
-x,-y,-z
y,-x+y,-z
x-y,x,-z
y,x,z
x-y,-y,z
-x,-x+y,z
loop_
_atom_site_type_symbol
_atom_site_label
_atom_site_fract_x
_atom_site_fract_y
_atom_site_fract_z
Si Si1 0.923180 0.199817 0.427784
Si Si2 0.074897 0.407572 0.070040
Si Si3 0.199817 0.923180 0.072216
Si Si4 0.667129 0.207417 0.930804
Si Si5 0.332675 0.407572 0.570041
Si Si6 0.540288 0.332872 0.569197
O O1 0.872406 0.127595 0.500000
O O2 0.911647 0.193199 0.249999
O O3 0.908985 0.258811 0.491226
O O4 0.000000 0.219161 0.469740
O O5 0.091015 0.349826 0.008773
O O6 0.132424 0.481955 0.014875
O O7 0.073760 0.404218 0.250000
O O8 0.000000 0.390775 0.010946
O O9 0.219161 0.000000 0.030258
O O10 0.127595 0.872406 0.000000
O O11 0.668657 0.214587 0.750000
O O12 0.739759 0.260242 0.000000
O O13 0.611432 0.222863 0.000000
O O14 0.390775 0.390775 0.510947
O O15 0.349532 0.481955 0.514876
O O16 0.611432 0.388569 0.500000
O O17 0.520483 0.260242 0.500000
#
# Coordination Sequence:
#
# PCOD8323163 Si02
#       6
#    12  12  12  12  12  12
#     4   9  17  30  49  73 100 129 161 197 240 290
#     4   8  16  32  53  76 101 128 157 196 249 299
#     4   9  17  30  49  73 100 129 161 197 240 290
#     4  11  22  36  54  74  99 131 168 206 243 288
#     4   8  16  32  53  76 101 128 157 196 249 299
#     4  11  22  36  54  74  99 131 168 206 243 288
#
# _framework density 18.349205000000001
#
# number of rings (size 3 to 8) (size 9 to 14) (size 15 to 20)
#    0.000    2.667    0.000    4.333    0.000    1.333 
#    0.000    1.667    0.000    7.333    0.000    0.000 
#    0.000    0.000    0.000    0.000    0.000    0.000 
#
# Total GULP energy -892535.296150 kJ/mol
# GULP energy per Si atom -12396.323558 kJ/mol
# Density = 1.830744 g / cm^3
# Si number density = 18.349205 Si / 1000 Ang^3
#
#
#
# Elastic Constant Matrix: (Units=GPa)
#
#
# Indices 1 2 3 4 5 6 
#
# 1 111.7617 55.2636 32.7087 0.0008 -0.0001 0.0000
# 2 55.2636 111.7617 32.7087 -0.0008 0.0001 0.0000
# 3 32.7087 32.7087 45.8948 0.0000 0.0000 0.0000
# 4 0.0008 -0.0008 0.0000 20.5625 0.0000 0.0001
# 5 -0.0001 0.0001 0.0000 0.0000 20.5625 0.0008
# 6 0.0000 0.0000 0.0000 0.0001 0.0008 28.2490
#
#
#
# Elastic Compliance Matrix: (Units=1/GPa)
#
#
# Indices 1 2 3 4 5 6 
#
# 1 0.013003 -0.004697 -0.005919 -0.000001 0.000000 0.000000
# 2 -0.004697 0.013003 -0.005919 0.000001 0.000000 0.000000
# 3 -0.005919 -0.005919 0.030226 0.000000 0.000000 0.000000
# 4 -0.000001 0.000001 0.000000 0.048632 0.000000 0.000000
# 5 0.000000 0.000000 0.000000 0.000000 0.048632 -0.000001
# 6 0.000000 0.000000 0.000000 0.000000 -0.000001 0.035399
#
#
# Mechanical properties :
#
#
# Convention : Reuss Voigt Hill
#
# Bulk Modulus (GPa) = 43.17760 56.75336 49.96548
# Shear Modulus (GPa) = 21.76884 23.79062 22.77973
#
# Velocity S-wave (km/s) = 3.44810 3.60467 3.52725
# Velocity P-wave (km/s) = 6.27970 6.95137 6.62406
#
# Compressibility (1/GPa) = 0.02316016
#
# Stress axis : x y z
#
# Youngs Moduli (GPa) = 76.90776 76.90776 33.08400
#
# Poissons Ratio (x) = 0.36125 0.19583
# Poissons Ratio (y) = 0.36125 0.19583
# Poissons Ratio (z) = 0.45523 0.45523
#
# Static dielectric constant tensor:
#      x y z
#    x 3.585250 0.000000 0.000000 
#    y 0.000000 3.585250 0.000000 
#    z 0.000000 0.000000 3.047330 
# 
# 
# High freq. dielectric constant tensor:
#      x y z
#    x 1.713960 0.000000 0.000000 
#    y 0.000000 1.713960 0.000000 
#    z 0.000000 0.000000 1.682510 
# 
# From -- ./inp_files/1742.got.cif
#   From: 2010.03.12/outbox.cif.g09.slc.cpg/sg162_1_cif.got.tgz:1742.got - 2010.04.02 06:27:41.
