data_PCOD8323261
_publ_section_title
;
Structure prediction by ZEFSAII (Michael W. Deem and Ramdas Pophale) SiO2 
 PCOD8323261
Probable space group: P -3 1 C
;
_chemical_formula_sum "Si O2"
_cell_formula_units_Z 42
_cell_length_a 9.627147
_cell_length_b 9.627147
_cell_length_c 26.734935
_cell_angle_alpha 90.000000
_cell_angle_beta 90.000000
_cell_angle_gamma 120.000000
_cell_volume 2145.877720
_symmetry_space_group_name_H-M "P -3 1 C"
_symmetry_group_IT_number 163
_symmetry_cell_setting 'hexagonal'
loop_
_space_group_symop_operation_xyz
x,y,z
-y,x-y,z
-x+y,-x,z
-y,-x,1/2-z
-x+y,y,1/2-z
x,x-y,1/2-z
-x,-y,-z
y,-x+y,-z
x-y,x,-z
y,x,1/2+z
x-y,-y,1/2+z
-x,-x+y,1/2+z
loop_
_atom_site_type_symbol
_atom_site_label
_atom_site_fract_x
_atom_site_fract_y
_atom_site_fract_z
Si Si1 0.166068 0.799296 0.090067
Si Si2 0.009742 0.523359 0.857876
Si Si3 0.127714 0.563857 0.750000
Si Si4 0.333334 0.666668 0.023035
Si Si5 0.666668 0.333334 0.095647
Si Si6 0.000000 0.000000 0.441275
O O1 0.236419 0.754934 0.041222
O O2 0.025773 0.640236 0.115072
O O3 0.099562 0.916969 0.077019
O O4 0.305119 0.875871 0.131347
O O5 0.015594 0.506666 0.798428
O O6 0.175679 0.660574 0.881661
O O7 0.242036 0.484072 0.750000
O O8 0.333334 0.666667 0.963710
O O9 0.000000 0.000000 0.500000
#
# Coordination Sequence:
#
# PCOD8323261 Si02
#       6
#    12  12   6   4   4   4
#     4  10  25  42  59  94 127 160 202 254 306 368
#     4  11  22  42  67  89 120 159 208 254 302 365
#     4  10  20  38  68  94 110 150 216 258 292 356
#     4   9  24  42  64  86 121 168 225 234 283 377
#     4  12  21  37  70  87 118 172 207 249 289 362
#     4  12  27  36  57  91 137 163 192 252 321 352
#
# _framework density 19.572412
#
# number of rings (size 3 to 8) (size 9 to 14) (size 15 to 20)
#    0.286    1.143    2.857    2.286    8.000    3.429 
#    0.000    0.000    0.000    0.000    0.000    0.000 
#    0.000    0.000    0.000    0.000    0.000    0.000 
#
# Total GULP energy -520847.462759 kJ/mol
# GULP energy per Si atom -12401.130066 kJ/mol
# Density = 1.952786 g / cm^3
# Si number density = 19.572412 Si / 1000 Ang^3
#
#
#
# Elastic Constant Matrix: (Units=GPa)
#
#
# Indices 1 2 3 4 5 6 
#
# 1 83.3574 33.5829 39.0381 -0.0006 5.7027 -0.0006
# 2 33.5829 83.3570 39.0391 0.0009 -5.7026 0.0002
# 3 39.0381 39.0391 177.6432 0.0012 0.0007 0.0008
# 4 -0.0006 0.0009 0.0012 13.6510 0.0007 -5.7018
# 5 5.7027 -5.7026 0.0007 0.0007 13.6502 0.0007
# 6 -0.0006 0.0002 0.0008 -5.7018 0.0007 24.8876
#
#
#
# Elastic Compliance Matrix: (Units=1/GPa)
#
#
# Indices 1 2 3 4 5 6 
#
# 1 0.016120 -0.006098 -0.002202 0.000002 -0.009282 0.000001
# 2 -0.006098 0.016120 -0.002203 -0.000002 0.009282 -0.000001
# 3 -0.002202 -0.002203 0.006597 -0.000001 0.000000 0.000000
# 4 0.000002 -0.000002 -0.000001 0.081006 -0.000007 0.018559
# 5 -0.009282 0.009282 0.000000 -0.000007 0.081014 -0.000004
# 6 0.000001 -0.000001 0.000000 0.018559 -0.000004 0.044432
#
#
# Mechanical properties :
#
#
# Convention : Reuss Voigt Hill
#
# Bulk Modulus (GPa) = 56.08086 63.07532 59.57809
# Shear Modulus (GPa) = 18.36625 25.95094 22.15859
#
# Velocity S-wave (km/s) = 3.06661 3.64523 3.36837
# Velocity P-wave (km/s) = 6.42293 7.07203 6.75528
#
# Compressibility (1/GPa) = 0.01783140
#
# Stress axis : x y z
#
# Youngs Moduli (GPa) = 62.03636 62.03556 151.57840
#
# Poissons Ratio (x) = 0.37828 0.33382
# Poissons Ratio (y) = 0.37829 0.33385
# Poissons Ratio (z) = 0.13662 0.13663
#
# Static dielectric constant tensor:
#      x y z
#    x 6.841830 -0.000230 -0.000040 
#    y -0.000230 6.841570 -0.000070 
#    z -0.000040 -0.000070 3.417920 
# 
# 
# High freq. dielectric constant tensor:
#      x y z
#    x 1.765660 0.000000 0.000000 
#    y 0.000000 1.765660 0.000000 
#    z 0.000000 0.000000 1.761770 
# 
# From -- ./inp_files/4283.got.cif
#   From: 2010.03.12/outbox.cif.g09.slc.cpg/sg163_3_cif.got.tgz:4283.got - 2010.04.02 06:30:25.
