data_PCOD8323039
_publ_section_title
;
Structure prediction by ZEFSAII (Michael W. Deem and Ramdas Pophale) SiO2 
 PCOD8323039
Probable space group: P -3 1 M 
;
_chemical_formula_sum "Si O2"
_cell_formula_units_Z 54
_cell_length_a 22.068857
_cell_length_b 22.068857
_cell_length_c 7.087043
_cell_angle_alpha 90.000000
_cell_angle_beta 90.000000
_cell_angle_gamma 120.000000
_cell_volume 2989.202802
_symmetry_space_group_name_H-M "P -3 1 M "
_symmetry_group_IT_number 162
_symmetry_cell_setting 'hexagonal'
loop_
_space_group_symop_operation_xyz
x,y,z
-y,x-y,z
-x+y,-x,z
-y,-x,-z
-x+y,y,-z
x,x-y,-z
-x,-y,-z
y,-x+y,-z
x-y,x,-z
y,x,z
x-y,-y,z
-x,-x+y,z
loop_
_atom_site_type_symbol
_atom_site_label
_atom_site_fract_x
_atom_site_fract_y
_atom_site_fract_z
Si Si1 0.150605 0.849396 0.223976
Si Si2 0.000000 0.605245 0.224152
Si Si3 0.115793 0.490151 0.500003
Si Si4 0.787002 0.574003 0.500000
Si Si5 0.743934 0.000000 0.221516
Si Si6 0.256065 0.256065 0.778480
Si Si7 0.605246 0.000000 0.775842
O O1 0.189027 0.810976 0.313473
O O2 0.070105 0.812230 0.295423
O O3 0.187769 0.929895 0.295425
O O4 0.156314 0.843687 0.000000
O O5 0.930904 0.540881 0.311788
O O6 0.000000 0.596082 0.999997
O O7 0.000000 0.675021 0.290056
O O8 0.147059 0.573530 0.500000
O O9 0.180156 0.476178 0.500004
O O10 0.069096 0.459118 0.311794
O O11 0.745699 0.000000 0.999998
O O12 0.324978 0.324978 0.709939
#
# Coordination Sequence:
#
# PCOD8323039 Si02
#       7
#    12   6  12   6   6   6   6
#     4  10  20  34  54  81 110 142 182 222 267 318
#     4  10  19  36  60  83 109 138 169 222 285 325
#     4  11  24  37  53  82 110 138 182 221 266 335
#     4  12  22  36  58  72 106 145 176 221 268 310
#     4   9  17  31  54  81 109 139 175 218 265 317
#     4   9  17  31  54  81 109 139 175 218 265 317
#     4  10  19  36  60  83 109 138 169 222 285 325
#
# _framework density 18.065018999999999
#
# number of rings (size 3 to 8) (size 9 to 14) (size 15 to 20)
#    0.000    1.778    4.444    1.333    0.000    2.667 
#    0.667    0.000    0.000    0.444    0.000    3.111 
#    0.000    1.778    0.000    0.222    0.000    0.000 
#
# Total GULP energy -669414.975040 kJ/mol
# GULP energy per Si atom -12396.573612 kJ/mol
# Density = 1.802390 g / cm^3
# Si number density = 18.065019 Si / 1000 Ang^3
#
#
#
# Elastic Constant Matrix: (Units=GPa)
#
#
# Indices 1 2 3 4 5 6 
#
# 1 155.1747 85.6443 28.6154 0.0000 0.0000 0.0000
# 2 85.6443 155.1747 28.6154 0.0000 0.0000 0.0000
# 3 28.6154 28.6154 106.2283 0.0000 0.0000 0.0000
# 4 0.0000 0.0000 0.0000 8.2346 0.0000 0.0000
# 5 0.0000 0.0000 0.0000 0.0000 8.2346 0.0000
# 6 0.0000 0.0000 0.0000 0.0000 0.0000 34.7652
#
#
#
# Elastic Compliance Matrix: (Units=1/GPa)
#
#
# Indices 1 2 3 4 5 6 
#
# 1 0.009409 -0.004973 -0.001195 0.000000 0.000000 0.000000
# 2 -0.004973 0.009409 -0.001195 0.000000 0.000000 0.000000
# 3 -0.001195 -0.001195 0.010058 0.000000 0.000000 0.000000
# 4 0.000000 0.000000 0.000000 0.121439 0.000000 0.000000
# 5 0.000000 0.000000 0.000000 0.000000 0.121439 0.000000
# 6 0.000000 0.000000 0.000000 0.000000 0.000000 0.028764
#
#
# Mechanical properties :
#
#
# Convention : Reuss Voigt Hill
#
# Bulk Modulus (GPa) = 70.67037 78.03644 74.35340
# Shear Modulus (GPa) = 15.62690 28.49373 22.06031
#
# Velocity S-wave (km/s) = 2.94434 3.97582 3.49830
# Velocity P-wave (km/s) = 7.12487 8.02293 7.58720
#
# Compressibility (1/GPa) = 0.01415020
#
# Stress axis : x y z
#
# Youngs Moduli (GPa) = 106.27729 106.27729 99.42780
#
# Poissons Ratio (x) = 0.52850 0.11883
# Poissons Ratio (y) = 0.52850 0.11883
# Poissons Ratio (z) = 0.12701 0.12701
#
# Static dielectric constant tensor:
#      x y z
#    x 3.528580 0.000000 0.000000 
#    y 0.000000 3.528580 0.000000 
#    z 0.000000 0.000000 3.337330 
# 
# 
# High freq. dielectric constant tensor:
#      x y z
#    x 1.686440 0.000000 0.000000 
#    y 0.000000 1.686440 0.000000 
#    z 0.000000 0.000000 1.711740 
# 
# From -- ./inp_files/1510.got.cif
#   From: 2010.03.12/outbox.cif.g09.slc.cpg/sg162_1_cif.got.tgz:1510.got - 2010.04.02 06:27:41.
