data_PCOD8323588
_publ_section_title
;
Structure prediction by ZEFSAII (Michael W. Deem and Ramdas Pophale) SiO2 
 PCOD8323588
Probable space group: P -3 M 1
;
_chemical_formula_sum "Si O2"
_cell_formula_units_Z 84
_cell_length_a 17.532695
_cell_length_b 17.532695
_cell_length_c 14.014544
_cell_angle_alpha 90.000000
_cell_angle_beta 90.000000
_cell_angle_gamma 120.000000
_cell_volume 3730.842873
_symmetry_space_group_name_H-M "P -3 M 1"
_symmetry_group_IT_number 164
_symmetry_cell_setting 'hexagonal'
loop_
_space_group_symop_operation_xyz
x,y,z
-y,x-y,z
-x+y,-x,z
x-y,-y,-z
-x,-x+y,-z
y,x,-z
-x,-y,-z
y,-x+y,-z
x-y,x,-z
-x+y,y,z
x,x-y,z
-y,-x,z
loop_
_atom_site_type_symbol
_atom_site_label
_atom_site_fract_x
_atom_site_fract_y
_atom_site_fract_z
Si Si1 0.336071 0.494118 0.734311
Si Si2 0.488581 0.332589 0.948515
Si Si3 0.228597 0.030580 0.600978
Si Si4 0.609669 0.613171 0.604952
Si Si5 0.827399 0.826512 0.187832
Si Si6 0.731282 0.642321 0.107306
Si Si7 0.836817 0.502672 0.731776
O O1 0.243175 0.486349 0.712200
O O2 0.405974 0.594027 0.763766
O O3 0.370109 0.466833 0.641993
O O4 0.332141 0.428632 0.816050
O O5 0.512146 0.256073 0.972904
O O6 0.573277 0.426724 0.975700
O O7 0.461223 0.328524 0.838654
O O8 0.400127 0.314937 0.005520
O O9 0.273739 0.136870 0.606373
O O10 0.296728 0.996849 0.602107
O O11 0.174836 0.000000 0.500000
O O12 0.171284 0.990293 0.696711
O O13 0.576230 0.576230 0.500000
O O14 0.622118 0.543229 0.665106
O O15 0.922312 0.844624 0.151947
O O16 0.748187 0.739684 0.135105
O O17 0.813606 0.906803 0.155575
O O18 0.825870 0.651739 0.113344
O O19 0.762529 0.525058 0.695897
O O20 0.794195 0.397098 0.732995
#
# Coordination Sequence:
#
# PCOD8323588 Si02
#       7
#    12  12  12  12  12  12  12
#     4  11  23  40  63  90 123 162 209 263 319 383
#     4   9  17  32  59  94 130 166 207 261 323 385
#     4  10  20  34  57  86 119 161 212 268 324 379
#     4  11  24  41  62  88 124 167 215 261 315 378
#     4  10  19  33  55  87 127 169 213 262 319 381
#     4   9  18  34  57  87 124 164 205 254 312 375
#     4  10  21  39  64  96 131 167 211 264 325 389
#
# _framework density 22.515018999999999
#
# number of rings (size 3 to 8) (size 9 to 14) (size 15 to 20)
#    0.000    2.000    1.429    2.286    0.000    5.143 
#    0.000    2.143    0.000    7.429    0.000    0.000 
#    0.000    0.000    0.000   11.571    0.000    4.429 
#
# Total GULP energy -1041114.499515 kJ/mol
# GULP energy per Si atom -12394.220232 kJ/mol
# Density = 2.246377 g / cm^3
# Si number density = 22.515019 Si / 1000 Ang^3
#
#
#
# Elastic Constant Matrix: (Units=GPa)
#
#
# Indices 1 2 3 4 5 6 
#
# 1 124.0545 52.9013 53.6657 -2.4429 0.0000 0.0000
# 2 52.9013 124.0545 53.6657 2.4429 0.0000 0.0000
# 3 53.6657 53.6657 122.2834 0.0000 0.0000 0.0000
# 4 -2.4429 2.4429 0.0000 21.9746 0.0000 0.0000
# 5 0.0000 0.0000 0.0000 0.0000 21.9746 -2.4429
# 6 0.0000 0.0000 0.0000 0.0000 -2.4429 35.5766
#
#
#
# Elastic Compliance Matrix: (Units=1/GPa)
#
#
# Indices 1 2 3 4 5 6 
#
# 1 0.010932 -0.003231 -0.003380 0.001574 0.000000 0.000000
# 2 -0.003231 0.010932 -0.003380 -0.001574 0.000000 0.000000
# 3 -0.003380 -0.003380 0.011144 0.000000 0.000000 0.000000
# 4 0.001574 -0.001574 0.000000 0.045857 0.000000 0.000000
# 5 0.000000 0.000000 0.000000 0.000000 0.045857 0.003149
# 6 0.000000 0.000000 0.000000 0.000000 0.003149 0.028325
#
#
# Mechanical properties :
#
#
# Convention : Reuss Voigt Hill
#
# Bulk Modulus (GPa) = 76.76090 76.76199 76.76144
# Shear Modulus (GPa) = 28.18982 29.91581 29.05281
#
# Velocity S-wave (km/s) = 3.54226 3.64909 3.59608
# Velocity P-wave (km/s) = 7.13424 7.20571 7.17006
#
# Compressibility (1/GPa) = 0.01302747
#
# Stress axis : x y z
#
# Youngs Moduli (GPa) = 91.47726 91.47726 89.73285
#
# Poissons Ratio (x) = 0.29553 0.30327
# Poissons Ratio (y) = 0.29553 0.30327
# Poissons Ratio (z) = 0.30917 0.30917
#
# Static dielectric constant tensor:
#      x y z
#    x 4.006110 0.000000 0.000000 
#    y 0.000000 4.006110 0.000000 
#    z 0.000000 0.000000 4.348890 
# 
# 
# High freq. dielectric constant tensor:
#      x y z
#    x 1.887230 0.000000 0.000000 
#    y 0.000000 1.887230 0.000000 
#    z 0.000000 0.000000 1.886090 
# 
# From -- ./inp_files/3587.got.cif
#   From: 2010.03.12/outbox.cif.g09.slc.cpg/sg164_2_cif.got.tgz:3587.got - 2010.04.02 06:32:59.
