data_PCOD8323915
_publ_section_title
;
Structure prediction by ZEFSAII (Michael W. Deem and Ramdas Pophale) SiO2 
 PCOD8323915
Probable space group: P -3 C 1
;
_chemical_formula_sum "Si O2"
_cell_formula_units_Z 66
_cell_length_a 20.925390
_cell_length_b 20.925390
_cell_length_c 9.141621
_cell_angle_alpha 90.000000
_cell_angle_beta 90.000000
_cell_angle_gamma 120.000000
_cell_volume 3466.577913
_symmetry_space_group_name_H-M "P -3 C 1"
_symmetry_group_IT_number 165
_symmetry_cell_setting 'hexagonal'
loop_
_space_group_symop_operation_xyz
x,y,z
-y,x-y,z
-x+y,-x,z
x-y,-y,1/2-z
-x,-x+y,1/2-z
y,x,1/2-z
-x,-y,-z
y,-x+y,-z
x-y,x,-z
-x+y,y,1/2+z
x,x-y,1/2+z
-y,-x,1/2+z
loop_
_atom_site_type_symbol
_atom_site_label
_atom_site_fract_x
_atom_site_fract_y
_atom_site_fract_z
Si Si1 0.294699 0.198984 0.104426
Si Si2 0.539575 0.689649 0.550390
Si Si3 0.902588 0.478909 0.997698
Si Si4 0.464278 0.190025 0.620928
Si Si5 0.069872 0.289949 0.560521
Si Si6 0.000000 0.508182 0.750000
O O1 0.381405 0.250945 0.074266
O O2 0.277703 0.190167 0.275253
O O3 0.252903 0.236563 0.024464
O O4 0.267296 0.117440 0.042651
O O5 0.491464 0.603278 0.523131
O O6 0.521304 0.711477 0.707303
O O7 0.517111 0.728615 0.424684
O O8 0.625746 0.714992 0.537162
O O9 0.828947 0.482256 0.025104
O O10 0.953959 0.514724 0.140768
O O11 0.945233 0.524016 0.850457
#
# Coordination Sequence:
#
# PCOD8323915 Si02
#       6
#    12  12  12  12  12   6
#     4   9  19  35  55  80 111 143 174 216 268 320
#     4  10  22  38  57  80 111 147 187 234 282 337
#     4  11  22  40  56  86 114 146 192 236 292 344
#     4  10  22  38  57  80 111 147 187 234 282 337
#     4   9  19  35  55  80 111 143 174 216 268 320
#     4  10  24  34  60  86 112 146 184 238 294 346
#
# _framework density 19.038947
#
# number of rings (size 3 to 8) (size 9 to 14) (size 15 to 20)
#    0.000    2.182    1.818    0.000    7.636    0.727 
#    1.091    0.000    0.000    0.364    0.000    0.000 
#    0.000    0.000    0.000    0.000    0.000    0.000 
#
# Total GULP energy -818319.162354 kJ/mol
# GULP energy per Si atom -12398.775187 kJ/mol
# Density = 1.899561 g / cm^3
# Si number density = 19.038947 Si / 1000 Ang^3
#
#
#
# Elastic Constant Matrix: (Units=GPa)
#
#
# Indices 1 2 3 4 5 6 
#
# 1 84.2111 41.3676 28.9121 2.0035 0.0000 0.0000
# 2 41.3676 84.2111 28.9121 -2.0035 0.0000 0.0000
# 3 28.9121 28.9121 79.3753 0.0000 0.0000 0.0000
# 4 2.0035 -2.0035 0.0000 26.4745 0.0000 0.0000
# 5 0.0000 0.0000 0.0000 0.0000 26.4745 2.0035
# 6 0.0000 0.0000 0.0000 0.0000 2.0035 21.4217
#
#
#
# Elastic Compliance Matrix: (Units=1/GPa)
#
#
# Indices 1 2 3 4 5 6 
#
# 1 0.016538 -0.006970 -0.003485 -0.001779 0.000000 0.000000
# 2 -0.006970 0.016538 -0.003485 0.001779 0.000000 0.000000
# 3 -0.003485 -0.003485 0.015137 0.000000 0.000000 0.000000
# 4 -0.001779 0.001779 0.000000 0.038041 0.000000 0.000000
# 5 0.000000 0.000000 0.000000 0.000000 0.038041 -0.003558
# 6 0.000000 0.000000 0.000000 0.000000 -0.003558 0.047014
#
#
# Mechanical properties :
#
#
# Convention : Reuss Voigt Hill
#
# Bulk Modulus (GPa) = 49.18177 49.57566 49.37871
# Shear Modulus (GPa) = 24.27579 24.78119 24.52849
#
# Velocity S-wave (km/s) = 3.57467 3.61169 3.59323
# Velocity P-wave (km/s) = 6.55179 6.59454 6.57320
#
# Compressibility (1/GPa) = 0.02033274
#
# Stress axis : x y z
#
# Youngs Moduli (GPa) = 60.46862 60.46862 66.06242
#
# Poissons Ratio (x) = 0.42144 0.23023
# Poissons Ratio (y) = 0.42144 0.23023
# Poissons Ratio (z) = 0.21074 0.21074
#
# Static dielectric constant tensor:
#      x y z
#    x 3.358530 0.000000 0.000000 
#    y 0.000000 3.358530 0.000000 
#    z 0.000000 0.000000 3.675430 
# 
# 
# High freq. dielectric constant tensor:
#      x y z
#    x 1.723190 0.000000 0.000000 
#    y 0.000000 1.723190 0.000000 
#    z 0.000000 0.000000 1.751600 
# 
# From -- ./inp_files/697.got.cif
#   From: 2010.03.12/outbox.cif.g09.slc.cpg/sg165_1_cif.got.tgz:697.got - 2010.04.02 06:36:38.
