data_PCOD8323727
_publ_section_title
;
Structure prediction by ZEFSAII (Michael W. Deem and Ramdas Pophale) SiO2 
 PCOD8323727
Probable space group: P -3 M 1
;
_chemical_formula_sum "Si O2"
_cell_formula_units_Z 54
_cell_length_a 12.483415
_cell_length_b 12.483415
_cell_length_c 22.972910
_cell_angle_alpha 90.000000
_cell_angle_beta 90.000000
_cell_angle_gamma 120.000000
_cell_volume 3100.369528
_symmetry_space_group_name_H-M "P -3 M 1"
_symmetry_group_IT_number 164
_symmetry_cell_setting 'hexagonal'
loop_
_space_group_symop_operation_xyz
x,y,z
-y,x-y,z
-x+y,-x,z
x-y,-y,-z
-x,-x+y,-z
y,x,-z
-x,-y,-z
y,-x+y,-z
x-y,x,-z
-x+y,y,z
x,x-y,z
-y,-x,z
loop_
_atom_site_type_symbol
_atom_site_label
_atom_site_fract_x
_atom_site_fract_y
_atom_site_fract_z
Si Si1 0.753925 0.753865 0.433950
Si Si2 0.251136 0.000000 0.000000
Si Si3 0.667958 0.083369 0.110609
Si Si4 0.085720 0.667740 0.670520
Si Si5 0.750939 0.001526 0.220402
O O1 0.710611 0.710611 0.500000
O O2 0.737628 0.868814 0.416211
O O3 0.669310 0.638722 0.392579
O O4 0.898025 0.796050 0.426274
O O5 0.320370 0.989977 0.943678
O O6 0.117055 0.882946 0.007933
O O7 0.538012 0.076023 0.107064
O O8 0.773959 0.226042 0.109827
O O9 0.672954 0.017365 0.169362
O O10 0.070286 0.535143 0.681720
O O11 0.230198 0.769803 0.674548
O O12 0.008380 0.693517 0.718396
O O13 0.894501 0.105500 0.215820
O O14 0.739518 0.869759 0.214253
#
# Coordination Sequence:
#
# PCOD8323727 Si02
#       5
#    12   6  12  12  12
#     4   9  17  30  50  75 100 126 158 200 249 296
#     4  10  20  34  54  78 104 134 168 210 256 298
#     4  10  20  34  53  76 103 135 169 204 242 289
#     4  10  20  33  50  71  97 130 166 203 241 286
#     4  10  20  34  54  78 102 128 160 203 252 298
#
# _framework density 17.417279000000001
#
# number of rings (size 3 to 8) (size 9 to 14) (size 15 to 20)
#    0.000    2.222    0.000    3.333    0.000    1.333 
#    0.000    6.667    0.000   13.778    0.000    0.000 
#    0.000    0.000    0.000    0.000    0.000    0.000 
#
# Total GULP energy -669789.574790 kJ/mol
# GULP energy per Si atom -12403.510644 kJ/mol
# Density = 1.737764 g / cm^3
# Si number density = 17.417279 Si / 1000 Ang^3
#
#
#
# Elastic Constant Matrix: (Units=GPa)
#
#
# Indices 1 2 3 4 5 6 
#
# 1 90.8053 54.6549 42.0241 -3.7179 0.0000 0.0000
# 2 54.6549 90.8053 42.0241 3.7179 0.0000 0.0000
# 3 42.0241 42.0241 111.3882 0.0000 0.0000 0.0000
# 4 -3.7179 3.7179 0.0000 17.1546 0.0000 0.0000
# 5 0.0000 0.0000 0.0000 0.0000 17.1546 -3.7179
# 6 0.0000 0.0000 0.0000 0.0000 -3.7179 18.0752
#
#
#
# Elastic Compliance Matrix: (Units=1/GPa)
#
#
# Indices 1 2 3 4 5 6 
#
# 1 0.018872 -0.010081 -0.003317 0.006275 0.000000 0.000000
# 2 -0.010081 0.018872 -0.003317 -0.006275 0.000000 0.000000
# 3 -0.003317 -0.003317 0.011480 0.000000 0.000000 0.000000
# 4 0.006275 -0.006275 0.000000 0.061013 0.000000 0.000000
# 5 0.000000 0.000000 0.000000 0.000000 0.061013 0.012550
# 6 0.000000 0.000000 0.000000 0.000000 0.012550 0.057906
#
#
# Mechanical properties :
#
#
# Convention : Reuss Voigt Hill
#
# Bulk Modulus (GPa) = 63.30811 63.37832 63.34321
# Shear Modulus (GPa) = 18.66712 20.76325 19.71518
#
# Velocity S-wave (km/s) = 3.27732 3.45644 3.36807
# Velocity P-wave (km/s) = 7.12376 7.23854 7.18138
#
# Compressibility (1/GPa) = 0.01579577
#
# Stress axis : x y z
#
# Youngs Moduli (GPa) = 52.98841 52.98841 87.10629
#
# Poissons Ratio (x) = 0.53417 0.28890
# Poissons Ratio (y) = 0.53417 0.28890
# Poissons Ratio (z) = 0.17575 0.17575
#
# Static dielectric constant tensor:
#      x y z
#    x 3.083440 0.000000 0.000000 
#    y 0.000000 3.083440 0.000000 
#    z 0.000000 0.000000 3.523610 
# 
# 
# High freq. dielectric constant tensor:
#      x y z
#    x 1.665190 0.000000 0.000000 
#    y 0.000000 1.665190 0.000000 
#    z 0.000000 0.000000 1.694060 
# 
# From -- ./inp_files/4843.got.cif
#   From: 2010.03.12/outbox.cif.g09.slc.cpg/sg164_3_cif.got.tgz:4843.got - 2010.04.02 06:32:59.
