data_PCOD8323835
_publ_section_title
;
Structure prediction by ZEFSAII (Michael W. Deem and Ramdas Pophale) SiO2 
 PCOD8323835
Probable space group: P -3 M 1
;
_chemical_formula_sum "Si O2"
_cell_formula_units_Z 72
_cell_length_a 26.963950
_cell_length_b 26.963950
_cell_length_c 11.865295
_cell_angle_alpha 90.000000
_cell_angle_beta 90.000000
_cell_angle_gamma 120.000000
_cell_volume 7470.956338
_symmetry_space_group_name_H-M "P -3 M 1"
_symmetry_group_IT_number 164
_symmetry_cell_setting 'hexagonal'
loop_
_space_group_symop_operation_xyz
x,y,z
-y,x-y,z
-x+y,-x,z
x-y,-y,-z
-x,-x+y,-z
y,x,-z
-x,-y,-z
y,-x+y,-z
x-y,x,-z
-x+y,y,z
x,x-y,z
-y,-x,z
loop_
_atom_site_type_symbol
_atom_site_label
_atom_site_fract_x
_atom_site_fract_y
_atom_site_fract_z
Si Si1 0.448377 0.781585 0.130060
Si Si2 0.591606 0.526424 0.499999
Si Si3 0.559192 0.559193 0.873797
Si Si4 0.781585 0.448377 0.130055
Si Si5 0.891714 0.504840 0.262358
Si Si6 0.504841 0.613125 0.262361
O O1 0.384487 0.768974 0.153585
O O2 0.450436 0.725218 0.162085
O O3 0.494410 0.832247 0.209681
O O4 0.465154 0.799331 0.000003
O O5 0.579744 0.579744 0.500000
O O6 0.530978 0.469023 0.499998
O O7 0.627941 0.528031 0.390448
O O8 0.627941 0.528032 0.609548
O O9 0.500001 0.500000 0.872731
O O10 0.552075 0.608067 0.811367
O O11 0.608068 0.552078 0.811365
O O12 0.580108 0.580108 0.000000
O O13 0.725217 0.450434 0.162079
O O14 0.768975 0.384488 0.153581
O O15 0.832246 0.494411 0.209677
O O16 0.892462 0.446231 0.257341
O O17 0.446234 0.553767 0.257345
#
# Coordination Sequence:
#
# PCOD8323835 Si02
#       6
#    12  12  12  12  12  12
#     4   9  16  25  35  45  57  74  95 116 136 158
#     4   9  14  22  33  44  58  74  87 101 127 164
#     4   9  14  19  29  45  61  70  79 103 137 167
#     4   9  16  25  35  45  57  74  95 116 136 158
#     4   9  15  22  32  45  58  71  88 108 132 161
#     4   9  15  22  32  45  58  71  88 108 132 161
#
# _framework density 9.637321
#
# number of rings (size 3 to 8) (size 9 to 14) (size 15 to 20)
#    0.000    3.000    1.667    1.333    0.000    5.333 
#    0.000    0.833    0.000    0.000    0.000    2.333 
#    0.000    0.000    0.000    0.000    0.000    0.000 
#
# Total GULP energy -892433.942237 kJ/mol
# GULP energy per Si atom -12394.915864 kJ/mol
# Density = 0.961539 g / cm^3
# Si number density = 9.637321 Si / 1000 Ang^3
#
#
#
# Elastic Constant Matrix: (Units=GPa)
#
#
# Indices 1 2 3 4 5 6 
#
# 1 40.5074 29.0751 34.2502 0.0000 0.0000 0.0000
# 2 29.0751 40.5074 34.2502 0.0000 0.0000 0.0000
# 3 34.2502 34.2502 91.2499 0.0000 0.0000 0.0000
# 4 0.0000 0.0000 0.0000 11.7784 0.0000 0.0000
# 5 0.0000 0.0000 0.0000 0.0000 11.7784 0.0000
# 6 0.0000 0.0000 0.0000 0.0000 0.0000 5.7161
#
#
#
# Elastic Compliance Matrix: (Units=1/GPa)
#
#
# Indices 1 2 3 4 5 6 
#
# 1 0.055133 -0.032339 -0.008556 0.000000 0.000000 0.000000
# 2 -0.032339 0.055133 -0.008556 0.000000 0.000000 0.000000
# 3 -0.008556 -0.008556 0.017382 0.000000 0.000000 0.000000
# 4 0.000000 0.000000 0.000000 0.084901 0.000000 0.000000
# 5 0.000000 0.000000 0.000000 0.000000 0.084901 -0.000001
# 6 0.000000 0.000000 0.000000 0.000000 -0.000001 0.174943
#
#
# Mechanical properties :
#
#
# Convention : Reuss Voigt Hill
#
# Bulk Modulus (GPa) = 34.78613 40.82395 37.80504
# Shear Modulus (GPa) = 8.60771 10.83388 9.72079
#
# Velocity S-wave (km/s) = 2.99183 3.35649 3.17939
# Velocity P-wave (km/s) = 6.93601 7.58113 7.26574
#
# Compressibility (1/GPa) = 0.02874709
#
# Stress axis : x y z
#
# Youngs Moduli (GPa) = 18.13802 18.13802 57.53236
#
# Poissons Ratio (x) = 0.58656 0.49222
# Poissons Ratio (y) = 0.58656 0.49222
# Poissons Ratio (z) = 0.15518 0.15518
#
# Static dielectric constant tensor:
#      x y z
#    x 1.976630 0.000000 0.000000 
#    y 0.000000 1.976630 0.000000 
#    z 0.000000 0.000000 2.377680 
# 
# 
# High freq. dielectric constant tensor:
#      x y z
#    x 1.325260 0.000000 0.000000 
#    y 0.000000 1.325260 0.000000 
#    z 0.000000 0.000000 1.376460 
# 
# From -- ./inp_files/2968.got.cif
#   From: 2010.03.12/outbox.cif.g09.slc.cpg/sg164_2_cif.got.tgz:2968.got - 2010.04.02 06:32:59.
