data_PCOD8323077
_publ_section_title
;
Structure prediction by ZEFSAII (Michael W. Deem and Ramdas Pophale) SiO2 
 PCOD8323077
Probable space group: P -3 1 M 
;
_chemical_formula_sum "Si O2"
_cell_formula_units_Z 84
_cell_length_a 19.156946
_cell_length_b 19.156946
_cell_length_c 13.434433
_cell_angle_alpha 90.000000
_cell_angle_beta 90.000000
_cell_angle_gamma 120.000000
_cell_volume 4269.750751
_symmetry_space_group_name_H-M "P -3 1 M "
_symmetry_group_IT_number 162
_symmetry_cell_setting 'hexagonal'
loop_
_space_group_symop_operation_xyz
x,y,z
-y,x-y,z
-x+y,-x,z
-y,-x,-z
-x+y,y,-z
x,x-y,-z
-x,-y,-z
y,-x+y,-z
x-y,x,-z
y,x,z
x-y,-y,z
-x,-x+y,z
loop_
_atom_site_type_symbol
_atom_site_label
_atom_site_fract_x
_atom_site_fract_y
_atom_site_fract_z
Si Si1 0.089700 0.758197 0.459035
Si Si2 0.910453 0.177663 0.087588
Si Si3 0.574659 0.908437 0.943270
Si Si4 0.903291 0.510876 0.740883
Si Si5 0.680278 0.910353 0.228207
Si Si6 0.174634 0.666674 0.531131
Si Si7 0.371432 0.904229 0.847552
O O1 0.155019 0.844982 0.500000
O O2 0.085374 0.774186 0.344820
O O3 0.115227 0.690380 0.475072
O O4 0.000000 0.724348 0.506078
O O5 0.900961 0.248178 0.034408
O O6 0.859003 0.144224 0.186834
O O7 0.000000 0.208319 0.125033
O O8 0.887695 0.112306 0.000000
O O9 0.541375 0.871995 0.834255
O O10 0.594747 0.000000 0.933368
O O11 0.513108 0.870428 0.037627
O O12 0.847789 0.507719 0.648511
O O13 0.877880 0.420416 0.775005
O O14 0.000000 0.566173 0.717024
O O15 0.586425 0.870314 0.200462
O O16 0.731537 0.000000 0.181725
O O17 0.266269 0.733732 0.500000
O O18 0.156899 0.578450 0.500000
O O19 0.416970 0.000000 0.853249
#
# Coordination Sequence:
#
# PCOD8323077 Si02
#       7
#    12  12  12  12  12  12  12
#     4  10  23  40  62  90 122 155 200 260 315 365
#     4  11  21  34  56  84 119 158 194 236 288 353
#     4   9  18  31  51  84 118 145 178 230 293 357
#     4  10  20  34  57  85 114 149 194 246 303 361
#     4  10  20  36  56  82 113 151 194 239 300 358
#     4  11  24  41  59  82 116 161 212 261 309 362
#     4   9  16  31  55  83 115 146 180 231 296 364
#
# _framework density 19.673279999999998
#
# number of rings (size 3 to 8) (size 9 to 14) (size 15 to 20)
#    0.000    2.000    1.429    2.286    4.000    4.571 
#    0.000    0.000    0.000    2.714    0.000    0.000 
#    0.000    0.000    0.000    0.000    0.000    0.000 
#
# Total GULP energy -1040774.099225 kJ/mol
# GULP energy per Si atom -12390.167848 kJ/mol
# Density = 1.962850 g / cm^3
# Si number density = 19.673280 Si / 1000 Ang^3
#
#
#
# Elastic Constant Matrix: (Units=GPa)
#
#
# Indices 1 2 3 4 5 6 
#
# 1 96.2065 49.9760 33.7701 0.0000 4.9936 0.0000
# 2 49.9760 96.2065 33.7701 0.0000 -4.9936 0.0000
# 3 33.7701 33.7701 96.9300 0.0000 0.0000 0.0000
# 4 0.0000 0.0000 0.0000 30.5662 0.0000 -4.9936
# 5 4.9936 -4.9936 0.0000 0.0000 30.5662 0.0000
# 6 0.0000 0.0000 0.0000 -4.9936 0.0000 23.1152
#
#
#
# Elastic Compliance Matrix: (Units=1/GPa)
#
#
# Indices 1 2 3 4 5 6 
#
# 1 0.015288 -0.007134 -0.002841 0.000000 -0.003663 0.000000
# 2 -0.007134 0.015288 -0.002841 0.000000 0.003663 0.000000
# 3 -0.002841 -0.002841 0.012296 0.000000 0.000000 0.000000
# 4 0.000000 0.000000 0.000000 0.033913 0.000000 0.007326
# 5 -0.003663 0.003663 0.000000 0.000000 0.033913 0.000000
# 6 0.000000 0.000000 0.000000 0.007326 0.000000 0.044844
#
#
# Mechanical properties :
#
#
# Convention : Reuss Voigt Hill
#
# Bulk Modulus (GPa) = 58.00406 58.26395 58.13400
# Shear Modulus (GPa) = 26.74957 28.30463 27.52710
#
# Velocity S-wave (km/s) = 3.69140 3.79718 3.74466
# Velocity P-wave (km/s) = 6.90769 6.99320 6.95058
#
# Compressibility (1/GPa) = 0.01724017
#
# Stress axis : x y z
#
# Youngs Moduli (GPa) = 65.41232 65.41232 81.32733
#
# Poissons Ratio (x) = 0.46668 0.23101
# Poissons Ratio (y) = 0.46668 0.23101
# Poissons Ratio (z) = 0.18581 0.18581
#
# Static dielectric constant tensor:
#      x y z
#    x 3.744800 0.000000 0.000000 
#    y 0.000000 3.744800 0.000000 
#    z 0.000000 0.000000 3.682640 
# 
# 
# High freq. dielectric constant tensor:
#      x y z
#    x 1.745650 0.000000 0.000000 
#    y 0.000000 1.745650 0.000000 
#    z 0.000000 0.000000 1.781630 
# 
# From -- ./inp_files/3182.got.cif
#   From: 2010.03.12/outbox.cif.g09.slc.cpg/sg162_2_cif.got.tgz:3182.got - 2010.04.02 06:27:41.
