data_PCOD8323529
_publ_section_title
;
Structure prediction by ZEFSAII (Michael W. Deem and Ramdas Pophale) SiO2 
 PCOD8323529
Probable space group: P -3 M 1
;
_chemical_formula_sum "Si O2"
_cell_formula_units_Z 96
_cell_length_a 17.766712
_cell_length_b 17.766712
_cell_length_c 21.558716
_cell_angle_alpha 90.000000
_cell_angle_beta 90.000000
_cell_angle_gamma 120.000000
_cell_volume 5893.423467
_symmetry_space_group_name_H-M "P -3 M 1"
_symmetry_group_IT_number 164
_symmetry_cell_setting 'hexagonal'
loop_
_space_group_symop_operation_xyz
x,y,z
-y,x-y,z
-x+y,-x,z
x-y,-y,-z
-x,-x+y,-z
y,x,-z
-x,-y,-z
y,-x+y,-z
x-y,x,-z
-x+y,y,z
x,x-y,z
-y,-x,z
loop_
_atom_site_type_symbol
_atom_site_label
_atom_site_fract_x
_atom_site_fract_y
_atom_site_fract_z
Si Si1 0.829294 0.331185 0.009711
Si Si2 0.372797 0.919751 0.863035
Si Si3 0.171029 0.999058 0.765953
Si Si4 0.175680 0.175465 0.428336
Si Si5 0.000476 0.831621 0.908939
Si Si6 0.308237 0.953939 0.060633
Si Si7 0.843998 0.511182 0.270864
Si Si8 0.245099 0.312783 0.671904
O O1 0.861192 0.430596 0.993581
O O2 0.725032 0.274969 0.011107
O O3 0.856920 0.288054 0.953618
O O4 0.858346 0.321402 0.079086
O O5 0.472698 0.945396 0.861115
O O6 0.326799 0.873253 0.799045
O O7 0.368621 0.007948 0.874981
O O8 0.074784 0.925217 0.745125
O O9 0.244502 0.989560 0.729552
O O10 0.182128 0.091064 0.748386
O O11 0.185661 0.989949 0.837670
O O12 0.198719 0.198719 0.500000
O O13 0.091208 0.182415 0.409094
O O14 0.262103 0.245700 0.390708
O O15 0.154324 0.077162 0.414399
O O16 0.933191 0.866382 0.917299
O O17 0.964092 0.740638 0.943714
O O18 0.093747 0.906253 0.935710
O O19 0.368385 0.000000 0.000000
O O20 0.745145 0.490289 0.279953
O O21 0.848237 0.424119 0.284541
O O22 0.911296 0.587514 0.318421
O O23 0.160038 0.320075 0.673197
#
# Coordination Sequence:
#
# PCOD8323529 Si02
#       8
#    12  12  12  12  12  12  12  12
#     4  10  19  31  47  66  87 109 136 171 213 263
#     4   9  18  31  47  66  86 107 132 170 219 268
#     4   9  16  26  41  61  86 114 143 175 212 257
#     4   9  16  26  42  66  97 131 163 191 217 248
#     4  10  20  32  44  58  78 107 144 184 221 256
#     4  10  20  32  46  61  81 107 137 169 210 262
#     4  10  19  31  47  66  88 113 143 180 224 271
#     4   9  17  27  40  61  88 118 149 180 215 254
#
# _framework density 16.289344
#
# number of rings (size 3 to 8) (size 9 to 14) (size 15 to 20)
#    0.000    2.500    0.000    2.875    0.000    7.000 
#    0.000    2.500    0.000    1.125    0.000    0.000 
#    0.000    0.000    0.000    3.000    0.000    0.000 
#
# Total GULP energy -1189287.780780 kJ/mol
# GULP energy per Si atom -12388.414383 kJ/mol
# Density = 1.625227 g / cm^3
# Si number density = 16.289344 Si / 1000 Ang^3
#
#
#
# Elastic Constant Matrix: (Units=GPa)
#
#
# Indices 1 2 3 4 5 6 
#
# 1 82.8512 41.3717 38.0177 -1.1615 0.0000 0.0000
# 2 41.3717 82.8512 38.0177 1.1615 0.0000 0.0000
# 3 38.0177 38.0177 67.7763 0.0000 0.0000 0.0000
# 4 -1.1615 1.1615 0.0000 19.7059 0.0000 0.0000
# 5 0.0000 0.0000 0.0000 0.0000 19.7059 -1.1615
# 6 0.0000 0.0000 0.0000 0.0000 -1.1615 20.7398
#
#
#
# Elastic Compliance Matrix: (Units=1/GPa)
#
#
# Indices 1 2 3 4 5 6 
#
# 1 0.018224 -0.005965 -0.006876 0.001426 0.000000 0.000000
# 2 -0.005965 0.018224 -0.006876 -0.001426 0.000000 0.000000
# 3 -0.006876 -0.006876 0.022469 0.000000 0.000000 0.000000
# 4 0.001426 -0.001426 0.000000 0.050914 0.000000 0.000000
# 5 0.000000 0.000000 0.000000 0.000000 0.050914 0.002851
# 6 0.000000 0.000000 0.000000 0.000000 0.002851 0.048376
#
#
# Mechanical properties :
#
#
# Convention : Reuss Voigt Hill
#
# Bulk Modulus (GPa) = 51.33178 52.03252 51.68215
# Shear Modulus (GPa) = 19.60404 19.76842 19.68623
#
# Velocity S-wave (km/s) = 3.47290 3.48743 3.48017
# Velocity P-wave (km/s) = 6.90379 6.94465 6.92425
#
# Compressibility (1/GPa) = 0.01948111
#
# Stress axis : x y z
#
# Youngs Moduli (GPa) = 54.87396 54.87396 44.50610
#
# Poissons Ratio (x) = 0.32730 0.30604
# Poissons Ratio (y) = 0.32730 0.30604
# Poissons Ratio (z) = 0.37734 0.37734
#
# Static dielectric constant tensor:
#      x y z
#    x 3.038290 0.000000 0.000000 
#    y 0.000000 3.038290 0.000000 
#    z 0.000000 0.000000 3.026940 
# 
# 
# High freq. dielectric constant tensor:
#      x y z
#    x 1.615580 0.000000 0.000000 
#    y 0.000000 1.615580 0.000000 
#    z 0.000000 0.000000 1.601730 
# 
# From -- ./inp_files/5109.got.cif
#   From: 2010.03.12/outbox.cif.g09.slc.cpg/sg164_3_cif.got.tgz:5109.got - 2010.04.02 06:32:59.
