data_PCOD8323834
_publ_section_title
;
Structure prediction by ZEFSAII (Michael W. Deem and Ramdas Pophale) SiO2 
 PCOD8323834
Probable space group: P -3 M 1
;
_chemical_formula_sum "Si O2"
_cell_formula_units_Z 52
_cell_length_a 26.964496
_cell_length_b 26.964496
_cell_length_c 7.571574
_cell_angle_alpha 90.000000
_cell_angle_beta 90.000000
_cell_angle_gamma 120.000000
_cell_volume 4767.617633
_symmetry_space_group_name_H-M "P -3 M 1"
_symmetry_group_IT_number 164
_symmetry_cell_setting 'hexagonal'
loop_
_space_group_symop_operation_xyz
x,y,z
-y,x-y,z
-x+y,-x,z
x-y,-y,-z
-x,-x+y,-z
y,x,-z
-x,-y,-z
y,-x+y,-z
x-y,x,-z
-x+y,y,z
x,x-y,z
-y,-x,z
loop_
_atom_site_type_symbol
_atom_site_label
_atom_site_fract_x
_atom_site_fract_y
_atom_site_fract_z
Si Si1 0.540766 0.270383 0.792248
Si Si2 0.333334 0.666667 0.787429
Si Si3 0.149886 0.516823 0.203287
Si Si4 0.666667 0.333334 0.787457
Si Si5 0.540765 0.270383 0.207766
Si Si6 0.149885 0.633063 0.796710
Si Si7 0.473175 0.063370 0.500001
O O1 0.509149 0.203594 0.736836
O O2 0.603306 0.301653 0.706783
O O3 0.548669 0.274335 0.000007
O O4 0.301653 0.698348 0.706762
O O5 0.333334 0.666667 0.999987
O O6 0.165522 0.582761 0.231580
O O7 0.096878 0.473232 0.323782
O O8 0.133025 0.498755 0.999999
O O9 0.509149 0.305555 0.263173
O O10 0.165520 0.582760 0.768415
O O11 0.096877 0.623647 0.676216
O O12 0.528561 0.057122 0.499999
O O13 0.417059 0.000000 0.500000
#
# Coordination Sequence:
#
# PCOD8323834 Si02
#       7
#     6   2  12   2   6  12  12
#     4   9  14  21  35  53  68  81  96 112 139 182
#     4   9  12  18  33  49  65  85  97 107 133 178
#     4   9  16  25  37  50  63  80  97 114 142 176
#     4   9  12  18  33  49  65  85  97 107 133 178
#     4   9  14  21  35  53  68  81  96 112 139 182
#     4   9  16  25  37  50  63  80  97 114 142 176
#     4   9  18  29  36  44  58  75 101 131 146 158
#
# _framework density 10.906915
#
# number of rings (size 3 to 8) (size 9 to 14) (size 15 to 20)
#    0.000    3.000    2.308    0.000    0.000    1.846 
#    0.000    4.615    0.000    0.000    0.000    0.000 
#    0.000    0.000    0.000    0.000    0.000    0.000 
#
# Total GULP energy -644300.568381 kJ/mol
# GULP energy per Si atom -12390.395546 kJ/mol
# Density = 1.088209 g / cm^3
# Si number density = 10.906915 Si / 1000 Ang^3
#
#
#
# Elastic Constant Matrix: (Units=GPa)
#
#
# Indices 1 2 3 4 5 6 
#
# 1 55.1261 36.2154 31.0073 0.0000 0.0000 0.0000
# 2 36.2154 55.1262 31.0073 -0.0001 0.0000 0.0000
# 3 31.0073 31.0073 60.1165 0.0000 0.0000 0.0000
# 4 0.0000 -0.0001 0.0000 8.9103 0.0000 0.0000
# 5 0.0000 0.0000 0.0000 0.0000 8.9103 0.0000
# 6 0.0000 0.0000 0.0000 0.0000 0.0000 9.4554
#
#
#
# Elastic Compliance Matrix: (Units=1/GPa)
#
#
# Indices 1 2 3 4 5 6 
#
# 1 0.034864 -0.018016 -0.008690 0.000000 0.000000 0.000000
# 2 -0.018016 0.034864 -0.008690 0.000001 0.000000 0.000000
# 3 -0.008690 -0.008690 0.025599 0.000000 0.000000 0.000000
# 4 0.000000 0.000001 0.000000 0.112230 0.000000 0.000000
# 5 0.000000 0.000000 0.000000 0.000000 0.112230 0.000000
# 6 0.000000 0.000000 0.000000 0.000000 0.000000 0.105760
#
#
# Mechanical properties :
#
#
# Convention : Reuss Voigt Hill
#
# Bulk Modulus (GPa) = 40.75863 40.75876 40.75870
# Shear Modulus (GPa) = 9.91049 10.26444 10.08747
#
# Velocity S-wave (km/s) = 3.01764 3.07105 3.04446
# Velocity P-wave (km/s) = 7.04217 7.07290 7.05755
#
# Compressibility (1/GPa) = 0.02453468
#
# Stress axis : x y z
#
# Youngs Moduli (GPa) = 28.68299 28.68309 39.06465
#
# Poissons Ratio (x) = 0.51676 0.33947
# Poissons Ratio (y) = 0.51676 0.33946
# Poissons Ratio (z) = 0.24925 0.24925
#
# Static dielectric constant tensor:
#      x y z
#    x 2.252590 0.000000 0.000000 
#    y 0.000000 2.252590 0.000000 
#    z 0.000000 0.000000 2.362150 
# 
# 
# High freq. dielectric constant tensor:
#      x y z
#    x 1.372060 0.000000 0.000000 
#    y 0.000000 1.372060 0.000000 
#    z 0.000000 0.000000 1.421530 
# 
# From -- ./inp_files/1842.got.cif
#   From: 2010.03.12/outbox.cif.g09.slc.cpg/sg164_1_cif.got.tgz:1842.got - 2010.04.02 06:32:59.
