data_PCOD8323071
_publ_section_title
;
Structure prediction by ZEFSAII (Michael W. Deem and Ramdas Pophale) SiO2 
 PCOD8323071
Probable space group: P -3 1 M 
;
_chemical_formula_sum "Si O2"
_cell_formula_units_Z 40
_cell_length_a 18.064696
_cell_length_b 18.064696
_cell_length_c 7.372074
_cell_angle_alpha 90.000000
_cell_angle_beta 90.000000
_cell_angle_gamma 120.000000
_cell_volume 2083.443045
_symmetry_space_group_name_H-M "P -3 1 M "
_symmetry_group_IT_number 162
_symmetry_cell_setting 'hexagonal'
loop_
_space_group_symop_operation_xyz
x,y,z
-y,x-y,z
-x+y,-x,z
-y,-x,-z
-x+y,y,-z
x,x-y,-z
-x,-y,-z
y,-x+y,-z
x-y,x,-z
y,x,z
x-y,-y,z
-x,-x+y,z
loop_
_atom_site_type_symbol
_atom_site_label
_atom_site_fract_x
_atom_site_fract_y
_atom_site_fract_z
Si Si1 0.737575 0.098149 0.987178
Si Si2 0.097034 0.634631 0.654755
Si Si3 0.666667 0.333334 0.285447
Si Si4 0.838543 0.489154 0.270173
O O1 0.689583 0.118085 0.145032
O O2 0.714846 0.000000 0.003472
O O3 0.839968 0.160032 0.000000
O O4 0.710245 0.117435 0.793782
O O5 0.111719 0.563436 0.753203
O O6 0.157622 0.674446 0.480368
O O7 0.000000 0.590238 0.586644
O O8 0.666668 0.333334 0.500000
O O9 0.739408 0.426316 0.214260
#
# Coordination Sequence:
#
# PCOD8323071 Si02
#       4
#    12  12   4  12
#     4  11  24  39  57  80 104 136 177 224 277 332
#     4  10  20  34  54  79 108 145 187 226 266 314
#     4  12  21  33  51  82 111 156 199 225 249 301
#     4  11  21  35  53  75 114 151 187 225 261 295
#
# _framework density 19.198989000000001
#
# number of rings (size 3 to 8) (size 9 to 14) (size 15 to 20)
#    0.000    1.200    3.000    6.300    0.000    2.400 
#    0.000    3.000    0.000    0.300    0.000    0.000 
#    0.000    0.000    0.000    9.600    0.000    0.000 
#
# Total GULP energy -496053.858582 kJ/mol
# GULP energy per Si atom -12401.346465 kJ/mol
# Density = 1.915529 g / cm^3
# Si number density = 19.198989 Si / 1000 Ang^3
#
#
#
# Elastic Constant Matrix: (Units=GPa)
#
#
# Indices 1 2 3 4 5 6 
#
# 1 115.3572 58.0176 43.7903 0.0000 0.3571 0.0000
# 2 58.0176 115.3575 43.7902 -0.0001 -0.3571 0.0001
# 3 43.7903 43.7902 59.8134 -0.0002 0.0001 0.0000
# 4 0.0000 -0.0001 -0.0002 16.1397 0.0001 -0.3571
# 5 0.3571 -0.3571 0.0001 0.0001 16.1395 -0.0001
# 6 0.0000 0.0001 0.0000 -0.3571 -0.0001 28.6699
#
#
#
# Elastic Compliance Matrix: (Units=1/GPa)
#
#
# Indices 1 2 3 4 5 6 
#
# 1 0.013299 -0.004146 -0.006701 0.000000 -0.000386 0.000000
# 2 -0.004146 0.013299 -0.006701 0.000000 0.000386 0.000000
# 3 -0.006701 -0.006701 0.026530 0.000000 0.000000 0.000000
# 4 0.000000 0.000000 0.000000 0.061976 0.000000 0.000772
# 5 -0.000386 0.000386 0.000000 0.000000 0.061977 0.000000
# 6 0.000000 0.000000 0.000000 0.000772 0.000000 0.034889
#
#
# Mechanical properties :
#
#
# Convention : Reuss Voigt Hill
#
# Bulk Modulus (GPa) = 55.45597 64.63603 60.04600
# Shear Modulus (GPa) = 19.75685 21.85181 20.80433
#
# Velocity S-wave (km/s) = 3.21137 3.37735 3.29540
# Velocity P-wave (km/s) = 6.53438 6.99629 6.76927
#
# Compressibility (1/GPa) = 0.01803232
#
# Stress axis : x y z
#
# Youngs Moduli (GPa) = 75.19469 75.19514 37.69269
#
# Poissons Ratio (x) = 0.31176 0.25258
# Poissons Ratio (y) = 0.31175 0.25257
# Poissons Ratio (z) = 0.50388 0.50387
#
# Static dielectric constant tensor:
#      x y z
#    x 3.698540 0.000000 0.000000 
#    y 0.000000 3.698530 0.000000 
#    z 0.000000 0.000000 3.529130 
# 
# 
# High freq. dielectric constant tensor:
#      x y z
#    x 1.725300 0.000000 0.000000 
#    y 0.000000 1.725300 0.000000 
#    z 0.000000 0.000000 1.755160 
# 
# From -- ./inp_files/1110.got.cif
#   From: 2010.03.12/outbox.cif.g09.slc.cpg/sg162_1_cif.got.tgz:1110.got - 2010.04.02 06:27:41.
