data_PCOD8323553
_publ_section_title
;
Structure prediction by ZEFSAII (Michael W. Deem and Ramdas Pophale) SiO2 
 PCOD8323553
Probable space group: P -3 M 1
;
_chemical_formula_sum "Si O2"
_cell_formula_units_Z 60
_cell_length_a 17.784284
_cell_length_b 17.784284
_cell_length_c 12.199584
_cell_angle_alpha 90.000000
_cell_angle_beta 90.000000
_cell_angle_gamma 120.000000
_cell_volume 3341.553536
_symmetry_space_group_name_H-M "P -3 M 1"
_symmetry_group_IT_number 164
_symmetry_cell_setting 'hexagonal'
loop_
_space_group_symop_operation_xyz
x,y,z
-y,x-y,z
-x+y,-x,z
x-y,-y,-z
-x,-x+y,-z
y,x,-z
-x,-y,-z
y,-x+y,-z
x-y,x,-z
-x+y,y,z
x,x-y,z
-y,-x,z
loop_
_atom_site_type_symbol
_atom_site_label
_atom_site_fract_x
_atom_site_fract_y
_atom_site_fract_z
Si Si1 0.500136 0.332540 0.852044
Si Si2 0.542584 0.627152 0.929497
Si Si3 0.093479 0.358866 0.320264
Si Si4 0.901211 0.630344 0.286021
Si Si5 0.492078 0.160278 0.485517
O O1 0.531266 0.265633 0.814782
O O2 0.571474 0.428527 0.813616
O O3 0.410799 0.307920 0.791680
O O4 0.489542 0.326630 0.983469
O O5 0.460470 0.539531 0.881043
O O6 0.595586 0.694277 0.834755
O O7 0.604015 0.604015 0.000000
O O8 0.161474 0.322947 0.324332
O O9 0.107790 0.420986 0.422216
O O10 0.994052 0.280435 0.319222
O O11 0.831234 0.662467 0.292939
O O12 0.876567 0.550902 0.368082
O O13 0.572638 0.145275 0.502242
O O14 0.524903 0.262452 0.494168
#
# Coordination Sequence:
#
# PCOD8323553 Si02
#       5
#    12  12  12  12  12
#     4  10  19  31  49  73 102 135 171 210 252 301
#     4  10  19  32  51  74 103 136 172 213 255 307
#     4  10  21  36  53  75 103 136 174 218 267 313
#     4  11  22  36  54  78 104 135 177 221 269 319
#     4  10  21  35  54  80 113 149 182 215 253 302
#
# _framework density 17.955719999999999
#
# number of rings (size 3 to 8) (size 9 to 14) (size 15 to 20)
#    0.000    1.800    2.000    2.800    0.000    3.200 
#    0.000    2.000    0.000    6.800    0.000    0.000 
#    0.000    5.600    0.000    0.000    0.000    0.000 
#
# Total GULP energy -743869.008836 kJ/mol
# GULP energy per Si atom -12397.816814 kJ/mol
# Density = 1.791485 g / cm^3
# Si number density = 17.955720 Si / 1000 Ang^3
#
#
#
# Elastic Constant Matrix: (Units=GPa)
#
#
# Indices 1 2 3 4 5 6 
#
# 1 100.7534 65.7306 31.0716 -0.0796 0.0000 0.0000
# 2 65.7306 100.7534 31.0716 0.0796 0.0000 0.0000
# 3 31.0716 31.0716 85.2299 0.0000 0.0000 0.0000
# 4 -0.0796 0.0796 0.0000 21.0458 0.0000 0.0000
# 5 0.0000 0.0000 0.0000 0.0000 21.0458 -0.0796
# 6 0.0000 0.0000 0.0000 0.0000 -0.0796 17.5114
#
#
#
# Elastic Compliance Matrix: (Units=1/GPa)
#
#
# Indices 1 2 3 4 5 6 
#
# 1 0.017753 -0.010800 -0.002535 0.000108 0.000000 0.000000
# 2 -0.010800 0.017753 -0.002535 -0.000108 0.000000 0.000000
# 3 -0.002535 -0.002535 0.013581 0.000000 0.000000 0.000000
# 4 0.000108 -0.000108 0.000000 0.047516 0.000000 0.000000
# 5 0.000000 0.000000 0.000000 0.000000 0.047516 0.000216
# 6 0.000000 0.000000 0.000000 0.000000 0.000216 0.057107
#
#
# Mechanical properties :
#
#
# Convention : Reuss Voigt Hill
#
# Bulk Modulus (GPa) = 57.64449 60.27604 58.96027
# Shear Modulus (GPa) = 20.94257 22.51146 21.72701
#
# Velocity S-wave (km/s) = 3.41888 3.54463 3.48233
# Velocity P-wave (km/s) = 6.91075 7.09892 7.00547
#
# Compressibility (1/GPa) = 0.01734771
#
# Stress axis : x y z
#
# Youngs Moduli (GPa) = 56.32854 56.32854 73.63190
#
# Poissons Ratio (x) = 0.60836 0.18663
# Poissons Ratio (y) = 0.60836 0.18663
# Poissons Ratio (z) = 0.14278 0.14278
#
# Static dielectric constant tensor:
#      x y z
#    x 3.235930 0.000000 0.000000 
#    y 0.000000 3.235930 0.000000 
#    z 0.000000 0.000000 3.554460 
# 
# 
# High freq. dielectric constant tensor:
#      x y z
#    x 1.676970 0.000000 0.000000 
#    y 0.000000 1.676970 0.000000 
#    z 0.000000 0.000000 1.711860 
# 
# From -- ./inp_files/2659.got.cif
#   From: 2010.03.12/outbox.cif.g09.slc.cpg/sg164_2_cif.got.tgz:2659.got - 2010.04.02 06:32:59.
