data_PCOD8323944
_publ_section_title
;
Structure prediction by ZEFSAII (Michael W. Deem and Ramdas Pophale) SiO2 
 PCOD8323944
Probable space group: P -3 C 1
;
_chemical_formula_sum "Si O2"
_cell_formula_units_Z 52
_cell_length_a 14.441215
_cell_length_b 14.441215
_cell_length_c 13.872989
_cell_angle_alpha 90.000000
_cell_angle_beta 90.000000
_cell_angle_gamma 120.000000
_cell_volume 2505.579235
_symmetry_space_group_name_H-M "P -3 C 1"
_symmetry_group_IT_number 165
_symmetry_cell_setting 'hexagonal'
loop_
_space_group_symop_operation_xyz
x,y,z
-y,x-y,z
-x+y,-x,z
x-y,-y,1/2-z
-x,-x+y,1/2-z
y,x,1/2-z
-x,-y,-z
y,-x+y,-z
x-y,x,-z
-x+y,y,1/2+z
x,x-y,1/2+z
-y,-x,1/2+z
loop_
_atom_site_type_symbol
_atom_site_label
_atom_site_fract_x
_atom_site_fract_y
_atom_site_fract_z
Si Si1 0.259008 0.381754 0.764518
Si Si2 0.320394 0.777880 0.429496
Si Si3 0.000000 0.000000 0.135777
Si Si4 0.760947 0.830974 0.902156
Si Si5 0.363036 0.219319 0.425382
O O1 0.345537 0.345537 0.750000
O O2 0.313991 0.489727 0.826421
O O3 0.154757 0.288220 0.816314
O O4 0.227912 0.407510 0.661217
O O5 0.221728 0.654189 0.436574
O O6 0.310625 0.846445 0.516183
O O7 0.976536 0.886982 0.094990
O O8 0.000000 0.000000 0.250000
O O9 0.733349 0.709241 0.884169
O O10 0.711268 0.832099 0.005010
#
# Coordination Sequence:
#
# PCOD8323944 Si02
#       5
#    12  12   4  12  12
#     4  11  22  39  63  94 130 165 209 269 322 388
#     4   9  23  46  66  87 118 162 218 273 321 385
#     4  12  21  34  59  88 136 191 208 247 320 397
#     4  11  22  35  56  94 133 170 218 249 309 402
#     4  11  21  37  61  87 125 171 203 263 322 373
#
# _framework density 20.753685000000001
#
# number of rings (size 3 to 8) (size 9 to 14) (size 15 to 20)
#    0.462    0.923    0.000    8.308    0.000    2.769 
#    0.000   15.000    0.000    0.000    0.000    0.000 
#    0.000    0.000    0.000    0.000    0.000    0.000 
#
# Total GULP energy -644886.119179 kJ/mol
# GULP energy per Si atom -12401.656138 kJ/mol
# Density = 2.070645 g / cm^3
# Si number density = 20.753685 Si / 1000 Ang^3
#
#
#
# Elastic Constant Matrix: (Units=GPa)
#
#
# Indices 1 2 3 4 5 6 
#
# 1 93.0493 22.3673 13.3286 1.7810 0.0000 0.0000
# 2 22.3673 93.0493 13.3286 -1.7810 0.0000 0.0000
# 3 13.3286 13.3286 110.8598 0.0000 0.0000 0.0000
# 4 1.7810 -1.7810 0.0000 30.2340 0.0000 0.0000
# 5 0.0000 0.0000 0.0000 0.0000 30.2340 1.7810
# 6 0.0000 0.0000 0.0000 0.0000 1.7810 35.3410
#
#
#
# Elastic Compliance Matrix: (Units=1/GPa)
#
#
# Indices 1 2 3 4 5 6 
#
# 1 0.011551 -0.002639 -0.001071 -0.000836 0.000000 0.000000
# 2 -0.002639 0.011551 -0.001071 0.000836 0.000000 0.000000
# 3 -0.001071 -0.001071 0.009278 0.000000 0.000000 0.000000
# 4 -0.000836 0.000836 0.000000 0.033174 0.000000 0.000000
# 5 0.000000 0.000000 0.000000 0.000000 0.033174 -0.001672
# 6 0.000000 0.000000 0.000000 0.000000 -0.001672 0.028380
#
#
# Mechanical properties :
#
#
# Convention : Reuss Voigt Hill
#
# Bulk Modulus (GPa) = 43.82949 43.88973 43.85961
# Shear Modulus (GPa) = 34.65562 35.69072 35.17317
#
# Velocity S-wave (km/s) = 4.09082 4.15146 4.12125
# Velocity P-wave (km/s) = 6.59377 6.64630 6.62009
#
# Compressibility (1/GPa) = 0.02281569
#
# Stress axis : x y z
#
# Youngs Moduli (GPa) = 86.57360 86.57360 107.78133
#
# Poissons Ratio (x) = 0.22848 0.11548
# Poissons Ratio (y) = 0.22848 0.11548
# Poissons Ratio (z) = 0.09276 0.09276
#
# Static dielectric constant tensor:
#      x y z
#    x 3.676780 0.000000 0.000000 
#    y 0.000000 3.676780 0.000000 
#    z 0.000000 0.000000 3.851480 
# 
# 
# High freq. dielectric constant tensor:
#      x y z
#    x 1.801110 0.000000 0.000000 
#    y 0.000000 1.801110 0.000000 
#    z 0.000000 0.000000 1.828660 
# 
# From -- ./inp_files/1599.got.cif
#   From: 2010.03.12/outbox.cif.g09.slc.cpg/sg165_1_cif.got.tgz:1599.got - 2010.04.02 06:36:38.
