data_PCOD8323790
_publ_section_title
;
Structure prediction by ZEFSAII (Michael W. Deem and Ramdas Pophale) SiO2 
 PCOD8323790
Probable space group: P -3 M 1
;
_chemical_formula_sum "Si O2"
_cell_formula_units_Z 60
_cell_length_a 21.003943
_cell_length_b 21.003943
_cell_length_c 8.845606
_cell_angle_alpha 90.000000
_cell_angle_beta 90.000000
_cell_angle_gamma 120.000000
_cell_volume 3379.557850
_symmetry_space_group_name_H-M "P -3 M 1"
_symmetry_group_IT_number 164
_symmetry_cell_setting 'hexagonal'
loop_
_space_group_symop_operation_xyz
x,y,z
-y,x-y,z
-x+y,-x,z
x-y,-y,-z
-x,-x+y,-z
y,x,-z
-x,-y,-z
y,-x+y,-z
x-y,x,-z
-x+y,y,z
x,x-y,z
-y,-x,z
loop_
_atom_site_type_symbol
_atom_site_label
_atom_site_fract_x
_atom_site_fract_y
_atom_site_fract_z
Si Si1 0.542129 0.084257 0.678601
Si Si2 0.695603 0.777284 0.672557
Si Si3 0.844657 0.300747 0.176160
Si Si4 0.699253 0.543909 0.823836
Si Si5 0.918319 0.222716 0.672553
Si Si6 0.542128 0.084256 0.321395
O O1 0.504754 0.130386 0.732005
O O2 0.540657 0.081314 0.499998
O O3 0.500001 0.000001 0.742319
O O4 0.727459 0.863730 0.701050
O O5 0.628431 0.729186 0.783188
O O6 0.761007 0.761006 0.708849
O O7 0.667517 0.755732 0.500002
O O8 0.760841 0.239160 0.218964
O O9 0.869616 0.374369 0.267990
O O10 0.851507 0.319238 0.999998
O O11 0.760840 0.521680 0.781031
O O12 0.729185 0.628430 0.783182
O O13 0.863729 0.136272 0.701047
#
# Coordination Sequence:
#
# PCOD8323790 Si02
#       6
#     6  12  12  12  12   6
#     4  11  23  37  55  79 105 135 173 213 255 307
#     4   9  17  30  49  72  99 131 166 205 248 296
#     4  10  21  36  53  75 102 132 167 209 256 303
#     4  10  21  36  53  75 102 132 167 209 256 303
#     4   9  17  30  49  72  99 131 166 205 248 296
#     4  11  23  37  55  79 105 135 173 213 255 307
#
# _framework density 17.753800999999999
#
# number of rings (size 3 to 8) (size 9 to 14) (size 15 to 20)
#    0.000    2.200    0.000    3.000    0.000    9.600 
#    1.200    0.000    0.000    0.400    0.000    2.800 
#    0.000    0.000    0.000   10.000    0.000   10.400 
#
# Total GULP energy -743940.037459 kJ/mol
# GULP energy per Si atom -12399.000624 kJ/mol
# Density = 1.771339 g / cm^3
# Si number density = 17.753801 Si / 1000 Ang^3
#
#
#
# Elastic Constant Matrix: (Units=GPa)
#
#
# Indices 1 2 3 4 5 6 
#
# 1 124.6795 81.6021 39.3231 0.0012 0.0000 0.0000
# 2 81.6021 124.6795 39.3231 -0.0012 0.0000 0.0000
# 3 39.3231 39.3231 57.6818 0.0000 0.0000 0.0000
# 4 0.0012 -0.0012 0.0000 19.2865 0.0000 0.0000
# 5 0.0000 0.0000 0.0000 0.0000 19.2865 0.0012
# 6 0.0000 0.0000 0.0000 0.0000 0.0012 21.5387
#
#
#
# Elastic Compliance Matrix: (Units=1/GPa)
#
#
# Indices 1 2 3 4 5 6 
#
# 1 0.014882 -0.008332 -0.004465 -0.000001 0.000000 0.000000
# 2 -0.008332 0.014882 -0.004465 0.000001 0.000000 0.000000
# 3 -0.004465 -0.004465 0.023425 0.000000 0.000000 0.000000
# 4 -0.000001 0.000001 0.000000 0.051850 0.000000 0.000000
# 5 0.000000 0.000000 0.000000 0.000000 0.051850 -0.000003
# 6 0.000000 0.000000 0.000000 0.000000 -0.000003 0.046428
#
#
# Mechanical properties :
#
#
# Convention : Reuss Voigt Hill
#
# Bulk Modulus (GPa) = 53.58034 69.72637 61.65336
# Shear Modulus (GPa) = 20.48648 21.80851 21.14749
#
# Velocity S-wave (km/s) = 3.40063 3.50864 3.45505
# Velocity P-wave (km/s) = 6.75753 7.46816 7.12171
#
# Compressibility (1/GPa) = 0.01866356
#
# Stress axis : x y z
#
# Youngs Moduli (GPa) = 67.19462 67.19462 42.68960
#
# Poissons Ratio (x) = 0.55986 0.19063
# Poissons Ratio (y) = 0.55986 0.19063
# Poissons Ratio (z) = 0.30005 0.30005
#
# Static dielectric constant tensor:
#      x y z
#    x 3.398330 0.000000 0.000000 
#    y 0.000000 3.398330 0.000000 
#    z 0.000000 0.000000 3.367470 
# 
# 
# High freq. dielectric constant tensor:
#      x y z
#    x 1.682600 0.000000 0.000000 
#    y 0.000000 1.682600 0.000000 
#    z 0.000000 0.000000 1.691690 
# 
# From -- ./inp_files/1628.got.cif
#   From: 2010.03.12/outbox.cif.g09.slc.cpg/sg164_1_cif.got.tgz:1628.got - 2010.04.02 06:32:59.
