data_PCOD8323292
_publ_section_title
;
Structure prediction by ZEFSAII (Michael W. Deem and Ramdas Pophale) SiO2 
 PCOD8323292
Probable space group: P -3 1 C
;
_chemical_formula_sum "Si O2"
_cell_formula_units_Z 60
_cell_length_a 13.893397
_cell_length_b 13.893397
_cell_length_c 15.726221
_cell_angle_alpha 90.000000
_cell_angle_beta 90.000000
_cell_angle_gamma 120.000000
_cell_volume 2628.886872
_symmetry_space_group_name_H-M "P -3 1 C"
_symmetry_group_IT_number 163
_symmetry_cell_setting 'hexagonal'
loop_
_space_group_symop_operation_xyz
x,y,z
-y,x-y,z
-x+y,-x,z
-y,-x,1/2-z
-x+y,y,1/2-z
x,x-y,1/2-z
-x,-y,-z
y,-x+y,-z
x-y,x,-z
y,x,1/2+z
x-y,-y,1/2+z
-x,-x+y,1/2+z
loop_
_atom_site_type_symbol
_atom_site_label
_atom_site_fract_x
_atom_site_fract_y
_atom_site_fract_z
Si Si1 0.220938 0.190134 0.471224
Si Si2 0.001612 0.212574 0.222611
Si Si3 0.722223 0.542742 0.970780
Si Si4 0.893162 0.400380 0.457348
Si Si5 0.047856 0.613124 0.187502
O O1 0.132063 0.196208 0.532594
O O2 0.214650 0.229806 0.377762
O O3 0.341240 0.273316 0.509789
O O4 0.876772 0.123229 0.250000
O O5 0.084862 0.169723 0.250000
O O6 0.038666 0.332200 0.260901
O O7 0.673740 0.516602 0.874384
O O8 0.640126 0.445954 0.036997
O O9 0.843441 0.556465 0.986461
O O10 0.000000 0.500000 0.500000
O O11 0.929679 0.388808 0.362520
O O12 0.067465 0.533733 0.250000
#
# Coordination Sequence:
#
# PCOD8323292 Si02
#       5
#    12  12  12  12  12
#     4  12  24  42  66  94 129 174 217 259 323 408
#     4  12  25  43  68 102 139 175 220 283 345 405
#     4  11  22  42  68  94 130 179 223 269 334 410
#     4  10  22  42  67  96 132 178 227 276 339 420
#     4  11  25  43  67 102 139 176 228 291 348 405
#
# _framework density 22.823349
#
# number of rings (size 3 to 8) (size 9 to 14) (size 15 to 20)
#    0.000    0.800    0.000    9.200    0.000    4.800 
#    0.000    0.000    0.000    0.800    0.000    0.000 
#    0.000    0.000    0.000    0.000    0.000    0.000 
#
# Total GULP energy -743963.073623 kJ/mol
# GULP energy per Si atom -12399.384560 kJ/mol
# Density = 2.277140 g / cm^3
# Si number density = 22.823349 Si / 1000 Ang^3
#
#
#
# Elastic Constant Matrix: (Units=GPa)
#
#
# Indices 1 2 3 4 5 6 
#
# 1 99.0035 32.9932 55.4822 -0.0003 3.8581 0.0000
# 2 32.9932 99.0035 55.4822 0.0003 -3.8581 0.0000
# 3 55.4822 55.4822 136.5075 0.0000 0.0000 0.0000
# 4 -0.0003 0.0003 0.0000 41.7639 0.0000 -3.8581
# 5 3.8581 -3.8581 0.0000 0.0000 41.7639 -0.0003
# 6 0.0000 0.0000 0.0000 -3.8581 -0.0003 33.0052
#
#
#
# Elastic Compliance Matrix: (Units=1/GPa)
#
#
# Indices 1 2 3 4 5 6 
#
# 1 0.013411 -0.001903 -0.004677 0.000000 -0.001415 0.000000
# 2 -0.001903 0.013411 -0.004677 0.000000 0.001415 0.000000
# 3 -0.004677 -0.004677 0.011128 0.000000 0.000000 0.000000
# 4 0.000000 0.000000 0.000000 0.024206 0.000000 0.002829
# 5 -0.001415 0.001415 0.000000 0.000000 0.024206 0.000000
# 6 0.000000 0.000000 0.000000 0.002829 0.000000 0.030629
#
#
# Mechanical properties :
#
#
# Convention : Reuss Voigt Hill
#
# Bulk Modulus (GPa) = 64.79027 69.15887 66.97457
# Shear Modulus (GPa) = 34.56598 36.01038 35.28818
#
# Velocity S-wave (km/s) = 3.89588 3.97645 3.93637
# Velocity P-wave (km/s) = 6.97757 7.17289 7.07591
#
# Compressibility (1/GPa) = 0.01543442
#
# Stress axis : x y z
#
# Youngs Moduli (GPa) = 74.56425 74.56425 89.86570
#
# Poissons Ratio (x) = 0.14192 0.42033
# Poissons Ratio (y) = 0.14192 0.42033
# Poissons Ratio (z) = 0.34876 0.34876
#
# Static dielectric constant tensor:
#      x y z
#    x 4.628610 0.000000 0.000000 
#    y 0.000000 4.628610 0.000000 
#    z 0.000000 0.000000 4.219950 
# 
# 
# High freq. dielectric constant tensor:
#      x y z
#    x 1.915160 0.000000 0.000000 
#    y 0.000000 1.915160 0.000000 
#    z 0.000000 0.000000 1.889650 
# 
# From -- ./inp_files/2378.got.cif
#   From: 2010.03.12/outbox.cif.g09.slc.cpg/sg163_2_cif.got.tgz:2378.got - 2010.04.02 06:30:25.
