data_PCOD8323252
_publ_section_title
;
Structure prediction by ZEFSAII (Michael W. Deem and Ramdas Pophale) SiO2 
 PCOD8323252
Probable space group: P -3 1 C
;
_chemical_formula_sum "Si O2"
_cell_formula_units_Z 52
_cell_length_a 11.421369
_cell_length_b 11.421369
_cell_length_c 23.334407
_cell_angle_alpha 90.000000
_cell_angle_beta 90.000000
_cell_angle_gamma 120.000000
_cell_volume 2636.111198
_symmetry_space_group_name_H-M "P -3 1 C"
_symmetry_group_IT_number 163
_symmetry_cell_setting 'hexagonal'
loop_
_space_group_symop_operation_xyz
x,y,z
-y,x-y,z
-x+y,-x,z
-y,-x,1/2-z
-x+y,y,1/2-z
x,x-y,1/2-z
-x,-y,-z
y,-x+y,-z
x-y,x,-z
y,x,1/2+z
x-y,-y,1/2+z
-x,-x+y,1/2+z
loop_
_atom_site_type_symbol
_atom_site_label
_atom_site_fract_x
_atom_site_fract_y
_atom_site_fract_z
Si Si1 0.819149 0.180848 0.182033
Si Si2 0.728813 0.728813 0.500000
Si Si3 0.934757 0.333085 0.879600
Si Si4 0.601670 0.934758 0.379600
Si Si5 0.666667 0.333335 0.317821
O O1 0.825668 0.174333 0.250000
O O2 0.742444 0.257538 0.158813
O O3 0.970374 0.264105 0.157364
O O4 0.735897 0.029622 0.157365
O O5 0.748433 0.874216 0.515001
O O6 0.629945 0.660832 0.446529
O O7 0.660831 0.629943 0.553470
O O8 0.953163 0.476581 0.859984
O O9 0.781369 0.218629 0.867555
O O10 0.666668 0.333334 0.250000
#
# Coordination Sequence:
#
# PCOD8323252 Si02
#       5
#    12  12  12  12   4
#     4  11  22  40  64  89 118 159 208 255 302 359
#     4  10  20  36  60  90 124 161 203 252 308 366
#     4  11  23  40  62  91 126 163 203 252 308 368
#     4  11  23  40  62  91 126 163 203 252 308 368
#     4   9  18  36  66  87 108 153 213 261 292 350
#
# _framework density 19.726027999999999
#
# number of rings (size 3 to 8) (size 9 to 14) (size 15 to 20)
#    0.000    1.385    4.615    1.385    0.000    0.923 
#    1.385    0.000    0.000    2.769    0.000    0.000 
#    0.000    0.000    0.000    0.000    0.000    0.000 
#
# Total GULP energy -645012.335323 kJ/mol
# GULP energy per Si atom -12404.083372 kJ/mol
# Density = 1.968113 g / cm^3
# Si number density = 19.726028 Si / 1000 Ang^3
#
#
#
# Elastic Constant Matrix: (Units=GPa)
#
#
# Indices 1 2 3 4 5 6 
#
# 1 95.7455 42.0530 30.3886 0.0000 -0.0001 0.0001
# 2 42.0530 95.7457 30.3886 0.0000 0.0001 0.0000
# 3 30.3886 30.3886 83.3177 0.0000 0.0000 0.0000
# 4 0.0000 0.0000 0.0000 25.7599 0.0000 0.0001
# 5 -0.0001 0.0001 0.0000 0.0000 25.7599 0.0000
# 6 0.0001 0.0000 0.0000 0.0001 0.0000 26.8462
#
#
#
# Elastic Compliance Matrix: (Units=1/GPa)
#
#
# Indices 1 2 3 4 5 6 
#
# 1 0.013636 -0.004988 -0.003154 0.000000 0.000000 0.000000
# 2 -0.004988 0.013636 -0.003154 0.000000 0.000000 0.000000
# 3 -0.003154 -0.003154 0.014303 0.000000 0.000000 0.000000
# 4 0.000000 0.000000 0.000000 0.038820 0.000000 0.000000
# 5 0.000000 0.000000 0.000000 0.000000 0.038820 0.000000
# 6 0.000000 0.000000 0.000000 0.000000 0.000000 0.037249
#
#
# Mechanical properties :
#
#
# Convention : Reuss Voigt Hill
#
# Bulk Modulus (GPa) = 52.68016 53.38547 53.03282
# Shear Modulus (GPa) = 26.97077 27.13847 27.05462
#
# Velocity S-wave (km/s) = 3.70167 3.71316 3.70742
# Velocity P-wave (km/s) = 6.71072 6.74579 6.72827
#
# Compressibility (1/GPa) = 0.01898248
#
# Stress axis : x y z
#
# Youngs Moduli (GPa) = 73.33328 73.33346 69.91462
#
# Poissons Ratio (x) = 0.36580 0.22053
# Poissons Ratio (y) = 0.36580 0.22053
# Poissons Ratio (z) = 0.23131 0.23131
#
# Static dielectric constant tensor:
#      x y z
#    x 3.545480 0.000000 0.000000 
#    y 0.000000 3.545480 0.000000 
#    z 0.000000 0.000000 3.402050 
# 
# 
# High freq. dielectric constant tensor:
#      x y z
#    x 1.771070 0.000000 0.000000 
#    y 0.000000 1.771070 0.000000 
#    z 0.000000 0.000000 1.761400 
# 
# From -- ./inp_files/3491.got.cif
#   From: 2010.03.12/outbox.cif.g09.slc.cpg/sg163_2_cif.got.tgz:3491.got - 2010.04.02 06:30:25.
