data_PCOD8323865
_publ_section_title
;
Structure prediction by ZEFSAII (Michael W. Deem and Ramdas Pophale) SiO2 
 PCOD8323865
Probable space group: P -3 C 1
;
_chemical_formula_sum "Si O2"
_cell_formula_units_Z 54
_cell_length_a 25.905767
_cell_length_b 25.905767
_cell_length_c 5.269917
_cell_angle_alpha 90.000000
_cell_angle_beta 90.000000
_cell_angle_gamma 120.000000
_cell_volume 3062.861206
_symmetry_space_group_name_H-M "P -3 C 1"
_symmetry_group_IT_number 165
_symmetry_cell_setting 'hexagonal'
loop_
_space_group_symop_operation_xyz
x,y,z
-y,x-y,z
-x+y,-x,z
x-y,-y,1/2-z
-x,-x+y,1/2-z
y,x,1/2-z
-x,-y,-z
y,-x+y,-z
x-y,x,-z
-x+y,y,1/2+z
x,x-y,1/2+z
-y,-x,1/2+z
loop_
_atom_site_type_symbol
_atom_site_label
_atom_site_fract_x
_atom_site_fract_y
_atom_site_fract_z
Si Si1 0.580980 0.000000 0.250000
Si Si2 0.841026 0.204393 0.902955
Si Si3 0.405196 0.873738 0.786326
Si Si4 0.971046 0.665838 0.496741
Si Si5 0.273415 0.774501 0.687825
O O1 0.516768 0.943491 0.299965
O O2 0.625913 0.014362 0.488973
O O3 0.844877 0.177384 0.629366
O O4 0.789644 0.220778 0.852346
O O5 0.900951 0.261936 0.991684
O O6 0.435196 0.857885 0.555307
O O7 0.334588 0.834386 0.748839
O O8 0.000000 0.704128 0.750000
O O9 0.000000 0.708181 0.250000
O O10 0.272927 0.742869 0.420166
#
# Coordination Sequence:
#
# PCOD8323865 Si02
#       5
#     6  12  12  12  12
#     4  10  24  36  54  78 114 144 166 192 260 336
#     4  10  19  32  52  76  96 127 171 216 249 290
#     4  12  25  38  56  81 110 135 167 204 263 334
#     4  10  20  32  53  73 108 138 171 206 261 317
#     4  10  20  37  59  74  94 122 165 209 248 293
#
# _framework density 17.630572999999998
#
# number of rings (size 3 to 8) (size 9 to 14) (size 15 to 20)
#    0.667    0.889    2.222    3.333    3.111    1.778 
#    0.000    0.000    0.000    8.889    0.000    0.000 
#    0.000    0.000    0.000    0.000    0.000    0.000 
#
# Total GULP energy -669099.485512 kJ/mol
# GULP energy per Si atom -12390.731213 kJ/mol
# Density = 1.759044 g / cm^3
# Si number density = 17.630573 Si / 1000 Ang^3
#
#
#
# Elastic Constant Matrix: (Units=GPa)
#
#
# Indices 1 2 3 4 5 6 
#
# 1 50.0760 9.6416 26.2384 5.1190 0.0000 0.0000
# 2 9.6416 50.0760 26.2384 -5.1190 0.0000 0.0000
# 3 26.2384 26.2384 158.4600 0.0000 0.0000 0.0000
# 4 5.1190 -5.1190 0.0000 22.2814 0.0000 0.0000
# 5 0.0000 0.0000 0.0000 0.0000 22.2814 5.1190
# 6 0.0000 0.0000 0.0000 0.0000 5.1190 20.2172
#
#
#
# Elastic Compliance Matrix: (Units=1/GPa)
#
#
# Indices 1 2 3 4 5 6 
#
# 1 0.022928 -0.003331 -0.003245 -0.006033 0.000000 0.000000
# 2 -0.003331 0.022928 -0.003245 0.006033 0.000000 0.000000
# 3 -0.003245 -0.003245 0.007385 0.000000 0.000000 0.000000
# 4 -0.006033 0.006033 0.000000 0.047652 0.000000 0.000000
# 5 0.000000 0.000000 0.000000 0.000000 0.047652 -0.012066
# 6 0.000000 0.000000 0.000000 0.000000 -0.012066 0.052518
#
#
# Mechanical properties :
#
#
# Convention : Reuss Voigt Hill
#
# Bulk Modulus (GPa) = 29.76232 42.53875 36.15054
# Shear Modulus (GPa) = 21.56052 26.05559 23.80805
#
# Velocity S-wave (km/s) = 3.50080 3.84847 3.67874
# Velocity P-wave (km/s) = 5.76702 6.62781 6.21234
#
# Compressibility (1/GPa) = 0.03359953
#
# Stress axis : x y z
#
# Youngs Moduli (GPa) = 43.61490 43.61490 135.40311
#
# Poissons Ratio (x) = 0.14528 0.43937
# Poissons Ratio (y) = 0.14528 0.43937
# Poissons Ratio (z) = 0.14153 0.14153
#
# Static dielectric constant tensor:
#      x y z
#    x 2.897880 0.000000 0.000000 
#    y 0.000000 2.897880 0.000000 
#    z 0.000000 0.000000 3.917240 
# 
# 
# High freq. dielectric constant tensor:
#      x y z
#    x 1.641590 0.000000 0.000000 
#    y 0.000000 1.641590 0.000000 
#    z 0.000000 0.000000 1.713830 
# 
# From -- ./inp_files/150.got.cif
#   From: 2010.03.12/outbox.cif.g09.slc.cpg/sg165_1_cif.got.tgz:150.got - 2010.04.02 06:36:38.
