data_PCOD8323319
_publ_section_title
;
Structure prediction by ZEFSAII (Michael W. Deem and Ramdas Pophale) SiO2 
 PCOD8323319
Probable space group: P -3 1 C
;
_chemical_formula_sum "Si O2"
_cell_formula_units_Z 68
_cell_length_a 12.571392
_cell_length_b 12.571392
_cell_length_c 25.102527
_cell_angle_alpha 90.000000
_cell_angle_beta 90.000000
_cell_angle_gamma 120.000000
_cell_volume 3435.696655
_symmetry_space_group_name_H-M "P -3 1 C"
_symmetry_group_IT_number 163
_symmetry_cell_setting 'hexagonal'
loop_
_space_group_symop_operation_xyz
x,y,z
-y,x-y,z
-x+y,-x,z
-y,-x,1/2-z
-x+y,y,1/2-z
x,x-y,1/2-z
-x,-y,-z
y,-x+y,-z
x-y,x,-z
y,x,1/2+z
x-y,-y,1/2+z
-x,-x+y,1/2+z
loop_
_atom_site_type_symbol
_atom_site_label
_atom_site_fract_x
_atom_site_fract_y
_atom_site_fract_z
Si Si1 0.935352 0.387358 0.426811
Si Si2 0.659535 0.569673 0.599627
Si Si3 0.896619 0.327135 0.313379
Si Si4 0.078413 0.422011 0.697367
Si Si5 0.666668 0.333334 0.920193
Si Si6 0.779045 0.743447 0.509157
Si Si7 0.333334 0.666667 0.547715
O O1 0.970311 0.352878 0.368985
O O2 0.981640 0.331105 0.471556
O O3 0.789519 0.337519 0.430957
O O4 0.011064 0.533702 0.433541
O O5 0.651591 0.613689 0.658902
O O6 0.694830 0.463843 0.602884
O O7 0.765005 0.684545 0.567449
O O8 0.856754 0.430890 0.310060
O O9 0.789808 0.187531 0.317118
O O10 0.970759 0.345360 0.257829
O O11 0.666668 0.333334 0.983955
O O12 0.774259 0.866973 0.516701
#
# Coordination Sequence:
#
# PCOD8323319 Si02
#       7
#    12  12  12  12   4  12   4
#     4  11  21  34  57  85 117 150 192 239 294 354
#     4  11  23  38  58  85 116 158 196 243 293 358
#     4   9  16  29  51  83 115 146 185 238 288 342
#     4   9  17  30  53  82 117 149 188 235 295 342
#     4  12  24  39  57  82 125 160 204 238 296 358
#     4  12  24  39  57  80 111 148 190 239 297 362
#     4  12  21  33  57  91 122 157 195 241 305 364
#
# _framework density 19.792200000000001
#
# number of rings (size 3 to 8) (size 9 to 14) (size 15 to 20)
#    0.000    1.412    1.765    6.353    0.000    1.412 
#    0.000    0.000    0.000   26.471    0.000    0.000 
#    0.000    2.824    0.000    0.000    0.000    0.000 
#
# Total GULP energy -842866.589008 kJ/mol
# GULP energy per Si atom -12395.096897 kJ/mol
# Density = 1.974715 g / cm^3
# Si number density = 19.792200 Si / 1000 Ang^3
#
#
#
# Elastic Constant Matrix: (Units=GPa)
#
#
# Indices 1 2 3 4 5 6 
#
# 1 62.2376 13.9099 26.1379 0.0002 1.0753 0.0000
# 2 13.9099 62.2379 26.1378 0.0000 -1.0752 0.0002
# 3 26.1379 26.1378 119.8047 0.0003 0.0002 -0.0001
# 4 0.0002 0.0000 0.0003 22.1628 -0.0002 -1.0754
# 5 1.0753 -1.0752 0.0002 -0.0002 22.1630 -0.0001
# 6 0.0000 0.0002 -0.0001 -1.0754 -0.0001 24.1640
#
#
#
# Elastic Compliance Matrix: (Units=1/GPa)
#
#
# Indices 1 2 3 4 5 6 
#
# 1 0.018091 -0.002645 -0.003370 0.000000 -0.001006 0.000000
# 2 -0.002645 0.018091 -0.003370 0.000000 0.001006 0.000000
# 3 -0.003370 -0.003370 0.009817 0.000000 0.000000 0.000000
# 4 0.000000 0.000000 0.000000 0.045218 0.000000 0.002012
# 5 -0.001006 0.001006 0.000000 0.000000 0.045218 0.000000
# 6 0.000000 0.000000 0.000000 0.002012 0.000000 0.041473
#
#
# Mechanical properties :
#
#
# Convention : Reuss Voigt Hill
#
# Bulk Modulus (GPa) = 36.72473 41.85016 39.28745
# Shear Modulus (GPa) = 24.30062 25.57095 24.93578
#
# Velocity S-wave (km/s) = 3.50778 3.59830 3.55333
# Velocity P-wave (km/s) = 5.91620 6.20116 6.06036
#
# Compressibility (1/GPa) = 0.02722961
#
# Stress axis : x y z
#
# Youngs Moduli (GPa) = 55.27509 55.27541 101.86091
#
# Poissons Ratio (x) = 0.14623 0.34325
# Poissons Ratio (y) = 0.14623 0.34325
# Poissons Ratio (z) = 0.18627 0.18627
#
# Static dielectric constant tensor:
#      x y z
#    x 3.355660 0.000000 0.000000 
#    y 0.000000 3.355660 0.000000 
#    z 0.000000 0.000000 3.975800 
# 
# 
# High freq. dielectric constant tensor:
#      x y z
#    x 1.746000 0.000000 0.000000 
#    y 0.000000 1.746000 0.000000 
#    z 0.000000 0.000000 1.788480 
# 
# From -- ./inp_files/4365.got.cif
#   From: 2010.03.12/outbox.cif.g09.slc.cpg/sg163_3_cif.got.tgz:4365.got - 2010.04.02 06:30:25.
