data_PCOD8323416
_publ_section_title
;
Structure prediction by ZEFSAII (Michael W. Deem and Ramdas Pophale) SiO2 
 PCOD8323416
Probable space group: P -3 M 1
;
_chemical_formula_sum "Si O2"
_cell_formula_units_Z 84
_cell_length_a 17.841727
_cell_length_b 17.841727
_cell_length_c 19.854128
_cell_angle_alpha 90.000000
_cell_angle_beta 90.000000
_cell_angle_gamma 120.000000
_cell_volume 5473.375311
_symmetry_space_group_name_H-M "P -3 M 1"
_symmetry_group_IT_number 164
_symmetry_cell_setting 'hexagonal'
loop_
_space_group_symop_operation_xyz
x,y,z
-y,x-y,z
-x+y,-x,z
x-y,-y,-z
-x,-x+y,-z
y,x,-z
-x,-y,-z
y,-x+y,-z
x-y,x,-z
-x+y,y,z
x,x-y,z
-y,-x,z
loop_
_atom_site_type_symbol
_atom_site_label
_atom_site_fract_x
_atom_site_fract_y
_atom_site_fract_z
Si Si1 0.311750 0.068946 0.440853
Si Si2 0.634205 0.104021 0.237222
Si Si3 0.497626 0.164303 0.385458
Si Si4 0.288674 0.057241 0.207478
Si Si5 0.758526 0.690281 0.057630
Si Si6 0.171655 0.000439 0.327719
Si Si7 0.333909 0.833621 0.908605
O O1 0.307617 0.153809 0.463518
O O2 0.408561 0.093583 0.420225
O O3 0.250881 0.024357 0.377126
O O4 0.279723 0.000000 0.500000
O O5 0.527788 0.055575 0.237637
O O6 0.669731 0.159441 0.304850
O O7 0.674034 0.040222 0.231505
O O8 0.668619 0.166666 0.172591
O O9 0.573843 0.147686 0.411147
O O10 0.520082 0.260041 0.407257
O O11 0.319280 0.159640 0.216518
O O12 0.264607 0.029562 0.129781
O O13 0.204030 0.999199 0.252025
O O14 0.848285 0.696570 0.038971
O O15 0.682788 0.590447 0.061432
O O16 0.739676 0.739676 0.000000
O O17 0.139269 0.069635 0.333792
O O18 0.092980 0.907021 0.346467
O O19 0.425785 0.851570 0.936862
O O20 0.260249 0.739752 0.933362
#
# Coordination Sequence:
#
# PCOD8323416 Si02
#       7
#    12  12  12  12  12  12  12
#     4  10  20  33  48  65  89 119 147 178 217 259
#     4   9  15  24  41  64  89 116 142 169 206 253
#     4  10  18  28  44  66  92 120 148 178 211 252
#     4   9  16  29  45  62  87 115 141 174 218 260
#     4   9  18  30  44  61  84 114 146 179 216 257
#     4  10  19  31  48  67  86 109 141 181 221 260
#     4   9  16  25  40  62  89 117 144 173 208 253
#
# _framework density 15.347020000000001
#
# number of rings (size 3 to 8) (size 9 to 14) (size 15 to 20)
#    0.000    2.571    1.429    3.000    0.000    1.143 
#    0.000    1.429    0.000    2.714    0.000    0.000 
#    0.000    0.000    0.000    2.000    0.000    0.571 
#
# Total GULP energy -1041082.634926 kJ/mol
# GULP energy per Si atom -12393.840892 kJ/mol
# Density = 1.531209 g / cm^3
# Si number density = 15.347020 Si / 1000 Ang^3
#
#
#
# Elastic Constant Matrix: (Units=GPa)
#
#
# Indices 1 2 3 4 5 6 
#
# 1 83.8004 46.0202 41.0642 -2.9347 0.0000 0.0000
# 2 46.0202 83.8004 41.0642 2.9347 0.0000 0.0000
# 3 41.0642 41.0642 74.7702 0.0000 0.0000 0.0000
# 4 -2.9347 2.9347 0.0000 21.0959 0.0000 0.0000
# 5 0.0000 0.0000 0.0000 0.0000 21.0959 -2.9347
# 6 0.0000 0.0000 0.0000 0.0000 -2.9347 18.8901
#
#
#
# Elastic Compliance Matrix: (Units=1/GPa)
#
#
# Indices 1 2 3 4 5 6 
#
# 1 0.019429 -0.007625 -0.006483 0.003763 0.000000 0.000000
# 2 -0.007625 0.019429 -0.006483 -0.003763 0.000000 0.000000
# 3 -0.006483 -0.006483 0.020495 0.000000 0.000000 0.000000
# 4 0.003763 -0.003763 0.000000 0.048450 0.000000 0.000000
# 5 0.000000 0.000000 0.000000 0.000000 0.048450 0.007527
# 6 0.000000 0.000000 0.000000 0.000000 0.007527 0.054107
#
#
# Mechanical properties :
#
#
# Convention : Reuss Voigt Hill
#
# Bulk Modulus (GPa) = 55.02993 55.40758 55.21875
# Shear Modulus (GPa) = 19.41008 19.83119 19.62063
#
# Velocity S-wave (km/s) = 3.56018 3.59860 3.57944
# Velocity P-wave (km/s) = 7.26876 7.31082 7.28982
#
# Compressibility (1/GPa) = 0.01817193
#
# Stress axis : x y z
#
# Youngs Moduli (GPa) = 51.46967 51.46967 48.79167
#
# Poissons Ratio (x) = 0.39244 0.31632
# Poissons Ratio (y) = 0.39244 0.31632
# Poissons Ratio (z) = 0.33368 0.33368
#
# Static dielectric constant tensor:
#      x y z
#    x 2.862880 0.000000 0.000000 
#    y 0.000000 2.862880 0.000000 
#    z 0.000000 0.000000 2.832260 
# 
# 
# High freq. dielectric constant tensor:
#      x y z
#    x 1.574630 0.000000 0.000000 
#    y 0.000000 1.574630 0.000000 
#    z 0.000000 0.000000 1.575800 
# 
# From -- ./inp_files/4652.got.cif
#   From: 2010.03.12/outbox.cif.g09.slc.cpg/sg164_3_cif.got.tgz:4652.got - 2010.04.02 06:32:59.
