data_PCOD8323628
_publ_section_title
;
Structure prediction by ZEFSAII (Michael W. Deem and Ramdas Pophale) SiO2 
 PCOD8323628
Probable space group: P -3 M 1
;
_chemical_formula_sum "Si O2"
_cell_formula_units_Z 66
_cell_length_a 13.003681
_cell_length_b 13.003681
_cell_length_c 27.575189
_cell_angle_alpha 90.000000
_cell_angle_beta 90.000000
_cell_angle_gamma 120.000000
_cell_volume 4038.143459
_symmetry_space_group_name_H-M "P -3 M 1"
_symmetry_group_IT_number 164
_symmetry_cell_setting 'hexagonal'
loop_
_space_group_symop_operation_xyz
x,y,z
-y,x-y,z
-x+y,-x,z
x-y,-y,-z
-x,-x+y,-z
y,x,-z
-x,-y,-z
y,-x+y,-z
x-y,x,-z
-x+y,y,z
x,x-y,z
-y,-x,z
loop_
_atom_site_type_symbol
_atom_site_label
_atom_site_fract_x
_atom_site_fract_y
_atom_site_fract_z
Si Si1 0.757894 0.759293 0.770882
Si Si2 0.429132 0.333755 0.147883
Si Si3 0.429926 0.333313 0.309041
Si Si4 0.333340 0.430729 0.579677
Si Si5 0.903523 0.333339 0.037975
Si Si6 0.000000 0.758926 0.500000
O O1 0.875230 0.750460 0.771417
O O2 0.681263 0.693040 0.818207
O O3 0.682815 0.692199 0.723219
O O4 0.793463 0.896732 0.770486
O O5 0.465395 0.232698 0.153602
O O6 0.542279 0.457722 0.163493
O O7 0.389755 0.338407 0.092869
O O8 0.465317 0.232659 0.299835
O O9 0.541976 0.458025 0.293656
O O10 0.394575 0.334866 0.364735
O O11 0.234200 0.468400 0.571454
O O12 0.458725 0.541275 0.564109
O O13 0.306617 0.318014 0.547304
O O14 0.872287 0.436144 0.029229
O O15 0.788351 0.211650 0.026241
O O16 0.000000 0.341640 0.000000
O O17 0.887086 0.774171 0.507954
#
# Coordination Sequence:
#
# PCOD8323628 Si02
#       6
#    12  12  12  12  12   6
#     4  10  20  32  46  65  91 123 155 185 219 264
#     4   9  17  30  49  71  91 113 146 191 237 272
#     4   9  17  30  50  74  95 115 144 187 235 275
#     4   9  17  30  49  72  95 118 147 187 234 277
#     4   9  17  29  46  68  93 120 150 185 225 268
#     4  10  20  32  46  66  94 128 162 192 222 260
#
# _framework density 16.344142999999999
#
# number of rings (size 3 to 8) (size 9 to 14) (size 15 to 20)
#    0.000    2.727    0.000    1.818    0.000    4.364 
#    0.000    1.818    0.000    5.636    0.000    0.000 
#    0.000    0.000    0.000    0.000    0.000    0.000 
#
# Total GULP energy -818447.765025 kJ/mol
# GULP energy per Si atom -12400.723712 kJ/mol
# Density = 1.630694 g / cm^3
# Si number density = 16.344143 Si / 1000 Ang^3
#
#
#
# Elastic Constant Matrix: (Units=GPa)
#
#
# Indices 1 2 3 4 5 6 
#
# 1 114.8630 70.0782 69.9343 -0.4621 0.0000 0.0000
# 2 70.0782 114.8630 69.9343 0.4621 0.0000 0.0000
# 3 69.9343 69.9343 111.1209 0.0000 0.0000 0.0000
# 4 -0.4621 0.4621 0.0000 26.0656 0.0000 0.0000
# 5 0.0000 0.0000 0.0000 0.0000 26.0656 -0.4621
# 6 0.0000 0.0000 0.0000 0.0000 -0.4621 22.3924
#
#
#
# Elastic Compliance Matrix: (Units=1/GPa)
#
#
# Indices 1 2 3 4 5 6 
#
# 1 0.016328 -0.006009 -0.006494 0.000396 0.000000 0.000000
# 2 -0.006009 0.016328 -0.006494 -0.000396 0.000000 0.000000
# 3 -0.006494 -0.006494 0.017173 0.000000 0.000000 0.000000
# 4 0.000396 -0.000396 0.000000 0.038379 0.000000 0.000000
# 5 0.000000 0.000000 0.000000 0.000000 0.038379 0.000792
# 6 0.000000 0.000000 0.000000 0.000000 0.000792 0.044674
#
#
# Mechanical properties :
#
#
# Convention : Reuss Voigt Hill
#
# Bulk Modulus (GPa) = 84.50040 84.52673 84.51356
# Shear Modulus (GPa) = 23.45218 23.63140 23.54179
#
# Velocity S-wave (km/s) = 3.79211 3.80658 3.79935
# Velocity P-wave (km/s) = 8.42535 8.43499 8.43017
#
# Compressibility (1/GPa) = 0.01183426
#
# Stress axis : x y z
#
# Youngs Moduli (GPa) = 61.24526 61.24526 58.23044
#
# Poissons Ratio (x) = 0.36805 0.37814
# Poissons Ratio (y) = 0.36805 0.37814
# Poissons Ratio (z) = 0.39772 0.39772
#
# Static dielectric constant tensor:
#      x y z
#    x 2.943270 0.000000 0.000000 
#    y 0.000000 2.943270 0.000000 
#    z 0.000000 0.000000 3.331930 
# 
# 
# High freq. dielectric constant tensor:
#      x y z
#    x 1.617500 0.000000 0.000000 
#    y 0.000000 1.617500 0.000000 
#    z 0.000000 0.000000 1.642290 
# 
# From -- ./inp_files/5490.got.cif
#   From: 2010.03.12/outbox.cif.g09.slc.cpg/sg164_3_cif.got.tgz:5490.got - 2010.04.02 06:32:59.
