data_PCOD8323997
_publ_section_title
;
Structure prediction by ZEFSAII (Michael W. Deem and Ramdas Pophale) SiO2 
 PCOD8323997
Probable space group: R -3 M
;
_chemical_formula_sum "Si O2"
_cell_formula_units_Z 216
_cell_length_a 25.136526
_cell_length_b 25.136526
_cell_length_c 24.538617
_cell_angle_alpha 90.000000
_cell_angle_beta 90.000000
_cell_angle_gamma 120.000000
_cell_volume 13427.378316
_symmetry_space_group_name_H-M "R -3 M"
_symmetry_group_IT_number 166
_symmetry_cell_setting 'hexagonal'
loop_
_space_group_symop_operation_xyz
x,y,z
-y,x-y,z
-x+y,-x,z
x-y,-y,-z
-x,-x+y,-z
y,x,-z
-x,-y,-z
y,-x+y,-z
x-y,x,-z
-x+y,y,z
x,x-y,z
-y,-x,z
2/3+x,1/3+y,1/3+z
2/3-y,1/3+x-y,1/3+z
2/3-x+y,1/3-x,1/3+z
2/3+x-y,1/3-y,1/3-z
2/3-x,1/3-x+y,1/3-z
2/3+y,1/3+x,1/3-z
2/3-x,1/3-y,1/3-z
2/3+y,1/3-x+y,1/3-z
2/3+x-y,1/3+x,1/3-z
2/3-x+y,1/3+y,1/3+z
2/3+x,1/3+x-y,1/3+z
2/3-y,1/3-x,1/3+z
1/3+x,2/3+y,2/3+z
1/3-y,2/3+x-y,2/3+z
1/3-x+y,2/3-x,2/3+z
1/3+x-y,2/3-y,2/3-z
1/3-x,2/3-x+y,2/3-z
1/3+y,2/3+x,2/3-z
1/3-x,2/3-y,2/3-z
1/3+y,2/3-x+y,2/3-z
1/3+x-y,2/3+x,2/3-z
1/3-x+y,2/3+y,2/3+z
1/3+x,2/3+x-y,2/3+z
1/3-y,2/3-x,2/3+z
loop_
_atom_site_type_symbol
_atom_site_label
_atom_site_fract_x
_atom_site_fract_y
_atom_site_fract_z
Si Si1 0.561041 0.907808 0.606032
Si Si2 0.791108 0.208893 0.217479
Si Si3 0.550196 0.983249 0.938094
Si Si4 0.393563 0.196782 0.096371
Si Si5 0.626654 0.048442 0.628406
Si Si6 0.851862 0.266035 0.819012
Si Si7 0.895396 0.224475 0.405740
O O1 0.547242 0.880575 0.666667
O O2 0.496037 0.885006 0.575879
O O3 0.602851 0.882882 0.579259
O O4 0.601868 0.981514 0.603061
O O5 0.785155 0.214846 0.153228
O O6 0.826992 0.173009 0.229815
O O7 0.479551 0.959102 0.916851
O O8 0.572483 0.933829 0.939640
O O9 0.596804 0.041357 0.900701
O O10 0.550282 0.000000 0.000000
O O11 0.414482 0.257721 0.061726
O O12 0.616677 0.039099 0.694085
O O13 0.778987 0.221014 0.809881
O O14 0.863305 0.333334 0.833334
O O15 0.874327 0.245453 0.870977
O O16 0.832847 0.167154 0.381433
#
# Coordination Sequence:
#
# PCOD8323997 Si02
#       7
#    36  18  36  18  36  36  36
#     4   9  18  27  46  62  93 129 152 192 224 282
#     4   9  18  30  40  70  90 119 168 186 240 275
#     4  10  20  32  47  68  96 127 162 196 237 292
#     4   9  18  28  46  64  94 120 151 206 223 290
#     4  10  17  31  46  66  93 127 156 187 238 282
#     4  10  20  32  48  69  94 125 162 199 234 284
#     4  10  19  31  46  69  95 125 162 194 233 291
#
# _framework density 16.086535999999999
#
# number of rings (size 3 to 8) (size 9 to 14) (size 15 to 20)
#    0.000    2.333    0.833    3.500    5.833    0.000 
#    0.000    0.000    0.000    0.167    0.000    0.000 
#    1.667    0.667    0.000    0.000    0.000    0.000 
#
# Total GULP energy -891979.011148 kJ/mol
# GULP energy per Si atom -12388.597377 kJ/mol
# Density = 1.604992 g / cm^3
# Si number density = 16.086536 Si / 1000 Ang^3
#
#
#
# Elastic Constant Matrix: (Units=GPa)
#
#
# Indices 1 2 3 4 5 6 
#
# 1 76.5343 51.9190 33.1168 -7.3868 0.0000 0.0000
# 2 51.9190 76.5343 33.1168 7.3868 0.0000 0.0000
# 3 33.1168 33.1168 70.1489 0.0000 0.0000 0.0000
# 4 -7.3868 7.3868 0.0000 21.3920 0.0000 0.0000
# 5 0.0000 0.0000 0.0000 0.0000 21.3920 -7.3868
# 6 0.0000 0.0000 0.0000 0.0000 -7.3868 12.3077
#
#
#
# Elastic Compliance Matrix: (Units=1/GPa)
#
#
# Indices 1 2 3 4 5 6 
#
# 1 0.030768 -0.020478 -0.004858 0.017695 0.000000 0.000000
# 2 -0.020478 0.030768 -0.004858 -0.017695 0.000000 0.000000
# 3 -0.004858 -0.004858 0.018842 0.000000 0.000000 0.000000
# 4 0.017695 -0.017695 0.000000 0.058967 0.000000 0.000000
# 5 0.000000 0.000000 0.000000 0.000000 0.058967 0.035391
# 6 0.000000 0.000000 0.000000 0.000000 0.035391 0.102491
#
#
# Mechanical properties :
#
#
# Convention : Reuss Voigt Hill
#
# Bulk Modulus (GPa) = 50.02363 51.05810 50.54086
# Shear Modulus (GPa) = 13.59239 18.02266 15.80753
#
# Velocity S-wave (km/s) = 2.90996 3.35080 3.13813
# Velocity P-wave (km/s) = 6.51572 6.83952 6.67958
#
# Compressibility (1/GPa) = 0.01999055
#
# Stress axis : x y z
#
# Youngs Moduli (GPa) = 32.50169 32.50169 53.07306
#
# Poissons Ratio (x) = 0.66557 0.25781
# Poissons Ratio (y) = 0.66557 0.25781
# Poissons Ratio (z) = 0.15788 0.15788
#
# Static dielectric constant tensor:
#      x y z
#    x 3.186900 0.000000 0.000000 
#    y 0.000000 3.186900 0.000000 
#    z 0.000000 0.000000 3.158860 
# 
# 
# High freq. dielectric constant tensor:
#      x y z
#    x 1.593160 0.000000 0.000000 
#    y 0.000000 1.593160 0.000000 
#    z 0.000000 0.000000 1.631150 
# 
# From -- ./inp_files/9763.got.cif
#   From: 2010.03.12/outbox.cif.g09.slc.cpg/sg166_5_cif.got.tgz:9763.got - 2010.04.02 06:38:31.
