data_PCOD8323917
_publ_section_title
;
Structure prediction by ZEFSAII (Michael W. Deem and Ramdas Pophale) SiO2 
 PCOD8323917
Probable space group: P -3 C 1
;
_chemical_formula_sum "Si O2"
_cell_formula_units_Z 66
_cell_length_a 18.822408
_cell_length_b 18.822408
_cell_length_c 10.256558
_cell_angle_alpha 90.000000
_cell_angle_beta 90.000000
_cell_angle_gamma 120.000000
_cell_volume 3146.897795
_symmetry_space_group_name_H-M "P -3 C 1"
_symmetry_group_IT_number 165
_symmetry_cell_setting 'hexagonal'
loop_
_space_group_symop_operation_xyz
x,y,z
-y,x-y,z
-x+y,-x,z
x-y,-y,1/2-z
-x,-x+y,1/2-z
y,x,1/2-z
-x,-y,-z
y,-x+y,-z
x-y,x,-z
-x+y,y,1/2+z
x,x-y,1/2+z
-y,-x,1/2+z
loop_
_atom_site_type_symbol
_atom_site_label
_atom_site_fract_x
_atom_site_fract_y
_atom_site_fract_z
Si Si1 0.182056 0.493248 0.347026
Si Si2 0.920274 0.428484 0.567464
Si Si3 0.359246 0.359246 0.250000
Si Si4 0.802617 0.117180 0.398398
Si Si5 0.086595 0.789073 0.818938
Si Si6 0.210066 0.725173 0.572683
O O1 0.123474 0.531032 0.353895
O O2 0.127142 0.394810 0.341503
O O3 0.244433 0.528109 0.469196
O O4 0.238692 0.522416 0.217258
O O5 0.864492 0.364704 0.458184
O O6 0.000000 0.500000 0.500000
O O7 0.936874 0.375950 0.672114
O O8 0.340924 0.288849 0.354158
O O9 0.820590 0.082497 0.533384
O O10 0.862166 0.131185 0.274746
O O11 0.819254 0.208078 0.428858
O O12 0.000000 0.734981 0.750000
#
# Coordination Sequence:
#
# PCOD8323917 Si02
#       6
#    12  12   6  12  12  12
#     4  10  23  39  62  88 119 173 219 279 337 402
#     4  12  24  37  65  96 127 172 234 288 338 409
#     4  12  24  38  64  98 134 164 222 286 350 406
#     4  10  23  39  64  93 129 175 208 275 346 400
#     4  10  22  38  64  89 137 169 218 265 337 398
#     4  10  22  42  59  84 129 161 221 275 352 384
#
# _framework density 20.973034999999999
#
# number of rings (size 3 to 8) (size 9 to 14) (size 15 to 20)
#    0.000    1.455    0.000    6.545   14.000    1.455 
#    1.091    0.000    4.000    0.000    0.000    0.000 
#    0.909    1.455    0.000    0.000    0.000    0.000 
#
# Total GULP energy -818004.922191 kJ/mol
# GULP energy per Si atom -12394.013973 kJ/mol
# Density = 2.092530 g / cm^3
# Si number density = 20.973035 Si / 1000 Ang^3
#
#
#
# Elastic Constant Matrix: (Units=GPa)
#
#
# Indices 1 2 3 4 5 6 
#
# 1 81.8004 27.9530 51.9724 -4.1159 0.0000 0.0000
# 2 27.9530 81.8004 51.9724 4.1159 0.0000 0.0000
# 3 51.9724 51.9724 210.8577 0.0000 0.0000 0.0000
# 4 -4.1159 4.1159 0.0000 29.4788 0.0000 0.0000
# 5 0.0000 0.0000 0.0000 0.0000 29.4788 -4.1159
# 6 0.0000 0.0000 0.0000 0.0000 -4.1159 26.9237
#
#
#
# Elastic Compliance Matrix: (Units=1/GPa)
#
#
# Indices 1 2 3 4 5 6 
#
# 1 0.015431 -0.003545 -0.002930 0.002650 0.000000 0.000000
# 2 -0.003545 0.015431 -0.002930 -0.002650 0.000000 0.000000
# 3 -0.002930 -0.002930 0.006187 0.000000 0.000000 0.000000
# 4 0.002650 -0.002650 0.000000 0.034663 0.000000 0.000000
# 5 0.000000 0.000000 0.000000 0.000000 0.034663 0.005299
# 6 0.000000 0.000000 0.000000 0.000000 0.005299 0.037952
#
#
# Mechanical properties :
#
#
# Convention : Reuss Voigt Hill
#
# Bulk Modulus (GPa) = 54.82455 70.91711 62.87083
# Shear Modulus (GPa) = 29.54825 33.34696 31.44760
#
# Velocity S-wave (km/s) = 3.75756 3.99180 3.87645
# Velocity P-wave (km/s) = 6.70991 7.42515 7.07657
#
# Compressibility (1/GPa) = 0.01824000
#
# Stress axis : x y z
#
# Youngs Moduli (GPa) = 64.80460 64.80460 161.63588
#
# Poissons Ratio (x) = 0.22974 0.47354
# Poissons Ratio (y) = 0.22974 0.47354
# Poissons Ratio (z) = 0.18986 0.18986
#
# Static dielectric constant tensor:
#      x y z
#    x 3.622700 0.000000 0.000000 
#    y 0.000000 3.622700 0.000000 
#    z 0.000000 0.000000 4.606590 
# 
# 
# High freq. dielectric constant tensor:
#      x y z
#    x 1.790320 0.000000 0.000000 
#    y 0.000000 1.790320 0.000000 
#    z 0.000000 0.000000 1.860000 
# 
# From -- ./inp_files/716.got.cif
#   From: 2010.03.12/outbox.cif.g09.slc.cpg/sg165_1_cif.got.tgz:716.got - 2010.04.02 06:36:38.
