data_PCOD8323918
_publ_section_title
;
Structure prediction by ZEFSAII (Michael W. Deem and Ramdas Pophale) SiO2 
 PCOD8323918
Probable space group: P -3 C 1
;
_chemical_formula_sum "Si O2"
_cell_formula_units_Z 54
_cell_length_a 11.656852
_cell_length_b 11.656852
_cell_length_c 22.407910
_cell_angle_alpha 90.000000
_cell_angle_beta 90.000000
_cell_angle_gamma 120.000000
_cell_volume 2636.905392
_symmetry_space_group_name_H-M "P -3 C 1"
_symmetry_group_IT_number 165
_symmetry_cell_setting 'hexagonal'
loop_
_space_group_symop_operation_xyz
x,y,z
-y,x-y,z
-x+y,-x,z
x-y,-y,1/2-z
-x,-x+y,1/2-z
y,x,1/2-z
-x,-y,-z
y,-x+y,-z
x-y,x,-z
-x+y,y,1/2+z
x,x-y,1/2+z
-y,-x,1/2+z
loop_
_atom_site_type_symbol
_atom_site_label
_atom_site_fract_x
_atom_site_fract_y
_atom_site_fract_z
Si Si1 0.590629 0.923023 0.067779
Si Si2 0.935176 0.600039 0.950101
Si Si3 0.371350 0.432275 0.311254
Si Si4 0.706820 0.093177 0.664665
Si Si5 0.000000 0.850840 0.750000
O O1 0.612503 0.800177 0.069325
O O2 0.441429 0.885785 0.052828
O O3 0.635069 0.978830 0.133436
O O4 0.682112 0.025919 0.016971
O O5 0.059509 0.685719 0.905878
O O6 0.352339 0.352339 0.250000
O O7 0.249161 0.456949 0.321614
O O8 0.512761 0.565303 0.307145
O O9 0.772375 0.011131 0.692853
O O10 0.870028 0.870028 0.750000
#
# Coordination Sequence:
#
# PCOD8323918 Si02
#       5
#    12  12  12  12   6
#     4  10  22  39  61  91 119 163 201 263 308 374
#     4  10  22  40  64  89 123 160 212 258 317 374
#     4  11  24  39  66  91 128 162 210 265 313 378
#     4  11  23  42  62  96 124 168 214 261 320 368
#     4  10  24  40  62  92 136 176 206 252 316 398
#
# _framework density 20.478549000000001
#
# number of rings (size 3 to 8) (size 9 to 14) (size 15 to 20)
#    0.222    1.333    1.111    2.889    6.222    0.000 
#    0.000    4.444    0.000    1.778    0.000    0.000 
#    0.000    0.000    0.000    0.000    0.000    0.000 
#
# Total GULP energy -669399.492041 kJ/mol
# GULP energy per Si atom -12396.286890 kJ/mol
# Density = 2.043194 g / cm^3
# Si number density = 20.478549 Si / 1000 Ang^3
#
#
#
# Elastic Constant Matrix: (Units=GPa)
#
#
# Indices 1 2 3 4 5 6 
#
# 1 69.9795 54.6573 51.2636 -25.3358 0.0000 0.0000
# 2 54.6573 69.9795 51.2636 25.3358 0.0000 0.0000
# 3 51.2636 51.2636 170.5006 0.0000 0.0000 0.0000
# 4 -25.3358 25.3358 0.0000 -16.2579 0.0000 0.0000
# 5 0.0000 0.0000 0.0000 0.0000 -16.2579 -25.3358
# 6 0.0000 0.0000 0.0000 0.0000 -25.3358 7.6611
#
#
#
# Elastic Compliance Matrix: (Units=1/GPa)
#
#
# Indices 1 2 3 4 5 6 
#
# 1 0.010633 0.000027 -0.003205 -0.016528 0.000000 0.000000
# 2 0.000027 0.010633 -0.003205 0.016528 0.000000 0.000000
# 3 -0.003205 -0.003205 0.007792 0.000000 0.000000 0.000000
# 4 -0.016528 0.016528 0.000000 -0.009996 0.000000 0.000000
# 5 0.000000 0.000000 0.000000 0.000000 -0.009996 -0.033056
# 6 0.000000 0.000000 0.000000 0.000000 -0.033056 0.021212
#
#
# Mechanical properties :
#
#
# Convention : Reuss Voigt Hill
#
# Bulk Modulus (GPa) = 61.38044 69.42542 65.40293
# Shear Modulus (GPa) = 103.14449 5.24740 54.19595
#
# Velocity S-wave (km/s) = 7.10468 1.60248 5.14997
# Velocity P-wave (km/s) = 9.86610 6.11548 8.20790
#
# Compressibility (1/GPa) = 0.01629183
#
# Stress axis : x y z
#
# Youngs Moduli (GPa) = 94.04806 94.04806 128.33072
#
# Poissons Ratio (x) = -0.00253 0.41130
# Poissons Ratio (y) = -0.00253 0.41130
# Poissons Ratio (z) = 0.30143 0.30143
#
# Static dielectric constant tensor:
#      x y z
#    x 3.623210 0.000000 0.000000 
#    y 0.000000 3.623210 0.000000 
#    z 0.000000 0.000000 3.887880 
# 
# 
# High freq. dielectric constant tensor:
#      x y z
#    x 1.798470 0.000000 0.000000 
#    y 0.000000 1.798470 0.000000 
#    z 0.000000 0.000000 1.812440 
# 
# From -- ./inp_files/2870.got.cif
#   From: 2010.03.12/outbox.cif.g09.slc.cpg/sg165_2_cif.got.tgz:2870.got - 2010.04.02 06:36:38.
