data_PCOD8323326
_publ_section_title
;
Structure prediction by ZEFSAII (Michael W. Deem and Ramdas Pophale) SiO2 
 PCOD8323326
Probable space group: P -3 1 C
;
_chemical_formula_sum "Si O2"
_cell_formula_units_Z 52
_cell_length_a 11.798511
_cell_length_b 11.798511
_cell_length_c 18.897199
_cell_angle_alpha 90.000000
_cell_angle_beta 90.000000
_cell_angle_gamma 120.000000
_cell_volume 2278.150818
_symmetry_space_group_name_H-M "P -3 1 C"
_symmetry_group_IT_number 163
_symmetry_cell_setting 'hexagonal'
loop_
_space_group_symop_operation_xyz
x,y,z
-y,x-y,z
-x+y,-x,z
-y,-x,1/2-z
-x+y,y,1/2-z
x,x-y,1/2-z
-x,-y,-z
y,-x+y,-z
x-y,x,-z
y,x,1/2+z
x-y,-y,1/2+z
-x,-x+y,1/2+z
loop_
_atom_site_type_symbol
_atom_site_label
_atom_site_fract_x
_atom_site_fract_y
_atom_site_fract_z
Si Si1 0.021294 0.733403 0.718712
Si Si2 0.333335 0.666668 0.166346
Si Si3 0.435514 0.088876 0.417060
Si Si4 0.873219 0.245749 0.649465
Si Si5 0.405649 0.318223 0.460625
O O1 0.122559 0.877442 0.750000
O O2 0.091720 0.680155 0.666438
O O3 0.905534 0.731762 0.670539
O O4 0.959757 0.630152 0.782949
O O5 0.333334 0.666667 0.250000
O O6 0.274587 0.755024 0.137301
O O7 0.388235 0.176516 0.457840
O O8 0.586655 0.133913 0.426412
O O9 0.351479 0.947717 0.456143
O O10 0.964890 0.289473 0.580846
#
# Coordination Sequence:
#
# PCOD8323326 Si02
#       5
#    12   4  12  12  12
#     4  11  22  42  64  96 138 181 230 280 354 422
#     4  12  21  39  69 108 132 174 241 299 364 411
#     4  11  24  42  66  95 132 180 223 292 353 425
#     4  11  24  41  69 101 137 182 233 299 351 427
#     4  11  24  44  67  98 138 178 238 291 362 434
#
# _framework density 22.825531000000002
#
# number of rings (size 3 to 8) (size 9 to 14) (size 15 to 20)
#    0.000    0.923    4.615    3.231    0.000    1.846 
#    5.538    0.000    0.000    1.846    0.000    0.000 
#    0.000    0.000    0.000    0.000    0.000    0.000 
#
# Total GULP energy -644642.094597 kJ/mol
# GULP energy per Si atom -12396.963358 kJ/mol
# Density = 2.277358 g / cm^3
# Si number density = 22.825531 Si / 1000 Ang^3
#
#
#
# Elastic Constant Matrix: (Units=GPa)
#
#
# Indices 1 2 3 4 5 6 
#
# 1 110.6619 45.1562 25.9757 0.0000 0.2917 0.0000
# 2 45.1562 110.6622 25.9757 -0.0005 -0.2920 0.0001
# 3 25.9757 25.9757 91.7315 -0.0001 -0.0001 0.0001
# 4 0.0000 -0.0005 -0.0001 16.0475 -0.0001 -0.2920
# 5 0.2917 -0.2920 -0.0001 -0.0001 16.0476 0.0000
# 6 0.0000 0.0001 0.0001 -0.2920 0.0000 32.7530
#
#
#
# Elastic Compliance Matrix: (Units=1/GPa)
#
#
# Indices 1 2 3 4 5 6 
#
# 1 0.011178 -0.004091 -0.002007 0.000000 -0.000278 0.000000
# 2 -0.004091 0.011178 -0.002007 0.000000 0.000278 0.000000
# 3 -0.002007 -0.002007 0.012038 0.000000 0.000000 0.000000
# 4 0.000000 0.000000 0.000000 0.062325 0.000000 0.000556
# 5 -0.000278 0.000278 0.000000 0.000000 0.062325 0.000000
# 6 0.000000 0.000000 0.000000 0.000556 0.000000 0.030537
#
#
# Mechanical properties :
#
#
# Convention : Reuss Voigt Hill
#
# Bulk Modulus (GPa) = 54.99214 56.36341 55.67778
# Shear Modulus (GPa) = 23.60171 27.36616 25.48393
#
# Velocity S-wave (km/s) = 3.21908 3.46631 3.34498
# Velocity P-wave (km/s) = 6.16128 6.38492 6.27409
#
# Compressibility (1/GPa) = 0.01818442
#
# Stress axis : x y z
#
# Youngs Moduli (GPa) = 89.46494 89.46514 83.07089
#
# Poissons Ratio (x) = 0.36598 0.16671
# Poissons Ratio (y) = 0.36598 0.16670
# Poissons Ratio (z) = 0.17954 0.17954
#
# Static dielectric constant tensor:
#      x y z
#    x 4.029060 0.000010 0.000000 
#    y 0.000010 4.029060 0.000000 
#    z 0.000000 0.000000 4.290860 
# 
# 
# High freq. dielectric constant tensor:
#      x y z
#    x 1.889540 0.000000 0.000000 
#    y 0.000000 1.889540 0.000000 
#    z 0.000000 0.000000 1.917950 
# 
# From -- ./inp_files/3496.got.cif
#   From: 2010.03.12/outbox.cif.g09.slc.cpg/sg163_2_cif.got.tgz:3496.got - 2010.04.02 06:30:25.
