data_PCOD8323300
_publ_section_title
;
Structure prediction by ZEFSAII (Michael W. Deem and Ramdas Pophale) SiO2 
 PCOD8323300
Probable space group: P -3 1 C
;
_chemical_formula_sum "Si O2"
_cell_formula_units_Z 48
_cell_length_a 16.098963
_cell_length_b 16.098963
_cell_length_c 9.694544
_cell_angle_alpha 90.000000
_cell_angle_beta 90.000000
_cell_angle_gamma 120.000000
_cell_volume 2175.974604
_symmetry_space_group_name_H-M "P -3 1 C"
_symmetry_group_IT_number 163
_symmetry_cell_setting 'hexagonal'
loop_
_space_group_symop_operation_xyz
x,y,z
-y,x-y,z
-x+y,-x,z
-y,-x,1/2-z
-x+y,y,1/2-z
x,x-y,1/2-z
-x,-y,-z
y,-x+y,-z
x-y,x,-z
y,x,1/2+z
x-y,-y,1/2+z
-x,-x+y,1/2+z
loop_
_atom_site_type_symbol
_atom_site_label
_atom_site_fract_x
_atom_site_fract_y
_atom_site_fract_z
Si Si1 0.400551 0.302193 0.603453
Si Si2 0.457693 0.728847 0.250000
Si Si3 0.438042 0.382195 0.297941
Si Si4 0.855447 0.069618 0.501177
Si Si5 0.825837 0.651674 0.250000
O O1 0.470672 0.256357 0.620570
O O2 0.425828 0.365382 0.463316
O O3 0.418683 0.367872 0.738581
O O4 0.287574 0.219281 0.613789
O O5 0.387448 0.774895 0.250000
O O6 0.545001 0.454999 0.250000
O O7 0.415310 0.285765 0.217856
O O8 0.838920 0.120894 0.375582
O O9 0.965503 0.130827 0.548389
#
# Coordination Sequence:
#
# PCOD8323300 Si02
#       5
#    12   6  12  12   6
#     4  11  25  43  76 101 145 190 242 306 362 450
#     4  10  26  48  72 107 137 184 248 292 374 444
#     4  11  24  44  71 105 145 189 247 299 377 433
#     4  11  24  43  69 102 144 190 242 295 359 426
#     4  10  24  42  62 109 133 188 238 296 358 436
#
# _framework density 22.059082
#
# number of rings (size 3 to 8) (size 9 to 14) (size 15 to 20)
#    0.250    1.000    2.500    1.750    7.000    5.000 
#    0.750    0.000    0.000    0.000    0.000    0.000 
#    0.000    0.000    0.000    0.000    0.000    0.000 
#
# Total GULP energy -594627.530323 kJ/mol
# GULP energy per Si atom -12388.073548 kJ/mol
# Density = 2.200887 g / cm^3
# Si number density = 22.059082 Si / 1000 Ang^3
#
#
#
# Elastic Constant Matrix: (Units=GPa)
#
#
# Indices 1 2 3 4 5 6 
#
# 1 154.7699 53.7132 43.7695 -0.0002 6.8451 0.0000
# 2 53.7132 154.7699 43.7695 0.0002 -6.8451 0.0000
# 3 43.7695 43.7695 108.7488 0.0000 0.0000 0.0000
# 4 -0.0002 0.0002 0.0000 30.6548 0.0000 -6.8451
# 5 6.8451 -6.8451 0.0000 0.0000 30.6548 -0.0002
# 6 0.0000 0.0000 0.0000 -6.8451 -0.0002 50.5284
#
#
#
# Elastic Compliance Matrix: (Units=1/GPa)
#
#
# Indices 1 2 3 4 5 6 
#
# 1 0.007988 -0.002216 -0.002323 0.000000 -0.002279 0.000000
# 2 -0.002216 0.007988 -0.002323 0.000000 0.002279 0.000000
# 3 -0.002323 -0.002323 0.011066 0.000000 0.000000 0.000000
# 4 0.000000 0.000000 0.000000 0.033639 0.000000 0.004557
# 5 -0.002279 0.002279 0.000000 0.000000 0.033639 0.000000
# 6 0.000000 0.000000 0.000000 0.004557 0.000000 0.020408
#
#
# Mechanical properties :
#
#
# Convention : Reuss Voigt Hill
#
# Bulk Modulus (GPa) = 75.09189 77.86592 76.47890
# Shear Modulus (GPa) = 37.62475 40.83669 39.23072
#
# Velocity S-wave (km/s) = 4.13441 4.30727 4.22173
# Velocity P-wave (km/s) = 7.54363 7.75321 7.64914
#
# Compressibility (1/GPa) = 0.01331702
#
# Stress axis : x y z
#
# Youngs Moduli (GPa) = 125.18694 125.18694 90.37064
#
# Poissons Ratio (x) = 0.27742 0.20994
# Poissons Ratio (y) = 0.27742 0.20994
# Poissons Ratio (z) = 0.29083 0.29083
#
# Static dielectric constant tensor:
#      x y z
#    x 4.649650 0.000000 0.000000 
#    y 0.000000 4.649650 0.000000 
#    z 0.000000 0.000000 3.479180 
# 
# 
# High freq. dielectric constant tensor:
#      x y z
#    x 1.880990 0.000000 0.000000 
#    y 0.000000 1.880990 0.000000 
#    z 0.000000 0.000000 1.847020 
# 
# From -- ./inp_files/948.got.cif
#   From: 2010.03.12/outbox.cif.g09.slc.cpg/sg163_1_cif.got.tgz:948.got - 2010.04.02 06:30:25.
