data_PCOD8323947
_publ_section_title
;
Structure prediction by ZEFSAII (Michael W. Deem and Ramdas Pophale) SiO2 
 PCOD8323947
Probable space group: P -3 C 1
;
_chemical_formula_sum "Si O2"
_cell_formula_units_Z 72
_cell_length_a 21.714227
_cell_length_b 21.714227
_cell_length_c 9.694549
_cell_angle_alpha 90.000000
_cell_angle_beta 90.000000
_cell_angle_gamma 120.000000
_cell_volume 3958.648936
_symmetry_space_group_name_H-M "P -3 C 1"
_symmetry_group_IT_number 165
_symmetry_cell_setting 'hexagonal'
loop_
_space_group_symop_operation_xyz
x,y,z
-y,x-y,z
-x+y,-x,z
x-y,-y,1/2-z
-x,-x+y,1/2-z
y,x,1/2-z
-x,-y,-z
y,-x+y,-z
x-y,x,-z
-x+y,y,1/2+z
x,x-y,1/2+z
-y,-x,1/2+z
loop_
_atom_site_type_symbol
_atom_site_label
_atom_site_fract_x
_atom_site_fract_y
_atom_site_fract_z
Si Si1 0.146224 0.146224 0.250000
Si Si2 0.869604 0.241320 0.382599
Si Si3 0.505956 0.913986 0.905505
Si Si4 0.773650 0.001900 0.985515
Si Si5 0.000000 0.137161 0.250000
Si Si6 0.378999 0.253219 0.555787
Si Si7 0.483278 0.082404 0.401272
O O1 0.201707 0.183009 0.126555
O O2 0.131966 0.068644 0.293120
O O3 0.925381 0.217867 0.428185
O O4 0.796680 0.191884 0.460441
O O5 0.860895 0.232946 0.217507
O O6 0.894831 0.320306 0.435848
O O7 0.553143 0.883395 0.969408
O O8 0.483671 0.888323 0.748991
O O9 0.553433 0.998261 0.908872
O O10 0.432962 0.884627 0.990901
O O11 0.809031 0.973326 0.877518
O O12 0.691163 0.943216 0.001173
#
# Coordination Sequence:
#
# PCOD8323947 Si02
#       7
#     6  12  12  12   6  12  12
#     4  12  27  40  60  82 101 148 204 254 304 362
#     4  11  22  38  59  85 119 155 191 235 288 345
#     4   9  18  35  56  82 114 146 178 221 274 327
#     4  12  24  40  56  82 115 148 191 246 310 349
#     4  12  23  44  60  74 109 146 196 256 304 364
#     4  11  22  38  59  85 119 155 191 235 288 345
#     4   9  18  35  56  82 114 146 178 221 274 327
#
# _framework density 18.188023999999999
#
# number of rings (size 3 to 8) (size 9 to 14) (size 15 to 20)
#    0.000    1.333    3.333    3.167    2.333    1.333 
#    0.000    1.667    0.000    0.667    0.000    0.000 
#    0.000    0.000    0.000    0.000    0.000    0.000 
#
# Total GULP energy -892874.057576 kJ/mol
# GULP energy per Si atom -12401.028577 kJ/mol
# Density = 1.814663 g / cm^3
# Si number density = 18.188024 Si / 1000 Ang^3
#
#
#
# Elastic Constant Matrix: (Units=GPa)
#
#
# Indices 1 2 3 4 5 6 
#
# 1 65.1358 16.5177 21.8810 2.3091 0.0000 0.0000
# 2 16.5177 65.1358 21.8810 -2.3091 0.0000 0.0000
# 3 21.8810 21.8810 68.2203 0.0000 0.0000 0.0000
# 4 2.3091 -2.3091 0.0000 28.3936 0.0000 0.0000
# 5 0.0000 0.0000 0.0000 0.0000 28.3936 2.3091
# 6 0.0000 0.0000 0.0000 0.0000 2.3091 24.3091
#
#
#
# Elastic Compliance Matrix: (Units=1/GPa)
#
#
# Indices 1 2 3 4 5 6 
#
# 1 0.017759 -0.002970 -0.004743 -0.001686 0.000000 0.000000
# 2 -0.002970 0.017759 -0.004743 0.001686 0.000000 0.000000
# 3 -0.004743 -0.004743 0.017701 0.000000 0.000000 0.000000
# 4 -0.001686 0.001686 0.000000 0.035493 0.000000 0.000000
# 5 0.000000 0.000000 0.000000 0.000000 0.035493 -0.003371
# 6 0.000000 0.000000 0.000000 0.000000 -0.003371 0.041457
#
#
# Mechanical properties :
#
#
# Convention : Reuss Voigt Hill
#
# Bulk Modulus (GPa) = 35.32871 35.45017 35.38944
# Shear Modulus (GPa) = 24.99858 25.43341 25.21599
#
# Velocity S-wave (km/s) = 3.71138 3.74352 3.72749
# Velocity P-wave (km/s) = 6.15078 6.18211 6.16647
#
# Compressibility (1/GPa) = 0.02830559
#
# Stress axis : x y z
#
# Youngs Moduli (GPa) = 56.30995 56.30995 56.49319
#
# Poissons Ratio (x) = 0.16723 0.26797
# Poissons Ratio (y) = 0.16723 0.26797
# Poissons Ratio (z) = 0.26710 0.26710
#
# Static dielectric constant tensor:
#      x y z
#    x 3.344630 0.000000 0.000000 
#    y 0.000000 3.344630 0.000000 
#    z 0.000000 0.000000 3.619110 
# 
# 
# High freq. dielectric constant tensor:
#      x y z
#    x 1.696780 0.000000 0.000000 
#    y 0.000000 1.696780 0.000000 
#    z 0.000000 0.000000 1.712080 
# 
# From -- ./inp_files/791.got.cif
#   From: 2010.03.12/outbox.cif.g09.slc.cpg/sg165_1_cif.got.tgz:791.got - 2010.04.02 06:36:38.
