data_PCOD8323253
_publ_section_title
;
Structure prediction by ZEFSAII (Michael W. Deem and Ramdas Pophale) SiO2 
 PCOD8323253
Probable space group: P -3 1 C
;
_chemical_formula_sum "Si O2"
_cell_formula_units_Z 76
_cell_length_a 16.834908
_cell_length_b 16.834908
_cell_length_c 14.179249
_cell_angle_alpha 90.000000
_cell_angle_beta 90.000000
_cell_angle_gamma 120.000000
_cell_volume 3480.209239
_symmetry_space_group_name_H-M "P -3 1 C"
_symmetry_group_IT_number 163
_symmetry_cell_setting 'hexagonal'
loop_
_space_group_symop_operation_xyz
x,y,z
-y,x-y,z
-x+y,-x,z
-y,-x,1/2-z
-x+y,y,1/2-z
x,x-y,1/2-z
-x,-y,-z
y,-x+y,-z
x-y,x,-z
y,x,1/2+z
x-y,-y,1/2+z
-x,-x+y,1/2+z
loop_
_atom_site_type_symbol
_atom_site_label
_atom_site_fract_x
_atom_site_fract_y
_atom_site_fract_z
Si Si1 0.681935 0.187416 0.473694
Si Si2 0.333335 0.666668 0.858454
Si Si3 0.140598 0.654849 0.489932
Si Si4 0.117370 0.723378 0.692537
Si Si5 0.661566 0.019593 0.368709
Si Si6 0.840684 0.031184 0.891897
Si Si7 0.967976 0.807112 0.112667
O O1 0.687242 0.254270 0.390098
O O2 0.765567 0.254104 0.544066
O O3 0.583268 0.145591 0.522160
O O4 0.702193 0.108614 0.437409
O O5 0.333334 0.666667 0.750000
O O6 0.125000 0.672610 0.599372
O O7 0.060865 0.634131 0.417380
O O8 0.212163 0.787838 0.750000
O O9 0.049833 0.643047 0.765899
O O10 0.073149 0.784939 0.665369
O O11 0.734241 0.987447 0.345159
O O12 0.927519 0.124726 0.854111
O O13 0.856831 0.947447 0.865144
O O14 0.825073 0.036723 0.002194
#
# Coordination Sequence:
#
# PCOD8323253 Si02
#       7
#    12   4  12  12  12  12  12
#     4  10  23  40  66  96 131 179 217 273 349 405
#     4   9  21  36  66 108 135 169 209 289 357 411
#     4  11  24  44  68 100 140 170 227 282 344 425
#     4  12  23  40  64  98 130 176 222 283 351 399
#     4  12  24  39  62  97 137 180 213 283 354 403
#     4  10  20  36  61  85 128 181 224 275 336 387
#     4  10  20  37  58  90 126 176 228 274 325 405
#
# _framework density 21.837765999999998
#
# number of rings (size 3 to 8) (size 9 to 14) (size 15 to 20)
#    0.000    1.263    4.737    1.105    6.632    1.895 
#    0.000    0.000    0.000    0.000    0.000    0.000 
#    0.000    7.895    0.000    0.000    0.000    0.000 
#
# Total GULP energy -941765.829416 kJ/mol
# GULP energy per Si atom -12391.655650 kJ/mol
# Density = 2.178806 g / cm^3
# Si number density = 21.837766 Si / 1000 Ang^3
#
#
#
# Elastic Constant Matrix: (Units=GPa)
#
#
# Indices 1 2 3 4 5 6 
#
# 1 88.6568 4.0066 17.6042 -0.0001 1.3474 -0.0010
# 2 4.0066 88.6561 17.6041 -0.0001 -1.3473 0.0000
# 3 17.6042 17.6041 59.1350 0.0000 0.0001 -0.0005
# 4 -0.0001 -0.0001 0.0000 14.3872 0.0001 -1.3473
# 5 1.3474 -1.3473 0.0001 0.0001 14.3872 0.0001
# 6 -0.0010 0.0000 -0.0005 -1.3473 0.0001 42.3261
#
#
#
# Elastic Compliance Matrix: (Units=1/GPa)
#
#
# Indices 1 2 3 4 5 6 
#
# 1 0.012008 0.000160 -0.003622 0.000000 -0.001110 0.000000
# 2 0.000160 0.012008 -0.003622 0.000000 0.001110 0.000000
# 3 -0.003622 -0.003622 0.019067 0.000000 0.000000 0.000000
# 4 0.000000 0.000000 0.000000 0.069714 0.000000 0.002219
# 5 -0.001110 0.001110 0.000000 0.000000 0.069714 0.000000
# 6 0.000000 0.000000 0.000000 0.002219 0.000000 0.023697
#
#
# Mechanical properties :
#
#
# Convention : Reuss Voigt Hill
#
# Bulk Modulus (GPa) = 34.58540 34.98641 34.78590
# Shear Modulus (GPa) = 21.73750 27.36895 24.55323
#
# Velocity S-wave (km/s) = 3.15843 3.54402 3.35677
# Velocity P-wave (km/s) = 5.40118 5.72735 5.56666
#
# Compressibility (1/GPa) = 0.02891394
#
# Stress axis : x y z
#
# Youngs Moduli (GPa) = 83.27523 83.27454 52.44615
#
# Poissons Ratio (x) = -0.01330 0.18998
# Poissons Ratio (y) = -0.01330 0.18998
# Poissons Ratio (z) = 0.30165 0.30165
#
# Static dielectric constant tensor:
#      x y z
#    x 4.262590 -0.000010 0.000000 
#    y -0.000010 4.262570 0.000000 
#    z 0.000000 0.000000 3.812400 
# 
# 
# High freq. dielectric constant tensor:
#      x y z
#    x 1.865190 0.000000 0.000000 
#    y 0.000000 1.865190 0.000000 
#    z 0.000000 0.000000 1.829140 
# 
# From -- ./inp_files/2617.got.cif
#   From: 2010.03.12/outbox.cif.g09.slc.cpg/sg163_2_cif.got.tgz:2617.got - 2010.04.02 06:30:25.
