data_PCOD8323649
_publ_section_title
;
Structure prediction by ZEFSAII (Michael W. Deem and Ramdas Pophale) SiO2 
 PCOD8323649
Probable space group: P -3 M 1
;
_chemical_formula_sum "Si O2"
_cell_formula_units_Z 96
_cell_length_a 18.127271
_cell_length_b 18.127271
_cell_length_c 20.464301
_cell_angle_alpha 90.000000
_cell_angle_beta 90.000000
_cell_angle_gamma 120.000000
_cell_volume 5823.611589
_symmetry_space_group_name_H-M "P -3 M 1"
_symmetry_group_IT_number 164
_symmetry_cell_setting 'hexagonal'
loop_
_space_group_symop_operation_xyz
x,y,z
-y,x-y,z
-x+y,-x,z
x-y,-y,-z
-x,-x+y,-z
y,x,-z
-x,-y,-z
y,-x+y,-z
x-y,x,-z
-x+y,y,z
x,x-y,z
-y,-x,z
loop_
_atom_site_type_symbol
_atom_site_label
_atom_site_fract_x
_atom_site_fract_y
_atom_site_fract_z
Si Si1 0.637466 0.736204 0.322692
Si Si2 0.836422 0.333649 0.570903
Si Si3 0.501845 0.666360 0.579288
Si Si4 0.502203 0.834129 0.072658
Si Si5 0.894112 0.529238 0.791436
Si Si6 0.668008 0.162984 0.068365
Si Si7 0.903037 0.639773 0.314766
Si Si8 0.626370 0.535813 0.202665
O O1 0.677106 0.838553 0.330026
O O2 0.586303 0.687128 0.387697
O O3 0.568183 0.706535 0.264239
O O4 0.713763 0.715474 0.309664
O O5 0.847172 0.423586 0.593495
O O6 0.738548 0.261453 0.582030
O O7 0.863201 0.337520 0.495669
O O8 0.473781 0.736891 0.589204
O O9 0.423944 0.576057 0.602242
O O10 0.584389 0.688564 0.621885
O O11 0.427468 0.854935 0.077989
O O12 0.466203 0.733102 0.073111
O O13 0.558232 0.875986 0.137664
O O14 0.551118 0.871294 0.002886
O O15 0.851471 0.425736 0.785264
O O16 0.993125 0.569604 0.779897
O O17 0.589542 0.179083 0.061188
O O18 0.748881 0.251120 0.088290
O O19 0.655133 0.098225 0.126751
O O20 0.839176 0.678352 0.320288
O O21 0.871052 0.577192 0.251642
O O22 0.567250 0.432751 0.212087
#
# Coordination Sequence:
#
# PCOD8323649 Si02
#       8
#    12  12  12  12  12  12  12  12
#     4  10  20  33  48  65  86 112 143 180 222 266
#     4   9  17  29  46  69  97 127 155 180 206 239
#     4   9  17  29  46  69  97 127 155 180 206 239
#     4   9  16  25  37  53  75 105 141 177 207 234
#     4   9  17  28  42  61  84 109 137 169 207 254
#     4   9  16  25  37  53  75 105 141 177 207 234
#     4  10  20  33  48  65  86 112 143 180 222 266
#     4   9  17  28  42  61  84 109 137 169 207 254
#
# _framework density 16.484615999999999
#
# number of rings (size 3 to 8) (size 9 to 14) (size 15 to 20)
#    0.000    2.750    0.000    2.000    0.000    4.500 
#    0.000    3.750    0.000    8.250    0.000    0.000 
#    0.000    0.000    0.000    6.250    0.000    0.000 
#
# Total GULP energy -1189494.979366 kJ/mol
# GULP energy per Si atom -12390.572702 kJ/mol
# Density = 1.644710 g / cm^3
# Si number density = 16.484616 Si / 1000 Ang^3
#
#
#
# Elastic Constant Matrix: (Units=GPa)
#
#
# Indices 1 2 3 4 5 6 
#
# 1 56.5172 30.1580 26.5521 0.5730 0.0000 0.0000
# 2 30.1580 56.5172 26.5521 -0.5730 0.0000 0.0000
# 3 26.5521 26.5521 92.4593 0.0000 0.0000 0.0000
# 4 0.5730 -0.5730 0.0000 19.3231 0.0000 0.0000
# 5 0.0000 0.0000 0.0000 0.0000 19.3231 0.5730
# 6 0.0000 0.0000 0.0000 0.0000 0.5730 13.1796
#
#
#
# Elastic Compliance Matrix: (Units=1/GPa)
#
#
# Indices 1 2 3 4 5 6 
#
# 1 0.025994 -0.011993 -0.004021 -0.001126 0.000000 0.000000
# 2 -0.011993 0.025994 -0.004021 0.001126 0.000000 0.000000
# 3 -0.004021 -0.004021 0.013125 0.000000 0.000000 0.000000
# 4 -0.001126 0.001126 0.000000 0.051818 0.000000 0.000000
# 5 0.000000 0.000000 0.000000 0.000000 0.051818 -0.002253
# 6 0.000000 0.000000 0.000000 0.000000 -0.002253 0.075973
#
#
# Mechanical properties :
#
#
# Convention : Reuss Voigt Hill
#
# Bulk Modulus (GPa) = 39.93036 41.33535 40.63285
# Shear Modulus (GPa) = 17.05685 18.51394 17.78540
#
# Velocity S-wave (km/s) = 3.22019 3.35491 3.28824
# Velocity P-wave (km/s) = 6.17264 6.33536 6.25453
#
# Compressibility (1/GPa) = 0.02504360
#
# Stress axis : x y z
#
# Youngs Moduli (GPa) = 38.47111 38.47111 76.19134
#
# Poissons Ratio (x) = 0.46138 0.30634
# Poissons Ratio (y) = 0.46138 0.30634
# Poissons Ratio (z) = 0.15468 0.15468
#
# Static dielectric constant tensor:
#      x y z
#    x 2.852830 0.000000 0.000000 
#    y 0.000000 2.852830 0.000000 
#    z 0.000000 0.000000 3.491170 
# 
# 
# High freq. dielectric constant tensor:
#      x y z
#    x 1.599470 0.000000 0.000000 
#    y 0.000000 1.599470 0.000000 
#    z 0.000000 0.000000 1.658660 
# 
# From -- ./inp_files/4788.got.cif
#   From: 2010.03.12/outbox.cif.g09.slc.cpg/sg164_3_cif.got.tgz:4788.got - 2010.04.02 06:32:59.
