data_PCOD8323240
_publ_section_title
;
Structure prediction by ZEFSAII (Michael W. Deem and Ramdas Pophale) SiO2 
 PCOD8323240
Probable space group: P -3 1 C
;
_chemical_formula_sum "Si O2"
_cell_formula_units_Z 60
_cell_length_a 12.707709
_cell_length_b 12.707709
_cell_length_c 25.178907
_cell_angle_alpha 90.000000
_cell_angle_beta 90.000000
_cell_angle_gamma 120.000000
_cell_volume 3521.291900
_symmetry_space_group_name_H-M "P -3 1 C"
_symmetry_group_IT_number 163
_symmetry_cell_setting 'hexagonal'
loop_
_space_group_symop_operation_xyz
x,y,z
-y,x-y,z
-x+y,-x,z
-y,-x,1/2-z
-x+y,y,1/2-z
x,x-y,1/2-z
-x,-y,-z
y,-x+y,-z
x-y,x,-z
y,x,1/2+z
x-y,-y,1/2+z
-x,-x+y,1/2+z
loop_
_atom_site_type_symbol
_atom_site_label
_atom_site_fract_x
_atom_site_fract_y
_atom_site_fract_z
Si Si1 0.245773 0.000000 0.500000
Si Si2 0.908154 0.574841 0.689483
Si Si3 0.421444 0.332912 0.097376
Si Si4 0.333313 0.908154 0.189483
Si Si5 0.911468 0.578556 0.402624
O O1 0.229795 0.114898 0.510552
O O2 0.327498 0.017022 0.449135
O O3 0.310476 0.982978 0.550865
O O4 0.947575 0.617140 0.750000
O O5 0.868221 0.434111 0.682126
O O6 0.794749 0.589498 0.672527
O O7 0.022121 0.659895 0.652671
O O8 0.452224 0.226112 0.102309
O O9 0.544293 0.455707 0.084271
O O10 0.362226 0.022122 0.152671
#
# Coordination Sequence:
#
# PCOD8323240 Si02
#       5
#    12  12  12  12  12
#     4  10  20  34  52  72  94 122 158 200 244 288
#     4   9  17  30  49  72  96 122 154 193 235 277
#     4  10  20  33  49  70  97 128 160 194 234 282
#     4   9  17  30  49  72  96 122 154 193 235 277
#     4  10  20  33  49  70  97 128 160 194 234 282
#
# _framework density 17.039202
#
# number of rings (size 3 to 8) (size 9 to 14) (size 15 to 20)
#    0.000    2.400    0.000    2.800    0.000    2.400 
#    0.000    0.000    0.000   16.000    0.000    0.000 
#    0.000    0.000    0.000    0.000    0.000    0.000 
#
# Total GULP energy -744152.354833 kJ/mol
# GULP energy per Si atom -12402.539247 kJ/mol
# Density = 1.700042 g / cm^3
# Si number density = 17.039202 Si / 1000 Ang^3
#
#
#
# Elastic Constant Matrix: (Units=GPa)
#
#
# Indices 1 2 3 4 5 6 
#
# 1 111.8131 72.3105 67.3311 0.0000 0.0000 0.0000
# 2 72.3105 111.8131 67.3311 0.0000 0.0000 0.0000
# 3 67.3311 67.3311 104.8595 0.0000 0.0000 0.0000
# 4 0.0000 0.0000 0.0000 28.2479 0.0000 0.0000
# 5 0.0000 0.0000 0.0000 0.0000 28.2479 0.0000
# 6 0.0000 0.0000 0.0000 0.0000 0.0000 19.7513
#
#
#
# Elastic Compliance Matrix: (Units=1/GPa)
#
#
# Indices 1 2 3 4 5 6 
#
# 1 0.017777 -0.007537 -0.006575 0.000000 0.000000 0.000000
# 2 -0.007537 0.017777 -0.006575 0.000000 0.000000 0.000000
# 3 -0.006575 -0.006575 0.017981 0.000000 0.000000 0.000000
# 4 0.000000 0.000000 0.000000 0.035401 0.000000 0.000000
# 5 0.000000 0.000000 0.000000 0.000000 0.035401 0.000000
# 6 0.000000 0.000000 0.000000 0.000000 0.000000 0.050630
#
#
# Mechanical properties :
#
#
# Convention : Reuss Voigt Hill
#
# Bulk Modulus (GPa) = 82.23821 82.49235 82.36528
# Shear Modulus (GPa) = 22.68651 23.35031 23.01841
#
# Velocity S-wave (km/s) = 3.65284 3.70589 3.67946
# Velocity P-wave (km/s) = 8.13387 8.17495 8.15444
#
# Compressibility (1/GPa) = 0.01215980
#
# Stress axis : x y z
#
# Youngs Moduli (GPa) = 56.25120 56.25120 55.61560
#
# Poissons Ratio (x) = 0.42399 0.36568
# Poissons Ratio (y) = 0.42399 0.36568
# Poissons Ratio (z) = 0.36986 0.36986
#
# Static dielectric constant tensor:
#      x y z
#    x 3.151830 0.000000 0.000000 
#    y 0.000000 3.151830 0.000000 
#    z 0.000000 0.000000 3.320450 
# 
# 
# High freq. dielectric constant tensor:
#      x y z
#    x 1.659050 0.000000 0.000000 
#    y 0.000000 1.659050 0.000000 
#    z 0.000000 0.000000 1.666920 
# 
# From -- ./inp_files/4097.got.cif
#   From: 2010.03.12/outbox.cif.g09.slc.cpg/sg163_3_cif.got.tgz:4097.got - 2010.04.02 06:30:25.
