data_PCOD8323673
_publ_section_title
;
Structure prediction by ZEFSAII (Michael W. Deem and Ramdas Pophale) SiO2 
 PCOD8323673
Probable space group: P -3 M 1
;
_chemical_formula_sum "Si O2"
_cell_formula_units_Z 66
_cell_length_a 12.577026
_cell_length_b 12.577026
_cell_length_c 28.840991
_cell_angle_alpha 90.000000
_cell_angle_beta 90.000000
_cell_angle_gamma 120.000000
_cell_volume 3950.906283
_symmetry_space_group_name_H-M "P -3 M 1"
_symmetry_group_IT_number 164
_symmetry_cell_setting 'hexagonal'
loop_
_space_group_symop_operation_xyz
x,y,z
-y,x-y,z
-x+y,-x,z
x-y,-y,-z
-x,-x+y,-z
y,x,-z
-x,-y,-z
y,-x+y,-z
x-y,x,-z
-x+y,y,z
x,x-y,z
-y,-x,z
loop_
_atom_site_type_symbol
_atom_site_label
_atom_site_fract_x
_atom_site_fract_y
_atom_site_fract_z
Si Si1 0.000867 0.750967 0.825411
Si Si2 0.914323 0.330623 0.740831
Si Si3 0.669785 0.583538 0.540347
Si Si4 0.582945 0.914510 0.912304
Si Si5 0.249242 0.249242 0.000000
Si Si6 0.907248 0.331123 0.640214
O O1 0.109517 0.890484 0.824209
O O2 0.017969 0.675371 0.866384
O O3 0.875622 0.751244 0.833643
O O4 0.001373 0.685639 0.777516
O O5 0.925273 0.462637 0.746427
O O6 0.772879 0.227122 0.749313
O O7 0.959483 0.312749 0.689294
O O8 0.672648 0.672648 0.500000
O O9 0.778438 0.556875 0.529843
O O10 0.545074 0.454927 0.539487
O O11 0.686354 0.648904 0.591425
O O12 0.462961 0.925922 0.914978
O O13 0.543610 0.771805 0.912010
O O14 0.667927 0.983925 0.955799
O O15 0.116144 0.232288 0.008351
O O16 0.934215 0.467108 0.641259
O O17 0.761262 0.238739 0.639000
#
# Coordination Sequence:
#
# PCOD8323673 Si02
#       6
#    12  12  12  12   6  12
#     4  10  20  33  49  68  92 123 156 189 223 264
#     4   9  16  27  45  68  91 113 140 180 229 275
#     4   9  16  26  41  61  84 110 141 178 220 265
#     4  10  20  34  52  73  97 125 157 194 235 276
#     4  10  20  34  54  78 104 134 166 198 228 264
#     4   8  13  22  38  60  84 109 139 176 219 265
#
# _framework density 16.705029
#
# number of rings (size 3 to 8) (size 9 to 14) (size 15 to 20)
#    0.000    2.727    0.000    2.364    0.000    2.909 
#    0.000    2.727    0.000    5.636    0.000    0.000 
#    0.000    0.000    0.000    0.000    0.000    0.000 
#
# Total GULP energy -817679.517547 kJ/mol
# GULP energy per Si atom -12389.083599 kJ/mol
# Density = 1.666701 g / cm^3
# Si number density = 16.705029 Si / 1000 Ang^3
#
#
#
# Elastic Constant Matrix: (Units=GPa)
#
#
# Indices 1 2 3 4 5 6 
#
# 1 75.8921 40.5626 58.5778 -2.3290 0.0000 0.0000
# 2 40.5626 75.8921 58.5778 2.3290 0.0000 0.0000
# 3 58.5778 58.5778 170.7804 0.0000 0.0000 0.0000
# 4 -2.3290 2.3290 0.0000 24.5269 0.0000 0.0000
# 5 0.0000 0.0000 0.0000 0.0000 24.5269 -2.3290
# 6 0.0000 0.0000 0.0000 0.0000 -2.3290 17.6647
#
#
#
# Elastic Compliance Matrix: (Units=1/GPa)
#
#
# Indices 1 2 3 4 5 6 
#
# 1 0.020888 -0.007776 -0.004497 0.002722 0.000000 0.000000
# 2 -0.007776 0.020888 -0.004497 -0.002722 0.000000 0.000000
# 3 -0.004497 -0.004497 0.008941 0.000000 0.000000 0.000000
# 4 0.002722 -0.002722 0.000000 0.041289 0.000000 0.000000
# 5 0.000000 0.000000 0.000000 0.000000 0.041289 0.005444
# 6 0.000000 0.000000 0.000000 0.000000 0.005444 0.057328
#
#
# Mechanical properties :
#
#
# Convention : Reuss Voigt Hill
#
# Bulk Modulus (GPa) = 58.22623 70.88899 64.55761
# Shear Modulus (GPa) = 21.74986 24.33345 23.04165
#
# Velocity S-wave (km/s) = 3.61223 3.82075 3.71795
# Velocity P-wave (km/s) = 7.23386 7.87350 7.56045
#
# Compressibility (1/GPa) = 0.01717439
#
# Stress axis : x y z
#
# Youngs Moduli (GPa) = 47.87537 47.87537 111.84995
#
# Poissons Ratio (x) = 0.37229 0.50301
# Poissons Ratio (y) = 0.37229 0.50301
# Poissons Ratio (z) = 0.21530 0.21530
#
# Static dielectric constant tensor:
#      x y z
#    x 2.913370 0.000000 0.000000 
#    y 0.000000 2.913370 0.000000 
#    z 0.000000 0.000000 3.802480 
# 
# 
# High freq. dielectric constant tensor:
#      x y z
#    x 1.620250 0.000000 0.000000 
#    y 0.000000 1.620250 0.000000 
#    z 0.000000 0.000000 1.674140 
# 
# From -- ./inp_files/5488.got.cif
#   From: 2010.03.12/outbox.cif.g09.slc.cpg/sg164_3_cif.got.tgz:5488.got - 2010.04.02 06:32:59.
