data_PCOD8323626
_publ_section_title
;
Structure prediction by ZEFSAII (Michael W. Deem and Ramdas Pophale) SiO2 
 PCOD8323626
Probable space group: P -3 M 1
;
_chemical_formula_sum "Si O2"
_cell_formula_units_Z 66
_cell_length_a 12.568731
_cell_length_b 12.568731
_cell_length_c 28.086482
_cell_angle_alpha 90.000000
_cell_angle_beta 90.000000
_cell_angle_gamma 120.000000
_cell_volume 3842.473130
_symmetry_space_group_name_H-M "P -3 M 1"
_symmetry_group_IT_number 164
_symmetry_cell_setting 'hexagonal'
loop_
_space_group_symop_operation_xyz
x,y,z
-y,x-y,z
-x+y,-x,z
x-y,-y,-z
-x,-x+y,-z
y,x,-z
-x,-y,-z
y,-x+y,-z
x-y,x,-z
-x+y,y,z
x,x-y,z
-y,-x,z
loop_
_atom_site_type_symbol
_atom_site_label
_atom_site_fract_x
_atom_site_fract_y
_atom_site_fract_z
Si Si1 0.581420 0.664949 0.365483
Si Si2 0.578889 0.912030 0.191725
Si Si3 0.333391 0.912494 0.084044
Si Si4 0.248339 0.000000 0.000000
Si Si5 0.582109 0.917085 0.544980
Si Si6 0.334601 0.419761 0.723245
O O1 0.592187 0.796094 0.369807
O O2 0.438575 0.561426 0.368288
O O3 0.657217 0.648932 0.407832
O O4 0.641379 0.657572 0.316236
O O5 0.435896 0.871791 0.196926
O O6 0.592090 0.796045 0.206632
O O7 0.625284 0.955123 0.137936
O O8 0.662750 0.026462 0.225577
O O9 0.459641 0.919282 0.072028
O O10 0.227010 0.772991 0.076259
O O11 0.320837 0.003572 0.047664
O O12 0.232025 0.116013 0.000792
O O13 0.439725 0.879450 0.544374
O O14 0.589963 0.794982 0.543312
O O15 0.653268 0.000000 0.500000
O O16 0.202977 0.405953 0.715008
O O17 0.436933 0.563068 0.719939
#
# Coordination Sequence:
#
# PCOD8323626 Si02
#       6
#    12  12  12   6  12  12
#     4  10  20  34  54  78 102 128 160 203 251 295
#     4   9  17  30  50  74  97 121 151 192 241 289
#     4   9  17  30  49  72  95 119 150 192 242 290
#     4  10  20  32  46  64  90 126 164 198 230 272
#     4  10  20  34  54  78 104 134 167 205 246 289
#     4  10  20  33  50  71  97 129 162 197 235 279
#
# _framework density 17.176438000000001
#
# number of rings (size 3 to 8) (size 9 to 14) (size 15 to 20)
#    0.000    2.364    0.000    2.909    0.000    2.182 
#    0.000    5.455    0.000   10.909    0.000    0.000 
#    0.000    0.000    0.000    0.000    0.000    0.000 
#
# Total GULP energy -818534.439837 kJ/mol
# GULP energy per Si atom -12402.036967 kJ/mol
# Density = 1.713734 g / cm^3
# Si number density = 17.176438 Si / 1000 Ang^3
#
#
#
# Elastic Constant Matrix: (Units=GPa)
#
#
# Indices 1 2 3 4 5 6 
#
# 1 98.4109 59.0273 51.8324 0.1268 0.0000 0.0000
# 2 59.0273 98.4109 51.8324 -0.1268 0.0000 0.0000
# 3 51.8324 51.8324 119.8388 0.0000 0.0000 0.0000
# 4 0.1268 -0.1268 0.0000 18.2113 0.0000 0.0000
# 5 0.0000 0.0000 0.0000 0.0000 18.2113 0.1268
# 6 0.0000 0.0000 0.0000 0.0000 0.1268 19.6918
#
#
#
# Elastic Compliance Matrix: (Units=1/GPa)
#
#
# Indices 1 2 3 4 5 6 
#
# 1 0.017137 -0.008256 -0.003841 -0.000177 0.000000 0.000000
# 2 -0.008256 0.017137 -0.003841 0.000177 0.000000 0.000000
# 3 -0.003841 -0.003841 0.011667 0.000000 0.000000 0.000000
# 4 -0.000177 0.000177 0.000000 0.054913 0.000000 0.000000
# 5 0.000000 0.000000 0.000000 0.000000 0.054913 -0.000354
# 6 0.000000 0.000000 0.000000 0.000000 -0.000354 0.050785
#
#
# Mechanical properties :
#
#
# Convention : Reuss Voigt Hill
#
# Bulk Modulus (GPa) = 71.10110 71.33830 71.21970
# Shear Modulus (GPa) = 20.56629 21.48746 21.02687
#
# Velocity S-wave (km/s) = 3.46404 3.54076 3.50261
# Velocity P-wave (km/s) = 7.58181 7.63799 7.60995
#
# Compressibility (1/GPa) = 0.01406448
#
# Stress axis : x y z
#
# Youngs Moduli (GPa) = 58.35446 58.35446 85.70985
#
# Poissons Ratio (x) = 0.48176 0.32922
# Poissons Ratio (y) = 0.48176 0.32922
# Poissons Ratio (z) = 0.22415 0.22415
#
# Static dielectric constant tensor:
#      x y z
#    x 3.045900 0.000000 0.000000 
#    y 0.000000 3.045900 0.000000 
#    z 0.000000 0.000000 3.515390 
# 
# 
# High freq. dielectric constant tensor:
#      x y z
#    x 1.653520 0.000000 0.000000 
#    y 0.000000 1.653520 0.000000 
#    z 0.000000 0.000000 1.683150 
# 
# From -- ./inp_files/5400.got.cif
#   From: 2010.03.12/outbox.cif.g09.slc.cpg/sg164_3_cif.got.tgz:5400.got - 2010.04.02 06:32:59.
