data_PCOD8323599
_publ_section_title
;
Structure prediction by ZEFSAII (Michael W. Deem and Ramdas Pophale) SiO2 
 PCOD8323599
Probable space group: P -3 M 1
;
_chemical_formula_sum "Si O2"
_cell_formula_units_Z 60
_cell_length_a 17.706508
_cell_length_b 17.706508
_cell_length_c 11.142303
_cell_angle_alpha 90.000000
_cell_angle_beta 90.000000
_cell_angle_gamma 120.000000
_cell_volume 3025.320819
_symmetry_space_group_name_H-M "P -3 M 1"
_symmetry_group_IT_number 164
_symmetry_cell_setting 'hexagonal'
loop_
_space_group_symop_operation_xyz
x,y,z
-y,x-y,z
-x+y,-x,z
x-y,-y,-z
-x,-x+y,-z
y,x,-z
-x,-y,-z
y,-x+y,-z
x-y,x,-z
-x+y,y,z
x,x-y,z
-y,-x,z
loop_
_atom_site_type_symbol
_atom_site_label
_atom_site_fract_x
_atom_site_fract_y
_atom_site_fract_z
Si Si1 0.610871 0.805436 0.274107
Si Si2 0.617276 0.551205 0.099254
Si Si3 0.898390 0.101611 0.854551
Si Si4 0.927145 0.547661 0.703889
Si Si5 0.399343 0.199672 0.193743
Si Si6 0.202705 0.101353 0.135038
Si Si7 0.822691 0.645381 0.448378
Si Si8 0.000000 0.314733 0.500000
O O1 0.710703 0.855352 0.228343
O O2 0.559894 0.853869 0.224690
O O3 0.602827 0.801414 0.419336
O O4 0.548361 0.451640 0.058457
O O5 0.586754 0.570725 0.223739
O O6 0.711615 0.562904 0.118737
O O7 0.618669 0.618669 0.000000
O O8 0.000785 0.147367 0.825305
O O9 0.886573 0.113428 0.994556
O O10 0.891299 0.445650 0.676018
O O11 0.947454 0.603275 0.584904
O O12 0.294596 0.147298 0.202458
O O13 0.424940 0.212470 0.336511
O O14 0.774874 0.703309 0.435579
#
# Coordination Sequence:
#
# PCOD8323599 Si02
#       8
#     6  12   6  12   6   6   6   6
#     4  10  22  37  56  85 123 152 197 249 296 363
#     4  10  23  40  60  90 120 154 200 252 299 359
#     4  10  21  40  54  88 120 153 200 251 302 342
#     4  10  20  36  59  84 115 155 195 246 298 350
#     4  12  22  39  64  89 117 161 206 241 298 371
#     4  10  23  34  62  84 116 158 199 250 298 360
#     4  10  22  36  58  87 116 156 203 241 298 347
#     4  10  19  38  58  87 116 152 202 247 290 354
#
# _framework density 19.832606999999999
#
# number of rings (size 3 to 8) (size 9 to 14) (size 15 to 20)
#    0.000    1.800    2.000    1.700    8.400    0.800 
#    1.200    0.000    0.000    0.200    0.000    0.000 
#    0.000    0.000    0.000    0.000    0.000    0.000 
#
# Total GULP energy -743509.403459 kJ/mol
# GULP energy per Si atom -12391.823391 kJ/mol
# Density = 1.978747 g / cm^3
# Si number density = 19.832607 Si / 1000 Ang^3
#
#
#
# Elastic Constant Matrix: (Units=GPa)
#
#
# Indices 1 2 3 4 5 6 
#
# 1 131.0357 93.3125 26.6928 10.5258 0.0000 0.0000
# 2 93.3125 131.0357 26.6928 -10.5258 0.0000 0.0000
# 3 26.6928 26.6928 69.8001 0.0000 0.0000 0.0000
# 4 10.5258 -10.5258 0.0000 21.8473 0.0000 0.0000
# 5 0.0000 0.0000 0.0000 0.0000 21.8473 10.5258
# 6 0.0000 0.0000 0.0000 0.0000 10.5258 18.8616
#
#
#
# Elastic Compliance Matrix: (Units=1/GPa)
#
#
# Indices 1 2 3 4 5 6 
#
# 1 0.020580 -0.015677 -0.001875 -0.017468 0.000000 0.000000
# 2 -0.015677 0.020580 -0.001875 0.017468 0.000000 0.000000
# 3 -0.001875 -0.001875 0.015761 0.000000 0.000000 0.000000
# 4 -0.017468 0.017468 0.000000 0.062604 0.000000 0.000000
# 5 0.000000 0.000000 0.000000 0.000000 0.062604 -0.034937
# 6 0.000000 0.000000 0.000000 0.000000 -0.034937 0.072514
#
#
# Mechanical properties :
#
#
# Convention : Reuss Voigt Hill
#
# Bulk Modulus (GPa) = 55.34905 69.47417 62.41161
# Shear Modulus (GPa) = 16.69331 24.85613 20.77472
#
# Velocity S-wave (km/s) = 2.90437 3.54403 3.24003
# Velocity P-wave (km/s) = 6.26226 7.20092 6.74793
#
# Compressibility (1/GPa) = 0.01806716
#
# Stress axis : x y z
#
# Youngs Moduli (GPa) = 48.59001 48.59001 63.44836
#
# Poissons Ratio (x) = 0.76173 0.11898
# Poissons Ratio (y) = 0.76173 0.11898
# Poissons Ratio (z) = 0.09112 0.09112
#
# Static dielectric constant tensor:
#      x y z
#    x 4.061860 0.000000 0.000000 
#    y 0.000000 4.061860 0.000000 
#    z 0.000000 0.000000 3.583380 
# 
# 
# High freq. dielectric constant tensor:
#      x y z
#    x 1.767220 0.000000 0.000000 
#    y 0.000000 1.767220 0.000000 
#    z 0.000000 0.000000 1.775230 
# 
# From -- ./inp_files/2795.got.cif
#   From: 2010.03.12/outbox.cif.g09.slc.cpg/sg164_2_cif.got.tgz:2795.got - 2010.04.02 06:32:59.
