data_PCOD8323418
_publ_section_title
;
Structure prediction by ZEFSAII (Michael W. Deem and Ramdas Pophale) SiO2 
 PCOD8323418
Probable space group: P -3 M 1
;
_chemical_formula_sum "Si O2"
_cell_formula_units_Z 96
_cell_length_a 23.092883
_cell_length_b 23.092883
_cell_length_c 11.996579
_cell_angle_alpha 90.000000
_cell_angle_beta 90.000000
_cell_angle_gamma 120.000000
_cell_volume 5540.441331
_symmetry_space_group_name_H-M "P -3 M 1"
_symmetry_group_IT_number 164
_symmetry_cell_setting 'hexagonal'
loop_
_space_group_symop_operation_xyz
x,y,z
-y,x-y,z
-x+y,-x,z
x-y,-y,-z
-x,-x+y,-z
y,x,-z
-x,-y,-z
y,-x+y,-z
x-y,x,-z
-x+y,y,z
x,x-y,z
-y,-x,z
loop_
_atom_site_type_symbol
_atom_site_label
_atom_site_fract_x
_atom_site_fract_y
_atom_site_fract_z
Si Si1 0.866574 0.271034 0.639755
Si Si2 0.664682 0.465734 0.024274
Si Si3 0.070445 0.276156 0.966217
Si Si4 0.794554 0.074283 0.494514
Si Si5 0.594413 0.865309 0.109857
Si Si6 0.894349 0.657812 0.253510
Si Si7 0.534101 0.198299 0.504747
Si Si8 0.824132 0.311874 0.266631
O O1 0.798037 0.201964 0.638300
O O2 0.921129 0.258552 0.576691
O O3 0.892211 0.296597 0.765109
O O4 0.855427 0.325913 0.575723
O O5 0.727989 0.455978 0.005315
O O6 0.599229 0.400772 0.977278
O O7 0.673220 0.530673 0.958804
O O8 0.653036 0.471517 0.155440
O O9 0.128111 0.256222 0.972602
O O10 0.056829 0.295218 0.843069
O O11 0.085122 0.337544 0.047174
O O12 0.000000 0.211593 0.000000
O O13 0.871067 0.128934 0.526361
O O14 0.779446 0.085434 0.370104
O O15 0.784490 0.000000 0.500000
O O16 0.586081 0.793041 0.118713
O O17 0.821886 0.643772 0.213575
O O18 0.890311 0.585973 0.259801
O O19 0.600274 0.200547 0.552962
O O20 0.543701 0.271851 0.514834
O O21 0.525569 0.172957 0.376840
O O22 0.761277 0.238724 0.281925
#
# Coordination Sequence:
#
# PCOD8323418 Si02
#       8
#    12  12  12  12  12  12  12  12
#     4   9  18  32  48  68  96 131 169 208 251 294
#     4  10  18  28  44  68  98 131 168 212 262 312
#     4  10  20  34  55  81 107 131 160 199 241 286
#     4  10  20  34  55  81 107 131 160 199 241 286
#     4   9  18  32  48  68  96 131 169 208 251 294
#     4   9  16  31  52  76 102 130 165 204 245 286
#     4  10  18  28  44  68  98 131 168 212 262 312
#     4   9  15  27  45  66  95 128 164 210 261 302
#
# _framework density 17.327138999999999
#
# number of rings (size 3 to 8) (size 9 to 14) (size 15 to 20)
#    0.000    2.500    2.500    0.625    1.750    0.500 
#    0.000    1.250    0.000    2.500    0.000    0.000 
#    0.000    0.000    0.000    0.000    0.000    0.000 
#
# Total GULP energy -1189867.275610 kJ/mol
# GULP energy per Si atom -12394.450788 kJ/mol
# Density = 1.728770 g / cm^3
# Si number density = 17.327139 Si / 1000 Ang^3
#
#
#
# Elastic Constant Matrix: (Units=GPa)
#
#
# Indices 1 2 3 4 5 6 
#
# 1 70.6820 36.3398 16.5539 -1.6383 0.0000 0.0000
# 2 36.3398 70.6820 16.5539 1.6383 0.0000 0.0000
# 3 16.5539 16.5539 100.4839 0.0000 0.0000 0.0000
# 4 -1.6383 1.6383 0.0000 12.0300 0.0000 0.0000
# 5 0.0000 0.0000 0.0000 0.0000 12.0300 -1.6383
# 6 0.0000 0.0000 0.0000 0.0000 -1.6383 17.1711
#
#
#
# Elastic Compliance Matrix: (Units=1/GPa)
#
#
# Indices 1 2 3 4 5 6 
#
# 1 0.019674 -0.009828 -0.001622 0.004018 0.000000 0.000000
# 2 -0.009828 0.019674 -0.001622 -0.004018 0.000000 0.000000
# 3 -0.001622 -0.001622 0.010486 0.000000 0.000000 0.000000
# 4 0.004018 -0.004018 0.000000 0.084220 0.000000 0.000000
# 5 0.000000 0.000000 0.000000 0.000000 0.084220 0.008036
# 6 0.000000 0.000000 0.000000 0.000000 0.008036 0.059004
#
#
# Mechanical properties :
#
#
# Convention : Reuss Voigt Hill
#
# Bulk Modulus (GPa) = 42.21259 42.30480 42.25870
# Shear Modulus (GPa) = 16.06070 19.73957 17.90013
#
# Velocity S-wave (km/s) = 3.04782 3.37891 3.21763
# Velocity P-wave (km/s) = 6.06635 6.30008 6.18432
#
# Compressibility (1/GPa) = 0.02368961
#
# Stress axis : x y z
#
# Youngs Moduli (GPa) = 50.82894 50.82894 95.36282
#
# Poissons Ratio (x) = 0.49956 0.15468
# Poissons Ratio (y) = 0.49956 0.15468
# Poissons Ratio (z) = 0.08244 0.08244
#
# Static dielectric constant tensor:
#      x y z
#    x 2.992540 0.000000 0.000000 
#    y 0.000000 2.992540 0.000000 
#    z 0.000000 0.000000 3.475630 
# 
# 
# High freq. dielectric constant tensor:
#      x y z
#    x 1.636470 0.000000 0.000000 
#    y 0.000000 1.636470 0.000000 
#    z 0.000000 0.000000 1.684120 
# 
# From -- ./inp_files/3150.got.cif
#   From: 2010.03.12/outbox.cif.g09.slc.cpg/sg164_2_cif.got.tgz:3150.got - 2010.04.02 06:32:59.
