data_PCOD8323040
_publ_section_title
;
Structure prediction by ZEFSAII (Michael W. Deem and Ramdas Pophale) SiO2 
 PCOD8323040
Probable space group: P -3 1 M 
;
_chemical_formula_sum "Si O2"
_cell_formula_units_Z 60
_cell_length_a 17.592133
_cell_length_b 17.592133
_cell_length_c 11.969187
_cell_angle_alpha 90.000000
_cell_angle_beta 90.000000
_cell_angle_gamma 120.000000
_cell_volume 3207.984663
_symmetry_space_group_name_H-M "P -3 1 M "
_symmetry_group_IT_number 162
_symmetry_cell_setting 'hexagonal'
loop_
_space_group_symop_operation_xyz
x,y,z
-y,x-y,z
-x+y,-x,z
-y,-x,-z
-x+y,y,-z
x,x-y,-z
-x,-y,-z
y,-x+y,-z
x-y,x,-z
y,x,z
x-y,-y,z
-x,-x+y,z
loop_
_atom_site_type_symbol
_atom_site_label
_atom_site_fract_x
_atom_site_fract_y
_atom_site_fract_z
Si Si1 0.900556 0.099444 0.367008
Si Si2 0.535085 0.636938 0.778281
Si Si3 0.100440 0.729884 0.000002
Si Si4 0.600741 0.800372 0.367675
Si Si5 0.535088 0.636940 0.221719
O O1 0.901542 0.098459 0.500000
O O2 0.850648 0.149348 0.323234
O O3 0.000000 0.149698 0.320406
O O4 0.850306 0.000000 0.320406
O O5 0.587295 0.587295 0.749372
O O6 0.567310 0.689047 0.893591
O O7 0.550949 0.701505 0.676127
O O8 0.431660 0.568338 0.788705
O O9 0.000000 0.709014 0.000004
O O10 0.164855 0.835146 0.000000
O O11 0.121733 0.689045 0.893594
O O12 0.597350 0.798675 0.500000
O O13 0.550951 0.701509 0.323870
O O14 0.587297 0.587297 0.250632
#
# Coordination Sequence:
#
# PCOD8323040 Si02
#       5
#    12  12  12  12  12
#     4   9  17  30  50  77 109 146 191 240 283 325
#     4  10  21  38  60  84 111 145 190 242 292 343
#     4  10  19  37  65  92 115 143 184 235 293 349
#     4  11  22  36  55  80 115 159 198 233 282 348
#     4  10  21  38  60  84 111 145 190 242 292 343
#
# _framework density 18.703330999999999
#
# number of rings (size 3 to 8) (size 9 to 14) (size 15 to 20)
#    0.000    2.000    2.000    2.000    0.000    6.400 
#    1.200    2.000    0.000    0.200    0.000    0.000 
#    0.000    0.000    0.000    0.000    0.000    0.000 
#
# Total GULP energy -744153.176067 kJ/mol
# GULP energy per Si atom -12402.552934 kJ/mol
# Density = 1.866076 g / cm^3
# Si number density = 18.703331 Si / 1000 Ang^3
#
#
#
# Elastic Constant Matrix: (Units=GPa)
#
#
# Indices 1 2 3 4 5 6 
#
# 1 127.3276 83.3250 43.9121 0.0000 -0.0007 0.0000
# 2 83.3250 127.3276 43.9121 0.0000 0.0007 0.0000
# 3 43.9121 43.9121 88.6889 0.0000 0.0000 0.0000
# 4 0.0000 0.0000 0.0000 19.6898 0.0000 0.0007
# 5 -0.0007 0.0007 0.0000 0.0000 19.6898 0.0000
# 6 0.0000 0.0000 0.0000 0.0007 0.0000 22.0013
#
#
#
# Elastic Compliance Matrix: (Units=1/GPa)
#
#
# Indices 1 2 3 4 5 6 
#
# 1 0.014354 -0.008372 -0.002962 0.000000 0.000001 0.000000
# 2 -0.008372 0.014354 -0.002962 0.000000 -0.000001 0.000000
# 3 -0.002962 -0.002962 0.014208 0.000000 0.000000 0.000000
# 4 0.000000 0.000000 0.000000 0.050788 0.000000 -0.000002
# 5 0.000001 -0.000001 0.000000 0.000000 0.050788 0.000000
# 6 0.000000 0.000000 0.000000 -0.000002 0.000000 0.045452
#
#
# Mechanical properties :
#
#
# Convention : Reuss Voigt Hill
#
# Bulk Modulus (GPa) = 69.80818 76.18249 72.99533
# Shear Modulus (GPa) = 22.39040 23.75582 23.07311
#
# Velocity S-wave (km/s) = 3.46372 3.56777 3.51613
# Velocity P-wave (km/s) = 7.30763 7.60213 7.45633
#
# Compressibility (1/GPa) = 0.01432497
#
# Stress axis : x y z
#
# Youngs Moduli (GPa) = 69.66717 69.66717 70.38135
#
# Poissons Ratio (x) = 0.58325 0.20846
# Poissons Ratio (y) = 0.58325 0.20846
# Poissons Ratio (z) = 0.20634 0.20634
#
# Static dielectric constant tensor:
#      x y z
#    x 3.558120 0.000000 0.000000 
#    y 0.000000 3.558120 0.000000 
#    z 0.000000 0.000000 3.236010 
# 
# 
# High freq. dielectric constant tensor:
#      x y z
#    x 1.727890 0.000000 0.000000 
#    y 0.000000 1.727890 0.000000 
#    z 0.000000 0.000000 1.713410 
# 
# From -- ./inp_files/2290.got.cif
#   From: 2010.03.12/outbox.cif.g09.slc.cpg/sg162_2_cif.got.tgz:2290.got - 2010.04.02 06:27:41.
