data_PCOD8323388
_publ_section_title
;
Structure prediction by ZEFSAII (Michael W. Deem and Ramdas Pophale) SiO2 
 PCOD8323388
Probable space group: P -3 M 1
;
_chemical_formula_sum "Si O2"
_cell_formula_units_Z 96
_cell_length_a 17.989488
_cell_length_b 17.989488
_cell_length_c 20.763452
_cell_angle_alpha 90.000000
_cell_angle_beta 90.000000
_cell_angle_gamma 120.000000
_cell_volume 5819.260461
_symmetry_space_group_name_H-M "P -3 M 1"
_symmetry_group_IT_number 164
_symmetry_cell_setting 'hexagonal'
loop_
_space_group_symop_operation_xyz
x,y,z
-y,x-y,z
-x+y,-x,z
x-y,-y,-z
-x,-x+y,-z
y,x,-z
-x,-y,-z
y,-x+y,-z
x-y,x,-z
-x+y,y,z
x,x-y,z
-y,-x,z
loop_
_atom_site_type_symbol
_atom_site_label
_atom_site_fract_x
_atom_site_fract_y
_atom_site_fract_z
Si Si1 0.636707 0.734843 0.749904
Si Si2 0.166041 0.497354 0.500000
Si Si3 0.664986 0.159035 0.860366
Si Si4 0.100623 0.633358 0.366192
Si Si5 0.833805 0.334456 0.000000
Si Si6 0.467266 0.100626 0.366191
Si Si7 0.840965 0.505951 0.139635
Si Si8 0.363293 0.265158 0.749904
O O1 0.675422 0.837711 0.756358
O O2 0.570245 0.703072 0.690341
O O3 0.584032 0.685412 0.813218
O O4 0.713924 0.713924 0.740422
O O5 0.267743 0.535486 0.499998
O O6 0.142183 0.571092 0.500001
O O7 0.125859 0.442759 0.434859
O O8 0.125862 0.442761 0.565143
O O9 0.578928 0.157855 0.836817
O O10 0.742537 0.257464 0.861240
O O11 0.685412 0.101381 0.813218
O O12 0.649916 0.115462 0.932162
O O13 0.141828 0.570914 0.358829
O O14 0.132826 0.703071 0.309660
O O15 0.999999 0.575608 0.361495
O O16 0.792292 0.396146 0.999999
O O17 0.763230 0.236771 0.000002
O O18 0.884539 0.350087 0.067838
O O19 0.570915 0.141830 0.358827
O O20 0.742537 0.485074 0.138761
O O21 0.842144 0.421072 0.163184
O O22 0.324579 0.162290 0.756357
#
# Coordination Sequence:
#
# PCOD8323388 Si02
#       8
#    12  12  12  12  12  12  12  12
#     4  10  20  33  48  65  85 110 141 179 223 268
#     4  10  18  27  39  57  84 117 151 181 205 230
#     4   9  16  26  42  65  93 124 154 181 207 239
#     4   9  17  29  45  64  86 113 143 174 210 252
#     4   8  13  22  37  59  88 121 154 182 207 236
#     4   9  17  29  45  64  86 113 143 174 210 252
#     4   9  16  26  42  65  93 124 154 181 207 239
#     4  10  20  33  48  65  85 110 141 179 223 268
#
# _framework density 16.496943000000002
#
# number of rings (size 3 to 8) (size 9 to 14) (size 15 to 20)
#    0.000    2.750    0.000    2.375    0.000    5.000 
#    0.000    0.625    0.000   10.500    0.000    0.000 
#    0.000    0.000    0.000    0.000    0.000   40.750 
#
# Total GULP energy -1189328.001306 kJ/mol
# GULP energy per Si atom -12388.833347 kJ/mol
# Density = 1.645939 g / cm^3
# Si number density = 16.496943 Si / 1000 Ang^3
#
#
#
# Elastic Constant Matrix: (Units=GPa)
#
#
# Indices 1 2 3 4 5 6 
#
# 1 52.1210 29.1230 26.5813 0.0001 0.0000 0.0000
# 2 29.1230 52.1210 26.5813 -0.0001 0.0000 0.0000
# 3 26.5813 26.5813 124.3770 0.0000 0.0000 0.0000
# 4 0.0001 -0.0001 0.0000 13.6764 0.0000 0.0000
# 5 0.0000 0.0000 0.0000 0.0000 13.6764 0.0001
# 6 0.0000 0.0000 0.0000 0.0000 0.0001 11.4990
#
#
#
# Elastic Compliance Matrix: (Units=1/GPa)
#
#
# Indices 1 2 3 4 5 6 
#
# 1 0.028896 -0.014586 -0.003058 0.000000 0.000000 0.000000
# 2 -0.014586 0.028896 -0.003058 0.000000 0.000000 0.000000
# 3 -0.003058 -0.003058 0.009347 0.000000 0.000000 0.000000
# 4 0.000000 0.000000 0.000000 0.073119 0.000000 0.000000
# 5 0.000000 0.000000 0.000000 0.000000 0.073119 -0.000001
# 6 0.000000 0.000000 0.000000 0.000000 -0.000001 0.086964
#
#
# Mechanical properties :
#
#
# Convention : Reuss Voigt Hill
#
# Bulk Modulus (GPa) = 38.85922 43.68779 41.27350
# Shear Modulus (GPa) = 14.27251 17.52592 15.89921
#
# Velocity S-wave (km/s) = 2.94455 3.26294 3.10783
# Velocity P-wave (km/s) = 5.93018 6.38244 6.16046
#
# Compressibility (1/GPa) = 0.02573392
#
# Stress axis : x y z
#
# Youngs Moduli (GPa) = 34.60691 34.60691 106.98336
#
# Poissons Ratio (x) = 0.50478 0.32718
# Poissons Ratio (y) = 0.50478 0.32718
# Poissons Ratio (z) = 0.10584 0.10584
#
# Static dielectric constant tensor:
#      x y z
#    x 2.784340 0.000000 0.000000 
#    y 0.000000 2.784340 0.000000 
#    z 0.000000 0.000000 3.631390 
# 
# 
# High freq. dielectric constant tensor:
#      x y z
#    x 1.597180 0.000000 0.000000 
#    y 0.000000 1.597180 0.000000 
#    z 0.000000 0.000000 1.663570 
# 
# From -- ./inp_files/4750.got.cif
#   From: 2010.03.12/outbox.cif.g09.slc.cpg/sg164_3_cif.got.tgz:4750.got - 2010.04.02 06:32:59.
