data_PCOD8323938
_publ_section_title
;
Structure prediction by ZEFSAII (Michael W. Deem and Ramdas Pophale) SiO2 
 PCOD8323938
Probable space group: P -3 C 1
;
_chemical_formula_sum "Si O2"
_cell_formula_units_Z 60
_cell_length_a 11.130845
_cell_length_b 11.130845
_cell_length_c 25.766575
_cell_angle_alpha 90.000000
_cell_angle_beta 90.000000
_cell_angle_gamma 120.000000
_cell_volume 2764.671885
_symmetry_space_group_name_H-M "P -3 C 1"
_symmetry_group_IT_number 165
_symmetry_cell_setting 'hexagonal'
loop_
_space_group_symop_operation_xyz
x,y,z
-y,x-y,z
-x+y,-x,z
x-y,-y,1/2-z
-x,-x+y,1/2-z
y,x,1/2-z
-x,-y,-z
y,-x+y,-z
x-y,x,-z
-x+y,y,1/2+z
x,x-y,1/2+z
-y,-x,1/2+z
loop_
_atom_site_type_symbol
_atom_site_label
_atom_site_fract_x
_atom_site_fract_y
_atom_site_fract_z
Si Si1 0.680833 0.094859 0.293219
Si Si2 0.727309 0.983300 0.688966
Si Si3 0.846965 0.428205 0.972814
Si Si4 0.000000 0.000000 0.689025
Si Si5 0.333334 0.666667 0.759218
Si Si6 0.333334 0.666667 0.384258
Si Si7 0.465274 0.968992 0.377712
O O1 0.821417 0.190104 0.323419
O O2 0.620788 0.181498 0.263473
O O3 0.701602 0.000000 0.250000
O O4 0.574124 0.988811 0.334079
O O5 0.708778 0.000000 0.750000
O O6 0.675466 0.062685 0.651907
O O7 0.883673 0.035270 0.670110
O O8 0.740634 0.490021 0.982790
O O9 0.893881 0.465076 0.913007
O O10 0.000000 0.500000 0.000000
O O11 0.000000 0.000000 0.750000
O O12 0.333334 0.666667 0.821615
O O13 0.419032 0.823288 0.407771
#
# Coordination Sequence:
#
# PCOD8323938 Si02
#       7
#    12  12  12   4   4   4  12
#     4  12  22  35  59  84 134 180 232 283 327 393
#     4  11  22  39  57  87 133 187 236 285 335 406
#     4  10  26  51  82 112 138 179 229 290 372 446
#     4   9  21  36  57  81 129 196 242 277 345 396
#     4  12  21  36  51  94 137 190 237 273 336 373
#     4  12  27  36  63 103 146 193 231 282 330 409
#     4  12  25  40  64 100 136 177 232 283 352 409
#
# _framework density 21.702394000000002
#
# number of rings (size 3 to 8) (size 9 to 14) (size 15 to 20)
#    0.400    0.400    4.000    4.800    5.600    0.000 
#    0.000    0.000    0.000    0.400    0.000    0.000 
#    0.000    0.000    0.000    0.000    0.000    0.000 
#
# Total GULP energy -743307.178730 kJ/mol
# GULP energy per Si atom -12388.452979 kJ/mol
# Density = 2.165300 g / cm^3
# Si number density = 21.702394 Si / 1000 Ang^3
#
#
#
# Elastic Constant Matrix: (Units=GPa)
#
#
# Indices 1 2 3 4 5 6 
#
# 1 115.1292 46.4381 23.1804 5.1321 0.0000 0.0000
# 2 46.4381 115.1304 23.1802 -5.1320 0.0000 0.0000
# 3 23.1804 23.1802 39.0675 -0.0001 0.0000 0.0000
# 4 5.1321 -5.1320 -0.0001 29.1724 0.0000 0.0000
# 5 0.0000 0.0000 0.0000 0.0000 29.1727 5.1321
# 6 0.0000 0.0000 0.0000 0.0000 5.1321 34.3453
#
#
#
# Elastic Compliance Matrix: (Units=1/GPa)
#
#
# Indices 1 2 3 4 5 6 
#
# 1 0.011205 -0.003746 -0.004426 -0.002630 0.000000 0.000000
# 2 -0.003746 0.011205 -0.004426 0.002630 0.000000 0.000000
# 3 -0.004426 -0.004426 0.030849 0.000000 0.000000 0.000000
# 4 -0.002630 0.002630 0.000000 0.035204 0.000000 0.000000
# 5 0.000000 0.000000 0.000000 0.000000 0.035204 -0.005260
# 6 0.000000 0.000000 0.000000 0.000000 -0.005260 0.029902
#
#
# Mechanical properties :
#
#
# Convention : Reuss Voigt Hill
#
# Bulk Modulus (GPa) = 35.63301 50.54719 43.09010
# Shear Modulus (GPa) = 26.57887 30.30663 28.44275
#
# Velocity S-wave (km/s) = 3.50336 3.74098 3.62412
# Velocity P-wave (km/s) = 5.72882 6.48086 6.11641
#
# Compressibility (1/GPa) = 0.02806386
#
# Stress axis : x y z
#
# Youngs Moduli (GPa) = 89.24468 89.24604 32.41605
#
# Poissons Ratio (x) = 0.33429 0.14347
# Poissons Ratio (y) = 0.33429 0.14347
# Poissons Ratio (z) = 0.39500 0.39499
#
# Static dielectric constant tensor:
#      x y z
#    x 4.286370 0.000000 0.000000 
#    y 0.000000 4.286360 0.000010 
#    z 0.000000 0.000010 3.718170 
# 
# 
# High freq. dielectric constant tensor:
#      x y z
#    x 1.860440 0.000000 0.000000 
#    y 0.000000 1.860440 0.000000 
#    z 0.000000 0.000000 1.820440 
# 
# From -- ./inp_files/3296.got.cif
#   From: 2010.03.12/outbox.cif.g09.slc.cpg/sg165_2_cif.got.tgz:3296.got - 2010.04.02 06:36:38.
