data_PCOD8323629
_publ_section_title
;
Structure prediction by ZEFSAII (Michael W. Deem and Ramdas Pophale) SiO2 
 PCOD8323629
Probable space group: P -3 M 1
;
_chemical_formula_sum "Si O2"
_cell_formula_units_Z 84
_cell_length_a 17.542667
_cell_length_b 17.542667
_cell_length_c 17.923962
_cell_angle_alpha 90.000000
_cell_angle_beta 90.000000
_cell_angle_gamma 120.000000
_cell_volume 4777.007084
_symmetry_space_group_name_H-M "P -3 M 1"
_symmetry_group_IT_number 164
_symmetry_cell_setting 'hexagonal'
loop_
_space_group_symop_operation_xyz
x,y,z
-y,x-y,z
-x+y,-x,z
x-y,-y,-z
-x,-x+y,-z
y,x,-z
-x,-y,-z
y,-x+y,-z
x-y,x,-z
-x+y,y,z
x,x-y,z
-y,-x,z
loop_
_atom_site_type_symbol
_atom_site_label
_atom_site_fract_x
_atom_site_fract_y
_atom_site_fract_z
Si Si1 0.333284 0.496637 0.802042
Si Si2 0.324457 0.075253 0.942739
Si Si3 0.915812 0.257683 0.775107
Si Si4 0.831091 0.000970 0.313327
Si Si5 0.496595 0.163397 0.032985
Si Si6 0.402460 0.420048 0.678901
Si Si7 0.069676 0.317504 0.566805
O O1 0.238062 0.476123 0.775023
O O2 0.398369 0.601632 0.804071
O O3 0.330498 0.458269 0.884422
O O4 0.365468 0.450788 0.745434
O O5 0.291137 0.145569 0.939341
O O6 0.334957 0.047113 0.858988
O O7 0.421651 0.115799 0.973499
O O8 0.258985 0.000000 0.000000
O O9 0.810559 0.189442 0.774529
O O10 0.969003 0.210179 0.750289
O O11 0.932498 0.335662 0.716213
O O12 0.847540 0.923770 0.341310
O O13 0.802678 0.034103 0.384523
O O14 0.920395 0.079606 0.278629
O O15 0.570526 0.141052 0.009236
O O16 0.536636 0.268318 0.032043
O O17 0.501523 0.498478 0.655897
O O18 0.333874 0.394682 0.610004
O O19 0.173407 0.346813 0.545488
O O20 0.000000 0.289886 0.500000
#
# Coordination Sequence:
#
# PCOD8323629 Si02
#       7
#    12  12  12  12  12  12  12
#     4   9  16  27  44  69 100 129 156 188 232 285
#     4  10  20  32  46  65  91 125 164 206 249 288
#     4   9  19  34  48  66  94 126 161 203 249 288
#     4   9  17  30  50  75 100 125 153 186 227 279
#     4   9  17  28  44  67  95 126 157 192 237 289
#     4  10  20  33  52  75  96 124 163 202 237 278
#     4  10  20  34  53  77 105 133 157 184 224 277
#
# _framework density 17.584232
#
# number of rings (size 3 to 8) (size 9 to 14) (size 15 to 20)
#    0.000    2.571    0.000    2.143    0.000    4.000 
#    0.000    0.000    0.000    3.000    0.000    1.000 
#    0.000    0.000    0.000    0.000    0.000    0.000 
#
# Total GULP energy -1040702.174028 kJ/mol
# GULP energy per Si atom -12389.311596 kJ/mol
# Density = 1.754421 g / cm^3
# Si number density = 17.584232 Si / 1000 Ang^3
#
#
#
# Elastic Constant Matrix: (Units=GPa)
#
#
# Indices 1 2 3 4 5 6 
#
# 1 78.5597 41.5336 30.2853 -0.6642 0.0000 0.0000
# 2 41.5336 78.5597 30.2853 0.6642 0.0000 0.0000
# 3 30.2853 30.2853 80.3180 0.0000 0.0000 0.0000
# 4 -0.6642 0.6642 0.0000 16.8315 0.0000 0.0000
# 5 0.0000 0.0000 0.0000 0.0000 16.8315 -0.6642
# 6 0.0000 0.0000 0.0000 0.0000 -0.6642 18.5130
#
#
#
# Elastic Compliance Matrix: (Units=1/GPa)
#
#
# Indices 1 2 3 4 5 6 
#
# 1 0.018664 -0.008382 -0.003877 0.001067 0.000000 0.000000
# 2 -0.008382 0.018664 -0.003877 -0.001067 0.000000 0.000000
# 3 -0.003877 -0.003877 0.015374 0.000000 0.000000 0.000000
# 4 0.001067 -0.001067 0.000000 0.059497 0.000000 0.000000
# 5 0.000000 0.000000 0.000000 0.000000 0.059497 0.002135
# 6 0.000000 0.000000 0.000000 0.000000 0.002135 0.054093
#
#
# Mechanical properties :
#
#
# Convention : Reuss Voigt Hill
#
# Bulk Modulus (GPa) = 48.94636 49.07176 49.00906
# Shear Modulus (GPa) = 18.87704 19.45739 19.16721
#
# Velocity S-wave (km/s) = 3.28002 3.33006 3.30513
# Velocity P-wave (km/s) = 6.49927 6.53857 6.51895
#
# Compressibility (1/GPa) = 0.02043053
#
# Stress axis : x y z
#
# Youngs Moduli (GPa) = 53.57814 53.57814 65.04319
#
# Poissons Ratio (x) = 0.44909 0.25218
# Poissons Ratio (y) = 0.44909 0.25218
# Poissons Ratio (z) = 0.20773 0.20773
#
# Static dielectric constant tensor:
#      x y z
#    x 3.500350 0.000000 0.000000 
#    y 0.000000 3.500350 0.000000 
#    z 0.000000 0.000000 3.271200 
# 
# 
# High freq. dielectric constant tensor:
#      x y z
#    x 1.675430 0.000000 0.000000 
#    y 0.000000 1.675430 0.000000 
#    z 0.000000 0.000000 1.674260 
# 
# From -- ./inp_files/3589.got.cif
#   From: 2010.03.12/outbox.cif.g09.slc.cpg/sg164_2_cif.got.tgz:3589.got - 2010.04.02 06:32:59.
