data_PCOD8323778
_publ_section_title
;
Structure prediction by ZEFSAII (Michael W. Deem and Ramdas Pophale) SiO2 
 PCOD8323778
Probable space group: P -3 M 1
;
_chemical_formula_sum "Si O2"
_cell_formula_units_Z 48
_cell_length_a 18.141286
_cell_length_b 18.141286
_cell_length_c 8.840583
_cell_angle_alpha 90.000000
_cell_angle_beta 90.000000
_cell_angle_gamma 120.000000
_cell_volume 2519.693280
_symmetry_space_group_name_H-M "P -3 M 1"
_symmetry_group_IT_number 164
_symmetry_cell_setting 'hexagonal'
loop_
_space_group_symop_operation_xyz
x,y,z
-y,x-y,z
-x+y,-x,z
x-y,-y,-z
-x,-x+y,-z
y,x,-z
-x,-y,-z
y,-x+y,-z
x-y,x,-z
-x+y,y,z
x,x-y,z
-y,-x,z
loop_
_atom_site_type_symbol
_atom_site_label
_atom_site_fract_x
_atom_site_fract_y
_atom_site_fract_z
Si Si1 0.169741 0.169537 0.673733
Si Si2 0.497320 0.331114 0.689110
Si Si3 0.081851 0.460110 0.606138
Si Si4 0.682680 0.013093 0.823442
O O1 0.196500 0.196500 0.500000
O O2 0.089997 0.179993 0.720844
O O3 0.249416 0.228234 0.778543
O O4 0.143389 0.071695 0.698307
O O5 0.520455 0.260228 0.740046
O O6 0.575632 0.424369 0.726327
O O7 0.477966 0.319458 0.508040
O O8 0.416227 0.317560 0.782665
O O9 0.096607 0.548304 0.680041
O O10 0.000000 0.421505 0.500000
O O11 0.069016 0.393924 0.738539
O O12 0.669450 0.000000 0.000000
#
# Coordination Sequence:
#
# PCOD8323778 Si02
#       4
#    12  12  12  12
#     4  10  21  38  59  81 106 139 181 228 276 325
#     4  10  20  36  58  82 109 143 186 233 279 326
#     4   8  16  32  53  76 102 134 173 220 269 311
#     4  11  22  34  54  83 114 146 183 222 268 327
#
# _framework density 19.049938000000001
#
# number of rings (size 3 to 8) (size 9 to 14) (size 15 to 20)
#    0.000    2.250    0.000    5.750    0.000    8.000 
#    0.000    0.000    0.000    1.500    0.000    3.500 
#    0.000    0.000    0.000    0.000    0.000    0.000 
#
# Total GULP energy -595086.004281 kJ/mol
# GULP energy per Si atom -12397.625089 kJ/mol
# Density = 1.900658 g / cm^3
# Si number density = 19.049938 Si / 1000 Ang^3
#
#
#
# Elastic Constant Matrix: (Units=GPa)
#
#
# Indices 1 2 3 4 5 6 
#
# 1 105.4736 57.4655 46.7251 4.0689 0.0000 0.0000
# 2 57.4655 105.4736 46.7251 -4.0689 0.0000 0.0000
# 3 46.7251 46.7251 110.3258 0.0000 0.0000 0.0000
# 4 4.0689 -4.0689 0.0000 10.3269 0.0000 0.0000
# 5 0.0000 0.0000 0.0000 0.0000 10.3269 4.0689
# 6 0.0000 0.0000 0.0000 0.0000 4.0689 24.0041
#
#
#
# Elastic Compliance Matrix: (Units=1/GPa)
#
#
# Indices 1 2 3 4 5 6 
#
# 1 0.015213 -0.007107 -0.003433 -0.008795 0.000000 0.000000
# 2 -0.007107 0.015213 -0.003433 0.008795 0.000000 0.000000
# 3 -0.003433 -0.003433 0.011972 0.000000 0.000000 0.000000
# 4 -0.008795 0.008795 0.000000 0.103765 0.000000 0.000000
# 5 0.000000 0.000000 0.000000 0.000000 0.103765 -0.017589
# 6 0.000000 0.000000 0.000000 0.000000 -0.017589 0.044641
#
#
# Mechanical properties :
#
#
# Convention : Reuss Voigt Hill
#
# Bulk Modulus (GPa) = 69.19466 69.23383 69.21425
# Shear Modulus (GPa) = 15.27493 20.28873 17.78183
#
# Velocity S-wave (km/s) = 2.83474 3.26702 3.05853
# Velocity P-wave (km/s) = 6.86411 7.11712 6.99176
#
# Compressibility (1/GPa) = 0.01445198
#
# Stress axis : x y z
#
# Youngs Moduli (GPa) = 65.73138 65.73138 83.52760
#
# Poissons Ratio (x) = 0.46716 0.28676
# Poissons Ratio (y) = 0.46716 0.28676
# Poissons Ratio (z) = 0.22567 0.22567
#
# Static dielectric constant tensor:
#      x y z
#    x 3.590080 0.000000 0.000000 
#    y 0.000000 3.590080 0.000000 
#    z 0.000000 0.000000 3.374710 
# 
# 
# High freq. dielectric constant tensor:
#      x y z
#    x 1.741470 0.000000 0.000000 
#    y 0.000000 1.741470 0.000000 
#    z 0.000000 0.000000 1.712640 
# 
# From -- ./inp_files/1264.got.cif
#   From: 2010.03.12/outbox.cif.g09.slc.cpg/sg164_1_cif.got.tgz:1264.got - 2010.04.02 06:32:59.
