data_PCOD8323141
_publ_section_title
;
Structure prediction by ZEFSAII (Michael W. Deem and Ramdas Pophale) SiO2 
 PCOD8323141
Probable space group: P -3 1 M 
;
_chemical_formula_sum "Si O2"
_cell_formula_units_Z 36
_cell_length_a 20.231351
_cell_length_b 20.231351
_cell_length_c 4.998486
_cell_angle_alpha 90.000000
_cell_angle_beta 90.000000
_cell_angle_gamma 120.000000
_cell_volume 1771.817070
_symmetry_space_group_name_H-M "P -3 1 M "
_symmetry_group_IT_number 162
_symmetry_cell_setting 'hexagonal'
loop_
_space_group_symop_operation_xyz
x,y,z
-y,x-y,z
-x+y,-x,z
-y,-x,-z
-x+y,y,-z
x,x-y,-z
-x,-y,-z
y,-x+y,-z
x-y,x,-z
y,x,z
x-y,-y,z
-x,-x+y,z
loop_
_atom_site_type_symbol
_atom_site_label
_atom_site_fract_x
_atom_site_fract_y
_atom_site_fract_z
Si Si1 0.847287 0.241253 0.738190
Si Si2 0.500860 0.914175 0.259081
Si Si3 0.153391 0.153391 0.959470
Si Si4 0.000000 0.247067 0.558986
O O1 0.786504 0.213497 0.500000
O O2 0.863132 0.324626 0.816726
O O3 0.922860 0.250216 0.594260
O O4 0.815157 0.184844 0.000000
O O5 0.439474 0.878948 0.500000
O O6 0.566786 0.000000 0.338411
O O7 0.458165 0.916329 0.000000
O O8 0.202461 0.202461 0.706761
O O9 0.071425 0.142849 0.000000
O O10 0.198521 0.198521 0.205927
#
# Coordination Sequence:
#
# PCOD8323141 Si02
#       4
#    12  12   6   6
#     4  12  24  40  65  98 133 169 210 264 322 383
#     4  10  21  40  66  93 124 160 209 263 311 371
#     4  12  25  42  62  83 118 170 224 272 322 386
#     4  12  24  42  61  93 128 164 212 272 332 374
#
# _framework density 20.318127
#
# number of rings (size 3 to 8) (size 9 to 14) (size 15 to 20)
#    0.000    0.667    1.667    8.167    0.000    0.000 
#    0.000    1.667    0.000   13.333    0.000    0.000 
#    0.000    0.000    0.000    0.000    0.000    0.000 
#
# Total GULP energy -446050.671191 kJ/mol
# GULP energy per Si atom -12390.296422 kJ/mol
# Density = 2.027188 g / cm^3
# Si number density = 20.318127 Si / 1000 Ang^3
#
#
#
# Elastic Constant Matrix: (Units=GPa)
#
#
# Indices 1 2 3 4 5 6 
#
# 1 118.7966 47.6809 39.3374 0.0003 -4.6123 0.0000
# 2 47.6809 118.7966 39.3374 -0.0003 4.6123 0.0000
# 3 39.3374 39.3374 145.5071 0.0000 0.0000 0.0000
# 4 0.0003 -0.0003 0.0000 37.7188 0.0000 4.6123
# 5 -4.6123 4.6123 0.0000 0.0000 37.7188 0.0003
# 6 0.0000 0.0000 0.0000 4.6123 0.0003 35.5578
#
#
#
# Elastic Compliance Matrix: (Units=1/GPa)
#
#
# Indices 1 2 3 4 5 6 
#
# 1 0.010587 -0.003701 -0.001862 0.000000 0.001747 0.000000
# 2 -0.003701 0.010587 -0.001862 0.000000 -0.001747 0.000000
# 3 -0.001862 -0.001862 0.007879 0.000000 0.000000 0.000000
# 4 0.000000 0.000000 0.000000 0.026939 0.000000 -0.003494
# 5 0.001747 -0.001747 0.000000 0.000000 0.026939 0.000000
# 6 0.000000 0.000000 0.000000 -0.003494 0.000000 0.028576
#
#
# Mechanical properties :
#
#
# Convention : Reuss Voigt Hill
#
# Bulk Modulus (GPa) = 70.39599 70.64576 70.52087
# Shear Modulus (GPa) = 38.14091 39.31541 38.72816
#
# Velocity S-wave (km/s) = 4.33735 4.40363 4.37061
# Velocity P-wave (km/s) = 7.73341 7.79110 7.76231
#
# Compressibility (1/GPa) = 0.01420535
#
# Stress axis : x y z
#
# Youngs Moduli (GPa) = 94.45148 94.45148 126.91682
#
# Poissons Ratio (x) = 0.34954 0.23629
# Poissons Ratio (y) = 0.34954 0.23629
# Poissons Ratio (z) = 0.17585 0.17585
#
# Static dielectric constant tensor:
#      x y z
#    x 3.694920 0.000000 0.000000 
#    y 0.000000 3.694920 0.000000 
#    z 0.000000 0.000000 3.715870 
# 
# 
# High freq. dielectric constant tensor:
#      x y z
#    x 1.793280 0.000000 0.000000 
#    y 0.000000 1.793280 0.000000 
#    z 0.000000 0.000000 1.814640 
# 
# From -- ./inp_files/296.got.cif
#   From: 2010.03.12/outbox.cif.g09.slc.cpg/sg162_1_cif.got.tgz:296.got - 2010.04.02 06:27:41.
