data_PCOD8323513
_publ_section_title
;
Structure prediction by ZEFSAII (Michael W. Deem and Ramdas Pophale) SiO2 
 PCOD8323513
Probable space group: P -3 M 1
;
_chemical_formula_sum "Si O2"
_cell_formula_units_Z 84
_cell_length_a 18.222411
_cell_length_b 18.222411
_cell_length_c 14.368727
_cell_angle_alpha 90.000000
_cell_angle_beta 90.000000
_cell_angle_gamma 120.000000
_cell_volume 4132.002738
_symmetry_space_group_name_H-M "P -3 M 1"
_symmetry_group_IT_number 164
_symmetry_cell_setting 'hexagonal'
loop_
_space_group_symop_operation_xyz
x,y,z
-y,x-y,z
-x+y,-x,z
x-y,-y,-z
-x,-x+y,-z
y,x,-z
-x,-y,-z
y,-x+y,-z
x-y,x,-z
-x+y,y,z
x,x-y,z
-y,-x,z
loop_
_atom_site_type_symbol
_atom_site_label
_atom_site_fract_x
_atom_site_fract_y
_atom_site_fract_z
Si Si1 0.170032 0.664258 0.462730
Si Si2 0.028468 0.600176 0.817986
Si Si3 0.757868 0.996257 0.609184
Si Si4 0.287365 0.880626 0.291655
Si Si5 0.999081 0.160052 0.217041
Si Si6 0.241277 0.308318 0.919875
Si Si7 0.703255 0.571823 0.352373
O O1 0.213327 0.606664 0.467918
O O2 0.237532 0.762469 0.464689
O O3 0.121967 0.646255 0.364572
O O4 0.112364 0.646828 0.554048
O O5 0.020770 0.510385 0.848883
O O6 0.068350 0.671139 0.900705
O O7 0.092208 0.636876 0.731238
O O8 0.936090 0.589363 0.793893
O O9 0.756699 0.078245 0.647703
O O10 0.830511 0.993472 0.670534
O O11 0.778728 0.000000 0.500000
O O12 0.671438 0.912034 0.633006
O O13 0.212192 0.787809 0.255941
O O14 0.093090 0.186180 0.183089
O O15 0.970942 0.223603 0.173415
O O16 0.935444 0.064557 0.183098
O O17 0.161929 0.323858 0.941902
O O18 0.255016 0.255016 0.000000
O O19 0.768162 0.536324 0.333781
#
# Coordination Sequence:
#
# PCOD8323513 Si02
#       7
#    12  12  12  12  12  12  12
#     4  10  19  30  46  70 107 153 203 257 312 361
#     4  11  23  38  61  91 121 153 194 246 302 359
#     4  11  20  32  53  83 114 158 209 252 294 346
#     4  10  20  33  52  78 114 157 204 256 303 353
#     4  11  23  39  60  87 121 157 198 247 301 360
#     4  11  24  43  70  98 124 156 196 242 299 361
#     4  10  19  33  52  78 115 156 201 251 304 359
#
# _framework density 20.329124
#
# number of rings (size 3 to 8) (size 9 to 14) (size 15 to 20)
#    0.000    1.429    4.286    2.857    0.000    2.571 
#    0.000    2.143    0.000    6.571    0.000    1.000 
#    0.000    0.000    0.000    0.000    0.000    0.000 
#
# Total GULP energy -1040786.064948 kJ/mol
# GULP energy per Si atom -12390.310297 kJ/mol
# Density = 2.028285 g / cm^3
# Si number density = 20.329124 Si / 1000 Ang^3
#
#
#
# Elastic Constant Matrix: (Units=GPa)
#
#
# Indices 1 2 3 4 5 6 
#
# 1 98.4069 43.6833 25.5456 -2.6266 0.0000 0.0000
# 2 43.6833 98.4069 25.5456 2.6266 0.0000 0.0000
# 3 25.5456 25.5456 71.5159 0.0000 0.0000 0.0000
# 4 -2.6266 2.6266 0.0000 13.9571 0.0000 0.0000
# 5 0.0000 0.0000 0.0000 0.0000 13.9571 -2.6266
# 6 0.0000 0.0000 0.0000 0.0000 -2.6266 27.3618
#
#
#
# Elastic Compliance Matrix: (Units=1/GPa)
#
#
# Indices 1 2 3 4 5 6 
#
# 1 0.013342 -0.005267 -0.002884 0.003502 0.000000 0.000000
# 2 -0.005267 0.013342 -0.002884 -0.003502 0.000000 0.000000
# 3 -0.002884 -0.002884 0.016044 0.000000 0.000000 0.000000
# 4 0.003502 -0.003502 0.000000 0.072966 0.000000 0.000000
# 5 0.000000 0.000000 0.000000 0.000000 0.072966 0.007005
# 6 0.000000 0.000000 0.000000 0.000000 0.007005 0.037220
#
#
# Mechanical properties :
#
#
# Convention : Reuss Voigt Hill
#
# Bulk Modulus (GPa) = 48.41245 50.87541 49.64393
# Shear Modulus (GPa) = 19.62031 22.62557 21.12294
#
# Velocity S-wave (km/s) = 3.11003 3.33973 3.22692
# Velocity P-wave (km/s) = 6.06320 6.32075 6.19332
#
# Compressibility (1/GPa) = 0.02065584
#
# Stress axis : x y z
#
# Youngs Moduli (GPa) = 74.94915 74.94915 62.33049
#
# Poissons Ratio (x) = 0.39479 0.17978
# Poissons Ratio (y) = 0.39479 0.17978
# Poissons Ratio (z) = 0.21618 0.21618
#
# Static dielectric constant tensor:
#      x y z
#    x 3.592160 0.000000 0.000000 
#    y 0.000000 3.592160 0.000000 
#    z 0.000000 0.000000 3.599000 
# 
# 
# High freq. dielectric constant tensor:
#      x y z
#    x 1.785650 0.000000 0.000000 
#    y 0.000000 1.785650 0.000000 
#    z 0.000000 0.000000 1.771370 
# 
# From -- ./inp_files/3632.got.cif
#   From: 2010.03.12/outbox.cif.g09.slc.cpg/sg164_2_cif.got.tgz:3632.got - 2010.04.02 06:32:59.
