data_PCOD8323249
_publ_section_title
;
Structure prediction by ZEFSAII (Michael W. Deem and Ramdas Pophale) SiO2 
 PCOD8323249
Probable space group: P -3 1 C
;
_chemical_formula_sum "Si O2"
_cell_formula_units_Z 54
_cell_length_a 12.123304
_cell_length_b 12.123304
_cell_length_c 22.382248
_cell_angle_alpha 90.000000
_cell_angle_beta 90.000000
_cell_angle_gamma 120.000000
_cell_volume 2848.894234
_symmetry_space_group_name_H-M "P -3 1 C"
_symmetry_group_IT_number 163
_symmetry_cell_setting 'hexagonal'
loop_
_space_group_symop_operation_xyz
x,y,z
-y,x-y,z
-x+y,-x,z
-y,-x,1/2-z
-x+y,y,1/2-z
x,x-y,1/2-z
-x,-y,-z
y,-x+y,-z
x-y,x,-z
y,x,1/2+z
x-y,-y,1/2+z
-x,-x+y,1/2+z
loop_
_atom_site_type_symbol
_atom_site_label
_atom_site_fract_x
_atom_site_fract_y
_atom_site_fract_z
Si Si1 0.086676 0.256747 0.876375
Si Si2 0.836272 0.918136 0.750000
Si Si3 0.579452 0.911203 0.945125
Si Si4 0.333333 0.666667 0.092237
Si Si5 0.000000 0.000000 0.929119
Si Si6 0.333333 0.666666 0.950305
Si Si7 0.380441 0.930732 0.417943
O O1 0.122284 0.254295 0.807517
O O2 0.215330 0.299449 0.914409
O O3 0.021778 0.345174 0.880393
O O4 0.988173 0.117321 0.902218
O O5 0.927543 0.855085 0.750000
O O6 0.466373 0.774253 0.925456
O O7 0.548814 0.017406 0.921013
O O8 0.600272 0.924107 0.016185
O O9 0.208823 0.674697 0.112728
O O10 0.333334 0.666667 0.021182
O O11 0.000000 0.000000 0.000000
#
# Coordination Sequence:
#
# PCOD8323249 Si02
#       7
#    12   6  12   4   4   4  12
#     4  12  22  39  63  85 119 159 214 246 303 367
#     4  10  22  46  58  80 116 174 200 250 316 356
#     4  10  20  35  58  89 126 162 194 247 308 365
#     4   9  21  33  54  84 134 164 183 225 313 386
#     4  12  24  34  59  97 123 138 196 272 310 372
#     4   9  15  36  51  82 127 169 190 222 304 371
#     4  10  22  35  58  91 126 163 192 242 317 373
#
# _framework density 18.954722
#
# number of rings (size 3 to 8) (size 9 to 14) (size 15 to 20)
#    0.222    1.333    4.444    1.333    6.222    0.000 
#    0.000    1.111    0.000    0.000    0.000    0.000 
#    0.000    0.000    0.000    0.000    0.000    0.000 
#
# Total GULP energy -669408.033748 kJ/mol
# GULP energy per Si atom -12396.445069 kJ/mol
# Density = 1.891158 g / cm^3
# Si number density = 18.954722 Si / 1000 Ang^3
#
#
#
# Elastic Constant Matrix: (Units=GPa)
#
#
# Indices 1 2 3 4 5 6 
#
# 1 84.4503 30.1704 35.7214 0.0000 -0.8708 0.0000
# 2 30.1704 84.4501 35.7213 0.0000 0.8708 -0.0001
# 3 35.7214 35.7213 96.8789 0.0001 0.0000 0.0000
# 4 0.0000 0.0000 0.0001 18.8615 0.0000 0.8708
# 5 -0.8708 0.8708 0.0000 0.0000 18.8615 0.0000
# 6 0.0000 -0.0001 0.0000 0.8708 0.0000 27.1398
#
#
#
# Elastic Compliance Matrix: (Units=1/GPa)
#
#
# Indices 1 2 3 4 5 6 
#
# 1 0.014889 -0.003561 -0.004177 0.000000 0.000852 0.000000
# 2 -0.003561 0.014889 -0.004177 0.000000 -0.000852 0.000000
# 3 -0.004177 -0.004177 0.013402 0.000000 0.000000 0.000000
# 4 0.000000 0.000000 0.000000 0.053097 0.000000 -0.001704
# 5 0.000852 -0.000852 0.000000 0.000000 0.053097 0.000000
# 6 0.000000 0.000000 0.000000 -0.001704 0.000000 0.036901
#
#
# Mechanical properties :
#
#
# Convention : Reuss Voigt Hill
#
# Bulk Modulus (GPa) = 51.67763 52.11171 51.89467
# Shear Modulus (GPa) = 23.08884 23.91698 23.50291
#
# Velocity S-wave (km/s) = 3.49392 3.55603 3.52511
# Velocity P-wave (km/s) = 6.60300 6.66430 6.63372
#
# Compressibility (1/GPa) = 0.01935073
#
# Stress axis : x y z
#
# Youngs Moduli (GPa) = 67.16324 67.16306 74.61382
#
# Poissons Ratio (x) = 0.23919 0.31165
# Poissons Ratio (y) = 0.23919 0.31165
# Poissons Ratio (z) = 0.28053 0.28053
#
# Static dielectric constant tensor:
#      x y z
#    x 3.545590 0.000010 0.000000 
#    y 0.000010 3.545600 0.000000 
#    z 0.000000 0.000000 3.050960 
# 
# 
# High freq. dielectric constant tensor:
#      x y z
#    x 1.742850 0.000000 0.000000 
#    y 0.000000 1.742850 0.000000 
#    z 0.000000 0.000000 1.684960 
# 
# From -- ./inp_files/3873.got.cif
#   From: 2010.03.12/outbox.cif.g09.slc.cpg/sg163_2_cif.got.tgz:3873.got - 2010.04.02 06:30:25.
