data_PCOD8323622
_publ_section_title
;
Structure prediction by ZEFSAII (Michael W. Deem and Ramdas Pophale) SiO2 
 PCOD8323622
Probable space group: P -3 M 1
;
_chemical_formula_sum "Si O2"
_cell_formula_units_Z 66
_cell_length_a 12.990758
_cell_length_b 12.990758
_cell_length_c 27.610237
_cell_angle_alpha 90.000000
_cell_angle_beta 90.000000
_cell_angle_gamma 120.000000
_cell_volume 4035.243544
_symmetry_space_group_name_H-M "P -3 M 1"
_symmetry_group_IT_number 164
_symmetry_cell_setting 'hexagonal'
loop_
_space_group_symop_operation_xyz
x,y,z
-y,x-y,z
-x+y,-x,z
x-y,-y,-z
-x,-x+y,-z
y,x,-z
-x,-y,-z
y,-x+y,-z
x-y,x,-z
-x+y,y,z
x,x-y,z
-y,-x,z
loop_
_atom_site_type_symbol
_atom_site_label
_atom_site_fract_x
_atom_site_fract_y
_atom_site_fract_z
Si Si1 0.665282 0.574273 0.771290
Si Si2 0.428582 0.333747 0.147567
Si Si3 0.430036 0.333486 0.309206
Si Si4 0.333361 0.430605 0.580022
Si Si5 0.904576 0.333040 0.037512
Si Si6 0.000000 0.758980 0.500000
O O1 0.791482 0.582964 0.771129
O O2 0.563234 0.436767 0.772076
O O3 0.657085 0.642594 0.818385
O O4 0.655411 0.639576 0.723526
O O5 0.417282 0.208641 0.161315
O O6 0.565421 0.434580 0.155474
O O7 0.387752 0.334526 0.092525
O O8 0.414814 0.207407 0.294102
O O9 0.567374 0.432627 0.300877
O O10 0.392560 0.333963 0.364635
O O11 0.234976 0.469952 0.572658
O O12 0.459481 0.540520 0.564576
O O13 0.305942 0.318458 0.547185
O O14 0.882575 0.441288 0.027463
O O15 0.783439 0.216562 0.025967
O O16 0.000000 0.335462 0.000000
O O17 0.887068 0.774136 0.508402
#
# Coordination Sequence:
#
# PCOD8323622 Si02
#       6
#    12  12  12  12  12   6
#     4  10  20  32  46  65  92 124 153 181 216 264
#     4   9  17  30  49  71  92 115 147 190 235 272
#     4   9  17  30  50  74  95 115 143 184 232 276
#     4   9  17  30  49  72  95 117 144 184 234 280
#     4   9  17  29  46  69  95 121 149 183 225 270
#     4  10  20  32  46  64  90 126 164 196 222 256
#
# _framework density 16.355889999999999
#
# number of rings (size 3 to 8) (size 9 to 14) (size 15 to 20)
#    0.000    2.727    0.000    1.818    0.000    4.364 
#    0.000    1.818    0.000    5.636    0.000    0.000 
#    0.000    0.000    0.000    0.000    0.000    0.000 
#
# Total GULP energy -818452.563738 kJ/mol
# GULP energy per Si atom -12400.796420 kJ/mol
# Density = 1.631866 g / cm^3
# Si number density = 16.355890 Si / 1000 Ang^3
#
#
#
# Elastic Constant Matrix: (Units=GPa)
#
#
# Indices 1 2 3 4 5 6 
#
# 1 112.1397 64.9352 69.6139 -0.8356 0.0000 0.0000
# 2 64.9352 112.1397 69.6139 0.8356 0.0000 0.0000
# 3 69.6139 69.6139 113.7091 0.0000 0.0000 0.0000
# 4 -0.8356 0.8356 0.0000 24.8778 0.0000 0.0000
# 5 0.0000 0.0000 0.0000 0.0000 24.8778 -0.8356
# 6 0.0000 0.0000 0.0000 0.0000 -0.8356 23.6023
#
#
#
# Elastic Compliance Matrix: (Units=1/GPa)
#
#
# Indices 1 2 3 4 5 6 
#
# 1 0.016049 -0.005160 -0.006666 0.000712 0.000000 0.000000
# 2 -0.005160 0.016049 -0.006666 -0.000712 0.000000 0.000000
# 3 -0.006666 -0.006666 0.016957 0.000000 0.000000 0.000000
# 4 0.000712 -0.000712 0.000000 0.040244 0.000000 0.000000
# 5 0.000000 0.000000 0.000000 0.000000 0.040244 0.001425
# 6 0.000000 0.000000 0.000000 0.000000 0.001425 0.042419
#
#
# Mechanical properties :
#
#
# Convention : Reuss Voigt Hill
#
# Bulk Modulus (GPa) = 82.85500 82.92383 82.88941
# Shear Modulus (GPa) = 23.47730 23.59327 23.53528
#
# Velocity S-wave (km/s) = 3.79278 3.80214 3.79746
# Velocity P-wave (km/s) = 8.36348 8.37166 8.36757
#
# Compressibility (1/GPa) = 0.01206928
#
# Stress axis : x y z
#
# Youngs Moduli (GPa) = 62.30848 62.30848 58.97408
#
# Poissons Ratio (x) = 0.32154 0.39313
# Poissons Ratio (y) = 0.32154 0.39313
# Poissons Ratio (z) = 0.41536 0.41536
#
# Static dielectric constant tensor:
#      x y z
#    x 2.941660 0.000000 0.000000 
#    y 0.000000 2.941660 0.000000 
#    z 0.000000 0.000000 3.358170 
# 
# 
# High freq. dielectric constant tensor:
#      x y z
#    x 1.617140 0.000000 0.000000 
#    y 0.000000 1.617140 0.000000 
#    z 0.000000 0.000000 1.643340 
# 
# From -- ./inp_files/5491.got.cif
#   From: 2010.03.12/outbox.cif.g09.slc.cpg/sg164_3_cif.got.tgz:5491.got - 2010.04.02 06:32:59.
