data_PCOD8323441
_publ_section_title
;
Structure prediction by ZEFSAII (Michael W. Deem and Ramdas Pophale) SiO2 
 PCOD8323441
Probable space group: P -3 M 1
;
_chemical_formula_sum "Si O2"
_cell_formula_units_Z 96
_cell_length_a 18.205742
_cell_length_b 18.205742
_cell_length_c 19.363942
_cell_angle_alpha 90.000000
_cell_angle_beta 90.000000
_cell_angle_gamma 120.000000
_cell_volume 5558.289624
_symmetry_space_group_name_H-M "P -3 M 1"
_symmetry_group_IT_number 164
_symmetry_cell_setting 'hexagonal'
loop_
_space_group_symop_operation_xyz
x,y,z
-y,x-y,z
-x+y,-x,z
x-y,-y,-z
-x,-x+y,-z
y,x,-z
-x,-y,-z
y,-x+y,-z
x-y,x,-z
-x+y,y,z
x,x-y,z
-y,-x,z
loop_
_atom_site_type_symbol
_atom_site_label
_atom_site_fract_x
_atom_site_fract_y
_atom_site_fract_z
Si Si1 0.513218 0.646162 0.142089
Si Si2 0.167111 0.670466 0.293327
Si Si3 0.066557 0.452282 0.875892
Si Si4 0.693677 0.929365 0.806245
Si Si5 0.069481 0.758751 0.311843
Si Si6 0.197037 0.229671 0.069606
Si Si7 0.716727 0.125649 0.990222
Si Si8 0.999802 0.831243 0.579610
O O1 0.413052 0.586949 0.147860
O O2 0.538020 0.695302 0.214609
O O3 0.560998 0.593940 0.132509
O O4 0.529003 0.701849 0.074239
O O5 0.146055 0.573028 0.304630
O O6 0.263753 0.736248 0.317530
O O7 0.099817 0.690551 0.332479
O O8 0.104664 0.552332 0.856135
O O9 0.101191 0.403833 0.827570
O O10 0.087734 0.447721 0.956078
O O11 0.695327 0.847664 0.775747
O O12 0.726320 0.004402 0.751474
O O13 0.756658 0.961439 0.872402
O O14 0.151450 0.848551 0.291881
O O15 0.020868 0.768532 0.377376
O O16 0.112790 0.225579 0.100588
O O17 0.267905 0.322853 0.045108
O O18 0.171755 0.171755 0.000000
O O19 0.802994 0.197007 0.027884
O O20 0.929302 0.858603 0.592739
O O21 0.000000 0.807398 0.500000
O O22 0.090277 0.909724 0.602527
#
# Coordination Sequence:
#
# PCOD8323441 Si02
#       8
#    12  12  12  12  12  12  12  12
#     4  10  18  29  46  64  87 115 148 196 250 305
#     4  10  19  32  50  74 102 132 164 202 252 310
#     4  11  21  33  47  65  88 116 156 203 251 302
#     4  12  22  35  51  71  95 125 167 209 248 292
#     4  10  20  34  53  78 106 136 167 205 250 294
#     4  11  20  32  48  66  90 119 157 202 247 295
#     4  11  19  30  46  65  87 113 150 201 257 310
#     4   9  17  31  53  82 114 146 176 205 241 288
#
# _framework density 17.2715
#
# number of rings (size 3 to 8) (size 9 to 14) (size 15 to 20)
#    0.000    1.500    3.750    2.875    0.000    3.500 
#    0.000    0.000    0.000   11.125    0.000    0.000 
#    0.000    0.000    0.000    0.000    0.000    0.125 
#
# Total GULP energy -1189347.792663 kJ/mol
# GULP energy per Si atom -12389.039507 kJ/mol
# Density = 1.723219 g / cm^3
# Si number density = 17.271500 Si / 1000 Ang^3
#
#
#
# Elastic Constant Matrix: (Units=GPa)
#
#
# Indices 1 2 3 4 5 6 
#
# 1 89.5469 47.3011 28.9435 0.7468 0.0000 0.0000
# 2 47.3011 89.5469 28.9435 -0.7468 0.0000 0.0000
# 3 28.9435 28.9435 54.8015 0.0000 0.0000 0.0000
# 4 0.7468 -0.7468 0.0000 18.4745 0.0000 0.0000
# 5 0.0000 0.0000 0.0000 0.0000 18.4745 0.7468
# 6 0.0000 0.0000 0.0000 0.0000 0.7468 21.1229
#
#
#
# Elastic Compliance Matrix: (Units=1/GPa)
#
#
# Indices 1 2 3 4 5 6 
#
# 1 0.016557 -0.007148 -0.004970 -0.000958 0.000000 0.000000
# 2 -0.007148 0.016557 -0.004970 0.000958 0.000000 0.000000
# 3 -0.004970 -0.004970 0.023497 0.000000 0.000000 0.000000
# 4 -0.000958 0.000958 0.000000 0.054206 0.000000 0.000000
# 5 0.000000 0.000000 0.000000 0.000000 0.054206 -0.001916
# 6 0.000000 0.000000 0.000000 0.000000 -0.001916 0.047410
#
#
# Mechanical properties :
#
#
# Convention : Reuss Voigt Hill
#
# Bulk Modulus (GPa) = 44.56807 49.36348 46.96577
# Shear Modulus (GPa) = 19.67833 20.19487 19.93660
#
# Velocity S-wave (km/s) = 3.37909 3.42315 3.40119
# Velocity P-wave (km/s) = 6.40974 6.65334 6.53267
#
# Compressibility (1/GPa) = 0.02243759
#
# Stress axis : x y z
#
# Youngs Moduli (GPa) = 60.39663 60.39663 42.55837
#
# Poissons Ratio (x) = 0.43169 0.21150
# Poissons Ratio (y) = 0.43169 0.21150
# Poissons Ratio (z) = 0.30015 0.30015
#
# Static dielectric constant tensor:
#      x y z
#    x 3.367630 0.000000 0.000000 
#    y 0.000000 3.367630 0.000000 
#    z 0.000000 0.000000 3.026570 
# 
# 
# High freq. dielectric constant tensor:
#      x y z
#    x 1.665170 0.000000 0.000000 
#    y 0.000000 1.665170 0.000000 
#    z 0.000000 0.000000 1.624560 
# 
# From -- ./inp_files/4722.got.cif
#   From: 2010.03.12/outbox.cif.g09.slc.cpg/sg164_3_cif.got.tgz:4722.got - 2010.04.02 06:32:59.
