data_PCOD8323685
_publ_section_title
;
Structure prediction by ZEFSAII (Michael W. Deem and Ramdas Pophale) SiO2 
 PCOD8323685
Probable space group: P -3 M 1
;
_chemical_formula_sum "Si O2"
_cell_formula_units_Z 54
_cell_length_a 12.939377
_cell_length_b 12.939377
_cell_length_c 22.631878
_cell_angle_alpha 90.000000
_cell_angle_beta 90.000000
_cell_angle_gamma 120.000000
_cell_volume 3281.541933
_symmetry_space_group_name_H-M "P -3 M 1"
_symmetry_group_IT_number 164
_symmetry_cell_setting 'hexagonal'
loop_
_space_group_symop_operation_xyz
x,y,z
-y,x-y,z
-x+y,-x,z
x-y,-y,-z
-x,-x+y,-z
y,x,-z
-x,-y,-z
y,-x+y,-z
x-y,x,-z
-x+y,y,z
x,x-y,z
-y,-x,z
loop_
_atom_site_type_symbol
_atom_site_label
_atom_site_fract_x
_atom_site_fract_y
_atom_site_fract_z
Si Si1 0.574998 0.907895 0.894176
Si Si2 0.241996 0.000000 0.000000
Si Si3 0.095833 0.428714 0.205511
Si Si4 0.000546 0.760489 0.566145
Si Si5 0.428411 0.095483 0.660616
O O1 0.452574 0.905148 0.910737
O O2 0.546722 0.773361 0.884653
O O3 0.670882 0.973973 0.945188
O O4 0.632582 0.981241 0.834508
O O5 0.113052 0.886949 0.014616
O O6 0.207355 0.414709 0.184717
O O7 0.136501 0.568251 0.200850
O O8 0.057722 0.382354 0.272376
O O9 0.118866 0.881135 0.579654
O O10 0.000000 0.712419 0.500000
O O11 0.893328 0.786655 0.574027
O O12 0.995158 0.668253 0.614692
O O13 0.544477 0.088954 0.647602
O O14 0.459054 0.229527 0.648203
#
# Coordination Sequence:
#
# PCOD8323685 Si02
#       5
#    12   6  12  12  12
#     4  10  20  33  49  69  94 123 153 184 219 261
#     4  10  20  34  52  72  94 120 150 186 226 266
#     4   9  17  30  48  69  91 116 148 185 224 264
#     4   9  17  29  45  64  86 114 148 185 223 263
#     4   9  17  29  46  67  90 116 146 182 223 266
#
# _framework density 16.455680000000001
#
# number of rings (size 3 to 8) (size 9 to 14) (size 15 to 20)
#    0.000    2.667    0.000    2.000    0.000    4.000 
#    0.000    0.000    0.000    8.000    0.000    0.000 
#    0.000    0.000    0.000    0.000    0.000    0.000 
#
# Total GULP energy -669569.943968 kJ/mol
# GULP energy per Si atom -12399.443407 kJ/mol
# Density = 1.641823 g / cm^3
# Si number density = 16.455680 Si / 1000 Ang^3
#
#
#
# Elastic Constant Matrix: (Units=GPa)
#
#
# Indices 1 2 3 4 5 6 
#
# 1 97.1798 55.3361 61.5943 0.0654 0.0000 0.0000
# 2 55.3361 97.1798 61.5943 -0.0654 0.0000 0.0000
# 3 61.5943 61.5943 105.3749 0.0000 0.0000 0.0000
# 4 0.0654 -0.0654 0.0000 27.4460 0.0000 0.0000
# 5 0.0000 0.0000 0.0000 0.0000 27.4460 0.0654
# 6 0.0000 0.0000 0.0000 0.0000 0.0654 20.9218
#
#
#
# Elastic Compliance Matrix: (Units=1/GPa)
#
#
# Indices 1 2 3 4 5 6 
#
# 1 0.018160 -0.005739 -0.007260 -0.000057 0.000000 0.000000
# 2 -0.005739 0.018160 -0.007260 0.000057 0.000000 0.000000
# 3 -0.007260 -0.007260 0.017978 0.000000 0.000000 0.000000
# 4 -0.000057 0.000057 0.000000 0.036435 0.000000 0.000000
# 5 0.000000 0.000000 0.000000 0.000000 0.036435 -0.000114
# 6 0.000000 0.000000 0.000000 0.000000 -0.000114 0.047797
#
#
# Mechanical properties :
#
#
# Convention : Reuss Voigt Hill
#
# Bulk Modulus (GPa) = 72.57886 72.97600 72.77743
# Shear Modulus (GPa) = 22.71928 23.24341 22.98134
#
# Velocity S-wave (km/s) = 3.71972 3.76238 3.74111
# Velocity P-wave (km/s) = 7.91516 7.95722 7.93622
#
# Compressibility (1/GPa) = 0.01377812
#
# Stress axis : x y z
#
# Youngs Moduli (GPa) = 55.06665 55.06665 55.62459
#
# Poissons Ratio (x) = 0.31602 0.40385
# Poissons Ratio (y) = 0.31602 0.40385
# Poissons Ratio (z) = 0.39980 0.39980
#
# Static dielectric constant tensor:
#      x y z
#    x 3.060420 0.000000 0.000000 
#    y 0.000000 3.060420 0.000000 
#    z 0.000000 0.000000 3.262560 
# 
# 
# High freq. dielectric constant tensor:
#      x y z
#    x 1.630430 0.000000 0.000000 
#    y 0.000000 1.630430 0.000000 
#    z 0.000000 0.000000 1.641750 
# 
# From -- ./inp_files/4886.got.cif
#   From: 2010.03.12/outbox.cif.g09.slc.cpg/sg164_3_cif.got.tgz:4886.got - 2010.04.02 06:32:59.
