data_PCOD8323578
_publ_section_title
;
Structure prediction by ZEFSAII (Michael W. Deem and Ramdas Pophale) SiO2 
 PCOD8323578
Probable space group: P -3 M 1
;
_chemical_formula_sum "Si O2"
_cell_formula_units_Z 36
_cell_length_a 18.216974
_cell_length_b 18.216974
_cell_length_c 7.121783
_cell_angle_alpha 90.000000
_cell_angle_beta 90.000000
_cell_angle_gamma 120.000000
_cell_volume 2046.783208
_symmetry_space_group_name_H-M "P -3 M 1"
_symmetry_group_IT_number 164
_symmetry_cell_setting 'hexagonal'
loop_
_space_group_symop_operation_xyz
x,y,z
-y,x-y,z
-x+y,-x,z
x-y,-y,-z
-x,-x+y,-z
y,x,-z
-x,-y,-z
y,-x+y,-z
x-y,x,-z
-x+y,y,z
x,x-y,z
-y,-x,z
loop_
_atom_site_type_symbol
_atom_site_label
_atom_site_fract_x
_atom_site_fract_y
_atom_site_fract_z
Si Si1 0.170044 0.503069 0.254831
Si Si2 0.093202 0.736996 0.535160
Si Si3 0.458888 0.375187 0.117075
O O1 0.266314 0.532629 0.309929
O O2 0.148711 0.574356 0.323446
O O3 0.106736 0.416316 0.358724
O O4 0.160642 0.491093 0.030477
O O5 0.163137 0.836864 0.543058
O O6 0.099042 0.691779 0.722495
O O7 0.000000 0.725577 0.500000
O O8 0.539311 0.460690 0.201217
O O9 0.398491 0.398491 0.000000
#
# Coordination Sequence:
#
# PCOD8323578 Si02
#       3
#    12  12  12
#     4  10  20  33  51  76 108 143 177 211 249 295
#     4  11  22  36  54  77 104 134 174 218 264 311
#     4  10  19  32  53  78 105 138 174 211 251 297
#
# _framework density 17.588576
#
# number of rings (size 3 to 8) (size 9 to 14) (size 15 to 20)
#    0.000    1.667    3.333    2.333    0.000    1.333 
#    0.000    0.000    0.000   11.000    0.000    0.000 
#    0.000    1.333    0.000    0.000    0.000    0.000 
#
# Total GULP energy -446288.803519 kJ/mol
# GULP energy per Si atom -12396.911209 kJ/mol
# Density = 1.754854 g / cm^3
# Si number density = 17.588576 Si / 1000 Ang^3
#
#
#
# Elastic Constant Matrix: (Units=GPa)
#
#
# Indices 1 2 3 4 5 6 
#
# 1 100.8383 64.5584 31.4552 0.3137 0.0000 0.0000
# 2 64.5584 100.8383 31.4552 -0.3137 0.0000 0.0000
# 3 31.4552 31.4552 72.7729 0.0000 0.0000 0.0000
# 4 0.3137 -0.3137 0.0000 22.0646 0.0000 0.0000
# 5 0.0000 0.0000 0.0000 0.0000 22.0646 0.3137
# 6 0.0000 0.0000 0.0000 0.0000 0.3137 18.1400
#
#
#
# Elastic Compliance Matrix: (Units=1/GPa)
#
#
# Indices 1 2 3 4 5 6 
#
# 1 0.017403 -0.010167 -0.003128 -0.000392 0.000000 0.000000
# 2 -0.010167 0.017403 -0.003128 0.000392 0.000000 0.000000
# 3 -0.003128 -0.003128 0.016445 0.000000 0.000000 0.000000
# 4 -0.000392 0.000392 0.000000 0.045333 0.000000 0.000000
# 5 0.000000 0.000000 0.000000 0.000000 0.045333 -0.000784
# 6 0.000000 0.000000 0.000000 0.000000 -0.000784 0.055140
#
#
# Mechanical properties :
#
#
# Convention : Reuss Voigt Hill
#
# Bulk Modulus (GPa) = 54.32935 58.82081 56.57508
# Shear Modulus (GPa) = 21.18315 22.25255 21.71785
#
# Velocity S-wave (km/s) = 3.47417 3.56078 3.51774
# Velocity P-wave (km/s) = 6.85924 7.10076 6.98104
#
# Compressibility (1/GPa) = 0.01840626
#
# Stress axis : x y z
#
# Youngs Moduli (GPa) = 57.46160 57.46160 60.80855
#
# Poissons Ratio (x) = 0.58423 0.19018
# Poissons Ratio (y) = 0.58423 0.19018
# Poissons Ratio (z) = 0.17971 0.17971
#
# Static dielectric constant tensor:
#      x y z
#    x 3.188970 0.000000 0.000000 
#    y 0.000000 3.188970 0.000000 
#    z 0.000000 0.000000 3.375460 
# 
# 
# High freq. dielectric constant tensor:
#      x y z
#    x 1.663580 0.000000 0.000000 
#    y 0.000000 1.663580 0.000000 
#    z 0.000000 0.000000 1.687550 
# 
# From -- ./inp_files/270.got.cif
#   From: 2010.03.12/outbox.cif.g09.slc.cpg/sg164_1_cif.got.tgz:270.got - 2010.04.02 06:32:59.
