data_PCOD8323146
_publ_section_title
;
Structure prediction by ZEFSAII (Michael W. Deem and Ramdas Pophale) SiO2 
 PCOD8323146
Probable space group: P -3 1 M 
;
_chemical_formula_sum "Si O2"
_cell_formula_units_Z 82
_cell_length_a 20.104934
_cell_length_b 20.104934
_cell_length_c 11.867654
_cell_angle_alpha 90.000000
_cell_angle_beta 90.000000
_cell_angle_gamma 120.000000
_cell_volume 4154.328272
_symmetry_space_group_name_H-M "P -3 1 M "
_symmetry_group_IT_number 162
_symmetry_cell_setting 'hexagonal'
loop_
_space_group_symop_operation_xyz
x,y,z
-y,x-y,z
-x+y,-x,z
-y,-x,-z
-x+y,y,-z
x,x-y,-z
-x,-y,-z
y,-x+y,-z
x-y,x,-z
y,x,z
x-y,-y,z
-x,-x+y,z
loop_
_atom_site_type_symbol
_atom_site_label
_atom_site_fract_x
_atom_site_fract_y
_atom_site_fract_z
Si Si1 0.666668 0.333334 0.865684
Si Si2 0.515490 0.189654 0.791261
Si Si3 0.441566 0.294577 0.750658
Si Si4 0.819943 0.909972 0.500000
Si Si5 0.712335 0.577248 0.997184
Si Si6 0.453184 0.542833 0.632795
Si Si7 0.261671 0.177655 0.092963
Si Si8 0.912870 0.724819 0.707627
O O1 0.604069 0.249994 0.819593
O O2 0.666668 0.333334 0.000000
O O3 0.470098 0.232998 0.755065
O O4 0.477846 0.132828 0.900040
O O5 0.507279 0.134331 0.688117
O O6 0.497355 0.367370 0.678616
O O7 0.360446 0.257831 0.683670
O O8 0.435234 0.323162 0.877350
O O9 0.873980 0.873980 0.527771
O O10 0.763252 0.867176 0.397555
O O11 0.748792 0.665992 0.962857
O O12 0.776001 0.552001 0.000000
O O13 0.449060 0.550941 0.500000
O O14 0.500668 0.500668 0.665002
O O15 0.199786 0.199786 0.135342
O O16 0.289305 0.147930 0.196159
O O17 0.221627 0.110814 0.000000
O O18 0.000000 0.779560 0.748995
#
# Coordination Sequence:
#
# PCOD8323146 Si02
#       8
#     4  12  12   6  12  12  12  12
#     4  12  21  36  70  98 133 162 198 262 317 376
#     4  11  22  40  65  98 125 164 215 255 310 384
#     4  11  21  43  65  91 124 162 209 257 311 379
#     4  10  23  42  64  92 124 162 216 274 328 376
#     4   9  19  37  60  91 125 158 197 251 314 363
#     4  11  27  46  61  86 129 172 208 263 326 368
#     4  11  20  34  58  90 127 162 201 254 314 378
#     4  11  22  39  63  90 120 163 212 258 314 380
#
# _framework density 19.738451000000001
#
# number of rings (size 3 to 8) (size 9 to 14) (size 15 to 20)
#    0.000    1.317    5.854    2.707    0.000    2.927 
#    0.000    2.195    0.000    3.512    0.000    0.000 
#    0.000    0.000    0.000    0.000    0.000    0.000 
#
# Total GULP energy -1016634.945631 kJ/mol
# GULP energy per Si atom -12397.987142 kJ/mol
# Density = 1.969353 g / cm^3
# Si number density = 19.738451 Si / 1000 Ang^3
#
#
#
# Elastic Constant Matrix: (Units=GPa)
#
#
# Indices 1 2 3 4 5 6 
#
# 1 78.4874 52.3274 53.1094 0.0000 5.3038 -0.0002
# 2 52.3274 78.4873 53.1094 -0.0002 -5.3038 0.0002
# 3 53.1094 53.1094 110.5625 0.0000 0.0000 0.0000
# 4 0.0000 -0.0002 0.0000 29.6770 0.0000 -5.3038
# 5 5.3038 -5.3038 0.0000 0.0000 29.6771 0.0001
# 6 -0.0002 0.0002 0.0000 -5.3038 0.0001 13.0799
#
#
#
# Elastic Compliance Matrix: (Units=1/GPa)
#
#
# Indices 1 2 3 4 5 6 
#
# 1 0.026873 -0.014340 -0.006020 0.000000 -0.007365 0.000001
# 2 -0.014340 0.026873 -0.006020 0.000000 0.007365 -0.000001
# 3 -0.006020 -0.006020 0.014828 0.000000 0.000000 0.000000
# 4 0.000000 0.000000 0.000000 0.036329 0.000000 0.014731
# 5 -0.007365 0.007365 0.000000 0.000000 0.036329 0.000000
# 6 0.000001 -0.000001 0.000000 0.014731 0.000000 0.082426
#
#
# Mechanical properties :
#
#
# Convention : Reuss Voigt Hill
#
# Bulk Modulus (GPa) = 63.23911 64.95886 64.09899
# Shear Modulus (GPa) = 17.75004 21.75288 19.75146
#
# Velocity S-wave (km/s) = 3.00202 3.32332 3.16675
# Velocity P-wave (km/s) = 6.64261 6.90704 6.77612
#
# Compressibility (1/GPa) = 0.01581300
#
# Stress axis : x y z
#
# Youngs Moduli (GPa) = 37.21246 37.21238 67.43873
#
# Poissons Ratio (x) = 0.53363 0.40599
# Poissons Ratio (y) = 0.53363 0.40599
# Poissons Ratio (z) = 0.22402 0.22402
#
# Static dielectric constant tensor:
#      x y z
#    x 3.575010 0.000000 0.000000 
#    y 0.000000 3.575010 0.000000 
#    z 0.000000 0.000000 4.042610 
# 
# 
# High freq. dielectric constant tensor:
#      x y z
#    x 1.767360 0.000000 0.000000 
#    y 0.000000 1.767360 0.000000 
#    z 0.000000 0.000000 1.768180 
# 
# From -- ./inp_files/2562.got.cif
#   From: 2010.03.12/outbox.cif.g09.slc.cpg/sg162_2_cif.got.tgz:2562.got - 2010.04.02 06:27:41.
