data_PCOD8323759
_publ_section_title
;
Structure prediction by ZEFSAII (Michael W. Deem and Ramdas Pophale) SiO2 
 PCOD8323759
Probable space group: P -3 M 1
;
_chemical_formula_sum "Si O2"
_cell_formula_units_Z 66
_cell_length_a 12.400644
_cell_length_b 12.400644
_cell_length_c 28.359354
_cell_angle_alpha 90.000000
_cell_angle_beta 90.000000
_cell_angle_gamma 120.000000
_cell_volume 3776.725714
_symmetry_space_group_name_H-M "P -3 M 1"
_symmetry_group_IT_number 164
_symmetry_cell_setting 'hexagonal'
loop_
_space_group_symop_operation_xyz
x,y,z
-y,x-y,z
-x+y,-x,z
x-y,-y,-z
-x,-x+y,-z
y,x,-z
-x,-y,-z
y,-x+y,-z
x-y,x,-z
-x+y,y,z
x,x-y,z
-y,-x,z
loop_
_atom_site_type_symbol
_atom_site_label
_atom_site_fract_x
_atom_site_fract_y
_atom_site_fract_z
Si Si1 0.001359 0.748369 0.363606
Si Si2 0.668204 0.081609 0.091073
Si Si3 0.252509 0.999813 0.182181
Si Si4 0.000000 0.746537 0.000000
Si Si5 0.586505 0.918414 0.273488
Si Si6 0.080696 0.413362 0.455044
O O1 0.108038 0.891963 0.361852
O O2 0.005783 0.676030 0.317652
O O3 0.013839 0.679927 0.409108
O O4 0.870794 0.741588 0.365540
O O5 0.536525 0.073050 0.092210
O O6 0.774500 0.225501 0.090820
O O7 0.679623 0.010863 0.136137
O O8 0.676033 0.011207 0.045181
O O9 0.240412 0.120206 0.190686
O O10 0.322447 0.983243 0.226321
O O11 0.115122 0.884879 0.175734
O O12 0.881867 0.763734 0.993690
O O13 0.462693 0.925386 0.274439
O O14 0.549832 0.774916 0.276147
O O15 0.217919 0.435837 0.461382
O O16 0.091490 0.545745 0.449448
O O17 0.000000 0.338792 0.500000
#
# Coordination Sequence:
#
# PCOD8323759 Si02
#       6
#    12  12  12   6  12  12
#     4  10  20  34  53  76 102 132 167 209 255 301
#     4  10  20  34  52  74 102 136 172 209 250 298
#     4  10  20  34  54  78 104 134 168 209 254 300
#     4  10  20  34  54  78 104 134 168 210 256 302
#     4  10  20  34  53  76 103 135 170 209 252 300
#     4  10  20  34  53  76 103 135 170 208 250 298
#
# _framework density 17.475455
#
# number of rings (size 3 to 8) (size 9 to 14) (size 15 to 20)
#    0.000    2.000    0.000    4.000    0.000    0.000 
#    0.000    5.455    0.000   16.727    0.000    0.000 
#    0.000    0.000    0.000    0.000    0.000    0.000 
#
# Total GULP energy -818680.550089 kJ/mol
# GULP energy per Si atom -12404.250759 kJ/mol
# Density = 1.743568 g / cm^3
# Si number density = 17.475455 Si / 1000 Ang^3
#
#
#
# Elastic Constant Matrix: (Units=GPa)
#
#
# Indices 1 2 3 4 5 6 
#
# 1 214.6588 164.5635 162.1844 2.8375 0.0000 0.0000
# 2 164.5635 214.6588 162.1844 -2.8375 0.0000 0.0000
# 3 162.1844 162.1844 222.3147 0.0000 0.0000 0.0000
# 4 2.8375 -2.8375 0.0000 22.5915 0.0000 0.0000
# 5 0.0000 0.0000 0.0000 0.0000 22.5915 2.8375
# 6 0.0000 0.0000 0.0000 0.0000 2.8375 25.0477
#
#
#
# Elastic Compliance Matrix: (Units=1/GPa)
#
#
# Indices 1 2 3 4 5 6 
#
# 1 0.013632 -0.006618 -0.005116 -0.002543 0.000000 0.000000
# 2 -0.006618 0.013632 -0.005116 0.002543 0.000000 0.000000
# 3 -0.005116 -0.005116 0.011963 0.000000 0.000000 0.000000
# 4 -0.002543 0.002543 0.000000 0.044903 0.000000 0.000000
# 5 0.000000 0.000000 0.000000 0.000000 0.044903 -0.005087
# 6 0.000000 0.000000 0.000000 0.000000 -0.005087 0.040500
#
#
# Mechanical properties :
#
#
# Convention : Reuss Voigt Hill
#
# Bulk Modulus (GPa) = 181.01987 181.05521 181.03754
# Shear Modulus (GPa) = 24.38108 24.89280 24.63694
#
# Velocity S-wave (km/s) = 3.73924 3.77827 3.75881
# Velocity P-wave (km/s) = 11.06583 11.08441 11.07513
#
# Compressibility (1/GPa) = 0.00552426
#
# Stress axis : x y z
#
# Youngs Moduli (GPa) = 73.35863 73.35863 83.58986
#
# Poissons Ratio (x) = 0.48552 0.42768
# Poissons Ratio (y) = 0.48552 0.42768
# Poissons Ratio (z) = 0.37533 0.37533
#
# Static dielectric constant tensor:
#      x y z
#    x 3.223160 0.000000 0.000000 
#    y 0.000000 3.223160 0.000000 
#    z 0.000000 0.000000 3.476000 
# 
# 
# High freq. dielectric constant tensor:
#      x y z
#    x 1.680640 0.000000 0.000000 
#    y 0.000000 1.680640 0.000000 
#    z 0.000000 0.000000 1.697490 
# 
# From -- ./inp_files/5413.got.cif
#   From: 2010.03.12/outbox.cif.g09.slc.cpg/sg164_3_cif.got.tgz:5413.got - 2010.04.02 06:32:59.
