data_PCOD8323753
_publ_section_title
;
Structure prediction by ZEFSAII (Michael W. Deem and Ramdas Pophale) SiO2 
 PCOD8323753
Probable space group: P -3 M 1
;
_chemical_formula_sum "Si O2"
_cell_formula_units_Z 60
_cell_length_a 12.412173
_cell_length_b 12.412173
_cell_length_c 25.600368
_cell_angle_alpha 90.000000
_cell_angle_beta 90.000000
_cell_angle_gamma 120.000000
_cell_volume 3415.643062
_symmetry_space_group_name_H-M "P -3 M 1"
_symmetry_group_IT_number 164
_symmetry_cell_setting 'hexagonal'
loop_
_space_group_symop_operation_xyz
x,y,z
-y,x-y,z
-x+y,-x,z
x-y,-y,-z
-x,-x+y,-z
y,x,-z
-x,-y,-z
y,-x+y,-z
x-y,x,-z
-x+y,y,z
x,x-y,z
-y,-x,z
loop_
_atom_site_type_symbol
_atom_site_label
_atom_site_fract_x
_atom_site_fract_y
_atom_site_fract_z
Si Si1 0.585256 0.916909 0.748839
Si Si2 0.748698 0.001108 0.350274
Si Si3 0.999804 0.749350 0.848858
Si Si4 0.413315 0.332637 0.450705
Si Si5 0.082385 0.416024 0.050692
O O1 0.464420 0.928839 0.744435
O O2 0.545425 0.772713 0.743673
O O3 0.678414 0.996305 0.702832
O O4 0.650843 0.973016 0.803608
O O5 0.892092 0.107909 0.350599
O O6 0.674706 0.014497 0.398480
O O7 0.742000 0.871000 0.354922
O O8 0.110086 0.889915 0.855053
O O9 0.876146 0.752291 0.834301
O O10 0.986270 0.677366 0.902149
O O11 0.335086 0.335086 0.500000
O O12 0.434208 0.217104 0.456871
O O13 0.546347 0.453654 0.447500
O O14 0.218659 0.437318 0.040448
O O15 0.095254 0.547627 0.064388
O O16 0.000000 0.354818 0.000000
#
# Coordination Sequence:
#
# PCOD8323753 Si02
#       5
#    12  12  12  12  12
#     4  10  20  34  53  76 102 132 166 205 248 295
#     4  10  20  34  53  76 102 132 167 208 253 299
#     4  10  20  34  53  76 102 132 166 205 249 297
#     4  10  20  34  53  76 103 135 170 208 250 297
#     4  10  20  34  52  74 101 133 169 208 251 298
#
# _framework density 17.566238999999999
#
# number of rings (size 3 to 8) (size 9 to 14) (size 15 to 20)
#    0.000    2.000    0.000    4.000    0.000    0.000 
#    0.000    4.000    0.000   22.400    0.000    0.000 
#    0.000    0.000    0.000    0.000    0.000    0.000 
#
# Total GULP energy -744265.555773 kJ/mol
# GULP energy per Si atom -12404.425930 kJ/mol
# Density = 1.752626 g / cm^3
# Si number density = 17.566239 Si / 1000 Ang^3
#
#
#
# Elastic Constant Matrix: (Units=GPa)
#
#
# Indices 1 2 3 4 5 6 
#
# 1 56.2242 48.9956 28.4203 -10.7340 0.0000 0.0000
# 2 48.9956 56.2242 28.4203 10.7340 0.0000 0.0000
# 3 28.4203 28.4203 78.3717 0.0000 0.0000 0.0000
# 4 -10.7340 10.7340 0.0000 21.1044 0.0000 0.0000
# 5 0.0000 0.0000 0.0000 0.0000 21.1044 -10.7340
# 6 0.0000 0.0000 0.0000 0.0000 -10.7340 3.6143
#
#
#
# Elastic Compliance Matrix: (Units=1/GPa)
#
#
# Indices 1 2 3 4 5 6 
#
# 1 -0.129574 0.141394 -0.004286 -0.137819 0.000000 0.000000
# 2 0.141394 -0.129574 -0.004286 0.137819 0.000000 0.000000
# 3 -0.004286 -0.004286 0.015868 0.000000 0.000000 0.000000
# 4 -0.137819 0.137819 0.000000 -0.092811 0.000000 0.000000
# 5 0.000000 0.000000 0.000000 0.000000 -0.092811 -0.275638
# 6 0.000000 0.000000 0.000000 0.000000 -0.275638 -0.541936
#
#
# Mechanical properties :
#
#
# Convention : Reuss Voigt Hill
#
# Bulk Modulus (GPa) = 44.71770 44.72141 44.71955
# Shear Modulus (GPa) = -4.06826 14.83019 5.38097
#
# Velocity S-wave (km/s) = -1.52348 2.90874 1.75211
# Velocity P-wave (km/s) = 4.73468 6.06589 5.44115
#
# Compressibility (1/GPa) = 0.02236251
#
# Stress axis : x y z
#
# Youngs Moduli (GPa) = -7.71757 -7.71757 63.01878
#
# Poissons Ratio (x) = 1.09122 0.27010
# Poissons Ratio (y) = 1.09122 0.27010
# Poissons Ratio (z) = -0.03308 -0.03308
#
# Static dielectric constant tensor:
#      x y z
#    x 3.260090 0.000000 0.000000 
#    y 0.000000 3.260090 0.000000 
#    z 0.000000 0.000000 3.423390 
# 
# 
# High freq. dielectric constant tensor:
#      x y z
#    x 1.685920 0.000000 0.000000 
#    y 0.000000 1.685920 0.000000 
#    z 0.000000 0.000000 1.697600 
# 
# From -- ./inp_files/5157.got.cif
#   From: 2010.03.12/outbox.cif.g09.slc.cpg/sg164_3_cif.got.tgz:5157.got - 2010.04.02 06:32:59.
