data_PCOD8323780
_publ_section_title
;
Structure prediction by ZEFSAII (Michael W. Deem and Ramdas Pophale) SiO2 
 PCOD8323780
Probable space group: P -3 M 1
;
_chemical_formula_sum "Si O2"
_cell_formula_units_Z 36
_cell_length_a 19.799993
_cell_length_b 19.799993
_cell_length_c 5.180280
_cell_angle_alpha 90.000000
_cell_angle_beta 90.000000
_cell_angle_gamma 120.000000
_cell_volume 1758.789805
_symmetry_space_group_name_H-M "P -3 M 1"
_symmetry_group_IT_number 164
_symmetry_cell_setting 'hexagonal'
loop_
_space_group_symop_operation_xyz
x,y,z
-y,x-y,z
-x+y,-x,z
x-y,-y,-z
-x,-x+y,-z
y,x,-z
-x,-y,-z
y,-x+y,-z
x-y,x,-z
-x+y,y,z
x,x-y,z
-y,-x,z
loop_
_atom_site_type_symbol
_atom_site_label
_atom_site_fract_x
_atom_site_fract_y
_atom_site_fract_z
Si Si1 0.842573 0.000000 0.500000
Si Si2 0.334602 0.826655 0.447621
Si Si3 0.868003 0.578655 0.052320
Si Si4 0.000000 0.247292 0.000000
O O1 0.852422 0.926211 0.562067
O O2 0.806923 0.018485 0.750338
O O3 0.404211 0.808422 0.441061
O O4 0.255125 0.744876 0.446755
O O5 0.341718 0.878320 0.697450
O O6 0.340139 0.879858 0.203434
O O7 0.781282 0.562564 0.052532
O O8 0.926285 0.670110 0.064316
#
# Coordination Sequence:
#
# PCOD8323780 Si02
#       4
#     6  12  12   6
#     4  12  25  42  66  94 123 152 192 242 292 342
#     4  10  20  36  58  84 115 151 195 248 300 345
#     4  10  21  37  57  83 115 151 197 242 284 349
#     4  12  24  42  64  88 120 164 196 230 288 352
#
# _framework density 20.468617999999999
#
# number of rings (size 3 to 8) (size 9 to 14) (size 15 to 20)
#    0.000    1.333    0.000    6.500    0.000    2.667 
#    0.000   10.000    0.000    0.000    0.000    0.000 
#    0.000    0.000    0.000    0.000    0.000    0.000 
#
# Total GULP energy -446508.590448 kJ/mol
# GULP energy per Si atom -12403.016401 kJ/mol
# Density = 2.042203 g / cm^3
# Si number density = 20.468618 Si / 1000 Ang^3
#
#
#
# Elastic Constant Matrix: (Units=GPa)
#
#
# Indices 1 2 3 4 5 6 
#
# 1 54.8889 35.2383 32.0933 -10.4926 0.0000 0.0000
# 2 35.2383 54.8889 32.0933 10.4926 0.0000 0.0000
# 3 32.0933 32.0933 158.3813 0.0000 0.0000 0.0000
# 4 -10.4926 10.4926 0.0000 20.5756 0.0000 0.0000
# 5 0.0000 0.0000 0.0000 0.0000 20.5756 -10.4926
# 6 0.0000 0.0000 0.0000 0.0000 -10.4926 9.8253
#
#
#
# Elastic Compliance Matrix: (Units=1/GPa)
#
#
# Indices 1 2 3 4 5 6 
#
# 1 0.062355 -0.049388 -0.002627 0.056983 0.000000 0.000000
# 2 -0.049388 0.062355 -0.002627 -0.056983 0.000000 0.000000
# 3 -0.002627 -0.002627 0.007379 0.000000 0.000000 0.000000
# 4 0.056983 -0.056983 0.000000 0.106719 0.000000 0.000000
# 5 0.000000 0.000000 0.000000 0.000000 0.106719 0.113967
# 6 0.000000 0.000000 0.000000 0.000000 0.113967 0.223485
#
#
# Mechanical properties :
#
#
# Convention : Reuss Voigt Hill
#
# Bulk Modulus (GPa) = 43.85554 51.88988 47.87271
# Shear Modulus (GPa) = 7.28972 21.44424 14.36698
#
# Velocity S-wave (km/s) = 1.88922 3.24028 2.65222
# Velocity P-wave (km/s) = 5.12163 6.27735 5.72871
#
# Compressibility (1/GPa) = 0.02280214
#
# Stress axis : x y z
#
# Youngs Moduli (GPa) = 16.03731 16.03731 135.52505
#
# Poissons Ratio (x) = 0.79205 0.35609
# Poissons Ratio (y) = 0.79205 0.35609
# Poissons Ratio (z) = 0.04214 0.04214
#
# Static dielectric constant tensor:
#      x y z
#    x 3.579680 0.000000 0.000000 
#    y 0.000000 3.579680 0.000000 
#    z 0.000000 0.000000 4.407150 
# 
# 
# High freq. dielectric constant tensor:
#      x y z
#    x 1.794880 0.000000 0.000000 
#    y 0.000000 1.794880 0.000000 
#    z 0.000000 0.000000 1.825610 
# 
# From -- ./inp_files/297.got.cif
#   From: 2010.03.12/outbox.cif.g09.slc.cpg/sg164_1_cif.got.tgz:297.got - 2010.04.02 06:32:59.
