data_PCOD8323773
_publ_section_title
;
Structure prediction by ZEFSAII (Michael W. Deem and Ramdas Pophale) SiO2 
 PCOD8323773
Probable space group: P -3 M 1
;
_chemical_formula_sum "Si O2"
_cell_formula_units_Z 66
_cell_length_a 22.257722
_cell_length_b 22.257722
_cell_length_c 7.278709
_cell_angle_alpha 90.000000
_cell_angle_beta 90.000000
_cell_angle_gamma 120.000000
_cell_volume 3122.816145
_symmetry_space_group_name_H-M "P -3 M 1"
_symmetry_group_IT_number 164
_symmetry_cell_setting 'hexagonal'
loop_
_space_group_symop_operation_xyz
x,y,z
-y,x-y,z
-x+y,-x,z
x-y,-y,-z
-x,-x+y,-z
y,x,-z
-x,-y,-z
y,-x+y,-z
x-y,x,-z
-x+y,y,z
x,x-y,z
-y,-x,z
loop_
_atom_site_type_symbol
_atom_site_label
_atom_site_fract_x
_atom_site_fract_y
_atom_site_fract_z
Si Si1 0.334154 0.533496 0.411275
Si Si2 0.184997 0.950554 0.172246
Si Si3 0.082462 0.471773 0.688274
Si Si4 0.168904 0.475248 0.040170
Si Si5 0.869828 0.000000 0.500000
Si Si6 0.966465 0.327643 0.804328
O O1 0.257978 0.515955 0.477227
O O2 0.390655 0.609346 0.485816
O O3 0.351960 0.478011 0.504891
O O4 0.339738 0.537792 0.187934
O O5 0.130701 0.869300 0.118703
O O6 0.258598 0.966441 0.256403
O O7 0.152636 0.970285 0.335377
O O8 0.197352 0.000000 0.000000
O O9 0.057540 0.528770 0.693048
O O10 0.013883 0.395246 0.677206
O O11 0.132692 0.486031 0.863517
O O12 0.229804 0.459607 0.977016
O O13 0.114209 0.416196 0.176038
O O14 0.881271 0.940636 0.587314
O O15 0.000000 0.352618 0.000000
#
# Coordination Sequence:
#
# PCOD8323773 Si02
#       6
#    12  12  12  12   6  12
#     4  10  21  36  55  79 107 141 183 231 281 334
#     4  10  20  36  57  82 113 149 187 227 274 326
#     4  10  21  37  57  81 110 145 184 227 278 333
#     4  10  20  35  55  79 108 142 180 224 276 331
#     4  10  21  36  56  82 111 144 182 224 268 318
#     4   9  20  36  55  80 111 145 182 228 276 325
#
# _framework density 21.134768999999999
#
# number of rings (size 3 to 8) (size 9 to 14) (size 15 to 20)
#    0.000    2.182    0.000    2.455    0.000    6.182 
#    0.000    6.364    0.000    8.727    0.000    0.000 
#    0.000    0.000    0.000    0.000    0.000    0.000 
#
# Total GULP energy -817632.922186 kJ/mol
# GULP energy per Si atom -12388.377609 kJ/mol
# Density = 2.108667 g / cm^3
# Si number density = 21.134769 Si / 1000 Ang^3
#
#
#
# Elastic Constant Matrix: (Units=GPa)
#
#
# Indices 1 2 3 4 5 6 
#
# 1 95.9214 54.6286 12.1320 1.3885 0.0000 0.0000
# 2 54.6286 95.9214 12.1320 -1.3885 0.0000 0.0000
# 3 12.1320 12.1320 57.2767 0.0000 0.0000 0.0000
# 4 1.3885 -1.3885 0.0000 15.5621 0.0000 0.0000
# 5 0.0000 0.0000 0.0000 0.0000 15.5621 1.3885
# 6 0.0000 0.0000 0.0000 0.0000 1.3885 20.6464
#
#
#
# Elastic Compliance Matrix: (Units=1/GPa)
#
#
# Indices 1 2 3 4 5 6 
#
# 1 0.015620 -0.008743 -0.001457 -0.002174 0.000000 0.000000
# 2 -0.008743 0.015620 -0.001457 0.002174 0.000000 0.000000
# 3 -0.001457 -0.001457 0.018076 0.000000 0.000000 0.000000
# 4 -0.002174 0.002174 0.000000 0.064647 0.000000 0.000000
# 5 0.000000 0.000000 0.000000 0.000000 0.064647 -0.004347
# 6 0.000000 0.000000 0.000000 0.000000 -0.004347 0.048727
#
#
# Mechanical properties :
#
#
# Convention : Reuss Voigt Hill
#
# Bulk Modulus (GPa) = 38.45605 45.21161 41.83383
# Shear Modulus (GPa) = 19.28136 21.70258 20.49197
#
# Velocity S-wave (km/s) = 3.02372 3.20795 3.11720
# Velocity P-wave (km/s) = 5.51594 5.92957 5.72649
#
# Compressibility (1/GPa) = 0.02600371
#
# Stress axis : x y z
#
# Youngs Moduli (GPa) = 64.01934 64.01934 55.32145
#
# Poissons Ratio (x) = 0.55973 0.08058
# Poissons Ratio (y) = 0.55973 0.08058
# Poissons Ratio (z) = 0.09325 0.09325
#
# Static dielectric constant tensor:
#      x y z
#    x 4.268710 0.000000 0.000000 
#    y 0.000000 4.268710 0.000000 
#    z 0.000000 0.000000 3.627950 
# 
# 
# High freq. dielectric constant tensor:
#      x y z
#    x 1.832330 0.000000 0.000000 
#    y 0.000000 1.832330 0.000000 
#    z 0.000000 0.000000 1.826910 
# 
# From -- ./inp_files/1751.got.cif
#   From: 2010.03.12/outbox.cif.g09.slc.cpg/sg164_1_cif.got.tgz:1751.got - 2010.04.02 06:32:59.
