data_PCOD8323840
_publ_section_title
;
Structure prediction by ZEFSAII (Michael W. Deem and Ramdas Pophale) SiO2 
 PCOD8323840
Probable space group: P -3 M 1
;
_chemical_formula_sum "Si O2"
_cell_formula_units_Z 60
_cell_length_a 21.107952
_cell_length_b 21.107952
_cell_length_c 9.620343
_cell_angle_alpha 90.000000
_cell_angle_beta 90.000000
_cell_angle_gamma 120.000000
_cell_volume 3712.046296
_symmetry_space_group_name_H-M "P -3 M 1"
_symmetry_group_IT_number 164
_symmetry_cell_setting 'hexagonal'
loop_
_space_group_symop_operation_xyz
x,y,z
-y,x-y,z
-x+y,-x,z
x-y,-y,-z
-x,-x+y,-z
y,x,-z
-x,-y,-z
y,-x+y,-z
x-y,x,-z
-x+y,y,z
x,x-y,z
-y,-x,z
loop_
_atom_site_type_symbol
_atom_site_label
_atom_site_fract_x
_atom_site_fract_y
_atom_site_fract_z
Si Si1 0.303504 0.081367 0.658733
Si Si2 0.849573 0.555591 0.162525
Si Si3 0.849573 0.293983 0.837473
Si Si4 0.083135 0.541568 0.835450
Si Si5 0.918633 0.696498 0.341267
Si Si6 0.916866 0.458433 0.835451
O O1 0.273621 0.136811 0.690476
O O2 0.370489 0.097670 0.757364
O O3 0.330986 0.089538 0.500000
O O4 0.237423 0.000001 0.689064
O O5 0.764116 0.528231 0.194789
O O6 0.870540 0.496024 0.215542
O O7 0.902326 0.629513 0.242632
O O8 0.866212 0.571803 0.999998
O O9 0.764118 0.235883 0.805204
O O10 0.870539 0.374516 0.784459
O O11 1.000000 0.500000 0.774344
O O12 0.078035 0.539018 1.000000
O O13 0.863193 0.726385 0.309531
#
# Coordination Sequence:
#
# PCOD8323840 Si02
#       6
#    12  12  12   6  12   6
#     4   9  17  29  45  64  86 111 138 171 211 252
#     4   9  17  29  44  63  85 111 144 177 211 251
#     4   9  17  29  44  63  85 111 144 177 211 251
#     4   9  16  26  41  61  85 111 137 171 215 253
#     4   9  17  29  45  64  86 111 138 171 211 252
#     4   9  16  26  41  61  85 111 137 171 215 253
#
# _framework density 16.163592000000001
#
# number of rings (size 3 to 8) (size 9 to 14) (size 15 to 20)
#    0.000    3.000    0.000    1.200    0.000    2.400 
#    1.200    1.000    0.000    4.000    0.000    2.800 
#    0.000    0.000    0.000   10.000    0.000   10.400 
#
# Total GULP energy -743721.800888 kJ/mol
# GULP energy per Si atom -12395.363348 kJ/mol
# Density = 1.612680 g / cm^3
# Si number density = 16.163592 Si / 1000 Ang^3
#
#
#
# Elastic Constant Matrix: (Units=GPa)
#
#
# Indices 1 2 3 4 5 6 
#
# 1 134.4273 90.4102 35.0364 0.0004 0.0000 0.0000
# 2 90.4102 134.4273 35.0364 -0.0004 0.0000 0.0000
# 3 35.0364 35.0364 33.6720 0.0000 0.0000 0.0000
# 4 0.0004 -0.0004 0.0000 18.5911 0.0000 0.0000
# 5 0.0000 0.0000 0.0000 0.0000 18.5911 0.0004
# 6 0.0000 0.0000 0.0000 0.0000 0.0004 22.0085
#
#
#
# Elastic Compliance Matrix: (Units=1/GPa)
#
#
# Indices 1 2 3 4 5 6 
#
# 1 0.014650 -0.008068 -0.006849 -0.000001 0.000000 0.000000
# 2 -0.008068 0.014650 -0.006849 0.000001 0.000000 0.000000
# 3 -0.006849 -0.006849 0.043951 0.000000 0.000000 0.000000
# 4 -0.000001 0.000001 0.000000 0.053789 0.000000 0.000000
# 5 0.000000 0.000000 0.000000 0.000000 0.053789 -0.000001
# 6 0.000000 0.000000 0.000000 0.000000 -0.000001 0.045437
#
#
# Mechanical properties :
#
#
# Convention : Reuss Voigt Hill
#
# Bulk Modulus (GPa) = 33.64753 69.27693 51.46223
# Shear Modulus (GPa) = 17.87594 21.30771 19.59183
#
# Velocity S-wave (km/s) = 3.32917 3.63471 3.48529
# Velocity P-wave (km/s) = 5.96992 7.78253 6.93569
#
# Compressibility (1/GPa) = 0.02971987
#
# Stress axis : x y z
#
# Youngs Moduli (GPa) = 68.25792 68.25792 22.75260
#
# Poissons Ratio (x) = 0.55071 0.15583
# Poissons Ratio (y) = 0.55071 0.15583
# Poissons Ratio (z) = 0.46749 0.46749
#
# Static dielectric constant tensor:
#      x y z
#    x 3.196600 0.000000 0.000000 
#    y 0.000000 3.196600 0.000000 
#    z 0.000000 0.000000 2.932880 
# 
# 
# High freq. dielectric constant tensor:
#      x y z
#    x 1.618320 0.000000 0.000000 
#    y 0.000000 1.618320 0.000000 
#    z 0.000000 0.000000 1.603520 
# 
# From -- ./inp_files/1648.got.cif
#   From: 2010.03.12/outbox.cif.g09.slc.cpg/sg164_1_cif.got.tgz:1648.got - 2010.04.02 06:32:59.
