data_PCOD8323653
_publ_section_title
;
Structure prediction by ZEFSAII (Michael W. Deem and Ramdas Pophale) SiO2 
 PCOD8323653
Probable space group: P -3 M 1
;
_chemical_formula_sum "Si O2"
_cell_formula_units_Z 54
_cell_length_a 12.731541
_cell_length_b 12.731541
_cell_length_c 23.139898
_cell_angle_alpha 90.000000
_cell_angle_beta 90.000000
_cell_angle_gamma 120.000000
_cell_volume 3248.284187
_symmetry_space_group_name_H-M "P -3 M 1"
_symmetry_group_IT_number 164
_symmetry_cell_setting 'hexagonal'
loop_
_space_group_symop_operation_xyz
x,y,z
-y,x-y,z
-x+y,-x,z
x-y,-y,-z
-x,-x+y,-z
y,x,-z
-x,-y,-z
y,-x+y,-z
x-y,x,-z
-x+y,y,z
x,x-y,z
-y,-x,z
loop_
_atom_site_type_symbol
_atom_site_label
_atom_site_fract_x
_atom_site_fract_y
_atom_site_fract_z
Si Si1 0.240972 0.000092 0.934338
Si Si2 0.241629 0.241629 0.500000
Si Si3 0.998953 0.752739 0.375155
Si Si4 0.333552 0.422006 0.165954
Si Si5 0.913047 0.578881 0.271736
O O1 0.199173 0.099587 0.926945
O O2 0.354132 0.029374 0.893837
O O3 0.128889 0.871112 0.916362
O O4 0.282822 0.000000 0.000000
O O5 0.221850 0.110925 0.510900
O O6 0.309866 0.298325 0.438950
O O7 0.894188 0.788375 0.369258
O O8 0.982009 0.652657 0.328817
O O9 0.127854 0.872147 0.364302
O O10 0.212228 0.424455 0.180061
O O11 0.441601 0.558400 0.159992
O O12 0.354536 0.350650 0.217087
O O13 0.787120 0.574239 0.262240
O O14 0.886884 0.443442 0.278886
#
# Coordination Sequence:
#
# PCOD8323653 Si02
#       5
#    12   6  12  12  12
#     4   9  17  30  49  72  96 121 149 182 220 261
#     4   8  13  22  39  64  92 118 142 172 214 264
#     4   9  16  27  45  69  94 117 143 178 222 268
#     4  10  20  33  49  68  91 119 150 185 224 266
#     4  10  20  33  48  65  87 117 152 188 224 263
#
# _framework density 16.62416
#
# number of rings (size 3 to 8) (size 9 to 14) (size 15 to 20)
#    0.000    2.667    0.000    2.333    0.000    3.111 
#    0.000    0.556    0.000    8.000    0.000    0.000 
#    0.000    0.000    0.000    0.000    0.000    0.000 
#
# Total GULP energy -669306.951807 kJ/mol
# GULP energy per Si atom -12394.573182 kJ/mol
# Density = 1.658632 g / cm^3
# Si number density = 16.624160 Si / 1000 Ang^3
#
#
#
# Elastic Constant Matrix: (Units=GPa)
#
#
# Indices 1 2 3 4 5 6 
#
# 1 87.1045 54.7309 63.0653 -0.7350 0.0000 0.0000
# 2 54.7309 87.1045 63.0653 0.7350 0.0000 0.0000
# 3 63.0653 63.0653 134.4114 0.0000 0.0000 0.0000
# 4 -0.7350 0.7350 0.0000 23.9535 0.0000 0.0000
# 5 0.0000 0.0000 0.0000 0.0000 23.9535 -0.7350
# 6 0.0000 0.0000 0.0000 0.0000 -0.7350 16.1868
#
#
#
# Elastic Compliance Matrix: (Units=1/GPa)
#
#
# Indices 1 2 3 4 5 6 
#
# 1 0.021515 -0.009417 -0.005677 0.000949 0.000000 0.000000
# 2 -0.009417 0.021515 -0.005677 -0.000949 0.000000 0.000000
# 3 -0.005677 -0.005677 0.012767 0.000000 0.000000 0.000000
# 4 0.000949 -0.000949 0.000000 0.041806 0.000000 0.000000
# 5 0.000000 0.000000 0.000000 0.000000 0.041806 0.001898
# 6 0.000000 0.000000 0.000000 0.000000 0.001898 0.061865
#
#
# Mechanical properties :
#
#
# Convention : Reuss Voigt Hill
#
# Bulk Modulus (GPa) = 70.13912 74.48256 72.31084
# Shear Modulus (GPa) = 20.19659 21.33603 20.76631
#
# Velocity S-wave (km/s) = 3.48931 3.58639 3.53819
# Velocity P-wave (km/s) = 7.64960 7.87723 7.76425
#
# Compressibility (1/GPa) = 0.01425738
#
# Stress axis : x y z
#
# Youngs Moduli (GPa) = 46.47829 46.47829 78.32907
#
# Poissons Ratio (x) = 0.43769 0.44464
# Poissons Ratio (y) = 0.43769 0.44464
# Poissons Ratio (z) = 0.26384 0.26384
#
# Static dielectric constant tensor:
#      x y z
#    x 2.968020 0.000000 0.000000 
#    y 0.000000 2.968020 0.000000 
#    z 0.000000 0.000000 3.402550 
# 
# 
# High freq. dielectric constant tensor:
#      x y z
#    x 1.627920 0.000000 0.000000 
#    y 0.000000 1.627920 0.000000 
#    z 0.000000 0.000000 1.660800 
# 
# From -- ./inp_files/4857.got.cif
#   From: 2010.03.12/outbox.cif.g09.slc.cpg/sg164_3_cif.got.tgz:4857.got - 2010.04.02 06:32:59.
