data_PCOD8323236
_publ_section_title
;
Structure prediction by ZEFSAII (Michael W. Deem and Ramdas Pophale) SiO2 
 PCOD8323236
Probable space group: P -3 1 C
;
_chemical_formula_sum "Si O2"
_cell_formula_units_Z 50
_cell_length_a 12.441849
_cell_length_b 12.441849
_cell_length_c 21.791946
_cell_angle_alpha 90.000000
_cell_angle_beta 90.000000
_cell_angle_gamma 120.000000
_cell_volume 2921.436818
_symmetry_space_group_name_H-M "P -3 1 C"
_symmetry_group_IT_number 163
_symmetry_cell_setting 'hexagonal'
loop_
_space_group_symop_operation_xyz
x,y,z
-y,x-y,z
-x+y,-x,z
-y,-x,1/2-z
-x+y,y,1/2-z
x,x-y,1/2-z
-x,-y,-z
y,-x+y,-z
x-y,x,-z
y,x,1/2+z
x-y,-y,1/2+z
-x,-x+y,1/2+z
loop_
_atom_site_type_symbol
_atom_site_label
_atom_site_fract_x
_atom_site_fract_y
_atom_site_fract_z
Si Si1 0.666667 0.333334 0.924981
Si Si2 0.171398 0.266607 0.482881
Si Si3 0.932292 0.534030 0.053347
Si Si4 0.252107 0.747894 0.250000
Si Si5 0.846230 0.588940 0.622778
Si Si6 0.333335 0.666668 0.567705
O O1 0.529347 0.277975 0.900419
O O2 0.666668 0.333334 0.995990
O O3 0.213494 0.165783 0.476629
O O4 0.267473 0.388238 0.519524
O O5 0.145500 0.294536 0.413618
O O6 0.812858 0.417603 0.086557
O O7 0.030459 0.611199 0.107247
O O8 0.000000 0.500000 0.000000
O O9 0.193717 0.596859 0.250000
O O10 0.225547 0.817871 0.305455
#
# Coordination Sequence:
#
# PCOD8323236 Si02
#       6
#     4  12  12   6  12   4
#     4  12  15  28  49  72 111 130 163 220 254 331
#     4  10  20  33  52  79 109 140 172 218 274 324
#     4  11  20  29  49  77 111 141 168 216 278 327
#     4  10  20  32  52  78 100 138 178 220 262 298
#     4  11  19  32  50  78 108 135 180 220 269 319
#     4  12  18  30  46  79 112 145 162 211 284 331
#
# _framework density 17.114867
#
# number of rings (size 3 to 8) (size 9 to 14) (size 15 to 20)
#    0.240    0.960    7.200    1.680    0.000    0.000 
#    0.000    0.000    0.000    5.760    0.000    0.000 
#    0.000    0.000    0.000    0.000    0.000    0.000 
#
# Total GULP energy -619430.453546 kJ/mol
# GULP energy per Si atom -12388.609071 kJ/mol
# Density = 1.707591 g / cm^3
# Si number density = 17.114867 Si / 1000 Ang^3
#
#
#
# Elastic Constant Matrix: (Units=GPa)
#
#
# Indices 1 2 3 4 5 6 
#
# 1 100.6615 39.1906 36.6396 0.0000 -1.1926 -0.0002
# 2 39.1906 100.6613 36.6395 -0.0001 1.1926 0.0000
# 3 36.6396 36.6395 116.8966 -0.0002 -0.0001 0.0000
# 4 0.0000 -0.0001 -0.0002 20.4245 0.0000 1.1926
# 5 -1.1926 1.1926 -0.0001 0.0000 20.4245 0.0000
# 6 -0.0002 0.0000 0.0000 1.1926 0.0000 30.7355
#
#
#
# Elastic Compliance Matrix: (Units=1/GPa)
#
#
# Indices 1 2 3 4 5 6 
#
# 1 0.012430 -0.003875 -0.002682 0.000000 0.000952 0.000000
# 2 -0.003875 0.012430 -0.002682 0.000000 -0.000952 0.000000
# 3 -0.002682 -0.002682 0.010236 0.000000 0.000000 0.000000
# 4 0.000000 0.000000 0.000000 0.049072 0.000000 -0.001904
# 5 0.000952 -0.000952 0.000000 0.000000 0.049072 0.000000
# 6 0.000000 0.000000 0.000000 -0.001904 0.000000 0.032610
#
#
# Mechanical properties :
#
#
# Convention : Reuss Voigt Hill
#
# Bulk Modulus (GPa) = 60.16771 60.35095 60.25933
# Shear Modulus (GPa) = 26.33448 28.03355 27.18401
#
# Velocity S-wave (km/s) = 3.92687 4.05157 3.98971
# Velocity P-wave (km/s) = 7.46940 7.56477 7.51724
#
# Compressibility (1/GPa) = 0.01662021
#
# Stress axis : x y z
#
# Youngs Moduli (GPa) = 80.44948 80.44931 97.69831
#
# Poissons Ratio (x) = 0.31171 0.26199
# Poissons Ratio (y) = 0.31171 0.26199
# Poissons Ratio (z) = 0.21573 0.21573
#
# Static dielectric constant tensor:
#      x y z
#    x 3.255570 0.000000 0.000000 
#    y 0.000000 3.255570 0.000010 
#    z 0.000000 0.000010 3.205490 
# 
# 
# High freq. dielectric constant tensor:
#      x y z
#    x 1.661510 0.000000 0.000000 
#    y 0.000000 1.661510 0.000000 
#    z 0.000000 0.000000 1.616490 
# 
# From -- ./inp_files/3524.got.cif
#   From: 2010.03.12/outbox.cif.g09.slc.cpg/sg163_2_cif.got.tgz:3524.got - 2010.04.02 06:30:25.
