data_PCOD8323238
_publ_section_title
;
Structure prediction by ZEFSAII (Michael W. Deem and Ramdas Pophale) SiO2 
 PCOD8323238
Probable space group: P -3 1 C
;
_chemical_formula_sum "Si O2"
_cell_formula_units_Z 60
_cell_length_a 12.681609
_cell_length_b 12.681609
_cell_length_c 26.051648
_cell_angle_alpha 90.000000
_cell_angle_beta 90.000000
_cell_angle_gamma 120.000000
_cell_volume 3628.394926
_symmetry_space_group_name_H-M "P -3 1 C"
_symmetry_group_IT_number 163
_symmetry_cell_setting 'hexagonal'
loop_
_space_group_symop_operation_xyz
x,y,z
-y,x-y,z
-x+y,-x,z
-y,-x,1/2-z
-x+y,y,1/2-z
x,x-y,1/2-z
-x,-y,-z
y,-x+y,-z
x-y,x,-z
y,x,1/2+z
x-y,-y,1/2+z
-x,-x+y,1/2+z
loop_
_atom_site_type_symbol
_atom_site_label
_atom_site_fract_x
_atom_site_fract_y
_atom_site_fract_z
Si Si1 0.331682 0.428544 0.250000
Si Si2 0.088059 0.418943 0.138750
Si Si3 0.913590 0.579135 0.452666
Si Si4 0.420864 0.334455 0.047334
Si Si5 0.911941 0.330884 0.861251
O O1 0.469527 0.530474 0.250000
O O2 0.242935 0.485870 0.250000
O O3 0.310807 0.356792 0.304103
O O4 0.310807 0.356792 0.195897
O O5 0.114929 0.557464 0.138950
O O6 0.211207 0.422415 0.120973
O O7 0.980833 0.336480 0.099876
O O8 0.793762 0.587523 0.457877
O O9 0.876952 0.438476 0.452874
O O10 0.000000 0.649831 0.500000
O O11 0.355646 0.336480 0.099876
#
# Coordination Sequence:
#
# PCOD8323238 Si02
#       5
#    12  12  12  12  12
#     4   8  13  22  39  66  96 122 148 180 220 260
#     4   9  16  27  46  71  97 122 149 184 224 265
#     4  10  20  33  49  68  91 118 148 184 225 271
#     4  10  20  33  49  68  91 118 148 184 225 271
#     4   9  16  27  46  71  97 122 149 184 224 265
#
# _framework density 16.536238999999998
#
# number of rings (size 3 to 8) (size 9 to 14) (size 15 to 20)
#    0.000    2.800    0.000    2.200    0.000    3.200 
#    0.000    5.000    0.000    7.200    0.000    2.800 
#    0.000    0.000    0.000    0.000    0.000    0.000 
#
# Total GULP energy -743349.901775 kJ/mol
# GULP energy per Si atom -12389.165030 kJ/mol
# Density = 1.649860 g / cm^3
# Si number density = 16.536239 Si / 1000 Ang^3
#
#
#
# Elastic Constant Matrix: (Units=GPa)
#
#
# Indices 1 2 3 4 5 6 
#
# 1 83.3263 53.6718 59.7833 0.0000 0.0000 0.0000
# 2 53.6718 83.3263 59.7833 0.0000 0.0000 0.0000
# 3 59.7833 59.7833 153.5124 0.0000 0.0000 0.0000
# 4 0.0000 0.0000 0.0000 19.5645 0.0000 0.0000
# 5 0.0000 0.0000 0.0000 0.0000 19.5645 0.0000
# 6 0.0000 0.0000 0.0000 0.0000 0.0000 14.8273
#
#
#
# Elastic Compliance Matrix: (Units=1/GPa)
#
#
# Indices 1 2 3 4 5 6 
#
# 1 0.022390 -0.011332 -0.004306 0.000000 0.000000 0.000000
# 2 -0.011332 0.022390 -0.004306 0.000000 0.000000 0.000000
# 3 -0.004306 -0.004306 0.009868 0.000000 0.000000 0.000000
# 4 0.000000 0.000000 0.000000 0.051113 0.000000 0.000000
# 5 0.000000 0.000000 0.000000 0.000000 0.051113 0.000000
# 6 0.000000 0.000000 0.000000 0.000000 0.000000 0.067443
#
#
# Mechanical properties :
#
#
# Convention : Reuss Voigt Hill
#
# Bulk Modulus (GPa) = 67.75756 74.07133 70.91444
# Shear Modulus (GPa) = 18.57871 20.58637 19.58254
#
# Velocity S-wave (km/s) = 3.35552 3.53218 3.44498
# Velocity P-wave (km/s) = 7.48845 7.84383 7.66820
#
# Compressibility (1/GPa) = 0.01475850
#
# Stress axis : x y z
#
# Youngs Moduli (GPa) = 44.66343 44.66343 101.33580
#
# Poissons Ratio (x) = 0.50612 0.43638
# Poissons Ratio (y) = 0.50612 0.43638
# Poissons Ratio (z) = 0.19233 0.19233
#
# Static dielectric constant tensor:
#      x y z
#    x 2.786860 0.000000 0.000000 
#    y 0.000000 2.786860 0.000000 
#    z 0.000000 0.000000 3.775920 
# 
# 
# High freq. dielectric constant tensor:
#      x y z
#    x 1.603610 0.000000 0.000000 
#    y 0.000000 1.603610 0.000000 
#    z 0.000000 0.000000 1.668860 
# 
# From -- ./inp_files/4096.got.cif
#   From: 2010.03.12/outbox.cif.g09.slc.cpg/sg163_3_cif.got.tgz:4096.got - 2010.04.02 06:30:25.
