data_PCOD8323665
_publ_section_title
;
Structure prediction by ZEFSAII (Michael W. Deem and Ramdas Pophale) SiO2 
 PCOD8323665
Probable space group: P -3 M 1
;
_chemical_formula_sum "Si O2"
_cell_formula_units_Z 66
_cell_length_a 12.477244
_cell_length_b 12.477244
_cell_length_c 28.799690
_cell_angle_alpha 90.000000
_cell_angle_beta 90.000000
_cell_angle_gamma 120.000000
_cell_volume 3882.896200
_symmetry_space_group_name_H-M "P -3 M 1"
_symmetry_group_IT_number 164
_symmetry_cell_setting 'hexagonal'
loop_
_space_group_symop_operation_xyz
x,y,z
-y,x-y,z
-x+y,-x,z
x-y,-y,-z
-x,-x+y,-z
y,x,-z
-x,-y,-z
y,-x+y,-z
x-y,x,-z
-x+y,y,z
x,x-y,z
-y,-x,z
loop_
_atom_site_type_symbol
_atom_site_label
_atom_site_fract_x
_atom_site_fract_y
_atom_site_fract_z
Si Si1 0.334770 0.917599 0.176636
Si Si2 0.249252 0.248251 0.451048
Si Si3 0.917558 0.583435 0.264373
Si Si4 0.748200 0.000000 0.000000
Si Si5 0.250469 0.998226 0.649375
Si Si6 0.584586 0.918206 0.911868
O O1 0.439370 0.878740 0.175561
O O2 0.203282 0.796719 0.172389
O O3 0.339776 0.986722 0.224029
O O4 0.350362 0.006976 0.134360
O O5 0.318257 0.318257 0.500000
O O6 0.216184 0.108092 0.457474
O O7 0.318403 0.301864 0.401666
O O8 0.123941 0.247881 0.444383
O O9 0.792921 0.585841 0.255208
O O10 0.884285 0.442143 0.264902
O O11 0.980916 0.646173 0.313003
O O12 0.669429 0.992385 0.955132
O O13 0.764310 0.882155 0.005306
O O14 0.106869 0.893132 0.654994
O O15 0.261547 0.130774 0.656606
O O16 0.451479 0.902958 0.919614
O O17 0.566573 0.783287 0.907026
#
# Coordination Sequence:
#
# PCOD8323665 Si02
#       6
#    12  12  12   6  12  12
#     4  10  20  34  52  73  96 121 150 186 230 279
#     4   8  12  18  31  54  84 115 144 175 216 269
#     4  10  20  33  49  67  89 119 155 193 229 268
#     4  10  20  34  52  74 102 136 172 210 252 296
#     4   9  16  26  42  65  92 119 146 181 228 280
#     4  10  20  34  53  76 102 132 166 203 240 279
#
# _framework density 16.997620999999999
#
# number of rings (size 3 to 8) (size 9 to 14) (size 15 to 20)
#    0.000    2.545    0.000    2.909    0.000    2.182 
#    0.000    1.818    0.000   11.818    0.000    0.000 
#    0.000    0.000    0.000    0.000    0.000    0.000 
#
# Total GULP energy -817842.503501 kJ/mol
# GULP energy per Si atom -12391.553083 kJ/mol
# Density = 1.695893 g / cm^3
# Si number density = 16.997621 Si / 1000 Ang^3
#
#
#
# Elastic Constant Matrix: (Units=GPa)
#
#
# Indices 1 2 3 4 5 6 
#
# 1 52.2344 31.5871 43.7918 -5.7175 0.0000 0.0000
# 2 31.5871 52.2344 43.7918 5.7175 0.0000 0.0000
# 3 43.7918 43.7918 153.9992 0.0000 0.0000 0.0000
# 4 -5.7175 5.7175 0.0000 18.9721 0.0000 0.0000
# 5 0.0000 0.0000 0.0000 0.0000 18.9721 -5.7175
# 6 0.0000 0.0000 0.0000 0.0000 -5.7175 10.3237
#
#
#
# Elastic Compliance Matrix: (Units=1/GPa)
#
#
# Indices 1 2 3 4 5 6 
#
# 1 0.037554 -0.020581 -0.004827 0.017520 0.000000 0.000000
# 2 -0.020581 0.037554 -0.004827 -0.017520 0.000000 0.000000
# 3 -0.004827 -0.004827 0.009239 0.000000 0.000000 0.000000
# 4 0.017520 -0.017520 0.000000 0.063269 0.000000 0.000000
# 5 0.000000 0.000000 0.000000 0.000000 0.063269 0.035040
# 6 0.000000 0.000000 0.000000 0.000000 0.035040 0.116271
#
#
# Mechanical properties :
#
#
# Convention : Reuss Voigt Hill
#
# Bulk Modulus (GPa) = 41.87811 55.20107 48.53959
# Shear Modulus (GPa) = 12.63954 18.94006 15.78980
#
# Velocity S-wave (km/s) = 2.72987 3.34170 3.05116
# Velocity P-wave (km/s) = 5.88450 6.88735 6.40558
#
# Compressibility (1/GPa) = 0.02387882
#
# Stress axis : x y z
#
# Youngs Moduli (GPa) = 26.62802 26.62802 108.24186
#
# Poissons Ratio (x) = 0.54803 0.52244
# Poissons Ratio (y) = 0.54803 0.52244
# Poissons Ratio (z) = 0.12852 0.12852
#
# Static dielectric constant tensor:
#      x y z
#    x 2.981990 0.000000 0.000000 
#    y 0.000000 2.981990 0.000000 
#    z 0.000000 0.000000 3.761150 
# 
# 
# High freq. dielectric constant tensor:
#      x y z
#    x 1.638040 0.000000 0.000000 
#    y 0.000000 1.638040 0.000000 
#    z 0.000000 0.000000 1.686890 
# 
# From -- ./inp_files/5528.got.cif
#   From: 2010.03.12/outbox.cif.g09.slc.cpg/sg164_3_cif.got.tgz:5528.got - 2010.04.02 06:32:59.
