data_PCOD8323906
_publ_section_title
;
Structure prediction by ZEFSAII (Michael W. Deem and Ramdas Pophale) SiO2 
 PCOD8323906
Probable space group: P -3 C 1
;
_chemical_formula_sum "Si O2"
_cell_formula_units_Z 54
_cell_length_a 11.813881
_cell_length_b 11.813881
_cell_length_c 21.175279
_cell_angle_alpha 90.000000
_cell_angle_beta 90.000000
_cell_angle_gamma 120.000000
_cell_volume 2559.440022
_symmetry_space_group_name_H-M "P -3 C 1"
_symmetry_group_IT_number 165
_symmetry_cell_setting 'hexagonal'
loop_
_space_group_symop_operation_xyz
x,y,z
-y,x-y,z
-x+y,-x,z
x-y,-y,1/2-z
-x,-x+y,1/2-z
y,x,1/2-z
-x,-y,-z
y,-x+y,-z
x-y,x,-z
-x+y,y,1/2+z
x,x-y,1/2+z
-y,-x,1/2+z
loop_
_atom_site_type_symbol
_atom_site_label
_atom_site_fract_x
_atom_site_fract_y
_atom_site_fract_z
Si Si1 0.776009 0.735949 0.521431
Si Si2 0.824597 0.367481 0.150979
Si Si3 0.540719 0.540719 0.750000
Si Si4 0.405905 0.115904 0.872687
Si Si5 0.625708 0.079283 0.919380
O O1 0.767995 0.843291 0.476751
O O2 0.727594 0.738377 0.592270
O O3 0.683976 0.593177 0.489388
O O4 0.893113 0.402344 0.219778
O O5 0.776898 0.476123 0.144392
O O6 0.926366 0.382552 0.098002
O O7 0.652701 0.587519 0.803331
O O8 0.528685 0.137558 0.916067
O O9 0.412791 0.255437 0.869479
#
# Coordination Sequence:
#
# PCOD8323906 Si02
#       5
#    12  12   6  12  12
#     4  10  22  39  63  88 123 164 219 268 323 389
#     4   9  22  37  59  90 124 164 207 258 313 383
#     4  10  22  36  62  84 128 166 204 256 314 394
#     4  10  22  39  59  93 124 165 208 263 326 379
#     4  10  21  38  64  91 125 165 210 270 322 381
#
# _framework density 21.098364
#
# number of rings (size 3 to 8) (size 9 to 14) (size 15 to 20)
#    0.444    1.778    0.000    1.333   12.444    0.000 
#    0.000    0.000    0.000    0.000    0.000    0.000 
#    0.000    0.000    0.000    0.000    0.000    0.000 
#
# Total GULP energy -669185.688451 kJ/mol
# GULP energy per Si atom -12392.327564 kJ/mol
# Density = 2.105034 g / cm^3
# Si number density = 21.098364 Si / 1000 Ang^3
#
#
#
# Elastic Constant Matrix: (Units=GPa)
#
#
# Indices 1 2 3 4 5 6 
#
# 1 87.4819 12.0763 10.2710 -3.0233 0.0000 0.0000
# 2 12.0763 87.4819 10.2710 3.0233 0.0000 0.0000
# 3 10.2710 10.2710 56.6707 0.0000 0.0000 0.0000
# 4 -3.0233 3.0233 0.0000 24.2967 0.0000 0.0000
# 5 0.0000 0.0000 0.0000 0.0000 24.2967 -3.0233
# 6 0.0000 0.0000 0.0000 0.0000 -3.0233 37.7028
#
#
#
# Elastic Compliance Matrix: (Units=1/GPa)
#
#
# Indices 1 2 3 4 5 6 
#
# 1 0.011915 -0.001480 -0.001891 0.001667 0.000000 0.000000
# 2 -0.001480 0.011915 -0.001891 -0.001667 0.000000 0.000000
# 3 -0.001891 -0.001891 0.018331 0.000000 0.000000 0.000000
# 4 0.001667 -0.001667 0.000000 0.041573 0.000000 0.000000
# 5 0.000000 0.000000 0.000000 0.000000 0.041573 0.003334
# 6 0.000000 0.000000 0.000000 0.000000 0.003334 0.026791
#
#
# Mechanical properties :
#
#
# Convention : Reuss Voigt Hill
#
# Bulk Modulus (GPa) = 31.60977 32.98571 32.29774
# Shear Modulus (GPa) = 28.87372 30.52696 29.70034
#
# Velocity S-wave (km/s) = 3.70338 3.80792 3.75601
# Velocity P-wave (km/s) = 5.77073 5.91624 5.84394
#
# Compressibility (1/GPa) = 0.03163579
#
# Stress axis : x y z
#
# Youngs Moduli (GPa) = 83.92831 83.92831 54.55148
#
# Poissons Ratio (x) = 0.12424 0.10317
# Poissons Ratio (y) = 0.12424 0.10317
# Poissons Ratio (z) = 0.15872 0.15872
#
# Static dielectric constant tensor:
#      x y z
#    x 3.875080 0.000000 0.000000 
#    y 0.000000 3.875080 0.000000 
#    z 0.000000 0.000000 3.455340 
# 
# 
# High freq. dielectric constant tensor:
#      x y z
#    x 1.827600 0.000000 0.000000 
#    y 0.000000 1.827600 0.000000 
#    z 0.000000 0.000000 1.805820 
# 
# From -- ./inp_files/2868.got.cif
#   From: 2010.03.12/outbox.cif.g09.slc.cpg/sg165_2_cif.got.tgz:2868.got - 2010.04.02 06:36:38.
