data_PCOD8323093
_publ_section_title
;
Structure prediction by ZEFSAII (Michael W. Deem and Ramdas Pophale) SiO2 
 PCOD8323093
Probable space group: P -3 1 M 
;
_chemical_formula_sum "Si O2"
_cell_formula_units_Z 84
_cell_length_a 19.189926
_cell_length_b 19.189926
_cell_length_c 13.680781
_cell_angle_alpha 90.000000
_cell_angle_beta 90.000000
_cell_angle_gamma 120.000000
_cell_volume 4363.029230
_symmetry_space_group_name_H-M "P -3 1 M "
_symmetry_group_IT_number 162
_symmetry_cell_setting 'hexagonal'
loop_
_space_group_symop_operation_xyz
x,y,z
-y,x-y,z
-x+y,-x,z
-y,-x,-z
-x+y,y,-z
x,x-y,-z
-x,-y,-z
y,-x+y,-z
x-y,x,-z
y,x,z
x-y,-y,z
-x,-x+y,z
loop_
_atom_site_type_symbol
_atom_site_label
_atom_site_fract_x
_atom_site_fract_y
_atom_site_fract_z
Si Si1 0.830845 0.520461 0.133805
Si Si2 0.240474 0.335416 0.458720
Si Si3 0.455357 0.146414 0.082369
Si Si4 0.090703 0.563887 0.764537
Si Si5 0.520011 0.614675 0.445784
Si Si6 0.091014 0.774226 0.234016
Si Si7 0.725667 0.907777 0.908985
O O1 0.740747 0.507647 0.137782
O O2 0.843762 0.462164 0.207368
O O3 0.895670 0.610740 0.164008
O O4 0.845996 0.503205 0.022588
O O5 0.149744 0.299488 0.500000
O O6 0.273245 0.273245 0.479415
O O7 0.296867 0.422735 0.509222
O O8 0.236092 0.349777 0.343886
O O9 0.468479 0.086293 0.149313
O O10 0.361690 0.108483 0.060560
O O11 0.118606 0.618657 0.667590
O O12 0.000000 0.487254 0.751228
O O13 0.433721 0.566280 0.500000
O O14 0.567328 0.567328 0.461729
O O15 0.143374 0.864682 0.193886
O O16 0.000000 0.753521 0.227332
O O17 0.786826 0.000000 0.889105
O O18 0.758738 0.879369 0.000000
#
# Coordination Sequence:
#
# PCOD8323093 Si02
#       7
#    12  12  12  12  12  12  12
#     4  10  20  36  55  78 115 153 194 232 285 355
#     4  10  22  38  61  89 119 155 199 252 306 365
#     4  10  21  37  52  82 117 154 194 236 290 345
#     4  11  22  34  58  86 112 149 196 246 295 342
#     4   9  19  37  57  83 116 150 192 242 301 355
#     4  10  20  36  58  83 112 151 194 236 294 354
#     4  11  21  35  58  85 119 155 192 238 290 348
#
# _framework density 19.252679000000001
#
# number of rings (size 3 to 8) (size 9 to 14) (size 15 to 20)
#    0.000    1.857    2.857    2.571    4.000    5.143 
#    0.857    0.000    0.000    3.000    0.000    0.000 
#    0.000    0.000    0.000    0.000    0.000    0.000 
#
# Total GULP energy -1041319.826483 kJ/mol
# GULP energy per Si atom -12396.664601 kJ/mol
# Density = 1.920886 g / cm^3
# Si number density = 19.252679 Si / 1000 Ang^3
#
#
#
# Elastic Constant Matrix: (Units=GPa)
#
#
# Indices 1 2 3 4 5 6 
#
# 1 84.9285 35.7980 46.1832 0.0000 0.0308 0.0000
# 2 35.7980 84.9285 46.1832 0.0000 -0.0308 0.0000
# 3 46.1832 46.1832 112.9623 0.0000 0.0000 0.0000
# 4 0.0000 0.0000 0.0000 32.7798 0.0000 -0.0308
# 5 0.0308 -0.0308 0.0000 0.0000 32.7798 0.0000
# 6 0.0000 0.0000 0.0000 -0.0308 0.0000 24.5652
#
#
#
# Elastic Compliance Matrix: (Units=1/GPa)
#
#
# Indices 1 2 3 4 5 6 
#
# 1 0.016204 -0.004150 -0.004928 0.000000 -0.000019 0.000000
# 2 -0.004150 0.016204 -0.004928 0.000000 0.000019 0.000000
# 3 -0.004928 -0.004928 0.012882 0.000000 0.000000 0.000000
# 4 0.000000 0.000000 0.000000 0.030507 0.000000 0.000038
# 5 -0.000019 0.000019 0.000000 0.000000 0.030507 0.000000
# 6 0.000000 0.000000 0.000000 0.000038 0.000000 0.040708
#
#
# Mechanical properties :
#
#
# Convention : Reuss Voigt Hill
#
# Bulk Modulus (GPa) = 57.87962 59.90535 58.89248
# Shear Modulus (GPa) = 27.65766 28.33531 27.99648
#
# Velocity S-wave (km/s) = 3.79431 3.84051 3.81748
# Velocity P-wave (km/s) = 7.02312 7.13084 7.07718
#
# Compressibility (1/GPa) = 0.01727724
#
# Stress axis : x y z
#
# Youngs Moduli (GPa) = 61.71421 61.71421 77.62815
#
# Poissons Ratio (x) = 0.25613 0.38254
# Poissons Ratio (y) = 0.25613 0.38254
# Poissons Ratio (z) = 0.30412 0.30412
#
# Static dielectric constant tensor:
#      x y z
#    x 3.400370 0.000000 0.000000 
#    y 0.000000 3.400370 0.000000 
#    z 0.000000 0.000000 3.697670 
# 
# 
# High freq. dielectric constant tensor:
#      x y z
#    x 1.729090 0.000000 0.000000 
#    y 0.000000 1.729090 0.000000 
#    z 0.000000 0.000000 1.762100 
# 
# From -- ./inp_files/3174.got.cif
#   From: 2010.03.12/outbox.cif.g09.slc.cpg/sg162_2_cif.got.tgz:3174.got - 2010.04.02 06:27:41.
