data_PCOD8323399
_publ_section_title
;
Structure prediction by ZEFSAII (Michael W. Deem and Ramdas Pophale) SiO2 
 PCOD8323399
Probable space group: P -3 M 1
;
_chemical_formula_sum "Si O2"
_cell_formula_units_Z 48
_cell_length_a 19.925910
_cell_length_b 19.925910
_cell_length_c 9.167000
_cell_angle_alpha 90.000000
_cell_angle_beta 90.000000
_cell_angle_gamma 120.000000
_cell_volume 3152.057939
_symmetry_space_group_name_H-M "P -3 M 1"
_symmetry_group_IT_number 164
_symmetry_cell_setting 'hexagonal'
loop_
_space_group_symop_operation_xyz
x,y,z
-y,x-y,z
-x+y,-x,z
x-y,-y,-z
-x,-x+y,-z
y,x,-z
-x,-y,-z
y,-x+y,-z
x-y,x,-z
-x+y,y,z
x,x-y,z
-y,-x,z
loop_
_atom_site_type_symbol
_atom_site_label
_atom_site_fract_x
_atom_site_fract_y
_atom_site_fract_z
Si Si1 0.480058 0.960115 0.271741
Si Si2 0.878265 0.439133 0.441502
Si Si3 0.431564 0.141324 0.348153
Si Si4 0.230239 0.304624 0.412050
Si Si5 0.992662 0.354038 0.834328
O O1 0.444355 0.888709 0.384255
O O2 0.519285 0.038569 0.363666
O O3 0.408532 0.953375 0.175507
O O4 0.830277 0.350175 0.392016
O O5 0.425778 0.212889 0.286183
O O6 0.381882 0.105808 0.493628
O O7 0.403209 0.079912 0.220331
O O8 0.236759 0.236759 0.500000
O O9 0.139605 0.279210 0.391922
O O10 0.273459 0.325977 0.255719
O O11 0.000000 0.333624 0.000000
#
# Coordination Sequence:
#
# PCOD8323399 Si02
#       5
#     6   6  12  12  12
#     4   9  15  26  42  64  86 112 146 178 214 256
#     4   9  14  26  46  60  82 110 146 186 214 240
#     4   9  17  29  44  62  85 113 147 183 215 251
#     4   9  17  30  47  66  88 114 143 179 218 255
#     4  10  18  27  43  66  91 116 142 176 218 262
#
# _framework density 15.228146000000001
#
# number of rings (size 3 to 8) (size 9 to 14) (size 15 to 20)
#    0.000    2.750    2.500    0.375    0.000    1.000 
#    0.750    0.000    0.000    0.250    0.000    0.000 
#    0.000    1.000    0.000    0.000    0.000    0.000 
#
# Total GULP energy -594901.824682 kJ/mol
# GULP energy per Si atom -12393.788014 kJ/mol
# Density = 1.519349 g / cm^3
# Si number density = 15.228146 Si / 1000 Ang^3
#
#
#
# Elastic Constant Matrix: (Units=GPa)
#
#
# Indices 1 2 3 4 5 6 
#
# 1 79.3259 44.6318 35.4910 0.2172 0.0000 0.0000
# 2 44.6318 79.3259 35.4910 -0.2172 0.0000 0.0000
# 3 35.4910 35.4910 103.9508 0.0000 0.0000 0.0000
# 4 0.2172 -0.2172 0.0000 13.6553 0.0000 0.0000
# 5 0.0000 0.0000 0.0000 0.0000 13.6553 0.2172
# 6 0.0000 0.0000 0.0000 0.0000 0.2172 17.3470
#
#
#
# Elastic Compliance Matrix: (Units=1/GPa)
#
#
# Indices 1 2 3 4 5 6 
#
# 1 0.019428 -0.009401 -0.003424 -0.000459 0.000000 0.000000
# 2 -0.009401 0.019428 -0.003424 0.000459 0.000000 0.000000
# 3 -0.003424 -0.003424 0.011958 0.000000 0.000000 0.000000
# 4 -0.000459 0.000459 0.000000 0.073246 0.000000 0.000000
# 5 0.000000 0.000000 0.000000 0.000000 0.073246 -0.000917
# 6 0.000000 0.000000 0.000000 0.000000 -0.000917 0.057658
#
#
# Mechanical properties :
#
#
# Convention : Reuss Voigt Hill
#
# Bulk Modulus (GPa) = 54.58948 54.87005 54.72976
# Shear Modulus (GPa) = 17.03183 18.73076 17.88130
#
# Velocity S-wave (km/s) = 3.34794 3.51095 3.43042
# Velocity P-wave (km/s) = 7.13236 7.24886 7.19084
#
# Compressibility (1/GPa) = 0.01831855
#
# Stress axis : x y z
#
# Youngs Moduli (GPa) = 51.47094 51.47094 83.62750
#
# Poissons Ratio (x) = 0.48386 0.28632
# Poissons Ratio (y) = 0.48386 0.28632
# Poissons Ratio (z) = 0.17622 0.17622
#
# Static dielectric constant tensor:
#      x y z
#    x 2.903270 0.000000 0.000000 
#    y 0.000000 2.903270 0.000000 
#    z 0.000000 0.000000 2.752120 
# 
# 
# High freq. dielectric constant tensor:
#      x y z
#    x 1.565560 0.000000 0.000000 
#    y 0.000000 1.565560 0.000000 
#    z 0.000000 0.000000 1.573530 
# 
# From -- ./inp_files/1315.got.cif
#   From: 2010.03.12/outbox.cif.g09.slc.cpg/sg164_1_cif.got.tgz:1315.got - 2010.04.02 06:32:59.
