data_PCOD8323809
_publ_section_title
;
Structure prediction by ZEFSAII (Michael W. Deem and Ramdas Pophale) SiO2 
 PCOD8323809
Probable space group: P -3 M 1
;
_chemical_formula_sum "Si O2"
_cell_formula_units_Z 34
_cell_length_a 11.113352
_cell_length_b 11.113352
_cell_length_c 15.636006
_cell_angle_alpha 90.000000
_cell_angle_beta 90.000000
_cell_angle_gamma 120.000000
_cell_volume 1672.424806
_symmetry_space_group_name_H-M "P -3 M 1"
_symmetry_group_IT_number 164
_symmetry_cell_setting 'hexagonal'
loop_
_space_group_symop_operation_xyz
x,y,z
-y,x-y,z
-x+y,-x,z
x-y,-y,-z
-x,-x+y,-z
y,x,-z
-x,-y,-z
y,-x+y,-z
x-y,x,-z
-x+y,y,z
x,x-y,z
-y,-x,z
loop_
_atom_site_type_symbol
_atom_site_label
_atom_site_fract_x
_atom_site_fract_y
_atom_site_fract_z
Si Si1 0.713867 0.713867 0.000000
Si Si2 0.042278 0.521139 0.716778
Si Si3 0.274771 0.274926 0.597442
Si Si4 0.476628 0.523373 0.108281
Si Si5 0.666668 0.333334 0.190388
Si Si6 0.666666 0.333333 0.986827
O O1 0.640536 0.611447 0.082090
O O2 0.865508 0.731016 0.986276
O O3 0.178236 0.589118 0.774594
O O4 0.036473 0.633668 0.657738
O O5 0.921726 0.460863 0.789505
O O6 0.321883 0.321883 0.500000
O O7 0.296498 0.148249 0.624225
O O8 0.113284 0.226567 0.608216
O O9 0.409757 0.590244 0.049126
O O10 0.666667 0.333334 0.088908
#
# Coordination Sequence:
#
# PCOD8323809 Si02
#       6
#     6   6  12   6   2   2
#     4  11  23  42  64  92 121 165 214 280 328 383
#     4  12  25  41  66 100 132 172 219 270 324 393
#     4  10  22  43  69  99 134 172 214 265 326 392
#     4  11  26  41  68  91 129 166 227 261 337 384
#     4  12  24  42  72  91 128 178 225 273 321 396
#     4  12  24  51  66  91 128 178 228 276 330 393
#
# _framework density 20.329764000000001
#
# number of rings (size 3 to 8) (size 9 to 14) (size 15 to 20)
#    0.000    1.059    3.529    3.176    4.941    1.412 
#    2.118    0.000    0.000    4.235    0.000    0.000 
#    0.000    0.000    0.000    0.000    0.000    0.000 
#
# Total GULP energy -421435.262941 kJ/mol
# GULP energy per Si atom -12395.154792 kJ/mol
# Density = 2.028349 g / cm^3
# Si number density = 20.329764 Si / 1000 Ang^3
#
#
#
# Elastic Constant Matrix: (Units=GPa)
#
#
# Indices 1 2 3 4 5 6 
#
# 1 95.2407 54.3184 56.2853 -0.2223 0.0000 0.0000
# 2 54.3184 95.2403 56.2853 0.2223 0.0000 0.0000
# 3 56.2853 56.2853 149.9523 0.0000 0.0000 0.0000
# 4 -0.2223 0.2223 0.0000 28.0462 0.0000 0.0000
# 5 0.0000 0.0000 0.0000 0.0000 28.0462 -0.2223
# 6 0.0000 0.0000 0.0000 0.0000 -0.2223 20.4607
#
#
#
# Elastic Compliance Matrix: (Units=1/GPa)
#
#
# Indices 1 2 3 4 5 6 
#
# 1 0.016879 -0.007560 -0.003498 0.000194 0.000000 0.000000
# 2 -0.007560 0.016879 -0.003498 -0.000194 0.000000 0.000000
# 3 -0.003498 -0.003498 0.009295 0.000000 0.000000 0.000000
# 4 0.000194 -0.000194 0.000000 0.035659 0.000000 0.000000
# 5 0.000000 0.000000 0.000000 0.000000 0.035659 0.000387
# 6 0.000000 0.000000 0.000000 0.000000 0.000387 0.048878
#
#
# Mechanical properties :
#
#
# Convention : Reuss Voigt Hill
#
# Bulk Modulus (GPa) = 71.72994 74.91236 73.32115
# Shear Modulus (GPa) = 25.37983 26.88025 26.13004
#
# Velocity S-wave (km/s) = 3.53711 3.64017 3.58901
# Velocity P-wave (km/s) = 7.21397 7.38894 7.30198
#
# Compressibility (1/GPa) = 0.01394118
#
# Stress axis : x y z
#
# Youngs Moduli (GPa) = 59.24536 59.24502 107.58724
#
# Poissons Ratio (x) = 0.44788 0.37634
# Poissons Ratio (y) = 0.44788 0.37634
# Poissons Ratio (z) = 0.20724 0.20724
#
# Static dielectric constant tensor:
#      x y z
#    x 3.984840 0.000000 0.000000 
#    y 0.000000 3.984840 0.000000 
#    z 0.000000 0.000000 3.758320 
# 
# 
# High freq. dielectric constant tensor:
#      x y z
#    x 1.801850 0.000000 0.000000 
#    y 0.000000 1.801850 0.000000 
#    z 0.000000 0.000000 1.798150 
# 
# From -- ./inp_files/3219.got.cif
#   From: 2010.03.12/outbox.cif.g09.slc.cpg/sg164_2_cif.got.tgz:3219.got - 2010.04.02 06:32:59.
