data_PCOD8323177
_publ_section_title
;
Structure prediction by ZEFSAII (Michael W. Deem and Ramdas Pophale) SiO2 
 PCOD8323177
Probable space group: P -3 1 M 
;
_chemical_formula_sum "Si O2"
_cell_formula_units_Z 40
_cell_length_a 12.846252
_cell_length_b 12.846252
_cell_length_c 17.480794
_cell_angle_alpha 90.000000
_cell_angle_beta 90.000000
_cell_angle_gamma 120.000000
_cell_volume 2498.300420
_symmetry_space_group_name_H-M "P -3 1 M "
_symmetry_group_IT_number 162
_symmetry_cell_setting 'hexagonal'
loop_
_space_group_symop_operation_xyz
x,y,z
-y,x-y,z
-x+y,-x,z
-y,-x,-z
-x+y,y,-z
x,x-y,-z
-x,-y,-z
y,-x+y,-z
x-y,x,-z
y,x,z
x-y,-y,z
-x,-x+y,z
loop_
_atom_site_type_symbol
_atom_site_label
_atom_site_fract_x
_atom_site_fract_y
_atom_site_fract_z
Si Si1 0.422706 0.135196 0.277184
Si Si2 0.333335 0.666668 0.909696
Si Si3 0.861309 0.724218 0.413029
Si Si4 0.495411 0.864583 0.197867
O O1 0.390715 0.159614 0.362351
O O2 0.556301 0.151088 0.268959
O O3 0.417159 0.231514 0.221683
O O4 0.324535 0.000000 0.250725
O O5 0.199878 0.580697 0.877581
O O6 0.333334 0.666667 0.000000
O O7 0.838710 0.677420 0.500000
O O8 0.832528 0.832528 0.404369
O O9 0.000000 0.775008 0.388119
O O10 0.579167 0.000000 0.173248
#
# Coordination Sequence:
#
# PCOD8323177 Si02
#       4
#    12   4  12  12
#     4   9  17  29  45  64  86 113 146 180 214 255
#     4   9  18  30  45  69  94 113 142 177 207 252
#     4   9  16  26  41  62  88 117 149 185 221 253
#     4   9  17  30  47  65  88 116 142 174 216 255
#
# _framework density 16.010884999999998
#
# number of rings (size 3 to 8) (size 9 to 14) (size 15 to 20)
#    0.000    3.000    0.000    1.800    0.000    1.800 
#    0.000    1.500    0.000    7.800    0.000    0.000 
#    0.000    1.200    0.000    0.000    0.000    0.000 
#
# Total GULP energy -495610.035140 kJ/mol
# GULP energy per Si atom -12390.250878 kJ/mol
# Density = 1.597444 g / cm^3
# Si number density = 16.010885 Si / 1000 Ang^3
#
#
#
# Elastic Constant Matrix: (Units=GPa)
#
#
# Indices 1 2 3 4 5 6 
#
# 1 93.0557 54.7188 51.1246 -0.0001 3.4247 -0.0001
# 2 54.7188 93.0554 51.1241 -0.0001 -3.4249 0.0000
# 3 51.1246 51.1241 101.2056 -0.0004 -0.0003 -0.0002
# 4 -0.0001 -0.0001 -0.0004 14.7441 -0.0001 -3.4247
# 5 3.4247 -3.4249 -0.0003 -0.0001 14.7441 0.0000
# 6 -0.0001 0.0000 -0.0002 -3.4247 0.0000 19.1685
#
#
#
# Elastic Compliance Matrix: (Units=1/GPa)
#
#
# Indices 1 2 3 4 5 6 
#
# 1 0.018809 -0.008405 -0.005255 0.000000 -0.006321 0.000000
# 2 -0.008405 0.018809 -0.005255 0.000000 0.006321 0.000000
# 3 -0.005255 -0.005255 0.015190 0.000000 0.000000 0.000000
# 4 0.000000 0.000000 0.000000 0.070760 0.000001 0.012642
# 5 -0.006321 0.006321 0.000000 0.000001 0.070760 0.000000
# 6 0.000000 0.000000 0.000000 0.012642 0.000000 0.054428
#
#
# Mechanical properties :
#
#
# Convention : Reuss Voigt Hill
#
# Bulk Modulus (GPa) = 66.77409 66.80575 66.78992
# Shear Modulus (GPa) = 17.14798 18.42130 17.78464
#
# Velocity S-wave (km/s) = 3.27619 3.39565 3.33646
# Velocity P-wave (km/s) = 7.49048 7.56239 7.52652
#
# Compressibility (1/GPa) = 0.01497587
#
# Stress axis : x y z
#
# Youngs Moduli (GPa) = 53.16683 53.16697 65.83137
#
# Poissons Ratio (x) = 0.44689 0.34597
# Poissons Ratio (y) = 0.44689 0.34596
# Poissons Ratio (z) = 0.27941 0.27940
#
# Static dielectric constant tensor:
#      x y z
#    x 3.146290 0.000000 0.000000 
#    y 0.000000 3.146300 0.000000 
#    z 0.000000 0.000000 2.767020 
# 
# 
# High freq. dielectric constant tensor:
#      x y z
#    x 1.617570 0.000000 0.000000 
#    y 0.000000 1.617570 0.000000 
#    z 0.000000 0.000000 1.580800 
# 
# From -- ./inp_files/2772.got.cif
#   From: 2010.03.12/outbox.cif.g09.slc.cpg/sg162_2_cif.got.tgz:2772.got - 2010.04.02 06:27:41.
