data_PCOD8323126
_publ_section_title
;
Structure prediction by ZEFSAII (Michael W. Deem and Ramdas Pophale) SiO2 
 PCOD8323126
Probable space group: P -3 1 M 
;
_chemical_formula_sum "Si O2"
_cell_formula_units_Z 76
_cell_length_a 17.991062
_cell_length_b 17.991062
_cell_length_c 13.254385
_cell_angle_alpha 90.000000
_cell_angle_beta 90.000000
_cell_angle_gamma 120.000000
_cell_volume 3715.384915
_symmetry_space_group_name_H-M "P -3 1 M "
_symmetry_group_IT_number 162
_symmetry_cell_setting 'hexagonal'
loop_
_space_group_symop_operation_xyz
x,y,z
-y,x-y,z
-x+y,-x,z
-y,-x,-z
-x+y,y,-z
x,x-y,-z
-x,-y,-z
y,-x+y,-z
x-y,x,-z
y,x,z
x-y,-y,z
-x,-x+y,z
loop_
_atom_site_type_symbol
_atom_site_label
_atom_site_fract_x
_atom_site_fract_y
_atom_site_fract_z
Si Si1 0.839849 0.217350 0.606033
Si Si2 0.450590 0.000000 0.348275
Si Si3 0.389116 0.563466 0.755136
Si Si4 0.333335 0.666668 0.380443
Si Si5 0.740135 0.208511 0.191134
Si Si6 0.188814 0.287771 0.098876
Si Si7 0.099007 0.898748 0.302997
Si Si8 0.389671 0.389671 0.443020
O O1 0.792725 0.207276 0.500000
O O2 0.782907 0.217833 0.698086
O O3 0.864827 0.143471 0.618338
O O4 0.921832 0.309933 0.608594
O O5 0.401291 0.916643 0.278760
O O6 0.526836 0.000000 0.407313
O O7 0.385628 0.000000 0.434232
O O8 0.370471 0.606897 0.658877
O O9 0.309879 0.527362 0.835719
O O10 0.474701 0.636779 0.810117
O O11 0.333334 0.666667 0.500000
O O12 0.766040 0.156068 0.115145
O O13 0.262813 0.262813 0.087287
O O14 0.126058 0.236134 0.190081
O O15 0.130425 0.260849 0.000000
O O16 0.000000 0.866092 0.327257
O O17 0.152567 0.000000 0.317273
#
# Coordination Sequence:
#
# PCOD8323126 Si02
#       8
#    12   6  12   4  12  12  12   6
#     4  11  22  37  55  78 123 166 210 253 309 360
#     4  11  22  32  56  80 118 153 212 265 289 348
#     4  10  21  37  54  84 116 159 201 251 298 355
#     4   9  21  33  54  72 118 161 211 246 306 339
#     4  10  22  40  62  86 122 163 202 247 305 363
#     4  10  22  42  70  96 125 154 192 250 315 377
#     4  10  21  37  60  86 117 158 204 255 307 370
#     4  11  22  34  50  82 112 156 213 253 309 351
#
# _framework density 20.455484999999999
#
# number of rings (size 3 to 8) (size 9 to 14) (size 15 to 20)
#    0.000    1.737    2.368    1.895    5.526    2.526 
#    7.105    0.789    0.000    4.421    0.000    0.000 
#    0.000    0.000    0.000    0.000    0.000    0.000 
#
# Total GULP energy -942421.280344 kJ/mol
# GULP energy per Si atom -12400.280005 kJ/mol
# Density = 2.040893 g / cm^3
# Si number density = 20.455485 Si / 1000 Ang^3
#
#
#
# Elastic Constant Matrix: (Units=GPa)
#
#
# Indices 1 2 3 4 5 6 
#
# 1 100.6409 28.0203 5.7464 -0.0001 1.2402 0.0001
# 2 28.0203 100.6409 5.7464 0.0000 -1.2403 -0.0001
# 3 5.7464 5.7464 43.5741 -0.0001 -0.0001 0.0000
# 4 -0.0001 0.0000 -0.0001 21.2399 0.0000 -1.2403
# 5 1.2402 -1.2403 -0.0001 0.0000 21.2399 -0.0001
# 6 0.0001 -0.0001 0.0000 -1.2403 -0.0001 36.3102
#
#
#
# Elastic Compliance Matrix: (Units=1/GPa)
#
#
# Indices 1 2 3 4 5 6 
#
# 1 0.010831 -0.002966 -0.001037 0.000000 -0.000806 0.000000
# 2 -0.002966 0.010831 -0.001037 0.000000 0.000806 0.000000
# 3 -0.001037 -0.001037 0.023223 0.000000 0.000000 0.000000
# 4 0.000000 0.000000 0.000000 0.047175 0.000000 0.001611
# 5 -0.000806 0.000806 0.000000 0.000000 0.047175 0.000000
# 6 0.000000 0.000000 0.000000 0.001611 0.000000 0.027595
#
#
# Mechanical properties :
#
#
# Convention : Reuss Voigt Hill
#
# Bulk Modulus (GPa) = 28.73221 35.98691 32.35956
# Shear Modulus (GPa) = 26.52312 29.44751 27.98531
#
# Velocity S-wave (km/s) = 3.60478 3.79831 3.70281
# Velocity P-wave (km/s) = 5.60380 6.07184 5.84251
#
# Compressibility (1/GPa) = 0.03480415
#
# Stress axis : x y z
#
# Youngs Moduli (GPa) = 92.32449 92.32444 43.06076
#
# Poissons Ratio (x) = 0.27387 0.04466
# Poissons Ratio (y) = 0.27387 0.04466
# Poissons Ratio (z) = 0.09576 0.09576
#
# Static dielectric constant tensor:
#      x y z
#    x 3.797100 0.000000 0.000000 
#    y 0.000000 3.797110 0.000000 
#    z 0.000000 0.000000 3.366050 
# 
# 
# High freq. dielectric constant tensor:
#      x y z
#    x 1.810470 0.000000 0.000000 
#    y 0.000000 1.810470 0.000000 
#    z 0.000000 0.000000 1.761990 
# 
# From -- ./inp_files/3151.got.cif
#   From: 2010.03.12/outbox.cif.g09.slc.cpg/sg162_2_cif.got.tgz:3151.got - 2010.04.02 06:27:41.
