data_PCOD8323862
_publ_section_title
;
Structure prediction by ZEFSAII (Michael W. Deem and Ramdas Pophale) SiO2 
 PCOD8323862
Probable space group: P -3 C 1
;
_chemical_formula_sum "Si O2"
_cell_formula_units_Z 72
_cell_length_a 22.506019
_cell_length_b 22.506019
_cell_length_c 8.838000
_cell_angle_alpha 90.000000
_cell_angle_beta 90.000000
_cell_angle_gamma 120.000000
_cell_volume 3876.876721
_symmetry_space_group_name_H-M "P -3 C 1"
_symmetry_group_IT_number 165
_symmetry_cell_setting 'hexagonal'
loop_
_space_group_symop_operation_xyz
x,y,z
-y,x-y,z
-x+y,-x,z
x-y,-y,1/2-z
-x,-x+y,1/2-z
y,x,1/2-z
-x,-y,-z
y,-x+y,-z
x-y,x,-z
-x+y,y,1/2+z
x,x-y,1/2+z
-y,-x,1/2+z
loop_
_atom_site_type_symbol
_atom_site_label
_atom_site_fract_x
_atom_site_fract_y
_atom_site_fract_z
Si Si1 0.203459 0.547230 0.951267
Si Si2 0.238327 0.850638 0.626902
Si Si3 0.878658 0.271472 0.530068
Si Si4 0.129646 0.998045 0.930967
Si Si5 0.214423 0.673395 0.101201
Si Si6 0.262220 0.271009 0.072303
O O1 0.137423 0.471357 0.978501
O O2 0.222925 0.561005 0.776295
O O3 0.183680 0.602227 0.010992
O O4 0.270361 0.558797 0.040340
O O5 0.237045 0.859567 0.805617
O O6 0.166157 0.784298 0.593917
O O7 0.300930 0.839889 0.575356
O O8 0.244331 0.914435 0.531924
O O9 0.957235 0.292858 0.494232
O O10 0.123847 0.000000 0.750000
O O11 0.197110 0.995383 0.982955
O O12 0.064652 0.931381 0.996668
O O13 0.270650 0.270650 0.250000
#
# Coordination Sequence:
#
# PCOD8323862 Si02
#       6
#    12  12  12  12  12  12
#     4  10  19  31  49  72  99 129 162 201 244 291
#     4   9  18  33  52  73  98 128 162 201 243 288
#     4   9  18  33  52  73  98 128 162 201 243 288
#     4  11  22  36  55  78 105 133 164 203 246 293
#     4  10  19  31  49  72  99 129 162 201 244 291
#     4   9  18  34  55  76  98 129 166 201 242 291
#
# _framework density 18.571649000000001
#
# number of rings (size 3 to 8) (size 9 to 14) (size 15 to 20)
#    0.000    2.333    0.000    3.000    0.000    1.333 
#    0.000    3.333    0.000    0.000    0.000    0.000 
#    0.000    0.000    0.000    0.000    0.000    0.000 
#
# Total GULP energy -892692.698846 kJ/mol
# GULP energy per Si atom -12398.509706 kJ/mol
# Density = 1.852938 g / cm^3
# Si number density = 18.571649 Si / 1000 Ang^3
#
#
#
# Elastic Constant Matrix: (Units=GPa)
#
#
# Indices 1 2 3 4 5 6 
#
# 1 79.9628 20.8219 21.5520 -1.8067 0.0000 0.0000
# 2 20.8219 79.9628 21.5520 1.8067 0.0000 0.0000
# 3 21.5520 21.5520 57.2144 0.0000 0.0000 0.0000
# 4 -1.8067 1.8067 0.0000 18.4950 0.0000 0.0000
# 5 0.0000 0.0000 0.0000 0.0000 18.4950 -1.8067
# 6 0.0000 0.0000 0.0000 0.0000 -1.8067 29.5704
#
#
#
# Elastic Compliance Matrix: (Units=1/GPa)
#
#
# Indices 1 2 3 4 5 6 
#
# 1 0.014419 -0.002591 -0.004455 0.001662 0.000000 0.000000
# 2 -0.002591 0.014419 -0.004455 -0.001662 0.000000 0.000000
# 3 -0.004455 -0.004455 0.020835 0.000000 0.000000 0.000000
# 4 0.001662 -0.001662 0.000000 0.054393 0.000000 0.000000
# 5 0.000000 0.000000 0.000000 0.000000 0.054393 0.003323
# 6 0.000000 0.000000 0.000000 0.000000 0.003323 0.034021
#
#
# Mechanical properties :
#
#
# Convention : Reuss Voigt Hill
#
# Bulk Modulus (GPa) = 37.49731 38.33243 37.91487
# Shear Modulus (GPa) = 22.28432 23.52638 22.90535
#
# Velocity S-wave (km/s) = 3.46773 3.56306 3.51572
# Velocity P-wave (km/s) = 6.02229 6.13289 6.07784
#
# Compressibility (1/GPa) = 0.02666858
#
# Stress axis : x y z
#
# Youngs Moduli (GPa) = 69.35317 69.35317 47.99694
#
# Poissons Ratio (x) = 0.17972 0.21384
# Poissons Ratio (y) = 0.17972 0.21384
# Poissons Ratio (z) = 0.30899 0.30899
#
# Static dielectric constant tensor:
#      x y z
#    x 3.590740 0.000000 0.000000 
#    y 0.000000 3.590740 0.000000 
#    z 0.000000 0.000000 3.349030 
# 
# 
# High freq. dielectric constant tensor:
#      x y z
#    x 1.719480 0.000000 0.000000 
#    y 0.000000 1.719480 0.000000 
#    z 0.000000 0.000000 1.713970 
# 
# From -- ./inp_files/765.got.cif
#   From: 2010.03.12/outbox.cif.g09.slc.cpg/sg165_1_cif.got.tgz:765.got - 2010.04.02 06:36:38.
