data_PCOD8323922
_publ_section_title
;
Structure prediction by ZEFSAII (Michael W. Deem and Ramdas Pophale) SiO2 
 PCOD8323922
Probable space group: P -3 C 1
;
_chemical_formula_sum "Si O2"
_cell_formula_units_Z 68
_cell_length_a 12.101163
_cell_length_b 12.101163
_cell_length_c 26.830979
_cell_angle_alpha 90.000000
_cell_angle_beta 90.000000
_cell_angle_gamma 120.000000
_cell_volume 3402.682071
_symmetry_space_group_name_H-M "P -3 C 1"
_symmetry_group_IT_number 165
_symmetry_cell_setting 'hexagonal'
loop_
_space_group_symop_operation_xyz
x,y,z
-y,x-y,z
-x+y,-x,z
x-y,-y,1/2-z
-x,-x+y,1/2-z
y,x,1/2-z
-x,-y,-z
y,-x+y,-z
x-y,x,-z
-x+y,y,1/2+z
x,x-y,1/2+z
-y,-x,1/2+z
loop_
_atom_site_type_symbol
_atom_site_label
_atom_site_fract_x
_atom_site_fract_y
_atom_site_fract_z
Si Si1 0.398131 0.072344 0.199680
Si Si2 0.666668 0.333334 0.988750
Si Si3 0.072106 0.425631 0.011156
Si Si4 0.669069 0.127545 0.166886
Si Si5 0.012633 0.258882 0.101072
Si Si6 0.247038 0.983091 0.911672
Si Si7 0.333334 0.666668 0.895151
O O1 0.537778 0.085705 0.194995
O O2 0.407727 0.210941 0.204849
O O3 0.333137 0.000000 0.250000
O O4 0.308536 0.988110 0.154233
O O5 0.781671 0.472548 0.972231
O O6 0.666668 0.333334 0.047221
O O7 0.059443 0.338575 0.963916
O O8 0.994004 0.339010 0.057802
O O9 0.000000 0.500000 0.000000
O O10 0.665528 0.012923 0.135212
O O11 0.709348 0.235966 0.124616
O O12 0.144796 0.267867 0.086600
O O13 0.900476 0.113412 0.100459
#
# Coordination Sequence:
#
# PCOD8323922 Si02
#       7
#    12   4  12  12  12  12   4
#     4  10  22  40  62  90 118 152 204 252 299 357
#     4  12  21  36  60  88 125 160 210 240 291 367
#     4  12  24  37  59  89 121 157 195 247 302 359
#     4   9  19  36  63  86 115 157 200 241 295 357
#     4  11  24  39  59  87 119 157 200 244 298 361
#     4  11  21  39  59  85 120 156 194 239 296 363
#     4   9  15  33  60  88 104 154 210 240 273 358
#
# _framework density 19.984234000000001
#
# number of rings (size 3 to 8) (size 9 to 14) (size 15 to 20)
#    0.000    1.412    1.765    4.941    2.471    1.412 
#    0.000    4.412    0.000    0.706    0.000    0.000 
#    0.000    0.000    0.000    0.000    0.000    0.000 
#
# Total GULP energy -843038.945811 kJ/mol
# GULP energy per Si atom -12397.631556 kJ/mol
# Density = 1.993875 g / cm^3
# Si number density = 19.984234 Si / 1000 Ang^3
#
#
#
# Elastic Constant Matrix: (Units=GPa)
#
#
# Indices 1 2 3 4 5 6 
#
# 1 82.6383 26.3587 34.4921 0.1467 0.0000 0.0000
# 2 26.3587 82.6392 34.4918 -0.1467 0.0000 0.0000
# 3 34.4921 34.4918 119.3422 0.0000 0.0000 0.0000
# 4 0.1467 -0.1467 0.0000 22.2596 0.0000 0.0000
# 5 0.0000 0.0000 0.0000 0.0000 22.2602 0.1468
# 6 0.0000 0.0000 0.0000 0.0000 0.1468 28.1401
#
#
#
# Elastic Compliance Matrix: (Units=1/GPa)
#
#
# Indices 1 2 3 4 5 6 
#
# 1 0.014499 -0.003270 -0.003245 -0.000117 0.000000 0.000000
# 2 -0.003270 0.014499 -0.003245 0.000117 0.000000 0.000000
# 3 -0.003245 -0.003245 0.010255 0.000000 0.000000 0.000000
# 4 -0.000117 0.000117 0.000000 0.044926 0.000000 0.000000
# 5 0.000000 0.000000 0.000000 0.000000 0.044925 -0.000234
# 6 0.000000 0.000000 0.000000 0.000000 -0.000234 0.035538
#
#
# Mechanical properties :
#
#
# Convention : Reuss Voigt Hill
#
# Bulk Modulus (GPa) = 50.68141 52.81164 51.74652
# Shear Modulus (GPa) = 26.21383 27.15047 26.68215
#
# Velocity S-wave (km/s) = 3.62570 3.68991 3.65795
# Velocity P-wave (km/s) = 6.55312 6.68116 6.61745
#
# Compressibility (1/GPa) = 0.01973110
#
# Stress axis : x y z
#
# Youngs Moduli (GPa) = 68.97141 68.97240 97.51240
#
# Poissons Ratio (x) = 0.22556 0.31645
# Poissons Ratio (y) = 0.22555 0.31644
# Poissons Ratio (z) = 0.22383 0.22383
#
# Static dielectric constant tensor:
#      x y z
#    x 3.221690 0.000000 0.000000 
#    y 0.000000 3.221710 0.000010 
#    z 0.000000 0.000010 3.618270 
# 
# 
# High freq. dielectric constant tensor:
#      x y z
#    x 1.784810 0.000000 0.000000 
#    y 0.000000 1.784810 0.000000 
#    z 0.000000 0.000000 1.764830 
# 
# From -- ./inp_files/3321.got.cif
#   From: 2010.03.12/outbox.cif.g09.slc.cpg/sg165_2_cif.got.tgz:3321.got - 2010.04.02 06:36:38.
