data_PCOD8323882
_publ_section_title
;
Structure prediction by ZEFSAII (Michael W. Deem and Ramdas Pophale) SiO2 
 PCOD8323882
Probable space group: P -3 C 1
;
_chemical_formula_sum "Si O2"
_cell_formula_units_Z 90
_cell_length_a 24.843088
_cell_length_b 24.843088
_cell_length_c 10.032858
_cell_angle_alpha 90.000000
_cell_angle_beta 90.000000
_cell_angle_gamma 120.000000
_cell_volume 5362.489473
_symmetry_space_group_name_H-M "P -3 C 1"
_symmetry_group_IT_number 165
_symmetry_cell_setting 'hexagonal'
loop_
_space_group_symop_operation_xyz
x,y,z
-y,x-y,z
-x+y,-x,z
x-y,-y,1/2-z
-x,-x+y,1/2-z
y,x,1/2-z
-x,-y,-z
y,-x+y,-z
x-y,x,-z
-x+y,y,1/2+z
x,x-y,1/2+z
-y,-x,1/2+z
loop_
_atom_site_type_symbol
_atom_site_label
_atom_site_fract_x
_atom_site_fract_y
_atom_site_fract_z
Si Si1 0.418550 0.492298 0.249274
Si Si2 0.213538 0.000000 0.250000
Si Si3 0.935720 0.341716 0.525638
Si Si4 0.613075 0.538927 0.253085
Si Si5 0.760179 0.726103 0.530044
Si Si6 0.319319 0.104350 0.919483
Si Si7 0.135359 0.868881 0.328819
Si Si8 0.083616 0.659539 0.021292
O O1 0.459006 0.459006 0.250000
O O2 0.366041 0.460051 0.363408
O O3 0.464870 0.565887 0.263241
O O4 0.383741 0.484379 0.109272
O O5 0.240096 0.977918 0.128030
O O6 0.148088 0.938802 0.292733
O O7 0.904956 0.346891 0.388184
O O8 0.922612 0.271542 0.552611
O O9 0.009742 0.380606 0.523951
O O10 0.574153 0.574153 0.250000
O O11 0.661168 0.557293 0.131234
O O12 0.725739 0.756855 0.607042
O O13 0.828937 0.759379 0.595883
O O14 0.305296 0.141016 0.805004
O O15 0.389870 0.118167 0.915047
O O16 0.311321 0.123812 0.067292
#
# Coordination Sequence:
#
# PCOD8323882 Si02
#       8
#    12   6  12  12  12  12  12  12
#     4   9  15  25  35  56  85 117 159 199 225 246
#     4  10  22  34  50  74  96 120 152 202 256 302
#     4   9  17  25  42  60  83 122 158 196 234 264
#     4   9  16  23  38  57  85 121 157 197 224 244
#     4  10  20  33  52  69  97 122 160 200 247 299
#     4  10  21  32  51  70  96 123 157 201 251 295
#     4  11  20  36  50  72  95 124 151 202 247 310
#     4   9  17  27  39  59  87 117 155 197 231 261
#
# _framework density 16.783249999999999
#
# number of rings (size 3 to 8) (size 9 to 14) (size 15 to 20)
#    0.000    2.400    1.333    2.000    6.533    5.333 
#    0.000    0.000    0.000    0.000    0.000    0.000 
#    5.333    9.600    0.000    0.000    0.000    0.000 
#
# Total GULP energy -1115070.937963 kJ/mol
# GULP energy per Si atom -12389.677088 kJ/mol
# Density = 1.674505 g / cm^3
# Si number density = 16.783250 Si / 1000 Ang^3
#
#
#
# Elastic Constant Matrix: (Units=GPa)
#
#
# Indices 1 2 3 4 5 6 
#
# 1 65.1152 30.6789 27.0800 -1.2865 0.0000 0.0000
# 2 30.6789 65.1152 27.0800 1.2865 0.0000 0.0000
# 3 27.0800 27.0800 104.2619 0.0000 0.0000 0.0000
# 4 -1.2865 1.2865 0.0000 22.9626 0.0000 0.0000
# 5 0.0000 0.0000 0.0000 0.0000 22.9626 -1.2865
# 6 0.0000 0.0000 0.0000 0.0000 -1.2865 17.2182
#
#
#
# Elastic Compliance Matrix: (Units=1/GPa)
#
#
# Indices 1 2 3 4 5 6 
#
# 1 0.020699 -0.008463 -0.003178 0.001634 0.000000 0.000000
# 2 -0.008463 0.020699 -0.003178 -0.001634 0.000000 0.000000
# 3 -0.003178 -0.003178 0.011242 0.000000 0.000000 0.000000
# 4 0.001634 -0.001634 0.000000 0.043732 0.000000 0.000000
# 5 0.000000 0.000000 0.000000 0.000000 0.043732 0.003267
# 6 0.000000 0.000000 0.000000 0.000000 0.003267 0.058322
#
#
# Mechanical properties :
#
#
# Convention : Reuss Voigt Hill
#
# Bulk Modulus (GPa) = 43.47509 44.90781 44.19145
# Shear Modulus (GPa) = 21.21066 22.60555 21.90811
#
# Velocity S-wave (km/s) = 3.55885 3.67401 3.61689
# Velocity P-wave (km/s) = 6.54579 6.69428 6.62045
#
# Compressibility (1/GPa) = 0.02300168
#
# Stress axis : x y z
#
# Youngs Moduli (GPa) = 48.31265 48.31265 88.95137
#
# Poissons Ratio (x) = 0.40885 0.28269
# Poissons Ratio (y) = 0.40885 0.28269
# Poissons Ratio (z) = 0.15354 0.15354
#
# Static dielectric constant tensor:
#      x y z
#    x 2.987070 0.000000 0.000000 
#    y 0.000000 2.987070 0.000000 
#    z 0.000000 0.000000 3.407530 
# 
# 
# High freq. dielectric constant tensor:
#      x y z
#    x 1.601170 0.000000 0.000000 
#    y 0.000000 1.601170 0.000000 
#    z 0.000000 0.000000 1.674870 
# 
# From -- ./inp_files/832.got.cif
#   From: 2010.03.12/outbox.cif.g09.slc.cpg/sg165_1_cif.got.tgz:832.got - 2010.04.02 06:36:38.
