data_PCOD8323058
_publ_section_title
;
Structure prediction by ZEFSAII (Michael W. Deem and Ramdas Pophale) SiO2 
 PCOD8323058
Probable space group: P -3 1 M 
;
_chemical_formula_sum "Si O2"
_cell_formula_units_Z 60
_cell_length_a 17.726378
_cell_length_b 17.726378
_cell_length_c 12.633058
_cell_angle_alpha 90.000000
_cell_angle_beta 90.000000
_cell_angle_gamma 120.000000
_cell_volume 3437.788336
_symmetry_space_group_name_H-M "P -3 1 M "
_symmetry_group_IT_number 162
_symmetry_cell_setting 'hexagonal'
loop_
_space_group_symop_operation_xyz
x,y,z
-y,x-y,z
-x+y,-x,z
-y,-x,-z
-x+y,y,-z
x,x-y,-z
-x,-y,-z
y,-x+y,-z
x-y,x,-z
y,x,z
x-y,-y,z
-x,-x+y,z
loop_
_atom_site_type_symbol
_atom_site_label
_atom_site_fract_x
_atom_site_fract_y
_atom_site_fract_z
Si Si1 0.731369 0.634236 0.305335
Si Si2 0.840354 0.331617 0.500000
Si Si3 0.666761 0.505518 0.120695
Si Si4 0.161244 0.666761 0.120695
Si Si5 0.731369 0.634236 0.694665
O O1 0.716501 0.716501 0.316675
O O2 0.679811 0.565295 0.396779
O O3 0.691921 0.588460 0.193437
O O4 0.834654 0.669307 0.312699
O O5 0.737664 0.262336 0.500000
O O6 0.855164 0.427582 0.500000
O O7 0.885484 0.320189 0.603221
O O8 0.573706 0.426294 0.155593
O O9 0.736925 0.473850 0.134915
O O10 0.664435 0.533364 1.000000
O O11 0.103461 0.691921 0.193437
O O12 0.716501 0.716501 0.683325
#
# Coordination Sequence:
#
# PCOD8323058 Si02
#       5
#    12  12  12  12  12
#     4  10  21  35  50  69  93 122 156 196 242 285
#     4  10  20  33  50  73 102 134 163 188 216 257
#     4   9  17  29  46  69  98 131 163 192 223 264
#     4   9  17  29  46  69  98 131 163 192 223 264
#     4  10  21  35  50  69  93 122 156 196 242 285
#
# _framework density 17.453082999999999
#
# number of rings (size 3 to 8) (size 9 to 14) (size 15 to 20)
#    0.000    2.400    0.000    2.400    0.000    6.400 
#    0.000    6.000    0.000    0.400    0.000    0.000 
#    0.000    4.800    0.000   10.000    0.000    0.000 
#
# Total GULP energy -744045.865772 kJ/mol
# GULP energy per Si atom -12400.764430 kJ/mol
# Density = 1.741336 g / cm^3
# Si number density = 17.453083 Si / 1000 Ang^3
#
#
#
# Elastic Constant Matrix: (Units=GPa)
#
#
# Indices 1 2 3 4 5 6 
#
# 1 103.5883 76.8576 38.8542 0.0000 0.0000 0.0000
# 2 76.8576 103.5883 38.8542 0.0000 0.0000 0.0000
# 3 38.8542 38.8542 90.1232 0.0000 0.0000 0.0000
# 4 0.0000 0.0000 0.0000 9.6923 0.0000 0.0000
# 5 0.0000 0.0000 0.0000 0.0000 9.6923 0.0000
# 6 0.0000 0.0000 0.0000 0.0000 0.0000 13.3653
#
#
#
# Elastic Compliance Matrix: (Units=1/GPa)
#
#
# Indices 1 2 3 4 5 6 
#
# 1 0.022108 -0.015302 -0.002934 0.000000 0.000000 0.000000
# 2 -0.015302 0.022108 -0.002934 0.000000 0.000000 0.000000
# 3 -0.002934 -0.002934 0.013626 0.000000 0.000000 0.000000
# 4 0.000000 0.000000 0.000000 0.103175 0.000000 0.000000
# 5 0.000000 0.000000 0.000000 0.000000 0.103175 0.000000
# 6 0.000000 0.000000 0.000000 0.000000 0.000000 0.074820
#
#
# Mechanical properties :
#
#
# Convention : Reuss Voigt Hill
#
# Bulk Modulus (GPa) = 64.51360 67.38130 65.94745
# Shear Modulus (GPa) = 12.93600 16.06558 14.50079
#
# Velocity S-wave (km/s) = 2.72543 3.03727 2.88556
# Velocity P-wave (km/s) = 6.85188 7.14079 6.99783
#
# Compressibility (1/GPa) = 0.01550061
#
# Stress axis : x y z
#
# Youngs Moduli (GPa) = 45.23302 45.23302 73.39078
#
# Poissons Ratio (x) = 0.69218 0.21532
# Poissons Ratio (y) = 0.69218 0.21532
# Poissons Ratio (z) = 0.13271 0.13271
#
# Static dielectric constant tensor:
#      x y z
#    x 3.076990 0.000000 0.000000 
#    y 0.000000 3.076990 0.000000 
#    z 0.000000 0.000000 3.521590 
# 
# 
# High freq. dielectric constant tensor:
#      x y z
#    x 1.650580 0.000000 0.000000 
#    y 0.000000 1.650580 0.000000 
#    z 0.000000 0.000000 1.695980 
# 
# From -- ./inp_files/2298.got.cif
#   From: 2010.03.12/outbox.cif.g09.slc.cpg/sg162_2_cif.got.tgz:2298.got - 2010.04.02 06:27:41.
