data_PCOD8323168
_publ_section_title
;
Structure prediction by ZEFSAII (Michael W. Deem and Ramdas Pophale) SiO2 
 PCOD8323168
Probable space group: P -3 1 M 
;
_chemical_formula_sum "Si O2"
_cell_formula_units_Z 84
_cell_length_a 17.590943
_cell_length_b 17.590943
_cell_length_c 15.445112
_cell_angle_alpha 90.000000
_cell_angle_beta 90.000000
_cell_angle_gamma 120.000000
_cell_volume 4139.042982
_symmetry_space_group_name_H-M "P -3 1 M "
_symmetry_group_IT_number 162
_symmetry_cell_setting 'hexagonal'
loop_
_space_group_symop_operation_xyz
x,y,z
-y,x-y,z
-x+y,-x,z
-y,-x,-z
-x+y,y,-z
x,x-y,-z
-x,-y,-z
y,-x+y,-z
x-y,x,-z
y,x,z
x-y,-y,z
-x,-x+y,z
loop_
_atom_site_type_symbol
_atom_site_label
_atom_site_fract_x
_atom_site_fract_y
_atom_site_fract_z
Si Si1 0.786434 0.684181 0.425913
Si Si2 0.498160 0.331334 0.484331
Si Si3 0.371176 0.474657 0.794666
Si Si4 0.474657 0.103481 0.705334
Si Si5 0.635171 0.817585 0.750000
Si Si6 0.897747 0.684180 0.074087
Si Si7 0.668666 0.501840 0.015669
O O1 0.860085 0.720169 0.500000
O O2 0.748765 0.748765 0.412946
O O3 0.706412 0.587423 0.454036
O O4 0.841771 0.689721 0.339142
O O5 0.566273 0.433728 0.500000
O O6 0.542789 0.271395 0.500000
O O7 0.474372 0.325838 0.384295
O O8 0.427583 0.427583 0.807116
O O9 0.430400 0.569600 0.750000
O O10 0.287411 0.420657 0.734380
O O11 0.325837 0.474371 0.884295
O O12 0.420658 0.133248 0.765620
O O13 0.427583 0.000000 0.692885
O O14 0.689721 0.841771 0.839142
O O15 0.000000 0.748765 0.087053
O O16 0.860084 0.720167 0.000000
O O17 0.881011 0.587422 0.045965
O O18 0.566273 0.433728 0.000000
O O19 0.728606 0.457211 0.000000
#
# Coordination Sequence:
#
# PCOD8323168 Si02
#       7
#    12  12  12  12  12  12  12
#     4  11  24  42  68  97 131 170 216 271 327 390
#     4  11  22  40  61  90 128 172 217 264 315 375
#     4  11  24  40  61  91 126 166 214 265 320 381
#     4  11  24  40  61  91 126 166 214 265 320 381
#     4  12  22  42  62  94 127 166 215 262 318 382
#     4  11  24  42  68  97 131 170 216 271 327 390
#     4  11  22  40  61  90 128 172 217 264 315 375
#
# _framework density 20.294544999999999
#
# number of rings (size 3 to 8) (size 9 to 14) (size 15 to 20)
#    0.000    0.857    5.714    3.714    0.000    5.714 
#    0.857    0.000    0.000    0.286    0.000    1.000 
#    0.000    0.000    0.000    0.000    0.000    0.000 
#
# Total GULP energy -1041032.343386 kJ/mol
# GULP energy per Si atom -12393.242183 kJ/mol
# Density = 2.024835 g / cm^3
# Si number density = 20.294545 Si / 1000 Ang^3
#
#
#
# Elastic Constant Matrix: (Units=GPa)
#
#
# Indices 1 2 3 4 5 6 
#
# 1 80.1575 37.4955 35.9606 0.0000 -12.6184 0.0000
# 2 37.4955 80.1575 35.9606 0.0000 12.6184 0.0000
# 3 35.9606 35.9606 152.8147 0.0000 0.0000 0.0000
# 4 0.0000 0.0000 0.0000 6.8058 0.0000 12.6184
# 5 -12.6184 12.6184 0.0000 0.0000 6.8058 0.0000
# 6 0.0000 0.0000 0.0000 12.6184 0.0000 21.3310
#
#
#
# Elastic Compliance Matrix: (Units=1/GPa)
#
#
# Indices 1 2 3 4 5 6 
#
# 1 -0.116149 0.126076 -0.002336 0.000001 -0.449098 0.000000
# 2 0.126076 -0.116149 -0.002336 -0.000001 0.449098 0.000000
# 3 -0.002336 -0.002336 0.007643 0.000000 0.000000 0.000000
# 4 0.000001 -0.000001 0.000000 -1.518372 0.000000 0.898196
# 5 -0.449098 0.449098 0.000000 0.000000 -1.518372 0.000002
# 6 0.000000 0.000000 0.000000 0.898196 0.000002 -0.484450
#
#
# Mechanical properties :
#
#
# Convention : Reuss Voigt Hill
#
# Bulk Modulus (GPa) = 55.08436 59.10699 57.09568
# Shear Modulus (GPa) = -1.25546 20.56941 9.65698
#
# Velocity S-wave (km/s) = -0.78738 3.18707 2.18374
# Velocity P-wave (km/s) = 5.13564 6.53690 5.87817
#
# Compressibility (1/GPa) = 0.01815397
#
# Stress axis : x y z
#
# Youngs Moduli (GPa) = -8.60967 -8.60967 130.83200
#
# Poissons Ratio (x) = 1.08547 0.30565
# Poissons Ratio (y) = 1.08547 0.30565
# Poissons Ratio (z) = -0.02011 -0.02011
#
# Static dielectric constant tensor:
#      x y z
#    x 3.524600 0.000000 0.000000 
#    y 0.000000 3.524600 0.000000 
#    z 0.000000 0.000000 3.975670 
# 
# 
# High freq. dielectric constant tensor:
#      x y z
#    x 1.772470 0.000000 0.000000 
#    y 0.000000 1.772470 0.000000 
#    z 0.000000 0.000000 1.820190 
# 
# From -- ./inp_files/3200.got.cif
#   From: 2010.03.12/outbox.cif.g09.slc.cpg/sg162_2_cif.got.tgz:3200.got - 2010.04.02 06:27:41.
