data_PCOD8323198
_publ_section_title
;
Structure prediction by ZEFSAII (Michael W. Deem and Ramdas Pophale) SiO2 
 PCOD8323198
Probable space group: P -3 1 C
;
_chemical_formula_sum "Si O2"
_cell_formula_units_Z 84
_cell_length_a 21.632003
_cell_length_b 21.632003
_cell_length_c 11.741783
_cell_angle_alpha 90.000000
_cell_angle_beta 90.000000
_cell_angle_gamma 120.000000
_cell_volume 4758.369363
_symmetry_space_group_name_H-M "P -3 1 C"
_symmetry_group_IT_number 163
_symmetry_cell_setting 'hexagonal'
loop_
_space_group_symop_operation_xyz
x,y,z
-y,x-y,z
-x+y,-x,z
-y,-x,1/2-z
-x+y,y,1/2-z
x,x-y,1/2-z
-x,-y,-z
y,-x+y,-z
x-y,x,-z
y,x,1/2+z
x-y,-y,1/2+z
-x,-x+y,1/2+z
loop_
_atom_site_type_symbol
_atom_site_label
_atom_site_fract_x
_atom_site_fract_y
_atom_site_fract_z
Si Si1 0.881104 0.316679 0.033408
Si Si2 0.747817 0.631941 0.719214
Si Si3 0.473650 0.401019 0.686823
Si Si4 0.941173 0.223317 0.933582
Si Si5 0.756829 0.188119 0.128912
Si Si6 0.386351 0.478311 0.724155
Si Si7 0.097953 0.294133 0.989354
O O1 0.796854 0.253196 0.037128
O O2 0.909326 0.349857 0.157138
O O3 0.892236 0.376537 0.939730
O O4 0.928560 0.281462 0.998611
O O5 0.801283 0.602565 0.750000
O O6 0.668005 0.568137 0.734776
O O7 0.767506 0.700183 0.799382
O O8 0.753627 0.655599 0.589857
O O9 0.548685 0.451316 0.750000
O O10 0.429423 0.442177 0.672467
O O11 0.018681 0.233971 0.957306
O O12 0.886473 0.143025 0.974805
O O13 0.775848 0.224153 0.250000
O O14 0.670297 0.142621 0.127344
O O15 0.786997 0.133658 0.117545
O O16 0.438492 0.561509 0.750000
#
# Coordination Sequence:
#
# PCOD8323198 Si02
#       7
#    12  12  12  12  12  12  12
#     4   9  18  33  47  67  98 128 162 200 235 284
#     4   9  18  32  48  69  96 127 159 192 237 287
#     4  10  20  31  48  75 101 125 156 196 246 300
#     4   9  18  30  48  70  96 127 160 195 237 286
#     4   9  18  32  50  70  94 126 163 200 239 283
#     4  10  20  31  48  73  99 126 157 196 248 299
#     4  10  18  30  49  71  97 127 157 198 239 278
#
# _framework density 17.653106000000001
#
# number of rings (size 3 to 8) (size 9 to 14) (size 15 to 20)
#    0.000    2.571    0.000    3.429    0.000    5.714 
#    0.000    0.000    0.000    8.286    0.000    6.000 
#    0.000    3.429    0.000    0.000    0.000    0.143 
#
# Total GULP energy -1041118.986016 kJ/mol
# GULP energy per Si atom -12394.273643 kJ/mol
# Density = 1.761293 g / cm^3
# Si number density = 17.653106 Si / 1000 Ang^3
#
#
#
# Elastic Constant Matrix: (Units=GPa)
#
#
# Indices 1 2 3 4 5 6 
#
# 1 98.2914 46.7123 16.6858 -0.0001 1.8240 0.0000
# 2 46.7123 98.2914 16.6858 0.0001 -1.8240 0.0000
# 3 16.6858 16.6858 40.0986 0.0000 0.0000 0.0000
# 4 -0.0001 0.0001 0.0000 22.2816 0.0000 -1.8240
# 5 1.8240 -1.8240 0.0000 0.0000 22.2816 -0.0001
# 6 0.0000 0.0000 0.0000 -1.8240 -0.0001 25.7896
#
#
#
# Elastic Compliance Matrix: (Units=1/GPa)
#
#
# Indices 1 2 3 4 5 6 
#
# 1 0.013564 -0.005937 -0.003174 0.000000 -0.001596 0.000000
# 2 -0.005937 0.013564 -0.003174 0.000000 0.001596 0.000000
# 3 -0.003174 -0.003174 0.027580 0.000000 0.000000 0.000000
# 4 0.000000 0.000000 0.000000 0.045141 0.000000 0.003193
# 5 -0.001596 0.001596 0.000000 0.000000 0.045141 0.000000
# 6 0.000000 0.000000 0.000000 0.003193 0.000000 0.039001
#
#
# Mechanical properties :
#
#
# Convention : Reuss Voigt Hill
#
# Bulk Modulus (GPa) = 33.17989 44.09435 38.63712
# Shear Modulus (GPa) = 22.87221 24.51039 23.69130
#
# Velocity S-wave (km/s) = 3.60342 3.73023 3.66737
# Velocity P-wave (km/s) = 6.01241 6.60191 6.31405
#
# Compressibility (1/GPa) = 0.03013873
#
# Stress axis : x y z
#
# Youngs Moduli (GPa) = 73.72631 73.72631 36.25843
#
# Poissons Ratio (x) = 0.43771 0.11507
# Poissons Ratio (y) = 0.43771 0.11507
# Poissons Ratio (z) = 0.23398 0.23398
#
# Static dielectric constant tensor:
#      x y z
#    x 3.313990 0.000000 0.000000 
#    y 0.000000 3.313990 0.000000 
#    z 0.000000 0.000000 3.430550 
# 
# 
# High freq. dielectric constant tensor:
#      x y z
#    x 1.664630 0.000000 0.000000 
#    y 0.000000 1.664630 0.000000 
#    z 0.000000 0.000000 1.688860 
# 
# From -- ./inp_files/1854.got.cif
#   From: 2010.03.12/outbox.cif.g09.slc.cpg/sg163_1_cif.got.tgz:1854.got - 2010.04.02 06:30:25.
