data_PCOD8323586
_publ_section_title
;
Structure prediction by ZEFSAII (Michael W. Deem and Ramdas Pophale) SiO2 
 PCOD8323586
Probable space group: P -3 M 1
;
_chemical_formula_sum "Si O2"
_cell_formula_units_Z 96
_cell_length_a 17.157692
_cell_length_b 17.157692
_cell_length_c 20.853011
_cell_angle_alpha 90.000000
_cell_angle_beta 90.000000
_cell_angle_gamma 120.000000
_cell_volume 5316.393753
_symmetry_space_group_name_H-M "P -3 M 1"
_symmetry_group_IT_number 164
_symmetry_cell_setting 'hexagonal'
loop_
_space_group_symop_operation_xyz
x,y,z
-y,x-y,z
-x+y,-x,z
x-y,-y,-z
-x,-x+y,-z
y,x,-z
-x,-y,-z
y,-x+y,-z
x-y,x,-z
-x+y,y,z
x,x-y,z
-y,-x,z
loop_
_atom_site_type_symbol
_atom_site_label
_atom_site_fract_x
_atom_site_fract_y
_atom_site_fract_z
Si Si1 0.758576 0.693968 0.815607
Si Si2 0.723363 0.101834 0.246375
Si Si3 0.378144 0.275839 0.632205
Si Si4 0.155262 0.487286 0.243709
Si Si5 0.666603 0.154211 0.126094
Si Si6 0.905537 0.269300 0.387147
Si Si7 0.842496 0.331365 0.502705
Si Si8 0.698889 0.757952 0.936614
O O1 0.863265 0.726529 0.802128
O O2 0.716412 0.724287 0.757863
O O3 0.700694 0.584119 0.815293
O O4 0.751125 0.738616 0.880700
O O5 0.822149 0.177851 0.223924
O O6 0.654324 0.105900 0.195597
O O7 0.702020 0.118746 0.318798
O O8 0.344710 0.172355 0.649114
O O9 0.438789 0.338057 0.691052
O O10 0.288952 0.281963 0.618641
O O11 0.436668 0.306188 0.568644
O O12 0.261020 0.522039 0.254213
O O13 0.141644 0.570822 0.227130
O O14 0.571679 0.143357 0.105176
O O15 0.740228 0.259773 0.130517
O O16 0.696685 0.105245 0.073555
O O17 0.836687 0.163314 0.400657
O O18 0.901920 0.330188 0.443624
O O19 0.861339 0.430670 0.508744
O O20 0.737983 0.262017 0.487552
O O21 0.726876 0.863438 0.938537
O O22 0.728635 0.728635 0.000000
#
# Coordination Sequence:
#
# PCOD8323586 Si02
#       8
#    12  12  12  12  12  12  12  12
#     4  10  19  33  55  80 104 136 175 212 259 308
#     4   9  18  33  50  71 101 138 177 218 270 321
#     4  10  20  35  53  75 100 136 183 226 276 330
#     4  10  20  33  51  77 108 143 181 223 268 313
#     4   9  18  32  51  76 106 140 178 218 258 301
#     4  10  20  34  50  73 103 137 176 225 279 329
#     4  10  21  35  51  72 103 140 180 224 275 328
#     4  10  21  38  59  83 110 142 174 209 255 308
#
# _framework density 18.057352999999999
#
# number of rings (size 3 to 8) (size 9 to 14) (size 15 to 20)
#    0.000    2.250    1.250    2.625    0.000    4.250 
#    0.000    1.250    0.000    6.500    0.000    1.750 
#    0.000    3.000    0.000    0.000    0.000    0.000 
#
# Total GULP energy -1189700.492287 kJ/mol
# GULP energy per Si atom -12392.713461 kJ/mol
# Density = 1.801625 g / cm^3
# Si number density = 18.057353 Si / 1000 Ang^3
#
#
#
# Elastic Constant Matrix: (Units=GPa)
#
#
# Indices 1 2 3 4 5 6 
#
# 1 108.2194 69.9137 9.0670 -0.7612 0.0000 0.0000
# 2 69.9137 108.2194 9.0670 0.7612 0.0000 0.0000
# 3 9.0670 9.0670 103.3159 0.0000 0.0000 0.0000
# 4 -0.7612 0.7612 0.0000 21.4757 0.0000 0.0000
# 5 0.0000 0.0000 0.0000 0.0000 21.4757 -0.7612
# 6 0.0000 0.0000 0.0000 0.0000 -0.7612 19.1528
#
#
#
# Elastic Compliance Matrix: (Units=1/GPa)
#
#
# Indices 1 2 3 4 5 6 
#
# 1 0.015903 -0.010239 -0.000497 0.000927 0.000000 0.000000
# 2 -0.010239 0.015903 -0.000497 -0.000927 0.000000 0.000000
# 3 -0.000497 -0.000497 0.009766 0.000000 0.000000 0.000000
# 4 0.000927 -0.000927 0.000000 0.046630 0.000000 0.000000
# 5 0.000000 0.000000 0.000000 0.000000 0.046630 0.001853
# 6 0.000000 0.000000 0.000000 0.000000 0.001853 0.052285
#
#
# Mechanical properties :
#
#
# Convention : Reuss Voigt Hill
#
# Bulk Modulus (GPa) = 52.33781 55.09446 53.71613
# Shear Modulus (GPa) = 23.15309 27.86798 25.51053
#
# Velocity S-wave (km/s) = 3.58466 3.93275 3.76273
# Velocity P-wave (km/s) = 6.79560 7.15536 6.97780
#
# Compressibility (1/GPa) = 0.01910665
#
# Stress axis : x y z
#
# Youngs Moduli (GPa) = 62.87927 62.87927 102.39290
#
# Poissons Ratio (x) = 0.64383 0.05090
# Poissons Ratio (y) = 0.64383 0.05090
# Poissons Ratio (z) = 0.03126 0.03126
#
# Static dielectric constant tensor:
#      x y z
#    x 3.337240 0.000000 0.000000 
#    y 0.000000 3.337240 0.000000 
#    z 0.000000 0.000000 3.469560 
# 
# 
# High freq. dielectric constant tensor:
#      x y z
#    x 1.690150 0.000000 0.000000 
#    y 0.000000 1.690150 0.000000 
#    z 0.000000 0.000000 1.701150 
# 
# From -- ./inp_files/4739.got.cif
#   From: 2010.03.12/outbox.cif.g09.slc.cpg/sg164_3_cif.got.tgz:4739.got - 2010.04.02 06:32:59.
