data_PCOD8323010
_publ_section_title
;
Structure prediction by ZEFSAII (Michael W. Deem and Ramdas Pophale) SiO2 
 PCOD8323010
Probable space group: P -3 1 M 
;
_chemical_formula_sum "Si O2"
_cell_formula_units_Z 60
_cell_length_a 16.595659
_cell_length_b 16.595659
_cell_length_c 13.395522
_cell_angle_alpha 90.000000
_cell_angle_beta 90.000000
_cell_angle_gamma 120.000000
_cell_volume 3195.061917
_symmetry_space_group_name_H-M "P -3 1 M "
_symmetry_group_IT_number 162
_symmetry_cell_setting 'hexagonal'
loop_
_space_group_symop_operation_xyz
x,y,z
-y,x-y,z
-x+y,-x,z
-y,-x,-z
-x+y,y,-z
x,x-y,-z
-x,-y,-z
y,-x+y,-z
x-y,x,-z
y,x,z
x-y,-y,z
-x,-x+y,z
loop_
_atom_site_type_symbol
_atom_site_label
_atom_site_fract_x
_atom_site_fract_y
_atom_site_fract_z
Si Si1 0.107013 0.345568 0.582828
Si Si2 0.806206 0.635096 0.112217
Si Si3 0.453977 0.345954 0.240280
Si Si4 0.792007 0.896105 0.742939
Si Si5 0.483411 0.594118 0.104216
O O1 0.186778 0.373555 0.500000
O O2 0.144239 0.439049 0.652292
O O3 0.106028 0.263497 0.645256
O O4 0.000000 0.307669 0.542913
O O5 0.875850 0.602827 0.153721
O O6 0.822241 0.724161 0.174867
O O7 0.702353 0.549829 0.121292
O O8 0.834265 0.668530 0.000000
O O9 0.409978 0.409978 0.254545
O O10 0.558917 0.411267 0.198758
O O11 0.845342 0.845342 0.788244
O O12 0.866508 0.000000 0.710050
O O13 0.543642 0.543642 0.102343
O O14 0.426657 0.573344 0.000000
#
# Coordination Sequence:
#
# PCOD8323010 Si02
#       5
#    12  12  12  12  12
#     4   9  17  31  54  79 105 138 182 229 277 327
#     4  11  20  32  51  76 103 139 179 222 264 327
#     4   9  19  35  51  74 106 140 173 214 269 326
#     4  10  21  34  50  74 107 145 186 228 272 322
#     4  10  19  32  51  73 103 139 174 217 269 322
#
# _framework density 18.778980000000001
#
# number of rings (size 3 to 8) (size 9 to 14) (size 15 to 20)
#    0.000    2.200    2.000    3.200    0.000    2.400 
#    1.200    1.000    0.000    9.200    0.000   18.200 
#    0.000    0.000    0.000    0.000    0.000    0.000 
#
# Total GULP energy -743441.086941 kJ/mol
# GULP energy per Si atom -12390.684782 kJ/mol
# Density = 1.873624 g / cm^3
# Si number density = 18.778980 Si / 1000 Ang^3
#
#
#
# Elastic Constant Matrix: (Units=GPa)
#
#
# Indices 1 2 3 4 5 6 
#
# 1 56.3852 35.2414 36.6580 -0.0001 -9.0019 0.0000
# 2 35.2414 56.3852 36.6580 0.0001 9.0019 0.0000
# 3 36.6580 36.6580 104.5116 0.0000 0.0000 0.0000
# 4 -0.0001 0.0001 0.0000 20.3633 0.0000 9.0019
# 5 -9.0019 9.0019 0.0000 0.0000 20.3633 -0.0001
# 6 0.0000 0.0000 0.0000 9.0019 -0.0001 10.5719
#
#
#
# Elastic Compliance Matrix: (Units=1/GPa)
#
#
# Indices 1 2 3 4 5 6 
#
# 1 0.045508 -0.030336 -0.005322 0.000000 0.033529 0.000000
# 2 -0.030336 0.045508 -0.005322 0.000000 -0.033529 0.000000
# 3 -0.005322 -0.005322 0.013302 0.000000 0.000000 0.000000
# 4 0.000000 0.000000 0.000000 0.078752 0.000000 -0.067057
# 5 0.033529 -0.033529 0.000000 0.000000 0.078752 0.000001
# 6 0.000000 0.000000 0.000000 -0.067057 0.000001 0.151690
#
#
# Mechanical properties :
#
#
# Convention : Reuss Voigt Hill
#
# Bulk Modulus (GPa) = 44.72486 48.26630 46.49558
# Shear Modulus (GPa) = 9.94187 17.50800 13.72493
#
# Velocity S-wave (km/s) = 2.30340 3.05670 2.70639
# Velocity P-wave (km/s) = 5.56258 6.18191 5.88041
#
# Compressibility (1/GPa) = 0.02235893
#
# Stress axis : x y z
#
# Youngs Moduli (GPa) = 21.97395 21.97395 75.17935
#
# Poissons Ratio (x) = 0.66661 0.40008
# Poissons Ratio (y) = 0.66661 0.40008
# Poissons Ratio (z) = 0.11694 0.11694
#
# Static dielectric constant tensor:
#      x y z
#    x 3.524230 0.000000 0.000000 
#    y 0.000000 3.524230 0.000000 
#    z 0.000000 0.000000 3.520360 
# 
# 
# High freq. dielectric constant tensor:
#      x y z
#    x 1.721500 0.000000 0.000000 
#    y 0.000000 1.721500 0.000000 
#    z 0.000000 0.000000 1.714810 
# 
# From -- ./inp_files/2287.got.cif
#   From: 2010.03.12/outbox.cif.g09.slc.cpg/sg162_2_cif.got.tgz:2287.got - 2010.04.02 06:27:41.
