data_PCOD8323595
_publ_section_title
;
Structure prediction by ZEFSAII (Michael W. Deem and Ramdas Pophale) SiO2 
 PCOD8323595
Probable space group: P -3 M 1
;
_chemical_formula_sum "Si O2"
_cell_formula_units_Z 30
_cell_length_a 16.401665
_cell_length_b 16.401665
_cell_length_c 5.293729
_cell_angle_alpha 90.000000
_cell_angle_beta 90.000000
_cell_angle_gamma 120.000000
_cell_volume 1233.298522
_symmetry_space_group_name_H-M "P -3 M 1"
_symmetry_group_IT_number 164
_symmetry_cell_setting 'hexagonal'
loop_
_space_group_symop_operation_xyz
x,y,z
-y,x-y,z
-x+y,-x,z
x-y,-y,-z
-x,-x+y,-z
y,x,-z
-x,-y,-z
y,-x+y,-z
x-y,x,-z
-x+y,y,z
x,x-y,z
-y,-x,z
loop_
_atom_site_type_symbol
_atom_site_label
_atom_site_fract_x
_atom_site_fract_y
_atom_site_fract_z
Si Si1 0.096093 0.377850 0.693219
Si Si2 0.475751 0.334831 0.810486
Si Si3 0.000000 0.184467 0.500000
O O1 0.206389 0.412778 0.682609
O O2 0.074615 0.411422 0.421057
O O3 0.036635 0.263550 0.721115
O O4 0.081253 0.428924 0.933811
O O5 0.477806 0.238903 0.814689
O O6 0.581113 0.418888 0.779791
O O7 0.085143 0.170286 0.397466
#
# Coordination Sequence:
#
# PCOD8323595 Si02
#       3
#    12  12   6
#     4   9  20  36  57  86 125 159 193 249 311 348
#     4  10  19  35  58  88 124 168 210 243 279 338
#     4  10  21  42  69  94 116 150 198 252 311 378
#
# _framework density 24.325009999999999
#
# number of rings (size 3 to 8) (size 9 to 14) (size 15 to 20)
#    0.000    2.400    0.000    1.800    0.000    1.600 
#    0.000   16.000    0.000    0.000    0.000   19.600 
#    0.000    0.000    0.000   24.000    0.000    0.000 
#
# Total GULP energy -371812.112042 kJ/mol
# GULP energy per Si atom -12393.737068 kJ/mol
# Density = 2.426965 g / cm^3
# Si number density = 24.325010 Si / 1000 Ang^3
#
#
#
# Elastic Constant Matrix: (Units=GPa)
#
#
# Indices 1 2 3 4 5 6 
#
# 1 108.3969 24.2195 77.6245 -15.6933 0.0000 0.0000
# 2 24.2195 108.3969 77.6245 15.6933 0.0000 0.0000
# 3 77.6245 77.6245 189.1897 0.0000 0.0000 0.0000
# 4 -15.6933 15.6933 0.0000 10.7756 0.0000 0.0000
# 5 0.0000 0.0000 0.0000 0.0000 10.7756 -15.6933
# 6 0.0000 0.0000 0.0000 0.0000 -15.6933 42.0887
#
#
#
# Elastic Compliance Matrix: (Units=1/GPa)
#
#
# Indices 1 2 3 4 5 6 
#
# 1 0.020253 -0.005743 -0.005953 0.037860 0.000000 0.000000
# 2 -0.005743 0.020253 -0.005953 -0.037860 0.000000 0.000000
# 3 -0.005953 -0.005953 0.010171 0.000000 0.000000 0.000000
# 4 0.037860 -0.037860 0.000000 0.203080 0.000000 0.000000
# 5 0.000000 0.000000 0.000000 0.000000 0.203080 0.075721
# 6 0.000000 0.000000 0.000000 0.000000 0.075721 0.051993
#
#
# Mechanical properties :
#
#
# Convention : Reuss Voigt Hill
#
# Bulk Modulus (GPa) = 65.03075 84.99118 75.01096
# Shear Modulus (GPa) = 9.10323 27.82899 18.46611
#
# Velocity S-wave (km/s) = 1.93661 3.38605 2.75824
# Velocity P-wave (km/s) = 5.63851 7.09245 6.40685
#
# Compressibility (1/GPa) = 0.01537734
#
# Stress axis : x y z
#
# Youngs Moduli (GPa) = 49.37480 49.37480 98.31755
#
# Poissons Ratio (x) = 0.28357 0.58533
# Poissons Ratio (y) = 0.28357 0.58533
# Poissons Ratio (z) = 0.29395 0.29395
#
# Static dielectric constant tensor:
#      x y z
#    x 4.442730 0.000000 0.000000 
#    y 0.000000 4.442730 0.000000 
#    z 0.000000 0.000000 4.609530 
# 
# 
# High freq. dielectric constant tensor:
#      x y z
#    x 1.978770 0.000000 0.000000 
#    y 0.000000 1.978770 0.000000 
#    z 0.000000 0.000000 1.950430 
# 
# From -- ./inp_files/167.got.cif
#   From: 2010.03.12/outbox.cif.g09.slc.cpg/sg164_1_cif.got.tgz:167.got - 2010.04.02 06:32:59.
