data_PCOD8323031
_publ_section_title
;
Structure prediction by ZEFSAII (Michael W. Deem and Ramdas Pophale) SiO2 
 PCOD8323031
Probable space group: P -3 1 M 
;
_chemical_formula_sum "Si O2"
_cell_formula_units_Z 48
_cell_length_a 24.321599
_cell_length_b 24.321599
_cell_length_c 4.942168
_cell_angle_alpha 90.000000
_cell_angle_beta 90.000000
_cell_angle_gamma 120.000000
_cell_volume 2531.817420
_symmetry_space_group_name_H-M "P -3 1 M "
_symmetry_group_IT_number 162
_symmetry_cell_setting 'hexagonal'
loop_
_space_group_symop_operation_xyz
x,y,z
-y,x-y,z
-x+y,-x,z
-y,-x,-z
-x+y,y,-z
x,x-y,-z
-x,-y,-z
y,-x+y,-z
x-y,x,-z
y,x,z
x-y,-y,z
-x,-x+y,z
loop_
_atom_site_type_symbol
_atom_site_label
_atom_site_fract_x
_atom_site_fract_y
_atom_site_fract_z
Si Si1 0.000000 0.872124 0.537486
Si Si2 0.072301 0.409142 0.593074
Si Si3 0.000000 0.206945 0.946118
Si Si4 0.126422 0.802027 0.247330
Si Si5 0.928544 0.408792 0.111271
O O1 0.059462 0.940539 0.500000
O O2 0.000000 0.833399 0.292322
O O3 0.000000 0.831484 0.792108
O O4 0.116447 0.377689 0.605094
O O5 0.102207 0.468252 0.380080
O O6 0.000000 0.357167 0.504603
O O7 0.072261 0.434092 0.888346
O O8 0.063026 0.274901 0.914130
O O9 0.147606 0.852395 0.500000
O O10 0.176853 0.823148 0.000000
O O11 0.000000 0.462225 0.192776
O O12 0.893432 0.446716 0.000000
#
# Coordination Sequence:
#
# PCOD8323031 Si02
#       5
#     6  12   6  12  12
#     4  12  25  42  62  80  98 120 159 230 317 390
#     4  10  19  34  51  75 108 141 180 222 269 322
#     4  12  24  42  59  78 101 134 182 234 283 366
#     4  12  24  38  56  79 105 145 191 236 291 346
#     4   9  17  29  51  78 107 140 173 207 248 305
#
# _framework density 18.958712999999999
#
# number of rings (size 3 to 8) (size 9 to 14) (size 15 to 20)
#    0.000    1.250    1.250    6.875    0.000    3.000 
#    0.000    1.250    0.000    0.000    0.000    0.000 
#    0.000    0.000    0.000   63.000    0.000    0.000 
#
# Total GULP energy -594710.466594 kJ/mol
# GULP energy per Si atom -12389.801387 kJ/mol
# Density = 1.891556 g / cm^3
# Si number density = 18.958713 Si / 1000 Ang^3
#
#
#
# Elastic Constant Matrix: (Units=GPa)
#
#
# Indices 1 2 3 4 5 6 
#
# 1 79.8019 38.1604 30.2944 0.0003 -6.3421 0.0000
# 2 38.1604 79.8019 30.2944 -0.0003 6.3421 0.0000
# 3 30.2944 30.2944 123.4582 0.0000 0.0000 0.0000
# 4 0.0003 -0.0003 0.0000 34.0618 0.0000 6.3421
# 5 -6.3421 6.3421 0.0000 0.0000 34.0618 0.0003
# 6 0.0000 0.0000 0.0000 6.3421 0.0003 20.8208
#
#
#
# Elastic Compliance Matrix: (Units=1/GPa)
#
#
# Indices 1 2 3 4 5 6 
#
# 1 0.017579 -0.007879 -0.002380 0.000000 0.004740 0.000000
# 2 -0.007879 0.017579 -0.002380 0.000000 -0.004740 0.000000
# 3 -0.002380 -0.002380 0.009268 0.000000 0.000000 0.000000
# 4 0.000000 0.000000 0.000000 0.031124 0.000000 -0.009480
# 5 0.004740 -0.004740 0.000000 0.000000 0.031124 -0.000001
# 6 0.000000 0.000000 0.000000 -0.009480 -0.000001 0.050917
#
#
# Mechanical properties :
#
#
# Convention : Reuss Voigt Hill
#
# Bulk Modulus (GPa) = 52.22757 53.39561 52.81159
# Shear Modulus (GPa) = 26.41985 30.07639 28.24812
#
# Velocity S-wave (km/s) = 3.73707 3.98730 3.86421
# Velocity P-wave (km/s) = 6.79918 7.03018 6.91564
#
# Compressibility (1/GPa) = 0.01914698
#
# Stress axis : x y z
#
# Youngs Moduli (GPa) = 56.88580 56.88580 107.89820
#
# Poissons Ratio (x) = 0.44822 0.25681
# Poissons Ratio (y) = 0.44822 0.25681
# Poissons Ratio (z) = 0.13540 0.13540
#
# Static dielectric constant tensor:
#      x y z
#    x 3.379270 0.000000 0.000000 
#    y 0.000000 3.379270 0.000000 
#    z 0.000000 0.000000 3.721320 
# 
# 
# High freq. dielectric constant tensor:
#      x y z
#    x 1.706810 0.000000 0.000000 
#    y 0.000000 1.706810 0.000000 
#    z 0.000000 0.000000 1.768140 
# 
# From -- ./inp_files/507.got.cif
#   From: 2010.03.12/outbox.cif.g09.slc.cpg/sg162_1_cif.got.tgz:507.got - 2010.04.02 06:27:41.
