data_PCOD8323254
_publ_section_title
;
Structure prediction by ZEFSAII (Michael W. Deem and Ramdas Pophale) SiO2 
 PCOD8323254
Probable space group: P -3 1 C
;
_chemical_formula_sum "Si O2"
_cell_formula_units_Z 72
_cell_length_a 14.199638
_cell_length_b 14.199638
_cell_length_c 18.651750
_cell_angle_alpha 90.000000
_cell_angle_beta 90.000000
_cell_angle_gamma 120.000000
_cell_volume 3256.902541
_symmetry_space_group_name_H-M "P -3 1 C"
_symmetry_group_IT_number 163
_symmetry_cell_setting 'hexagonal'
loop_
_space_group_symop_operation_xyz
x,y,z
-y,x-y,z
-x+y,-x,z
-y,-x,1/2-z
-x+y,y,1/2-z
x,x-y,1/2-z
-x,-y,-z
y,-x+y,-z
x-y,x,-z
y,x,1/2+z
x-y,-y,1/2+z
-x,-x+y,1/2+z
loop_
_atom_site_type_symbol
_atom_site_label
_atom_site_fract_x
_atom_site_fract_y
_atom_site_fract_z
Si Si1 0.040711 0.677714 0.697131
Si Si2 0.114698 0.362981 0.651083
Si Si3 0.512013 0.125447 0.556379
Si Si4 0.439147 0.549485 0.904447
Si Si5 0.808732 0.760652 0.013517
Si Si6 0.579126 0.730839 0.400235
O O1 0.125913 0.799278 0.672795
O O2 0.040180 0.677208 0.783205
O O3 0.082902 0.601002 0.663217
O O4 0.916711 0.637043 0.671946
O O5 0.177068 0.489587 0.621568
O O6 0.037507 0.272524 0.594100
O O7 0.529862 0.162524 0.471646
O O8 0.439313 0.166851 0.597290
O O9 0.628570 0.170286 0.592950
O O10 0.442836 0.996897 0.563656
O O11 0.794965 0.860774 0.990648
O O12 0.734172 0.656619 0.964217
#
# Coordination Sequence:
#
# PCOD8323254 Si02
#       6
#    12  12  12  12  12  12
#     4  10  23  39  65  95 135 182 228 283 355 429
#     4  11  21  42  65  93 135 176 228 289 356 415
#     4  10  21  34  62  95 133 168 224 282 341 410
#     4  10  20  37  58  95 127 173 222 280 342 406
#     4  12  24  42  68  99 134 183 242 305 357 420
#     4  11  21  40  64 102 139 181 231 290 351 420
#
# _framework density 22.106894
#
# number of rings (size 3 to 8) (size 9 to 14) (size 15 to 20)
#    0.000    1.333    3.333    3.000    2.333    0.000 
#    1.000    3.333    0.000    0.000    0.000    7.000 
#    0.000    0.000    0.000    0.000    0.000    0.000 
#
# Total GULP energy -892287.808778 kJ/mol
# GULP energy per Si atom -12392.886233 kJ/mol
# Density = 2.205658 g / cm^3
# Si number density = 22.106894 Si / 1000 Ang^3
#
#
#
# Elastic Constant Matrix: (Units=GPa)
#
#
# Indices 1 2 3 4 5 6 
#
# 1 92.8506 22.8985 46.2700 0.0000 -1.1779 0.0000
# 2 22.8985 92.8506 46.2700 0.0000 1.1779 0.0000
# 3 46.2700 46.2700 142.9246 0.0000 0.0000 0.0000
# 4 0.0000 0.0000 0.0000 33.5485 0.0000 1.1779
# 5 -1.1779 1.1779 0.0000 0.0000 33.5485 0.0000
# 6 0.0000 0.0000 0.0000 1.1779 0.0000 34.9760
#
#
#
# Elastic Compliance Matrix: (Units=1/GPa)
#
#
# Indices 1 2 3 4 5 6 
#
# 1 0.012984 -0.001328 -0.003774 0.000000 0.000502 0.000000
# 2 -0.001328 0.012984 -0.003774 0.000000 -0.000502 0.000000
# 3 -0.003774 -0.003774 0.009440 0.000000 0.000000 0.000000
# 4 0.000000 0.000000 0.000000 0.029843 0.000000 -0.001005
# 5 0.000502 -0.000502 0.000000 0.000000 0.029843 0.000000
# 6 0.000000 0.000000 0.000000 -0.001005 0.000000 0.028625
#
#
# Mechanical properties :
#
#
# Convention : Reuss Voigt Hill
#
# Bulk Modulus (GPa) = 56.63064 62.16698 59.39881
# Shear Modulus (GPa) = 33.93148 34.62710 34.27929
#
# Velocity S-wave (km/s) = 3.92201 3.96201 3.94206
# Velocity P-wave (km/s) = 6.79572 7.00800 6.90268
#
# Compressibility (1/GPa) = 0.01765829
#
# Stress axis : x y z
#
# Youngs Moduli (GPa) = 77.01572 77.01572 105.93235
#
# Poissons Ratio (x) = 0.10228 0.39974
# Poissons Ratio (y) = 0.10228 0.39974
# Poissons Ratio (z) = 0.29062 0.29062
#
# Static dielectric constant tensor:
#      x y z
#    x 3.948540 0.000000 0.000000 
#    y 0.000000 3.948540 0.000000 
#    z 0.000000 0.000000 4.202480 
# 
# 
# High freq. dielectric constant tensor:
#      x y z
#    x 1.865140 0.000000 0.000000 
#    y 0.000000 1.865140 0.000000 
#    z 0.000000 0.000000 1.863350 
# 
# From -- ./inp_files/3155.got.cif
#   From: 2010.03.12/outbox.cif.g09.slc.cpg/sg163_2_cif.got.tgz:3155.got - 2010.04.02 06:30:25.
