data_PCOD8323132
_publ_section_title
;
Structure prediction by ZEFSAII (Michael W. Deem and Ramdas Pophale) SiO2 
 PCOD8323132
Probable space group: P -3 1 M 
;
_chemical_formula_sum "Si O2"
_cell_formula_units_Z 72
_cell_length_a 14.566426
_cell_length_b 14.566426
_cell_length_c 19.427862
_cell_angle_alpha 90.000000
_cell_angle_beta 90.000000
_cell_angle_gamma 120.000000
_cell_volume 3569.946070
_symmetry_space_group_name_H-M "P -3 1 M "
_symmetry_group_IT_number 162
_symmetry_cell_setting 'hexagonal'
loop_
_space_group_symop_operation_xyz
x,y,z
-y,x-y,z
-x+y,-x,z
-y,-x,-z
-x+y,y,-z
x,x-y,-z
-x,-y,-z
y,-x+y,-z
x-y,x,-z
y,x,z
x-y,-y,z
-x,-x+y,z
loop_
_atom_site_type_symbol
_atom_site_label
_atom_site_fract_x
_atom_site_fract_y
_atom_site_fract_z
Si Si1 0.430229 0.550811 0.925697
Si Si2 0.879123 0.219022 0.426354
Si Si3 0.294733 0.876994 0.825912
Si Si4 0.876994 0.582261 0.325912
Si Si5 0.569772 0.120582 0.574304
Si Si6 0.879123 0.219023 0.073646
O O1 0.526243 0.526243 0.934295
O O2 0.471558 0.646157 0.869784
O O3 0.323557 0.447326 0.903167
O O4 0.411049 0.588952 0.000000
O O5 0.826015 0.173986 0.500000
O O6 0.809083 0.137113 0.366661
O O7 0.876231 0.323556 0.403167
O O8 0.000000 0.242137 0.426758
O O9 0.263374 0.823442 0.750000
O O10 0.190916 0.862886 0.866661
O O11 0.374670 0.000000 0.815709
O O12 0.825401 0.471558 0.369784
O O13 0.000000 0.625329 0.315709
O O14 0.588952 0.177903 0.500000
O O15 0.473758 0.000000 0.565706
O O16 0.000000 0.242138 0.073241
O O17 0.826014 0.173987 0.000000
#
# Coordination Sequence:
#
# PCOD8323132 Si02
#       6
#    12  12  12  12  12  12
#     4   9  17  33  56  79 106 141 181 229 285 344
#     4  11  21  35  60  88 117 154 199 244 292 351
#     4  10  21  38  58  82 117 157 195 241 297 354
#     4  10  21  38  58  82 117 157 195 241 297 354
#     4   9  17  33  56  79 106 141 181 229 285 344
#     4  11  21  35  60  88 117 154 199 244 292 351
#
# _framework density 20.168372000000002
#
# number of rings (size 3 to 8) (size 9 to 14) (size 15 to 20)
#    0.000    2.000    3.333    1.000    0.000    2.000 
#    2.000    5.000    0.000    6.000    0.000    0.000 
#    0.000    0.000    0.000    0.000    0.000    0.000 
#
# Total GULP energy -892169.355276 kJ/mol
# GULP energy per Si atom -12391.241045 kJ/mol
# Density = 2.012247 g / cm^3
# Si number density = 20.168372 Si / 1000 Ang^3
#
#
#
# Elastic Constant Matrix: (Units=GPa)
#
#
# Indices 1 2 3 4 5 6 
#
# 1 61.1271 13.3925 37.6606 0.0000 0.0000 0.0000
# 2 13.3925 61.1271 37.6606 0.0000 0.0000 0.0000
# 3 37.6606 37.6606 199.6674 0.0000 0.0000 0.0000
# 4 0.0000 0.0000 0.0000 21.6622 0.0000 0.0000
# 5 0.0000 0.0000 0.0000 0.0000 21.6622 0.0000
# 6 0.0000 0.0000 0.0000 0.0000 0.0000 23.8673
#
#
#
# Elastic Compliance Matrix: (Units=1/GPa)
#
#
# Indices 1 2 3 4 5 6 
#
# 1 0.018765 -0.002184 -0.003127 0.000000 0.000000 0.000000
# 2 -0.002184 0.018765 -0.003127 0.000000 0.000000 0.000000
# 3 -0.003127 -0.003127 0.006188 0.000000 0.000000 0.000000
# 4 0.000000 0.000000 0.000000 0.046163 0.000000 0.000000
# 5 0.000000 0.000000 0.000000 0.000000 0.046163 0.000000
# 6 0.000000 0.000000 0.000000 0.000000 0.000000 0.041898
#
#
# Mechanical properties :
#
#
# Convention : Reuss Voigt Hill
#
# Bulk Modulus (GPa) = 37.25883 55.48322 46.37103
# Shear Modulus (GPa) = 24.53780 28.98552 26.76166
#
# Velocity S-wave (km/s) = 3.49183 3.79512 3.64663
# Velocity P-wave (km/s) = 5.89671 6.83913 6.38533
#
# Compressibility (1/GPa) = 0.02683927
#
# Stress axis : x y z
#
# Youngs Moduli (GPa) = 53.29158 53.29158 161.60171
#
# Poissons Ratio (x) = 0.11641 0.50538
# Poissons Ratio (y) = 0.11641 0.50538
# Poissons Ratio (z) = 0.16666 0.16666
#
# Static dielectric constant tensor:
#      x y z
#    x 3.533100 0.000000 0.000000 
#    y 0.000000 3.533100 0.000000 
#    z 0.000000 0.000000 4.091890 
# 
# 
# High freq. dielectric constant tensor:
#      x y z
#    x 1.762370 0.000000 0.000000 
#    y 0.000000 1.762370 0.000000 
#    z 0.000000 0.000000 1.794830 
# 
# From -- ./inp_files/3509.got.cif
#   From: 2010.03.12/outbox.cif.g09.slc.cpg/sg162_2_cif.got.tgz:3509.got - 2010.04.02 06:27:41.
