data_PCOD8323786
_publ_section_title
;
Structure prediction by ZEFSAII (Michael W. Deem and Ramdas Pophale) SiO2 
 PCOD8323786
Probable space group: P -3 M 1
;
_chemical_formula_sum "Si O2"
_cell_formula_units_Z 78
_cell_length_a 23.122881
_cell_length_b 23.122881
_cell_length_c 9.946975
_cell_angle_alpha 90.000000
_cell_angle_beta 90.000000
_cell_angle_gamma 120.000000
_cell_volume 4605.804994
_symmetry_space_group_name_H-M "P -3 M 1"
_symmetry_group_IT_number 164
_symmetry_cell_setting 'hexagonal'
loop_
_space_group_symop_operation_xyz
x,y,z
-y,x-y,z
-x+y,-x,z
x-y,-y,-z
-x,-x+y,-z
y,x,-z
-x,-y,-z
y,-x+y,-z
x-y,x,-z
-x+y,y,z
x,x-y,z
-y,-x,z
loop_
_atom_site_type_symbol
_atom_site_label
_atom_site_fract_x
_atom_site_fract_y
_atom_site_fract_z
Si Si1 0.731322 0.932045 0.862670
Si Si2 0.741792 0.612232 0.623712
Si Si3 0.134363 0.134363 0.000000
Si Si4 0.467425 0.404557 0.907757
Si Si5 0.464918 0.058908 0.601463
Si Si6 0.255816 0.877109 0.071145
Si Si7 0.065602 0.264751 0.566731
O O1 0.711745 0.855872 0.864775
O O2 0.811257 0.979573 0.881822
O O3 0.683051 0.933478 0.980804
O O4 0.716673 0.949870 0.714868
O O5 0.791921 0.583842 0.605090
O O6 0.669516 0.550175 0.586918
O O7 0.757443 0.670764 0.521608
O O8 0.749145 0.643053 0.773131
O O9 0.125299 0.062650 0.956391
O O10 0.547393 0.452608 0.931101
O O11 0.448720 0.413948 0.755710
O O12 0.425788 0.425788 0.000000
O O13 0.445429 0.328229 0.946600
O O14 0.542548 0.085095 0.567060
O O15 0.417993 0.000000 0.500000
O O16 0.198551 0.801450 0.035689
O O17 0.121278 0.242556 0.572881
O O18 0.000000 0.203663 0.500000
#
# Coordination Sequence:
#
# PCOD8323786 Si02
#       7
#    12  12   6  12  12  12  12
#     4   9  20  34  48  70  94 119 154 193 234 281
#     4   9  18  31  48  70  94 123 156 189 231 280
#     4  10  21  36  54  72  93 120 156 198 238 280
#     4   9  18  30  46  69  95 123 154 189 228 273
#     4   9  17  30  47  67  93 123 154 188 225 269
#     4   9  18  32  50  70  94 125 157 192 235 278
#     4  10  21  34  48  68  94 122 153 192 237 283
#
# _framework density 16.93515
#
# number of rings (size 3 to 8) (size 9 to 14) (size 15 to 20)
#    0.000    2.769    0.000    0.538    3.231    3.077 
#    0.000    0.000    0.000    0.769    0.000    4.308 
#    0.000    0.000    0.000   15.385    0.000   16.000 
#
# Total GULP energy -966384.790227 kJ/mol
# GULP energy per Si atom -12389.548593 kJ/mol
# Density = 1.689660 g / cm^3
# Si number density = 16.935150 Si / 1000 Ang^3
#
#
#
# Elastic Constant Matrix: (Units=GPa)
#
#
# Indices 1 2 3 4 5 6 
#
# 1 106.9192 59.9302 51.8014 0.5453 0.0000 0.0000
# 2 59.9302 106.9192 51.8014 -0.5453 0.0000 0.0000
# 3 51.8014 51.8014 105.0996 0.0000 0.0000 0.0000
# 4 0.5453 -0.5453 0.0000 20.0171 0.0000 0.0000
# 5 0.0000 0.0000 0.0000 0.0000 20.0171 0.5453
# 6 0.0000 0.0000 0.0000 0.0000 0.5453 23.4945
#
#
#
# Elastic Compliance Matrix: (Units=1/GPa)
#
#
# Indices 1 2 3 4 5 6 
#
# 1 0.014966 -0.006329 -0.004257 -0.000580 0.000000 0.000000
# 2 -0.006329 0.014966 -0.004257 0.000580 0.000000 0.000000
# 3 -0.004257 -0.004257 0.013711 0.000000 0.000000 0.000000
# 4 -0.000580 0.000580 0.000000 0.049989 0.000000 0.000000
# 5 0.000000 0.000000 0.000000 0.000000 0.049989 -0.001160
# 6 0.000000 0.000000 0.000000 0.000000 -0.001160 0.042590
#
#
# Mechanical properties :
#
#
# Convention : Reuss Voigt Hill
#
# Bulk Modulus (GPa) = 71.64872 71.77822 71.71347
# Shear Modulus (GPa) = 22.67078 23.06610 22.86844
#
# Velocity S-wave (km/s) = 3.66277 3.69457 3.67870
# Velocity P-wave (km/s) = 7.76450 7.78948 7.77700
#
# Compressibility (1/GPa) = 0.01395698
#
# Stress axis : x y z
#
# Youngs Moduli (GPa) = 66.81893 66.81893 72.93425
#
# Poissons Ratio (x) = 0.42291 0.31047
# Poissons Ratio (y) = 0.42291 0.31047
# Poissons Ratio (z) = 0.28444 0.28444
#
# Static dielectric constant tensor:
#      x y z
#    x 3.192400 0.000000 0.000000 
#    y 0.000000 3.192400 0.000000 
#    z 0.000000 0.000000 3.446270 
# 
# 
# High freq. dielectric constant tensor:
#      x y z
#    x 1.639040 0.000000 0.000000 
#    y 0.000000 1.639040 0.000000 
#    z 0.000000 0.000000 1.661550 
# 
# From -- ./inp_files/2061.got.cif
#   From: 2010.03.12/outbox.cif.g09.slc.cpg/sg164_2_cif.got.tgz:2061.got - 2010.04.02 06:32:59.
