data_PCOD8323564
_publ_section_title
;
Structure prediction by ZEFSAII (Michael W. Deem and Ramdas Pophale) SiO2 
 PCOD8323564
Probable space group: P -3 M 1
;
_chemical_formula_sum "Si O2"
_cell_formula_units_Z 54
_cell_length_a 17.905746
_cell_length_b 17.905746
_cell_length_c 12.604983
_cell_angle_alpha 90.000000
_cell_angle_beta 90.000000
_cell_angle_gamma 120.000000
_cell_volume 3499.916918
_symmetry_space_group_name_H-M "P -3 M 1"
_symmetry_group_IT_number 164
_symmetry_cell_setting 'hexagonal'
loop_
_space_group_symop_operation_xyz
x,y,z
-y,x-y,z
-x+y,-x,z
x-y,-y,-z
-x,-x+y,-z
y,x,-z
-x,-y,-z
y,-x+y,-z
x-y,x,-z
-x+y,y,z
x,x-y,z
-y,-x,z
loop_
_atom_site_type_symbol
_atom_site_label
_atom_site_fract_x
_atom_site_fract_y
_atom_site_fract_z
Si Si1 0.310012 0.242531 0.085335
Si Si2 0.333533 0.499524 0.661838
Si Si3 0.666266 0.168551 0.085904
Si Si4 0.177375 0.000000 0.500000
Si Si5 0.689301 0.756121 0.678185
O O1 0.292862 0.146431 0.084940
O O2 0.407377 0.310686 0.048598
O O3 0.292179 0.266268 0.203600
O O4 0.245689 0.245689 0.000000
O O5 0.256688 0.513376 0.615455
O O6 0.425473 0.574528 0.616038
O O7 0.332615 0.505097 0.787859
O O8 0.317980 0.404020 0.632700
O O9 0.573006 0.146011 0.040336
O O10 0.738006 0.261994 0.042001
O O11 0.167005 0.083503 0.509629
O O12 0.232661 0.003258 0.397581
O O13 0.681662 0.840831 0.686221
#
# Coordination Sequence:
#
# PCOD8323564 Si02
#       5
#    12  12  12   6  12
#     4   9  17  28  41  58  81 108 134 159 193 237
#     4   8  12  20  36  58  83 109 135 159 186 224
#     4   8  13  21  35  56  81 108 136 165 194 223
#     4  10  19  32  49  64  76  94 126 166 205 242
#     4   8  16  29  42  59  83 105 125 159 204 236
#
# _framework density 15.428938
#
# number of rings (size 3 to 8) (size 9 to 14) (size 15 to 20)
#    0.000    3.556    0.000    3.222    0.000    3.111 
#    0.000    0.556    0.000    0.222    0.000    0.000 
#    0.000    0.000    0.000    6.667    0.000    1.778 
#
# Total GULP energy -669040.532712 kJ/mol
# GULP energy per Si atom -12389.639495 kJ/mol
# Density = 1.539382 g / cm^3
# Si number density = 15.428938 Si / 1000 Ang^3
#
#
#
# Elastic Constant Matrix: (Units=GPa)
#
#
# Indices 1 2 3 4 5 6 
#
# 1 74.6428 42.6620 37.7180 -4.0653 0.0000 0.0000
# 2 42.6620 74.6428 37.7180 4.0653 0.0000 0.0000
# 3 37.7180 37.7180 58.4321 0.0000 0.0000 0.0000
# 4 -4.0653 4.0653 0.0000 15.6007 0.0000 0.0000
# 5 0.0000 0.0000 0.0000 0.0000 15.6007 -4.0653
# 6 0.0000 0.0000 0.0000 0.0000 -4.0653 15.9904
#
#
#
# Elastic Compliance Matrix: (Units=1/GPa)
#
#
# Indices 1 2 3 4 5 6 
#
# 1 0.024031 -0.009456 -0.009408 0.008726 0.000000 0.000000
# 2 -0.009456 0.024031 -0.009408 -0.008726 0.000000 0.000000
# 3 -0.009408 -0.009408 0.029260 0.000000 0.000000 0.000000
# 4 0.008726 -0.008726 0.000000 0.068647 0.000000 0.000000
# 5 0.000000 0.000000 0.000000 0.000000 0.068647 0.017452
# 6 0.000000 0.000000 0.000000 0.000000 0.017452 0.066975
#
#
# Mechanical properties :
#
#
# Convention : Reuss Voigt Hill
#
# Bulk Modulus (GPa) = 48.12982 49.32373 48.72678
# Shear Modulus (GPa) = 14.49017 15.41303 14.95160
#
# Velocity S-wave (km/s) = 3.06789 3.16408 3.11635
# Velocity P-wave (km/s) = 6.61902 6.73693 6.67824
#
# Compressibility (1/GPa) = 0.02077714
#
# Stress axis : x y z
#
# Youngs Moduli (GPa) = 41.61275 41.61275 34.17662
#
# Poissons Ratio (x) = 0.39350 0.32154
# Poissons Ratio (y) = 0.39350 0.32154
# Poissons Ratio (z) = 0.39150 0.39150
#
# Static dielectric constant tensor:
#      x y z
#    x 3.029140 0.000000 0.000000 
#    y 0.000000 3.029140 0.000000 
#    z 0.000000 0.000000 2.652840 
# 
# 
# High freq. dielectric constant tensor:
#      x y z
#    x 1.584720 0.000000 0.000000 
#    y 0.000000 1.584720 0.000000 
#    z 0.000000 0.000000 1.543730 
# 
# From -- ./inp_files/2607.got.cif
#   From: 2010.03.12/outbox.cif.g09.slc.cpg/sg164_2_cif.got.tgz:2607.got - 2010.04.02 06:32:59.
