data_PCOD8323211
_publ_section_title
;
Structure prediction by ZEFSAII (Michael W. Deem and Ramdas Pophale) SiO2 
 PCOD8323211
Probable space group: P -3 1 C
;
_chemical_formula_sum "Si O2"
_cell_formula_units_Z 80
_cell_length_a 18.144378
_cell_length_b 18.144378
_cell_length_c 20.150084
_cell_angle_alpha 90.000000
_cell_angle_beta 90.000000
_cell_angle_gamma 120.000000
_cell_volume 5745.021555
_symmetry_space_group_name_H-M "P -3 1 C"
_symmetry_group_IT_number 163
_symmetry_cell_setting 'hexagonal'
loop_
_space_group_symop_operation_xyz
x,y,z
-y,x-y,z
-x+y,-x,z
-y,-x,1/2-z
-x+y,y,1/2-z
x,x-y,1/2-z
-x,-y,-z
y,-x+y,-z
x-y,x,-z
y,x,1/2+z
x-y,-y,1/2+z
-x,-x+y,1/2+z
loop_
_atom_site_type_symbol
_atom_site_label
_atom_site_fract_x
_atom_site_fract_y
_atom_site_fract_z
Si Si1 0.067071 0.617605 0.174028
Si Si2 0.524291 0.762147 0.371779
Si Si3 0.666668 0.333335 0.471161
Si Si4 0.617606 0.067070 0.825971
Si Si5 0.938368 0.554512 0.439338
Si Si6 0.237886 0.475769 0.970407
Si Si7 0.666668 0.333334 0.871162
Si Si8 0.445491 0.061635 0.439338
O O1 0.142195 0.712021 0.156192
O O2 0.097204 0.548601 0.158956
O O3 0.039522 0.613915 0.249999
O O4 0.985029 0.594703 0.129750
O O5 0.569830 0.857807 0.343807
O O6 0.527717 0.763861 0.450522
O O7 0.428696 0.714353 0.343521
O O8 0.571597 0.285807 0.443544
O O9 0.666668 0.333334 0.550069
O O10 0.594703 0.985026 0.870247
O O11 0.857902 0.569033 0.442661
O O12 0.908745 0.454374 0.444919
O O13 0.000004 0.604653 0.499998
O O14 0.142103 0.430974 0.942657
#
# Coordination Sequence:
#
# PCOD8323211 Si02
#       8
#    12  12   4  12  12  12   4  12
#     4  10  20  31  42  61  91 122 151 185 226 271
#     4  11  17  28  43  64  93 120 148 186 229 278
#     4   9  18  24  39  70  86 112 150 196 227 256
#     4  10  20  31  42  61  91 122 151 185 226 271
#     4  10  19  30  45  64  87 117 152 188 224 263
#     4  11  18  29  47  67  88 112 154 197 228 257
#     4   9  18  21  37  64  93 121 148 175 227 280
#     4  10  19  30  45  64  87 117 152 188 224 263
#
# _framework density 13.925101
#
# number of rings (size 3 to 8) (size 9 to 14) (size 15 to 20)
#    0.000    1.800    6.000    0.450    0.000    0.000 
#    0.000    0.750    0.000    0.000    0.000    0.000 
#    0.000    0.000    0.000    8.100    0.000    5.100 
#
# Total GULP energy -992037.391042 kJ/mol
# GULP energy per Si atom -12400.467388 kJ/mol
# Density = 1.389341 g / cm^3
# Si number density = 13.925101 Si / 1000 Ang^3
#
#
#
# Elastic Constant Matrix: (Units=GPa)
#
#
# Indices 1 2 3 4 5 6 
#
# 1 85.5599 39.7469 40.1692 0.0000 -0.0003 0.0000
# 2 39.7469 85.5598 40.1693 -0.0001 0.0002 0.0000
# 3 40.1692 40.1693 90.9388 -0.0002 -0.0001 0.0000
# 4 0.0000 -0.0001 -0.0002 17.4945 0.0000 0.0002
# 5 -0.0003 0.0002 -0.0001 0.0000 17.4945 0.0000
# 6 0.0000 0.0000 0.0000 0.0002 0.0000 22.9065
#
#
#
# Elastic Compliance Matrix: (Units=1/GPa)
#
#
# Indices 1 2 3 4 5 6 
#
# 1 0.016481 -0.005347 -0.004918 0.000000 0.000000 0.000000
# 2 -0.005347 0.016481 -0.004918 0.000000 0.000000 0.000000
# 3 -0.004918 -0.004918 0.015341 0.000000 0.000000 0.000000
# 4 0.000000 0.000000 0.000000 0.057161 0.000000 -0.000001
# 5 0.000000 0.000000 0.000000 0.000000 0.057161 0.000000
# 6 0.000000 0.000000 0.000000 -0.000001 0.000000 0.043656
#
#
# Mechanical properties :
#
#
# Convention : Reuss Voigt Hill
#
# Bulk Modulus (GPa) = 55.75222 55.80326 55.77774
# Shear Modulus (GPa) = 20.60796 21.04394 20.82595
#
# Velocity S-wave (km/s) = 3.85114 3.89166 3.87145
# Velocity P-wave (km/s) = 7.73945 7.76880 7.75414
#
# Compressibility (1/GPa) = 0.01793651
#
# Stress axis : x y z
#
# Youngs Moduli (GPa) = 60.67723 60.67718 65.18489
#
# Poissons Ratio (x) = 0.32446 0.32057
# Poissons Ratio (y) = 0.32446 0.32057
# Poissons Ratio (z) = 0.29840 0.29840
#
# Static dielectric constant tensor:
#      x y z
#    x 2.573090 0.000000 0.000000 
#    y 0.000000 2.573090 0.000000 
#    z 0.000000 0.000000 2.680820 
# 
# 
# High freq. dielectric constant tensor:
#      x y z
#    x 1.504700 0.000000 0.000000 
#    y 0.000000 1.504700 0.000000 
#    z 0.000000 0.000000 1.530240 
# 
# From -- ./inp_files/3281.got.cif
#   From: 2010.03.12/outbox.cif.g09.slc.cpg/sg163_2_cif.got.tgz:3281.got - 2010.04.02 06:30:25.
