data_PCOD8323995
_publ_section_title
;
Structure prediction by ZEFSAII (Michael W. Deem and Ramdas Pophale) SiO2 
 PCOD8323995
Probable space group: R -3 M
;
_chemical_formula_sum "Si O2"
_cell_formula_units_Z 216
_cell_length_a 23.870318
_cell_length_b 23.870318
_cell_length_c 24.871850
_cell_angle_alpha 90.000000
_cell_angle_beta 90.000000
_cell_angle_gamma 120.000000
_cell_volume 12273.124251
_symmetry_space_group_name_H-M "R -3 M"
_symmetry_group_IT_number 166
_symmetry_cell_setting 'hexagonal'
loop_
_space_group_symop_operation_xyz
x,y,z
-y,x-y,z
-x+y,-x,z
x-y,-y,-z
-x,-x+y,-z
y,x,-z
-x,-y,-z
y,-x+y,-z
x-y,x,-z
-x+y,y,z
x,x-y,z
-y,-x,z
2/3+x,1/3+y,1/3+z
2/3-y,1/3+x-y,1/3+z
2/3-x+y,1/3-x,1/3+z
2/3+x-y,1/3-y,1/3-z
2/3-x,1/3-x+y,1/3-z
2/3+y,1/3+x,1/3-z
2/3-x,1/3-y,1/3-z
2/3+y,1/3-x+y,1/3-z
2/3+x-y,1/3+x,1/3-z
2/3-x+y,1/3+y,1/3+z
2/3+x,1/3+x-y,1/3+z
2/3-y,1/3-x,1/3+z
1/3+x,2/3+y,2/3+z
1/3-y,2/3+x-y,2/3+z
1/3-x+y,2/3-x,2/3+z
1/3+x-y,2/3-y,2/3-z
1/3-x,2/3-x+y,2/3-z
1/3+y,2/3+x,2/3-z
1/3-x,2/3-y,2/3-z
1/3+y,2/3-x+y,2/3-z
1/3+x-y,2/3+x,2/3-z
1/3-x+y,2/3+y,2/3+z
1/3+x,2/3+x-y,2/3+z
1/3-y,2/3-x,2/3+z
loop_
_atom_site_type_symbol
_atom_site_label
_atom_site_fract_x
_atom_site_fract_y
_atom_site_fract_z
Si Si1 0.201717 0.278285 0.582151
Si Si2 0.771202 0.719152 0.727969
Si Si3 0.529146 0.599382 0.817893
Si Si4 0.988896 0.590563 0.355942
Si Si5 0.181133 0.240982 0.382629
Si Si6 0.608120 0.865507 0.795328
O O1 0.126626 0.253251 0.570559
O O2 0.245013 0.331239 0.536760
O O3 0.218231 0.309329 0.641432
O O4 0.210839 0.215550 0.580734
O O5 0.801538 0.746841 0.785438
O O6 0.699494 0.707460 0.719942
O O7 0.816146 0.769927 0.681675
O O8 0.767449 0.650876 0.723728
O O9 0.456354 0.543647 0.801122
O O10 0.548587 0.669143 0.793223
O O11 0.927365 0.594032 0.333334
O O12 0.966538 0.535998 0.401129
O O13 0.105987 0.211974 0.400416
O O14 0.584678 0.792339 0.815530
O O15 0.666667 0.916717 0.833334
#
# Coordination Sequence:
#
# PCOD8323995 Si02
#       6
#    36  36  36  36  36  36
#     4  10  21  33  48  71  98 133 170 203 249 301
#     4  10  17  30  49  73  98 127 162 196 245 303
#     4  11  21  34  51  72 102 134 169 211 252 298
#     4  11  17  32  52  72 103 136 159 204 251 306
#     4  10  18  30  47  69  96 127 163 201 247 296
#     4  11  22  34  52  76 105 137 171 207 253 315
#
# _framework density 17.599430999999999
#
# number of rings (size 3 to 8) (size 9 to 14) (size 15 to 20)
#    0.000    1.500    6.667    2.500    0.000    0.000 
#    0.000    0.000    0.000    0.667    0.000    0.000 
#    0.000    2.000    0.000    5.333    0.000    0.000 
#
# Total GULP energy -892197.238490 kJ/mol
# GULP energy per Si atom -12391.628312 kJ/mol
# Density = 1.755937 g / cm^3
# Si number density = 17.599431 Si / 1000 Ang^3
#
#
#
# Elastic Constant Matrix: (Units=GPa)
#
#
# Indices 1 2 3 4 5 6 
#
# 1 85.6162 44.1363 9.6369 -3.2153 0.0001 0.0000
# 2 44.1363 85.6162 9.6369 3.2153 -0.0001 0.0000
# 3 9.6369 9.6369 45.4887 0.0000 0.0000 0.0000
# 4 -3.2153 3.2153 0.0000 12.8185 0.0000 -0.0001
# 5 0.0001 -0.0001 0.0000 0.0000 12.8185 -3.2153
# 6 0.0000 0.0000 0.0000 -0.0001 -3.2153 20.7399
#
#
#
# Elastic Compliance Matrix: (Units=1/GPa)
#
#
# Indices 1 2 3 4 5 6 
#
# 1 0.016520 -0.008563 -0.001686 0.006292 0.000000 0.000000
# 2 -0.008563 0.016520 -0.001686 -0.006292 0.000000 0.000000
# 3 -0.001686 -0.001686 0.022698 0.000000 0.000000 0.000000
# 4 0.006292 -0.006292 0.000000 0.081169 0.000000 0.000000
# 5 0.000000 0.000000 0.000000 0.000000 0.081169 0.012584
# 6 0.000000 0.000000 0.000000 0.000000 0.012584 0.050167
#
#
# Mechanical properties :
#
#
# Convention : Reuss Voigt Hill
#
# Bulk Modulus (GPa) = 31.37808 38.17124 34.77466
# Shear Modulus (GPa) = 16.51604 19.49610 18.00607
#
# Velocity S-wave (km/s) = 3.06672 3.33193 3.20207
# Velocity P-wave (km/s) = 5.51430 6.04469 5.78558
#
# Compressibility (1/GPa) = 0.03186938
#
# Stress axis : x y z
#
# Youngs Moduli (GPa) = 60.53098 60.53098 44.05725
#
# Poissons Ratio (x) = 0.51833 0.07427
# Poissons Ratio (y) = 0.51833 0.07427
# Poissons Ratio (z) = 0.10204 0.10204
#
# Static dielectric constant tensor:
#      x y z
#    x 3.064330 0.000000 0.000000 
#    y 0.000000 3.064330 0.000000 
#    z 0.000000 0.000000 3.530770 
# 
# 
# High freq. dielectric constant tensor:
#      x y z
#    x 1.647050 0.000000 0.000000 
#    y 0.000000 1.647050 0.000000 
#    z 0.000000 0.000000 1.694450 
# 
# From -- ./inp_files/8473.got.cif
#   From: 2010.03.12/outbox.cif.g09.slc.cpg/sg166_5_cif.got.tgz:8473.got - 2010.04.02 06:38:31.
