data_PCOD8323972
_publ_section_title
;
Structure prediction by ZEFSAII (Michael W. Deem and Ramdas Pophale) SiO2 
 PCOD8323972
Probable space group: P -3 C 1
;
_chemical_formula_sum "Si O2"
_cell_formula_units_Z 24
_cell_length_a 8.401074
_cell_length_b 8.401074
_cell_length_c 14.891317
_cell_angle_alpha 90.000000
_cell_angle_beta 90.000000
_cell_angle_gamma 120.000000
_cell_volume 910.192727
_symmetry_space_group_name_H-M "P -3 C 1"
_symmetry_group_IT_number 165
_symmetry_cell_setting 'hexagonal'
loop_
_space_group_symop_operation_xyz
x,y,z
-y,x-y,z
-x+y,-x,z
x-y,-y,1/2-z
-x,-x+y,1/2-z
y,x,1/2-z
-x,-y,-z
y,-x+y,-z
x-y,x,-z
-x+y,y,1/2+z
x,x-y,1/2+z
-y,-x,1/2+z
loop_
_atom_site_type_symbol
_atom_site_label
_atom_site_fract_x
_atom_site_fract_y
_atom_site_fract_z
Si Si1 0.374060 0.000615 0.917291
Si Si2 0.686777 0.998831 0.849297
O O1 0.490753 0.988083 0.833571
O O2 0.360812 0.183707 0.908952
O O3 0.167896 0.829864 0.912341
O O4 0.500000 0.000000 0.000000
O O5 0.768509 0.000000 0.750000
#
# Coordination Sequence:
#
# PCOD8323972 Si02
#       2
#    12  12
#     4  12  27  48  78 116 162 211 270 343 414 487
#     4  12  25  48  77 114 159 215 275 339 410 497
#
# _framework density 26.368044999999999
#
# number of rings (size 3 to 8) (size 9 to 14) (size 15 to 20)
#    0.000    0.000    0.000   10.500    0.000    0.000 
#    0.000    5.000    0.000    0.000    0.000    0.000 
#    0.000    0.000    0.000    0.000    0.000    0.000 
#
# Total GULP energy -297340.741380 kJ/mol
# GULP energy per Si atom -12389.197557 kJ/mol
# Density = 2.630803 g / cm^3
# Si number density = 26.368045 Si / 1000 Ang^3
#
#
#
# Elastic Constant Matrix: (Units=GPa)
#
#
# Indices 1 2 3 4 5 6 
#
# 1 156.9836 32.8081 39.3048 0.7435 0.0000 0.0000
# 2 32.8081 156.9836 39.3048 -0.7435 0.0000 0.0000
# 3 39.3048 39.3048 206.9025 0.0000 0.0000 0.0000
# 4 0.7435 -0.7435 0.0000 32.6235 0.0000 0.0000
# 5 0.0000 0.0000 0.0000 0.0000 32.6235 0.7435
# 6 0.0000 0.0000 0.0000 0.0000 0.7435 62.0878
#
#
#
# Elastic Compliance Matrix: (Units=1/GPa)
#
#
# Indices 1 2 3 4 5 6 
#
# 1 0.006887 -0.001168 -0.001086 -0.000184 0.000000 0.000000
# 2 -0.001168 0.006887 -0.001086 0.000184 0.000000 0.000000
# 3 -0.001086 -0.001086 0.005246 0.000000 0.000000 0.000000
# 4 -0.000184 0.000184 0.000000 0.030661 0.000000 0.000000
# 5 0.000000 0.000000 0.000000 0.000000 0.030661 -0.000367
# 6 0.000000 0.000000 0.000000 0.000000 -0.000367 0.016111
#
#
# Mechanical properties :
#
#
# Convention : Reuss Voigt Hill
#
# Bulk Modulus (GPa) = 81.04943 82.63390 81.84167
# Shear Modulus (GPa) = 46.62098 52.76375 49.69236
#
# Velocity S-wave (km/s) = 4.20942 4.47816 4.34587
# Velocity P-wave (km/s) = 7.37768 7.62530 7.50251
#
# Compressibility (1/GPa) = 0.01233815
#
# Stress axis : x y z
#
# Youngs Moduli (GPa) = 145.19872 145.19872 190.62284
#
# Poissons Ratio (x) = 0.16962 0.20709
# Poissons Ratio (y) = 0.16962 0.20709
# Poissons Ratio (z) = 0.15775 0.15775
#
# Static dielectric constant tensor:
#      x y z
#    x 5.018890 0.000000 0.000000 
#    y 0.000000 5.018890 0.000000 
#    z 0.000000 0.000000 5.005130 
# 
# 
# High freq. dielectric constant tensor:
#      x y z
#    x 2.068140 0.000000 0.000000 
#    y 0.000000 2.068140 0.000000 
#    z 0.000000 0.000000 2.088390 
# 
# From -- ./inp_files/1947.got.cif
#   From: 2010.03.12/outbox.cif.g09.slc.cpg/sg165_1_cif.got.tgz:1947.got - 2010.04.02 06:36:38.
