data_PCOD8323098
_publ_section_title
;
Structure prediction by ZEFSAII (Michael W. Deem and Ramdas Pophale) SiO2 
 PCOD8323098
Probable space group: P -3 1 M 
;
_chemical_formula_sum "Si O2"
_cell_formula_units_Z 72
_cell_length_a 14.303533
_cell_length_b 14.303533
_cell_length_c 18.669176
_cell_angle_alpha 90.000000
_cell_angle_beta 90.000000
_cell_angle_gamma 120.000000
_cell_volume 3307.824246
_symmetry_space_group_name_H-M "P -3 1 M "
_symmetry_group_IT_number 162
_symmetry_cell_setting 'hexagonal'
loop_
_space_group_symop_operation_xyz
x,y,z
-y,x-y,z
-x+y,-x,z
-y,-x,-z
-x+y,y,-z
x,x-y,-z
-x,-y,-z
y,-x+y,-z
x-y,x,-z
y,x,z
x-y,-y,z
-x,-x+y,z
loop_
_atom_site_type_symbol
_atom_site_label
_atom_site_fract_x
_atom_site_fract_y
_atom_site_fract_z
Si Si1 0.125537 0.445158 0.694721
Si Si2 0.120683 0.242202 0.271641
Si Si3 0.428651 0.552133 0.168755
Si Si4 0.764806 0.529576 0.920861
Si Si5 0.882340 0.764754 0.102109
Si Si6 0.538772 0.873162 0.469347
O O1 0.177331 0.367811 0.704676
O O2 0.167135 0.543114 0.752134
O O3 0.148446 0.488578 0.614490
O O4 0.000000 0.369483 0.712490
O O5 0.169912 0.169912 0.302757
O O6 0.120365 0.239765 0.187051
O O7 0.000000 0.194526 0.302717
O O8 0.526103 0.526103 0.171677
O O9 0.337273 0.468357 0.114235
O O10 0.467153 0.668855 0.135778
O O11 0.859630 0.651767 0.930316
O O12 0.737495 0.474991 0.000000
O O13 0.854204 0.854204 0.075602
O O14 0.000000 0.797299 0.072280
O O15 0.425140 0.850280 0.500000
O O16 0.571562 0.785781 0.500000
O O17 0.633378 0.000000 0.483123
#
# Coordination Sequence:
#
# PCOD8323098 Si02
#       6
#    12  12  12  12  12  12
#     4   9  19  38  62  89 124 163 208 259 306 364
#     4   9  16  30  55  88 125 163 204 253 309 369
#     4  11  24  44  64  84 116 156 200 257 313 358
#     4  12  25  40  61  88 115 154 207 257 315 379
#     4  10  20  36  58  87 122 159 199 246 304 371
#     4  10  22  41  66  98 135 175 216 262 321 389
#
# _framework density 21.766573999999999
#
# number of rings (size 3 to 8) (size 9 to 14) (size 15 to 20)
#    0.000    1.833    1.667    2.333    0.000    6.667 
#    0.000    0.000    0.000    1.167    0.000    0.000 
#    0.000    0.000    0.000    0.000    0.000    0.000 
#
# Total GULP energy -892297.471798 kJ/mol
# GULP energy per Si atom -12393.020442 kJ/mol
# Density = 2.171703 g / cm^3
# Si number density = 21.766574 Si / 1000 Ang^3
#
#
#
# Elastic Constant Matrix: (Units=GPa)
#
#
# Indices 1 2 3 4 5 6 
#
# 1 103.0144 54.6239 46.4155 0.0001 38.0077 0.0000
# 2 54.6239 103.0144 46.4155 -0.0001 -38.0077 0.0000
# 3 46.4155 46.4155 133.8860 0.0000 0.0000 0.0000
# 4 0.0001 -0.0001 0.0000 -164.1487 0.0000 -38.0077
# 5 38.0077 -38.0077 0.0000 0.0000 -164.1487 0.0001
# 6 0.0000 0.0000 0.0000 -38.0077 0.0001 24.1952
#
#
#
# Elastic Compliance Matrix: (Units=1/GPa)
#
#
# Indices 1 2 3 4 5 6 
#
# 1 0.011562 -0.003591 -0.002763 0.000000 0.003509 0.000000
# 2 -0.003591 0.011562 -0.002763 0.000000 -0.003509 0.000000
# 3 -0.002763 -0.002763 0.009385 0.000000 0.000000 0.000000
# 4 0.000000 0.000000 0.000000 -0.004467 0.000000 -0.007017
# 5 0.003509 -0.003509 0.000000 0.000000 -0.004467 0.000000
# 6 0.000000 0.000000 0.000000 -0.007017 0.000000 0.030307
#
#
# Mechanical properties :
#
#
# Convention : Reuss Voigt Hill
#
# Bulk Modulus (GPa) = 70.05998 70.53606 70.29802
# Shear Modulus (GPa) = 65.03991 -47.98978 8.52507
#
# Velocity S-wave (km/s) = 5.47225 -4.70057 1.98118
# Velocity P-wave (km/s) = 8.49613 1.73654 6.13187
#
# Compressibility (1/GPa) = 0.01427348
#
# Stress axis : x y z
#
# Youngs Moduli (GPa) = 86.48862 86.48862 106.55262
#
# Poissons Ratio (x) = 0.31060 0.29444
# Poissons Ratio (y) = 0.31060 0.29444
# Poissons Ratio (z) = 0.23900 0.23900
#
# Static dielectric constant tensor:
#      x y z
#    x 3.955880 0.000000 0.000000 
#    y 0.000000 3.955880 0.000000 
#    z 0.000000 0.000000 3.879480 
# 
# 
# High freq. dielectric constant tensor:
#      x y z
#    x 1.850880 0.000000 0.000000 
#    y 0.000000 1.850880 0.000000 
#    z 0.000000 0.000000 1.844980 
# 
# From -- ./inp_files/3541.got.cif
#   From: 2010.03.12/outbox.cif.g09.slc.cpg/sg162_2_cif.got.tgz:3541.got - 2010.04.02 06:27:41.
