data_PCOD8323179
_publ_section_title
;
Structure prediction by ZEFSAII (Michael W. Deem and Ramdas Pophale) SiO2 
 PCOD8323179
Probable space group: P -3 1 M 
;
_chemical_formula_sum "Si O2"
_cell_formula_units_Z 72
_cell_length_a 23.878071
_cell_length_b 23.878071
_cell_length_c 9.301747
_cell_angle_alpha 90.000000
_cell_angle_beta 90.000000
_cell_angle_gamma 120.000000
_cell_volume 4592.970257
_symmetry_space_group_name_H-M "P -3 1 M "
_symmetry_group_IT_number 162
_symmetry_cell_setting 'hexagonal'
loop_
_space_group_symop_operation_xyz
x,y,z
-y,x-y,z
-x+y,-x,z
-y,-x,-z
-x+y,y,-z
x,x-y,-z
-x,-y,-z
y,-x+y,-z
x-y,x,-z
y,x,z
x-y,-y,z
-x,-x+y,z
loop_
_atom_site_type_symbol
_atom_site_label
_atom_site_fract_x
_atom_site_fract_y
_atom_site_fract_z
Si Si1 0.818624 0.637247 0.837605
Si Si2 0.150141 0.512893 0.335258
Si Si3 0.925859 0.634191 0.668396
Si Si4 0.741819 0.483637 0.838723
Si Si5 0.487107 0.849859 0.335258
Si Si6 0.074141 0.365809 0.668398
O O1 0.886172 0.661535 0.754907
O O2 0.780283 0.560566 0.836802
O O3 0.775363 0.661535 0.754908
O O4 0.832369 0.664737 0.000000
O O5 0.097162 0.440148 0.289935
O O6 0.215207 0.541021 0.241725
O O7 0.120464 0.560232 0.311831
O O8 0.170440 0.513542 0.500000
O O9 0.916048 0.640544 0.499999
O O10 0.000000 0.676745 0.714943
O O11 0.674186 0.458979 0.758276
O O12 0.727975 0.455950 0.000000
O O13 0.559851 0.902838 0.289933
O O14 0.000000 0.323255 0.714945
#
# Coordination Sequence:
#
# PCOD8323179 Si02
#       6
#    12  12  12  12  12  12
#     4   9  17  29  45  63  85 113 142 174 209 250
#     4   9  17  29  44  61  82 108 139 179 226 273
#     4   9  17  29  46  67  89 114 144 177 216 263
#     4   9  17  29  43  57  75 103 139 176 217 264
#     4   9  17  29  44  61  82 108 139 179 226 273
#     4   9  17  29  46  67  89 114 144 177 216 263
#
# _framework density 15.676131
#
# number of rings (size 3 to 8) (size 9 to 14) (size 15 to 20)
#    0.000    3.000    0.000    1.000    0.000    6.000 
#    1.000    3.333    0.000    0.000    0.000    9.333 
#    0.000    0.000    0.000    0.500    0.000    9.667 
#
# Total GULP energy -892600.823354 kJ/mol
# GULP energy per Si atom -12397.233658 kJ/mol
# Density = 1.564045 g / cm^3
# Si number density = 15.676131 Si / 1000 Ang^3
#
#
#
# Elastic Constant Matrix: (Units=GPa)
#
#
# Indices 1 2 3 4 5 6 
#
# 1 86.8027 54.0601 45.0026 0.0000 0.0000 0.0000
# 2 54.0601 86.8027 45.0026 0.0000 0.0000 0.0000
# 3 45.0026 45.0026 78.4004 0.0000 0.0000 0.0000
# 4 0.0000 0.0000 0.0000 15.3289 0.0000 0.0000
# 5 0.0000 0.0000 0.0000 0.0000 15.3289 0.0000
# 6 0.0000 0.0000 0.0000 0.0000 0.0000 16.3713
#
#
#
# Elastic Compliance Matrix: (Units=1/GPa)
#
#
# Indices 1 2 3 4 5 6 
#
# 1 0.020876 -0.009665 -0.006435 0.000000 0.000000 0.000000
# 2 -0.009665 0.020876 -0.006435 0.000000 0.000000 0.000000
# 3 -0.006435 -0.006435 0.020143 0.000000 0.000000 0.000000
# 4 0.000000 0.000000 0.000000 0.065236 0.000000 0.000000
# 5 0.000000 0.000000 0.000000 0.000000 0.065236 0.000000
# 6 0.000000 0.000000 0.000000 0.000000 0.000000 0.061083
#
#
# Mechanical properties :
#
#
# Convention : Reuss Voigt Hill
#
# Bulk Modulus (GPa) = 59.43935 60.01514 59.72725
# Shear Modulus (GPa) = 16.44041 16.60186 16.52114
#
# Velocity S-wave (km/s) = 3.24196 3.25784 3.24991
# Velocity P-wave (km/s) = 7.21202 7.24699 7.22952
#
# Compressibility (1/GPa) = 0.01682387
#
# Stress axis : x y z
#
# Youngs Moduli (GPa) = 47.90167 47.90167 49.64570
#
# Poissons Ratio (x) = 0.46298 0.31948
# Poissons Ratio (y) = 0.46298 0.31948
# Poissons Ratio (z) = 0.30826 0.30826
#
# Static dielectric constant tensor:
#      x y z
#    x 2.813340 0.000000 0.000000 
#    y 0.000000 2.813340 0.000000 
#    z 0.000000 0.000000 3.114030 
# 
# 
# High freq. dielectric constant tensor:
#      x y z
#    x 1.573750 0.000000 0.000000 
#    y 0.000000 1.573750 0.000000 
#    z 0.000000 0.000000 1.605900 
# 
# From -- ./inp_files/1693.got.cif
#   From: 2010.03.12/outbox.cif.g09.slc.cpg/sg162_1_cif.got.tgz:1693.got - 2010.04.02 06:27:41.
