data_PCOD8323875
_publ_section_title
;
Structure prediction by ZEFSAII (Michael W. Deem and Ramdas Pophale) SiO2 
 PCOD8323875
Probable space group: P -3 C 1
;
_chemical_formula_sum "Si O2"
_cell_formula_units_Z 56
_cell_length_a 12.595680
_cell_length_b 12.595680
_cell_length_c 22.780409
_cell_angle_alpha 90.000000
_cell_angle_beta 90.000000
_cell_angle_gamma 120.000000
_cell_volume 3129.935487
_symmetry_space_group_name_H-M "P -3 C 1"
_symmetry_group_IT_number 165
_symmetry_cell_setting 'hexagonal'
loop_
_space_group_symop_operation_xyz
x,y,z
-y,x-y,z
-x+y,-x,z
x-y,-y,1/2-z
-x,-x+y,1/2-z
y,x,1/2-z
-x,-y,-z
y,-x+y,-z
x-y,x,-z
-x+y,y,1/2+z
x,x-y,1/2+z
-y,-x,1/2+z
loop_
_atom_site_type_symbol
_atom_site_label
_atom_site_fract_x
_atom_site_fract_y
_atom_site_fract_z
Si Si1 0.666667 0.333334 0.807050
Si Si2 0.863912 0.537054 0.518273
Si Si3 0.667562 0.133739 0.731451
Si Si4 0.666668 0.333334 0.443212
Si Si5 0.660717 0.581949 0.563731
Si Si6 0.085143 0.415197 0.806562
O O1 0.681587 0.218918 0.787068
O O2 0.666668 0.333334 0.875062
O O3 0.781883 0.458066 0.464266
O O4 0.791233 0.588289 0.555846
O O5 0.895830 0.453124 0.559822
O O6 0.984675 0.647663 0.487754
O O7 0.794374 0.196358 0.696037
O O8 0.557750 0.124202 0.692035
O O9 0.641161 0.000000 0.750000
O O10 0.660325 0.635257 0.629177
O O11 0.000000 0.347552 0.750000
#
# Coordination Sequence:
#
# PCOD8323875 Si02
#       6
#     4  12  12   4  12  12
#     4   9  18  30  49  74 118 132 171 226 245 319
#     4   9  20  33  54  74 102 142 172 214 264 301
#     4   9  19  32  48  77 105 142 169 203 274 306
#     4   9  18  30  49  80 100 138 168 217 254 304
#     4  10  19  36  51  77 106 136 178 214 259 325
#     4  10  20  33  52  77 106 137 169 214 262 314
#
# _framework density 17.891743000000002
#
# number of rings (size 3 to 8) (size 9 to 14) (size 15 to 20)
#    0.000    2.571    0.000    2.143    9.000    0.000 
#    3.857    0.000    0.000    0.857    0.000    0.000 
#    0.000    0.000    0.000    0.000    0.000    0.000 
#
# Total GULP energy -694049.683853 kJ/mol
# GULP energy per Si atom -12393.744355 kJ/mol
# Density = 1.785102 g / cm^3
# Si number density = 17.891743 Si / 1000 Ang^3
#
#
#
# Elastic Constant Matrix: (Units=GPa)
#
#
# Indices 1 2 3 4 5 6 
#
# 1 69.4892 23.5529 21.4746 -1.9905 0.0000 0.0000
# 2 23.5529 69.4896 21.4749 1.9906 0.0000 0.0000
# 3 21.4746 21.4749 125.6051 -0.0001 0.0000 0.0000
# 4 -1.9905 1.9906 -0.0001 14.3513 0.0000 0.0000
# 5 0.0000 0.0000 0.0000 0.0000 14.3511 -1.9907
# 6 0.0000 0.0000 0.0000 0.0000 -1.9907 22.9678
#
#
#
# Elastic Compliance Matrix: (Units=1/GPa)
#
#
# Indices 1 2 3 4 5 6 
#
# 1 0.016851 -0.005183 -0.001995 0.003056 0.000000 0.000000
# 2 -0.005183 0.016851 -0.001995 -0.003056 0.000000 0.000000
# 3 -0.001995 -0.001995 0.008644 0.000000 0.000000 0.000000
# 4 0.003056 -0.003056 0.000000 0.070528 0.000000 0.000000
# 5 0.000000 0.000000 0.000000 0.000000 0.070529 0.006113
# 6 0.000000 0.000000 0.000000 0.000000 0.006113 0.044069
#
#
# Mechanical properties :
#
#
# Convention : Reuss Voigt Hill
#
# Bulk Modulus (GPa) = 41.66485 44.17653 42.92069
# Shear Modulus (GPa) = 19.69913 23.53946 21.61929
#
# Velocity S-wave (km/s) = 3.32176 3.63114 3.47989
# Velocity P-wave (km/s) = 6.16846 6.50575 6.33935
#
# Compressibility (1/GPa) = 0.02400104
#
# Stress axis : x y z
#
# Youngs Moduli (GPa) = 59.34212 59.34238 115.69209
#
# Poissons Ratio (x) = 0.30755 0.23080
# Poissons Ratio (y) = 0.30755 0.23081
# Poissons Ratio (z) = 0.11839 0.11839
#
# Static dielectric constant tensor:
#      x y z
#    x 3.217420 0.000000 0.000000 
#    y 0.000000 3.217410 0.000010 
#    z 0.000000 0.000010 3.189570 
# 
# 
# High freq. dielectric constant tensor:
#      x y z
#    x 1.667380 0.000000 0.000000 
#    y 0.000000 1.667380 0.000000 
#    z 0.000000 0.000000 1.697610 
# 
# From -- ./inp_files/2888.got.cif
#   From: 2010.03.12/outbox.cif.g09.slc.cpg/sg165_2_cif.got.tgz:2888.got - 2010.04.02 06:36:38.
