data_PCOD8323610
_publ_section_title
;
Structure prediction by ZEFSAII (Michael W. Deem and Ramdas Pophale) SiO2 
 PCOD8323610
Probable space group: P -3 M 1
;
_chemical_formula_sum "Si O2"
_cell_formula_units_Z 60
_cell_length_a 12.997645
_cell_length_b 12.997645
_cell_length_c 25.769296
_cell_angle_alpha 90.000000
_cell_angle_beta 90.000000
_cell_angle_gamma 120.000000
_cell_volume 3770.183843
_symmetry_space_group_name_H-M "P -3 M 1"
_symmetry_group_IT_number 164
_symmetry_cell_setting 'hexagonal'
loop_
_space_group_symop_operation_xyz
x,y,z
-y,x-y,z
-x+y,-x,z
x-y,-y,-z
-x,-x+y,-z
y,x,-z
-x,-y,-z
y,-x+y,-z
x-y,x,-z
-x+y,y,z
x,x-y,z
-y,-x,z
loop_
_atom_site_type_symbol
_atom_site_label
_atom_site_fract_x
_atom_site_fract_y
_atom_site_fract_z
Si Si1 0.906070 0.575000 0.733119
Si Si2 0.575014 0.667024 0.645287
Si Si3 0.764276 0.764165 0.440670
Si Si4 0.094205 0.424392 0.041995
Si Si5 0.331611 0.434183 0.154236
O O1 0.786808 0.573616 0.714866
O O2 0.879198 0.439599 0.733546
O O3 0.946587 0.635207 0.790965
O O4 0.012436 0.656237 0.694760
O O5 0.557978 0.778989 0.654524
O O6 0.447502 0.552499 0.637478
O O7 0.650941 0.680230 0.594131
O O8 0.726100 0.726100 0.500000
O O9 0.746806 0.873403 0.424129
O O10 0.902245 0.804490 0.432678
O O11 0.219953 0.439906 0.026080
O O12 0.107552 0.553776 0.041782
O O13 0.052481 0.363092 0.099706
O O14 0.000000 0.338316 0.000000
O O15 0.245121 0.490242 0.154157
O O16 0.466025 0.533976 0.153771
#
# Coordination Sequence:
#
# PCOD8323610 Si02
#       5
#    12  12  12  12  12
#     4   9  16  27  45  67  87 105 131 173 222 263
#     4  10  20  32  45  61  86 121 154 177 198 237
#     4   9  17  30  49  71  91 110 136 176 225 267
#     4   9  16  26  41  61  85 111 139 172 210 252
#     4   8  13  22  38  60  83 106 133 168 212 256
#
# _framework density 15.914344
#
# number of rings (size 3 to 8) (size 9 to 14) (size 15 to 20)
#    0.000    3.000    0.000    1.600    0.000    4.400 
#    0.000    1.000    0.000    1.000    0.000    2.800 
#    0.000    0.000    0.000    0.000    0.000    0.000 
#
# Total GULP energy -743304.836062 kJ/mol
# GULP energy per Si atom -12388.413934 kJ/mol
# Density = 1.587812 g / cm^3
# Si number density = 15.914344 Si / 1000 Ang^3
#
#
#
# Elastic Constant Matrix: (Units=GPa)
#
#
# Indices 1 2 3 4 5 6 
#
# 1 78.3343 40.4854 61.3933 1.6768 0.0000 0.0000
# 2 40.4854 78.3343 61.3933 -1.6768 0.0000 0.0000
# 3 61.3933 61.3933 136.5758 0.0000 0.0000 0.0000
# 4 1.6768 -1.6768 0.0000 23.2409 0.0000 0.0000
# 5 0.0000 0.0000 0.0000 0.0000 23.2409 1.6768
# 6 0.0000 0.0000 0.0000 0.0000 1.6768 18.9244
#
#
#
# Elastic Compliance Matrix: (Units=1/GPa)
#
#
# Indices 1 2 3 4 5 6 
#
# 1 0.021154 -0.005437 -0.007065 -0.001918 0.000000 0.000000
# 2 -0.005437 0.021154 -0.007065 0.001918 0.000000 0.000000
# 3 -0.007065 -0.007065 0.013674 0.000000 0.000000 0.000000
# 4 -0.001918 0.001918 0.000000 0.043304 0.000000 0.000000
# 5 0.000000 0.000000 0.000000 0.000000 0.043304 -0.003837
# 6 0.000000 0.000000 0.000000 0.000000 -0.003837 0.053182
#
#
# Mechanical properties :
#
#
# Convention : Reuss Voigt Hill
#
# Bulk Modulus (GPa) = 59.35615 68.86539 64.11077
# Shear Modulus (GPa) = 20.78811 21.74609 21.26710
#
# Velocity S-wave (km/s) = 3.61813 3.70056 3.65958
# Velocity P-wave (km/s) = 7.40491 7.85018 7.63079
#
# Compressibility (1/GPa) = 0.01684745
#
# Stress axis : x y z
#
# Youngs Moduli (GPa) = 47.27246 47.27246 73.13285
#
# Poissons Ratio (x) = 0.25701 0.51669
# Poissons Ratio (y) = 0.25701 0.51669
# Poissons Ratio (z) = 0.33399 0.33399
#
# Static dielectric constant tensor:
#      x y z
#    x 2.790720 0.000000 0.000000 
#    y 0.000000 2.790720 0.000000 
#    z 0.000000 0.000000 3.516560 
# 
# 
# High freq. dielectric constant tensor:
#      x y z
#    x 1.586500 0.000000 0.000000 
#    y 0.000000 1.586500 0.000000 
#    z 0.000000 0.000000 1.632950 
# 
# From -- ./inp_files/5186.got.cif
#   From: 2010.03.12/outbox.cif.g09.slc.cpg/sg164_3_cif.got.tgz:5186.got - 2010.04.02 06:32:59.
