data_PCOD8323012
_publ_section_title
;
Structure prediction by ZEFSAII (Michael W. Deem and Ramdas Pophale) SiO2 
 PCOD8323012
Probable space group: P -3 1 M 
;
_chemical_formula_sum "Si O2"
_cell_formula_units_Z 96
_cell_length_a 13.958706
_cell_length_b 13.958706
_cell_length_c 27.241092
_cell_angle_alpha 90.000000
_cell_angle_beta 90.000000
_cell_angle_gamma 120.000000
_cell_volume 4596.692636
_symmetry_space_group_name_H-M "P -3 1 M "
_symmetry_group_IT_number 162
_symmetry_cell_setting 'hexagonal'
loop_
_space_group_symop_operation_xyz
x,y,z
-y,x-y,z
-x+y,-x,z
-y,-x,-z
-x+y,y,-z
x,x-y,-z
-x,-y,-z
y,-x+y,-z
x-y,x,-z
y,x,z
x-y,-y,z
-x,-x+y,z
loop_
_atom_site_type_symbol
_atom_site_label
_atom_site_fract_x
_atom_site_fract_y
_atom_site_fract_z
Si Si1 0.391059 0.514417 0.187675
Si Si2 0.129962 0.870590 0.443565
Si Si3 0.871112 0.332093 0.023010
Si Si4 0.777260 0.646525 0.279248
Si Si5 0.726649 0.602320 0.636503
Si Si6 0.720826 0.545330 0.133752
Si Si7 0.873497 0.122076 0.818854
Si Si8 0.131259 0.570097 0.294088
O O1 0.408137 0.408137 0.183364
O O2 0.507132 0.623196 0.173645
O O3 0.304411 0.508825 0.147641
O O4 0.358538 0.528330 0.243468
O O5 0.148206 0.851795 0.500000
O O6 0.178367 0.804515 0.411605
O O7 0.000000 0.824043 0.432486
O O8 0.196728 0.000000 0.429744
O O9 0.842502 0.329666 0.080021
O O10 0.000000 0.366549 0.014756
O O11 0.789187 0.210814 0.000000
O O12 0.847109 0.423555 0.000000
O O13 0.723154 0.723154 0.283148
O O14 0.871633 0.680443 0.320248
O O15 0.835779 0.663962 0.226312
O O16 0.690432 0.518776 0.293189
O O17 0.641416 0.641416 0.621684
O O18 0.652152 0.476002 0.658058
O O19 0.798857 0.678764 0.135739
O O20 0.000000 0.200682 0.831599
O O21 0.852036 0.000000 0.807240
O O22 0.000000 0.506592 0.293892
#
# Coordination Sequence:
#
# PCOD8323012 Si02
#       8
#    12  12  12  12  12  12  12  12
#     4  11  22  38  58  87 123 156 194 242 295 355
#     4   9  17  30  51  81 116 153 196 250 309 366
#     4  11  25  45  69  96 127 163 206 260 319 377
#     4  10  19  34  53  76 113 154 193 236 286 344
#     4  10  19  32  51  77 108 147 196 242 291 352
#     4  12  23  39  63  90 117 153 199 248 303 357
#     4  11  22  37  57  85 122 164 203 241 288 352
#     4   9  19  34  50  74 112 153 191 235 282 341
#
# _framework density 20.88458
#
# number of rings (size 3 to 8) (size 9 to 14) (size 15 to 20)
#    0.000    1.625    1.250    4.375    0.000    3.500 
#    0.750    0.000    0.000    4.875    0.000    4.375 
#    0.000    0.000    0.000    0.000    0.000    0.375 
#
# Total GULP energy -1189550.494155 kJ/mol
# GULP energy per Si atom -12391.150981 kJ/mol
# Density = 2.083705 g / cm^3
# Si number density = 20.884580 Si / 1000 Ang^3
#
#
#
# Elastic Constant Matrix: (Units=GPa)
#
#
# Indices 1 2 3 4 5 6 
#
# 1 85.9171 34.1006 35.4429 0.0000 3.5111 0.0000
# 2 34.1006 85.9171 35.4429 0.0000 -3.5111 0.0000
# 3 35.4429 35.4429 118.5917 0.0000 0.0000 0.0000
# 4 0.0000 0.0000 0.0000 29.9583 0.0000 -3.5111
# 5 3.5111 -3.5111 0.0000 0.0000 29.9583 0.0000
# 6 0.0000 0.0000 0.0000 -3.5111 0.0000 25.9082
#
#
#
# Elastic Compliance Matrix: (Units=1/GPa)
#
#
# Indices 1 2 3 4 5 6 
#
# 1 0.014864 -0.004746 -0.003024 0.000000 -0.002298 0.000000
# 2 -0.004746 0.014864 -0.003024 0.000000 0.002298 0.000000
# 3 -0.003024 -0.003024 0.010240 0.000000 0.000000 0.000000
# 4 0.000000 0.000000 0.000000 0.033918 0.000000 0.004597
# 5 -0.002298 0.002298 0.000000 0.000000 0.033918 0.000000
# 6 0.000000 0.000000 0.000000 0.004597 0.000000 0.039221
#
#
# Mechanical properties :
#
#
# Convention : Reuss Voigt Hill
#
# Bulk Modulus (GPa) = 54.40621 55.59984 55.00302
# Shear Modulus (GPa) = 28.61382 29.52759 29.07071
#
# Velocity S-wave (km/s) = 3.70549 3.76419 3.73496
# Velocity P-wave (km/s) = 6.66446 6.75074 6.70774
#
# Compressibility (1/GPa) = 0.01838026
#
# Stress axis : x y z
#
# Youngs Moduli (GPa) = 67.27552 67.27552 97.65816
#
# Poissons Ratio (x) = 0.31930 0.29531
# Poissons Ratio (y) = 0.31930 0.29531
# Poissons Ratio (z) = 0.20344 0.20344
#
# Static dielectric constant tensor:
#      x y z
#    x 3.834380 0.000000 0.000000 
#    y 0.000000 3.834380 0.000000 
#    z 0.000000 0.000000 3.745180 
# 
# 
# High freq. dielectric constant tensor:
#      x y z
#    x 1.817410 0.000000 0.000000 
#    y 0.000000 1.817410 0.000000 
#    z 0.000000 0.000000 1.796860 
# 
# From -- ./inp_files/4066.got.cif
#   From: 2010.03.12/outbox.cif.g09.slc.cpg/sg162_3_cif.got.tgz:4066.got - 2010.04.02 06:27:41.
