data_PCOD8323086
_publ_section_title
;
Structure prediction by ZEFSAII (Michael W. Deem and Ramdas Pophale) SiO2 
 PCOD8323086
Probable space group: P -3 1 M 
;
_chemical_formula_sum "Si O2"
_cell_formula_units_Z 96
_cell_length_a 14.430232
_cell_length_b 14.430232
_cell_length_c 26.198908
_cell_angle_alpha 90.000000
_cell_angle_beta 90.000000
_cell_angle_gamma 120.000000
_cell_volume 4724.549988
_symmetry_space_group_name_H-M "P -3 1 M "
_symmetry_group_IT_number 162
_symmetry_cell_setting 'hexagonal'
loop_
_space_group_symop_operation_xyz
x,y,z
-y,x-y,z
-x+y,-x,z
-y,-x,-z
-x+y,y,-z
x,x-y,-z
-x,-y,-z
y,-x+y,-z
x-y,x,-z
y,x,z
x-y,-y,z
-x,-x+y,z
loop_
_atom_site_type_symbol
_atom_site_label
_atom_site_fract_x
_atom_site_fract_y
_atom_site_fract_z
Si Si1 0.815084 0.264738 0.679974
Si Si2 0.703038 0.126138 0.206436
Si Si3 0.876228 0.430333 0.881830
Si Si4 0.762796 0.126537 0.868274
Si Si5 0.391620 0.268135 0.044966
Si Si6 0.521366 0.121329 0.367835
Si Si7 0.879679 0.605787 0.541031
Si Si8 0.879991 0.758408 0.626372
O O1 0.841922 0.310572 0.736743
O O2 0.860977 0.360296 0.638162
O O3 0.687740 0.195086 0.673679
O O4 0.871003 0.194145 0.670111
O O5 0.643446 0.168144 0.168572
O O6 0.827341 0.188341 0.187862
O O7 0.657346 0.000000 0.202512
O O8 0.832904 0.513042 0.885599
O O9 0.854207 0.360767 0.933423
O O10 0.000000 0.502218 0.871875
O O11 0.857737 0.183274 0.909943
O O12 0.714014 0.000000 0.867973
O O13 0.321203 0.321203 0.026176
O O14 0.412476 0.206238 0.000000
O O15 0.499606 0.147820 0.425338
O O16 0.432596 0.000000 0.355261
O O17 0.785364 0.570727 0.500000
O O18 0.876926 0.694589 0.576200
O O19 0.000000 0.656006 0.517000
O O20 0.838934 0.838934 0.611210
O O21 0.000000 0.826006 0.648006
#
# Coordination Sequence:
#
# PCOD8323086 Si02
#       8
#    12  12  12  12  12  12  12  12
#     4  11  22  38  59  84 117 157 195 242 303 349
#     4  10  21  37  57  81 116 152 188 237 293 348
#     4   8  18  36  54  81 114 145 187 237 284 337
#     4  10  20  36  59  84 115 154 195 238 288 345
#     4  10  20  37  60  85 117 154 193 239 291 344
#     4  10  22  39  58  85 117 149 195 244 290 355
#     4   9  18  34  57  84 115 149 187 236 292 350
#     4  10  20  35  56  83 115 151 192 237 288 350
#
# _framework density 20.319395
#
# number of rings (size 3 to 8) (size 9 to 14) (size 15 to 20)
#    0.000    2.250    0.000    4.500    1.750    1.500 
#    6.000    4.375    0.000   13.500    0.000    0.000 
#    0.000    0.500    0.000    0.000    0.000    0.000 
#
# Total GULP energy -1189974.670312 kJ/mol
# GULP energy per Si atom -12395.569482 kJ/mol
# Density = 2.027315 g / cm^3
# Si number density = 20.319395 Si / 1000 Ang^3
#
#
#
# Elastic Constant Matrix: (Units=GPa)
#
#
# Indices 1 2 3 4 5 6 
#
# 1 93.5419 38.8783 38.1361 0.0000 -1.3301 0.0000
# 2 38.8783 93.5419 38.1361 0.0000 1.3301 0.0000
# 3 38.1361 38.1361 99.2544 0.0000 0.0000 0.0000
# 4 0.0000 0.0000 0.0000 25.6225 0.0000 1.3301
# 5 -1.3301 1.3301 0.0000 0.0000 25.6225 0.0000
# 6 0.0000 0.0000 0.0000 1.3301 0.0000 27.3318
#
#
#
# Elastic Compliance Matrix: (Units=1/GPa)
#
#
# Indices 1 2 3 4 5 6 
#
# 1 0.014019 -0.004321 -0.003726 0.000000 0.000952 0.000000
# 2 -0.004321 0.014019 -0.003726 0.000000 -0.000952 0.000000
# 3 -0.003726 -0.003726 0.012939 0.000000 0.000000 0.000000
# 4 0.000000 0.000000 0.000000 0.039127 0.000000 -0.001904
# 5 0.000952 -0.000952 0.000000 0.000000 0.039127 0.000000
# 6 0.000000 0.000000 0.000000 -0.001904 0.000000 0.036680
#
#
# Mechanical properties :
#
#
# Convention : Reuss Voigt Hill
#
# Bulk Modulus (GPa) = 57.37361 57.40439 57.38900
# Shear Modulus (GPa) = 26.98799 27.12786 27.05793
#
# Velocity S-wave (km/s) = 3.64839 3.65783 3.65311
# Velocity P-wave (km/s) = 6.78563 6.79352 6.78958
#
# Compressibility (1/GPa) = 0.01742962
#
# Stress axis : x y z
#
# Youngs Moduli (GPa) = 71.33178 71.33178 77.28853
#
# Poissons Ratio (x) = 0.30823 0.28799
# Poissons Ratio (y) = 0.30823 0.28799
# Poissons Ratio (z) = 0.26580 0.26580
#
# Static dielectric constant tensor:
#      x y z
#    x 3.822860 0.000000 0.000000 
#    y 0.000000 3.822860 0.000000 
#    z 0.000000 0.000000 3.491000 
# 
# 
# High freq. dielectric constant tensor:
#      x y z
#    x 1.794180 0.000000 0.000000 
#    y 0.000000 1.794180 0.000000 
#    z 0.000000 0.000000 1.777870 
# 
# From -- ./inp_files/4079.got.cif
#   From: 2010.03.12/outbox.cif.g09.slc.cpg/sg162_3_cif.got.tgz:4079.got - 2010.04.02 06:27:41.
