data_PCOD8323465
_publ_section_title
;
Structure prediction by ZEFSAII (Michael W. Deem and Ramdas Pophale) SiO2 
 PCOD8323465
Probable space group: P -3 M 1
;
_chemical_formula_sum "Si O2"
_cell_formula_units_Z 60
_cell_length_a 19.913416
_cell_length_b 19.913416
_cell_length_c 10.014649
_cell_angle_alpha 90.000000
_cell_angle_beta 90.000000
_cell_angle_gamma 120.000000
_cell_volume 3439.203682
_symmetry_space_group_name_H-M "P -3 M 1"
_symmetry_group_IT_number 164
_symmetry_cell_setting 'hexagonal'
loop_
_space_group_symop_operation_xyz
x,y,z
-y,x-y,z
-x+y,-x,z
x-y,-y,-z
-x,-x+y,-z
y,x,-z
-x,-y,-z
y,-x+y,-z
x-y,x,-z
-x+y,y,z
x,x-y,z
-y,-x,z
loop_
_atom_site_type_symbol
_atom_site_label
_atom_site_fract_x
_atom_site_fract_y
_atom_site_fract_z
Si Si1 0.453843 0.907685 0.156190
Si Si2 0.915605 0.235184 0.972873
Si Si3 0.710830 0.136843 0.220282
Si Si4 0.545829 0.454172 0.151062
Si Si5 0.572616 0.862878 0.268335
Si Si6 0.671946 0.758919 0.521976
O O1 0.500886 0.874331 0.234448
O O2 0.499858 0.999715 0.160907
O O3 0.439781 0.879562 0.002575
O O4 0.856148 0.143853 0.986303
O O5 0.896348 0.284049 0.077332
O O6 0.913338 0.267915 0.828169
O O7 0.000000 0.246656 0.000000
O O8 0.772133 0.227868 0.233249
O O9 0.625878 0.125552 0.231461
O O10 0.726441 0.089397 0.333078
O O11 0.543918 0.771959 0.251543
O O12 0.602823 0.892104 0.417248
O O13 0.743922 0.743922 0.500000
O O14 0.702381 0.851191 0.509660
#
# Coordination Sequence:
#
# PCOD8323465 Si02
#       6
#     6  12  12   6  12  12
#     4  11  20  31  53  77 101 131 173 219 261 301
#     4  10  18  31  51  72  99 129 165 209 255 307
#     4  10  21  35  51  75 104 134 171 213 260 309
#     4  11  20  31  53  77 101 131 173 219 261 301
#     4  10  21  35  51  75 104 134 171 213 260 309
#     4  10  20  35  55  78 107 137 171 213 259 309
#
# _framework density 17.445899000000001
#
# number of rings (size 3 to 8) (size 9 to 14) (size 15 to 20)
#    0.000    1.800    2.000    3.600    0.000    0.800 
#    1.200    2.000    0.000    0.400    0.000    0.000 
#    0.000    9.600    0.000    0.000    0.000    1.600 
#
# Total GULP energy -744173.250686 kJ/mol
# GULP energy per Si atom -12402.887511 kJ/mol
# Density = 1.740619 g / cm^3
# Si number density = 17.445899 Si / 1000 Ang^3
#
#
#
# Elastic Constant Matrix: (Units=GPa)
#
#
# Indices 1 2 3 4 5 6 
#
# 1 102.0498 58.1935 12.4312 2.1780 0.0000 0.0000
# 2 58.1935 102.0498 12.4312 -2.1780 0.0000 0.0000
# 3 12.4312 12.4312 58.3884 0.0000 0.0000 0.0000
# 4 2.1780 -2.1780 0.0000 20.6077 0.0000 0.0000
# 5 0.0000 0.0000 0.0000 0.0000 20.6077 2.1780
# 6 0.0000 0.0000 0.0000 0.0000 2.1780 21.9281
#
#
#
# Elastic Compliance Matrix: (Units=1/GPa)
#
#
# Indices 1 2 3 4 5 6 
#
# 1 0.014749 -0.008295 -0.001374 -0.002435 0.000000 0.000000
# 2 -0.008295 0.014749 -0.001374 0.002435 0.000000 0.000000
# 3 -0.001374 -0.001374 0.017712 0.000000 0.000000 0.000000
# 4 -0.002435 0.002435 0.000000 0.049040 0.000000 0.000000
# 5 0.000000 0.000000 0.000000 0.000000 0.049040 -0.004871
# 6 0.000000 0.000000 0.000000 0.000000 -0.004871 0.046087
#
#
# Mechanical properties :
#
#
# Convention : Reuss Voigt Hill
#
# Bulk Modulus (GPa) = 39.80409 47.62223 43.71316
# Shear Modulus (GPa) = 22.53905 24.59086 23.56495
#
# Velocity S-wave (km/s) = 3.59826 3.75847 3.67923
# Velocity P-wave (km/s) = 6.33471 6.79641 6.56961
#
# Compressibility (1/GPa) = 0.02512304
#
# Stress axis : x y z
#
# Youngs Moduli (GPa) = 67.80276 67.80276 56.45963
#
# Poissons Ratio (x) = 0.56242 0.07758
# Poissons Ratio (y) = 0.56242 0.07758
# Poissons Ratio (z) = 0.09316 0.09316
#
# Static dielectric constant tensor:
#      x y z
#    x 3.181710 0.000000 0.000000 
#    y 0.000000 3.181710 0.000000 
#    z 0.000000 0.000000 3.405200 
# 
# 
# High freq. dielectric constant tensor:
#      x y z
#    x 1.661620 0.000000 0.000000 
#    y 0.000000 1.661620 0.000000 
#    z 0.000000 0.000000 1.688490 
# 
# From -- ./inp_files/1624.got.cif
#   From: 2010.03.12/outbox.cif.g09.slc.cpg/sg164_1_cif.got.tgz:1624.got - 2010.04.02 06:32:59.
