data_PCOD8323445
_publ_section_title
;
Structure prediction by ZEFSAII (Michael W. Deem and Ramdas Pophale) SiO2 
 PCOD8323445
Probable space group: P -3 M 1
;
_chemical_formula_sum "Si O2"
_cell_formula_units_Z 84
_cell_length_a 21.032403
_cell_length_b 21.032403
_cell_length_c 12.997501
_cell_angle_alpha 90.000000
_cell_angle_beta 90.000000
_cell_angle_gamma 120.000000
_cell_volume 4979.299856
_symmetry_space_group_name_H-M "P -3 M 1"
_symmetry_group_IT_number 164
_symmetry_cell_setting 'hexagonal'
loop_
_space_group_symop_operation_xyz
x,y,z
-y,x-y,z
-x+y,-x,z
x-y,-y,-z
-x,-x+y,-z
y,x,-z
-x,-y,-z
y,-x+y,-z
x-y,x,-z
-x+y,y,z
x,x-y,z
-y,-x,z
loop_
_atom_site_type_symbol
_atom_site_label
_atom_site_fract_x
_atom_site_fract_y
_atom_site_fract_z
Si Si1 0.666392 0.190546 0.189441
Si Si2 0.141500 0.001833 0.240756
Si Si3 0.666292 0.477155 0.952051
Si Si4 0.206293 0.942691 0.591678
Si Si5 0.029930 0.440985 0.112252
Si Si6 0.929074 0.626649 0.239894
Si Si7 0.201777 0.938876 0.923387
O O1 0.588091 0.176181 0.228143
O O2 0.723811 0.276190 0.202792
O O3 0.689406 0.142033 0.257543
O O4 0.662774 0.166374 0.071000
O O5 0.102606 0.051303 0.243063
O O6 0.192255 0.020629 0.338897
O O7 0.186794 0.018030 0.136682
O O8 0.083092 0.916909 0.244375
O O9 0.746890 0.493779 0.919317
O O10 0.608771 0.391230 0.933628
O O11 0.644808 0.527405 0.884248
O O12 0.140544 0.859457 0.560652
O O13 0.273108 0.941859 0.652297
O O14 0.245229 0.000000 0.500000
O O15 0.010887 0.505444 0.134438
O O16 0.996685 0.380612 0.202848
O O17 0.000000 0.406572 0.000000
O O18 0.910636 0.668633 0.152334
O O19 0.134609 0.865392 0.975836
O O20 0.261140 0.000000 0.000000
#
# Coordination Sequence:
#
# PCOD8323445 Si02
#       7
#    12  12  12  12  12  12  12
#     4  10  18  29  47  71 100 131 166 205 245 287
#     4   9  17  30  48  69  90 115 151 196 245 294
#     4   9  17  28  44  67  99 138 180 217 245 277
#     4  10  21  37  55  72  94 123 161 211 268 322
#     4  10  18  31  48  72 106 144 176 201 237 290
#     4  11  20  33  49  73  98 129 165 205 251 306
#     4  10  20  31  43  62  92 128 162 193 229 283
#
# _framework density 16.869841999999998
#
# number of rings (size 3 to 8) (size 9 to 14) (size 15 to 20)
#    0.000    2.143    1.429    4.286    0.000    1.143 
#    0.000    3.571    0.000    6.286    0.000    0.000 
#    0.000    0.000    0.000    3.857    0.000    0.000 
#
# Total GULP energy -1041182.578979 kJ/mol
# GULP energy per Si atom -12395.030702 kJ/mol
# Density = 1.683145 g / cm^3
# Si number density = 16.869842 Si / 1000 Ang^3
#
#
#
# Elastic Constant Matrix: (Units=GPa)
#
#
# Indices 1 2 3 4 5 6 
#
# 1 94.9248 50.7902 27.7464 0.1682 0.0000 0.0000
# 2 50.7902 94.9248 27.7464 -0.1682 0.0000 0.0000
# 3 27.7464 27.7464 50.1187 0.0000 0.0000 0.0000
# 4 0.1682 -0.1682 0.0000 19.7355 0.0000 0.0000
# 5 0.0000 0.0000 0.0000 0.0000 19.7355 0.1682
# 6 0.0000 0.0000 0.0000 0.0000 0.1682 22.0673
#
#
#
# Elastic Compliance Matrix: (Units=1/GPa)
#
#
# Indices 1 2 3 4 5 6 
#
# 1 0.015678 -0.006982 -0.004814 -0.000193 0.000000 0.000000
# 2 -0.006982 0.015678 -0.004814 0.000193 0.000000 0.000000
# 3 -0.004814 -0.004814 0.025283 0.000000 0.000000 0.000000
# 4 -0.000193 0.000193 0.000000 0.050673 0.000000 0.000000
# 5 0.000000 0.000000 0.000000 0.000000 0.050673 -0.000386
# 6 0.000000 0.000000 0.000000 0.000000 -0.000386 0.045319
#
#
# Mechanical properties :
#
#
# Convention : Reuss Voigt Hill
#
# Bulk Modulus (GPa) = 42.70176 50.28158 46.49167
# Shear Modulus (GPa) = 20.46405 21.22002 20.84204
#
# Velocity S-wave (km/s) = 3.48667 3.55049 3.51873
# Velocity P-wave (km/s) = 6.44799 6.83215 6.64285
#
# Compressibility (1/GPa) = 0.02341824
#
# Stress axis : x y z
#
# Youngs Moduli (GPa) = 63.78458 63.78458 39.55200
#
# Poissons Ratio (x) = 0.44532 0.19042
# Poissons Ratio (y) = 0.44532 0.19042
# Poissons Ratio (z) = 0.30708 0.30708
#
# Static dielectric constant tensor:
#      x y z
#    x 3.279250 0.000000 0.000000 
#    y 0.000000 3.279250 0.000000 
#    z 0.000000 0.000000 2.757550 
# 
# 
# High freq. dielectric constant tensor:
#      x y z
#    x 1.662720 0.000000 0.000000 
#    y 0.000000 1.662720 0.000000 
#    z 0.000000 0.000000 1.587760 
# 
# From -- ./inp_files/2952.got.cif
#   From: 2010.03.12/outbox.cif.g09.slc.cpg/sg164_2_cif.got.tgz:2952.got - 2010.04.02 06:32:59.
