data_PCOD8323743
_publ_section_title
;
Structure prediction by ZEFSAII (Michael W. Deem and Ramdas Pophale) SiO2 
 PCOD8323743
Probable space group: P -3 M 1
;
_chemical_formula_sum "Si O2"
_cell_formula_units_Z 66
_cell_length_a 22.876807
_cell_length_b 22.876807
_cell_length_c 7.670569
_cell_angle_alpha 90.000000
_cell_angle_beta 90.000000
_cell_angle_gamma 120.000000
_cell_volume 3476.554398
_symmetry_space_group_name_H-M "P -3 M 1"
_symmetry_group_IT_number 164
_symmetry_cell_setting 'hexagonal'
loop_
_space_group_symop_operation_xyz
x,y,z
-y,x-y,z
-x+y,-x,z
x-y,-y,-z
-x,-x+y,-z
y,x,-z
-x,-y,-z
y,-x+y,-z
x-y,x,-z
-x+y,y,z
x,x-y,z
-y,-x,z
loop_
_atom_site_type_symbol
_atom_site_label
_atom_site_fract_x
_atom_site_fract_y
_atom_site_fract_z
Si Si1 0.377552 0.252131 0.798702
Si Si2 0.761162 0.761163 0.210736
Si Si3 0.000000 0.859617 0.500000
Si Si4 0.747869 0.622449 0.201309
Si Si5 0.526211 0.924725 0.294379
Si Si6 0.601488 0.075278 0.294388
O O1 0.388465 0.194233 0.709751
O O2 0.309443 0.246526 0.724250
O O3 0.445638 0.323057 0.771034
O O4 0.365024 0.237751 0.000005
O O5 0.820943 0.820944 0.322012
O O6 0.753473 0.690557 0.275756
O O7 0.774212 0.774212 0.000000
O O8 0.933577 0.867153 0.499999
O O9 0.805770 0.611539 0.290262
O O10 0.676945 0.554361 0.228980
O O11 0.448739 0.897478 0.231594
O O12 0.528976 0.927620 0.499996
O O13 0.573551 0.000002 0.218458
O O14 0.551263 0.102526 0.231605
#
# Coordination Sequence:
#
# PCOD8323743 Si02
#       6
#    12  12   6  12  12  12
#     4  10  20  33  52  80 111 144 184 228 276 334
#     4  10  22  41  60  86 121 150 185 239 296 349
#     4  12  27  44  64  86 111 152 200 242 290 348
#     4  10  20  33  52  80 111 144 184 228 276 334
#     4   9  18  32  50  75 107 139 173 217 268 323
#     4   9  18  32  50  75 107 139 173 217 268 323
#
# _framework density 18.984313
#
# number of rings (size 3 to 8) (size 9 to 14) (size 15 to 20)
#    0.000    2.182    1.818    2.273    2.545    3.636 
#    0.000    1.818    0.000    1.818    0.000    0.000 
#    0.000    0.000    0.000    0.000    0.000    0.000 
#
# Total GULP energy -817770.751397 kJ/mol
# GULP energy per Si atom -12390.465930 kJ/mol
# Density = 1.894110 g / cm^3
# Si number density = 18.984313 Si / 1000 Ang^3
#
#
#
# Elastic Constant Matrix: (Units=GPa)
#
#
# Indices 1 2 3 4 5 6 
#
# 1 199.1950 65.9150 20.8446 0.0016 0.0000 0.0000
# 2 65.9150 199.1950 20.8446 -0.0016 0.0000 0.0000
# 3 20.8446 20.8446 43.3738 0.0000 0.0000 0.0000
# 4 0.0016 -0.0016 0.0000 19.3483 0.0000 0.0000
# 5 0.0000 0.0000 0.0000 0.0000 19.3483 0.0016
# 6 0.0000 0.0000 0.0000 0.0000 0.0016 66.6400
#
#
#
# Elastic Compliance Matrix: (Units=1/GPa)
#
#
# Indices 1 2 3 4 5 6 
#
# 1 0.005792 -0.001711 -0.001961 -0.000001 0.000000 0.000000
# 2 -0.001711 0.005792 -0.001961 0.000001 0.000000 0.000000
# 3 -0.001961 -0.001961 0.024940 0.000000 0.000000 0.000000
# 4 -0.000001 0.000001 0.000000 0.051684 0.000000 0.000000
# 5 0.000000 0.000000 0.000000 0.000000 0.051684 -0.000001
# 6 0.000000 0.000000 0.000000 0.000000 -0.000001 0.015006
#
#
# Mechanical properties :
#
#
# Convention : Reuss Voigt Hill
#
# Bulk Modulus (GPa) = 39.59279 72.99690 56.29484
# Shear Modulus (GPa) = 28.63963 43.34463 35.99213
#
# Velocity S-wave (km/s) = 3.88828 4.78345 4.35890
# Velocity P-wave (km/s) = 6.40773 8.30922 7.41964
#
# Compressibility (1/GPa) = 0.02525713
#
# Stress axis : x y z
#
# Youngs Moduli (GPa) = 172.66108 172.66108 40.09596
#
# Poissons Ratio (x) = 0.29548 0.07863
# Poissons Ratio (y) = 0.29548 0.07863
# Poissons Ratio (z) = 0.33858 0.33858
#
# Static dielectric constant tensor:
#      x y z
#    x 5.911190 0.000000 0.000000 
#    y 0.000000 5.911190 0.000000 
#    z 0.000000 0.000000 3.320280 
# 
# 
# High freq. dielectric constant tensor:
#      x y z
#    x 1.730020 0.000000 0.000000 
#    y 0.000000 1.730020 0.000000 
#    z 0.000000 0.000000 1.731660 
# 
# From -- ./inp_files/1726.got.cif
#   From: 2010.03.12/outbox.cif.g09.slc.cpg/sg164_1_cif.got.tgz:1726.got - 2010.04.02 06:32:59.
