data_PCOD8323751
_publ_section_title
;
Structure prediction by ZEFSAII (Michael W. Deem and Ramdas Pophale) SiO2 
 PCOD8323751
Probable space group: P -3 M 1
;
_chemical_formula_sum "Si O2"
_cell_formula_units_Z 60
_cell_length_a 12.424291
_cell_length_b 12.424291
_cell_length_c 25.562809
_cell_angle_alpha 90.000000
_cell_angle_beta 90.000000
_cell_angle_gamma 120.000000
_cell_volume 3417.294727
_symmetry_space_group_name_H-M "P -3 M 1"
_symmetry_group_IT_number 164
_symmetry_cell_setting 'hexagonal'
loop_
_space_group_symop_operation_xyz
x,y,z
-y,x-y,z
-x+y,-x,z
x-y,-y,-z
-x,-x+y,-z
y,x,-z
-x,-y,-z
y,-x+y,-z
x-y,x,-z
-x+y,y,z
x,x-y,z
-y,-x,z
loop_
_atom_site_type_symbol
_atom_site_label
_atom_site_fract_x
_atom_site_fract_y
_atom_site_fract_z
Si Si1 0.083059 0.416514 0.798975
Si Si2 0.585956 0.667597 0.599867
Si Si3 0.749699 0.000000 0.000000
Si Si4 0.415993 0.332924 0.898923
Si Si5 0.000000 0.252539 0.500000
Si Si6 0.250050 0.251668 0.699106
O O1 0.224003 0.448005 0.804347
O O2 0.084327 0.542164 0.784536
O O3 0.010949 0.317654 0.753824
O O4 0.013302 0.358391 0.852824
O O5 0.552290 0.776145 0.599093
O O6 0.460866 0.539135 0.596822
O O7 0.669874 0.676451 0.550884
O O8 0.656553 0.670853 0.652673
O O9 0.685443 0.024228 0.951085
O O10 0.767048 0.883524 0.987420
O O11 0.424765 0.212383 0.884449
O O12 0.553900 0.446101 0.907415
O O13 0.117719 0.235438 0.494507
O O14 0.106166 0.212331 0.694081
O O15 0.261337 0.130669 0.695026
#
# Coordination Sequence:
#
# PCOD8323751 Si02
#       6
#    12  12   6  12   6  12
#     4  10  20  34  53  76 102 132 166 205 248 295
#     4  10  20  34  53  76 103 135 170 208 250 297
#     4  10  20  34  52  74 100 130 166 208 254 300
#     4  10  20  34  52  74 101 133 168 205 247 296
#     4  10  20  34  54  78 104 134 168 208 252 298
#     4  10  20  34  53  76 102 132 166 206 250 296
#
# _framework density 17.557746999999999
#
# number of rings (size 3 to 8) (size 9 to 14) (size 15 to 20)
#    0.000    2.000    0.000    4.000    0.000    0.000 
#    0.000    4.000    0.000   22.400    0.000    0.000 
#    0.000    0.000    0.000    0.000    0.000    0.000 
#
# Total GULP energy -744267.200461 kJ/mol
# GULP energy per Si atom -12404.453341 kJ/mol
# Density = 1.751778 g / cm^3
# Si number density = 17.557747 Si / 1000 Ang^3
#
#
#
# Elastic Constant Matrix: (Units=GPa)
#
#
# Indices 1 2 3 4 5 6 
#
# 1 287.9491 -167.8865 33.2255 -118.6377 -0.0004 0.0006
# 2 -167.8865 287.9491 33.2255 118.6377 0.0004 -0.0006
# 3 33.2255 33.2255 78.9216 0.0000 0.0000 0.0000
# 4 -118.6377 118.6377 0.0000 96.0785 0.0002 -0.0004
# 5 -0.0004 0.0004 0.0000 0.0002 96.0782 -118.6372
# 6 0.0006 -0.0006 0.0000 -0.0004 -118.6372 227.9171
#
#
#
# Elastic Compliance Matrix: (Units=1/GPa)
#
#
# Indices 1 2 3 4 5 6 
#
# 1 0.008500 0.002359 -0.004572 0.007583 0.000000 0.000000
# 2 0.002359 0.008500 -0.004572 -0.007583 0.000000 0.000000
# 3 -0.004572 -0.004572 0.016520 0.000000 0.000000 0.000000
# 4 0.007583 -0.007583 0.000000 0.029134 0.000000 0.000000
# 5 0.000000 0.000000 0.000000 0.000000 0.029134 0.015165
# 6 0.000000 0.000000 0.000000 0.000000 0.015165 0.012281
#
#
# Mechanical properties :
#
#
# Convention : Reuss Voigt Hill
#
# Bulk Modulus (GPa) = 50.12050 50.21652 50.16851
# Shear Modulus (GPa) = 40.22910 134.43179 87.33044
#
# Velocity S-wave (km/s) = 4.79189 8.75966 7.06024
# Velocity P-wave (km/s) = 7.69573 11.44429 9.75182
#
# Compressibility (1/GPa) = 0.01995192
#
# Stress axis : x y z
#
# Youngs Moduli (GPa) = 117.64729 117.64729 60.53235
#
# Poissons Ratio (x) = -0.27756 0.27673
# Poissons Ratio (y) = -0.27756 0.27673
# Poissons Ratio (z) = 0.53785 0.53785
#
# Static dielectric constant tensor:
#      x y z
#    x 3.248820 0.000000 0.000000 
#    y 0.000000 3.248820 0.000000 
#    z 0.000000 0.000000 3.415930 
# 
# 
# High freq. dielectric constant tensor:
#      x y z
#    x 1.685920 0.000000 0.000000 
#    y 0.000000 1.685920 0.000000 
#    z 0.000000 0.000000 1.696650 
# 
# From -- ./inp_files/5226.got.cif
#   From: 2010.03.12/outbox.cif.g09.slc.cpg/sg164_3_cif.got.tgz:5226.got - 2010.04.02 06:32:59.
