data_PCOD8323772
_publ_section_title
;
Structure prediction by ZEFSAII (Michael W. Deem and Ramdas Pophale) SiO2 
 PCOD8323772
Probable space group: P -3 M 1
;
_chemical_formula_sum "Si O2"
_cell_formula_units_Z 84
_cell_length_a 21.325341
_cell_length_b 21.325341
_cell_length_c 10.735705
_cell_angle_alpha 90.000000
_cell_angle_beta 90.000000
_cell_angle_gamma 120.000000
_cell_volume 4228.177101
_symmetry_space_group_name_H-M "P -3 M 1"
_symmetry_group_IT_number 164
_symmetry_cell_setting 'hexagonal'
loop_
_space_group_symop_operation_xyz
x,y,z
-y,x-y,z
-x+y,-x,z
x-y,-y,-z
-x,-x+y,-z
y,x,-z
-x,-y,-z
y,-x+y,-z
x-y,x,-z
-x+y,y,z
x,x-y,z
-y,-x,z
loop_
_atom_site_type_symbol
_atom_site_label
_atom_site_fract_x
_atom_site_fract_y
_atom_site_fract_z
Si Si1 0.373117 0.116383 0.496729
Si Si2 0.473881 0.669431 0.824475
Si Si3 0.331136 0.807613 0.103068
Si Si4 0.079149 0.300666 0.237459
Si Si5 0.219468 0.179768 0.376995
Si Si6 0.461729 0.389928 0.344219
Si Si7 0.036762 0.633333 0.133580
O O1 0.408420 0.204210 0.480750
O O2 0.348066 0.096264 0.638127
O O3 0.304649 0.076905 0.405621
O O4 0.424014 0.080473 0.469315
O O5 0.445489 0.722745 0.779836
O O6 0.412189 0.587812 0.821991
O O7 0.532195 0.673169 0.728575
O O8 0.505783 0.689414 0.962333
O O9 0.391983 0.783966 0.109119
O O10 0.257487 0.742514 0.166259
O O11 0.360073 0.885768 0.161932
O O12 0.151148 0.302296 0.186049
O O13 0.048208 0.334012 0.135724
O O14 0.018067 0.217843 0.265906
O O15 0.173366 0.173366 0.500000
O O16 0.198873 0.099437 0.333714
O O17 0.536418 0.463583 0.380435
O O18 0.414708 0.408234 0.251438
O O19 0.000000 0.596094 0.000000
#
# Coordination Sequence:
#
# PCOD8323772 Si02
#       7
#    12  12  12  12  12  12  12
#     4   9  18  35  58  81 110 145 185 230 284 344
#     4   9  17  29  47  71 100 135 176 226 280 336
#     4  10  20  35  54  75 102 141 191 240 289 340
#     4  10  21  39  61  84 116 151 186 229 279 342
#     4   9  16  30  56  86 114 144 180 224 275 336
#     4  11  21  33  52  78 113 147 187 238 288 343
#     4  12  23  37  54  79 114 153 194 235 286 340
#
# _framework density 19.866716
#
# number of rings (size 3 to 8) (size 9 to 14) (size 15 to 20)
#    0.000    2.000    2.857    2.857    0.000    1.714 
#    0.000    3.571    0.000    2.857    0.000    0.000 
#    0.000    0.571    0.000    0.000    0.000    0.000 
#
# Total GULP energy -1040712.423824 kJ/mol
# GULP energy per Si atom -12389.433617 kJ/mol
# Density = 1.982150 g / cm^3
# Si number density = 19.866716 Si / 1000 Ang^3
#
#
#
# Elastic Constant Matrix: (Units=GPa)
#
#
# Indices 1 2 3 4 5 6 
#
# 1 98.3952 33.2663 19.3078 1.6017 0.0000 0.0000
# 2 33.2663 98.3952 19.3078 -1.6017 0.0000 0.0000
# 3 19.3078 19.3078 30.7945 0.0000 0.0000 0.0000
# 4 1.6017 -1.6017 0.0000 16.3122 0.0000 0.0000
# 5 0.0000 0.0000 0.0000 0.0000 16.3122 1.6017
# 6 0.0000 0.0000 0.0000 0.0000 1.6017 32.5645
#
#
#
# Elastic Compliance Matrix: (Units=1/GPa)
#
#
# Indices 1 2 3 4 5 6 
#
# 1 0.012368 -0.003061 -0.005835 -0.001515 0.000000 0.000000
# 2 -0.003061 0.012368 -0.005835 0.001515 0.000000 0.000000
# 3 -0.005835 -0.005835 0.039791 0.000000 0.000000 0.000000
# 4 -0.001515 0.001515 0.000000 0.061601 0.000000 0.000000
# 5 0.000000 0.000000 0.000000 0.000000 0.061601 -0.003030
# 6 0.000000 0.000000 0.000000 0.000000 -0.003030 0.030857
#
#
# Mechanical properties :
#
#
# Convention : Reuss Voigt Hill
#
# Bulk Modulus (GPa) = 28.51998 41.26098 34.89048
# Shear Modulus (GPa) = 19.25027 23.41796 21.33412
#
# Velocity S-wave (km/s) = 3.11621 3.43702 3.28054
# Velocity P-wave (km/s) = 5.22824 6.04688 5.65240
#
# Compressibility (1/GPa) = 0.03506314
#
# Stress axis : x y z
#
# Youngs Moduli (GPa) = 80.85598 80.85598 25.13158
#
# Poissons Ratio (x) = 0.24750 0.14665
# Poissons Ratio (y) = 0.24750 0.14665
# Poissons Ratio (z) = 0.47181 0.47181
#
# Static dielectric constant tensor:
#      x y z
#    x 3.763090 0.000000 0.000000 
#    y 0.000000 3.763090 0.000000 
#    z 0.000000 0.000000 3.342270 
# 
# 
# High freq. dielectric constant tensor:
#      x y z
#    x 1.775230 0.000000 0.000000 
#    y 0.000000 1.775230 0.000000 
#    z 0.000000 0.000000 1.735850 
# 
# From -- ./inp_files/2905.got.cif
#   From: 2010.03.12/outbox.cif.g09.slc.cpg/sg164_2_cif.got.tgz:2905.got - 2010.04.02 06:32:59.
