data_PCOD8323951
_publ_section_title
;
Structure prediction by ZEFSAII (Michael W. Deem and Ramdas Pophale) SiO2 
 PCOD8323951
Probable space group: P -3 C 1
;
_chemical_formula_sum "Si O2"
_cell_formula_units_Z 84
_cell_length_a 15.326995
_cell_length_b 15.326995
_cell_length_c 23.680288
_cell_angle_alpha 90.000000
_cell_angle_beta 90.000000
_cell_angle_gamma 120.000000
_cell_volume 4817.610039
_symmetry_space_group_name_H-M "P -3 C 1"
_symmetry_group_IT_number 165
_symmetry_cell_setting 'hexagonal'
loop_
_space_group_symop_operation_xyz
x,y,z
-y,x-y,z
-x+y,-x,z
x-y,-y,1/2-z
-x,-x+y,1/2-z
y,x,1/2-z
-x,-y,-z
y,-x+y,-z
x-y,x,-z
-x+y,y,1/2+z
x,x-y,1/2+z
-y,-x,1/2+z
loop_
_atom_site_type_symbol
_atom_site_label
_atom_site_fract_x
_atom_site_fract_y
_atom_site_fract_z
Si Si1 0.927793 0.774380 0.435637
Si Si2 0.353508 0.786791 0.331293
Si Si3 0.213627 0.564238 0.206554
Si Si4 0.330051 0.419890 0.926350
Si Si5 0.544847 0.831767 0.050936
Si Si6 0.929933 0.147623 0.069929
Si Si7 0.378516 0.504918 0.591091
O O1 0.885181 0.656843 0.421538
O O2 0.859888 0.817190 0.408797
O O3 0.932315 0.783202 0.502631
O O4 0.037792 0.845709 0.408548
O O5 0.244478 0.684538 0.337451
O O6 0.359491 0.833763 0.268939
O O7 0.372249 0.866361 0.379405
O O8 0.318081 0.561391 0.199883
O O9 0.135251 0.494085 0.158727
O O10 0.225595 0.326495 0.904983
O O11 0.411534 0.384364 0.934710
O O12 0.310530 0.458812 0.984816
O O13 0.482882 0.875847 0.081931
O O14 0.490874 0.711655 0.058868
#
# Coordination Sequence:
#
# PCOD8323951 Si02
#       7
#    12  12  12  12  12  12  12
#     4   9  17  32  50  74 102 145 180 222 266 321
#     4   8  19  36  55  74 106 144 178 225 282 334
#     4   8  15  35  59  76  95 140 188 227 269 328
#     4  11  23  32  51  81 115 141 183 225 275 333
#     4  11  23  34  51  79 114 149 184 219 272 339
#     4   9  17  31  51  72 105 138 181 224 266 314
#     4  12  21  36  55  79 109 149 185 226 271 331
#
# _framework density 17.436032000000001
#
# number of rings (size 3 to 8) (size 9 to 14) (size 15 to 20)
#    0.571    1.714    2.857    1.000    4.000    2.857 
#    0.000    0.000    0.000    0.000    0.000    0.000 
#    0.000    0.000    0.000    0.000    0.000    0.000 
#
# Total GULP energy -1041014.628827 kJ/mol
# GULP energy per Si atom -12393.031296 kJ/mol
# Density = 1.739635 g / cm^3
# Si number density = 17.436032 Si / 1000 Ang^3
#
#
#
# Elastic Constant Matrix: (Units=GPa)
#
#
# Indices 1 2 3 4 5 6 
#
# 1 82.8273 28.8604 24.6605 -3.6456 0.0000 0.0000
# 2 28.8604 82.8273 24.6605 3.6456 0.0000 0.0000
# 3 24.6605 24.6605 77.2306 0.0000 0.0000 0.0000
# 4 -3.6456 3.6456 0.0000 7.4876 0.0000 0.0000
# 5 0.0000 0.0000 0.0000 0.0000 7.4876 -3.6456
# 6 0.0000 0.0000 0.0000 0.0000 -3.6456 26.9834
#
#
#
# Elastic Compliance Matrix: (Units=1/GPa)
#
#
# Indices 1 2 3 4 5 6 
#
# 1 0.015129 -0.004706 -0.003328 0.009657 0.000000 0.000000
# 2 -0.004706 0.015129 -0.003328 -0.009657 0.000000 0.000000
# 3 -0.003328 -0.003328 0.015074 0.000000 0.000000 0.000000
# 4 0.009657 -0.009657 0.000000 0.142958 0.000000 0.000000
# 5 0.000000 0.000000 0.000000 0.000000 0.142958 0.019315
# 6 0.000000 0.000000 0.000000 0.000000 0.019315 0.039669
#
#
# Mechanical properties :
#
#
# Convention : Reuss Voigt Hill
#
# Bulk Modulus (GPa) = 44.23357 44.36089 44.29723
# Shear Modulus (GPa) = 12.46335 19.37200 15.91768
#
# Velocity S-wave (km/s) = 2.67648 3.33683 3.02473
# Velocity P-wave (km/s) = 5.91401 6.35163 6.13672
#
# Compressibility (1/GPa) = 0.02260727
#
# Stress axis : x y z
#
# Youngs Moduli (GPa) = 66.09840 66.09840 66.34063
#
# Poissons Ratio (x) = 0.31104 0.22080
# Poissons Ratio (y) = 0.31104 0.22080
# Poissons Ratio (z) = 0.21999 0.21999
#
# Static dielectric constant tensor:
#      x y z
#    x 3.233470 0.000000 0.000000 
#    y 0.000000 3.233470 0.000000 
#    z 0.000000 0.000000 2.902100 
# 
# 
# High freq. dielectric constant tensor:
#      x y z
#    x 1.668480 0.000000 0.000000 
#    y 0.000000 1.668480 0.000000 
#    z 0.000000 0.000000 1.637430 
# 
# From -- ./inp_files/2979.got.cif
#   From: 2010.03.12/outbox.cif.g09.slc.cpg/sg165_2_cif.got.tgz:2979.got - 2010.04.02 06:36:38.
