data_PCOD8323282
_publ_section_title
;
Structure prediction by ZEFSAII (Michael W. Deem and Ramdas Pophale) SiO2 
 PCOD8323282
Probable space group: P -3 1 C
;
_chemical_formula_sum "Si O2"
_cell_formula_units_Z 52
_cell_length_a 11.162003
_cell_length_b 11.162003
_cell_length_c 21.580666
_cell_angle_alpha 90.000000
_cell_angle_beta 90.000000
_cell_angle_gamma 120.000000
_cell_volume 2328.518779
_symmetry_space_group_name_H-M "P -3 1 C"
_symmetry_group_IT_number 163
_symmetry_cell_setting 'hexagonal'
loop_
_space_group_symop_operation_xyz
x,y,z
-y,x-y,z
-x+y,-x,z
-y,-x,1/2-z
-x+y,y,1/2-z
x,x-y,1/2-z
-x,-y,-z
y,-x+y,-z
x-y,x,-z
y,x,1/2+z
x-y,-y,1/2+z
-x,-x+y,1/2+z
loop_
_atom_site_type_symbol
_atom_site_label
_atom_site_fract_x
_atom_site_fract_y
_atom_site_fract_z
Si Si1 0.666668 0.333335 0.678662
Si Si2 0.863524 0.680449 0.000702
Si Si3 0.715194 0.598305 0.367925
Si Si4 0.388624 0.202477 0.633935
Si Si5 0.551750 0.611028 0.687326
O O1 0.666668 0.333334 0.750000
O O2 0.531918 0.336341 0.654691
O O3 0.828678 0.588043 0.062166
O O4 0.788687 0.767160 0.007167
O O5 0.819767 0.590704 0.938070
O O6 0.725862 0.749357 0.355933
O O7 0.556590 0.475521 0.366432
O O8 0.808968 0.576733 0.316665
O O9 0.368777 0.073988 0.676780
O O10 0.474446 0.525554 0.750000
#
# Coordination Sequence:
#
# PCOD8323282 Si02
#       5
#     4  12  12  12  12
#     4  12  24  45  66  99 135 189 241 317 358 444
#     4  10  21  41  67 104 148 191 243 307 369 443
#     4  11  25  43  71 107 140 195 247 301 373 441
#     4  11  24  42  72 103 141 190 251 302 370 442
#     4  12  25  46  69 104 150 194 244 306 372 439
#
# _framework density 22.331792
#
# number of rings (size 3 to 8) (size 9 to 14) (size 15 to 20)
#    0.000    0.923    4.615    2.077    0.000    2.769 
#    1.385    0.000    0.000    0.000    0.000    0.000 
#    0.000    0.000    0.000    0.000    0.000    0.000 
#
# Total GULP energy -644245.165938 kJ/mol
# GULP energy per Si atom -12389.330114 kJ/mol
# Density = 2.228096 g / cm^3
# Si number density = 22.331792 Si / 1000 Ang^3
#
#
#
# Elastic Constant Matrix: (Units=GPa)
#
#
# Indices 1 2 3 4 5 6 
#
# 1 124.1169 26.5286 56.7526 -0.0001 -5.9590 0.0003
# 2 26.5286 124.1177 56.7523 -0.0002 5.9589 0.0004
# 3 56.7526 56.7523 166.7761 0.0000 0.0000 -0.0003
# 4 -0.0001 -0.0002 0.0000 39.3552 0.0001 5.9589
# 5 -5.9590 5.9589 0.0000 0.0001 39.3550 0.0000
# 6 0.0003 0.0004 -0.0003 5.9589 0.0000 48.7945
#
#
#
# Elastic Compliance Matrix: (Units=1/GPa)
#
#
# Indices 1 2 3 4 5 6 
#
# 1 0.009684 -0.000757 -0.003038 0.000000 0.001581 0.000000
# 2 -0.000757 0.009683 -0.003038 0.000000 -0.001581 0.000000
# 3 -0.003038 -0.003038 0.008064 0.000000 0.000000 0.000000
# 4 0.000000 0.000000 0.000000 0.025888 0.000000 -0.003162
# 5 0.001581 -0.001581 0.000000 0.000000 0.025888 0.000000
# 6 0.000000 0.000000 0.000000 -0.003162 0.000000 0.020880
#
#
# Mechanical properties :
#
#
# Convention : Reuss Voigt Hill
#
# Bulk Modulus (GPa) = 72.64115 77.23086 74.93601
# Shear Modulus (GPa) = 42.25096 43.83275 43.04185
#
# Velocity S-wave (km/s) = 4.35439 4.43515 4.39496
# Velocity P-wave (km/s) = 7.60787 7.80294 7.70602
#
# Compressibility (1/GPa) = 0.01376630
#
# Stress axis : x y z
#
# Youngs Moduli (GPa) = 103.26777 103.26882 124.01560
#
# Poissons Ratio (x) = 0.07814 0.37673
# Poissons Ratio (y) = 0.07814 0.37672
# Poissons Ratio (z) = 0.31370 0.31370
#
# Static dielectric constant tensor:
#      x y z
#    x 4.039630 0.000010 0.000010 
#    y 0.000010 4.039650 0.000020 
#    z 0.000010 0.000020 4.158050 
# 
# 
# High freq. dielectric constant tensor:
#      x y z
#    x 1.883120 0.000000 0.000000 
#    y 0.000000 1.883120 0.000000 
#    z 0.000000 0.000000 1.885580 
# 
# From -- ./inp_files/3489.got.cif
#   From: 2010.03.12/outbox.cif.g09.slc.cpg/sg163_2_cif.got.tgz:3489.got - 2010.04.02 06:30:25.
