data_PCOD8323694
_publ_section_title
;
Structure prediction by ZEFSAII (Michael W. Deem and Ramdas Pophale) SiO2 
 PCOD8323694
Probable space group: P -3 M 1
;
_chemical_formula_sum "Si O2"
_cell_formula_units_Z 60
_cell_length_a 12.554629
_cell_length_b 12.554629
_cell_length_c 25.330410
_cell_angle_alpha 90.000000
_cell_angle_beta 90.000000
_cell_angle_gamma 120.000000
_cell_volume 3457.646722
_symmetry_space_group_name_H-M "P -3 M 1"
_symmetry_group_IT_number 164
_symmetry_cell_setting 'hexagonal'
loop_
_space_group_symop_operation_xyz
x,y,z
-y,x-y,z
-x+y,-x,z
x-y,-y,-z
-x,-x+y,-z
y,x,-z
-x,-y,-z
y,-x+y,-z
x-y,x,-z
-x+y,y,z
x,x-y,z
-y,-x,z
loop_
_atom_site_type_symbol
_atom_site_label
_atom_site_fract_x
_atom_site_fract_y
_atom_site_fract_z
Si Si1 0.755946 0.000152 0.440273
Si Si2 0.248619 0.248435 0.851040
Si Si3 0.333632 0.420057 0.653912
Si Si4 0.582450 0.666835 0.950375
Si Si5 0.666503 0.085304 0.752062
O O1 0.738217 0.869109 0.423945
O O2 0.711487 0.000000 0.500000
O O3 0.673440 0.031585 0.402399
O O4 0.899824 0.100177 0.434643
O O5 0.112069 0.224139 0.844127
O O6 0.319913 0.339807 0.898566
O O7 0.321974 0.309026 0.797825
O O8 0.240562 0.120281 0.863745
O O9 0.207428 0.414856 0.668920
O O10 0.438916 0.561085 0.650751
O O11 0.361412 0.345852 0.697728
O O12 0.568145 0.784073 0.960648
O O13 0.448611 0.551390 0.942377
O O14 0.652061 0.652061 0.000000
O O15 0.544211 0.088421 0.766427
O O16 0.776256 0.223745 0.746134
#
# Coordination Sequence:
#
# PCOD8323694 Si02
#       5
#    12  12  12  12  12
#     4   9  17  30  49  72  96 122 154 194 239 284
#     4  10  20  34  52  74 100 129 161 197 238 284
#     4  10  20  33  49  69  95 127 161 196 234 279
#     4  10  20  34  52  74 100 130 164 201 241 284
#     4  10  20  34  52  73  97 125 158 197 240 285
#
# _framework density 17.352844000000001
#
# number of rings (size 3 to 8) (size 9 to 14) (size 15 to 20)
#    0.000    2.200    0.000    3.400    0.000    1.200 
#    0.000    0.000    0.000   22.800    0.000    0.000 
#    0.000    0.000    0.000    0.000    0.000    0.000 
#
# Total GULP energy -744220.827714 kJ/mol
# GULP energy per Si atom -12403.680462 kJ/mol
# Density = 1.731335 g / cm^3
# Si number density = 17.352844 Si / 1000 Ang^3
#
#
#
# Elastic Constant Matrix: (Units=GPa)
#
#
# Indices 1 2 3 4 5 6 
#
# 1 84.9886 43.8870 52.8059 5.7635 0.0000 0.0000
# 2 43.8870 84.9886 52.8059 -5.7635 0.0000 0.0000
# 3 52.8059 52.8059 101.7318 0.0000 0.0000 0.0000
# 4 5.7635 -5.7635 0.0000 27.7592 0.0000 0.0000
# 5 0.0000 0.0000 0.0000 0.0000 27.7592 5.7635
# 6 0.0000 0.0000 0.0000 0.0000 5.7635 20.5508
#
#
#
# Elastic Compliance Matrix: (Units=1/GPa)
#
#
# Indices 1 2 3 4 5 6 
#
# 1 0.019669 -0.006165 -0.007009 -0.005364 0.000000 0.000000
# 2 -0.006165 0.019669 -0.007009 0.005364 0.000000 0.000000
# 3 -0.007009 -0.007009 0.017106 0.000000 0.000000 0.000000
# 4 -0.005364 0.005364 0.000000 0.038251 0.000000 0.000000
# 5 0.000000 0.000000 0.000000 0.000000 0.038251 -0.010728
# 6 0.000000 0.000000 0.000000 0.000000 -0.010728 0.051668
#
#
# Mechanical properties :
#
#
# Convention : Reuss Voigt Hill
#
# Bulk Modulus (GPa) = 62.20358 63.41186 62.80772
# Shear Modulus (GPa) = 21.70689 23.36118 22.53404
#
# Velocity S-wave (km/s) = 3.54066 3.67310 3.60749
# Velocity P-wave (km/s) = 7.25529 7.38992 7.32291
#
# Compressibility (1/GPa) = 0.01607625
#
# Stress axis : x y z
#
# Youngs Moduli (GPa) = 50.84197 50.84197 58.45810
#
# Poissons Ratio (x) = 0.31346 0.40974
# Poissons Ratio (y) = 0.31346 0.40974
# Poissons Ratio (z) = 0.35636 0.35636
#
# Static dielectric constant tensor:
#      x y z
#    x 3.226200 0.000000 0.000000 
#    y 0.000000 3.226200 0.000000 
#    z 0.000000 0.000000 3.392550 
# 
# 
# High freq. dielectric constant tensor:
#      x y z
#    x 1.677190 0.000000 0.000000 
#    y 0.000000 1.677190 0.000000 
#    z 0.000000 0.000000 1.681670 
# 
# From -- ./inp_files/5170.got.cif
#   From: 2010.03.12/outbox.cif.g09.slc.cpg/sg164_3_cif.got.tgz:5170.got - 2010.04.02 06:32:59.
