data_PCOD8323094
_publ_section_title
;
Structure prediction by ZEFSAII (Michael W. Deem and Ramdas Pophale) SiO2 
 PCOD8323094
Probable space group: P -3 1 M 
;
_chemical_formula_sum "Si O2"
_cell_formula_units_Z 66
_cell_length_a 21.997180
_cell_length_b 21.997180
_cell_length_c 8.115347
_cell_angle_alpha 90.000000
_cell_angle_beta 90.000000
_cell_angle_gamma 120.000000
_cell_volume 3400.726794
_symmetry_space_group_name_H-M "P -3 1 M "
_symmetry_group_IT_number 162
_symmetry_cell_setting 'hexagonal'
loop_
_space_group_symop_operation_xyz
x,y,z
-y,x-y,z
-x+y,-x,z
-y,-x,-z
-x+y,y,-z
x,x-y,-z
-x,-y,-z
y,-x+y,-z
x-y,x,-z
y,x,z
x-y,-y,z
-x,-x+y,z
loop_
_atom_site_type_symbol
_atom_site_label
_atom_site_fract_x
_atom_site_fract_y
_atom_site_fract_z
Si Si1 0.082036 0.547228 0.681239
Si Si2 0.081183 0.406832 0.181540
Si Si3 0.664518 0.080417 0.200035
Si Si4 0.813291 0.173072 0.313817
Si Si5 0.918282 0.137110 0.828412
Si Si6 0.920996 0.079004 0.500000
O O1 0.116931 0.558466 0.500000
O O2 0.108871 0.620890 0.773725
O O3 0.099362 0.496585 0.788686
O O4 0.000000 0.514574 0.659610
O O5 0.137140 0.390613 0.266085
O O6 0.000000 0.354095 0.240453
O O7 0.085318 0.398335 0.987977
O O8 0.728947 0.140750 0.306735
O O9 0.635964 0.000000 0.266238
O O10 0.834684 0.165317 0.500000
O O11 0.821397 0.123758 0.178557
O O12 0.886200 0.085952 0.668960
O O13 0.000000 0.192401 0.811018
O O14 0.904827 0.095174 0.000000
O O15 0.000000 0.109886 0.551007
#
# Coordination Sequence:
#
# PCOD8323094 Si02
#       6
#    12  12  12  12  12   6
#     4   9  17  32  55  83 111 142 179 222 272 327
#     4  10  21  36  57  83 114 151 190 234 285 344
#     4  10  20  36  57  82 113 149 191 235 282 341
#     4  12  24  37  54  83 117 155 195 243 298 352
#     4  11  23  40  59  82 113 150 195 246 308 371
#     4  10  21  38  58  80 104 138 186 240 298 360
#
# _framework density 19.407613999999999
#
# number of rings (size 3 to 8) (size 9 to 14) (size 15 to 20)
#    0.000    1.636    0.909    4.455    0.000    8.000 
#    0.000    0.000    0.000    3.636    0.000    5.091 
#    0.000    0.000    0.000    0.000    0.000    0.000 
#
# Total GULP energy -817839.582861 kJ/mol
# GULP energy per Si atom -12391.508831 kJ/mol
# Density = 1.936344 g / cm^3
# Si number density = 19.407614 Si / 1000 Ang^3
#
#
#
# Elastic Constant Matrix: (Units=GPa)
#
#
# Indices 1 2 3 4 5 6 
#
# 1 103.2497 55.7649 30.7371 0.0001 2.7268 0.0000
# 2 55.7649 103.2497 30.7371 -0.0001 -2.7268 0.0000
# 3 30.7371 30.7371 115.0991 0.0000 0.0000 0.0000
# 4 0.0001 -0.0001 0.0000 29.0956 0.0000 -2.7268
# 5 2.7268 -2.7268 0.0000 0.0000 29.0956 0.0001
# 6 0.0000 0.0000 0.0000 -2.7268 0.0001 23.7424
#
#
#
# Elastic Compliance Matrix: (Units=1/GPa)
#
#
# Indices 1 2 3 4 5 6 
#
# 1 0.014151 -0.007138 -0.001873 0.000000 -0.001995 0.000000
# 2 -0.007138 0.014151 -0.001873 0.000000 0.001995 0.000000
# 3 -0.001873 -0.001873 0.009688 0.000000 0.000000 0.000000
# 4 0.000000 0.000000 0.000000 0.034743 0.000000 0.003990
# 5 -0.001995 0.001995 0.000000 0.000000 0.034743 0.000000
# 6 0.000000 0.000000 0.000000 0.003990 0.000000 0.042577
#
#
# Mechanical properties :
#
#
# Convention : Reuss Voigt Hill
#
# Bulk Modulus (GPa) = 61.64137 61.78631 61.71384
# Shear Modulus (GPa) = 28.21225 30.01066 29.11145
#
# Velocity S-wave (km/s) = 3.81684 3.93661 3.87719
# Velocity P-wave (km/s) = 7.15924 7.25036 7.20495
#
# Compressibility (1/GPa) = 0.01622287
#
# Stress axis : x y z
#
# Youngs Moduli (GPa) = 70.66829 70.66829 103.21632
#
# Poissons Ratio (x) = 0.50442 0.19330
# Poissons Ratio (y) = 0.50442 0.19330
# Poissons Ratio (z) = 0.13234 0.13234
#
# Static dielectric constant tensor:
#      x y z
#    x 3.450950 0.000000 0.000000 
#    y 0.000000 3.450950 0.000000 
#    z 0.000000 0.000000 17.086620 
# 
# 
# High freq. dielectric constant tensor:
#      x y z
#    x 1.737680 0.000000 0.000000 
#    y 0.000000 1.737680 0.000000 
#    z 0.000000 0.000000 1.772470 
# 
# From -- ./inp_files/1603.got.cif
#   From: 2010.03.12/outbox.cif.g09.slc.cpg/sg162_1_cif.got.tgz:1603.got - 2010.04.02 06:27:41.
