data_PCOD8323962
_publ_section_title
;
Structure prediction by ZEFSAII (Michael W. Deem and Ramdas Pophale) SiO2 
 PCOD8323962
Probable space group: P -3 C 1
;
_chemical_formula_sum "Si O2"
_cell_formula_units_Z 48
_cell_length_a 11.506323
_cell_length_b 11.506323
_cell_length_c 17.292873
_cell_angle_alpha 90.000000
_cell_angle_beta 90.000000
_cell_angle_gamma 120.000000
_cell_volume 1982.763457
_symmetry_space_group_name_H-M "P -3 C 1"
_symmetry_group_IT_number 165
_symmetry_cell_setting 'hexagonal'
loop_
_space_group_symop_operation_xyz
x,y,z
-y,x-y,z
-x+y,-x,z
x-y,-y,1/2-z
-x,-x+y,1/2-z
y,x,1/2-z
-x,-y,-z
y,-x+y,-z
x-y,x,-z
-x+y,y,1/2+z
x,x-y,1/2+z
-y,-x,1/2+z
loop_
_atom_site_type_symbol
_atom_site_label
_atom_site_fract_x
_atom_site_fract_y
_atom_site_fract_z
Si Si1 0.103191 0.718007 0.817278
Si Si2 0.000000 0.000000 0.409898
Si Si3 0.262294 0.246575 0.100679
Si Si4 0.333335 0.666668 0.824642
Si Si5 0.333334 0.666668 0.508348
Si Si6 0.393583 0.267448 0.939219
O O1 0.220944 0.872417 0.834647
O O2 0.190420 0.647400 0.795119
O O3 0.000000 0.702034 0.750000
O O4 0.009663 0.649503 0.891843
O O5 0.141615 0.109785 0.377928
O O6 0.000000 0.000000 0.500000
O O7 0.246945 0.379665 0.103432
O O8 0.305048 0.220990 0.016818
O O9 0.333334 0.666667 0.916698
O O10 0.190469 0.641364 0.538913
#
# Coordination Sequence:
#
# PCOD8323962 Si02
#       6
#    12   4  12   4   4  12
#     4  12  29  48  74 111 151 206 252 307 390 457
#     4  12  15  33  64 101 136 183 241 314 379 402
#     4  12  20  41  73 106 148 192 253 318 368 438
#     4  12  27  55  77 103 159 202 248 313 387 469
#     4  12  27  43  80 118 147 202 266 310 375 463
#     4  12  24  43  75 113 152 196 255 315 373 452
#
# _framework density 24.208639000000002
#
# number of rings (size 3 to 8) (size 9 to 14) (size 15 to 20)
#    0.000    0.000   10.000    0.000    3.500    5.000 
#    0.000    0.000    0.000    0.000    0.000    0.000 
#    0.000    0.000    0.000    0.000    0.000    0.000 
#
# Total GULP energy -594630.526772 kJ/mol
# GULP energy per Si atom -12388.135974 kJ/mol
# Density = 2.415354 g / cm^3
# Si number density = 24.208639 Si / 1000 Ang^3
#
#
#
# Elastic Constant Matrix: (Units=GPa)
#
#
# Indices 1 2 3 4 5 6 
#
# 1 80.3249 16.2715 10.0673 5.6072 0.0000 0.0000
# 2 16.2715 80.3261 10.0670 -5.6069 0.0000 0.0000
# 3 10.0673 10.0670 58.5871 0.0001 0.0000 0.0000
# 4 5.6072 -5.6069 0.0001 23.2504 0.0000 0.0000
# 5 0.0000 0.0000 0.0000 0.0000 23.2490 5.6080
# 6 0.0000 0.0000 0.0000 0.0000 5.6080 32.0277
#
#
#
# Elastic Compliance Matrix: (Units=1/GPa)
#
#
# Indices 1 2 3 4 5 6 
#
# 1 0.013519 -0.002782 -0.001845 -0.003931 0.000000 0.000000
# 2 -0.002782 0.013518 -0.001845 0.003931 0.000000 0.000000
# 3 -0.001845 -0.001845 0.017703 0.000000 0.000000 0.000000
# 4 -0.003931 0.003931 0.000000 0.044906 0.000000 0.000000
# 5 0.000000 0.000000 0.000000 0.000000 0.044909 -0.007864
# 6 0.000000 0.000000 0.000000 0.000000 -0.007864 0.032600
#
#
# Mechanical properties :
#
#
# Convention : Reuss Voigt Hill
#
# Bulk Modulus (GPa) = 31.44991 32.44995 31.94993
# Shear Modulus (GPa) = 26.21969 27.89426 27.05697
#
# Velocity S-wave (km/s) = 3.29458 3.39815 3.34677
# Velocity P-wave (km/s) = 5.24325 5.36936 5.30668
#
# Compressibility (1/GPa) = 0.03179660
#
# Stress axis : x y z
#
# Youngs Moduli (GPa) = 73.97235 73.97376 56.48876
#
# Poissons Ratio (x) = 0.20577 0.10422
# Poissons Ratio (y) = 0.20576 0.10421
# Poissons Ratio (z) = 0.13648 0.13647
#
# Static dielectric constant tensor:
#      x y z
#    x 3.872420 0.000000 0.000000 
#    y 0.000000 3.872440 -0.000010 
#    z 0.000000 -0.000010 4.042940 
# 
# 
# High freq. dielectric constant tensor:
#      x y z
#    x 1.966930 0.000000 0.000000 
#    y 0.000000 1.966930 0.000000 
#    z 0.000000 0.000000 1.920410 
# 
# From -- ./inp_files/2570.got.cif
#   From: 2010.03.12/outbox.cif.g09.slc.cpg/sg165_2_cif.got.tgz:2570.got - 2010.04.02 06:36:38.
