data_PCOD8323456
_publ_section_title
;
Structure prediction by ZEFSAII (Michael W. Deem and Ramdas Pophale) SiO2 
 PCOD8323456
Probable space group: P -3 M 1
;
_chemical_formula_sum "Si O2"
_cell_formula_units_Z 54
_cell_length_a 17.417734
_cell_length_b 17.417734
_cell_length_c 12.523868
_cell_angle_alpha 90.000000
_cell_angle_beta 90.000000
_cell_angle_gamma 120.000000
_cell_volume 3290.428218
_symmetry_space_group_name_H-M "P -3 M 1"
_symmetry_group_IT_number 164
_symmetry_cell_setting 'hexagonal'
loop_
_space_group_symop_operation_xyz
x,y,z
-y,x-y,z
-x+y,-x,z
x-y,-y,-z
-x,-x+y,-z
y,x,-z
-x,-y,-z
y,-x+y,-z
x-y,x,-z
-x+y,y,z
x,x-y,z
-y,-x,z
loop_
_atom_site_type_symbol
_atom_site_label
_atom_site_fract_x
_atom_site_fract_y
_atom_site_fract_z
Si Si1 0.000000 0.819857 0.000000
Si Si2 0.937955 0.237322 0.794462
Si Si3 0.236125 0.301917 0.598447
Si Si4 0.840336 0.332243 0.736581
Si Si5 0.365366 0.469601 0.503602
O O1 0.978667 0.752212 0.903431
O O2 0.916073 0.832145 0.026858
O O3 0.857106 0.142895 0.755370
O O4 0.901837 0.306575 0.807912
O O5 0.015275 0.275146 0.708935
O O6 0.260264 0.260264 0.500000
O O7 0.131448 0.262896 0.597757
O O8 0.286660 0.409860 0.586144
O O9 0.861279 0.430640 0.767680
O O10 0.737076 0.262925 0.758426
O O11 0.860097 0.324829 0.612746
O O12 0.428255 0.428255 0.500000
O O13 0.426765 0.573236 0.539813
#
# Coordination Sequence:
#
# PCOD8323456 Si02
#       5
#     6  12  12  12  12
#     4  10  21  38  57  74  92 122 166 212 251 288
#     4  10  20  34  51  71  97 128 162 202 245 289
#     4  11  19  29  47  71  98 127 158 193 241 296
#     4  10  18  30  48  73 102 132 164 199 238 284
#     4   9  16  26  43  67  96 130 163 192 227 275
#
# _framework density 16.411238000000001
#
# number of rings (size 3 to 8) (size 9 to 14) (size 15 to 20)
#    0.000    2.000    4.444    2.333    0.000    0.000 
#    0.000    0.556    0.000    5.778    0.000    0.000 
#    0.000    0.000    0.000    0.000    0.000    0.000 
#
# Total GULP energy -669172.195925 kJ/mol
# GULP energy per Si atom -12392.077702 kJ/mol
# Density = 1.637389 g / cm^3
# Si number density = 16.411238 Si / 1000 Ang^3
#
#
#
# Elastic Constant Matrix: (Units=GPa)
#
#
# Indices 1 2 3 4 5 6 
#
# 1 104.8214 61.8789 49.2825 1.1300 0.0000 0.0000
# 2 61.8789 104.8214 49.2825 -1.1300 0.0000 0.0000
# 3 49.2825 49.2825 71.2928 0.0000 0.0000 0.0000
# 4 1.1300 -1.1300 0.0000 19.7482 0.0000 0.0000
# 5 0.0000 0.0000 0.0000 0.0000 19.7482 1.1300
# 6 0.0000 0.0000 0.0000 0.0000 1.1300 21.4713
#
#
#
# Elastic Compliance Matrix: (Units=1/GPa)
#
#
# Indices 1 2 3 4 5 6 
#
# 1 0.016751 -0.006606 -0.007013 -0.001337 0.000000 0.000000
# 2 -0.006606 0.016751 -0.007013 0.001337 0.000000 0.000000
# 3 -0.007013 -0.007013 0.023723 0.000000 0.000000 0.000000
# 4 -0.001337 0.001337 0.000000 0.050790 0.000000 0.000000
# 5 0.000000 0.000000 0.000000 0.000000 0.050790 -0.002673
# 6 0.000000 0.000000 0.000000 0.000000 -0.002673 0.046715
#
#
# Mechanical properties :
#
#
# Convention : Reuss Voigt Hill
#
# Bulk Modulus (GPa) = 62.65389 66.86929 64.76159
# Shear Modulus (GPa) = 19.83291 20.22633 20.02962
#
# Velocity S-wave (km/s) = 3.48011 3.51446 3.49733
# Velocity P-wave (km/s) = 7.37622 7.56988 7.47367
#
# Compressibility (1/GPa) = 0.01596070
#
# Stress axis : x y z
#
# Youngs Moduli (GPa) = 59.69646 59.69646 42.15350
#
# Poissons Ratio (x) = 0.39435 0.29564
# Poissons Ratio (y) = 0.39435 0.29564
# Poissons Ratio (z) = 0.41867 0.41867
#
# Static dielectric constant tensor:
#      x y z
#    x 2.926580 0.000000 0.000000 
#    y 0.000000 2.926580 0.000000 
#    z 0.000000 0.000000 2.844240 
# 
# 
# High freq. dielectric constant tensor:
#      x y z
#    x 1.639970 0.000000 0.000000 
#    y 0.000000 1.639970 0.000000 
#    z 0.000000 0.000000 1.592470 
# 
# From -- ./inp_files/2582.got.cif
#   From: 2010.03.12/outbox.cif.g09.slc.cpg/sg164_2_cif.got.tgz:2582.got - 2010.04.02 06:32:59.
