data_PCOD8323471
_publ_section_title
;
Structure prediction by ZEFSAII (Michael W. Deem and Ramdas Pophale) SiO2 
 PCOD8323471
Probable space group: P -3 M 1
;
_chemical_formula_sum "Si O2"
_cell_formula_units_Z 72
_cell_length_a 21.718867
_cell_length_b 21.718867
_cell_length_c 9.934684
_cell_angle_alpha 90.000000
_cell_angle_beta 90.000000
_cell_angle_gamma 120.000000
_cell_volume 4058.438985
_symmetry_space_group_name_H-M "P -3 M 1"
_symmetry_group_IT_number 164
_symmetry_cell_setting 'hexagonal'
loop_
_space_group_symop_operation_xyz
x,y,z
-y,x-y,z
-x+y,-x,z
x-y,-y,-z
-x,-x+y,-z
y,x,-z
-x,-y,-z
y,-x+y,-z
x-y,x,-z
-x+y,y,z
x,x-y,z
-y,-x,z
loop_
_atom_site_type_symbol
_atom_site_label
_atom_site_fract_x
_atom_site_fract_y
_atom_site_fract_z
Si Si1 0.928253 0.534522 0.769625
Si Si2 0.407484 0.324932 0.509849
Si Si3 0.287305 0.854045 0.009530
Si Si4 0.619599 0.092897 0.240082
Si Si5 0.728170 0.935427 0.095452
Si Si6 0.062914 0.797695 0.405966
O O1 0.925104 0.462552 0.731135
O O2 0.889247 0.550690 0.648911
O O3 0.880271 0.523613 0.898817
O O4 0.010614 0.594437 0.792456
O O5 0.382267 0.382267 0.500000
O O6 0.459326 0.340512 0.383777
O O7 0.340898 0.245419 0.517571
O O8 0.227114 0.772887 0.039318
O O9 0.256183 0.906145 0.036027
O O10 0.316536 0.859029 0.860186
O O11 0.553894 0.107788 0.231808
O O12 0.750690 0.875345 0.088858
O O13 0.730874 0.960559 0.251560
O O14 0.782218 0.000000 0.000000
O O15 0.120102 0.879899 0.402034
O O16 0.000000 0.791538 0.500000
#
# Coordination Sequence:
#
# PCOD8323471 Si02
#       6
#    12  12  12  12  12  12
#     4  10  18  32  55  78 103 134 168 211 262 312
#     4   9  18  31  50  78 108 134 163 207 261 318
#     4  11  22  33  48  74 107 142 179 216 260 315
#     4  10  20  34  53  78 105 133 172 217 266 317
#     4  10  21  36  54  79 111 144 181 222 266 320
#     4  10  21  36  55  82 114 146 180 221 267 319
#
# _framework density 17.740811999999998
#
# number of rings (size 3 to 8) (size 9 to 14) (size 15 to 20)
#    0.000    2.000    1.667    2.500    4.667    4.667 
#    0.000    0.000    0.000    3.000    0.000    0.000 
#    0.000    0.000    0.000    0.000    0.000    0.000 
#
# Total GULP energy -892536.711964 kJ/mol
# GULP energy per Si atom -12396.343222 kJ/mol
# Density = 1.770043 g / cm^3
# Si number density = 17.740812 Si / 1000 Ang^3
#
#
#
# Elastic Constant Matrix: (Units=GPa)
#
#
# Indices 1 2 3 4 5 6 
#
# 1 55.4728 21.4665 26.8300 1.0022 0.0000 0.0000
# 2 21.4665 55.4728 26.8300 -1.0022 0.0000 0.0000
# 3 26.8300 26.8300 100.0104 0.0000 0.0000 0.0000
# 4 1.0022 -1.0022 0.0000 24.9362 0.0000 0.0000
# 5 0.0000 0.0000 0.0000 0.0000 24.9362 1.0022
# 6 0.0000 0.0000 0.0000 0.0000 1.0022 17.0031
#
#
#
# Elastic Compliance Matrix: (Units=1/GPa)
#
#
# Indices 1 2 3 4 5 6 
#
# 1 0.022732 -0.006744 -0.004289 -0.001185 0.000000 0.000000
# 2 -0.006744 0.022732 -0.004289 0.001185 0.000000 0.000000
# 3 -0.004289 -0.004289 0.012300 0.000000 0.000000 0.000000
# 4 -0.001185 0.001185 0.000000 0.040198 0.000000 0.000000
# 5 0.000000 0.000000 0.000000 0.000000 0.040198 -0.002369
# 6 0.000000 0.000000 0.000000 0.000000 -0.002369 0.058952
#
#
# Mechanical properties :
#
#
# Convention : Reuss Voigt Hill
#
# Bulk Modulus (GPa) = 36.87237 40.13433 38.50335
# Shear Modulus (GPa) = 21.11507 22.43041 21.77274
#
# Velocity S-wave (km/s) = 3.45367 3.55961 3.50704
# Velocity P-wave (km/s) = 6.06076 6.29016 6.17653
#
# Compressibility (1/GPa) = 0.02712058
#
# Stress axis : x y z
#
# Youngs Moduli (GPa) = 43.98995 43.98995 81.29833
#
# Poissons Ratio (x) = 0.29665 0.34872
# Poissons Ratio (y) = 0.29665 0.34872
# Poissons Ratio (z) = 0.18869 0.18869
#
# Static dielectric constant tensor:
#      x y z
#    x 3.061020 0.000000 0.000000 
#    y 0.000000 3.061020 0.000000 
#    z 0.000000 0.000000 3.578260 
# 
# 
# High freq. dielectric constant tensor:
#      x y z
#    x 1.659530 0.000000 0.000000 
#    y 0.000000 1.659530 0.000000 
#    z 0.000000 0.000000 1.706830 
# 
# From -- ./inp_files/1893.got.cif
#   From: 2010.03.12/outbox.cif.g09.slc.cpg/sg164_1_cif.got.tgz:1893.got - 2010.04.02 06:32:59.
