data_PCOD8323519
_publ_section_title
;
Structure prediction by ZEFSAII (Michael W. Deem and Ramdas Pophale) SiO2 
 PCOD8323519
Probable space group: P -3 M 1
;
_chemical_formula_sum "Si O2"
_cell_formula_units_Z 84
_cell_length_a 20.936026
_cell_length_b 20.936026
_cell_length_c 11.547103
_cell_angle_alpha 90.000000
_cell_angle_beta 90.000000
_cell_angle_gamma 120.000000
_cell_volume 4383.208901
_symmetry_space_group_name_H-M "P -3 M 1"
_symmetry_group_IT_number 164
_symmetry_cell_setting 'hexagonal'
loop_
_space_group_symop_operation_xyz
x,y,z
-y,x-y,z
-x+y,-x,z
x-y,-y,-z
-x,-x+y,-z
y,x,-z
-x,-y,-z
y,-x+y,-z
x-y,x,-z
-x+y,y,z
x,x-y,z
-y,-x,z
loop_
_atom_site_type_symbol
_atom_site_label
_atom_site_fract_x
_atom_site_fract_y
_atom_site_fract_z
Si Si1 0.148835 0.148288 0.367200
Si Si2 0.399231 0.125295 0.708518
Si Si3 0.269368 0.977520 0.750974
Si Si4 0.484082 0.667577 0.112398
Si Si5 0.877311 0.265562 0.448514
Si Si6 0.133804 0.417271 0.899060
Si Si7 0.477542 0.809670 0.702773
O O1 0.175232 0.175232 0.500000
O O2 0.126067 0.063034 0.354921
O O3 0.213709 0.196191 0.275304
O O4 0.078086 0.156171 0.336459
O O5 0.381512 0.190756 0.718114
O O6 0.480820 0.152731 0.761048
O O7 0.391485 0.096548 0.577569
O O8 0.336818 0.057779 0.780536
O O9 0.286527 0.945118 0.636010
O O10 0.265835 0.931199 0.866191
O O11 0.462048 0.731024 0.096189
O O12 0.411636 0.588365 0.093557
O O13 0.550711 0.681627 0.024637
O O14 0.823385 0.176616 0.445317
O O15 0.831422 0.304435 0.411176
O O16 0.206520 0.413039 0.881923
O O17 0.135781 0.476248 0.807473
O O18 0.410266 0.820532 0.672323
O O19 0.449649 0.724825 0.737188
#
# Coordination Sequence:
#
# PCOD8323519 Si02
#       7
#    12  12  12  12  12  12  12
#     4  10  19  30  48  78 115 150 184 223 264 307
#     4  10  21  35  51  75 105 134 172 219 256 303
#     4  11  19  32  54  75 102 146 183 210 258 315
#     4  10  21  39  61  81 103 132 168 214 269 323
#     4   9  18  32  49  72 102 135 175 219 255 298
#     4   9  19  34  52  76 102 129 169 217 256 303
#     4   9  16  27  46  71  98 126 159 205 258 308
#
# _framework density 19.164041000000001
#
# number of rings (size 3 to 8) (size 9 to 14) (size 15 to 20)
#    0.000    2.286    0.000    4.714    0.000    4.000 
#    0.000    5.714    0.000    6.000    0.000    0.000 
#    0.000    0.000    0.000   10.857    0.000    4.000 
#
# Total GULP energy -1041008.445479 kJ/mol
# GULP energy per Si atom -12392.957684 kJ/mol
# Density = 1.912042 g / cm^3
# Si number density = 19.164041 Si / 1000 Ang^3
#
#
#
# Elastic Constant Matrix: (Units=GPa)
#
#
# Indices 1 2 3 4 5 6 
#
# 1 92.0861 36.1746 26.8178 -2.3722 0.0000 0.0000
# 2 36.1746 92.0861 26.8178 2.3722 0.0000 0.0000
# 3 26.8178 26.8178 62.5283 0.0000 0.0000 0.0000
# 4 -2.3722 2.3722 0.0000 23.9704 0.0000 0.0000
# 5 0.0000 0.0000 0.0000 0.0000 23.9704 -2.3722
# 6 0.0000 0.0000 0.0000 0.0000 -2.3722 27.9558
#
#
#
# Elastic Compliance Matrix: (Units=1/GPa)
#
#
# Indices 1 2 3 4 5 6 
#
# 1 0.013769 -0.004268 -0.004075 0.001785 0.000000 0.000000
# 2 -0.004268 0.013769 -0.004075 -0.001785 0.000000 0.000000
# 3 -0.004075 -0.004075 0.019488 0.000000 0.000000 0.000000
# 4 0.001785 -0.001785 0.000000 0.042071 0.000000 0.000000
# 5 0.000000 0.000000 0.000000 0.000000 0.042071 0.003570
# 6 0.000000 0.000000 0.000000 0.000000 0.003570 0.036074
#
#
# Mechanical properties :
#
#
# Convention : Reuss Voigt Hill
#
# Bulk Modulus (GPa) = 45.06476 47.36897 46.21687
# Shear Modulus (GPa) = 25.06595 25.63867 25.35231
#
# Velocity S-wave (km/s) = 3.62051 3.66164 3.64113
# Velocity P-wave (km/s) = 6.40654 6.53055 6.46884
#
# Compressibility (1/GPa) = 0.02219029
#
# Stress axis : x y z
#
# Youngs Moduli (GPa) = 72.62840 72.62840 51.31376
#
# Poissons Ratio (x) = 0.30999 0.20909
# Poissons Ratio (y) = 0.30999 0.20909
# Poissons Ratio (z) = 0.29594 0.29594
#
# Static dielectric constant tensor:
#      x y z
#    x 3.419870 0.000000 0.000000 
#    y 0.000000 3.419870 0.000000 
#    z 0.000000 0.000000 3.512210 
# 
# 
# High freq. dielectric constant tensor:
#      x y z
#    x 1.739700 0.000000 0.000000 
#    y 0.000000 1.739700 0.000000 
#    z 0.000000 0.000000 1.729150 
# 
# From -- ./inp_files/2882.got.cif
#   From: 2010.03.12/outbox.cif.g09.slc.cpg/sg164_2_cif.got.tgz:2882.got - 2010.04.02 06:32:59.
