data_PCOD8323543
_publ_section_title
;
Structure prediction by ZEFSAII (Michael W. Deem and Ramdas Pophale) SiO2 
 PCOD8323543
Probable space group: P -3 M 1
;
_chemical_formula_sum "Si O2"
_cell_formula_units_Z 72
_cell_length_a 21.528678
_cell_length_b 21.528678
_cell_length_c 9.500103
_cell_angle_alpha 90.000000
_cell_angle_beta 90.000000
_cell_angle_gamma 120.000000
_cell_volume 3813.235872
_symmetry_space_group_name_H-M "P -3 M 1"
_symmetry_group_IT_number 164
_symmetry_cell_setting 'hexagonal'
loop_
_space_group_symop_operation_xyz
x,y,z
-y,x-y,z
-x+y,-x,z
x-y,-y,-z
-x,-x+y,-z
y,x,-z
-x,-y,-z
y,-x+y,-z
x-y,x,-z
-x+y,y,z
x,x-y,z
-y,-x,z
loop_
_atom_site_type_symbol
_atom_site_label
_atom_site_fract_x
_atom_site_fract_y
_atom_site_fract_z
Si Si1 0.605828 0.538882 0.781034
Si Si2 0.696331 0.165755 0.024116
Si Si3 0.530949 0.334414 0.314933
Si Si4 0.936566 0.729361 0.409591
Si Si5 0.719503 0.579365 0.540851
Si Si6 0.961921 0.661963 0.140056
O O1 0.522059 0.477942 0.757783
O O2 0.652926 0.546222 0.645537
O O3 0.614028 0.615924 0.814617
O O4 0.636364 0.513421 0.908591
O O5 0.763758 0.236243 0.956789
O O6 0.660504 0.187863 0.147236
O O7 0.727854 0.119555 0.096506
O O8 0.556540 0.278270 0.354848
O O9 0.588940 0.411061 0.376163
O O10 0.455046 0.310364 0.387925
O O11 0.873610 0.747220 0.378067
O O12 0.911087 0.663249 0.517353
O O13 0.965076 0.715044 0.262604
O O14 0.000000 0.794069 0.500000
O O15 0.781801 0.563602 0.595326
O O16 0.000000 0.708358 0.000000
#
# Coordination Sequence:
#
# PCOD8323543 Si02
#       6
#    12  12  12  12  12  12
#     4  11  22  35  52  79 115 148 193 246 295 348
#     4  10  20  35  53  72 101 147 194 239 299 350
#     4  10  19  31  48  70  98 141 195 248 296 340
#     4  11  21  40  63  91 123 151 187 229 272 335
#     4  10  20  35  55  77 109 148 190 237 292 345
#     4  10  21  36  55  83 117 150 194 236 295 343
#
# _framework density 18.881602000000001
#
# number of rings (size 3 to 8) (size 9 to 14) (size 15 to 20)
#    0.000    1.667    3.333    2.167    0.000    3.667 
#    0.000    1.667    0.000    4.833    0.000    0.000 
#    0.000    0.667    0.000    0.000    0.000    0.000 
#
# Total GULP energy -892494.413639 kJ/mol
# GULP energy per Si atom -12395.755745 kJ/mol
# Density = 1.883863 g / cm^3
# Si number density = 18.881602 Si / 1000 Ang^3
#
#
#
# Elastic Constant Matrix: (Units=GPa)
#
#
# Indices 1 2 3 4 5 6 
#
# 1 76.4920 33.1376 30.3941 0.4223 0.0000 0.0000
# 2 33.1376 76.4920 30.3941 -0.4223 0.0000 0.0000
# 3 30.3941 30.3941 93.0367 0.0000 0.0000 0.0000
# 4 0.4223 -0.4223 0.0000 23.4492 0.0000 0.0000
# 5 0.0000 0.0000 0.0000 0.0000 23.4492 0.4223
# 6 0.0000 0.0000 0.0000 0.0000 0.4223 21.6772
#
#
#
# Elastic Compliance Matrix: (Units=1/GPa)
#
#
# Indices 1 2 3 4 5 6 
#
# 1 0.017107 -0.005967 -0.003639 -0.000416 0.000000 0.000000
# 2 -0.005967 0.017107 -0.003639 0.000416 0.000000 0.000000
# 3 -0.003639 -0.003639 0.013126 0.000000 0.000000 0.000000
# 4 -0.000416 0.000416 0.000000 0.042660 0.000000 0.000000
# 5 0.000000 0.000000 0.000000 0.000000 0.042660 -0.000831
# 6 0.000000 0.000000 0.000000 0.000000 -0.000831 0.046148
#
#
# Mechanical properties :
#
#
# Convention : Reuss Voigt Hill
#
# Bulk Modulus (GPa) = 47.96495 48.20803 48.08649
# Shear Modulus (GPa) = 23.55735 23.85481 23.70608
#
# Velocity S-wave (km/s) = 3.53602 3.55827 3.54716
# Velocity P-wave (km/s) = 6.49072 6.51682 6.50378
#
# Compressibility (1/GPa) = 0.02084856
#
# Stress axis : x y z
#
# Youngs Moduli (GPa) = 58.45686 58.45686 76.18365
#
# Poissons Ratio (x) = 0.34882 0.27724
# Poissons Ratio (y) = 0.34882 0.27724
# Poissons Ratio (z) = 0.21273 0.21273
#
# Static dielectric constant tensor:
#      x y z
#    x 3.330680 0.000000 0.000000 
#    y 0.000000 3.330680 0.000000 
#    z 0.000000 0.000000 3.525640 
# 
# 
# High freq. dielectric constant tensor:
#      x y z
#    x 1.715440 0.000000 0.000000 
#    y 0.000000 1.715440 0.000000 
#    z 0.000000 0.000000 1.741040 
# 
# From -- ./inp_files/1902.got.cif
#   From: 2010.03.12/outbox.cif.g09.slc.cpg/sg164_1_cif.got.tgz:1902.got - 2010.04.02 06:32:59.
