data_PCOD8323135
_publ_section_title
;
Structure prediction by ZEFSAII (Michael W. Deem and Ramdas Pophale) SiO2 
 PCOD8323135
Probable space group: P -3 1 M 
;
_chemical_formula_sum "Si O2"
_cell_formula_units_Z 44
_cell_length_a 13.225176
_cell_length_b 13.225176
_cell_length_c 15.296298
_cell_angle_alpha 90.000000
_cell_angle_beta 90.000000
_cell_angle_gamma 120.000000
_cell_volume 2316.967213
_symmetry_space_group_name_H-M "P -3 1 M "
_symmetry_group_IT_number 162
_symmetry_cell_setting 'hexagonal'
loop_
_space_group_symop_operation_xyz
x,y,z
-y,x-y,z
-x+y,-x,z
-y,-x,-z
-x+y,y,-z
x,x-y,-z
-x,-y,-z
y,-x+y,-z
x-y,x,-z
y,x,z
x-y,-y,z
-x,-x+y,z
loop_
_atom_site_type_symbol
_atom_site_label
_atom_site_fract_x
_atom_site_fract_y
_atom_site_fract_z
Si Si1 0.867090 0.575948 0.151353
Si Si2 0.666668 0.333334 0.603089
Si Si3 0.333335 0.666668 0.103089
Si Si4 0.575946 0.867090 0.348647
Si Si5 0.137162 0.274324 0.500000
Si Si6 0.725676 0.862838 0.000000
O O1 0.788268 0.437696 0.138535
O O2 0.854227 0.611100 0.250001
O O3 0.827857 0.644616 0.085684
O O4 0.000000 0.608935 0.131938
O O5 0.666668 0.333334 0.500000
O O6 0.562306 0.211732 0.638534
O O7 0.333334 0.666667 0.000000
O O8 0.644616 0.827860 0.414316
O O9 0.608931 0.000000 0.368062
O O10 0.192706 0.192706 0.509999
O O11 0.807294 0.807294 0.009997
#
# Coordination Sequence:
#
# PCOD8323135 Si02
#       6
#    12   4   4  12   6   6
#     4  10  22  39  58  84 118 153 192 237 284 340
#     4  12  22  38  64  88 116 154 193 233 289 346
#     4  12  22  38  64  88 116 154 193 233 289 346
#     4  10  22  39  58  84 118 153 192 237 284 340
#     4  10  21  38  60  86 117 152 194 240 288 340
#     4  10  21  38  60  86 117 152 194 240 288 340
#
# _framework density 18.990341000000001
#
# number of rings (size 3 to 8) (size 9 to 14) (size 15 to 20)
#    0.000    1.636    2.727    1.909    0.000    4.364 
#    0.000    0.000    0.000    3.273    0.000    0.000 
#    0.000    0.000    0.000    0.000    0.000    0.000 
#
# Total GULP energy -545791.590458 kJ/mol
# GULP energy per Si atom -12404.354329 kJ/mol
# Density = 1.894712 g / cm^3
# Si number density = 18.990341 Si / 1000 Ang^3
#
#
#
# Elastic Constant Matrix: (Units=GPa)
#
#
# Indices 1 2 3 4 5 6 
#
# 1 107.2237 59.1061 52.1884 -0.0016 -0.0047 -0.0001
# 2 59.1061 107.2236 52.1884 0.0013 0.0048 0.0000
# 3 52.1884 52.1884 153.2473 -0.0007 0.0002 0.0000
# 4 -0.0016 0.0013 -0.0007 19.3775 -0.0001 0.0059
# 5 -0.0047 0.0048 0.0002 -0.0001 19.3776 0.0015
# 6 -0.0001 0.0000 0.0000 0.0059 0.0015 24.0588
#
#
#
# Elastic Compliance Matrix: (Units=1/GPa)
#
#
# Indices 1 2 3 4 5 6 
#
# 1 0.014214 -0.006568 -0.002604 0.000002 0.000005 0.000000
# 2 -0.006568 0.014214 -0.002604 -0.000002 -0.000005 0.000000
# 3 -0.002604 -0.002604 0.008299 0.000000 0.000000 0.000000
# 4 0.000002 -0.000002 0.000000 0.051606 0.000000 -0.000013
# 5 0.000005 -0.000005 0.000000 0.000000 0.051606 -0.000003
# 6 0.000000 0.000000 0.000000 -0.000013 -0.000003 0.041565
#
#
# Mechanical properties :
#
#
# Convention : Reuss Voigt Hill
#
# Bulk Modulus (GPa) = 75.89756 77.18448 76.54102
# Shear Modulus (GPa) = 23.87223 26.17689 25.02456
#
# Velocity S-wave (km/s) = 3.54937 3.71675 3.63402
# Velocity P-wave (km/s) = 7.53993 7.69099 7.61583
#
# Compressibility (1/GPa) = 0.01317565
#
# Stress axis : x y z
#
# Youngs Moduli (GPa) = 70.35166 70.35163 120.49752
#
# Poissons Ratio (x) = 0.46208 0.31376
# Poissons Ratio (y) = 0.46208 0.31376
# Poissons Ratio (z) = 0.18319 0.18319
#
# Static dielectric constant tensor:
#      x y z
#    x 3.513700 0.000000 0.000000 
#    y 0.000000 3.513700 0.000010 
#    z 0.000000 0.000010 3.771390 
# 
# 
# High freq. dielectric constant tensor:
#      x y z
#    x 1.736600 0.000000 0.000000 
#    y 0.000000 1.736600 0.000000 
#    z 0.000000 0.000000 1.759750 
# 
# From -- ./inp_files/3403.got.cif
#   From: 2010.03.12/outbox.cif.g09.slc.cpg/sg162_2_cif.got.tgz:3403.got - 2010.04.02 06:27:41.
