data_PCOD8323957
_publ_section_title
;
Structure prediction by ZEFSAII (Michael W. Deem and Ramdas Pophale) SiO2 
 PCOD8323957
Probable space group: P -3 C 1
;
_chemical_formula_sum "Si O2"
_cell_formula_units_Z 56
_cell_length_a 13.956939
_cell_length_b 13.956939
_cell_length_c 13.531818
_cell_angle_alpha 90.000000
_cell_angle_beta 90.000000
_cell_angle_gamma 120.000000
_cell_volume 2282.796197
_symmetry_space_group_name_H-M "P -3 C 1"
_symmetry_group_IT_number 165
_symmetry_cell_setting 'hexagonal'
loop_
_space_group_symop_operation_xyz
x,y,z
-y,x-y,z
-x+y,-x,z
x-y,-y,1/2-z
-x,-x+y,1/2-z
y,x,1/2-z
-x,-y,-z
y,-x+y,-z
x-y,x,-z
-x+y,y,1/2+z
x,x-y,1/2+z
-y,-x,1/2+z
loop_
_atom_site_type_symbol
_atom_site_label
_atom_site_fract_x
_atom_site_fract_y
_atom_site_fract_z
Si Si1 0.125284 0.458037 0.145719
Si Si2 0.692210 0.127889 0.066387
Si Si3 0.333333 0.666667 0.162777
Si Si4 0.666668 0.333334 0.608080
Si Si5 0.442612 0.442612 0.250000
Si Si6 0.119351 0.219658 0.944551
Si Si7 0.231397 0.000000 0.250000
O O1 0.256968 0.538687 0.126897
O O2 0.098368 0.348657 0.207740
O O3 0.094606 0.536410 0.207736
O O4 0.063984 0.421875 0.038645
O O5 0.665110 0.225387 0.068983
O O6 0.646069 0.047560 0.161210
O O7 0.824504 0.177233 0.058410
O O8 0.333334 0.666667 0.277804
O O9 0.140078 0.183608 0.836802
O O10 0.168537 0.179620 0.033408
#
# Coordination Sequence:
#
# PCOD8323957 Si02
#       7
#    12  12   4   4   6  12   6
#     4  11  24  46  75 114 159 209 263 319 405 485
#     4  12  26  48  77 116 160 215 270 326 406 487
#     4  12  22  44  73 109 158 208 256 311 400 475
#     4  12  25  47  76 118 173 211 259 323 400 493
#     4  11  26  42  73 112 168 212 261 328 385 478
#     4  12  29  55  83 115 156 207 279 347 424 491
#     4  11  26  52  77 114 162 196 267 346 405 496
#
# _framework density 24.531320000000001
#
# number of rings (size 3 to 8) (size 9 to 14) (size 15 to 20)
#    0.000    0.429    4.286    3.429    3.000    6.000 
#    0.000    1.071    0.000    0.000    0.000    0.000 
#    0.000    0.000    0.000    0.000    0.000    0.000 
#
# Total GULP energy -694154.176668 kJ/mol
# GULP energy per Si atom -12395.610298 kJ/mol
# Density = 2.447549 g / cm^3
# Si number density = 24.531320 Si / 1000 Ang^3
#
#
#
# Elastic Constant Matrix: (Units=GPa)
#
#
# Indices 1 2 3 4 5 6 
#
# 1 84.4052 26.9014 45.4383 -3.8518 0.0000 0.0000
# 2 26.9014 84.4037 45.4394 3.8506 0.0000 0.0000
# 3 45.4383 45.4394 214.6100 -0.0008 0.0000 0.0000
# 4 -3.8518 3.8506 -0.0008 48.0674 0.0000 0.0000
# 5 0.0000 0.0000 0.0000 0.0000 48.0644 -3.8524
# 6 0.0000 0.0000 0.0000 0.0000 -3.8524 28.7512
#
#
#
# Elastic Compliance Matrix: (Units=1/GPa)
#
#
# Indices 1 2 3 4 5 6 
#
# 1 0.014220 -0.003359 -0.002300 0.001409 0.000000 0.000000
# 2 -0.003359 0.014221 -0.002300 -0.001408 0.000000 0.000000
# 3 -0.002300 -0.002300 0.005633 0.000000 0.000000 0.000000
# 4 0.001409 -0.001408 0.000000 0.021030 0.000000 0.000000
# 5 0.000000 0.000000 0.000000 0.000000 0.021031 0.002818
# 6 0.000000 0.000000 0.000000 0.000000 0.002818 0.035159
#
#
# Mechanical properties :
#
#
# Convention : Reuss Voigt Hill
#
# Bulk Modulus (GPa) = 55.07132 68.77522 61.92327
# Shear Modulus (GPa) = 37.51973 42.68592 40.10283
#
# Velocity S-wave (km/s) = 3.91508 4.17593 4.04760
# Velocity P-wave (km/s) = 6.55250 7.16573 6.86596
#
# Compressibility (1/GPa) = 0.01815827
#
# Stress axis : x y z
#
# Youngs Moduli (GPa) = 70.32196 70.32016 177.51063
#
# Poissons Ratio (x) = 0.23617 0.40822
# Poissons Ratio (y) = 0.23618 0.40825
# Poissons Ratio (z) = 0.16172 0.16173
#
# Static dielectric constant tensor:
#      x y z
#    x 6.249850 0.000000 0.000000 
#    y 0.000000 6.249120 -0.000160 
#    z 0.000000 -0.000160 4.910560 
# 
# 
# High freq. dielectric constant tensor:
#      x y z
#    x 1.962560 0.000000 0.000000 
#    y 0.000000 1.962560 0.000000 
#    z 0.000000 0.000000 2.006260 
# 
# From -- ./inp_files/1735.got.cif
#   From: 2010.03.12/outbox.cif.g09.slc.cpg/sg165_1_cif.got.tgz:1735.got - 2010.04.02 06:36:38.
