data_PCOD8323633
_publ_section_title
;
Structure prediction by ZEFSAII (Michael W. Deem and Ramdas Pophale) SiO2 
 PCOD8323633
Probable space group: P -3 M 1
;
_chemical_formula_sum "Si O2"
_cell_formula_units_Z 66
_cell_length_a 12.789347
_cell_length_b 12.789347
_cell_length_c 27.785196
_cell_angle_alpha 90.000000
_cell_angle_beta 90.000000
_cell_angle_gamma 120.000000
_cell_volume 3935.870838
_symmetry_space_group_name_H-M "P -3 M 1"
_symmetry_group_IT_number 164
_symmetry_cell_setting 'hexagonal'
loop_
_space_group_symop_operation_xyz
x,y,z
-y,x-y,z
-x+y,-x,z
x-y,-y,-z
-x,-x+y,-z
y,x,-z
-x,-y,-z
y,-x+y,-z
x-y,x,-z
-x+y,y,z
x,x-y,z
-y,-x,z
loop_
_atom_site_type_symbol
_atom_site_label
_atom_site_fract_x
_atom_site_fract_y
_atom_site_fract_z
Si Si1 0.999900 0.759531 0.445478
Si Si2 0.668307 0.578213 0.911936
Si Si3 0.244967 0.000000 0.000000
Si Si4 0.758969 0.758541 0.829691
Si Si5 0.759568 0.759711 0.280339
Si Si6 0.089897 0.422369 0.362425
O O1 0.873064 0.746127 0.431131
O O2 0.000000 0.716427 0.500000
O O3 0.024089 0.675579 0.410202
O O4 0.100701 0.899300 0.439220
O O5 0.768783 0.537566 0.912013
O O6 0.538286 0.461715 0.918337
O O7 0.691108 0.671198 0.954434
O O8 0.671117 0.644074 0.862122
O O9 0.114402 0.885599 0.989837
O O10 0.897889 0.795777 0.838781
O O11 0.720783 0.719520 0.774617
O O12 0.745515 0.872758 0.843900
O O13 0.874028 0.748055 0.294340
O O14 0.650577 0.671937 0.314696
O O15 0.795746 0.897873 0.289130
O O16 0.228490 0.456979 0.361457
O O17 0.082752 0.541376 0.363229
#
# Coordination Sequence:
#
# PCOD8323633 Si02
#       6
#    12  12   6  12  12  12
#     4   9  17  30  50  75  98 118 144 185 238 288
#     4  10  20  33  49  70  98 132 166 196 227 269
#     4  10  20  34  54  78 100 122 152 196 248 294
#     4   9  17  30  50  75 100 124 152 192 242 290
#     4   9  17  30  50  75  98 120 150 193 245 292
#     4  10  20  32  46  65  92 127 163 195 226 266
#
# _framework density 16.768844000000001
#
# number of rings (size 3 to 8) (size 9 to 14) (size 15 to 20)
#    0.000    2.545    0.000    2.364    0.000    3.273 
#    0.000    3.636    0.000    9.091    0.000    0.000 
#    0.000    0.000    0.000    0.000    0.000    0.000 
#
# Total GULP energy -818502.840399 kJ/mol
# GULP energy per Si atom -12401.558188 kJ/mol
# Density = 1.673068 g / cm^3
# Si number density = 16.768844 Si / 1000 Ang^3
#
#
#
# Elastic Constant Matrix: (Units=GPa)
#
#
# Indices 1 2 3 4 5 6 
#
# 1 119.9253 73.8163 69.5009 0.5116 0.0000 0.0000
# 2 73.8163 119.9253 69.5009 -0.5116 0.0000 0.0000
# 3 69.5009 69.5009 116.7043 0.0000 0.0000 0.0000
# 4 0.5116 -0.5116 0.0000 21.9555 0.0000 0.0000
# 5 0.0000 0.0000 0.0000 0.0000 21.9555 0.5116
# 6 0.0000 0.0000 0.0000 0.0000 0.5116 23.0545
#
#
#
# Elastic Compliance Matrix: (Units=1/GPa)
#
#
# Indices 1 2 3 4 5 6 
#
# 1 0.015356 -0.006343 -0.005367 -0.000506 0.000000 0.000000
# 2 -0.006343 0.015356 -0.005367 0.000506 0.000000 0.000000
# 3 -0.005367 -0.005367 0.014961 0.000000 0.000000 0.000000
# 4 -0.000506 0.000506 0.000000 0.045570 0.000000 0.000000
# 5 0.000000 0.000000 0.000000 0.000000 0.045570 -0.001011
# 6 0.000000 0.000000 0.000000 0.000000 -0.001011 0.043398
#
#
# Mechanical properties :
#
#
# Convention : Reuss Voigt Hill
#
# Bulk Modulus (GPa) = 86.82551 86.91013 86.86782
# Shear Modulus (GPa) = 22.91426 22.97552 22.94489
#
# Velocity S-wave (km/s) = 3.70060 3.70554 3.70307
# Velocity P-wave (km/s) = 8.37553 8.38146 8.37850
#
# Compressibility (1/GPa) = 0.01151735
#
# Stress axis : x y z
#
# Youngs Moduli (GPa) = 65.12302 65.12302 66.84021
#
# Poissons Ratio (x) = 0.41310 0.35873
# Poissons Ratio (y) = 0.41310 0.35873
# Poissons Ratio (z) = 0.34951 0.34951
#
# Static dielectric constant tensor:
#      x y z
#    x 2.969970 0.000000 0.000000 
#    y 0.000000 2.969970 0.000000 
#    z 0.000000 0.000000 3.513440 
# 
# 
# High freq. dielectric constant tensor:
#      x y z
#    x 1.633160 0.000000 0.000000 
#    y 0.000000 1.633160 0.000000 
#    z 0.000000 0.000000 1.665090 
# 
# From -- ./inp_files/5467.got.cif
#   From: 2010.03.12/outbox.cif.g09.slc.cpg/sg164_3_cif.got.tgz:5467.got - 2010.04.02 06:32:59.
