data_PCOD8323846
_publ_section_title
;
Structure prediction by ZEFSAII (Michael W. Deem and Ramdas Pophale) SiO2 
 PCOD8323846
Probable space group: P -3 C 1
;
_chemical_formula_sum "Si O2"
_cell_formula_units_Z 54
_cell_length_a 28.199642
_cell_length_b 28.199642
_cell_length_c 5.281876
_cell_angle_alpha 90.000000
_cell_angle_beta 90.000000
_cell_angle_gamma 120.000000
_cell_volume 3637.525301
_symmetry_space_group_name_H-M "P -3 C 1"
_symmetry_group_IT_number 165
_symmetry_cell_setting 'hexagonal'
loop_
_space_group_symop_operation_xyz
x,y,z
-y,x-y,z
-x+y,-x,z
x-y,-y,1/2-z
-x,-x+y,1/2-z
y,x,1/2-z
-x,-y,-z
y,-x+y,-z
x-y,x,-z
-x+y,y,1/2+z
x,x-y,1/2+z
-y,-x,1/2+z
loop_
_atom_site_type_symbol
_atom_site_label
_atom_site_fract_x
_atom_site_fract_y
_atom_site_fract_z
Si Si1 0.468853 0.000000 0.250000
Si Si2 0.251660 0.454516 0.781189
Si Si3 0.914152 0.345841 0.208069
Si Si4 0.695535 0.635701 0.711534
Si Si5 0.666477 0.817858 0.766847
O O1 0.466793 0.056293 0.257256
O O2 0.500000 0.000000 0.500000
O O3 0.240030 0.480737 0.532232
O O4 0.314287 0.466610 0.776037
O O5 0.210485 0.389219 0.788211
O O6 0.935117 0.321002 0.426590
O O7 0.931063 0.339983 0.923666
O O8 0.687656 0.687656 0.750000
O O9 0.757631 0.655222 0.764987
O O10 0.700071 0.853779 0.523216
#
# Coordination Sequence:
#
# PCOD8323846 Si02
#       5
#     6  12  12  12  12
#     4  12  26  40  46  60  90 132 174 184 218 276
#     4  10  16  27  46  68  86 103 133 181 238 258
#     4  12  20  32  49  62  83 118 154 187 219 271
#     4  12  19  28  44  69  87 114 149 186 218 273
#     4  10  16  27  41  62  92 108 136 177 234 255
#
# _framework density 14.845257999999999
#
# number of rings (size 3 to 8) (size 9 to 14) (size 15 to 20)
#    0.000    0.889   11.111    1.333    0.000    0.000 
#    0.000    0.000    0.000    0.000    0.000    0.000 
#    0.000    0.000    0.000   13.333    0.000    0.000 
#
# Total GULP energy -669105.829296 kJ/mol
# GULP energy per Si atom -12390.848691 kJ/mol
# Density = 1.481147 g / cm^3
# Si number density = 14.845258 Si / 1000 Ang^3
#
#
#
# Elastic Constant Matrix: (Units=GPa)
#
#
# Indices 1 2 3 4 5 6 
#
# 1 60.9983 43.3433 23.0818 2.1675 0.0000 0.0000
# 2 43.3433 60.9983 23.0818 -2.1675 0.0000 0.0000
# 3 23.0818 23.0818 130.4063 0.0000 0.0000 0.0000
# 4 2.1675 -2.1675 0.0000 17.1236 0.0000 0.0000
# 5 0.0000 0.0000 0.0000 0.0000 17.1236 2.1675
# 6 0.0000 0.0000 0.0000 0.0000 2.1675 8.8275
#
#
#
# Elastic Compliance Matrix: (Units=1/GPa)
#
#
# Indices 1 2 3 4 5 6 
#
# 1 0.034428 -0.024030 -0.001840 -0.007400 0.000000 0.000000
# 2 -0.024030 0.034428 -0.001840 0.007400 0.000000 0.000000
# 3 -0.001840 -0.001840 0.008320 0.000000 0.000000 0.000000
# 4 -0.007400 0.007400 0.000000 0.060272 0.000000 0.000000
# 5 0.000000 0.000000 0.000000 0.000000 0.060272 -0.014799
# 6 0.000000 0.000000 0.000000 0.000000 -0.014799 0.116916
#
#
# Mechanical properties :
#
#
# Convention : Reuss Voigt Hill
#
# Bulk Modulus (GPa) = 45.96782 47.93519 46.95150
# Shear Modulus (GPa) = 13.25170 19.47469 16.36320
#
# Velocity S-wave (km/s) = 2.99098 3.62587 3.32362
# Velocity P-wave (km/s) = 6.55437 7.06323 6.81355
#
# Compressibility (1/GPa) = 0.02175435
#
# Stress axis : x y z
#
# Youngs Moduli (GPa) = 29.04601 29.04601 120.19428
#
# Poissons Ratio (x) = 0.69797 0.22121
# Poissons Ratio (y) = 0.69797 0.22121
# Poissons Ratio (z) = 0.05346 0.05346
#
# Static dielectric constant tensor:
#      x y z
#    x 2.784120 0.000000 0.000000 
#    y 0.000000 2.784120 0.000000 
#    z 0.000000 0.000000 4.046030 
# 
# 
# High freq. dielectric constant tensor:
#      x y z
#    x 1.522910 0.000000 0.000000 
#    y 0.000000 1.522910 0.000000 
#    z 0.000000 0.000000 1.613690 
# 
# From -- ./inp_files/181.got.cif
#   From: 2010.03.12/outbox.cif.g09.slc.cpg/sg165_1_cif.got.tgz:181.got - 2010.04.02 06:36:38.
