data_PCOD8323854
_publ_section_title
;
Structure prediction by ZEFSAII (Michael W. Deem and Ramdas Pophale) SiO2 
 PCOD8323854
Probable space group: P -3 C 1
;
_chemical_formula_sum "Si O2"
_cell_formula_units_Z 36
_cell_length_a 20.510426
_cell_length_b 20.510426
_cell_length_c 4.936172
_cell_angle_alpha 90.000000
_cell_angle_beta 90.000000
_cell_angle_gamma 120.000000
_cell_volume 1798.333677
_symmetry_space_group_name_H-M "P -3 C 1"
_symmetry_group_IT_number 165
_symmetry_cell_setting 'hexagonal'
loop_
_space_group_symop_operation_xyz
x,y,z
-y,x-y,z
-x+y,-x,z
x-y,-y,1/2-z
-x,-x+y,1/2-z
y,x,1/2-z
-x,-y,-z
y,-x+y,-z
x-y,x,-z
-x+y,y,1/2+z
x,x-y,1/2+z
-y,-x,1/2+z
loop_
_atom_site_type_symbol
_atom_site_label
_atom_site_fract_x
_atom_site_fract_y
_atom_site_fract_z
Si Si1 0.391923 0.238046 0.535802
Si Si2 0.566384 0.000000 0.250000
Si Si3 0.457089 0.615215 0.566695
Si Si4 0.348686 0.000000 0.250000
O O1 0.375240 0.206184 0.232397
O O2 0.479334 0.303972 0.538469
O O3 0.338588 0.271338 0.623581
O O4 0.559069 0.067279 0.390939
O O5 0.593012 0.965675 0.496923
O O6 0.387259 0.580069 0.356030
#
# Coordination Sequence:
#
# PCOD8323854 Si02
#       4
#    12   6  12   6
#     4  11  22  37  55  76 106 140 175 221 271 320
#     4  10  18  31  50  78 106 126 158 211 262 300
#     4  11  20  32  51  75 101 130 168 212 257 306
#     4  10  20  35  54  80 106 136 176 215 270 328
#
# _framework density 20.018532
#
# number of rings (size 3 to 8) (size 9 to 14) (size 15 to 20)
#    0.000    1.333    0.000   11.000    0.000    1.333 
#    0.000    0.000    0.000   13.333    0.000    0.000 
#    0.000    0.000    0.000   10.000    0.000    0.000 
#
# Total GULP energy -446040.517677 kJ/mol
# GULP energy per Si atom -12390.014380 kJ/mol
# Density = 1.997297 g / cm^3
# Si number density = 20.018532 Si / 1000 Ang^3
#
#
#
# Elastic Constant Matrix: (Units=GPa)
#
#
# Indices 1 2 3 4 5 6 
#
# 1 55.9613 15.3814 21.6078 9.7493 0.0000 0.0000
# 2 15.3814 55.9613 21.6078 -9.7493 0.0000 0.0000
# 3 21.6078 21.6078 129.8581 0.0000 0.0000 0.0000
# 4 9.7493 -9.7493 0.0000 33.7857 0.0000 0.0000
# 5 0.0000 0.0000 0.0000 0.0000 33.7857 9.7493
# 6 0.0000 0.0000 0.0000 0.0000 9.7493 20.2899
#
#
#
# Elastic Compliance Matrix: (Units=1/GPa)
#
#
# Indices 1 2 3 4 5 6 
#
# 1 0.022099 -0.006511 -0.002594 -0.008256 0.000000 0.000000
# 2 -0.006511 0.022099 -0.002594 0.008256 0.000000 0.000000
# 3 -0.002594 -0.002594 0.008564 0.000000 0.000000 0.000000
# 4 -0.008256 0.008256 0.000000 0.034363 0.000000 0.000000
# 5 0.000000 0.000000 0.000000 0.000000 0.034363 -0.016511
# 6 0.000000 0.000000 0.000000 0.000000 -0.016511 0.057219
#
#
# Mechanical properties :
#
#
# Convention : Reuss Voigt Hill
#
# Bulk Modulus (GPa) = 34.05431 39.88607 36.97019
# Shear Modulus (GPa) = 23.59697 29.78449 26.69073
#
# Velocity S-wave (km/s) = 3.43703 3.86145 3.65540
# Velocity P-wave (km/s) = 5.72706 6.31259 6.02694
#
# Compressibility (1/GPa) = 0.02936486
#
# Stress axis : x y z
#
# Youngs Moduli (GPa) = 45.25128 45.25128 116.76919
#
# Poissons Ratio (x) = 0.29462 0.30287
# Poissons Ratio (y) = 0.29462 0.30287
# Poissons Ratio (z) = 0.11737 0.11737
#
# Static dielectric constant tensor:
#      x y z
#    x 3.299800 0.000000 0.000000 
#    y 0.000000 3.299800 0.000000 
#    z 0.000000 0.000000 4.216480 
# 
# 
# High freq. dielectric constant tensor:
#      x y z
#    x 1.729980 0.000000 0.000000 
#    y 0.000000 1.729980 0.000000 
#    z 0.000000 0.000000 1.829990 
# 
# From -- ./inp_files/81.got.cif
#   From: 2010.03.12/outbox.cif.g09.slc.cpg/sg165_1_cif.got.tgz:81.got - 2010.04.02 06:36:38.
