data_PCOD8323693
_publ_section_title
;
Structure prediction by ZEFSAII (Michael W. Deem and Ramdas Pophale) SiO2 
 PCOD8323693
Probable space group: P -3 M 1
;
_chemical_formula_sum "Si O2"
_cell_formula_units_Z 66
_cell_length_a 12.648818
_cell_length_b 12.648818
_cell_length_c 27.826637
_cell_angle_alpha 90.000000
_cell_angle_beta 90.000000
_cell_angle_gamma 120.000000
_cell_volume 3855.593520
_symmetry_space_group_name_H-M "P -3 M 1"
_symmetry_group_IT_number 164
_symmetry_cell_setting 'hexagonal'
loop_
_space_group_symop_operation_xyz
x,y,z
-y,x-y,z
-x+y,-x,z
x-y,-y,-z
-x,-x+y,-z
y,x,-z
-x,-y,-z
y,-x+y,-z
x-y,x,-z
-x+y,y,z
x,x-y,z
-y,-x,z
loop_
_atom_site_type_symbol
_atom_site_label
_atom_site_fract_x
_atom_site_fract_y
_atom_site_fract_z
Si Si1 0.666790 0.579485 0.088452
Si Si2 0.001397 0.755057 0.366292
Si Si3 0.752892 0.000000 0.000000
Si Si4 0.909914 0.576785 0.717859
Si Si5 0.908986 0.575767 0.827106
Si Si6 0.580816 0.913829 0.455461
O O1 0.775069 0.550138 0.092041
O O2 0.544379 0.455622 0.076629
O O3 0.686522 0.673285 0.046447
O O4 0.659669 0.637330 0.138882
O O5 0.102297 0.897704 0.367461
O O6 0.004098 0.694912 0.315683
O O7 0.024347 0.682474 0.408048
O O8 0.870185 0.740369 0.373572
O O9 0.884431 0.115570 0.991769
O O10 0.768302 0.536603 0.710316
O O11 0.925533 0.462767 0.703591
O O12 0.950657 0.618966 0.772564
O O13 0.795959 0.591918 0.842361
O O14 0.867152 0.433576 0.832743
O O15 0.448086 0.896172 0.447834
O O16 0.566151 0.783076 0.465718
O O17 0.650823 0.000000 0.500000
#
# Coordination Sequence:
#
# PCOD8323693 Si02
#       6
#    12  12   6  12  12  12
#     4  10  20  33  49  69  95 127 161 195 232 278
#     4  10  20  33  49  69  95 127 162 199 238 281
#     4  10  20  34  52  72  94 120 152 194 242 290
#     4   9  17  30  50  74  98 124 156 197 242 286
#     4   9  17  30  49  73  98 124 156 195 239 283
#     4  10  20  34  53  76 101 129 161 198 240 286
#
# _framework density 17.117988
#
# number of rings (size 3 to 8) (size 9 to 14) (size 15 to 20)
#    0.000    2.364    0.000    2.909    0.000    2.182 
#    0.000    1.818    0.000   13.091    0.000    0.000 
#    0.000    0.000    0.000    0.000    0.000    0.000 
#
# Total GULP energy -818594.212672 kJ/mol
# GULP energy per Si atom -12402.942616 kJ/mol
# Density = 1.707903 g / cm^3
# Si number density = 17.117988 Si / 1000 Ang^3
#
#
#
# Elastic Constant Matrix: (Units=GPa)
#
#
# Indices 1 2 3 4 5 6 
#
# 1 104.7763 70.1101 65.3459 0.2905 0.0000 0.0000
# 2 70.1101 104.7763 65.3459 -0.2905 0.0000 0.0000
# 3 65.3459 65.3459 115.2038 0.0000 0.0000 0.0000
# 4 0.2905 -0.2905 0.0000 25.6389 0.0000 0.0000
# 5 0.0000 0.0000 0.0000 0.0000 25.6389 0.2905
# 6 0.0000 0.0000 0.0000 0.0000 0.2905 17.3331
#
#
#
# Elastic Compliance Matrix: (Units=1/GPa)
#
#
# Indices 1 2 3 4 5 6 
#
# 1 0.019389 -0.009463 -0.005630 -0.000327 0.000000 0.000000
# 2 -0.009463 0.019389 -0.005630 0.000327 0.000000 0.000000
# 3 -0.005630 -0.005630 0.015067 0.000000 0.000000 0.000000
# 4 -0.000327 0.000327 0.000000 0.039011 0.000000 0.000000
# 5 0.000000 0.000000 0.000000 0.000000 0.039011 -0.000654
# 6 0.000000 0.000000 0.000000 0.000000 -0.000654 0.057704
#
#
# Mechanical properties :
#
#
# Convention : Reuss Voigt Hill
#
# Bulk Modulus (GPa) = 80.65717 80.70670 80.68193
# Shear Modulus (GPa) = 21.26325 21.98582 21.62454
#
# Velocity S-wave (km/s) = 3.52825 3.58770 3.55810
# Velocity P-wave (km/s) = 7.98866 8.02569 8.00720
#
# Compressibility (1/GPa) = 0.01239815
#
# Stress axis : x y z
#
# Youngs Moduli (GPa) = 51.57689 51.57689 66.37104
#
# Poissons Ratio (x) = 0.48810 0.37365
# Poissons Ratio (y) = 0.48810 0.37365
# Poissons Ratio (z) = 0.29036 0.29036
#
# Static dielectric constant tensor:
#      x y z
#    x 3.111610 0.000000 0.000000 
#    y 0.000000 3.111610 0.000000 
#    z 0.000000 0.000000 3.390780 
# 
# 
# High freq. dielectric constant tensor:
#      x y z
#    x 1.659060 0.000000 0.000000 
#    y 0.000000 1.659060 0.000000 
#    z 0.000000 0.000000 1.674400 
# 
# From -- ./inp_files/5424.got.cif
#   From: 2010.03.12/outbox.cif.g09.slc.cpg/sg164_3_cif.got.tgz:5424.got - 2010.04.02 06:32:59.
