data_PCOD8323386
_publ_section_title
;
Structure prediction by ZEFSAII (Michael W. Deem and Ramdas Pophale) SiO2 
 PCOD8323386
Probable space group: P -3 M 1
;
_chemical_formula_sum "Si O2"
_cell_formula_units_Z 96
_cell_length_a 18.506507
_cell_length_b 18.506507
_cell_length_c 20.346973
_cell_angle_alpha 90.000000
_cell_angle_beta 90.000000
_cell_angle_gamma 120.000000
_cell_volume 6035.028872
_symmetry_space_group_name_H-M "P -3 M 1"
_symmetry_group_IT_number 164
_symmetry_cell_setting 'hexagonal'
loop_
_space_group_symop_operation_xyz
x,y,z
-y,x-y,z
-x+y,-x,z
x-y,-y,-z
-x,-x+y,-z
y,x,-z
-x,-y,-z
y,-x+y,-z
x-y,x,-z
-x+y,y,z
x,x-y,z
-y,-x,z
loop_
_atom_site_type_symbol
_atom_site_label
_atom_site_fract_x
_atom_site_fract_y
_atom_site_fract_z
Si Si1 0.667759 0.174144 0.010110
Si Si2 0.467185 0.096750 0.376700
Si Si3 0.604194 0.040862 0.117630
Si Si4 0.902414 0.369771 0.614081
Si Si5 0.128105 0.413917 0.120215
Si Si6 0.263522 0.901873 0.504742
Si Si7 0.333150 0.499782 0.765249
Si Si8 0.492828 0.668828 0.253476
O O1 0.603149 0.206297 0.021115
O O2 0.755964 0.244037 0.038771
O O3 0.640213 0.090518 0.050315
O O4 0.672923 0.161407 0.932443
O O5 0.563675 0.127349 0.397329
O O6 0.418495 0.119650 0.430402
O O7 0.463649 0.136365 0.307562
O O8 0.419829 0.998606 0.368131
O O9 0.503404 0.006807 0.120648
O O10 0.647645 0.094855 0.182088
O O11 0.633918 0.971773 0.112689
O O12 0.871561 0.435781 0.596400
O O13 0.881226 0.306388 0.554775
O O14 0.856632 0.315418 0.677985
O O15 0.183238 0.366475 0.109678
O O16 0.140630 0.443436 0.194510
O O17 0.162610 0.837391 0.502615
O O18 0.287288 0.000000 0.500000
O O19 0.245938 0.491876 0.784295
O O20 0.403808 0.596193 0.768605
O O21 0.447160 0.723580 0.253648
O O22 0.428024 0.571977 0.244838
#
# Coordination Sequence:
#
# PCOD8323386 Si02
#       8
#    12  12  12  12  12  12  12  12
#     4  10  19  30  45  65  89 116 147 182 219 260
#     4   9  17  29  46  66  87 114 146 179 215 256
#     4  10  19  31  46  62  84 116 150 182 219 263
#     4   9  17  29  45  64  86 113 144 177 214 259
#     4  10  20  31  44  61  80 108 147 190 228 259
#     4  10  19  31  47  66  88 114 147 185 224 267
#     4  10  19  30  45  66  93 123 154 185 216 252
#     4  10  18  27  39  56  80 108 139 174 212 251
#
# _framework density 15.907131
#
# number of rings (size 3 to 8) (size 9 to 14) (size 15 to 20)
#    0.000    2.250    0.000    4.125    0.000    4.500 
#    0.000    2.500    0.000    3.875    0.000    0.000 
#    0.000    0.000    0.000    3.000    0.000   24.250 
#
# Total GULP energy -1189284.947244 kJ/mol
# GULP energy per Si atom -12388.384867 kJ/mol
# Density = 1.587093 g / cm^3
# Si number density = 15.907131 Si / 1000 Ang^3
#
#
#
# Elastic Constant Matrix: (Units=GPa)
#
#
# Indices 1 2 3 4 5 6 
#
# 1 77.8273 38.4129 29.1256 -1.2303 0.0000 0.0000
# 2 38.4129 77.8273 29.1256 1.2303 0.0000 0.0000
# 3 29.1256 29.1256 79.4540 0.0000 0.0000 0.0000
# 4 -1.2303 1.2303 0.0000 17.4920 0.0000 0.0000
# 5 0.0000 0.0000 0.0000 0.0000 17.4920 -1.2303
# 6 0.0000 0.0000 0.0000 0.0000 -1.2303 19.7072
#
#
#
# Elastic Compliance Matrix: (Units=1/GPa)
#
#
# Indices 1 2 3 4 5 6 
#
# 1 0.018011 -0.007472 -0.003863 0.001792 0.000000 0.000000
# 2 -0.007472 0.018011 -0.003863 -0.001792 0.000000 0.000000
# 3 -0.003863 -0.003863 0.015418 0.000000 0.000000 0.000000
# 4 0.001792 -0.001792 0.000000 0.057421 0.000000 0.000000
# 5 0.000000 0.000000 0.000000 0.000000 0.057421 0.003585
# 6 0.000000 0.000000 0.000000 0.000000 0.003585 0.050967
#
#
# Mechanical properties :
#
#
# Convention : Reuss Voigt Hill
#
# Bulk Modulus (GPa) = 47.52186 47.60407 47.56296
# Shear Modulus (GPa) = 19.63392 20.16786 19.90089
#
# Velocity S-wave (km/s) = 3.51705 3.56455 3.54088
# Velocity P-wave (km/s) = 6.81412 6.85074 6.83245
#
# Compressibility (1/GPa) = 0.02104295
#
# Stress axis : x y z
#
# Youngs Moduli (GPa) = 55.52136 55.52136 64.85838
#
# Poissons Ratio (x) = 0.41487 0.25056
# Poissons Ratio (y) = 0.41487 0.25056
# Poissons Ratio (z) = 0.21449 0.21449
#
# Static dielectric constant tensor:
#      x y z
#    x 2.999650 0.000000 0.000000 
#    y 0.000000 2.999650 0.000000 
#    z 0.000000 0.000000 3.229370 
# 
# 
# High freq. dielectric constant tensor:
#      x y z
#    x 1.585130 0.000000 0.000000 
#    y 0.000000 1.585130 0.000000 
#    z 0.000000 0.000000 1.635280 
# 
# From -- ./inp_files/4767.got.cif
#   From: 2010.03.12/outbox.cif.g09.slc.cpg/sg164_3_cif.got.tgz:4767.got - 2010.04.02 06:32:59.
