data_PCOD8323088
_publ_section_title
;
Structure prediction by ZEFSAII (Michael W. Deem and Ramdas Pophale) SiO2 
 PCOD8323088
Probable space group: P -3 1 M 
;
_chemical_formula_sum "Si O2"
_cell_formula_units_Z 58
_cell_length_a 14.496580
_cell_length_b 14.496580
_cell_length_c 16.288229
_cell_angle_alpha 90.000000
_cell_angle_beta 90.000000
_cell_angle_gamma 120.000000
_cell_volume 2964.391855
_symmetry_space_group_name_H-M "P -3 1 M "
_symmetry_group_IT_number 162
_symmetry_cell_setting 'hexagonal'
loop_
_space_group_symop_operation_xyz
x,y,z
-y,x-y,z
-x+y,-x,z
-y,-x,-z
-x+y,y,-z
x,x-y,-z
-x,-y,-z
y,-x+y,-z
x-y,x,-z
y,x,z
x-y,-y,z
-x,-x+y,z
loop_
_atom_site_type_symbol
_atom_site_label
_atom_site_fract_x
_atom_site_fract_y
_atom_site_fract_z
Si Si1 0.123130 0.557867 0.792537
Si Si2 0.230483 0.348284 0.244724
Si Si3 0.666667 0.333335 0.100742
Si Si4 0.120499 0.241264 0.090211
Si Si5 0.879262 0.299607 0.350736
Si Si6 0.734953 0.265048 0.500000
O O1 0.134559 0.465387 0.748905
O O2 0.211063 0.615258 0.865017
O O3 0.148899 0.637876 0.716856
O O4 0.000000 0.510572 0.825309
O O5 0.258717 0.258717 0.270622
O O6 0.195016 0.336244 0.150123
O O7 0.134276 0.330108 0.303789
O O8 0.666668 0.333334 0.000000
O O9 0.143655 0.143655 0.092552
O O10 0.000000 0.197612 0.116929
O O11 0.146506 0.293012 0.000000
O O12 0.790457 0.247622 0.421604
O O13 0.000000 0.370092 0.385020
O O14 0.788233 0.394117 0.500000
#
# Coordination Sequence:
#
# PCOD8323088 Si02
#       6
#    12  12   4  12  12   6
#     4  10  22  40  62  86 121 161 206 252 299 363
#     4  10  20  35  57  82 113 152 191 240 294 351
#     4  12  24  39  66  91 125 172 210 255 312 360
#     4   9  17  30  50  77 109 146 190 239 287 334
#     4  11  22  39  63  88 116 155 196 243 303 364
#     4  10  24  38  61  88 117 146 186 246 294 358
#
# _framework density 19.565566
#
# number of rings (size 3 to 8) (size 9 to 14) (size 15 to 20)
#    0.207    1.655    2.069    2.069    0.000    3.310 
#    0.000    0.000    0.000    0.414    0.000    0.724 
#    0.000    0.000    0.000    0.000    0.000    0.207 
#
# Total GULP energy -718602.616662 kJ/mol
# GULP energy per Si atom -12389.700287 kJ/mol
# Density = 1.952103 g / cm^3
# Si number density = 19.565566 Si / 1000 Ang^3
#
#
#
# Elastic Constant Matrix: (Units=GPa)
#
#
# Indices 1 2 3 4 5 6 
#
# 1 85.2012 40.5417 55.2680 0.0001 2.5834 -0.0001
# 2 40.5417 85.2010 55.2683 0.0001 -2.5833 0.0000
# 3 55.2680 55.2683 118.5736 0.0001 0.0000 0.0003
# 4 0.0001 0.0001 0.0001 24.8141 0.0000 -2.5833
# 5 2.5834 -2.5833 0.0000 0.0000 24.8141 0.0000
# 6 -0.0001 0.0000 0.0003 -2.5833 0.0000 22.3298
#
#
#
# Elastic Compliance Matrix: (Units=1/GPa)
#
#
# Indices 1 2 3 4 5 6 
#
# 1 0.018069 -0.004596 -0.006280 0.000000 -0.002360 0.000000
# 2 -0.004596 0.018069 -0.006280 0.000000 0.002360 0.000000
# 3 -0.006280 -0.006280 0.014288 0.000000 0.000000 0.000000
# 4 0.000000 0.000000 0.000000 0.040791 0.000000 0.004719
# 5 -0.002360 0.002360 0.000000 0.000000 0.040791 0.000000
# 6 0.000000 0.000000 0.000000 0.004719 0.000000 0.045329
#
#
# Mechanical properties :
#
#
# Convention : Reuss Voigt Hill
#
# Bulk Modulus (GPa) = 62.05614 65.68132 63.86873
# Shear Modulus (GPa) = 23.03937 23.58479 23.31208
#
# Velocity S-wave (km/s) = 3.43526 3.47569 3.45553
# Velocity P-wave (km/s) = 6.89352 7.05336 6.97390
#
# Compressibility (1/GPa) = 0.01611444
#
# Stress axis : x y z
#
# Youngs Moduli (GPa) = 55.34367 55.34330 69.98923
#
# Poissons Ratio (x) = 0.25434 0.43953
# Poissons Ratio (y) = 0.25434 0.43954
# Poissons Ratio (z) = 0.34756 0.34756
#
# Static dielectric constant tensor:
#      x y z
#    x 3.640620 0.000010 0.000000 
#    y 0.000010 3.640630 -0.000010 
#    z 0.000000 -0.000010 3.465670 
# 
# 
# High freq. dielectric constant tensor:
#      x y z
#    x 1.762200 0.000000 0.000000 
#    y 0.000000 1.762200 0.000000 
#    z 0.000000 0.000000 1.745670 
# 
# From -- ./inp_files/2968.got.cif
#   From: 2010.03.12/outbox.cif.g09.slc.cpg/sg162_2_cif.got.tgz:2968.got - 2010.04.02 06:27:41.
