data_PCOD8323250
_publ_section_title
;
Structure prediction by ZEFSAII (Michael W. Deem and Ramdas Pophale) SiO2 
 PCOD8323250
Probable space group: P -3 1 C
;
_chemical_formula_sum "Si O2"
_cell_formula_units_Z 44
_cell_length_a 12.451877
_cell_length_b 12.451877
_cell_length_c 16.311836
_cell_angle_alpha 90.000000
_cell_angle_beta 90.000000
_cell_angle_gamma 120.000000
_cell_volume 2190.297574
_symmetry_space_group_name_H-M "P -3 1 C"
_symmetry_group_IT_number 163
_symmetry_cell_setting 'hexagonal'
loop_
_space_group_symop_operation_xyz
x,y,z
-y,x-y,z
-x+y,-x,z
-y,-x,1/2-z
-x+y,y,1/2-z
x,x-y,1/2-z
-x,-y,-z
y,-x+y,-z
x-y,x,-z
y,x,1/2+z
x-y,-y,1/2+z
-x,-x+y,1/2+z
loop_
_atom_site_type_symbol
_atom_site_label
_atom_site_fract_x
_atom_site_fract_y
_atom_site_fract_z
Si Si1 0.595762 0.749273 0.836637
Si Si2 0.666668 0.333334 0.916910
Si Si3 0.666667 0.333333 0.109935
Si Si4 0.094194 0.830228 0.983452
Si Si5 0.598904 0.534717 0.926104
O O1 0.638882 0.819441 0.750000
O O2 0.470546 0.749733 0.856184
O O3 0.703466 0.838201 0.896857
O O4 0.576422 0.609889 0.851702
O O5 0.603501 0.415375 0.888405
O O6 0.666668 0.333334 0.013754
O O7 0.113982 0.731084 0.032266
O O8 0.954312 0.792085 0.962508
O O9 0.500000 0.500000 0.000000
#
# Coordination Sequence:
#
# PCOD8323250 Si02
#       5
#    12   4   4  12  12
#     4  11  22  36  57  90 126 159 200 261 323 367
#     4  12  18  34  61  93 122 157 221 256 297 373
#     4  12  19  34  60  90 118 152 197 262 304 358
#     4  10  20  36  58  83 112 155 211 256 300 375
#     4  11  20  35  59  89 120 160 207 257 313 378
#
# _framework density 20.088594000000001
#
# number of rings (size 3 to 8) (size 9 to 14) (size 15 to 20)
#    0.000    1.091    5.455    2.727    0.000    0.000 
#    0.000    5.455    0.000    3.273    0.000    7.636 
#    0.000    0.000    0.000    0.000    0.000    0.000 
#
# Total GULP energy -545193.189050 kJ/mol
# GULP energy per Si atom -12390.754297 kJ/mol
# Density = 2.004287 g / cm^3
# Si number density = 20.088594 Si / 1000 Ang^3
#
#
#
# Elastic Constant Matrix: (Units=GPa)
#
#
# Indices 1 2 3 4 5 6 
#
# 1 131.9050 35.9804 24.6425 -0.0024 -10.8470 -0.0005
# 2 35.9804 131.9062 24.6423 0.0019 10.8468 0.0016
# 3 24.6425 24.6423 73.0150 -0.0001 -0.0001 -0.0002
# 4 -0.0024 0.0019 -0.0001 24.8064 0.0014 10.8495
# 5 -10.8470 10.8468 -0.0001 0.0014 24.8048 0.0023
# 6 -0.0005 0.0016 -0.0002 10.8495 0.0023 47.9638
#
#
#
# Elastic Compliance Matrix: (Units=1/GPa)
#
#
# Indices 1 2 3 4 5 6 
#
# 1 0.009090 -0.002479 -0.002231 0.000001 0.005059 0.000000
# 2 -0.002479 0.009090 -0.002231 -0.000001 -0.005059 0.000000
# 3 -0.002231 -0.002231 0.015202 0.000000 0.000000 0.000000
# 4 0.000001 -0.000001 0.000000 0.044738 -0.000001 -0.010120
# 5 0.005059 -0.005059 0.000000 -0.000001 0.044739 -0.000002
# 6 0.000000 0.000000 0.000000 -0.010120 -0.000002 0.023138
#
#
# Mechanical properties :
#
#
# Convention : Reuss Voigt Hill
#
# Bulk Modulus (GPa) = 51.28343 56.37296 53.82819
# Shear Modulus (GPa) = 30.05155 36.28573 33.16864
#
# Velocity S-wave (km/s) = 3.87195 4.25465 4.06780
# Velocity P-wave (km/s) = 6.75080 7.22905 6.99402
#
# Compressibility (1/GPa) = 0.01949948
#
# Stress axis : x y z
#
# Youngs Moduli (GPa) = 110.00814 110.00960 65.78095
#
# Poissons Ratio (x) = 0.27268 0.14678
# Poissons Ratio (y) = 0.27268 0.14678
# Poissons Ratio (z) = 0.24547 0.24547
#
# Static dielectric constant tensor:
#      x y z
#    x 6.191990 -0.001010 0.000000 
#    y -0.001010 6.190820 0.000010 
#    z 0.000000 0.000010 3.396170 
# 
# 
# High freq. dielectric constant tensor:
#      x y z
#    x 1.798540 0.000000 0.000000 
#    y 0.000000 1.798540 0.000000 
#    z 0.000000 0.000000 1.735520 
# 
# From -- ./inp_files/2940.got.cif
#   From: 2010.03.12/outbox.cif.g09.slc.cpg/sg163_2_cif.got.tgz:2940.got - 2010.04.02 06:30:25.
