data_PCOD8323196
_publ_section_title
;
Structure prediction by ZEFSAII (Michael W. Deem and Ramdas Pophale) SiO2 
 PCOD8323196
Probable space group: P -3 1 C
;
_chemical_formula_sum "Si O2"
_cell_formula_units_Z 70
_cell_length_a 15.094070
_cell_length_b 15.094070
_cell_length_c 20.786456
_cell_angle_alpha 90.000000
_cell_angle_beta 90.000000
_cell_angle_gamma 120.000000
_cell_volume 4101.321375
_symmetry_space_group_name_H-M "P -3 1 C"
_symmetry_group_IT_number 163
_symmetry_cell_setting 'hexagonal'
loop_
_space_group_symop_operation_xyz
x,y,z
-y,x-y,z
-x+y,-x,z
-y,-x,1/2-z
-x+y,y,1/2-z
x,x-y,1/2-z
-x,-y,-z
y,-x+y,-z
x-y,x,-z
y,x,1/2+z
x-y,-y,1/2+z
-x,-x+y,1/2+z
loop_
_atom_site_type_symbol
_atom_site_label
_atom_site_fract_x
_atom_site_fract_y
_atom_site_fract_z
Si Si1 0.204234 0.209067 0.503406
Si Si2 0.721694 0.656232 0.616924
Si Si3 0.333750 0.270503 0.624843
Si Si4 0.479528 0.959056 0.750000
Si Si5 0.666668 0.333335 0.825387
Si Si6 0.658714 0.934150 0.753173
Si Si7 0.443513 0.548975 0.132780
O O1 0.193502 0.100180 0.497851
O O2 0.271036 0.275438 0.443609
O O3 0.253576 0.260285 0.571232
O O4 0.824891 0.653134 0.629641
O O5 0.699406 0.704866 0.679800
O O6 0.633741 0.542294 0.593981
O O7 0.295213 0.283591 0.694535
O O8 0.438772 0.370476 0.600790
O O9 0.535964 0.891857 0.744760
O O10 0.534119 0.036023 0.807036
O O11 0.666668 0.333334 0.750000
O O12 0.632851 0.411062 0.850081
O O13 0.678376 0.839188 0.750000
#
# Coordination Sequence:
#
# PCOD8323196 Si02
#       7
#    12  12  12   6   4  12  12
#     4  10  21  37  54  72  96 134 176 217 257 302
#     4  10  20  33  52  77 104 131 166 207 251 307
#     4  10  20  33  52  77 104 131 166 207 251 307
#     4   8  18  30  44  72 100 126 164 200 240 294
#     4  12  18  24  51  81 114 141 156 193 257 322
#     4  10  19  33  52  73  99 130 164 209 253 291
#     4  10  18  29  48  77 106 133 161 196 250 308
#
# _framework density 17.06767
#
# number of rings (size 3 to 8) (size 9 to 14) (size 15 to 20)
#    0.000    2.057    2.571    1.714    0.000    0.686 
#    0.514    0.000    0.000    4.800    0.000    0.000 
#    0.000    0.000    0.000    0.000    0.000    0.000 
#
# Total GULP energy -867278.314762 kJ/mol
# GULP energy per Si atom -12389.690211 kJ/mol
# Density = 1.702882 g / cm^3
# Si number density = 17.067670 Si / 1000 Ang^3
#
#
#
# Elastic Constant Matrix: (Units=GPa)
#
#
# Indices 1 2 3 4 5 6 
#
# 1 77.1290 27.8637 31.1449 0.0000 -0.3237 -0.0001
# 2 27.8637 77.1287 31.1448 0.0002 0.3238 -0.0002
# 3 31.1449 31.1448 81.7934 0.0000 0.0000 -0.0001
# 4 0.0000 0.0002 0.0000 20.4458 0.0000 0.3239
# 5 -0.3237 0.3238 0.0000 0.0000 20.4458 0.0001
# 6 -0.0001 -0.0002 -0.0001 0.3239 0.0001 24.6324
#
#
#
# Elastic Compliance Matrix: (Units=1/GPa)
#
#
# Indices 1 2 3 4 5 6 
#
# 1 0.016303 -0.003999 -0.004685 0.000000 0.000321 0.000000
# 2 -0.003999 0.016303 -0.004685 0.000000 -0.000322 0.000000
# 3 -0.004685 -0.004685 0.015794 0.000000 0.000000 0.000000
# 4 0.000000 0.000000 0.000000 0.048920 0.000000 -0.000643
# 5 0.000321 -0.000322 0.000000 0.000000 0.048920 0.000000
# 6 0.000000 0.000000 0.000000 -0.000643 0.000000 0.040605
#
#
# Mechanical properties :
#
#
# Convention : Reuss Voigt Hill
#
# Bulk Modulus (GPa) = 46.16455 46.26198 46.21326
# Shear Modulus (GPa) = 22.64440 22.83131 22.73786
#
# Velocity S-wave (km/s) = 3.64640 3.66142 3.65392
# Velocity P-wave (km/s) = 6.69589 6.71107 6.70349
#
# Compressibility (1/GPa) = 0.02166164
#
# Stress axis : x y z
#
# Youngs Moduli (GPa) = 61.33737 61.33722 63.31585
#
# Poissons Ratio (x) = 0.24530 0.29664
# Poissons Ratio (y) = 0.24530 0.29664
# Poissons Ratio (z) = 0.28737 0.28737
#
# Static dielectric constant tensor:
#      x y z
#    x 3.307480 0.000000 0.000000 
#    y 0.000000 3.307480 0.000000 
#    z 0.000000 0.000000 3.202830 
# 
# 
# High freq. dielectric constant tensor:
#      x y z
#    x 1.665330 0.000000 0.000000 
#    y 0.000000 1.665330 0.000000 
#    z 0.000000 0.000000 1.646640 
# 
# From -- ./inp_files/3161.got.cif
#   From: 2010.03.12/outbox.cif.g09.slc.cpg/sg163_2_cif.got.tgz:3161.got - 2010.04.02 06:30:25.
