data_PCOD8323159
_publ_section_title
;
Structure prediction by ZEFSAII (Michael W. Deem and Ramdas Pophale) SiO2 
 PCOD8323159
Probable space group: P -3 1 M 
;
_chemical_formula_sum "Si O2"
_cell_formula_units_Z 60
_cell_length_a 14.712310
_cell_length_b 14.712310
_cell_length_c 14.078252
_cell_angle_alpha 90.000000
_cell_angle_beta 90.000000
_cell_angle_gamma 120.000000
_cell_volume 2639.010396
_symmetry_space_group_name_H-M "P -3 1 M "
_symmetry_group_IT_number 162
_symmetry_cell_setting 'hexagonal'
loop_
_space_group_symop_operation_xyz
x,y,z
-y,x-y,z
-x+y,-x,z
-y,-x,-z
-x+y,y,-z
x,x-y,-z
-x,-y,-z
y,-x+y,-z
x-y,x,-z
y,x,z
x-y,-y,z
-x,-x+y,z
loop_
_atom_site_type_symbol
_atom_site_label
_atom_site_fract_x
_atom_site_fract_y
_atom_site_fract_z
Si Si1 0.299744 0.114821 0.401523
Si Si2 0.565140 0.443595 0.791435
Si Si3 0.880399 0.391908 0.409834
Si Si4 0.342865 0.226945 0.213087
Si Si5 0.878557 0.594506 0.924173
O O1 0.249832 0.124916 0.500000
O O2 0.409025 0.125500 0.430312
O O3 0.319169 0.203451 0.324696
O O4 0.220718 0.000000 0.358254
O O5 0.480903 0.480903 0.781239
O O6 0.562923 0.387229 0.691270
O O7 0.681184 0.538527 0.809682
O O8 0.521905 0.362761 0.880769
O O9 0.823853 0.411927 0.500000
O O10 0.000000 0.488157 0.404367
O O11 0.262037 0.262037 0.173703
O O12 0.330832 0.124871 0.159403
O O13 0.000000 0.651399 0.963032
O O14 0.791965 0.583930 0.000000
#
# Coordination Sequence:
#
# PCOD8323159 Si02
#       5
#    12  12  12  12  12
#     4  11  21  35  58  89 128 178 228 272 322 391
#     4   9  19  37  60  90 125 162 211 268 330 397
#     4   9  16  30  54  82 117 163 211 262 320 381
#     4  11  22  39  65  94 129 173 218 269 333 405
#     4  11  23  43  69  96 129 171 220 273 330 395
#
# _framework density 22.735793999999999
#
# number of rings (size 3 to 8) (size 9 to 14) (size 15 to 20)
#    0.000    1.800    2.000    3.000    0.000    4.000 
#    1.200    3.000    0.000   13.600    0.000    0.000 
#    0.000    0.000    0.000    0.000    0.000    0.000 
#
# Total GULP energy -743485.899228 kJ/mol
# GULP energy per Si atom -12391.431654 kJ/mol
# Density = 2.268405 g / cm^3
# Si number density = 22.735794 Si / 1000 Ang^3
#
#
#
# Elastic Constant Matrix: (Units=GPa)
#
#
# Indices 1 2 3 4 5 6 
#
# 1 77.7631 35.3300 28.3352 0.0000 4.2620 0.0000
# 2 35.3300 77.7631 28.3352 0.0000 -4.2620 0.0000
# 3 28.3352 28.3352 123.9322 0.0000 0.0000 0.0000
# 4 0.0000 0.0000 0.0000 34.6920 0.0000 -4.2620
# 5 4.2620 -4.2620 0.0000 0.0000 34.6920 0.0000
# 6 0.0000 0.0000 0.0000 -4.2620 0.0000 21.2165
#
#
#
# Elastic Compliance Matrix: (Units=1/GPa)
#
#
# Indices 1 2 3 4 5 6 
#
# 1 0.017075 -0.007088 -0.002283 0.000000 -0.002968 0.000000
# 2 -0.007088 0.017075 -0.002283 0.000000 0.002968 0.000000
# 3 -0.002283 -0.002283 0.009113 0.000000 0.000000 0.000000
# 4 0.000000 0.000000 0.000000 0.029554 0.000000 0.005937
# 5 -0.002968 0.002968 0.000000 0.000000 0.029554 0.000000
# 6 0.000000 0.000000 0.000000 0.005937 0.000000 0.048326
#
#
# Mechanical properties :
#
#
# Convention : Reuss Voigt Hill
#
# Bulk Modulus (GPa) = 50.11819 51.49543 50.80681
# Shear Modulus (GPa) = 27.67675 30.61732 29.14704
#
# Velocity S-wave (km/s) = 3.49280 3.67366 3.58437
# Velocity P-wave (km/s) = 6.19336 6.37911 6.28692
#
# Compressibility (1/GPa) = 0.01995284
#
# Stress axis : x y z
#
# Youngs Moduli (GPa) = 58.56648 58.56648 109.73357
#
# Poissons Ratio (x) = 0.41513 0.25055
# Poissons Ratio (y) = 0.41513 0.25055
# Poissons Ratio (z) = 0.13372 0.13372
#
# Static dielectric constant tensor:
#      x y z
#    x 3.904160 0.000000 0.000000 
#    y 0.000000 3.904160 0.000000 
#    z 0.000000 0.000000 4.338640 
# 
# 
# High freq. dielectric constant tensor:
#      x y z
#    x 1.874830 0.000000 0.000000 
#    y 0.000000 1.874830 0.000000 
#    z 0.000000 0.000000 1.908440 
# 
# From -- ./inp_files/2925.got.cif
#   From: 2010.03.12/outbox.cif.g09.slc.cpg/sg162_2_cif.got.tgz:2925.got - 2010.04.02 06:27:41.
