data_PCOD8323447
_publ_section_title
;
Structure prediction by ZEFSAII (Michael W. Deem and Ramdas Pophale) SiO2 
 PCOD8323447
Probable space group: P -3 M 1
;
_chemical_formula_sum "Si O2"
_cell_formula_units_Z 96
_cell_length_a 17.545994
_cell_length_b 17.545994
_cell_length_c 20.558470
_cell_angle_alpha 90.000000
_cell_angle_beta 90.000000
_cell_angle_gamma 120.000000
_cell_volume 5481.221786
_symmetry_space_group_name_H-M "P -3 M 1"
_symmetry_group_IT_number 164
_symmetry_cell_setting 'hexagonal'
loop_
_space_group_symop_operation_xyz
x,y,z
-y,x-y,z
-x+y,-x,z
x-y,-y,-z
-x,-x+y,-z
y,x,-z
-x,-y,-z
y,-x+y,-z
x-y,x,-z
-x+y,y,z
x,x-y,z
-y,-x,z
loop_
_atom_site_type_symbol
_atom_site_label
_atom_site_fract_x
_atom_site_fract_y
_atom_site_fract_z
Si Si1 0.236667 0.297495 0.937743
Si Si2 0.362828 0.467271 0.618105
Si Si3 0.365609 0.462776 0.351070
Si Si4 0.098386 0.730079 0.222734
Si Si5 0.495924 0.165244 0.515254
Si Si6 0.670068 0.504553 0.246906
Si Si7 0.422018 0.401232 0.140193
Si Si8 0.176449 0.998610 0.813668
O O1 0.161954 0.323908 0.952522
O O2 0.326979 0.386046 0.915919
O O3 0.201106 0.220168 0.885002
O O4 0.257873 0.257873 0.000000
O O5 0.428322 0.571679 0.608311
O O6 0.417548 0.422258 0.637164
O O7 0.312765 0.433279 0.548515
O O8 0.302030 0.454087 0.680514
O O9 0.432594 0.567407 0.337479
O O10 0.300982 0.418245 0.290966
O O11 0.306780 0.444184 0.416250
O O12 0.188419 0.811582 0.196875
O O13 0.072450 0.656116 0.166551
O O14 0.026305 0.762942 0.230793
O O15 0.567026 0.134051 0.520033
O O16 0.540112 0.270056 0.507540
O O17 0.756576 0.513152 0.213054
O O18 0.597146 0.402855 0.251289
O O19 0.635687 0.556535 0.204565
O O20 0.507418 0.492583 0.116032
O O21 0.090945 0.909056 0.786974
O O22 0.152703 0.076352 0.816523
#
# Coordination Sequence:
#
# PCOD8323447 Si02
#       8
#    12  12  12  12  12  12  12  12
#     4  10  20  34  54  81 109 137 169 203 239 286
#     4   9  17  29  44  63  89 123 159 199 246 300
#     4  10  18  31  47  64  89 124 168 211 254 302
#     4  10  19  32  50  72  96 126 165 211 255 291
#     4  10  19  29  42  61  87 121 161 206 254 302
#     4  10  18  29  47  72 102 132 163 200 243 294
#     4  10  20  35  54  75 102 135 172 208 246 294
#     4   9  18  32  51  76 105 134 160 190 237 295
#
# _framework density 17.514343
#
# number of rings (size 3 to 8) (size 9 to 14) (size 15 to 20)
#    0.000    2.250    1.250    2.625    0.000    2.750 
#    0.000    1.250    0.000    5.000    0.000    0.875 
#    0.000    0.000    0.000    0.000    0.000   26.750 
#
# Total GULP energy -1189309.444712 kJ/mol
# GULP energy per Si atom -12388.640049 kJ/mol
# Density = 1.747448 g / cm^3
# Si number density = 17.514343 Si / 1000 Ang^3
#
#
#
# Elastic Constant Matrix: (Units=GPa)
#
#
# Indices 1 2 3 4 5 6 
#
# 1 80.3348 28.0776 21.5762 2.2607 0.0000 0.0000
# 2 28.0776 80.3348 21.5762 -2.2607 0.0000 0.0000
# 3 21.5762 21.5762 67.3857 0.0000 0.0000 0.0000
# 4 2.2607 -2.2607 0.0000 10.9302 0.0000 0.0000
# 5 0.0000 0.0000 0.0000 0.0000 10.9302 2.2607
# 6 0.0000 0.0000 0.0000 0.0000 2.2607 26.1286
#
#
#
# Elastic Compliance Matrix: (Units=1/GPa)
#
#
# Indices 1 2 3 4 5 6 
#
# 1 0.015028 -0.004457 -0.003385 -0.004030 0.000000 0.000000
# 2 -0.004457 0.015028 -0.003385 0.004030 0.000000 0.000000
# 3 -0.003385 -0.003385 0.017008 0.000000 0.000000 0.000000
# 4 -0.004030 0.004030 0.000000 0.093157 0.000000 0.000000
# 5 0.000000 0.000000 0.000000 0.000000 0.093157 -0.008060
# 6 0.000000 0.000000 0.000000 0.000000 -0.008060 0.038970
#
#
# Mechanical properties :
#
#
# Convention : Reuss Voigt Hill
#
# Bulk Modulus (GPa) = 40.63247 41.16837 40.90042
# Shear Modulus (GPa) = 16.50149 20.05282 18.27715
#
# Velocity S-wave (km/s) = 3.07281 3.38736 3.23391
# Velocity P-wave (km/s) = 5.98661 6.23342 6.11126
#
# Compressibility (1/GPa) = 0.02461086
#
# Stress axis : x y z
#
# Youngs Moduli (GPa) = 66.54215 66.54215 58.79747
#
# Poissons Ratio (x) = 0.29656 0.19902
# Poissons Ratio (y) = 0.29656 0.19902
# Poissons Ratio (z) = 0.22523 0.22523
#
# Static dielectric constant tensor:
#      x y z
#    x 3.323180 0.000000 0.000000 
#    y 0.000000 3.323180 0.000000 
#    z 0.000000 0.000000 3.325790 
# 
# 
# High freq. dielectric constant tensor:
#      x y z
#    x 1.666200 0.000000 0.000000 
#    y 0.000000 1.666200 0.000000 
#    z 0.000000 0.000000 1.668670 
# 
# From -- ./inp_files/4694.got.cif
#   From: 2010.03.12/outbox.cif.g09.slc.cpg/sg164_3_cif.got.tgz:4694.got - 2010.04.02 06:32:59.
