data_PCOD8323797
_publ_section_title
;
Structure prediction by ZEFSAII (Michael W. Deem and Ramdas Pophale) SiO2 
 PCOD8323797
Probable space group: P -3 M 1
;
_chemical_formula_sum "Si O2"
_cell_formula_units_Z 48
_cell_length_a 17.617742
_cell_length_b 17.617742
_cell_length_c 8.979616
_cell_angle_alpha 90.000000
_cell_angle_beta 90.000000
_cell_angle_gamma 120.000000
_cell_volume 2413.731112
_symmetry_space_group_name_H-M "P -3 M 1"
_symmetry_group_IT_number 164
_symmetry_cell_setting 'hexagonal'
loop_
_space_group_symop_operation_xyz
x,y,z
-y,x-y,z
-x+y,-x,z
x-y,-y,-z
-x,-x+y,-z
y,x,-z
-x,-y,-z
y,-x+y,-z
x-y,x,-z
-x+y,y,z
x,x-y,z
-y,-x,z
loop_
_atom_site_type_symbol
_atom_site_label
_atom_site_fract_x
_atom_site_fract_y
_atom_site_fract_z
Si Si1 0.666627 0.156887 0.493360
Si Si2 0.638392 0.638392 0.000000
Si Si3 0.665811 0.503851 0.831923
Si Si4 0.668438 0.747811 0.715360
Si Si5 0.173569 0.173569 0.500000
O O1 0.574522 0.149043 0.450023
O O2 0.743203 0.256798 0.468110
O O3 0.668652 0.129446 0.664632
O O4 0.678969 0.088884 0.391203
O O5 0.628392 0.546706 0.947333
O O6 0.677193 0.704889 0.864542
O O7 0.761809 0.523618 0.882110
O O8 0.600548 0.399453 0.833951
O O9 0.648293 0.824147 0.757642
O O10 0.762081 0.786400 0.638702
O O11 0.161675 0.080838 0.549886
#
# Coordination Sequence:
#
# PCOD8323797 Si02
#       5
#    12   6  12  12   6
#     4   9  18  35  59  85 112 146 188 231 273 321
#     4  12  23  36  54  82 117 154 188 220 263 330
#     4  10  21  37  57  80 109 146 189 234 278 324
#     4  10  22  38  57  82 113 147 182 225 278 330
#     4  10  21  40  65  88 108 136 180 234 287 336
#
# _framework density 19.886223999999999
#
# number of rings (size 3 to 8) (size 9 to 14) (size 15 to 20)
#    0.000    2.000    0.000    3.250    0.000    8.000 
#    0.000    3.125    0.000    3.000    0.000    4.375 
#    0.000    0.000    0.000    0.000    0.000    0.000 
#
# Total GULP energy -595327.149944 kJ/mol
# GULP energy per Si atom -12402.648957 kJ/mol
# Density = 1.984096 g / cm^3
# Si number density = 19.886224 Si / 1000 Ang^3
#
#
#
# Elastic Constant Matrix: (Units=GPa)
#
#
# Indices 1 2 3 4 5 6 
#
# 1 112.1264 59.2300 54.8747 4.6896 0.0000 0.0000
# 2 59.2300 112.1264 54.8747 -4.6896 0.0000 0.0000
# 3 54.8747 54.8747 99.1231 0.0000 0.0000 0.0000
# 4 4.6896 -4.6896 0.0000 26.1029 0.0000 0.0000
# 5 0.0000 0.0000 0.0000 0.0000 26.1029 4.6896
# 6 0.0000 0.0000 0.0000 0.0000 4.6896 26.4482
#
#
#
# Elastic Compliance Matrix: (Units=1/GPa)
#
#
# Indices 1 2 3 4 5 6 
#
# 1 0.014284 -0.005243 -0.005005 -0.003508 0.000000 0.000000
# 2 -0.005243 0.014284 -0.005005 0.003508 0.000000 0.000000
# 3 -0.005005 -0.005005 0.015631 0.000000 0.000000 0.000000
# 4 -0.003508 0.003508 0.000000 0.039570 0.000000 0.000000
# 5 0.000000 0.000000 0.000000 0.000000 0.039570 -0.007016
# 6 0.000000 0.000000 0.000000 0.000000 -0.007016 0.039054
#
#
# Mechanical properties :
#
#
# Convention : Reuss Voigt Hill
#
# Bulk Modulus (GPa) = 73.03553 73.48162 73.25858
# Shear Modulus (GPa) = 25.32094 26.02389 25.67241
#
# Velocity S-wave (km/s) = 3.57219 3.62144 3.59690
# Velocity P-wave (km/s) = 7.33624 7.38361 7.35996
#
# Compressibility (1/GPa) = 0.01369197
#
# Stress axis : x y z
#
# Youngs Moduli (GPa) = 70.00698 70.00698 63.97734
#
# Poissons Ratio (x) = 0.36702 0.32024
# Poissons Ratio (y) = 0.36702 0.32024
# Poissons Ratio (z) = 0.35042 0.35042
#
# Static dielectric constant tensor:
#      x y z
#    x 3.616780 0.000000 0.000000 
#    y 0.000000 3.616780 0.000000 
#    z 0.000000 0.000000 3.545920 
# 
# 
# High freq. dielectric constant tensor:
#      x y z
#    x 1.780270 0.000000 0.000000 
#    y 0.000000 1.780270 0.000000 
#    z 0.000000 0.000000 1.766660 
# 
# From -- ./inp_files/1291.got.cif
#   From: 2010.03.12/outbox.cif.g09.slc.cpg/sg164_1_cif.got.tgz:1291.got - 2010.04.02 06:32:59.
