data_PCOD8323293
_publ_section_title
;
Structure prediction by ZEFSAII (Michael W. Deem and Ramdas Pophale) SiO2 
 PCOD8323293
Probable space group: P -3 1 C
;
_chemical_formula_sum "Si O2"
_cell_formula_units_Z 42
_cell_length_a 8.734755
_cell_length_b 8.734755
_cell_length_c 31.838782
_cell_angle_alpha 90.000000
_cell_angle_beta 90.000000
_cell_angle_gamma 120.000000
_cell_volume 2103.722893
_symmetry_space_group_name_H-M "P -3 1 C"
_symmetry_group_IT_number 163
_symmetry_cell_setting 'hexagonal'
loop_
_space_group_symop_operation_xyz
x,y,z
-y,x-y,z
-x+y,-x,z
-y,-x,1/2-z
-x+y,y,1/2-z
x,x-y,1/2-z
-x,-y,-z
y,-x+y,-z
x-y,x,-z
y,x,1/2+z
x-y,-y,1/2+z
-x,-x+y,1/2+z
loop_
_atom_site_type_symbol
_atom_site_label
_atom_site_fract_x
_atom_site_fract_y
_atom_site_fract_z
Si Si1 0.775288 0.887644 0.750000
Si Si2 0.666668 0.333334 0.463779
Si Si3 0.000000 0.000000 0.548617
Si Si4 0.444628 0.190526 0.333584
Si Si5 0.335261 0.017337 0.418846
Si Si6 0.666668 0.333334 0.564469
O O1 0.658837 0.857119 0.709469
O O2 0.899254 0.798508 0.750000
O O3 0.483221 0.173253 0.447091
O O4 0.666668 0.333334 0.513963
O O5 0.196834 0.141528 0.562625
O O6 0.000000 0.000000 0.500000
O O7 0.596110 0.134514 0.335800
O O8 0.322207 0.091526 0.373154
O O9 0.371579 0.854579 0.417473
#
# Coordination Sequence:
#
# PCOD8323293 Si02
#       6
#     6   4   4  12  12   4
#     4  10  24  38  68 106 126 166 218 280 324 412
#     4  12  21  48  63 100 139 187 235 285 357 408
#     4  12  27  42  66  97 137 187 240 294 348 405
#     4  10  22  43  69  93 133 179 221 264 352 405
#     4  12  24  42  67  99 135 185 234 287 350 413
#     4  12  27  39  69  99 146 179 240 294 339 411
#
# _framework density 19.964604999999999
#
# number of rings (size 3 to 8) (size 9 to 14) (size 15 to 20)
#    0.857    0.000    2.857    5.143    4.000    0.000 
#    0.000    0.000    0.000    4.571    0.000    0.000 
#    0.000    0.000    0.000    0.000    0.000    0.000 
#
# Total GULP energy -520562.240415 kJ/mol
# GULP energy per Si atom -12394.339058 kJ/mol
# Density = 1.991917 g / cm^3
# Si number density = 19.964605 Si / 1000 Ang^3
#
#
#
# Elastic Constant Matrix: (Units=GPa)
#
#
# Indices 1 2 3 4 5 6 
#
# 1 83.4298 33.8222 46.6331 -0.0012 0.0556 -0.0001
# 2 33.8222 83.4291 46.6335 0.0016 -0.0553 -0.0005
# 3 46.6331 46.6335 179.9631 -0.0005 -0.0003 0.0003
# 4 -0.0012 0.0016 -0.0005 25.0116 -0.0004 -0.0549
# 5 0.0556 -0.0553 -0.0003 -0.0004 25.0121 -0.0005
# 6 -0.0001 -0.0005 0.0003 -0.0549 -0.0005 24.8034
#
#
#
# Elastic Compliance Matrix: (Units=1/GPa)
#
#
# Indices 1 2 3 4 5 6 
#
# 1 0.015451 -0.004708 -0.002784 0.000001 -0.000045 0.000000
# 2 -0.004708 0.015451 -0.002784 -0.000001 0.000045 0.000000
# 3 -0.002784 -0.002784 0.006999 0.000000 0.000000 0.000000
# 4 0.000001 -0.000001 0.000000 0.039982 0.000001 0.000089
# 5 -0.000045 0.000045 0.000000 0.000001 0.039981 0.000001
# 6 0.000000 0.000000 0.000000 0.000089 0.000001 0.040317
#
#
# Mechanical properties :
#
#
# Convention : Reuss Voigt Hill
#
# Bulk Modulus (GPa) = 57.63615 66.77773 62.20694
# Shear Modulus (GPa) = 27.09811 29.61429 28.35620
#
# Velocity S-wave (km/s) = 3.68816 3.85559 3.77281
# Velocity P-wave (km/s) = 6.86065 7.30352 7.08555
#
# Compressibility (1/GPa) = 0.01735022
#
# Stress axis : x y z
#
# Youngs Moduli (GPa) = 64.72224 64.72151 142.86916
#
# Poissons Ratio (x) = 0.30469 0.39771
# Poissons Ratio (y) = 0.30469 0.39773
# Poissons Ratio (z) = 0.18017 0.18017
#
# Static dielectric constant tensor:
#      x y z
#    x 3.603310 0.000000 0.000010 
#    y 0.000000 3.603310 0.000010 
#    z 0.000010 0.000010 4.046490 
# 
# 
# High freq. dielectric constant tensor:
#      x y z
#    x 1.780830 0.000000 0.000000 
#    y 0.000000 1.780830 0.000000 
#    z 0.000000 0.000000 1.789570 
# 
# From -- ./inp_files/4291.got.cif
#   From: 2010.03.12/outbox.cif.g09.slc.cpg/sg163_3_cif.got.tgz:4291.got - 2010.04.02 06:30:25.
