data_PCOD8323189
_publ_section_title
;
Structure prediction by ZEFSAII (Michael W. Deem and Ramdas Pophale) SiO2 
 PCOD8323189
Probable space group: P -3 1 C
;
_chemical_formula_sum "Si O2"
_cell_formula_units_Z 72
_cell_length_a 22.419509
_cell_length_b 22.419509
_cell_length_c 8.734163
_cell_angle_alpha 90.000000
_cell_angle_beta 90.000000
_cell_angle_gamma 120.000000
_cell_volume 3801.930017
_symmetry_space_group_name_H-M "P -3 1 C"
_symmetry_group_IT_number 163
_symmetry_cell_setting 'hexagonal'
loop_
_space_group_symop_operation_xyz
x,y,z
-y,x-y,z
-x+y,-x,z
-y,-x,1/2-z
-x+y,y,1/2-z
x,x-y,1/2-z
-x,-y,-z
y,-x+y,-z
x-y,x,-z
y,x,1/2+z
x-y,-y,1/2+z
-x,-x+y,1/2+z
loop_
_atom_site_type_symbol
_atom_site_label
_atom_site_fract_x
_atom_site_fract_y
_atom_site_fract_z
Si Si1 0.585747 0.966943 0.401216
Si Si2 0.380931 0.252957 0.324530
Si Si3 0.221383 0.991587 0.742217
Si Si4 0.482556 0.394812 0.198207
Si Si5 0.972411 0.847763 0.012732
Si Si6 0.932641 0.291567 0.879970
O O1 0.520870 0.921994 0.513027
O O2 0.599982 0.920084 0.280670
O O3 0.571093 0.017697 0.298963
O O4 0.648423 0.005592 0.520746
O O5 0.368816 0.184408 0.250000
O O6 0.309877 0.253709 0.301957
O O7 0.446215 0.314512 0.240248
O O8 0.393854 0.258775 0.509180
O O9 0.208638 0.028926 0.601332
O O10 0.281132 0.050754 0.846736
O O11 0.147538 0.953313 0.828108
O O12 0.562921 0.437080 0.250000
O O13 0.916540 0.869715 0.972705
#
# Coordination Sequence:
#
# PCOD8323189 Si02
#       6
#    12  12  12  12  12  12
#     4   9  16  31  52  79 111 144 169 209 273 333
#     4  11  22  37  55  79 115 147 184 233 286 338
#     4  12  21  38  58  78 101 136 188 233 304 360
#     4  10  19  32  54  82 113 146 179 212 265 332
#     4  12  26  42  56  74  99 140 192 252 304 361
#     4  10  17  34  55  78 113 139 173 226 285 350
#
# _framework density 18.937750000000001
#
# number of rings (size 3 to 8) (size 9 to 14) (size 15 to 20)
#    0.000    1.333    6.667    2.667    0.000    0.000 
#    0.000    2.500    0.000    0.333    0.000    0.000 
#    0.000    0.000    0.000    9.167    0.000    0.000 
#
# Total GULP energy -891998.940021 kJ/mol
# GULP energy per Si atom -12388.874167 kJ/mol
# Density = 1.889465 g / cm^3
# Si number density = 18.937750 Si / 1000 Ang^3
#
#
#
# Elastic Constant Matrix: (Units=GPa)
#
#
# Indices 1 2 3 4 5 6 
#
# 1 44.0419 15.9844 17.5870 0.0000 -1.6487 0.0000
# 2 15.9844 44.0419 17.5870 0.0000 1.6487 0.0000
# 3 17.5870 17.5870 118.7677 0.0000 0.0000 0.0000
# 4 0.0000 0.0000 0.0000 21.7770 0.0000 1.6487
# 5 -1.6487 1.6487 0.0000 0.0000 21.7770 0.0000
# 6 0.0000 0.0000 0.0000 1.6487 0.0000 14.0287
#
#
#
# Elastic Compliance Matrix: (Units=1/GPa)
#
#
# Indices 1 2 3 4 5 6 
#
# 1 0.027102 -0.008859 -0.002701 0.000000 0.002723 0.000000
# 2 -0.008859 0.027102 -0.002701 0.000000 -0.002723 0.000000
# 3 -0.002701 -0.002701 0.009220 0.000000 0.000000 0.000000
# 4 0.000000 0.000000 0.000000 0.046332 0.000000 -0.005445
# 5 0.002723 -0.002723 0.000000 0.000000 0.046332 0.000000
# 6 0.000000 0.000000 0.000000 -0.005445 0.000000 0.071922
#
#
# Mechanical properties :
#
#
# Convention : Reuss Voigt Hill
#
# Bulk Modulus (GPa) = 28.65398 34.35202 31.50300
# Shear Modulus (GPa) = 18.64510 21.89609 20.27059
#
# Velocity S-wave (km/s) = 3.14115 3.40400 3.27522
# Velocity P-wave (km/s) = 5.32158 5.79901 5.56542
#
# Compressibility (1/GPa) = 0.03489916
#
# Stress axis : x y z
#
# Youngs Moduli (GPa) = 36.89807 36.89807 108.46215
#
# Poissons Ratio (x) = 0.32690 0.29299
# Poissons Ratio (y) = 0.32690 0.29299
# Poissons Ratio (z) = 0.09967 0.09967
#
# Static dielectric constant tensor:
#      x y z
#    x 3.189630 0.000000 0.000000 
#    y 0.000000 3.189630 0.000000 
#    z 0.000000 0.000000 4.159680 
# 
# 
# High freq. dielectric constant tensor:
#      x y z
#    x 1.696480 0.000000 0.000000 
#    y 0.000000 1.696480 0.000000 
#    z 0.000000 0.000000 1.768270 
# 
# From -- ./inp_files/1217.got.cif
#   From: 2010.03.12/outbox.cif.g09.slc.cpg/sg163_1_cif.got.tgz:1217.got - 2010.04.02 06:30:25.
