data_PCOD8323718
_publ_section_title
;
Structure prediction by ZEFSAII (Michael W. Deem and Ramdas Pophale) SiO2 
 PCOD8323718
Probable space group: P -3 M 1
;
_chemical_formula_sum "Si O2"
_cell_formula_units_Z 66
_cell_length_a 12.604631
_cell_length_b 12.604631
_cell_length_c 27.966873
_cell_angle_alpha 90.000000
_cell_angle_beta 90.000000
_cell_angle_gamma 120.000000
_cell_volume 3847.997794
_symmetry_space_group_name_H-M "P -3 M 1"
_symmetry_group_IT_number 164
_symmetry_cell_setting 'hexagonal'
loop_
_space_group_symop_operation_xyz
x,y,z
-y,x-y,z
-x+y,-x,z
x-y,-y,-z
-x,-x+y,-z
y,x,-z
-x,-y,-z
y,-x+y,-z
x-y,x,-z
-x+y,y,z
x,x-y,z
-y,-x,z
loop_
_atom_site_type_symbol
_atom_site_label
_atom_site_fract_x
_atom_site_fract_y
_atom_site_fract_z
Si Si1 0.333448 0.910461 0.371576
Si Si2 0.582109 0.913689 0.089834
Si Si3 0.246570 0.998718 0.178273
Si Si4 0.000000 0.751412 0.000000
Si Si5 0.577184 0.910597 0.262951
Si Si6 0.421350 0.334452 0.455843
O O1 0.435100 0.870200 0.378765
O O2 0.204102 0.795899 0.385571
O O3 0.335269 0.953871 0.317263
O O4 0.358775 0.021509 0.406170
O O5 0.462841 0.925681 0.086253
O O6 0.542145 0.771073 0.089501
O O7 0.653412 0.978320 0.138090
O O8 0.669385 0.984486 0.045735
O O9 0.259235 0.129618 0.171076
O O10 0.302118 0.994619 0.229579
O O11 0.104124 0.895877 0.174360
O O12 0.884129 0.768258 0.008608
O O13 0.463049 0.926098 0.247791
O O14 0.535787 0.767894 0.256855
O O15 0.351733 0.351733 0.500000
O O16 0.408062 0.204031 0.461433
O O17 0.563722 0.436279 0.456175
#
# Coordination Sequence:
#
# PCOD8323718 Si02
#       6
#    12  12  12   6  12  12
#     4   9  17  30  50  75 100 126 157 195 238 283
#     4  10  20  34  53  76 101 129 162 202 247 292
#     4  10  20  33  50  71  97 130 166 204 243 286
#     4  10  20  34  54  78 104 134 166 200 236 280
#     4   9  17  30  50  75 100 126 158 198 242 285
#     4  10  20  33  50  71  95 124 158 197 239 283
#
# _framework density 17.151776999999999
#
# number of rings (size 3 to 8) (size 9 to 14) (size 15 to 20)
#    0.000    2.364    0.000    2.909    0.000    2.182 
#    0.000    5.455    0.000   10.909    0.000    0.000 
#    0.000    0.000    0.000    0.000    0.000    0.000 
#
# Total GULP energy -818578.294311 kJ/mol
# GULP energy per Si atom -12402.701429 kJ/mol
# Density = 1.711274 g / cm^3
# Si number density = 17.151777 Si / 1000 Ang^3
#
#
#
# Elastic Constant Matrix: (Units=GPa)
#
#
# Indices 1 2 3 4 5 6 
#
# 1 105.4929 70.3963 54.5626 -3.6958 0.0000 0.0000
# 2 70.3963 105.4929 54.5626 3.6958 0.0000 0.0000
# 3 54.5626 54.5626 113.2991 0.0000 0.0000 0.0000
# 4 -3.6958 3.6958 0.0000 19.2758 0.0000 0.0000
# 5 0.0000 0.0000 0.0000 0.0000 19.2758 -3.6958
# 6 0.0000 0.0000 0.0000 0.0000 -3.6958 17.5483
#
#
#
# Elastic Compliance Matrix: (Units=1/GPa)
#
#
# Indices 1 2 3 4 5 6 
#
# 1 0.018900 -0.010792 -0.003905 0.005693 0.000000 0.000000
# 2 -0.010792 0.018900 -0.003905 -0.005693 0.000000 0.000000
# 3 -0.003905 -0.003905 0.012587 0.000000 0.000000 0.000000
# 4 0.005693 -0.005693 0.000000 0.054061 0.000000 0.000000
# 5 0.000000 0.000000 0.000000 0.000000 0.054061 0.011386
# 6 0.000000 0.000000 0.000000 0.000000 0.011386 0.059383
#
#
# Mechanical properties :
#
#
# Convention : Reuss Voigt Hill
#
# Bulk Modulus (GPa) = 75.84757 75.92529 75.88643
# Shear Modulus (GPa) = 19.26858 20.87088 20.06973
#
# Velocity S-wave (km/s) = 3.35538 3.49210 3.42442
# Velocity P-wave (km/s) = 7.70252 7.78605 7.74440
#
# Compressibility (1/GPa) = 0.01318434
#
# Stress axis : x y z
#
# Youngs Moduli (GPa) = 52.91067 52.91067 79.44739
#
# Poissons Ratio (x) = 0.57101 0.31021
# Poissons Ratio (y) = 0.57101 0.31021
# Poissons Ratio (z) = 0.20659 0.20659
#
# Static dielectric constant tensor:
#      x y z
#    x 3.038690 0.000000 0.000000 
#    y 0.000000 3.038690 0.000000 
#    z 0.000000 0.000000 3.503100 
# 
# 
# High freq. dielectric constant tensor:
#      x y z
#    x 1.652410 0.000000 0.000000 
#    y 0.000000 1.652410 0.000000 
#    z 0.000000 0.000000 1.681990 
# 
# From -- ./inp_files/5435.got.cif
#   From: 2010.03.12/outbox.cif.g09.slc.cpg/sg164_3_cif.got.tgz:5435.got - 2010.04.02 06:32:59.
