data_PCOD8323089
_publ_section_title
;
Structure prediction by ZEFSAII (Michael W. Deem and Ramdas Pophale) SiO2 
 PCOD8323089
Probable space group: P -3 1 M 
;
_chemical_formula_sum "Si O2"
_cell_formula_units_Z 96
_cell_length_a 14.677545
_cell_length_b 14.677545
_cell_length_c 25.696315
_cell_angle_alpha 90.000000
_cell_angle_beta 90.000000
_cell_angle_gamma 120.000000
_cell_volume 4794.113595
_symmetry_space_group_name_H-M "P -3 1 M "
_symmetry_group_IT_number 162
_symmetry_cell_setting 'hexagonal'
loop_
_space_group_symop_operation_xyz
x,y,z
-y,x-y,z
-x+y,-x,z
-y,-x,-z
-x+y,y,-z
x,x-y,-z
-x,-y,-z
y,-x+y,-z
x-y,x,-z
y,x,z
x-y,-y,z
-x,-x+y,z
loop_
_atom_site_type_symbol
_atom_site_label
_atom_site_fract_x
_atom_site_fract_y
_atom_site_fract_z
Si Si1 0.423836 0.543947 0.325902
Si Si2 0.231294 0.419107 0.641182
Si Si3 0.762194 0.884916 0.844247
Si Si4 0.217855 0.749778 0.119193
Si Si5 0.488850 0.372440 0.217448
Si Si6 0.434464 0.879326 0.059284
Si Si7 0.878731 0.757691 0.438974
Si Si8 0.291708 0.114152 0.733837
O O1 0.451743 0.451743 0.328362
O O2 0.509998 0.643192 0.358021
O O3 0.311376 0.499074 0.352676
O O4 0.423318 0.575407 0.264240
O O5 0.191168 0.356210 0.587460
O O6 0.196574 0.331144 0.686740
O O7 0.807362 0.807362 0.854406
O O8 0.651370 0.839204 0.872813
O O9 0.750950 0.901088 0.782786
O O10 0.840352 0.000000 0.867801
O O11 0.204569 0.683027 0.172489
O O12 0.334829 0.804469 0.095621
O O13 0.134723 0.665367 0.078990
O O14 0.459206 0.459206 0.194308
O O15 0.386977 0.285505 0.246209
O O16 0.461928 0.000000 0.063176
O O17 0.420301 0.840601 0.000000
O O18 0.867833 0.735666 0.500000
O O19 0.835667 0.835667 0.423515
O O20 0.000000 0.811363 0.420906
O O21 0.200289 0.000000 0.713425
#
# Coordination Sequence:
#
# PCOD8323089 Si02
#       8
#    12  12  12  12  12  12  12  12
#     4  10  21  35  53  82 118 152 189 234 278 331
#     4  11  20  36  58  80 113 157 198 235 285 344
#     4  10  20  35  57  87 121 153 184 223 277 342
#     4  11  21  38  59  80 111 148 187 232 281 337
#     4   8  16  32  53  78 109 144 180 221 271 322
#     4  11  24  40  59  84 111 144 190 240 290 338
#     4  10  21  38  61  88 115 145 188 246 307 358
#     4   8  16  31  50  73 106 148 189 227 265 312
#
# _framework density 20.024557000000001
#
# number of rings (size 3 to 8) (size 9 to 14) (size 15 to 20)
#    0.000    2.125    0.000    5.625    0.000    4.500 
#    0.000    3.125    0.000    3.750    0.000    0.000 
#    0.000    6.000    0.000    0.000    0.000    0.000 
#
# Total GULP energy -1189707.374958 kJ/mol
# GULP energy per Si atom -12392.785156 kJ/mol
# Density = 1.997898 g / cm^3
# Si number density = 20.024557 Si / 1000 Ang^3
#
#
#
# Elastic Constant Matrix: (Units=GPa)
#
#
# Indices 1 2 3 4 5 6 
#
# 1 82.9758 36.5296 41.5573 0.0000 -1.8510 0.0000
# 2 36.5296 82.9758 41.5573 0.0000 1.8510 0.0000
# 3 41.5573 41.5573 84.4108 0.0000 0.0000 0.0000
# 4 0.0000 0.0000 0.0000 26.0725 0.0000 1.8510
# 5 -1.8510 1.8510 0.0000 0.0000 26.0725 0.0000
# 6 0.0000 0.0000 0.0000 1.8510 0.0000 23.2231
#
#
#
# Elastic Compliance Matrix: (Units=1/GPa)
#
#
# Indices 1 2 3 4 5 6 
#
# 1 0.017189 -0.004464 -0.006265 0.000000 0.001537 0.000000
# 2 -0.004464 0.017189 -0.006265 0.000000 -0.001537 0.000000
# 3 -0.006265 -0.006265 0.018015 0.000000 0.000000 0.000000
# 4 0.000000 0.000000 0.000000 0.038573 0.000000 -0.003075
# 5 0.001537 -0.001537 0.000000 0.000000 0.038573 0.000000
# 6 0.000000 0.000000 0.000000 -0.003075 0.000000 0.043306
#
#
# Mechanical properties :
#
#
# Convention : Reuss Voigt Hill
#
# Bulk Modulus (GPa) = 54.32963 54.40565 54.36764
# Shear Modulus (GPa) = 23.47785 23.78816 23.63300
#
# Velocity S-wave (km/s) = 3.42782 3.45040 3.43913
# Velocity P-wave (km/s) = 6.54653 6.56522 6.55588
#
# Compressibility (1/GPa) = 0.01840616
#
# Stress axis : x y z
#
# Youngs Moduli (GPa) = 58.17733 58.17733 55.50812
#
# Poissons Ratio (x) = 0.25970 0.34774
# Poissons Ratio (y) = 0.25970 0.34774
# Poissons Ratio (z) = 0.36447 0.36447
#
# Static dielectric constant tensor:
#      x y z
#    x 3.570170 0.000000 0.000000 
#    y 0.000000 3.570170 0.000000 
#    z 0.000000 0.000000 3.737330 
# 
# 
# High freq. dielectric constant tensor:
#      x y z
#    x 1.778890 0.000000 0.000000 
#    y 0.000000 1.778890 0.000000 
#    z 0.000000 0.000000 1.762060 
# 
# From -- ./inp_files/4070.got.cif
#   From: 2010.03.12/outbox.cif.g09.slc.cpg/sg162_3_cif.got.tgz:4070.got - 2010.04.02 06:27:41.
