data_PCOD8323612
_publ_section_title
;
Structure prediction by ZEFSAII (Michael W. Deem and Ramdas Pophale) SiO2 
 PCOD8323612
Probable space group: P -3 M 1
;
_chemical_formula_sum "Si O2"
_cell_formula_units_Z 54
_cell_length_a 12.990686
_cell_length_b 12.990686
_cell_length_c 23.023669
_cell_angle_alpha 90.000000
_cell_angle_beta 90.000000
_cell_angle_gamma 120.000000
_cell_volume 3364.878101
_symmetry_space_group_name_H-M "P -3 M 1"
_symmetry_group_IT_number 164
_symmetry_cell_setting 'hexagonal'
loop_
_space_group_symop_operation_xyz
x,y,z
-y,x-y,z
-x+y,-x,z
x-y,-y,-z
-x,-x+y,-z
y,x,-z
-x,-y,-z
y,-x+y,-z
x-y,x,-z
-x+y,y,z
x,x-y,z
-y,-x,z
loop_
_atom_site_type_symbol
_atom_site_label
_atom_site_fract_x
_atom_site_fract_y
_atom_site_fract_z
Si Si1 0.909128 0.333631 0.725725
Si Si2 0.757405 0.758606 0.374368
Si Si3 0.095684 0.429268 0.823212
Si Si4 0.763663 0.000000 0.500000
Si Si5 0.428378 0.332726 0.044767
O O1 0.893809 0.446905 0.715763
O O2 0.780422 0.219579 0.733209
O O3 0.979938 0.323207 0.671091
O O4 0.984142 0.345380 0.783195
O O5 0.873897 0.747793 0.362959
O O6 0.696719 0.708529 0.438673
O O7 0.793157 0.896579 0.368134
O O8 0.207748 0.415496 0.805592
O O9 0.134168 0.567084 0.815312
O O10 0.054930 0.387112 0.889167
O O11 0.783179 0.891590 0.511536
O O12 0.434788 0.217394 0.030168
O O13 0.557927 0.442074 0.032971
O O14 0.334797 0.334797 0.000000
#
# Coordination Sequence:
#
# PCOD8323612 Si02
#       5
#    12  12  12   6  12
#     4  10  20  32  45  62  87 119 151 180 212 255
#     4   9  16  27  45  68  91 113 140 178 223 266
#     4   9  17  30  48  68  88 111 142 182 225 262
#     4   8  13  22  39  64  90 112 136 172 220 266
#     4   9  17  29  46  68  92 117 145 178 216 256
#
# _framework density 16.04813
#
# number of rings (size 3 to 8) (size 9 to 14) (size 15 to 20)
#    0.000    2.889    0.000    1.667    0.000    4.444 
#    0.000    0.556    0.000    3.778    0.000    0.000 
#    0.000    0.000    0.000    0.000    0.000    0.000 
#
# Total GULP energy -669207.196666 kJ/mol
# GULP energy per Si atom -12392.725864 kJ/mol
# Density = 1.601160 g / cm^3
# Si number density = 16.048130 Si / 1000 Ang^3
#
#
#
# Elastic Constant Matrix: (Units=GPa)
#
#
# Indices 1 2 3 4 5 6 
#
# 1 85.4129 44.6845 63.6845 0.1727 0.0000 0.0000
# 2 44.6845 85.4129 63.6845 -0.1727 0.0000 0.0000
# 3 63.6845 63.6845 126.1303 0.0000 0.0000 0.0000
# 4 0.1727 -0.1727 0.0000 23.8871 0.0000 0.0000
# 5 0.0000 0.0000 0.0000 0.0000 23.8871 0.1727
# 6 0.0000 0.0000 0.0000 0.0000 0.1727 20.3642
#
#
#
# Elastic Compliance Matrix: (Units=1/GPa)
#
#
# Indices 1 2 3 4 5 6 
#
# 1 0.019877 -0.004677 -0.007675 -0.000178 0.000000 0.000000
# 2 -0.004677 0.019877 -0.007675 0.000178 0.000000 0.000000
# 3 -0.007675 -0.007675 0.015679 0.000000 0.000000 0.000000
# 4 -0.000178 0.000178 0.000000 0.041866 0.000000 0.000000
# 5 0.000000 0.000000 0.000000 0.000000 0.041866 -0.000355
# 6 0.000000 0.000000 0.000000 0.000000 -0.000355 0.049109
#
#
# Mechanical properties :
#
#
# Convention : Reuss Voigt Hill
#
# Bulk Modulus (GPa) = 65.01954 71.22924 68.12439
# Shear Modulus (GPa) = 21.41744 21.95452 21.68598
#
# Velocity S-wave (km/s) = 3.65715 3.70272 3.68000
# Velocity P-wave (km/s) = 7.64436 7.92220 7.78452
#
# Compressibility (1/GPa) = 0.01537999
#
# Stress axis : x y z
#
# Youngs Moduli (GPa) = 50.30836 50.30836 63.78147
#
# Poissons Ratio (x) = 0.23529 0.48951
# Poissons Ratio (y) = 0.23529 0.48951
# Poissons Ratio (z) = 0.38611 0.38611
#
# Static dielectric constant tensor:
#      x y z
#    x 2.893800 0.000000 0.000000 
#    y 0.000000 2.893800 0.000000 
#    z 0.000000 0.000000 3.320040 
# 
# 
# High freq. dielectric constant tensor:
#      x y z
#    x 1.601140 0.000000 0.000000 
#    y 0.000000 1.601140 0.000000 
#    z 0.000000 0.000000 1.635020 
# 
# From -- ./inp_files/4836.got.cif
#   From: 2010.03.12/outbox.cif.g09.slc.cpg/sg164_3_cif.got.tgz:4836.got - 2010.04.02 06:32:59.
