data_PCOD8323847
_publ_section_title
;
Structure prediction by ZEFSAII (Michael W. Deem and Ramdas Pophale) SiO2 
 PCOD8323847
Probable space group: P -3 C 1
;
_chemical_formula_sum "Si O2"
_cell_formula_units_Z 60
_cell_length_a 30.388197
_cell_length_b 30.388197
_cell_length_c 5.267626
_cell_angle_alpha 90.000000
_cell_angle_beta 90.000000
_cell_angle_gamma 120.000000
_cell_volume 4212.650510
_symmetry_space_group_name_H-M "P -3 C 1"
_symmetry_group_IT_number 165
_symmetry_cell_setting 'hexagonal'
loop_
_space_group_symop_operation_xyz
x,y,z
-y,x-y,z
-x+y,-x,z
x-y,-y,1/2-z
-x,-x+y,1/2-z
y,x,1/2-z
-x,-y,-z
y,-x+y,-z
x-y,x,-z
-x+y,y,1/2+z
x,x-y,1/2+z
-y,-x,1/2+z
loop_
_atom_site_type_symbol
_atom_site_label
_atom_site_fract_x
_atom_site_fract_y
_atom_site_fract_z
Si Si1 0.058004 0.700069 0.266534
Si Si2 0.423498 0.094455 0.235788
Si Si3 0.549117 0.758505 0.259809
Si Si4 0.443307 0.940785 0.247780
Si Si5 0.191118 0.852131 0.769596
O O1 0.064979 0.676368 0.525267
O O2 0.091328 0.761034 0.266896
O O3 0.000000 0.686475 0.250000
O O4 0.071100 0.676309 0.026462
O O5 0.440332 0.152988 0.254532
O O6 0.474349 0.091456 0.242753
O O7 0.518359 0.757435 0.513487
O O8 0.600977 0.812855 0.274091
O O9 0.464729 0.925974 0.491526
O O10 0.460500 0.000000 0.250000
O O11 0.156416 0.842933 0.520578
#
# Coordination Sequence:
#
# PCOD8323847 Si02
#       5
#    12  12  12  12  12
#     4  12  21  28  43  68  88 108 148 187 210 246
#     4  12  20  32  48  63  83 115 147 180 206 254
#     4  10  16  29  46  63  83 108 136 169 219 258
#     4  10  21  35  45  57  82 114 146 172 208 252
#     4  10  16  30  43  57  86 115 135 168 225 258
#
# _framework density 14.242815999999999
#
# number of rings (size 3 to 8) (size 9 to 14) (size 15 to 20)
#    0.000    1.200    8.000    3.000    0.000    1.600 
#    0.000    0.000    0.000    0.000    0.000    0.000 
#    0.000    0.000    0.000   12.000    0.000    0.000 
#
# Total GULP energy -743840.119496 kJ/mol
# GULP energy per Si atom -12397.335325 kJ/mol
# Density = 1.421040 g / cm^3
# Si number density = 14.242816 Si / 1000 Ang^3
#
#
#
# Elastic Constant Matrix: (Units=GPa)
#
#
# Indices 1 2 3 4 5 6 
#
# 1 50.7279 37.4804 8.9882 -0.5051 0.0000 0.0000
# 2 37.4804 50.7279 8.9882 0.5051 0.0000 0.0000
# 3 8.9882 8.9882 105.3588 0.0000 0.0000 0.0000
# 4 -0.5051 0.5051 0.0000 10.2407 0.0000 0.0000
# 5 0.0000 0.0000 0.0000 0.0000 10.2407 -0.5051
# 6 0.0000 0.0000 0.0000 0.0000 -0.5051 6.6238
#
#
#
# Elastic Compliance Matrix: (Units=1/GPa)
#
#
# Indices 1 2 3 4 5 6 
#
# 1 0.043654 -0.032117 -0.000984 0.003737 0.000000 0.000000
# 2 -0.032117 0.043654 -0.000984 -0.003737 0.000000 0.000000
# 3 -0.000984 -0.000984 0.009659 0.000000 0.000000 0.000000
# 4 0.003737 -0.003737 0.000000 0.098018 0.000000 0.000000
# 5 0.000000 0.000000 0.000000 0.000000 0.098018 0.007474
# 6 0.000000 0.000000 0.000000 0.000000 0.007474 0.151542
#
#
# Mechanical properties :
#
#
# Convention : Reuss Voigt Hill
#
# Bulk Modulus (GPa) = 34.72577 35.30313 35.01445
# Shear Modulus (GPa) = 9.57278 15.51156 12.54217
#
# Velocity S-wave (km/s) = 2.59533 3.30370 2.97070
# Velocity P-wave (km/s) = 5.78058 6.27639 6.03358
#
# Compressibility (1/GPa) = 0.02879705
#
# Stress axis : x y z
#
# Youngs Moduli (GPa) = 22.90734 22.90734 103.52704
#
# Poissons Ratio (x) = 0.73571 0.10190
# Poissons Ratio (y) = 0.73571 0.10190
# Poissons Ratio (z) = 0.02255 0.02255
#
# Static dielectric constant tensor:
#      x y z
#    x 2.555050 0.000000 0.000000 
#    y 0.000000 2.555050 0.000000 
#    z 0.000000 0.000000 4.815250 
# 
# 
# High freq. dielectric constant tensor:
#      x y z
#    x 1.506290 0.000000 0.000000 
#    y 0.000000 1.506290 0.000000 
#    z 0.000000 0.000000 1.585390 
# 
# From -- ./inp_files/193.got.cif
#   From: 2010.03.12/outbox.cif.g09.slc.cpg/sg165_1_cif.got.tgz:193.got - 2010.04.02 06:36:38.
