data_PCOD8323269
_publ_section_title
;
Structure prediction by ZEFSAII (Michael W. Deem and Ramdas Pophale) SiO2 
 PCOD8323269
Probable space group: P -3 1 C
;
_chemical_formula_sum "Si O2"
_cell_formula_units_Z 52
_cell_length_a 15.018359
_cell_length_b 15.018359
_cell_length_c 14.945669
_cell_angle_alpha 90.000000
_cell_angle_beta 90.000000
_cell_angle_gamma 120.000000
_cell_volume 2919.382192
_symmetry_space_group_name_H-M "P -3 1 C"
_symmetry_group_IT_number 163
_symmetry_cell_setting 'hexagonal'
loop_
_space_group_symop_operation_xyz
x,y,z
-y,x-y,z
-x+y,-x,z
-y,-x,1/2-z
-x+y,y,1/2-z
x,x-y,1/2-z
-x,-y,-z
y,-x+y,-z
x-y,x,-z
y,x,1/2+z
x-y,-y,1/2+z
-x,-x+y,1/2+z
loop_
_atom_site_type_symbol
_atom_site_label
_atom_site_fract_x
_atom_site_fract_y
_atom_site_fract_z
Si Si1 0.198752 0.200952 0.238982
Si Si2 0.661553 0.925387 0.072945
Si Si3 0.543635 0.440862 0.643310
Si Si4 0.938785 0.654735 0.905882
Si Si5 0.666667 0.333334 0.644281
O O1 0.076332 0.152664 0.250000
O O2 0.229826 0.244546 0.140023
O O3 0.258877 0.291970 0.309569
O O4 0.229951 0.114976 0.250000
O O5 0.571609 0.947053 0.105887
O O6 0.627216 0.804579 0.068760
O O7 0.705963 0.977309 0.977388
O O8 0.546798 0.453203 0.750000
O O9 0.604334 0.553045 0.599288
O O10 0.598887 0.379876 0.608588
O O11 0.666668 0.333334 0.750000
#
# Coordination Sequence:
#
# PCOD8323269 Si02
#       5
#    12  12  12  12   4
#     4  10  21  37  56  78 108 144 182 223 269 318
#     4  11  22  36  56  82 112 144 181 225 270 321
#     4  11  19  35  57  84 109 143 178 222 275 316
#     4  11  22  36  56  82 112 144 181 225 270 321
#     4   9  18  27  57  81 114 133 170 232 276 306
#
# _framework density 17.811989000000001
#
# number of rings (size 3 to 8) (size 9 to 14) (size 15 to 20)
#    0.000    1.385    4.615    2.308    0.000    0.000 
#    0.000    0.000    0.000    7.385    0.000    0.000 
#    0.000    0.000    0.000    0.000    0.000    0.000 
#
# Total GULP energy -644803.971257 kJ/mol
# GULP energy per Si atom -12400.076370 kJ/mol
# Density = 1.777145 g / cm^3
# Si number density = 17.811989 Si / 1000 Ang^3
#
#
#
# Elastic Constant Matrix: (Units=GPa)
#
#
# Indices 1 2 3 4 5 6 
#
# 1 73.4938 21.2869 7.4348 0.0001 -0.1255 0.0000
# 2 21.2869 73.4939 7.4349 -0.0001 0.1255 0.0000
# 3 7.4348 7.4349 63.3038 0.0000 0.0000 0.0000
# 4 0.0001 -0.0001 0.0000 23.0034 0.0000 0.1255
# 5 -0.1255 0.1255 0.0000 0.0000 23.0034 0.0001
# 6 0.0000 0.0000 0.0000 0.1255 0.0001 26.1036
#
#
#
# Elastic Compliance Matrix: (Units=1/GPa)
#
#
# Indices 1 2 3 4 5 6 
#
# 1 0.014952 -0.004203 -0.001262 0.000000 0.000104 0.000000
# 2 -0.004203 0.014952 -0.001262 0.000000 -0.000104 0.000000
# 3 -0.001262 -0.001262 0.016093 0.000000 0.000000 0.000000
# 4 0.000000 0.000000 0.000000 0.043473 0.000000 -0.000209
# 5 0.000104 -0.000104 0.000000 0.000000 0.043473 0.000000
# 6 0.000000 0.000000 0.000000 -0.000209 0.000000 0.038310
#
#
# Mechanical properties :
#
#
# Convention : Reuss Voigt Hill
#
# Bulk Modulus (GPa) = 30.73029 31.40052 31.06541
# Shear Modulus (GPa) = 25.56813 26.03108 25.79960
#
# Velocity S-wave (km/s) = 3.79284 3.82702 3.80997
# Velocity P-wave (km/s) = 6.03911 6.09879 6.06902
#
# Compressibility (1/GPa) = 0.03254118
#
# Stress axis : x y z
#
# Youngs Moduli (GPa) = 66.88122 66.88123 62.13743
#
# Poissons Ratio (x) = 0.28111 0.07844
# Poissons Ratio (y) = 0.28111 0.07844
# Poissons Ratio (z) = 0.08443 0.08443
#
# Static dielectric constant tensor:
#      x y z
#    x 3.232900 0.000000 0.000000 
#    y 0.000000 3.232900 0.000000 
#    z 0.000000 0.000000 3.165640 
# 
# 
# High freq. dielectric constant tensor:
#      x y z
#    x 1.688210 0.000000 0.000000 
#    y 0.000000 1.688210 0.000000 
#    z 0.000000 0.000000 1.683680 
# 
# From -- ./inp_files/2298.got.cif
#   From: 2010.03.12/outbox.cif.g09.slc.cpg/sg163_2_cif.got.tgz:2298.got - 2010.04.02 06:30:25.
