data_PCOD8323162
_publ_section_title
;
Structure prediction by ZEFSAII (Michael W. Deem and Ramdas Pophale) SiO2 
 PCOD8323162
Probable space group: P -3 1 M 
;
_chemical_formula_sum "Si O2"
_cell_formula_units_Z 60
_cell_length_a 17.972375
_cell_length_b 17.972375
_cell_length_c 12.178330
_cell_angle_alpha 90.000000
_cell_angle_beta 90.000000
_cell_angle_gamma 120.000000
_cell_volume 3406.664095
_symmetry_space_group_name_H-M "P -3 1 M "
_symmetry_group_IT_number 162
_symmetry_cell_setting 'hexagonal'
loop_
_space_group_symop_operation_xyz
x,y,z
-y,x-y,z
-x+y,-x,z
-y,-x,-z
-x+y,y,-z
x,x-y,-z
-x,-y,-z
y,-x+y,-z
x-y,x,-z
y,x,z
x-y,-y,z
-x,-x+y,z
loop_
_atom_site_type_symbol
_atom_site_label
_atom_site_fract_x
_atom_site_fract_y
_atom_site_fract_z
Si Si1 0.902930 0.805859 0.869257
Si Si2 0.897662 0.363760 0.262899
Si Si3 0.541110 0.906328 0.499999
Si Si4 0.636238 0.533900 0.737102
Si Si5 0.389363 0.194683 0.130067
O O1 0.854078 0.854078 0.823263
O O2 0.854167 0.708339 0.825936
O O3 0.000000 0.854075 0.823263
O O4 0.903795 0.807590 0.000000
O O5 0.860851 0.320777 0.384346
O O6 0.872160 0.436079 0.237356
O O7 0.854639 0.292035 0.170875
O O8 0.000000 0.405287 0.259701
O O9 0.459402 0.918804 0.500000
O O10 0.540072 0.860851 0.384345
O O11 0.625989 0.000000 0.499999
O O12 0.594710 0.594710 0.740299
O O13 0.707962 0.562601 0.829127
O O14 0.392117 0.196059 0.000000
#
# Coordination Sequence:
#
# PCOD8323162 Si02
#       5
#    12  12  12  12  12
#     4   9  17  30  48  69  95 128 167 211 254 291
#     4   9  18  34  54  73  96 128 164 204 254 302
#     4   7  12  27  52  76  93 115 155 207 256 300
#     4   9  18  34  54  73  96 128 164 204 254 302
#     4  11  22  32  45  72 105 137 171 206 238 290
#
# _framework density 17.612537
#
# number of rings (size 3 to 8) (size 9 to 14) (size 15 to 20)
#    0.000    3.000    0.000    3.800    0.000    4.800 
#    1.200    2.000    0.000    0.000    0.000    0.000 
#    0.000    0.000    0.000   15.200    0.000    4.800 
#
# Total GULP energy -743332.891538 kJ/mol
# GULP energy per Si atom -12388.881526 kJ/mol
# Density = 1.757245 g / cm^3
# Si number density = 17.612537 Si / 1000 Ang^3
#
#
#
# Elastic Constant Matrix: (Units=GPa)
#
#
# Indices 1 2 3 4 5 6 
#
# 1 97.3767 58.1015 44.8069 0.0000 -0.0001 0.0000
# 2 58.1015 97.3767 44.8069 0.0000 0.0001 0.0000
# 3 44.8069 44.8069 89.1654 0.0000 0.0000 0.0000
# 4 0.0000 0.0000 0.0000 19.3070 0.0000 0.0001
# 5 -0.0001 0.0001 0.0000 0.0000 19.3070 0.0000
# 6 0.0000 0.0000 0.0000 0.0001 0.0000 19.6376
#
#
#
# Elastic Compliance Matrix: (Units=1/GPa)
#
#
# Indices 1 2 3 4 5 6 
#
# 1 0.017258 -0.008204 -0.004550 0.000000 0.000000 0.000000
# 2 -0.008204 0.017258 -0.004550 0.000000 0.000000 0.000000
# 3 -0.004550 -0.004550 0.015788 0.000000 0.000000 0.000000
# 4 0.000000 0.000000 0.000000 0.051795 0.000000 0.000000
# 5 0.000000 0.000000 0.000000 0.000000 0.051795 0.000000
# 6 0.000000 0.000000 0.000000 0.000000 0.000000 0.050923
#
#
# Mechanical properties :
#
#
# Convention : Reuss Voigt Hill
#
# Bulk Modulus (GPa) = 63.70726 64.37214 64.03970
# Shear Modulus (GPa) = 20.43699 20.73056 20.58378
#
# Velocity S-wave (km/s) = 3.41011 3.43452 3.42233
# Velocity P-wave (km/s) = 7.19411 7.23576 7.21497
#
# Compressibility (1/GPa) = 0.01569680
#
# Stress axis : x y z
#
# Youngs Moduli (GPa) = 57.94498 57.94498 63.33989
#
# Poissons Ratio (x) = 0.47536 0.28819
# Poissons Ratio (y) = 0.47536 0.28819
# Poissons Ratio (z) = 0.26364 0.26364
#
# Static dielectric constant tensor:
#      x y z
#    x 3.139820 0.000000 0.000000 
#    y 0.000000 3.139820 0.000000 
#    z 0.000000 0.000000 3.371780 
# 
# 
# High freq. dielectric constant tensor:
#      x y z
#    x 1.666600 0.000000 0.000000 
#    y 0.000000 1.666600 0.000000 
#    z 0.000000 0.000000 1.669620 
# 
# From -- ./inp_files/2325.got.cif
#   From: 2010.03.12/outbox.cif.g09.slc.cpg/sg162_2_cif.got.tgz:2325.got - 2010.04.02 06:27:41.
