data_PCOD8323996
_publ_section_title
;
Structure prediction by ZEFSAII (Michael W. Deem and Ramdas Pophale) SiO2 
 PCOD8323996
Probable space group: R -3 M
;
_chemical_formula_sum "Si O2"
_cell_formula_units_Z 198
_cell_length_a 21.588884
_cell_length_b 21.588884
_cell_length_c 28.802856
_cell_angle_alpha 90.000000
_cell_angle_beta 90.000000
_cell_angle_gamma 120.000000
_cell_volume 11625.899663
_symmetry_space_group_name_H-M "R -3 M"
_symmetry_group_IT_number 166
_symmetry_cell_setting 'hexagonal'
loop_
_space_group_symop_operation_xyz
x,y,z
-y,x-y,z
-x+y,-x,z
x-y,-y,-z
-x,-x+y,-z
y,x,-z
-x,-y,-z
y,-x+y,-z
x-y,x,-z
-x+y,y,z
x,x-y,z
-y,-x,z
2/3+x,1/3+y,1/3+z
2/3-y,1/3+x-y,1/3+z
2/3-x+y,1/3-x,1/3+z
2/3+x-y,1/3-y,1/3-z
2/3-x,1/3-x+y,1/3-z
2/3+y,1/3+x,1/3-z
2/3-x,1/3-y,1/3-z
2/3+y,1/3-x+y,1/3-z
2/3+x-y,1/3+x,1/3-z
2/3-x+y,1/3+y,1/3+z
2/3+x,1/3+x-y,1/3+z
2/3-y,1/3-x,1/3+z
1/3+x,2/3+y,2/3+z
1/3-y,2/3+x-y,2/3+z
1/3-x+y,2/3-x,2/3+z
1/3+x-y,2/3-y,2/3-z
1/3-x,2/3-x+y,2/3-z
1/3+y,2/3+x,2/3-z
1/3-x,2/3-y,2/3-z
1/3+y,2/3-x+y,2/3-z
1/3+x-y,2/3+x,2/3-z
1/3-x+y,2/3+y,2/3+z
1/3+x,2/3+x-y,2/3+z
1/3-y,2/3-x,2/3+z
loop_
_atom_site_type_symbol
_atom_site_label
_atom_site_fract_x
_atom_site_fract_y
_atom_site_fract_z
Si Si1 0.038847 0.448526 0.342374
Si Si2 0.862076 0.360651 0.529514
Si Si3 0.475131 0.668445 0.373468
Si Si4 0.858408 0.000859 0.903893
Si Si5 0.025903 0.333334 0.833334
Si Si6 0.274898 0.291346 0.071688
O O1 0.021842 0.510921 0.355433
O O2 0.123949 0.479345 0.341379
O O3 0.009695 0.419522 0.291087
O O4 0.004213 0.387483 0.381132
O O5 0.880038 0.440019 0.540702
O O6 0.822489 0.313776 0.574585
O O7 0.811394 0.327486 0.485028
O O8 0.938915 0.369765 0.522319
O O9 0.482034 0.741017 0.352814
O O10 0.391929 0.608072 0.374453
O O11 0.933895 0.066106 0.921153
O O12 0.794432 0.007168 0.927072
O O13 0.852460 0.926230 0.919418
O O14 0.005469 0.367508 0.789726
#
# Coordination Sequence:
#
# PCOD8323996 Si02
#       6
#    36  36  36  36  18  36
#     4  10  20  35  53  73 101 135 170 211 257 306
#     4   9  17  27  45  71 100 132 165 206 249 299
#     4  10  19  32  51  75 102 129 160 200 256 318
#     4  10  19  30  46  70 102 137 172 211 252 295
#     4  10  17  30  50  72 102 130 177 216 252 294
#     4  10  20  33  52  74  98 133 178 218 254 296
#
# _framework density 17.030940999999999
#
# number of rings (size 3 to 8) (size 9 to 14) (size 15 to 20)
#    0.000    2.182    1.818    2.273    0.000    1.455 
#    0.000    3.636    0.000    0.000    0.000    6.364 
#    0.000    0.000    0.000    5.545    0.000    0.000 
#
# Total GULP energy -818107.739989 kJ/mol
# GULP energy per Si atom -12395.571818 kJ/mol
# Density = 1.699218 g / cm^3
# Si number density = 17.030941 Si / 1000 Ang^3
#
#
#
# Elastic Constant Matrix: (Units=GPa)
#
#
# Indices 1 2 3 4 5 6 
#
# 1 151.1351 -16.1795 29.9388 -15.7075 0.0014 0.0000
# 2 -16.1795 151.1351 29.9388 15.7075 -0.0014 0.0000
# 3 29.9388 29.9388 80.0440 0.0000 0.0000 0.0000
# 4 -15.7075 15.7075 0.0000 26.8082 0.0000 -0.0014
# 5 0.0014 -0.0014 0.0000 0.0000 26.8082 -15.7075
# 6 0.0000 0.0000 0.0000 -0.0014 -15.7075 83.6573
#
#
#
# Elastic Compliance Matrix: (Units=1/GPa)
#
#
# Indices 1 2 3 4 5 6 
#
# 1 0.007800 0.001084 -0.003323 0.003935 0.000000 0.000000
# 2 0.001084 0.007800 -0.003323 -0.003935 0.000000 0.000000
# 3 -0.003323 -0.003323 0.014979 0.000000 0.000000 0.000000
# 4 0.003935 -0.003935 0.000000 0.041913 0.000000 0.000001
# 5 0.000000 0.000000 0.000000 0.000000 0.041913 0.007870
# 6 0.000000 0.000000 0.000000 0.000001 0.007870 0.013431
#
#
# Mechanical properties :
#
#
# Convention : Reuss Voigt Hill
#
# Bulk Modulus (GPa) = 51.39941 52.19003 51.79472
# Shear Modulus (GPa) = 34.37748 50.02915 42.20332
#
# Velocity S-wave (km/s) = 4.49768 5.42579 4.98339
# Velocity P-wave (km/s) = 7.56424 8.36439 7.97436
#
# Compressibility (1/GPa) = 0.01945548
#
# Stress axis : x y z
#
# Youngs Moduli (GPa) = 128.20725 128.20725 66.76066
#
# Poissons Ratio (x) = -0.13902 0.22184
# Poissons Ratio (y) = -0.13902 0.22184
# Poissons Ratio (z) = 0.42603 0.42603
#
# Static dielectric constant tensor:
#      x y z
#    x 3.093720 0.000000 0.000000 
#    y 0.000000 3.093720 0.000000 
#    z 0.000000 0.000000 3.259890 
# 
# 
# High freq. dielectric constant tensor:
#      x y z
#    x 1.646020 0.000000 0.000000 
#    y 0.000000 1.646020 0.000000 
#    z 0.000000 0.000000 1.645990 
# 
# From -- ./inp_files/10639.got.cif
#   From: 2010.03.12/outbox.cif.g09.slc.cpg/sg166_6_cif.got.tgz:10639.got - 2010.04.02 06:38:31.
