data_PCOD8323806
_publ_section_title
;
Structure prediction by ZEFSAII (Michael W. Deem and Ramdas Pophale) SiO2 
 PCOD8323806
Probable space group: P -3 M 1
;
_chemical_formula_sum "Si O2"
_cell_formula_units_Z 84
_cell_length_a 26.883254
_cell_length_b 26.883254
_cell_length_c 6.713627
_cell_angle_alpha 90.000000
_cell_angle_beta 90.000000
_cell_angle_gamma 120.000000
_cell_volume 4201.956104
_symmetry_space_group_name_H-M "P -3 M 1"
_symmetry_group_IT_number 164
_symmetry_cell_setting 'hexagonal'
loop_
_space_group_symop_operation_xyz
x,y,z
-y,x-y,z
-x+y,-x,z
x-y,-y,-z
-x,-x+y,-z
y,x,-z
-x,-y,-z
y,-x+y,-z
x-y,x,-z
-x+y,y,z
x,x-y,z
-y,-x,z
loop_
_atom_site_type_symbol
_atom_site_label
_atom_site_fract_x
_atom_site_fract_y
_atom_site_fract_z
Si Si1 0.883302 0.499378 0.460219
Si Si2 0.551305 0.332087 0.158293
Si Si3 0.633185 0.045256 0.157040
Si Si4 0.539098 0.685645 0.139082
Si Si5 0.046633 0.735621 0.650582
Si Si6 0.118636 0.345525 0.295067
Si Si7 0.248289 0.065329 0.008783
O O1 0.891012 0.445506 0.498948
O O2 0.941640 0.546918 0.348613
O O3 0.879346 0.523017 0.674103
O O4 0.825820 0.482070 0.334573
O O5 0.561271 0.280636 0.230068
O O6 0.611723 0.388278 0.112397
O O7 0.515936 0.313003 0.949159
O O8 0.676520 0.022733 0.225108
O O9 0.666169 0.104370 0.045069
O O10 0.587177 0.000000 0.000000
O O11 0.592718 0.747701 0.190334
O O12 0.095924 0.739589 0.502856
O O13 0.000000 0.735349 0.500000
O O14 0.072597 0.793050 0.780939
O O15 0.160970 0.321940 0.344048
O O16 0.069762 0.294677 0.156673
O O17 0.230720 0.115360 0.990132
O O18 0.192861 0.000000 0.000000
#
# Coordination Sequence:
#
# PCOD8323806 Si02
#       7
#    12  12  12  12  12  12  12
#     4  10  23  41  59  80 112 154 198 256 310 366
#     4  10  22  40  62  86 114 150 197 255 318 381
#     4  11  23  37  59  86 117 156 201 248 302 362
#     4  11  21  40  58  86 119 153 197 246 305 371
#     4  12  21  37  60  88 124 160 203 243 299 359
#     4  11  22  35  57  87 120 158 197 242 299 360
#     4  11  23  41  62  94 131 167 210 255 300 353
#
# _framework density 19.990689
#
# number of rings (size 3 to 8) (size 9 to 14) (size 15 to 20)
#    0.000    1.143    4.286    2.714    0.000    2.000 
#    0.000    0.714    0.000    1.857    0.000    0.000 
#    0.000    0.571    0.000    0.000    0.000    0.000 
#
# Total GULP energy -1040942.130405 kJ/mol
# GULP energy per Si atom -12392.168219 kJ/mol
# Density = 1.994519 g / cm^3
# Si number density = 19.990689 Si / 1000 Ang^3
#
#
#
# Elastic Constant Matrix: (Units=GPa)
#
#
# Indices 1 2 3 4 5 6 
#
# 1 69.5114 32.4322 18.7474 0.6388 0.0000 0.0000
# 2 32.4322 69.5114 18.7474 -0.6388 0.0000 0.0000
# 3 18.7474 18.7474 90.0236 0.0000 0.0000 0.0000
# 4 0.6388 -0.6388 0.0000 26.4528 0.0000 0.0000
# 5 0.0000 0.0000 0.0000 0.0000 26.4528 0.6388
# 6 0.0000 0.0000 0.0000 0.0000 0.6388 18.5396
#
#
#
# Elastic Compliance Matrix: (Units=1/GPa)
#
#
# Indices 1 2 3 4 5 6 
#
# 1 0.018807 -0.008184 -0.002212 -0.000652 0.000000 0.000000
# 2 -0.008184 0.018807 -0.002212 0.000652 0.000000 0.000000
# 3 -0.002212 -0.002212 0.012030 0.000000 0.000000 0.000000
# 4 -0.000652 0.000652 0.000000 0.037835 0.000000 0.000000
# 5 0.000000 0.000000 0.000000 0.000000 0.037835 -0.001304
# 6 0.000000 0.000000 0.000000 0.000000 -0.001304 0.053983
#
#
# Mechanical properties :
#
#
# Convention : Reuss Voigt Hill
#
# Bulk Modulus (GPa) = 40.93887 40.98891 40.96389
# Shear Modulus (GPa) = 23.51203 24.89701 24.20452
#
# Velocity S-wave (km/s) = 3.43322 3.53289 3.48342
# Velocity P-wave (km/s) = 6.01992 6.09838 6.05928
#
# Compressibility (1/GPa) = 0.02442666
#
# Stress axis : x y z
#
# Youngs Moduli (GPa) = 53.17064 53.17064 83.12838
#
# Poissons Ratio (x) = 0.43517 0.18390
# Poissons Ratio (y) = 0.43517 0.18390
# Poissons Ratio (z) = 0.11763 0.11763
#
# Static dielectric constant tensor:
#      x y z
#    x 3.558000 0.000000 0.000000 
#    y 0.000000 3.558000 0.000000 
#    z 0.000000 0.000000 3.889180 
# 
# 
# High freq. dielectric constant tensor:
#      x y z
#    x 1.765550 0.000000 0.000000 
#    y 0.000000 1.765550 0.000000 
#    z 0.000000 0.000000 1.796810 
# 
# From -- ./inp_files/840.got.cif
#   From: 2010.03.12/outbox.cif.g09.slc.cpg/sg164_1_cif.got.tgz:840.got - 2010.04.02 06:32:59.
