data_PCOD8323678
_publ_section_title
;
Structure prediction by ZEFSAII (Michael W. Deem and Ramdas Pophale) SiO2 
 PCOD8323678
Probable space group: P -3 M 1
;
_chemical_formula_sum "Si O2"
_cell_formula_units_Z 72
_cell_length_a 12.449847
_cell_length_b 12.449847
_cell_length_c 31.069936
_cell_angle_alpha 90.000000
_cell_angle_beta 90.000000
_cell_angle_gamma 120.000000
_cell_volume 4170.604610
_symmetry_space_group_name_H-M "P -3 M 1"
_symmetry_group_IT_number 164
_symmetry_cell_setting 'hexagonal'
loop_
_space_group_symop_operation_xyz
x,y,z
-y,x-y,z
-x+y,-x,z
x-y,-y,-z
-x,-x+y,-z
y,x,-z
-x,-y,-z
y,-x+y,-z
x-y,x,-z
-x+y,y,z
x,x-y,z
-y,-x,z
loop_
_atom_site_type_symbol
_atom_site_label
_atom_site_fract_x
_atom_site_fract_y
_atom_site_fract_z
Si Si1 0.415022 0.081930 0.163562
Si Si2 0.748334 0.747169 0.407036
Si Si3 0.585483 0.918841 0.081792
Si Si4 0.916619 0.332601 0.326934
Si Si5 0.000000 0.752989 0.500000
Si Si6 0.252375 0.252375 0.000000
Si Si7 0.750634 0.749090 0.245559
O O1 0.552692 0.105384 0.166778
O O2 0.424330 0.212165 0.154684
O O3 0.345518 0.020556 0.207666
O O4 0.338216 0.990643 0.125038
O O5 0.737738 0.868869 0.398970
O O6 0.664799 0.643391 0.372576
O O7 0.695326 0.683026 0.454533
O O8 0.892446 0.784891 0.402383
O O9 0.453707 0.907414 0.075461
O O10 0.564731 0.782366 0.084578
O O11 0.670224 0.994623 0.041781
O O12 0.926381 0.463191 0.318833
O O13 0.772788 0.227213 0.325616
O O14 0.993355 0.309484 0.290451
O O15 0.886614 0.773227 0.508289
O O16 0.236023 0.118012 0.004044
O O17 0.895057 0.790114 0.243772
O O18 0.737761 0.868881 0.240317
#
# Coordination Sequence:
#
# PCOD8323678 Si02
#       7
#    12  12  12  12   6   6  12
#     4  10  20  34  53  76 102 132 165 200 236 277
#     4   9  16  27  46  71  97 122 150 189 237 286
#     4  10  20  34  52  74 101 133 168 205 246 292
#     4  10  20  33  49  68  92 124 161 199 236 276
#     4   8  13  22  39  66  96 122 148 182 230 284
#     4  10  20  34  52  74 100 130 166 208 254 300
#     4  10  20  34  53  76 100 124 152 191 239 288
#
# _framework density 17.263684999999999
#
# number of rings (size 3 to 8) (size 9 to 14) (size 15 to 20)
#    0.000    2.333    0.000    3.250    0.000    1.333 
#    0.000    3.750    0.000   17.667    0.000    0.000 
#    0.000    0.000    0.000    0.000    0.000    0.000 
#
# Total GULP energy -892638.313730 kJ/mol
# GULP energy per Si atom -12397.754357 kJ/mol
# Density = 1.722439 g / cm^3
# Si number density = 17.263685 Si / 1000 Ang^3
#
#
#
# Elastic Constant Matrix: (Units=GPa)
#
#
# Indices 1 2 3 4 5 6 
#
# 1 47.7089 30.4322 29.2562 -0.1496 0.0000 0.0000
# 2 30.4322 47.7089 29.2562 0.1496 0.0000 0.0000
# 3 29.2562 29.2562 119.3625 0.0000 0.0000 0.0000
# 4 -0.1496 0.1496 0.0000 23.8986 0.0000 0.0000
# 5 0.0000 0.0000 0.0000 0.0000 23.8986 -0.1496
# 6 0.0000 0.0000 0.0000 0.0000 -0.1496 8.6384
#
#
#
# Elastic Compliance Matrix: (Units=1/GPa)
#
#
# Indices 1 2 3 4 5 6 
#
# 1 0.036781 -0.021107 -0.003842 0.000362 0.000000 0.000000
# 2 -0.021107 0.036781 -0.003842 -0.000362 0.000000 0.000000
# 3 -0.003842 -0.003842 0.010261 0.000000 0.000000 0.000000
# 4 0.000362 -0.000362 0.000000 0.041848 0.000000 0.000000
# 5 0.000000 0.000000 0.000000 0.000000 0.041848 0.000725
# 6 0.000000 0.000000 0.000000 0.000000 0.000725 0.115775
#
#
# Mechanical properties :
#
#
# Convention : Reuss Voigt Hill
#
# Bulk Modulus (GPa) = 38.10658 43.62996 40.86827
# Shear Modulus (GPa) = 14.30117 19.67616 16.98866
#
# Velocity S-wave (km/s) = 2.88131 3.37967 3.14039
# Velocity P-wave (km/s) = 5.76111 6.36845 6.07238
#
# Compressibility (1/GPa) = 0.02624218
#
# Stress axis : x y z
#
# Youngs Moduli (GPa) = 27.18808 27.18808 97.45525
#
# Poissons Ratio (x) = 0.57385 0.37440
# Poissons Ratio (y) = 0.57385 0.37440
# Poissons Ratio (z) = 0.10445 0.10445
#
# Static dielectric constant tensor:
#      x y z
#    x 3.058290 0.000000 0.000000 
#    y 0.000000 3.058290 0.000000 
#    z 0.000000 0.000000 3.524800 
# 
# 
# High freq. dielectric constant tensor:
#      x y z
#    x 1.656830 0.000000 0.000000 
#    y 0.000000 1.656830 0.000000 
#    z 0.000000 0.000000 1.692250 
# 
# From -- ./inp_files/5581.got.cif
#   From: 2010.03.12/outbox.cif.g09.slc.cpg/sg164_3_cif.got.tgz:5581.got - 2010.04.02 06:32:59.
