data_PCOD8323287
_publ_section_title
;
Structure prediction by ZEFSAII (Michael W. Deem and Ramdas Pophale) SiO2 
 PCOD8323287
Probable space group: P -3 1 C
;
_chemical_formula_sum "Si O2"
_cell_formula_units_Z 84
_cell_length_a 17.993136
_cell_length_b 17.993136
_cell_length_c 14.459547
_cell_angle_alpha 90.000000
_cell_angle_beta 90.000000
_cell_angle_gamma 120.000000
_cell_volume 4054.142820
_symmetry_space_group_name_H-M "P -3 1 C"
_symmetry_group_IT_number 163
_symmetry_cell_setting 'hexagonal'
loop_
_space_group_symop_operation_xyz
x,y,z
-y,x-y,z
-x+y,-x,z
-y,-x,1/2-z
-x+y,y,1/2-z
x,x-y,1/2-z
-x,-y,-z
y,-x+y,-z
x-y,x,-z
y,x,1/2+z
x-y,-y,1/2+z
-x,-x+y,1/2+z
loop_
_atom_site_type_symbol
_atom_site_label
_atom_site_fract_x
_atom_site_fract_y
_atom_site_fract_z
Si Si1 0.691378 0.884995 0.156996
Si Si2 0.058010 0.348783 0.805598
Si Si3 0.027945 0.494469 0.856127
Si Si4 0.741312 0.211804 0.548784
Si Si5 0.806487 0.920852 0.995184
Si Si6 0.350448 0.220187 0.381423
Si Si7 0.862507 0.449135 0.967606
O O1 0.715324 0.857662 0.250000
O O2 0.588765 0.828487 0.139450
O O3 0.739499 0.865836 0.075314
O O4 0.733394 0.987188 0.165854
O O5 0.020257 0.402169 0.855279
O O6 0.071128 0.363354 0.694353
O O7 0.150131 0.372809 0.843918
O O8 0.051546 0.525773 0.750000
O O9 0.939899 0.488020 0.892392
O O10 0.103636 0.551447 0.928640
O O11 0.733087 0.148922 0.464658
O O12 0.649074 0.205212 0.559139
O O13 0.814936 0.310401 0.535914
O O14 0.858278 0.873387 0.968334
O O15 0.749844 0.922717 0.909777
#
# Coordination Sequence:
#
# PCOD8323287 Si02
#       7
#    12  12  12  12  12  12  12
#     4  11  24  40  63  93 124 164 216 265 319 381
#     4  11  20  42  64  91 125 155 219 260 316 383
#     4  11  24  42  65  95 126 167 216 270 325 389
#     4  11  23  42  63  93 128 167 211 262 327 391
#     4  11  22  40  60  90 127 168 211 259 324 384
#     4  10  22  38  68  91 122 168 208 272 319 377
#     4  11  24  42  65  93 131 169 215 265 330 393
#
# _framework density 20.719546000000001
#
# number of rings (size 3 to 8) (size 9 to 14) (size 15 to 20)
#    0.000    1.143    4.286    2.143    2.000    0.000 
#    2.571    0.000    0.000    1.714    0.000    0.000 
#    0.000    0.000    0.000    0.000    0.000    0.000 
#
# Total GULP energy -1041351.040721 kJ/mol
# GULP energy per Si atom -12397.036199 kJ/mol
# Density = 2.067239 g / cm^3
# Si number density = 20.719546 Si / 1000 Ang^3
#
#
#
# Elastic Constant Matrix: (Units=GPa)
#
#
# Indices 1 2 3 4 5 6 
#
# 1 79.9774 29.0033 10.3742 0.0003 4.4979 0.0000
# 2 29.0033 79.9774 10.3742 -0.0003 -4.4979 0.0000
# 3 10.3742 10.3742 80.2360 0.0000 0.0000 0.0000
# 4 0.0003 -0.0003 0.0000 20.9058 0.0000 -4.4979
# 5 4.4979 -4.4979 0.0000 0.0000 20.9058 0.0003
# 6 0.0000 0.0000 0.0000 -4.4979 0.0003 25.4871
#
#
#
# Elastic Compliance Matrix: (Units=1/GPa)
#
#
# Indices 1 2 3 4 5 6 
#
# 1 0.014900 -0.005492 -0.001216 0.000000 -0.004387 0.000000
# 2 -0.005492 0.014900 -0.001216 0.000000 0.004387 0.000000
# 3 -0.001216 -0.001216 0.012778 0.000000 0.000000 0.000000
# 4 0.000000 0.000000 0.000000 0.049722 0.000000 0.008775
# 5 -0.004387 0.004387 0.000000 0.000000 0.049722 -0.000001
# 6 0.000000 0.000000 0.000000 0.008775 -0.000001 0.040784
#
#
# Mechanical properties :
#
#
# Convention : Reuss Voigt Hill
#
# Bulk Modulus (GPa) = 37.41480 37.74379 37.57930
# Shear Modulus (GPa) = 24.08901 26.15567 25.12234
#
# Velocity S-wave (km/s) = 3.41342 3.55683 3.48587
# Velocity P-wave (km/s) = 5.79933 5.92656 5.86329
#
# Compressibility (1/GPa) = 0.02672739
#
# Stress axis : x y z
#
# Youngs Moduli (GPa) = 67.11509 67.11509 78.26088
#
# Poissons Ratio (x) = 0.36861 0.09519
# Poissons Ratio (y) = 0.36861 0.09519
# Poissons Ratio (z) = 0.08164 0.08164
#
# Static dielectric constant tensor:
#      x y z
#    x 3.678510 0.000000 0.000000 
#    y 0.000000 3.678510 0.000000 
#    z 0.000000 0.000000 3.817130 
# 
# 
# High freq. dielectric constant tensor:
#      x y z
#    x 1.808870 0.000000 0.000000 
#    y 0.000000 1.808870 0.000000 
#    z 0.000000 0.000000 1.811560 
# 
# From -- ./inp_files/2668.got.cif
#   From: 2010.03.12/outbox.cif.g09.slc.cpg/sg163_2_cif.got.tgz:2668.got - 2010.04.02 06:30:25.
