data_PCOD8323613
_publ_section_title
;
Structure prediction by ZEFSAII (Michael W. Deem and Ramdas Pophale) SiO2 
 PCOD8323613
Probable space group: P -3 M 1
;
_chemical_formula_sum "Si O2"
_cell_formula_units_Z 66
_cell_length_a 13.326746
_cell_length_b 13.326746
_cell_length_c 27.119021
_cell_angle_alpha 90.000000
_cell_angle_beta 90.000000
_cell_angle_gamma 120.000000
_cell_volume 4171.121878
_symmetry_space_group_name_H-M "P -3 M 1"
_symmetry_group_IT_number 164
_symmetry_cell_setting 'hexagonal'
loop_
_space_group_symop_operation_xyz
x,y,z
-y,x-y,z
-x+y,-x,z
x-y,-y,-z
-x,-x+y,-z
y,x,-z
-x,-y,-z
y,-x+y,-z
x-y,x,-z
-x+y,y,z
x,x-y,z
-y,-x,z
loop_
_atom_site_type_symbol
_atom_site_label
_atom_site_fract_x
_atom_site_fract_y
_atom_site_fract_z
Si Si1 0.000000 0.237309 0.000000
Si Si2 0.666245 0.101594 0.627292
Si Si3 0.436480 0.333535 0.190035
Si Si4 0.999588 0.768324 0.443690
Si Si5 0.435962 0.333436 0.076625
Si Si6 0.897901 0.332905 0.739852
O O1 0.019406 0.319654 0.953370
O O2 0.111433 0.222865 0.010055
O O3 0.546937 0.093874 0.612778
O O4 0.767084 0.232917 0.618743
O O5 0.666591 0.063515 0.683578
O O6 0.680528 0.013907 0.591759
O O7 0.424695 0.212348 0.204024
O O8 0.567311 0.432690 0.201309
O O9 0.404803 0.338735 0.133336
O O10 0.346612 0.347381 0.224332
O O11 0.880230 0.760460 0.429148
O O12 0.000000 0.730497 0.500000
O O13 0.100373 0.899628 0.435040
O O14 0.474187 0.237094 0.068962
O O15 0.543069 0.456932 0.059264
O O16 0.867424 0.433712 0.748440
O O17 0.786310 0.213691 0.754315
#
# Coordination Sequence:
#
# PCOD8323613 Si02
#       6
#     6  12  12  12  12  12
#     4  10  20  32  46  64  88 118 148 176 208 250
#     4   9  17  29  45  64  85 111 143 177 212 249
#     4   9  17  29  46  67  89 113 141 174 213 255
#     4   9  17  29  45  64  85 110 140 174 212 253
#     4   9  17  30  48  68  88 111 141 178 217 254
#     4   9  17  29  45  64  86 113 144 177 211 248
#
# _framework density 15.823081
#
# number of rings (size 3 to 8) (size 9 to 14) (size 15 to 20)
#    0.000    2.909    0.000    1.273    0.000    5.455 
#    0.000    0.000    0.000    1.091    0.000    0.000 
#    0.000    0.000    0.000    0.000    0.000    0.000 
#
# Total GULP energy -818440.387113 kJ/mol
# GULP energy per Si atom -12400.611926 kJ/mol
# Density = 1.578707 g / cm^3
# Si number density = 15.823081 Si / 1000 Ang^3
#
#
#
# Elastic Constant Matrix: (Units=GPa)
#
#
# Indices 1 2 3 4 5 6 
#
# 1 113.0031 66.1450 67.9663 4.3302 0.0000 0.0000
# 2 66.1450 113.0031 67.9663 -4.3302 0.0000 0.0000
# 3 67.9663 67.9663 90.1006 0.0000 0.0000 0.0000
# 4 4.3302 -4.3302 0.0000 27.7131 0.0000 0.0000
# 5 0.0000 0.0000 0.0000 0.0000 27.7131 4.3302
# 6 0.0000 0.0000 0.0000 0.0000 4.3302 23.4290
#
#
#
# Elastic Compliance Matrix: (Units=1/GPa)
#
#
# Indices 1 2 3 4 5 6 
#
# 1 0.017514 -0.004461 -0.009847 -0.003434 0.000000 0.000000
# 2 -0.004461 0.017514 -0.009847 0.003434 0.000000 0.000000
# 3 -0.009847 -0.009847 0.025954 0.000000 0.000000 0.000000
# 4 -0.003434 0.003434 0.000000 0.037157 0.000000 0.000000
# 5 0.000000 0.000000 0.000000 0.000000 0.037157 -0.006867
# 6 0.000000 0.000000 0.000000 0.000000 -0.006867 0.043951
#
#
# Mechanical properties :
#
#
# Convention : Reuss Voigt Hill
#
# Bulk Modulus (GPa) = 78.90023 80.02911 79.46467
# Shear Modulus (GPa) = 21.57200 23.37300 22.47250
#
# Velocity S-wave (km/s) = 3.69633 3.84754 3.77269
# Velocity P-wave (km/s) = 8.25769 8.39198 8.32510
#
# Compressibility (1/GPa) = 0.01267423
#
# Stress axis : x y z
#
# Youngs Moduli (GPa) = 57.09558 57.09558 38.52958
#
# Poissons Ratio (x) = 0.25471 0.37939
# Poissons Ratio (y) = 0.25471 0.37939
# Poissons Ratio (z) = 0.56220 0.56220
#
# Static dielectric constant tensor:
#      x y z
#    x 2.951390 0.000000 0.000000 
#    y 0.000000 2.951390 0.000000 
#    z 0.000000 0.000000 3.068580 
# 
# 
# High freq. dielectric constant tensor:
#      x y z
#    x 1.602860 0.000000 0.000000 
#    y 0.000000 1.602860 0.000000 
#    z 0.000000 0.000000 1.609150 
# 
# From -- ./inp_files/4009.got.cif
#   From: 2010.03.12/outbox.cif.g09.slc.cpg/sg164_3_cif.got.tgz:4009.got - 2010.04.02 06:32:59.
