data_PCOD8323895
_publ_section_title
;
Structure prediction by ZEFSAII (Michael W. Deem and Ramdas Pophale) SiO2 
 PCOD8323895
Probable space group: P -3 C 1
;
_chemical_formula_sum "Si O2"
_cell_formula_units_Z 76
_cell_length_a 16.258057
_cell_length_b 16.258057
_cell_length_c 16.440635
_cell_angle_alpha 90.000000
_cell_angle_beta 90.000000
_cell_angle_gamma 120.000000
_cell_volume 3763.453055
_symmetry_space_group_name_H-M "P -3 C 1"
_symmetry_group_IT_number 165
_symmetry_cell_setting 'hexagonal'
loop_
_space_group_symop_operation_xyz
x,y,z
-y,x-y,z
-x+y,-x,z
x-y,-y,1/2-z
-x,-x+y,1/2-z
y,x,1/2-z
-x,-y,-z
y,-x+y,-z
x-y,x,-z
-x+y,y,1/2+z
x,x-y,1/2+z
-y,-x,1/2+z
loop_
_atom_site_type_symbol
_atom_site_label
_atom_site_fract_x
_atom_site_fract_y
_atom_site_fract_z
Si Si1 0.549553 0.936739 0.429301
Si Si2 0.000000 0.000000 0.597604
Si Si3 0.765787 0.546009 0.369357
Si Si4 0.940932 0.235826 0.466682
Si Si5 0.118879 0.903424 0.388088
Si Si6 0.634329 0.739559 0.783577
Si Si7 0.428775 0.867507 0.577867
O O1 0.641563 0.977411 0.488153
O O2 0.560623 0.877212 0.356465
O O3 0.457508 0.867579 0.483177
O O4 0.543594 0.026239 0.394938
O O5 0.954491 0.894826 0.634630
O O6 0.000000 0.000000 0.500000
O O7 0.800279 0.641184 0.421445
O O8 0.813659 0.574296 0.281364
O O9 0.795996 0.478588 0.415802
O O10 0.651341 0.487022 0.362405
O O11 0.927002 0.155435 0.530055
O O12 0.019613 0.248866 0.401358
O O13 0.114787 0.837632 0.313914
O O14 0.672805 0.672805 0.750000
#
# Coordination Sequence:
#
# PCOD8323895 Si02
#       7
#    12   4  12  12  12  12  12
#     4   9  20  40  67  93 119 166 214 263 318 390
#     4  12  21  33  58  92 124 174 217 278 313 348
#     4  11  23  40  66  94 127 166 204 269 341 390
#     4  10  20  37  64  90 124 168 220 266 309 384
#     4  11  22  37  59  90 126 171 227 264 310 378
#     4  11  24  41  62  90 130 174 210 269 335 383
#     4  10  20  40  66  93 120 160 217 260 321 396
#
# _framework density 20.194220999999999
#
# number of rings (size 3 to 8) (size 9 to 14) (size 15 to 20)
#    0.000    1.579    3.158    1.263    4.421    0.632 
#    0.000   12.632    0.000    0.000    0.000    0.000 
#    0.000    0.000    0.000    0.000    0.000    0.000 
#
# Total GULP energy -942627.700802 kJ/mol
# GULP energy per Si atom -12402.996063 kJ/mol
# Density = 2.014826 g / cm^3
# Si number density = 20.194221 Si / 1000 Ang^3
#
#
#
# Elastic Constant Matrix: (Units=GPa)
#
#
# Indices 1 2 3 4 5 6 
#
# 1 125.0955 54.9632 58.0881 -6.9348 0.0000 0.0000
# 2 54.9632 125.0955 58.0881 6.9348 0.0000 0.0000
# 3 58.0881 58.0881 95.1929 0.0000 0.0000 0.0000
# 4 -6.9348 6.9348 0.0000 32.6312 0.0000 0.0000
# 5 0.0000 0.0000 0.0000 0.0000 32.6312 -6.9348
# 6 0.0000 0.0000 0.0000 0.0000 -6.9348 35.0661
#
#
#
# Elastic Compliance Matrix: (Units=1/GPa)
#
#
# Indices 1 2 3 4 5 6 
#
# 1 0.012022 -0.002862 -0.005590 0.003163 0.000000 0.000000
# 2 -0.002862 0.012022 -0.005590 -0.003163 0.000000 0.000000
# 3 -0.005590 -0.005590 0.017327 0.000000 0.000000 0.000000
# 4 0.003163 -0.003163 0.000000 0.031990 0.000000 0.000000
# 5 0.000000 0.000000 0.000000 0.000000 0.031990 0.006326
# 6 0.000000 0.000000 0.000000 0.000000 0.006326 0.029769
#
#
# Mechanical properties :
#
#
# Convention : Reuss Voigt Hill
#
# Bulk Modulus (GPa) = 75.25310 76.40699 75.83004
# Shear Modulus (GPa) = 29.82707 31.68199 30.75453
#
# Velocity S-wave (km/s) = 3.84736 3.96519 3.90672
# Velocity P-wave (km/s) = 7.55525 7.67345 7.61458
#
# Compressibility (1/GPa) = 0.01328849
#
# Stress axis : x y z
#
# Youngs Moduli (GPa) = 83.17850 83.17850 57.71368
#
# Poissons Ratio (x) = 0.23806 0.32261
# Poissons Ratio (y) = 0.23806 0.32261
# Poissons Ratio (z) = 0.46495 0.46495
#
# Static dielectric constant tensor:
#      x y z
#    x 3.762240 0.000000 0.000000 
#    y 0.000000 3.762240 0.000000 
#    z 0.000000 0.000000 3.503380 
# 
# 
# High freq. dielectric constant tensor:
#      x y z
#    x 1.794210 0.000000 0.000000 
#    y 0.000000 1.794210 0.000000 
#    z 0.000000 0.000000 1.768120 
# 
# From -- ./inp_files/1842.got.cif
#   From: 2010.03.12/outbox.cif.g09.slc.cpg/sg165_1_cif.got.tgz:1842.got - 2010.04.02 06:36:38.
