data_PCOD8323505
_publ_section_title
;
Structure prediction by ZEFSAII (Michael W. Deem and Ramdas Pophale) SiO2 
 PCOD8323505
Probable space group: P -3 M 1
;
_chemical_formula_sum "Si O2"
_cell_formula_units_Z 96
_cell_length_a 17.342933
_cell_length_b 17.342933
_cell_length_c 22.789803
_cell_angle_alpha 90.000000
_cell_angle_beta 90.000000
_cell_angle_gamma 120.000000
_cell_volume 5936.306217
_symmetry_space_group_name_H-M "P -3 M 1"
_symmetry_group_IT_number 164
_symmetry_cell_setting 'hexagonal'
loop_
_space_group_symop_operation_xyz
x,y,z
-y,x-y,z
-x+y,-x,z
x-y,-y,-z
-x,-x+y,-z
y,x,-z
-x,-y,-z
y,-x+y,-z
x-y,x,-z
-x+y,y,z
x,x-y,z
-y,-x,z
loop_
_atom_site_type_symbol
_atom_site_label
_atom_site_fract_x
_atom_site_fract_y
_atom_site_fract_z
Si Si1 0.760729 0.057127 0.172285
Si Si2 0.646056 0.738363 0.339002
Si Si3 0.155905 0.666074 0.572969
Si Si4 0.179770 0.000286 0.933956
Si Si5 0.666782 0.510483 0.559270
Si Si6 0.823630 0.821699 0.717087
Si Si7 0.561039 0.610826 0.683990
Si Si8 0.334005 0.488863 0.795898
O O1 0.849386 0.150615 0.174286
O O2 0.679710 0.078474 0.172945
O O3 0.752789 0.006529 0.111371
O O4 0.765055 0.000959 0.227254
O O5 0.616715 0.808358 0.314566
O O6 0.599317 0.700778 0.401878
O O7 0.754693 0.789481 0.339308
O O8 0.616945 0.653669 0.296618
O O9 0.185203 0.592602 0.584300
O O10 0.238480 0.761521 0.585941
O O11 0.119647 0.657939 0.506878
O O12 0.078649 0.650842 0.618518
O O13 0.178459 0.089230 0.919739
O O14 0.079881 0.920120 0.924932
O O15 0.213391 0.000000 0.000000
O O16 0.738256 0.476512 0.560694
O O17 0.571404 0.428597 0.580975
O O18 0.926630 0.853261 0.730850
O O19 0.813877 0.906939 0.702570
O O20 0.492934 0.507067 0.685254
O O21 0.529300 0.663624 0.726614
O O22 0.254525 0.509049 0.808236
O O23 0.426604 0.573397 0.817631
#
# Coordination Sequence:
#
# PCOD8323505 Si02
#       8
#    12  12  12  12  12  12  12  12
#     4   9  17  29  45  66  94 126 157 188 221 264
#     4  10  20  32  45  61  85 116 148 185 228 271
#     4   9  17  28  45  68  93 118 143 175 219 278
#     4   9  16  26  43  70 104 137 165 195 234 280
#     4   9  17  30  47  67  90 116 146 180 223 279
#     4  10  19  31  47  66  89 118 153 193 232 271
#     4  10  19  30  46  67  90 117 146 182 229 279
#     4  10  19  31  47  68  95 125 155 186 225 274
#
# _framework density 16.171672999999998
#
# number of rings (size 3 to 8) (size 9 to 14) (size 15 to 20)
#    0.000    2.500    1.250    1.750    0.000    2.500 
#    0.000    4.375    0.000    1.375    0.000    0.000 
#    0.000    0.000    0.000   17.375    0.000    0.500 
#
# Total GULP energy -1189356.106173 kJ/mol
# GULP energy per Si atom -12389.126106 kJ/mol
# Density = 1.613487 g / cm^3
# Si number density = 16.171673 Si / 1000 Ang^3
#
#
#
# Elastic Constant Matrix: (Units=GPa)
#
#
# Indices 1 2 3 4 5 6 
#
# 1 95.8092 47.6908 40.9934 1.6478 0.0000 0.0000
# 2 47.6908 95.8092 40.9934 -1.6478 0.0000 0.0000
# 3 40.9934 40.9934 72.6441 0.0000 0.0000 0.0000
# 4 1.6478 -1.6478 0.0000 19.1884 0.0000 0.0000
# 5 0.0000 0.0000 0.0000 0.0000 19.1884 1.6478
# 6 0.0000 0.0000 0.0000 0.0000 1.6478 24.0592
#
#
#
# Elastic Compliance Matrix: (Units=1/GPa)
#
#
# Indices 1 2 3 4 5 6 
#
# 1 0.015595 -0.005310 -0.005804 -0.001795 0.000000 0.000000
# 2 -0.005310 0.015595 -0.005804 0.001795 0.000000 0.000000
# 3 -0.005804 -0.005804 0.020316 0.000000 0.000000 0.000000
# 4 -0.001795 0.001795 0.000000 0.052423 0.000000 0.000000
# 5 0.000000 0.000000 0.000000 0.000000 0.052423 -0.003590
# 6 0.000000 0.000000 0.000000 0.000000 -0.003590 0.041810
#
#
# Mechanical properties :
#
#
# Convention : Reuss Voigt Hill
#
# Bulk Modulus (GPa) = 56.59203 58.17975 57.38589
# Shear Modulus (GPa) = 21.01844 21.45952 21.23898
#
# Velocity S-wave (km/s) = 3.60906 3.64673 3.62794
# Velocity P-wave (km/s) = 7.24138 7.33389 7.28778
#
# Compressibility (1/GPa) = 0.01767033
#
# Stress axis : x y z
#
# Youngs Moduli (GPa) = 64.12421 64.12421 49.22307
#
# Poissons Ratio (x) = 0.34052 0.28567
# Poissons Ratio (y) = 0.34052 0.28567
# Poissons Ratio (z) = 0.37215 0.37215
#
# Static dielectric constant tensor:
#      x y z
#    x 3.130130 0.000000 0.000000 
#    y 0.000000 3.130130 0.000000 
#    z 0.000000 0.000000 2.999870 
# 
# 
# High freq. dielectric constant tensor:
#      x y z
#    x 1.619890 0.000000 0.000000 
#    y 0.000000 1.619890 0.000000 
#    z 0.000000 0.000000 1.589750 
# 
# From -- ./inp_files/4708.got.cif
#   From: 2010.03.12/outbox.cif.g09.slc.cpg/sg164_3_cif.got.tgz:4708.got - 2010.04.02 06:32:59.
