data_PCOD8323065
_publ_section_title
;
Structure prediction by ZEFSAII (Michael W. Deem and Ramdas Pophale) SiO2 
 PCOD8323065
Probable space group: P -3 1 M 
;
_chemical_formula_sum "Si O2"
_cell_formula_units_Z 48
_cell_length_a 18.826826
_cell_length_b 18.826826
_cell_length_c 8.591374
_cell_angle_alpha 90.000000
_cell_angle_beta 90.000000
_cell_angle_gamma 120.000000
_cell_volume 2637.226764
_symmetry_space_group_name_H-M "P -3 1 M "
_symmetry_group_IT_number 162
_symmetry_cell_setting 'hexagonal'
loop_
_space_group_symop_operation_xyz
x,y,z
-y,x-y,z
-x+y,-x,z
-y,-x,-z
-x+y,y,-z
x,x-y,-z
-x,-y,-z
y,-x+y,-z
x-y,x,-z
y,x,z
x-y,-y,z
-x,-x+y,z
loop_
_atom_site_type_symbol
_atom_site_label
_atom_site_fract_x
_atom_site_fract_y
_atom_site_fract_z
Si Si1 0.514422 0.179599 0.937140
Si Si2 0.761330 0.089142 0.428648
Si Si3 0.669352 0.760481 0.940079
Si Si4 0.610890 0.515675 0.615633
O O1 0.422607 0.123179 0.004358
O O2 0.513986 0.163929 0.751547
O O3 0.574864 0.149727 0.000000
O O4 0.544737 0.272369 0.000000
O O5 0.847030 0.152971 0.500000
O O6 0.762364 0.094553 0.244038
O O7 0.687268 0.103046 0.485282
O O8 0.744141 0.000000 0.482765
O O9 0.727509 0.727509 0.004745
O O10 0.705309 0.852655 0.000000
O O11 0.559280 0.440721 0.500000
O O12 0.556370 0.556370 0.678024
#
# Coordination Sequence:
#
# PCOD8323065 Si02
#       4
#    12  12  12  12
#     4  10  20  34  50  71 103 140 176 218 263 305
#     4   9  18  33  51  73 101 129 163 207 250 295
#     4   9  19  34  52  76 104 131 163 207 253 302
#     4   9  19  34  51  74 103 134 173 221 267 314
#
# _framework density 18.200939000000002
#
# number of rings (size 3 to 8) (size 9 to 14) (size 15 to 20)
#    0.000    2.750    0.000    2.500    0.000    9.000 
#    0.000    2.500    0.000    2.500    0.000    0.000 
#    0.000    0.000    0.000    0.000    0.000    0.000 
#
# Total GULP energy -594715.732228 kJ/mol
# GULP energy per Si atom -12389.911088 kJ/mol
# Density = 1.815951 g / cm^3
# Si number density = 18.200939 Si / 1000 Ang^3
#
#
#
# Elastic Constant Matrix: (Units=GPa)
#
#
# Indices 1 2 3 4 5 6 
#
# 1 126.7485 80.7749 39.8421 -0.0001 1.0007 0.0000
# 2 80.7749 126.7485 39.8421 0.0001 -1.0007 0.0000
# 3 39.8421 39.8421 42.4207 0.0000 0.0000 0.0000
# 4 -0.0001 0.0001 0.0000 32.6798 0.0000 -1.0007
# 5 1.0007 -1.0007 0.0000 0.0000 32.6798 -0.0001
# 6 0.0000 0.0000 0.0000 -1.0007 -0.0001 22.9868
#
#
#
# Elastic Compliance Matrix: (Units=1/GPa)
#
#
# Indices 1 2 3 4 5 6 
#
# 1 0.014659 -0.007122 -0.007079 0.000000 -0.000667 0.000000
# 2 -0.007122 0.014659 -0.007079 0.000000 0.000667 0.000000
# 3 -0.007079 -0.007079 0.036870 0.000000 0.000000 0.000000
# 4 0.000000 0.000000 0.000000 0.030641 0.000000 0.001334
# 5 -0.000667 0.000667 0.000000 0.000000 0.030641 0.000000
# 6 0.000000 0.000000 0.000000 0.001334 0.000000 0.043561
#
#
# Mechanical properties :
#
#
# Convention : Reuss Voigt Hill
#
# Bulk Modulus (GPa) = 42.32073 68.53734 55.42904
# Shear Modulus (GPa) = 22.57690 26.69984 24.63837
#
# Velocity S-wave (km/s) = 3.52579 3.83423 3.68324
# Velocity P-wave (km/s) = 6.31485 7.57228 6.97197
#
# Compressibility (1/GPa) = 0.02362908
#
# Stress axis : x y z
#
# Youngs Moduli (GPa) = 68.21878 68.21878 27.12223
#
# Poissons Ratio (x) = 0.48585 0.19199
# Poissons Ratio (y) = 0.48585 0.19199
# Poissons Ratio (z) = 0.48290 0.48290
#
# Static dielectric constant tensor:
#      x y z
#    x 3.698250 0.000000 0.000000 
#    y 0.000000 3.698250 0.000000 
#    z 0.000000 0.000000 3.096750 
# 
# 
# High freq. dielectric constant tensor:
#      x y z
#    x 1.702220 0.000000 0.000000 
#    y 0.000000 1.702220 0.000000 
#    z 0.000000 0.000000 1.681380 
# 
# From -- ./inp_files/1181.got.cif
#   From: 2010.03.12/outbox.cif.g09.slc.cpg/sg162_1_cif.got.tgz:1181.got - 2010.04.02 06:27:41.
