data_PCOD8323663
_publ_section_title
;
Structure prediction by ZEFSAII (Michael W. Deem and Ramdas Pophale) SiO2 
 PCOD8323663
Probable space group: P -3 M 1
;
_chemical_formula_sum "Si O2"
_cell_formula_units_Z 66
_cell_length_a 12.620682
_cell_length_b 12.620682
_cell_length_c 28.330365
_cell_angle_alpha 90.000000
_cell_angle_beta 90.000000
_cell_angle_gamma 120.000000
_cell_volume 3907.945062
_symmetry_space_group_name_H-M "P -3 M 1"
_symmetry_group_IT_number 164
_symmetry_cell_setting 'hexagonal'
loop_
_space_group_symop_operation_xyz
x,y,z
-y,x-y,z
-x+y,-x,z
x-y,-y,-z
-x,-x+y,-z
y,x,-z
-x,-y,-z
y,-x+y,-z
x-y,x,-z
-x+y,y,z
x,x-y,z
-y,-x,z
loop_
_atom_site_type_symbol
_atom_site_label
_atom_site_fract_x
_atom_site_fract_y
_atom_site_fract_z
Si Si1 0.913653 0.581378 0.187696
Si Si2 0.243738 0.000000 0.000000
Si Si3 0.750262 0.998965 0.897990
Si Si4 0.000009 0.752509 0.275822
Si Si5 0.243593 0.000012 0.553723
Si Si6 0.912224 0.332089 0.636713
O O1 0.772563 0.545126 0.186175
O O2 0.921490 0.460745 0.193268
O O3 0.982745 0.649638 0.139938
O O4 0.983081 0.667992 0.231420
O O5 0.312759 0.012091 0.049853
O O6 0.111845 0.888156 0.008887
O O7 0.871481 0.128520 0.889511
O O8 0.785338 0.892669 0.892299
O O9 0.117276 0.882725 0.266105
O O10 0.013493 0.688672 0.322243
O O11 0.886361 0.772721 0.283426
O O12 0.203174 0.101587 0.560723
O O13 0.357707 0.028533 0.586792
O O14 0.285037 0.000000 0.500000
O O15 0.129483 0.870518 0.568148
O O16 0.926226 0.463113 0.643644
O O17 0.769691 0.230310 0.638392
#
# Coordination Sequence:
#
# PCOD8323663 Si02
#       6
#    12   6  12  12  12  12
#     4  10  20  33  48  66  91 125 162 195 227 269
#     4   8  13  22  39  66  96 122 148 182 232 288
#     4   9  16  27  46  71  97 122 150 190 239 287
#     4  10  20  34  54  78 100 120 146 188 241 290
#     4   9  17  30  50  75 100 126 158 200 249 294
#     4  10  20  33  49  69  96 131 167 198 228 270
#
# _framework density 16.888672
#
# number of rings (size 3 to 8) (size 9 to 14) (size 15 to 20)
#    0.000    2.545    0.000    2.636    0.000    2.545 
#    0.000    4.091    0.000    8.000    0.000    0.000 
#    0.000    0.000    0.000    0.000    0.000    0.000 
#
# Total GULP energy -818159.354927 kJ/mol
# GULP energy per Si atom -12396.353863 kJ/mol
# Density = 1.685023 g / cm^3
# Si number density = 16.888672 Si / 1000 Ang^3
#
#
#
# Elastic Constant Matrix: (Units=GPa)
#
#
# Indices 1 2 3 4 5 6 
#
# 1 97.5225 64.4800 61.4220 1.9627 0.0000 0.0000
# 2 64.4800 97.5225 61.4220 -1.9627 0.0000 0.0000
# 3 61.4220 61.4220 132.4294 0.0000 0.0000 0.0000
# 4 1.9627 -1.9627 0.0000 15.7672 0.0000 0.0000
# 5 0.0000 0.0000 0.0000 0.0000 15.7672 1.9627
# 6 0.0000 0.0000 0.0000 0.0000 1.9627 16.5212
#
#
#
# Elastic Compliance Matrix: (Units=1/GPa)
#
#
# Indices 1 2 3 4 5 6 
#
# 1 0.020120 -0.010598 -0.004416 -0.003824 0.000000 0.000000
# 2 -0.010598 0.020120 -0.004416 0.003824 0.000000 0.000000
# 3 -0.004416 -0.004416 0.011648 0.000000 0.000000 0.000000
# 4 -0.003824 0.003824 0.000000 0.064375 0.000000 0.000000
# 5 0.000000 0.000000 0.000000 0.000000 0.064375 -0.007647
# 6 0.000000 0.000000 0.000000 0.000000 -0.007647 0.061437
#
#
# Mechanical properties :
#
#
# Convention : Reuss Voigt Hill
#
# Bulk Modulus (GPa) = 76.76942 78.01359 77.39150
# Shear Modulus (GPa) = 17.52685 18.95450 18.24068
#
# Velocity S-wave (km/s) = 3.22497 3.35374 3.28998
# Velocity P-wave (km/s) = 7.70857 7.82879 7.76891
#
# Compressibility (1/GPa) = 0.01302602
#
# Stress axis : x y z
#
# Youngs Moduli (GPa) = 49.70211 49.70211 85.85406
#
# Poissons Ratio (x) = 0.52677 0.37914
# Poissons Ratio (y) = 0.52677 0.37914
# Poissons Ratio (z) = 0.21949 0.21949
#
# Static dielectric constant tensor:
#      x y z
#    x 2.950270 0.000000 0.000000 
#    y 0.000000 2.950270 0.000000 
#    z 0.000000 0.000000 3.502120 
# 
# 
# High freq. dielectric constant tensor:
#      x y z
#    x 1.634150 0.000000 0.000000 
#    y 0.000000 1.634150 0.000000 
#    z 0.000000 0.000000 1.676660 
# 
# From -- ./inp_files/5404.got.cif
#   From: 2010.03.12/outbox.cif.g09.slc.cpg/sg164_3_cif.got.tgz:5404.got - 2010.04.02 06:32:59.
