data_PCOD8323457
_publ_section_title
;
Structure prediction by ZEFSAII (Michael W. Deem and Ramdas Pophale) SiO2 
 PCOD8323457
Probable space group: P -3 M 1
;
_chemical_formula_sum "Si O2"
_cell_formula_units_Z 96
_cell_length_a 21.800943
_cell_length_b 21.800943
_cell_length_c 12.753996
_cell_angle_alpha 90.000000
_cell_angle_beta 90.000000
_cell_angle_gamma 120.000000
_cell_volume 5249.615157
_symmetry_space_group_name_H-M "P -3 M 1"
_symmetry_group_IT_number 164
_symmetry_cell_setting 'hexagonal'
loop_
_space_group_symop_operation_xyz
x,y,z
-y,x-y,z
-x+y,-x,z
x-y,-y,-z
-x,-x+y,-z
y,x,-z
-x,-y,-z
y,-x+y,-z
x-y,x,-z
-x+y,y,z
x,x-y,z
-y,-x,z
loop_
_atom_site_type_symbol
_atom_site_label
_atom_site_fract_x
_atom_site_fract_y
_atom_site_fract_z
Si Si1 0.190775 0.947524 0.081634
Si Si2 0.297804 0.011364 0.245358
Si Si3 0.205990 0.929434 0.546728
Si Si4 0.666385 0.193946 0.335031
Si Si5 0.612157 0.736186 0.360314
Si Si6 0.194940 0.528406 0.909417
Si Si7 0.883871 0.626699 0.068198
Si Si8 0.530361 0.611654 0.493901
O O1 0.114670 0.885331 0.111597
O O2 0.223519 0.990109 0.188673
O O3 0.241788 0.920926 0.029573
O O4 0.183665 0.000000 0.000000
O O5 0.291868 0.935556 0.269427
O O6 0.308400 0.055942 0.349488
O O7 0.358678 0.061068 0.163075
O O8 0.124702 0.875298 0.573507
O O9 0.235788 0.898440 0.460599
O O10 0.210164 0.000000 0.500000
O O11 0.609518 0.219036 0.359014
O O12 0.743552 0.256449 0.371721
O O13 0.665909 0.177607 0.213017
O O14 0.644692 0.121111 0.396289
O O15 0.597824 0.798912 0.319045
O O16 0.541433 0.667005 0.401229
O O17 0.277541 0.555082 0.930274
O O18 0.178963 0.589482 0.948598
O O19 0.144845 0.454366 0.969617
O O20 0.817331 0.634661 0.108696
O O21 0.595992 0.595992 0.500000
O O22 0.459759 0.540242 0.463961
#
# Coordination Sequence:
#
# PCOD8323457 Si02
#       8
#    12  12  12  12  12  12  12  12
#     4   9  18  33  52  73  96 120 153 195 238 281
#     4  10  18  30  49  71  96 125 157 195 238 281
#     4   9  18  30  47  72  99 126 157 193 230 274
#     4   9  17  28  43  62  86 119 156 194 233 277
#     4  10  20  32  47  68  94 124 158 194 235 278
#     4   9  17  28  45  69  97 127 159 194 237 287
#     4   9  18  30  47  72  96 123 158 196 240 285
#     4  10  20  31  42  60  89 122 156 192 230 274
#
# _framework density 18.287054999999999
#
# number of rings (size 3 to 8) (size 9 to 14) (size 15 to 20)
#    0.000    2.625    0.000    2.500    3.500    2.000 
#    0.000    0.000    0.000    4.625    0.000    0.875 
#    0.000    0.000    0.000    0.000    0.000    0.000 
#
# Total GULP energy -1189725.398599 kJ/mol
# GULP energy per Si atom -12392.972902 kJ/mol
# Density = 1.824543 g / cm^3
# Si number density = 18.287055 Si / 1000 Ang^3
#
#
#
# Elastic Constant Matrix: (Units=GPa)
#
#
# Indices 1 2 3 4 5 6 
#
# 1 73.5390 24.7281 -3.7382 -0.5187 0.0000 0.0000
# 2 24.7281 73.5390 -3.7382 0.5187 0.0000 0.0000
# 3 -3.7382 -3.7382 22.4605 0.0000 0.0000 0.0000
# 4 -0.5187 0.5187 0.0000 13.1997 0.0000 0.0000
# 5 0.0000 0.0000 0.0000 0.0000 13.1997 -0.5187
# 6 0.0000 0.0000 0.0000 0.0000 -0.5187 24.4055
#
#
#
# Elastic Compliance Matrix: (Units=1/GPa)
#
#
# Indices 1 2 3 4 5 6 
#
# 1 0.015406 -0.005099 0.001715 0.000806 0.000000 0.000000
# 2 -0.005099 0.015406 0.001715 -0.000806 0.000000 0.000000
# 3 0.001715 0.001715 0.045094 0.000000 0.000000 0.000000
# 4 0.000806 -0.000806 0.000000 0.075823 0.000000 0.000000
# 5 0.000000 0.000000 0.000000 0.000000 0.075823 0.001611
# 6 0.000000 0.000000 0.000000 0.000000 0.001611 0.041009
#
#
# Mechanical properties :
#
#
# Convention : Reuss Voigt Hill
#
# Bulk Modulus (GPa) = 13.78001 22.67135 18.22568
# Shear Modulus (GPa) = 16.88708 20.31342 18.60025
#
# Velocity S-wave (km/s) = 3.04212 3.33650 3.19270
# Velocity P-wave (km/s) = 4.45994 5.22181 4.85584
#
# Compressibility (1/GPa) = 0.07256888
#
# Stress axis : x y z
#
# Youngs Moduli (GPa) = 64.91147 64.91147 22.17610
#
# Poissons Ratio (x) = 0.33097 -0.03804
# Poissons Ratio (y) = 0.33097 -0.03804
# Poissons Ratio (z) = -0.11135 -0.11135
#
# Static dielectric constant tensor:
#      x y z
#    x 3.468750 0.000000 0.000000 
#    y 0.000000 3.468750 0.000000 
#    z 0.000000 0.000000 3.190440 
# 
# 
# High freq. dielectric constant tensor:
#      x y z
#    x 1.701560 0.000000 0.000000 
#    y 0.000000 1.701560 0.000000 
#    z 0.000000 0.000000 1.684810 
# 
# From -- ./inp_files/3157.got.cif
#   From: 2010.03.12/outbox.cif.g09.slc.cpg/sg164_2_cif.got.tgz:3157.got - 2010.04.02 06:32:59.
