data_PCOD8323515
_publ_section_title
;
Structure prediction by ZEFSAII (Michael W. Deem and Ramdas Pophale) SiO2 
 PCOD8323515
Probable space group: P -3 M 1
;
_chemical_formula_sum "Si O2"
_cell_formula_units_Z 84
_cell_length_a 18.831056
_cell_length_b 18.831056
_cell_length_c 14.361673
_cell_angle_alpha 90.000000
_cell_angle_beta 90.000000
_cell_angle_gamma 120.000000
_cell_volume 4410.471454
_symmetry_space_group_name_H-M "P -3 M 1"
_symmetry_group_IT_number 164
_symmetry_cell_setting 'hexagonal'
loop_
_space_group_symop_operation_xyz
x,y,z
-y,x-y,z
-x+y,-x,z
x-y,-y,-z
-x,-x+y,-z
y,x,-z
-x,-y,-z
y,-x+y,-z
x-y,x,-z
-x+y,y,z
x,x-y,z
-y,-x,z
loop_
_atom_site_type_symbol
_atom_site_label
_atom_site_fract_x
_atom_site_fract_y
_atom_site_fract_z
Si Si1 0.919245 0.672648 0.290626
Si Si2 0.161126 0.161245 0.391127
Si Si3 0.667842 0.491523 0.063989
Si Si4 0.490851 0.822578 0.336805
Si Si5 0.511878 0.642868 0.137761
Si Si6 0.343082 0.020975 0.101789
Si Si7 0.581612 0.585104 0.609203
O O1 0.825221 0.650442 0.307108
O O2 0.983110 0.756742 0.339984
O O3 0.939908 0.688714 0.179846
O O4 0.931709 0.599763 0.335326
O O5 0.177298 0.177298 0.500000
O O6 0.137318 0.068659 0.365978
O O7 0.087383 0.174765 0.357317
O O8 0.753355 0.506709 0.109253
O O9 0.594758 0.405243 0.101037
O O10 0.646147 0.561114 0.088564
O O11 0.678579 0.491520 0.952999
O O12 0.404738 0.809475 0.376171
O O13 0.507627 0.753814 0.383250
O O14 0.487752 0.809475 0.225945
O O15 0.562703 0.913749 0.356775
O O16 0.456492 0.543509 0.137310
O O17 0.606204 0.668086 0.144725
O O18 0.296731 0.000000 0.000000
O O19 0.598742 0.598742 0.500000
O O20 0.487918 0.512083 0.629944
#
# Coordination Sequence:
#
# PCOD8323515 Si02
#       7
#    12  12  12  12  12  12  12
#     4  11  22  37  57  83 112 145 188 237 282 322
#     4   9  18  34  58  88 118 143 169 209 271 344
#     4  10  19  30  47  71 101 133 172 221 276 328
#     4  10  19  32  53  81 112 141 176 220 272 330
#     4   9  17  31  50  72  99 133 171 216 270 330
#     4  10  20  35  51  72 100 141 189 230 272 324
#     4  10  22  39  58  81 112 152 192 229 277 339
#
# _framework density 19.045584000000002
#
# number of rings (size 3 to 8) (size 9 to 14) (size 15 to 20)
#    0.000    2.143    1.429    2.143    0.000    4.000 
#    0.000    2.857    0.000    0.286    0.000    0.000 
#    0.000    2.857    0.000    0.000    0.000    0.000 
#
# Total GULP energy -1040945.443959 kJ/mol
# GULP energy per Si atom -12392.207666 kJ/mol
# Density = 1.900223 g / cm^3
# Si number density = 19.045584 Si / 1000 Ang^3
#
#
#
# Elastic Constant Matrix: (Units=GPa)
#
#
# Indices 1 2 3 4 5 6 
#
# 1 92.6718 47.9950 27.9840 0.9171 0.0000 0.0000
# 2 47.9950 92.6718 27.9840 -0.9171 0.0000 0.0000
# 3 27.9840 27.9840 72.2878 0.0000 0.0000 0.0000
# 4 0.9171 -0.9171 0.0000 18.6570 0.0000 0.0000
# 5 0.0000 0.0000 0.0000 0.0000 18.6570 0.9171
# 6 0.0000 0.0000 0.0000 0.0000 0.9171 22.3384
#
#
#
# Elastic Compliance Matrix: (Units=1/GPa)
#
#
# Indices 1 2 3 4 5 6 
#
# 1 0.015416 -0.007012 -0.003253 -0.001103 0.000000 0.000000
# 2 -0.007012 0.015416 -0.003253 0.001103 0.000000 0.000000
# 3 -0.003253 -0.003253 0.016352 0.000000 0.000000 0.000000
# 4 -0.001103 0.001103 0.000000 0.053708 0.000000 0.000000
# 5 0.000000 0.000000 0.000000 0.000000 0.053708 -0.002205
# 6 0.000000 0.000000 0.000000 0.000000 -0.002205 0.044856
#
#
# Mechanical properties :
#
#
# Convention : Reuss Voigt Hill
#
# Bulk Modulus (GPa) = 49.63628 51.72860 50.68244
# Shear Modulus (GPa) = 21.44006 22.17504 21.80755
#
# Velocity S-wave (km/s) = 3.35882 3.41591 3.38748
# Velocity P-wave (km/s) = 6.41566 6.54043 6.47835
#
# Compressibility (1/GPa) = 0.02014656
#
# Stress axis : x y z
#
# Youngs Moduli (GPa) = 64.86860 64.86860 61.15359
#
# Poissons Ratio (x) = 0.45489 0.19894
# Poissons Ratio (y) = 0.45489 0.19894
# Poissons Ratio (z) = 0.21102 0.21102
#
# Static dielectric constant tensor:
#      x y z
#    x 3.357620 0.000000 0.000000 
#    y 0.000000 3.357620 0.000000 
#    z 0.000000 0.000000 3.616500 
# 
# 
# High freq. dielectric constant tensor:
#      x y z
#    x 1.731110 0.000000 0.000000 
#    y 0.000000 1.731110 0.000000 
#    z 0.000000 0.000000 1.730820 
# 
# From -- ./inp_files/3591.got.cif
#   From: 2010.03.12/outbox.cif.g09.slc.cpg/sg164_2_cif.got.tgz:3591.got - 2010.04.02 06:32:59.
