data_PCOD8323246
_publ_section_title
;
Structure prediction by ZEFSAII (Michael W. Deem and Ramdas Pophale) SiO2 
 PCOD8323246
Probable space group: P -3 1 C
;
_chemical_formula_sum "Si O2"
_cell_formula_units_Z 72
_cell_length_a 23.022655
_cell_length_b 23.022655
_cell_length_c 9.054857
_cell_angle_alpha 90.000000
_cell_angle_beta 90.000000
_cell_angle_gamma 120.000000
_cell_volume 4156.454578
_symmetry_space_group_name_H-M "P -3 1 C"
_symmetry_group_IT_number 163
_symmetry_cell_setting 'hexagonal'
loop_
_space_group_symop_operation_xyz
x,y,z
-y,x-y,z
-x+y,-x,z
-y,-x,1/2-z
-x+y,y,1/2-z
x,x-y,1/2-z
-x,-y,-z
y,-x+y,-z
x-y,x,-z
y,x,1/2+z
x-y,-y,1/2+z
-x,-x+y,1/2+z
loop_
_atom_site_type_symbol
_atom_site_label
_atom_site_fract_x
_atom_site_fract_y
_atom_site_fract_z
Si Si1 0.269685 0.868172 0.916132
Si Si2 0.401513 0.131828 0.083868
Si Si3 0.267266 0.200939 0.576649
Si Si4 0.666279 0.466652 0.577405
Si Si5 0.732734 0.799061 0.076649
Si Si6 0.666279 0.466652 0.922595
O O1 0.202172 0.797828 0.916455
O O2 0.291253 0.895706 0.750000
O O3 0.327417 0.858027 0.990762
O O4 0.258368 0.920661 0.010260
O O5 0.337707 0.079339 0.989740
O O6 0.469390 0.141973 0.009238
O O7 0.207850 0.207850 0.500000
O O8 0.267818 0.212843 0.750000
O O9 0.254086 0.127043 0.539745
O O10 0.666335 0.481038 0.750000
O O11 0.597815 0.402185 0.526349
O O12 0.726597 0.453193 0.537447
#
# Coordination Sequence:
#
# PCOD8323246 Si02
#       6
#    12  12  12  12  12  12
#     4   9  17  29  45  66  93 125 161 201 242 283
#     4   9  17  29  45  66  93 125 161 201 242 283
#     4  10  20  34  54  79 104 129 157 190 228 271
#     4   9  16  26  41  62  90 125 165 208 253 299
#     4  10  20  34  54  79 104 129 157 190 228 271
#     4   9  16  26  41  62  90 125 165 208 253 299
#
# _framework density 17.322455999999999
#
# number of rings (size 3 to 8) (size 9 to 14) (size 15 to 20)
#    0.000    2.667    0.000    2.333    0.000    8.000 
#    0.000    0.000    0.000    3.333    0.000    0.000 
#    0.000    0.000    0.000    0.000    0.000    0.000 
#
# Total GULP energy -892810.830145 kJ/mol
# GULP energy per Si atom -12400.150419 kJ/mol
# Density = 1.728303 g / cm^3
# Si number density = 17.322456 Si / 1000 Ang^3
#
#
#
# Elastic Constant Matrix: (Units=GPa)
#
#
# Indices 1 2 3 4 5 6 
#
# 1 91.1119 50.3484 56.9592 0.0000 0.0000 0.0000
# 2 50.3484 91.1119 56.9592 0.0000 0.0000 0.0000
# 3 56.9592 56.9592 110.1072 0.0000 0.0000 0.0000
# 4 0.0000 0.0000 0.0000 27.8561 0.0000 0.0000
# 5 0.0000 0.0000 0.0000 0.0000 27.8561 0.0000
# 6 0.0000 0.0000 0.0000 0.0000 0.0000 20.3818
#
#
#
# Elastic Compliance Matrix: (Units=1/GPa)
#
#
# Indices 1 2 3 4 5 6 
#
# 1 0.018324 -0.006207 -0.006268 0.000000 0.000000 0.000000
# 2 -0.006207 0.018324 -0.006268 0.000000 0.000000 0.000000
# 3 -0.006268 -0.006268 0.015567 0.000000 0.000000 0.000000
# 4 0.000000 0.000000 0.000000 0.035899 0.000000 0.000000
# 5 0.000000 0.000000 0.000000 0.000000 0.035899 0.000000
# 6 0.000000 0.000000 0.000000 0.000000 0.000000 0.049063
#
#
# Mechanical properties :
#
#
# Convention : Reuss Voigt Hill
#
# Bulk Modulus (GPa) = 67.89630 68.98495 68.44062
# Shear Modulus (GPa) = 23.20468 23.75639 23.48053
#
# Velocity S-wave (km/s) = 3.66399 3.70729 3.68570
# Velocity P-wave (km/s) = 7.56177 7.63124 7.59658
#
# Compressibility (1/GPa) = 0.01472834
#
# Stress axis : x y z
#
# Youngs Moduli (GPa) = 54.57233 54.57233 64.23778
#
# Poissons Ratio (x) = 0.33875 0.40265
# Poissons Ratio (y) = 0.33875 0.40265
# Poissons Ratio (z) = 0.34207 0.34207
#
# Static dielectric constant tensor:
#      x y z
#    x 3.115620 0.000000 0.000000 
#    y 0.000000 3.115620 0.000000 
#    z 0.000000 0.000000 3.343100 
# 
# 
# High freq. dielectric constant tensor:
#      x y z
#    x 1.648280 0.000000 0.000000 
#    y 0.000000 1.648280 0.000000 
#    z 0.000000 0.000000 1.679590 
# 
# From -- ./inp_files/1241.got.cif
#   From: 2010.03.12/outbox.cif.g09.slc.cpg/sg163_1_cif.got.tgz:1241.got - 2010.04.02 06:30:25.
