data_PCOD8323057
_publ_section_title
;
Structure prediction by ZEFSAII (Michael W. Deem and Ramdas Pophale) SiO2 
 PCOD8323057
Probable space group: P -3 1 M 
;
_chemical_formula_sum "Si O2"
_cell_formula_units_Z 96
_cell_length_a 17.821081
_cell_length_b 17.821081
_cell_length_c 20.165754
_cell_angle_alpha 90.000000
_cell_angle_beta 90.000000
_cell_angle_gamma 120.000000
_cell_volume 5546.425514
_symmetry_space_group_name_H-M "P -3 1 M "
_symmetry_group_IT_number 162
_symmetry_cell_setting 'hexagonal'
loop_
_space_group_symop_operation_xyz
x,y,z
-y,x-y,z
-x+y,-x,z
-y,-x,-z
-x+y,y,-z
x,x-y,-z
-x,-y,-z
y,-x+y,-z
x-y,x,-z
y,x,z
x-y,-y,z
-x,-x+y,z
loop_
_atom_site_type_symbol
_atom_site_label
_atom_site_fract_x
_atom_site_fract_y
_atom_site_fract_z
Si Si1 0.666865 0.161938 0.763441
Si Si2 0.495348 0.333325 0.387780
Si Si3 0.634083 0.731364 0.121541
Si Si4 0.904997 0.265164 0.500000
Si Si5 0.161938 0.666865 0.236559
Si Si6 0.508275 0.668484 0.000000
Si Si7 0.666675 0.504652 0.387780
Si Si8 0.634084 0.731364 0.878459
O O1 0.691948 0.104066 0.808573
O O2 0.736790 0.263210 0.772676
O O3 0.574147 0.148294 0.785032
O O4 0.664961 0.132167 0.687817
O O5 0.415081 0.311422 0.434641
O O6 0.467206 0.335039 0.312183
O O7 0.574621 0.425379 0.409079
O O8 0.525616 0.262808 0.397067
O O9 0.715501 0.715501 0.114586
O O10 0.668808 0.834404 0.117028
O O11 0.565098 0.680138 0.064424
O O12 0.836652 0.163349 0.500000
O O13 0.896341 0.311422 0.434641
O O14 0.000000 0.276011 0.500000
O O15 0.104065 0.691948 0.191426
O O16 0.565098 0.680138 0.935576
O O17 0.427019 0.572981 0.000000
O O18 0.475256 0.737628 0.000000
O O19 0.715501 0.715501 0.885414
#
# Coordination Sequence:
#
# PCOD8323057 Si02
#       8
#    12  12  12  12  12  12  12  12
#     4   9  17  29  46  69  98 131 163 191 219 256
#     4   9  17  29  46  69  98 131 162 188 215 254
#     4  10  21  35  50  69  93 122 156 196 242 285
#     4  10  21  35  49  66  89 117 150 190 237 283
#     4   9  17  29  46  69  98 131 163 191 219 256
#     4  10  20  33  50  73 102 134 163 188 216 257
#     4   9  17  29  46  69  98 131 162 188 215 254
#     4  10  21  35  50  69  93 122 156 196 242 285
#
# _framework density 17.308446
#
# number of rings (size 3 to 8) (size 9 to 14) (size 15 to 20)
#    0.000    2.500    0.000    2.125    0.000    6.500 
#    0.000    6.250    0.000    0.375    0.000    0.000 
#    0.000    3.000    0.000   12.500    0.000    0.000 
#
# Total GULP energy -1190418.004297 kJ/mol
# GULP energy per Si atom -12400.187545 kJ/mol
# Density = 1.726905 g / cm^3
# Si number density = 17.308446 Si / 1000 Ang^3
#
#
#
# Elastic Constant Matrix: (Units=GPa)
#
#
# Indices 1 2 3 4 5 6 
#
# 1 99.7332 73.2189 39.7919 0.0000 0.0000 0.0000
# 2 73.2189 99.7332 39.7919 0.0000 0.0000 0.0000
# 3 39.7919 39.7919 88.6265 0.0000 0.0000 0.0000
# 4 0.0000 0.0000 0.0000 12.7740 0.0000 0.0000
# 5 0.0000 0.0000 0.0000 0.0000 12.7740 0.0000
# 6 0.0000 0.0000 0.0000 0.0000 0.0000 13.2571
#
#
#
# Elastic Compliance Matrix: (Units=1/GPa)
#
#
# Indices 1 2 3 4 5 6 
#
# 1 0.022502 -0.015214 -0.003272 0.000000 0.000000 0.000000
# 2 -0.015214 0.022502 -0.003272 0.000000 0.000000 0.000000
# 3 -0.003272 -0.003272 0.014221 0.000000 0.000000 0.000000
# 4 0.000000 0.000000 0.000000 0.078284 0.000000 0.000000
# 5 0.000000 0.000000 0.000000 0.000000 0.078284 0.000000
# 6 0.000000 0.000000 0.000000 0.000000 0.000000 0.075431
#
#
# Mechanical properties :
#
#
# Convention : Reuss Voigt Hill
#
# Bulk Modulus (GPa) = 63.65950 65.96648 64.81299
# Shear Modulus (GPa) = 14.70694 16.78038 15.74366
#
# Velocity S-wave (km/s) = 2.91812 3.11704 3.01922
# Velocity P-wave (km/s) = 6.94357 7.15190 7.04850
#
# Compressibility (1/GPa) = 0.01570858
#
# Stress axis : x y z
#
# Youngs Moduli (GPa) = 44.44131 44.44131 70.31630
#
# Poissons Ratio (x) = 0.67613 0.23007
# Poissons Ratio (y) = 0.67613 0.23007
# Poissons Ratio (z) = 0.14541 0.14541
#
# Static dielectric constant tensor:
#      x y z
#    x 3.027570 0.000000 0.000000 
#    y 0.000000 3.027570 0.000000 
#    z 0.000000 0.000000 3.536820 
# 
# 
# High freq. dielectric constant tensor:
#      x y z
#    x 1.642590 0.000000 0.000000 
#    y 0.000000 1.642590 0.000000 
#    z 0.000000 0.000000 1.689500 
# 
# From -- ./inp_files/3882.got.cif
#   From: 2010.03.12/outbox.cif.g09.slc.cpg/sg162_2_cif.got.tgz:3882.got - 2010.04.02 06:27:41.
