data_PCOD8323474
_publ_section_title
;
Structure prediction by ZEFSAII (Michael W. Deem and Ramdas Pophale) SiO2 
 PCOD8323474
Probable space group: P -3 M 1
;
_chemical_formula_sum "Si O2"
_cell_formula_units_Z 96
_cell_length_a 16.877880
_cell_length_b 16.877880
_cell_length_c 25.876366
_cell_angle_alpha 90.000000
_cell_angle_beta 90.000000
_cell_angle_gamma 120.000000
_cell_volume 6383.659390
_symmetry_space_group_name_H-M "P -3 M 1"
_symmetry_group_IT_number 164
_symmetry_cell_setting 'hexagonal'
loop_
_space_group_symop_operation_xyz
x,y,z
-y,x-y,z
-x+y,-x,z
x-y,-y,-z
-x,-x+y,-z
y,x,-z
-x,-y,-z
y,-x+y,-z
x-y,x,-z
-x+y,y,z
x,x-y,z
-y,-x,z
loop_
_atom_site_type_symbol
_atom_site_label
_atom_site_fract_x
_atom_site_fract_y
_atom_site_fract_z
Si Si1 0.815522 0.814633 0.353428
Si Si2 0.848700 0.335095 0.982358
Si Si3 0.853651 0.334372 0.093537
Si Si4 0.667514 0.517768 0.384886
Si Si5 0.062339 0.755422 0.548815
Si Si6 0.578794 0.973640 0.811787
Si Si7 0.848874 0.335017 0.870741
Si Si8 0.271908 0.360629 0.712358
O O1 0.804604 0.902302 0.344200
O O2 0.774331 0.770258 0.408858
O O3 0.759162 0.740194 0.309298
O O4 0.922032 0.844064 0.350821
O O5 0.812277 0.406139 0.987251
O O6 0.764132 0.235868 0.977606
O O7 0.901691 0.342714 0.036562
O O8 0.900623 0.350441 0.927138
O O9 0.837135 0.418568 0.102615
O O10 0.757031 0.242970 0.095605
O O11 0.916121 0.332839 0.139634
O O12 0.743268 0.486536 0.386003
O O13 0.568677 0.431324 0.395076
O O14 0.688211 0.592198 0.429190
O O15 0.669203 0.562411 0.329840
O O16 0.148976 0.851025 0.531796
O O17 0.000000 0.706277 0.500000
O O18 0.475714 0.951428 0.800598
O O19 0.621314 0.954504 0.762113
O O20 0.644341 0.079463 0.825372
O O21 0.810582 0.405291 0.867107
O O22 0.766879 0.233122 0.862652
O O23 0.183721 0.367441 0.727886
#
# Coordination Sequence:
#
# PCOD8323474 Si02
#       8
#    12  12  12  12  12  12  12  12
#     4   9  17  29  46  66  86 109 136 165 196 233
#     4   8  13  22  36  53  73  97 125 155 189 231
#     4   9  16  25  38  56  78 103 128 155 189 232
#     4   9  17  29  45  63  83 110 144 178 206 232
#     4   9  17  28  43  65  92 118 140 164 198 239
#     4  10  19  28  40  58  78 101 130 165 201 236
#     4   9  17  28  41  56  74  98 128 162 199 237
#     4   9  18  31  44  59  81 108 135 164 202 243
#
# _framework density 15.038396000000001
#
# number of rings (size 3 to 8) (size 9 to 14) (size 15 to 20)
#    0.000    3.000    0.000    3.250    0.000    3.250 
#    0.000    2.500    0.000    6.000    0.000    0.000 
#    0.000    0.000    0.000   31.000    0.000    0.000 
#
# Total GULP energy -1189409.219189 kJ/mol
# GULP energy per Si atom -12389.679367 kJ/mol
# Density = 1.500417 g / cm^3
# Si number density = 15.038396 Si / 1000 Ang^3
#
#
#
# Elastic Constant Matrix: (Units=GPa)
#
#
# Indices 1 2 3 4 5 6 
#
# 1 69.0958 34.3234 47.9549 3.4687 0.0000 0.0000
# 2 34.3234 69.0958 47.9549 -3.4687 0.0000 0.0000
# 3 47.9549 47.9549 118.1465 0.0000 0.0000 0.0000
# 4 3.4687 -3.4687 0.0000 22.6647 0.0000 0.0000
# 5 0.0000 0.0000 0.0000 0.0000 22.6647 3.4687
# 6 0.0000 0.0000 0.0000 0.0000 3.4687 17.3862
#
#
#
# Elastic Compliance Matrix: (Units=1/GPa)
#
#
# Indices 1 2 3 4 5 6 
#
# 1 0.022585 -0.007079 -0.006294 -0.004540 0.000000 0.000000
# 2 -0.007079 0.022585 -0.006294 0.004540 0.000000 0.000000
# 3 -0.006294 -0.006294 0.013573 0.000000 0.000000 0.000000
# 4 -0.004540 0.004540 0.000000 0.045511 0.000000 0.000000
# 5 0.000000 0.000000 0.000000 0.000000 0.045511 -0.009080
# 6 0.000000 0.000000 0.000000 0.000000 -0.009080 0.059329
#
#
# Mechanical properties :
#
#
# Convention : Reuss Voigt Hill
#
# Bulk Modulus (GPa) = 51.51895 57.42273 54.47084
# Shear Modulus (GPa) = 19.61567 20.95011 20.28289
#
# Velocity S-wave (km/s) = 3.61553 3.73649 3.67650
# Velocity P-wave (km/s) = 7.19458 7.54202 7.37035
#
# Compressibility (1/GPa) = 0.01941034
#
# Stress axis : x y z
#
# Youngs Moduli (GPa) = 44.27663 44.27663 73.67358
#
# Poissons Ratio (x) = 0.31343 0.46369
# Poissons Ratio (y) = 0.31343 0.46369
# Poissons Ratio (z) = 0.27867 0.27867
#
# Static dielectric constant tensor:
#      x y z
#    x 2.734690 0.000000 0.000000 
#    y 0.000000 2.734690 0.000000 
#    z 0.000000 0.000000 2.976070 
# 
# 
# High freq. dielectric constant tensor:
#      x y z
#    x 1.560480 0.000000 0.000000 
#    y 0.000000 1.560480 0.000000 
#    z 0.000000 0.000000 1.581650 
# 
# From -- ./inp_files/5104.got.cif
#   From: 2010.03.12/outbox.cif.g09.slc.cpg/sg164_3_cif.got.tgz:5104.got - 2010.04.02 06:32:59.
