data_PCOD8323308
_publ_section_title
;
Structure prediction by ZEFSAII (Michael W. Deem and Ramdas Pophale) SiO2 
 PCOD8323308
Probable space group: P -3 1 C
;
_chemical_formula_sum "Si O2"
_cell_formula_units_Z 54
_cell_length_a 16.150151
_cell_length_b 16.150151
_cell_length_c 12.301353
_cell_angle_alpha 90.000000
_cell_angle_beta 90.000000
_cell_angle_gamma 120.000000
_cell_volume 2778.668177
_symmetry_space_group_name_H-M "P -3 1 C"
_symmetry_group_IT_number 163
_symmetry_cell_setting 'hexagonal'
loop_
_space_group_symop_operation_xyz
x,y,z
-y,x-y,z
-x+y,-x,z
-y,-x,1/2-z
-x+y,y,1/2-z
x,x-y,1/2-z
-x,-y,-z
y,-x+y,-z
x-y,x,-z
y,x,1/2+z
x-y,-y,1/2+z
-x,-x+y,1/2+z
loop_
_atom_site_type_symbol
_atom_site_label
_atom_site_fract_x
_atom_site_fract_y
_atom_site_fract_z
Si Si1 0.618037 0.750410 0.907054
Si Si2 0.924760 0.516443 0.935265
Si Si3 0.171413 0.980036 0.028617
Si Si4 0.395108 0.604893 0.250000
Si Si5 0.717273 0.658576 0.166601
O O1 0.608437 0.845434 0.908400
O O2 0.623650 0.716193 0.787269
O O3 0.528831 0.670117 0.974818
O O4 0.713628 0.764110 0.961422
O O5 0.856340 0.428099 0.857541
O O6 0.982412 0.609401 0.860813
O O7 0.000000 0.500000 0.000000
O O8 0.226234 0.015090 0.145771
O O9 0.063733 0.894515 0.040818
O O10 0.442396 0.721198 0.250000
#
# Coordination Sequence:
#
# PCOD8323308 Si02
#       5
#    12  12  12   6  12
#     4   9  19  35  55  80 116 150 198 256 297 355
#     4  11  22  38  65  89 117 162 207 244 312 392
#     4   9  17  30  48  76 112 156 198 246 301 354
#     4  10  26  44  62  96 138 160 200 264 334 378
#     4   9  19  35  54  83 113 149 202 250 299 360
#
# _framework density 19.433771
#
# number of rings (size 3 to 8) (size 9 to 14) (size 15 to 20)
#    0.222    2.222    0.000    1.556    3.111    0.889 
#    8.000    0.000    0.000    2.667    0.000    0.000 
#    0.000    0.000    0.000    0.000    0.000    0.000 
#
# Total GULP energy -669119.514257 kJ/mol
# GULP energy per Si atom -12391.102116 kJ/mol
# Density = 1.938954 g / cm^3
# Si number density = 19.433771 Si / 1000 Ang^3
#
#
#
# Elastic Constant Matrix: (Units=GPa)
#
#
# Indices 1 2 3 4 5 6 
#
# 1 86.4857 32.2638 38.6359 0.0000 -4.2483 0.0000
# 2 32.2638 86.4857 38.6359 0.0000 4.2483 0.0000
# 3 38.6359 38.6359 97.6998 0.0000 0.0000 0.0000
# 4 0.0000 0.0000 0.0000 28.0997 0.0000 4.2483
# 5 -4.2483 4.2483 0.0000 0.0000 28.0997 0.0000
# 6 0.0000 0.0000 0.0000 4.2483 0.0000 27.1109
#
#
#
# Elastic Compliance Matrix: (Units=1/GPa)
#
#
# Indices 1 2 3 4 5 6 
#
# 1 0.015115 -0.003776 -0.004484 0.000000 0.002856 0.000000
# 2 -0.003776 0.015115 -0.004484 0.000000 -0.002856 0.000000
# 3 -0.004484 -0.004484 0.013782 0.000000 0.000000 0.000000
# 4 0.000000 0.000000 0.000000 0.036451 0.000000 -0.005712
# 5 0.002856 -0.002856 0.000000 0.000000 0.036451 0.000000
# 6 0.000000 0.000000 0.000000 -0.005712 0.000000 0.037781
#
#
# Mechanical properties :
#
#
# Convention : Reuss Voigt Hill
#
# Bulk Modulus (GPa) = 53.98520 54.41581 54.20050
# Shear Modulus (GPa) = 26.83037 27.40442 27.11739
#
# Velocity S-wave (km/s) = 3.71968 3.75926 3.73952
# Velocity P-wave (km/s) = 6.80348 6.84866 6.82611
#
# Compressibility (1/GPa) = 0.01852360
#
# Stress axis : x y z
#
# Youngs Moduli (GPa) = 66.16123 66.16123 72.55896
#
# Poissons Ratio (x) = 0.24980 0.32536
# Poissons Ratio (y) = 0.24980 0.32536
# Poissons Ratio (z) = 0.29667 0.29667
#
# Static dielectric constant tensor:
#      x y z
#    x 3.624000 0.000000 0.000000 
#    y 0.000000 3.624000 0.000000 
#    z 0.000000 0.000000 3.621360 
# 
# 
# High freq. dielectric constant tensor:
#      x y z
#    x 1.752990 0.000000 0.000000 
#    y 0.000000 1.752990 0.000000 
#    z 0.000000 0.000000 1.750320 
# 
# From -- ./inp_files/1701.got.cif
#   From: 2010.03.12/outbox.cif.g09.slc.cpg/sg163_1_cif.got.tgz:1701.got - 2010.04.02 06:30:25.
