data_PCOD8323328
_publ_section_title
;
Structure prediction by ZEFSAII (Michael W. Deem and Ramdas Pophale) SiO2 
 PCOD8323328
Probable space group: P -3 1 C
;
_chemical_formula_sum "Si O2"
_cell_formula_units_Z 82
_cell_length_a 20.181397
_cell_length_b 20.181397
_cell_length_c 11.167432
_cell_angle_alpha 90.000000
_cell_angle_beta 90.000000
_cell_angle_gamma 120.000000
_cell_volume 3939.003801
_symmetry_space_group_name_H-M "P -3 1 C"
_symmetry_group_IT_number 163
_symmetry_cell_setting 'hexagonal'
loop_
_space_group_symop_operation_xyz
x,y,z
-y,x-y,z
-x+y,-x,z
-y,-x,1/2-z
-x+y,y,1/2-z
x,x-y,1/2-z
-x,-y,-z
y,-x+y,-z
x-y,x,-z
y,x,1/2+z
x-y,-y,1/2+z
-x,-x+y,1/2+z
loop_
_atom_site_type_symbol
_atom_site_label
_atom_site_fract_x
_atom_site_fract_y
_atom_site_fract_z
Si Si1 0.888022 0.213023 0.978040
Si Si2 0.333334 0.666668 0.888559
Si Si3 0.596556 0.180699 0.488500
Si Si4 0.309861 0.058746 0.551247
Si Si5 0.360636 0.924275 0.891804
Si Si6 0.327527 0.926167 0.283160
Si Si7 0.574774 0.425227 0.750000
Si Si8 0.449578 0.284925 0.333279
O O1 0.839963 0.121810 0.946310
O O2 0.871225 0.255233 0.867377
O O3 0.859719 0.228846 0.104068
O O4 0.979297 0.243078 0.993388
O O5 0.333334 0.666667 0.750000
O O6 0.253809 0.595159 0.934060
O O7 0.517930 0.104210 0.454687
O O8 0.611303 0.197054 0.629839
O O9 0.668445 0.178188 0.435849
O O10 0.386182 0.101936 0.469070
O O11 0.335999 0.041979 0.679991
O O12 0.345128 0.900484 0.753449
O O13 0.402264 0.015553 0.882634
O O14 0.377993 0.894030 0.222552
O O15 0.477719 0.238860 0.250000
#
# Coordination Sequence:
#
# PCOD8323328 Si02
#       8
#    12   4  12  12  12  12   6  12
#     4  11  24  42  69  97 131 169 216 266 331 398
#     4  12  27  49  62  88 126 168 235 284 325 378
#     4  12  26  42  63  91 125 176 226 284 331 382
#     4  11  23  44  68  98 132 170 215 267 333 398
#     4  11  23  38  64  91 127 171 222 272 323 385
#     4  11  24  41  62  96 136 170 216 271 328 392
#     4  12  26  42  64  92 132 178 220 274 338 390
#     4  12  22  40  63  93 125 172 223 277 329 376
#
# _framework density 20.817447000000001
#
# number of rings (size 3 to 8) (size 9 to 14) (size 15 to 20)
#    0.000    0.585    5.854    3.073    2.049    1.171 
#    2.634    0.000    0.000    0.293    0.000    0.000 
#    0.000    0.293    0.000    0.000    0.000    0.000 
#
# Total GULP energy -1016137.094677 kJ/mol
# GULP energy per Si atom -12391.915789 kJ/mol
# Density = 2.077007 g / cm^3
# Si number density = 20.817447 Si / 1000 Ang^3
#
#
#
# Elastic Constant Matrix: (Units=GPa)
#
#
# Indices 1 2 3 4 5 6 
#
# 1 96.7458 46.8824 30.2328 0.0001 -0.8664 0.0005
# 2 46.8824 96.7454 30.2323 0.0003 0.8664 -0.0002
# 3 30.2328 30.2323 136.1158 0.0000 -0.0002 0.0001
# 4 0.0001 0.0003 0.0000 28.5515 0.0001 0.8667
# 5 -0.8664 0.8664 -0.0002 0.0001 28.5512 -0.0001
# 6 0.0005 -0.0002 0.0001 0.8667 -0.0001 24.9318
#
#
#
# Elastic Compliance Matrix: (Units=1/GPa)
#
#
# Indices 1 2 3 4 5 6 
#
# 1 0.013878 -0.006198 -0.001706 0.000000 0.000609 0.000000
# 2 -0.006198 0.013878 -0.001706 0.000000 -0.000609 0.000000
# 3 -0.001706 -0.001706 0.008104 0.000000 0.000000 0.000000
# 4 0.000000 0.000000 0.000000 0.035061 0.000000 -0.001219
# 5 0.000609 -0.000609 0.000000 0.000000 0.035062 0.000000
# 6 0.000000 0.000000 0.000000 -0.001219 0.000000 0.040152
#
#
# Mechanical properties :
#
#
# Convention : Reuss Voigt Hill
#
# Bulk Modulus (GPa) = 60.08906 60.47801 60.28354
# Shear Modulus (GPa) = 29.25644 31.22421 30.24033
#
# Velocity S-wave (km/s) = 3.75291 3.87706 3.81549
# Velocity P-wave (km/s) = 6.90699 7.01119 6.95929
#
# Compressibility (1/GPa) = 0.01664197
#
# Stress axis : x y z
#
# Youngs Moduli (GPa) = 72.05494 72.05481 123.38839
#
# Poissons Ratio (x) = 0.44657 0.21050
# Poissons Ratio (y) = 0.44658 0.21049
# Poissons Ratio (z) = 0.12292 0.12292
#
# Static dielectric constant tensor:
#      x y z
#    x 3.663810 0.000000 0.000000 
#    y 0.000000 3.663810 0.000000 
#    z 0.000000 0.000000 3.989230 
# 
# 
# High freq. dielectric constant tensor:
#      x y z
#    x 1.791010 0.000000 0.000000 
#    y 0.000000 1.791010 0.000000 
#    z 0.000000 0.000000 1.840510 
# 
# From -- ./inp_files/1869.got.cif
#   From: 2010.03.12/outbox.cif.g09.slc.cpg/sg163_1_cif.got.tgz:1869.got - 2010.04.02 06:30:25.
