data_PCOD8323687
_publ_section_title
;
Structure prediction by ZEFSAII (Michael W. Deem and Ramdas Pophale) SiO2 
 PCOD8323687
Probable space group: P -3 M 1
;
_chemical_formula_sum "Si O2"
_cell_formula_units_Z 66
_cell_length_a 12.631314
_cell_length_b 12.631314
_cell_length_c 27.970931
_cell_angle_alpha 90.000000
_cell_angle_beta 90.000000
_cell_angle_gamma 120.000000
_cell_volume 3864.867560
_symmetry_space_group_name_H-M "P -3 M 1"
_symmetry_group_IT_number 164
_symmetry_cell_setting 'hexagonal'
loop_
_space_group_symop_operation_xyz
x,y,z
-y,x-y,z
-x+y,-x,z
x-y,-y,-z
-x,-x+y,-z
y,x,-z
-x,-y,-z
y,-x+y,-z
x-y,x,-z
-x+y,y,z
x,x-y,z
-y,-x,z
loop_
_atom_site_type_symbol
_atom_site_label
_atom_site_fract_x
_atom_site_fract_y
_atom_site_fract_z
Si Si1 0.913442 0.333205 0.821377
Si Si2 0.001361 0.754541 0.267705
Si Si3 0.420923 0.332255 0.539935
Si Si4 0.913398 0.580142 0.089445
Si Si5 0.753410 0.753410 0.000000
Si Si6 0.332914 0.912444 0.352589
O O1 0.889906 0.444953 0.813193
O O2 0.785410 0.214591 0.833783
O O3 0.973093 0.316192 0.773876
O O4 0.005501 0.357046 0.864341
O O5 0.870312 0.740624 0.259633
O O6 0.001483 0.691380 0.317637
O O7 0.102585 0.897415 0.267875
O O8 0.326632 0.326632 0.500000
O O9 0.438260 0.219130 0.530624
O O10 0.551471 0.448530 0.531678
O O11 0.373196 0.331877 0.593588
O O12 0.779491 0.558982 0.099056
O O13 0.901744 0.450872 0.077868
O O14 0.978356 0.668392 0.045197
O O15 0.770061 0.885031 0.010974
O O16 0.461430 0.922859 0.339966
O O17 0.228833 0.771168 0.346027
#
# Coordination Sequence:
#
# PCOD8323687 Si02
#       6
#    12  12  12  12   6  12
#     4  10  20  34  53  76 100 126 158 198 241 282
#     4  10  20  33  49  69  94 124 156 190 230 278
#     4   9  17  29  46  68  93 122 156 194 236 281
#     4  10  20  34  52  74 101 133 167 201 240 289
#     4  10  20  34  52  74 100 130 166 208 252 294
#     4   9  17  30  49  71  93 119 154 197 241 282
#
# _framework density 17.076910999999999
#
# number of rings (size 3 to 8) (size 9 to 14) (size 15 to 20)
#    0.000    2.364    0.000    2.909    0.000    2.182 
#    0.000    1.818    0.000   15.818    0.000    0.000 
#    0.000    0.000    0.000    0.000    0.000    0.000 
#
# Total GULP energy -818479.935494 kJ/mol
# GULP energy per Si atom -12401.211144 kJ/mol
# Density = 1.703804 g / cm^3
# Si number density = 17.076911 Si / 1000 Ang^3
#
#
#
# Elastic Constant Matrix: (Units=GPa)
#
#
# Indices 1 2 3 4 5 6 
#
# 1 99.5694 54.7168 62.0281 -5.1636 0.0000 0.0000
# 2 54.7168 99.5694 62.0281 5.1636 0.0000 0.0000
# 3 62.0281 62.0281 112.6501 0.0000 0.0000 0.0000
# 4 -5.1636 5.1636 0.0000 27.0043 0.0000 0.0000
# 5 0.0000 0.0000 0.0000 0.0000 27.0043 -5.1636
# 6 0.0000 0.0000 0.0000 0.0000 -5.1636 22.4263
#
#
#
# Elastic Compliance Matrix: (Units=1/GPa)
#
#
# Indices 1 2 3 4 5 6 
#
# 1 0.017476 -0.005846 -0.006404 0.004459 0.000000 0.000000
# 2 -0.005846 0.017476 -0.006404 -0.004459 0.000000 0.000000
# 3 -0.006404 -0.006404 0.015930 0.000000 0.000000 0.000000
# 4 0.004459 -0.004459 0.000000 0.038737 0.000000 0.000000
# 5 0.000000 0.000000 0.000000 0.000000 0.038737 0.008919
# 6 0.000000 0.000000 0.000000 0.000000 0.008919 0.046644
#
#
# Mechanical properties :
#
#
# Convention : Reuss Voigt Hill
#
# Bulk Modulus (GPa) = 73.66767 74.37053 74.01910
# Shear Modulus (GPa) = 23.05921 24.15470 23.60695
#
# Velocity S-wave (km/s) = 3.67865 3.76502 3.72208
# Velocity P-wave (km/s) = 7.82788 7.90856 7.86832
#
# Compressibility (1/GPa) = 0.01357447
#
# Stress axis : x y z
#
# Youngs Moduli (GPa) = 57.21972 57.21972 62.77543
#
# Poissons Ratio (x) = 0.33448 0.40203
# Poissons Ratio (y) = 0.33448 0.40203
# Poissons Ratio (z) = 0.36645 0.36645
#
# Static dielectric constant tensor:
#      x y z
#    x 3.154780 0.000000 0.000000 
#    y 0.000000 3.154780 0.000000 
#    z 0.000000 0.000000 3.448790 
# 
# 
# High freq. dielectric constant tensor:
#      x y z
#    x 1.657740 0.000000 0.000000 
#    y 0.000000 1.657740 0.000000 
#    z 0.000000 0.000000 1.674560 
# 
# From -- ./inp_files/5436.got.cif
#   From: 2010.03.12/outbox.cif.g09.slc.cpg/sg164_3_cif.got.tgz:5436.got - 2010.04.02 06:32:59.
