data_PCOD8323902
_publ_section_title
;
Structure prediction by ZEFSAII (Michael W. Deem and Ramdas Pophale) SiO2 
 PCOD8323902
Probable space group: P -3 C 1
;
_chemical_formula_sum "Si O2"
_cell_formula_units_Z 84
_cell_length_a 19.174406
_cell_length_b 19.174406
_cell_length_c 14.218408
_cell_angle_alpha 90.000000
_cell_angle_beta 90.000000
_cell_angle_gamma 120.000000
_cell_volume 4527.155810
_symmetry_space_group_name_H-M "P -3 C 1"
_symmetry_group_IT_number 165
_symmetry_cell_setting 'hexagonal'
loop_
_space_group_symop_operation_xyz
x,y,z
-y,x-y,z
-x+y,-x,z
x-y,-y,1/2-z
-x,-x+y,1/2-z
y,x,1/2-z
-x,-y,-z
y,-x+y,-z
x-y,x,-z
-x+y,y,1/2+z
x,x-y,1/2+z
-y,-x,1/2+z
loop_
_atom_site_type_symbol
_atom_site_label
_atom_site_fract_x
_atom_site_fract_y
_atom_site_fract_z
Si Si1 0.452474 0.904947 0.015781
Si Si2 0.151181 0.463550 0.874985
Si Si3 0.547472 0.094944 0.265695
Si Si4 0.000000 0.839245 0.250000
Si Si5 0.938115 0.219496 0.581772
Si Si6 0.000000 0.160755 0.250000
Si Si7 0.718619 0.938115 0.918228
Si Si8 0.463550 0.312369 0.625015
O O1 0.441410 0.882821 0.125079
O O2 0.364857 0.866470 0.969086
O O3 0.501613 0.866470 0.969086
O O4 0.500000 0.000000 0.000000
O O5 0.133214 0.498187 0.781159
O O6 0.093407 0.368069 0.872247
O O7 0.244534 0.489069 0.875235
O O8 0.498187 0.133214 0.218841
O O9 0.500000 0.000000 0.250000
O O10 0.985148 0.784176 0.160478
O O11 0.925164 0.850328 0.274737
O O12 0.863124 0.136876 0.541960
O O13 1.000000 0.268718 0.500000
O O14 0.014852 0.215824 0.339522
O O15 0.631931 0.906593 0.872247
#
# Coordination Sequence:
#
# PCOD8323902 Si02
#       8
#    12  12  12   6  12   6  12  12
#     4  11  21  40  67  91 118 167 211 250 319 387
#     4  10  23  40  60  93 125 151 202 263 305 364
#     4  11  23  40  67  93 120 169 211 252 311 381
#     4  10  21  36  54  79 112 154 196 240 290 351
#     4  10  21  35  56  83 114 150 188 240 297 346
#     4  10  21  36  54  79 112 154 196 240 290 351
#     4  10  21  35  56  83 114 150 188 240 297 346
#     4  10  23  40  60  93 125 151 202 263 305 364
#
# _framework density 18.554696
#
# number of rings (size 3 to 8) (size 9 to 14) (size 15 to 20)
#    0.000    1.714    2.857    1.857    2.000    1.143 
#    6.857    5.714    0.000    4.571    0.000    0.000 
#    0.000    0.000    0.000    0.000    0.000    0.000 
#
# Total GULP energy -1041921.687314 kJ/mol
# GULP energy per Si atom -12403.829611 kJ/mol
# Density = 1.851246 g / cm^3
# Si number density = 18.554696 Si / 1000 Ang^3
#
#
#
# Elastic Constant Matrix: (Units=GPa)
#
#
# Indices 1 2 3 4 5 6 
#
# 1 140.6612 70.9778 63.3714 -1.1872 0.0000 0.0000
# 2 70.9778 140.6612 63.3714 1.1872 0.0000 0.0000
# 3 63.3714 63.3714 142.5139 0.0000 0.0000 0.0000
# 4 -1.1872 1.1872 0.0000 19.6692 0.0000 0.0000
# 5 0.0000 0.0000 0.0000 0.0000 19.6692 -1.1872
# 6 0.0000 0.0000 0.0000 0.0000 -1.1872 34.8417
#
#
#
# Elastic Compliance Matrix: (Units=1/GPa)
#
#
# Indices 1 2 3 4 5 6 
#
# 1 0.010410 -0.003970 -0.002864 0.000868 0.000000 0.000000
# 2 -0.003970 0.010410 -0.002864 -0.000868 0.000000 0.000000
# 3 -0.002864 -0.002864 0.009564 0.000000 0.000000 0.000000
# 4 0.000868 -0.000868 0.000000 0.050946 0.000000 0.000000
# 5 0.000000 0.000000 0.000000 0.000000 0.050946 0.001736
# 6 0.000000 0.000000 0.000000 0.000000 0.001736 0.028760
#
#
# Mechanical properties :
#
#
# Convention : Reuss Voigt Hill
#
# Bulk Modulus (GPa) = 91.00059 91.03084 91.01571
# Shear Modulus (GPa) = 27.16015 29.91041 28.53528
#
# Velocity S-wave (km/s) = 3.83010 4.01934 3.92586
# Velocity P-wave (km/s) = 8.28918 8.40877 8.34919
#
# Compressibility (1/GPa) = 0.01098894
#
# Stress axis : x y z
#
# Youngs Moduli (GPa) = 96.06078 96.06078 104.56314
#
# Poissons Ratio (x) = 0.38137 0.29943
# Poissons Ratio (y) = 0.38137 0.29943
# Poissons Ratio (z) = 0.27508 0.27508
#
# Static dielectric constant tensor:
#      x y z
#    x 3.581150 0.000000 0.000000 
#    y 0.000000 3.581150 0.000000 
#    z 0.000000 0.000000 1.544310 
# 
# 
# High freq. dielectric constant tensor:
#      x y z
#    x 1.732120 0.000000 0.000000 
#    y 0.000000 1.732120 0.000000 
#    z 0.000000 0.000000 1.718910 
# 
# From -- ./inp_files/1893.got.cif
#   From: 2010.03.12/outbox.cif.g09.slc.cpg/sg165_1_cif.got.tgz:1893.got - 2010.04.02 06:36:38.
