data_PCOD8323608
_publ_section_title
;
Structure prediction by ZEFSAII (Michael W. Deem and Ramdas Pophale) SiO2 
 PCOD8323608
Probable space group: P -3 M 1
;
_chemical_formula_sum "Si O2"
_cell_formula_units_Z 60
_cell_length_a 12.919673
_cell_length_b 12.919673
_cell_length_c 25.513265
_cell_angle_alpha 90.000000
_cell_angle_beta 90.000000
_cell_angle_gamma 120.000000
_cell_volume 3688.074753
_symmetry_space_group_name_H-M "P -3 M 1"
_symmetry_group_IT_number 164
_symmetry_cell_setting 'hexagonal'
loop_
_space_group_symop_operation_xyz
x,y,z
-y,x-y,z
-x+y,-x,z
x-y,-y,-z
-x,-x+y,-z
y,x,-z
-x,-y,-z
y,-x+y,-z
x-y,x,-z
-x+y,y,z
x,x-y,z
-y,-x,z
loop_
_atom_site_type_symbol
_atom_site_label
_atom_site_fract_x
_atom_site_fract_y
_atom_site_fract_z
Si Si1 0.237898 0.237898 0.500000
Si Si2 0.756190 0.998936 0.613305
Si Si3 0.576144 0.666203 0.704312
Si Si4 0.904181 0.570873 0.912188
Si Si5 0.904214 0.570884 0.792689
Si Si6 0.000000 0.757945 0.000000
O O1 0.109159 0.218317 0.489874
O O2 0.293520 0.305218 0.555354
O O3 0.873810 0.126191 0.623216
O O4 0.791121 0.895561 0.618951
O O5 0.657034 0.982250 0.655015
O O6 0.562289 0.781145 0.710415
O O7 0.446764 0.553237 0.695291
O O8 0.638297 0.655061 0.756784
O O9 0.765799 0.531598 0.920065
O O10 0.919948 0.459974 0.928288
O O11 0.943660 0.611031 0.852436
O O12 0.989304 0.681657 0.948657
O O13 0.793628 0.587256 0.776121
O O14 0.864124 0.432062 0.785311
O O15 0.886646 0.773291 0.008451
#
# Coordination Sequence:
#
# PCOD8323608 Si02
#       6
#     6  12  12  12  12   6
#     4   8  13  22  39  64  90 112 134 166 214 266
#     4   9  16  27  45  68  91 112 137 174 220 266
#     4  10  20  32  45  61  85 119 154 183 210 247
#     4   9  17  30  49  71  92 113 140 178 223 266
#     4   9  17  30  49  71  91 111 138 177 225 269
#     4  10  20  32  46  64  90 124 156 182 208 246
#
# _framework density 16.268650000000001
#
# number of rings (size 3 to 8) (size 9 to 14) (size 15 to 20)
#    0.000    2.800    0.000    1.900    0.000    4.000 
#    0.000    0.500    0.000    1.200    0.000    0.000 
#    0.000    0.000    0.000    0.000    0.000    0.000 
#
# Total GULP energy -743692.430748 kJ/mol
# GULP energy per Si atom -12394.873846 kJ/mol
# Density = 1.623162 g / cm^3
# Si number density = 16.268650 Si / 1000 Ang^3
#
#
#
# Elastic Constant Matrix: (Units=GPa)
#
#
# Indices 1 2 3 4 5 6 
#
# 1 96.1583 57.4313 68.3321 -0.3051 0.0000 0.0000
# 2 57.4313 96.1583 68.3321 0.3051 0.0000 0.0000
# 3 68.3321 68.3321 130.5399 0.0000 0.0000 0.0000
# 4 -0.3051 0.3051 0.0000 23.8458 0.0000 0.0000
# 5 0.0000 0.0000 0.0000 0.0000 23.8458 -0.3051
# 6 0.0000 0.0000 0.0000 0.0000 -0.3051 19.3635
#
#
#
# Elastic Compliance Matrix: (Units=1/GPa)
#
#
# Indices 1 2 3 4 5 6 
#
# 1 0.019007 -0.006820 -0.006380 0.000330 0.000000 0.000000
# 2 -0.006820 0.019007 -0.006380 -0.000330 0.000000 0.000000
# 3 -0.006380 -0.006380 0.014339 0.000000 0.000000 0.000000
# 4 0.000330 -0.000330 0.000000 0.041945 0.000000 0.000000
# 5 0.000000 0.000000 0.000000 0.000000 0.041945 0.000661
# 6 0.000000 0.000000 0.000000 0.000000 0.000661 0.051654
#
#
# Mechanical properties :
#
#
# Convention : Reuss Voigt Hill
#
# Bulk Modulus (GPa) = 75.78140 79.00526 77.39333
# Shear Modulus (GPa) = 21.60258 21.99506 21.79882
#
# Velocity S-wave (km/s) = 3.64794 3.68093 3.66447
# Velocity P-wave (km/s) = 8.02656 8.16909 8.09814
#
# Compressibility (1/GPa) = 0.01319585
#
# Stress axis : x y z
#
# Youngs Moduli (GPa) = 52.61155 52.61155 69.73792
#
# Poissons Ratio (x) = 0.35880 0.44490
# Poissons Ratio (y) = 0.35880 0.44490
# Poissons Ratio (z) = 0.33564 0.33564
#
# Static dielectric constant tensor:
#      x y z
#    x 2.918500 0.000000 0.000000 
#    y 0.000000 2.918500 0.000000 
#    z 0.000000 0.000000 3.325820 
# 
# 
# High freq. dielectric constant tensor:
#      x y z
#    x 1.613640 0.000000 0.000000 
#    y 0.000000 1.613640 0.000000 
#    z 0.000000 0.000000 1.642370 
# 
# From -- ./inp_files/5215.got.cif
#   From: 2010.03.12/outbox.cif.g09.slc.cpg/sg164_3_cif.got.tgz:5215.got - 2010.04.02 06:32:59.
