data_PCOD8323090
_publ_section_title
;
Structure prediction by ZEFSAII (Michael W. Deem and Ramdas Pophale) SiO2 
 PCOD8323090
Probable space group: P -3 1 M 
;
_chemical_formula_sum "Si O2"
_cell_formula_units_Z 96
_cell_length_a 15.194558
_cell_length_b 15.194558
_cell_length_c 25.551003
_cell_angle_alpha 90.000000
_cell_angle_beta 90.000000
_cell_angle_gamma 120.000000
_cell_volume 5108.750899
_symmetry_space_group_name_H-M "P -3 1 M "
_symmetry_group_IT_number 162
_symmetry_cell_setting 'hexagonal'
loop_
_space_group_symop_operation_xyz
x,y,z
-y,x-y,z
-x+y,-x,z
-y,-x,-z
-x+y,y,-z
x,x-y,-z
-x,-y,-z
y,-x+y,-z
x-y,x,-z
y,x,z
x-y,-y,z
-x,-x+y,z
loop_
_atom_site_type_symbol
_atom_site_label
_atom_site_fract_x
_atom_site_fract_y
_atom_site_fract_z
Si Si1 0.460807 0.714038 0.771941
Si Si2 0.887909 0.443961 0.437782
Si Si3 0.221135 0.763748 0.886656
Si Si4 0.237454 0.118580 0.153324
Si Si5 0.117313 0.882602 0.627213
Si Si6 0.116289 0.793956 0.264024
Si Si7 0.453667 0.569228 0.938608
Si Si8 0.216750 0.433538 0.437810
O O1 0.405259 0.781100 0.762483
O O2 0.498365 0.727887 0.831130
O O3 0.555910 0.746498 0.733716
O O4 0.887207 0.443604 0.500000
O O5 0.818197 0.488289 0.417788
O O6 0.849483 0.331146 0.416717
O O7 0.000000 0.515358 0.415271
O O8 0.153982 0.818955 0.883997
O O9 0.312018 0.821903 0.926934
O O10 0.153105 0.649414 0.906321
O O11 0.181201 0.181201 0.138572
O O12 0.272848 0.135948 0.213558
O O13 0.159763 0.000000 0.144206
O O14 0.134210 0.858368 0.686135
O O15 0.179901 0.855318 0.586688
O O16 0.000000 0.816883 0.612675
O O17 0.151829 0.000000 0.620516
O O18 0.000000 0.701772 0.264983
O O19 0.527274 0.527274 0.921665
O O20 0.436330 0.563671 0.000000
O O21 0.210168 0.420336 0.500000
#
# Coordination Sequence:
#
# PCOD8323090 Si02
#       8
#    12  12  12  12  12  12  12  12
#     4   9  17  35  57  82 111 147 183 222 281 348
#     4   9  17  31  51  76 106 137 171 214 266 318
#     4  11  19  36  54  81 113 150 184 230 281 337
#     4  10  20  35  58  83 110 143 190 245 292 338
#     4  11  23  40  59  81 113 151 192 235 283 338
#     4   9  20  37  56  81 113 149 189 231 282 342
#     4  11  22  34  52  79 111 150 191 226 271 331
#     4  10  20  36  59  85 112 145 187 233 278 332
#
# _framework density 18.791285999999999
#
# number of rings (size 3 to 8) (size 9 to 14) (size 15 to 20)
#    0.250    1.750    1.250    3.000    0.000    3.000 
#    2.250    2.500    0.000    0.750    0.000    0.000 
#    0.000    6.000    0.000    0.000    0.000    0.000 
#
# Total GULP energy -1190381.995854 kJ/mol
# GULP energy per Si atom -12399.812457 kJ/mol
# Density = 1.874852 g / cm^3
# Si number density = 18.791286 Si / 1000 Ang^3
#
#
#
# Elastic Constant Matrix: (Units=GPa)
#
#
# Indices 1 2 3 4 5 6 
#
# 1 94.0958 31.8938 13.5197 -0.0002 -0.5905 0.0000
# 2 31.8938 94.0958 13.5197 0.0002 0.5905 0.0000
# 3 13.5197 13.5197 33.3216 0.0000 0.0000 0.0000
# 4 -0.0002 0.0002 0.0000 17.4054 0.0000 0.5905
# 5 -0.5905 0.5905 0.0000 0.0000 17.4054 -0.0002
# 6 0.0000 0.0000 0.0000 0.5905 -0.0002 31.1010
#
#
#
# Elastic Compliance Matrix: (Units=1/GPa)
#
#
# Indices 1 2 3 4 5 6 
#
# 1 0.012391 -0.003696 -0.003528 0.000000 0.000546 0.000000
# 2 -0.003696 0.012391 -0.003528 0.000000 -0.000546 0.000000
# 3 -0.003528 -0.003528 0.032873 0.000000 0.000000 0.000000
# 4 0.000000 0.000000 0.000000 0.057491 0.000000 -0.001092
# 5 0.000546 -0.000546 0.000000 0.000000 0.057491 0.000000
# 6 0.000000 0.000000 0.000000 -0.001092 0.000000 0.032174
#
#
# Mechanical properties :
#
#
# Convention : Reuss Voigt Hill
#
# Bulk Modulus (GPa) = 27.66151 37.70886 32.68518
# Shear Modulus (GPa) = 20.97643 24.02101 22.49872
#
# Velocity S-wave (km/s) = 3.34471 3.57922 3.46395
# Velocity P-wave (km/s) = 5.44688 6.09851 5.78188
#
# Compressibility (1/GPa) = 0.03615132
#
# Stress axis : x y z
#
# Youngs Moduli (GPa) = 80.70614 80.70614 30.42006
#
# Poissons Ratio (x) = 0.29832 0.10731
# Poissons Ratio (y) = 0.29832 0.10731
# Poissons Ratio (z) = 0.28469 0.28469
#
# Static dielectric constant tensor:
#      x y z
#    x 3.566480 0.000000 0.000000 
#    y 0.000000 3.566480 0.000000 
#    z 0.000000 0.000000 3.261950 
# 
# 
# High freq. dielectric constant tensor:
#      x y z
#    x 1.738370 0.000000 0.000000 
#    y 0.000000 1.738370 0.000000 
#    z 0.000000 0.000000 1.707130 
# 
# From -- ./inp_files/4076.got.cif
#   From: 2010.03.12/outbox.cif.g09.slc.cpg/sg162_3_cif.got.tgz:4076.got - 2010.04.02 06:27:41.
