data_PCOD8323067
_publ_section_title
;
Structure prediction by ZEFSAII (Michael W. Deem and Ramdas Pophale) SiO2 
 PCOD8323067
Probable space group: P -3 1 M 
;
_chemical_formula_sum "Si O2"
_cell_formula_units_Z 52
_cell_length_a 13.395219
_cell_length_b 13.395219
_cell_length_c 17.084979
_cell_angle_alpha 90.000000
_cell_angle_beta 90.000000
_cell_angle_gamma 120.000000
_cell_volume 2654.878911
_symmetry_space_group_name_H-M "P -3 1 M "
_symmetry_group_IT_number 162
_symmetry_cell_setting 'hexagonal'
loop_
_space_group_symop_operation_xyz
x,y,z
-y,x-y,z
-x+y,-x,z
-y,-x,-z
-x+y,y,-z
x,x-y,-z
-x,-y,-z
y,-x+y,-z
x-y,x,-z
y,x,z
x-y,-y,z
-x,-x+y,z
loop_
_atom_site_type_symbol
_atom_site_label
_atom_site_fract_x
_atom_site_fract_y
_atom_site_fract_z
Si Si1 0.866172 0.735300 0.737076
Si Si2 0.784016 0.188728 0.587298
Si Si3 0.666668 0.333334 0.092227
Si Si4 0.521079 0.865784 0.189593
Si Si5 0.550182 0.124873 0.647111
O O1 0.835542 0.835542 0.752264
O O2 0.841613 0.700117 0.645642
O O3 0.784656 0.622582 0.788628
O O4 0.000000 0.783552 0.759016
O O5 0.822406 0.177595 0.500000
O O6 0.650357 0.107748 0.609402
O O7 0.796322 0.314560 0.595031
O O8 0.783993 0.446826 0.119140
O O9 0.666668 0.333334 0.000000
O O10 0.431026 0.833112 0.262451
O O11 0.576565 0.000000 0.165055
O O12 0.435009 0.000000 0.648085
#
# Coordination Sequence:
#
# PCOD8323067 Si02
#       5
#    12  12   4  12  12
#     4  10  21  37  57  78 103 142 191 240 285 333
#     4  11  21  31  46  72 104 138 179 230 289 341
#     4  12  24  36  60  96 127 152 172 204 267 336
#     4   9  20  39  59  82 112 146 188 228 264 318
#     4  10  20  34  52  70  94 135 182 224 262 310
#
# _framework density 19.586580999999999
#
# number of rings (size 3 to 8) (size 9 to 14) (size 15 to 20)
#    0.000    1.846    0.000    6.923    0.000    7.846 
#    0.000    0.000    0.000    1.385    0.000    0.000 
#    0.000    4.615    0.000    0.000    0.000    0.000 
#
# Total GULP energy -644526.887104 kJ/mol
# GULP energy per Si atom -12394.747829 kJ/mol
# Density = 1.954200 g / cm^3
# Si number density = 19.586581 Si / 1000 Ang^3
#
#
#
# Elastic Constant Matrix: (Units=GPa)
#
#
# Indices 1 2 3 4 5 6 
#
# 1 100.6628 39.2640 44.8844 0.0001 -2.9629 0.0001
# 2 39.2640 100.6633 44.8847 0.0000 2.9632 0.0002
# 3 44.8844 44.8847 120.1057 0.0004 0.0005 0.0002
# 4 0.0001 0.0000 0.0004 8.3560 0.0001 2.9630
# 5 -2.9629 2.9632 0.0005 0.0001 8.3560 -0.0001
# 6 0.0001 0.0002 0.0002 2.9630 -0.0001 30.6996
#
#
#
# Elastic Compliance Matrix: (Units=1/GPa)
#
#
# Indices 1 2 3 4 5 6 
#
# 1 0.013132 -0.003732 -0.003513 0.000000 0.005980 0.000000
# 2 -0.003732 0.013132 -0.003513 0.000000 -0.005980 0.000000
# 3 -0.003513 -0.003513 0.010952 0.000000 0.000000 0.000000
# 4 0.000000 0.000000 0.000000 0.123915 -0.000001 -0.011960
# 5 0.005980 -0.005980 0.000000 -0.000001 0.123916 0.000000
# 6 0.000000 0.000000 0.000000 -0.011960 0.000000 0.033728
#
#
# Mechanical properties :
#
#
# Convention : Reuss Voigt Hill
#
# Bulk Modulus (GPa) = 63.69280 64.38867 64.04073
# Shear Modulus (GPa) = 14.47079 22.30889 18.38984
#
# Velocity S-wave (km/s) = 2.72106 3.37855 3.06747
# Velocity P-wave (km/s) = 6.51624 6.94008 6.73150
#
# Compressibility (1/GPa) = 0.01570036
#
# Stress axis : x y z
#
# Youngs Moduli (GPa) = 76.14868 76.14886 91.31032
#
# Poissons Ratio (x) = 0.28418 0.32077
# Poissons Ratio (y) = 0.28418 0.32077
# Poissons Ratio (z) = 0.26751 0.26751
#
# Static dielectric constant tensor:
#      x y z
#    x 3.536280 -0.000010 0.000000 
#    y -0.000010 3.536280 -0.000010 
#    z 0.000000 -0.000010 3.108730 
# 
# 
# High freq. dielectric constant tensor:
#      x y z
#    x 1.770780 0.000000 0.000000 
#    y 0.000000 1.770780 0.000000 
#    z 0.000000 0.000000 1.710980 
# 
# From -- ./inp_files/2872.got.cif
#   From: 2010.03.12/outbox.cif.g09.slc.cpg/sg162_2_cif.got.tgz:2872.got - 2010.04.02 06:27:41.
