data_PCOD8323977
_publ_section_title
;
Structure prediction by ZEFSAII (Michael W. Deem and Ramdas Pophale) SiO2 
 PCOD8323977
Probable space group: R -3 M
;
_chemical_formula_sum "Si O2"
_cell_formula_units_Z 270
_cell_length_a 26.597743
_cell_length_b 26.597743
_cell_length_c 29.815994
_cell_angle_alpha 90.000000
_cell_angle_beta 90.000000
_cell_angle_gamma 120.000000
_cell_volume 18267.095310
_symmetry_space_group_name_H-M "R -3 M"
_symmetry_group_IT_number 166
_symmetry_cell_setting 'hexagonal'
loop_
_space_group_symop_operation_xyz
x,y,z
-y,x-y,z
-x+y,-x,z
x-y,-y,-z
-x,-x+y,-z
y,x,-z
-x,-y,-z
y,-x+y,-z
x-y,x,-z
-x+y,y,z
x,x-y,z
-y,-x,z
2/3+x,1/3+y,1/3+z
2/3-y,1/3+x-y,1/3+z
2/3-x+y,1/3-x,1/3+z
2/3+x-y,1/3-y,1/3-z
2/3-x,1/3-x+y,1/3-z
2/3+y,1/3+x,1/3-z
2/3-x,1/3-y,1/3-z
2/3+y,1/3-x+y,1/3-z
2/3+x-y,1/3+x,1/3-z
2/3-x+y,1/3+y,1/3+z
2/3+x,1/3+x-y,1/3+z
2/3-y,1/3-x,1/3+z
1/3+x,2/3+y,2/3+z
1/3-y,2/3+x-y,2/3+z
1/3-x+y,2/3-x,2/3+z
1/3+x-y,2/3-y,2/3-z
1/3-x,2/3-x+y,2/3-z
1/3+y,2/3+x,2/3-z
1/3-x,2/3-y,2/3-z
1/3+y,2/3-x+y,2/3-z
1/3+x-y,2/3+x,2/3-z
1/3-x+y,2/3+y,2/3+z
1/3+x,2/3+x-y,2/3+z
1/3-y,2/3-x,2/3+z
loop_
_atom_site_type_symbol
_atom_site_label
_atom_site_fract_x
_atom_site_fract_y
_atom_site_fract_z
Si Si1 0.595726 0.595726 0.000000
Si Si2 0.062034 0.826539 0.622610
Si Si3 0.788624 0.689712 0.294670
Si Si4 0.423063 0.267312 0.734000
Si Si5 0.062153 0.819615 0.018493
Si Si6 0.246013 0.926126 0.097025
Si Si7 0.999535 0.701794 0.246549
Si Si8 0.884975 0.227346 0.530960
O O1 0.584202 0.537473 0.975124
O O2 0.619704 0.647483 0.964708
O O3 0.104605 0.895396 0.615248
O O4 0.062561 0.809633 0.674478
O O5 0.086934 0.792212 0.595688
O O6 0.998705 0.810078 0.604737
O O7 0.842962 0.685923 0.277030
O O8 0.745084 0.631415 0.321194
O O9 0.758393 0.694199 0.248940
O O10 0.449468 0.224734 0.734393
O O11 0.388066 0.260639 0.780370
O O12 0.111918 0.888083 0.016622
O O13 0.055891 0.795559 0.069768
O O14 0.000000 0.809733 0.000000
O O15 0.219302 0.897985 0.144585
O O16 0.310443 0.980119 0.104972
O O17 0.041341 0.758308 0.216860
O O18 0.818733 0.181268 0.546054
#
# Coordination Sequence:
#
# PCOD8323977 Si02
#       8
#    18  36  36  36  36  36  36  36
#     4  10  15  28  42  64  90 112 144 176 219 270
#     4  10  18  28  44  63  84 113 147 183 222 264
#     4   9  17  29  44  66  91 115 146 183 215 262
#     4  10  19  29  43  62  89 117 146 184 225 266
#     4  10  18  29  48  69  90 116 149 188 223 266
#     4  11  18  31  45  63  91 120 150 180 220 263
#     4  11  17  27  48  64  91 120 146 184 222 260
#     4  10  21  31  41  63  90 121 155 180 216 266
#
# _framework density 14.780675
#
# number of rings (size 3 to 8) (size 9 to 14) (size 15 to 20)
#    0.000    1.867    5.333    3.400    0.000    0.533 
#    0.000    0.000    0.000    2.800    0.000    0.000 
#    0.000    0.000    0.000    4.667    0.000    1.733 
#
# Total GULP energy -1115270.879007 kJ/mol
# GULP energy per Si atom -12391.898656 kJ/mol
# Density = 1.474703 g / cm^3
# Si number density = 14.780675 Si / 1000 Ang^3
#
#
#
# Elastic Constant Matrix: (Units=GPa)
#
#
# Indices 1 2 3 4 5 6 
#
# 1 80.0811 39.0834 28.1735 1.0616 0.0000 0.0000
# 2 39.0834 80.0811 28.1735 -1.0616 0.0000 0.0000
# 3 28.1735 28.1735 45.6420 0.0000 0.0000 0.0000
# 4 1.0616 -1.0616 0.0000 11.9541 0.0000 0.0000
# 5 0.0000 0.0000 0.0000 0.0000 11.9541 1.0616
# 6 0.0000 0.0000 0.0000 0.0000 1.0616 20.4988
#
#
#
# Elastic Compliance Matrix: (Units=1/GPa)
#
#
# Indices 1 2 3 4 5 6 
#
# 1 0.018178 -0.006327 -0.007315 -0.002176 0.000000 0.000000
# 2 -0.006327 0.018178 -0.007315 0.002176 0.000000 0.000000
# 3 -0.007315 -0.007315 0.030940 0.000000 0.000000 0.000000
# 4 -0.002176 0.002176 0.000000 0.084040 0.000000 0.000000
# 5 0.000000 0.000000 0.000000 0.000000 0.084040 -0.004352
# 6 0.000000 0.000000 0.000000 0.000000 -0.004352 0.049009
#
#
# Mechanical properties :
#
#
# Convention : Reuss Voigt Hill
#
# Bulk Modulus (GPa) = 39.39883 44.07387 41.73635
# Shear Modulus (GPa) = 14.93614 16.23965 15.58789
#
# Velocity S-wave (km/s) = 3.18231 3.31827 3.25100
# Velocity P-wave (km/s) = 6.34163 6.67567 6.51079
#
# Compressibility (1/GPa) = 0.02538146
#
# Stress axis : x y z
#
# Youngs Moduli (GPa) = 55.01302 55.01302 32.32020
#
# Poissons Ratio (x) = 0.34806 0.23642
# Poissons Ratio (y) = 0.34806 0.23642
# Poissons Ratio (z) = 0.40242 0.40242
#
# Static dielectric constant tensor:
#      x y z
#    x 2.795180 0.000000 0.000000 
#    y 0.000000 2.795180 0.000000 
#    z 0.000000 0.000000 2.845290 
# 
# 
# High freq. dielectric constant tensor:
#      x y z
#    x 1.544340 0.000000 0.000000 
#    y 0.000000 1.544340 0.000000 
#    z 0.000000 0.000000 1.556310 
# 
# From -- ./inp_files/9870.got.cif
#   From: 2010.03.12/outbox.cif.g09.slc.cpg/sg166_5_cif.got.tgz:9870.got - 2010.04.02 06:38:31.
