data_PCOD8323577
_publ_section_title
;
Structure prediction by ZEFSAII (Michael W. Deem and Ramdas Pophale) SiO2 
 PCOD8323577
Probable space group: P -3 M 1
;
_chemical_formula_sum "Si O2"
_cell_formula_units_Z 84
_cell_length_a 17.618686
_cell_length_b 17.618686
_cell_length_c 18.206235
_cell_angle_alpha 90.000000
_cell_angle_beta 90.000000
_cell_angle_gamma 120.000000
_cell_volume 4894.381377
_symmetry_space_group_name_H-M "P -3 M 1"
_symmetry_group_IT_number 164
_symmetry_cell_setting 'hexagonal'
loop_
_space_group_symop_operation_xyz
x,y,z
-y,x-y,z
-x+y,-x,z
x-y,-y,-z
-x,-x+y,-z
y,x,-z
-x,-y,-z
y,-x+y,-z
x-y,x,-z
-x+y,y,z
x,x-y,z
-y,-x,z
loop_
_atom_site_type_symbol
_atom_site_label
_atom_site_fract_x
_atom_site_fract_y
_atom_site_fract_z
Si Si1 0.088500 0.742868 0.966630
Si Si2 0.842162 0.508194 0.634742
Si Si3 0.084030 0.748814 0.794569
Si Si4 0.001396 0.825790 0.698235
Si Si5 0.667036 0.511234 0.919698
Si Si6 0.609673 0.561659 0.777021
Si Si7 0.240789 0.306771 0.433280
O O1 0.159479 0.840522 0.989067
O O2 0.081615 0.730271 0.880215
O O3 0.114196 0.675109 0.003700
O O4 0.000000 0.731134 0.000000
O O5 0.740785 0.481570 0.632690
O O6 0.850825 0.425413 0.607505
O O7 0.875697 0.534305 0.717656
O O8 0.900523 0.591496 0.583272
O O9 0.185652 0.814349 0.769417
O O10 0.027690 0.795133 0.773025
O O11 0.038431 0.653789 0.756138
O O12 0.916715 0.833429 0.715751
O O13 0.983371 0.754045 0.636176
O O14 0.080009 0.919992 0.671694
O O15 0.751615 0.503229 0.902574
O O16 0.585355 0.414646 0.925519
O O17 0.655296 0.566728 0.854816
O O18 0.507138 0.492863 0.779551
O O19 0.279001 0.279001 0.500000
O O20 0.146999 0.293997 0.455868
#
# Coordination Sequence:
#
# PCOD8323577 Si02
#       7
#    12  12  12  12  12  12  12
#     4  10  20  33  49  70  96 130 169 210 254 302
#     4  10  20  34  53  79 110 142 174 211 258 308
#     4  10  20  34  50  73 101 132 172 214 253 299
#     4  10  20  34  54  77 104 135 169 211 261 315
#     4  10  20  32  50  75 105 136 168 211 263 317
#     4  10  19  32  53  78 103 134 171 214 261 311
#     4  10  20  34  54  80 110 140 171 208 250 301
#
# _framework density 17.162535999999999
#
# number of rings (size 3 to 8) (size 9 to 14) (size 15 to 20)
#    0.000    2.000    2.857    1.286    0.000    2.286 
#    0.000    1.429    0.000    2.714    0.000    0.000 
#    0.000    0.000    0.000    0.000    0.000    0.000 
#
# Total GULP energy -1041342.822181 kJ/mol
# GULP energy per Si atom -12396.938359 kJ/mol
# Density = 1.712347 g / cm^3
# Si number density = 17.162536 Si / 1000 Ang^3
#
#
#
# Elastic Constant Matrix: (Units=GPa)
#
#
# Indices 1 2 3 4 5 6 
#
# 1 113.6410 64.7689 36.7356 0.0567 0.0000 0.0000
# 2 64.7689 113.6410 36.7356 -0.0567 0.0000 0.0000
# 3 36.7356 36.7356 68.2406 0.0000 0.0000 0.0000
# 4 0.0567 -0.0567 0.0000 25.6250 0.0000 0.0000
# 5 0.0000 0.0000 0.0000 0.0000 25.6250 0.0567
# 6 0.0000 0.0000 0.0000 0.0000 0.0567 24.4361
#
#
#
# Elastic Compliance Matrix: (Units=1/GPa)
#
#
# Indices 1 2 3 4 5 6 
#
# 1 0.013832 -0.006630 -0.003877 -0.000045 0.000000 0.000000
# 2 -0.006630 0.013832 -0.003877 0.000045 0.000000 0.000000
# 3 -0.003877 -0.003877 0.018828 0.000000 0.000000 0.000000
# 4 -0.000045 0.000045 0.000000 0.039025 0.000000 0.000000
# 5 0.000000 0.000000 0.000000 0.000000 0.039025 -0.000091
# 6 0.000000 0.000000 0.000000 0.000000 -0.000091 0.040923
#
#
# Mechanical properties :
#
#
# Convention : Reuss Voigt Hill
#
# Bulk Modulus (GPa) = 56.42073 63.55585 59.98829
# Shear Modulus (GPa) = 24.98263 25.62270 25.30267
#
# Velocity S-wave (km/s) = 3.81944 3.86805 3.84382
# Velocity P-wave (km/s) = 7.23854 7.55389 7.39790
#
# Compressibility (1/GPa) = 0.01772398
#
# Stress axis : x y z
#
# Youngs Moduli (GPa) = 72.29812 72.29812 53.11246
#
# Poissons Ratio (x) = 0.47934 0.20591
# Poissons Ratio (y) = 0.47934 0.20591
# Poissons Ratio (z) = 0.28028 0.28028
#
# Static dielectric constant tensor:
#      x y z
#    x 3.330850 0.000000 0.000000 
#    y 0.000000 3.330850 0.000000 
#    z 0.000000 0.000000 3.099020 
# 
# 
# High freq. dielectric constant tensor:
#      x y z
#    x 1.667350 0.000000 0.000000 
#    y 0.000000 1.667350 0.000000 
#    z 0.000000 0.000000 1.648620 
# 
# From -- ./inp_files/3615.got.cif
#   From: 2010.03.12/outbox.cif.g09.slc.cpg/sg164_2_cif.got.tgz:3615.got - 2010.04.02 06:32:59.
