data_PCOD8323073
_publ_section_title
;
Structure prediction by ZEFSAII (Michael W. Deem and Ramdas Pophale) SiO2 
 PCOD8323073
Probable space group: P -3 1 M 
;
_chemical_formula_sum "Si O2"
_cell_formula_units_Z 84
_cell_length_a 17.406033
_cell_length_b 17.406033
_cell_length_c 16.352368
_cell_angle_alpha 90.000000
_cell_angle_beta 90.000000
_cell_angle_gamma 120.000000
_cell_volume 4290.529466
_symmetry_space_group_name_H-M "P -3 1 M "
_symmetry_group_IT_number 162
_symmetry_cell_setting 'hexagonal'
loop_
_space_group_symop_operation_xyz
x,y,z
-y,x-y,z
-x+y,-x,z
-y,-x,-z
-x+y,y,-z
x,x-y,-z
-x,-y,-z
y,-x+y,-z
x-y,x,-z
y,x,z
x-y,-y,z
-x,-x+y,z
loop_
_atom_site_type_symbol
_atom_site_label
_atom_site_fract_x
_atom_site_fract_y
_atom_site_fract_z
Si Si1 0.610030 0.768902 0.154951
Si Si2 0.353375 0.454527 0.197516
Si Si3 0.734379 0.632545 0.330157
Si Si4 0.103824 0.590458 0.917695
Si Si5 0.376425 0.101671 0.636308
Si Si6 0.895927 0.364940 0.482387
Si Si7 0.100386 0.199547 0.905298
O O1 0.574974 0.837314 0.152086
O O2 0.593779 0.712952 0.238777
O O3 0.553159 0.695733 0.087386
O O4 0.715116 0.825377 0.141863
O O5 0.386162 0.386162 0.171929
O O6 0.424286 0.552147 0.163586
O O7 0.336946 0.449783 0.295525
O O8 0.710709 0.710709 0.343402
O O9 0.839437 0.669569 0.343858
O O10 0.676632 0.550821 0.391738
O O11 0.000000 0.547708 0.927243
O O12 0.143383 0.571692 0.000000
O O13 0.427374 0.138767 0.550915
O O14 0.297524 0.000000 0.631729
O O15 0.851244 0.425622 0.500000
O O16 0.000000 0.424892 0.496199
O O17 0.118852 0.118852 0.889130
O O18 0.000000 0.168080 0.875539
O O19 0.112547 0.225094 0.000000
#
# Coordination Sequence:
#
# PCOD8323073 Si02
#       7
#    12  12  12  12  12  12  12
#     4  11  22  37  58  84 111 150 193 240 287 342
#     4   9  20  37  57  81 112 150 189 233 280 336
#     4  10  20  34  55  85 116 146 188 236 279 331
#     4  10  22  37  55  78 107 143 188 238 289 340
#     4   9  18  34  56  83 115 152 190 226 279 336
#     4   9  18  31  53  81 107 138 179 226 277 334
#     4  10  21  36  58  86 119 155 196 247 300 353
#
# _framework density 19.578002999999999
#
# number of rings (size 3 to 8) (size 9 to 14) (size 15 to 20)
#    0.000    2.286    0.000    2.286    4.000    1.143 
#    0.857    0.000    0.000    2.571    0.000    0.000 
#    0.000    3.429    0.000    0.000    0.000    0.000 
#
# Total GULP energy -1041174.948177 kJ/mol
# GULP energy per Si atom -12394.939859 kJ/mol
# Density = 1.953344 g / cm^3
# Si number density = 19.578003 Si / 1000 Ang^3
#
#
#
# Elastic Constant Matrix: (Units=GPa)
#
#
# Indices 1 2 3 4 5 6 
#
# 1 97.0549 44.5808 42.6906 0.0000 1.5520 0.0000
# 2 44.5808 97.0549 42.6906 0.0000 -1.5520 0.0000
# 3 42.6906 42.6906 99.3598 0.0000 0.0000 0.0000
# 4 0.0000 0.0000 0.0000 26.2043 0.0000 -1.5520
# 5 1.5520 -1.5520 0.0000 0.0000 26.2043 0.0000
# 6 0.0000 0.0000 0.0000 -1.5520 0.0000 26.2370
#
#
#
# Elastic Compliance Matrix: (Units=1/GPa)
#
#
# Indices 1 2 3 4 5 6 
#
# 1 0.014326 -0.004798 -0.004094 0.000000 -0.001133 0.000000
# 2 -0.004798 0.014326 -0.004094 0.000000 0.001133 0.000000
# 3 -0.004094 -0.004094 0.013582 0.000000 0.000000 0.000000
# 4 0.000000 0.000000 0.000000 0.038296 0.000000 0.002265
# 5 -0.001133 0.001133 0.000000 0.000000 0.038296 0.000000
# 6 0.000000 0.000000 0.000000 0.002265 0.000000 0.038248
#
#
# Mechanical properties :
#
#
# Convention : Reuss Voigt Hill
#
# Bulk Modulus (GPa) = 61.48795 61.48817 61.48806
# Shear Modulus (GPa) = 26.52989 26.62965 26.57977
#
# Velocity S-wave (km/s) = 3.68514 3.69207 3.68861
# Velocity P-wave (km/s) = 7.04144 7.04628 7.04386
#
# Compressibility (1/GPa) = 0.01626335
#
# Stress axis : x y z
#
# Youngs Moduli (GPa) = 69.80249 69.80249 73.62490
#
# Poissons Ratio (x) = 0.33490 0.30141
# Poissons Ratio (y) = 0.33490 0.30141
# Poissons Ratio (z) = 0.28576 0.28576
#
# Static dielectric constant tensor:
#      x y z
#    x 3.480050 0.000000 0.000000 
#    y 0.000000 3.480050 0.000000 
#    z 0.000000 0.000000 3.720350 
# 
# 
# High freq. dielectric constant tensor:
#      x y z
#    x 1.749870 0.000000 0.000000 
#    y 0.000000 1.749870 0.000000 
#    z 0.000000 0.000000 1.767660 
# 
# From -- ./inp_files/3190.got.cif
#   From: 2010.03.12/outbox.cif.g09.slc.cpg/sg162_2_cif.got.tgz:3190.got - 2010.04.02 06:27:41.
