data_PCOD8323334
_publ_section_title
;
Structure prediction by ZEFSAII (Michael W. Deem and Ramdas Pophale) SiO2 
 PCOD8323334
Probable space group: P -3 1 C
;
_chemical_formula_sum "Si O2"
_cell_formula_units_Z 60
_cell_length_a 11.548098
_cell_length_b 11.548098
_cell_length_c 27.302469
_cell_angle_alpha 90.000000
_cell_angle_beta 90.000000
_cell_angle_gamma 120.000000
_cell_volume 3153.214216
_symmetry_space_group_name_H-M "P -3 1 C"
_symmetry_group_IT_number 163
_symmetry_cell_setting 'hexagonal'
loop_
_space_group_symop_operation_xyz
x,y,z
-y,x-y,z
-x+y,-x,z
-y,-x,1/2-z
-x+y,y,1/2-z
x,x-y,1/2-z
-x,-y,-z
y,-x+y,-z
x-y,x,-z
y,x,1/2+z
x-y,-y,1/2+z
-x,-x+y,1/2+z
loop_
_atom_site_type_symbol
_atom_site_label
_atom_site_fract_x
_atom_site_fract_y
_atom_site_fract_z
Si Si1 0.970779 0.241079 0.447897
Si Si2 0.000000 0.000000 0.557147
Si Si3 0.903526 0.830456 0.194065
Si Si4 0.333334 0.666668 0.606055
Si Si5 0.333334 0.666668 0.011152
Si Si6 0.391034 0.126610 0.550112
Si Si7 0.874253 0.612063 0.383861
O O1 0.956078 0.241853 0.506665
O O2 0.845343 0.238449 0.421908
O O3 0.117210 0.361678 0.433071
O O4 0.957762 0.105141 0.424578
O O5 0.000000 0.000000 0.500000
O O6 0.891486 0.782972 0.250000
O O7 0.816975 0.697840 0.162941
O O8 0.849672 0.935209 0.183623
O O9 0.333334 0.666667 0.546883
O O10 0.195104 0.544899 0.628181
O O11 0.194540 0.543503 0.031832
O O12 0.360886 0.020188 0.592994
#
# Coordination Sequence:
#
# PCOD8323334 Si02
#       7
#    12   4  12   4   4  12  12
#     4  12  19  31  54  79 110 145 196 257 290 339
#     4  12  15  27  45  84 100 122 187 246 303 321
#     4   8  18  39  67  97 117 136 183 259 325 363
#     4  12  27  39  52  82 132 174 214 235 291 367
#     4  12  27  42  48  73 127 190 211 240 285 358
#     4  12  23  36  55  77 114 159 211 249 292 345
#     4  12  23  37  57  86 117 159 202 250 299 358
#
# _framework density 19.028203999999999
#
# number of rings (size 3 to 8) (size 9 to 14) (size 15 to 20)
#    0.400    0.400    8.000    1.200    2.800    1.600 
#    0.000    1.000    0.000    0.000    0.000    0.000 
#    0.000    0.000    0.000    0.000    0.000    0.000 
#
# Total GULP energy -743433.018279 kJ/mol
# GULP energy per Si atom -12390.550305 kJ/mol
# Density = 1.898490 g / cm^3
# Si number density = 19.028204 Si / 1000 Ang^3
#
#
#
# Elastic Constant Matrix: (Units=GPa)
#
#
# Indices 1 2 3 4 5 6 
#
# 1 85.4077 36.3482 30.8814 0.0001 2.9348 -0.0002
# 2 36.3482 85.4072 30.8813 0.0003 -2.9346 -0.0003
# 3 30.8814 30.8813 74.9885 0.0000 0.0000 -0.0001
# 4 0.0001 0.0003 0.0000 18.4515 0.0000 -2.9346
# 5 2.9348 -2.9346 0.0000 0.0000 18.4515 0.0001
# 6 -0.0002 -0.0003 -0.0001 -2.9346 0.0001 24.5295
#
#
#
# Elastic Compliance Matrix: (Units=1/GPa)
#
#
# Indices 1 2 3 4 5 6 
#
# 1 0.015580 -0.005198 -0.004275 0.000000 -0.003305 0.000000
# 2 -0.005198 0.015580 -0.004275 0.000000 0.003305 0.000000
# 3 -0.004275 -0.004275 0.016857 0.000000 0.000000 0.000000
# 4 0.000000 0.000000 0.000000 0.055247 0.000000 0.006609
# 5 -0.003305 0.003305 0.000000 0.000000 0.055247 0.000000
# 6 0.000000 0.000000 0.000000 0.006609 0.000000 0.041558
#
#
# Mechanical properties :
#
#
# Convention : Reuss Voigt Hill
#
# Bulk Modulus (GPa) = 48.73555 49.11394 48.92474
# Shear Modulus (GPa) = 21.33028 22.13268 21.73148
#
# Velocity S-wave (km/s) = 3.35174 3.41420 3.38311
# Velocity P-wave (km/s) = 6.37548 6.43502 6.40532
#
# Compressibility (1/GPa) = 0.02051890
#
# Stress axis : x y z
#
# Youngs Moduli (GPa) = 64.18316 64.18284 59.32335
#
# Poissons Ratio (x) = 0.33365 0.25363
# Poissons Ratio (y) = 0.33365 0.25363
# Poissons Ratio (z) = 0.27441 0.27441
#
# Static dielectric constant tensor:
#      x y z
#    x 3.665540 0.000010 0.000000 
#    y 0.000010 3.665550 0.000000 
#    z 0.000000 0.000000 3.085750 
# 
# 
# High freq. dielectric constant tensor:
#      x y z
#    x 1.733960 0.000000 0.000000 
#    y 0.000000 1.733960 0.000000 
#    z 0.000000 0.000000 1.696930 
# 
# From -- ./inp_files/4325.got.cif
#   From: 2010.03.12/outbox.cif.g09.slc.cpg/sg163_3_cif.got.tgz:4325.got - 2010.04.02 06:30:25.
