data_PCOD8323973
_publ_section_title
;
Structure prediction by ZEFSAII (Michael W. Deem and Ramdas Pophale) SiO2 
 PCOD8323973
Probable space group: P -3 C 1
;
_chemical_formula_sum "Si O2"
_cell_formula_units_Z 36
_cell_length_a 14.178697
_cell_length_b 14.178697
_cell_length_c 7.208410
_cell_angle_alpha 90.000000
_cell_angle_beta 90.000000
_cell_angle_gamma 120.000000
_cell_volume 1254.997196
_symmetry_space_group_name_H-M "P -3 C 1"
_symmetry_group_IT_number 165
_symmetry_cell_setting 'hexagonal'
loop_
_space_group_symop_operation_xyz
x,y,z
-y,x-y,z
-x+y,-x,z
x-y,-y,1/2-z
-x,-x+y,1/2-z
y,x,1/2-z
-x,-y,-z
y,-x+y,-z
x-y,x,-z
-x+y,y,1/2+z
x,x-y,1/2+z
-y,-x,1/2+z
loop_
_atom_site_type_symbol
_atom_site_label
_atom_site_fract_x
_atom_site_fract_y
_atom_site_fract_z
Si Si1 0.447047 0.872565 0.237276
Si Si2 0.758659 0.538936 0.067610
Si Si3 0.794338 0.908164 0.402649
O O1 0.314130 0.809413 0.238023
O O2 0.479554 0.832143 0.432437
O O3 0.492822 0.000000 0.250000
O O4 0.509879 0.843170 0.085112
O O5 0.832964 0.666654 0.083483
O O6 0.855262 0.836300 0.402726
O O7 0.823915 0.000000 0.250000
#
# Coordination Sequence:
#
# PCOD8323973 Si02
#       3
#    12  12  12
#     4  12  27  49  78 116 156 207 268 336 409 491
#     4  12  26  49  78 115 160 211 270 341 413 495
#     4  12  27  50  81 121 165 218 276 343 418 502
#
# _framework density 28.685323
#
# number of rings (size 3 to 8) (size 9 to 14) (size 15 to 20)
#    0.000    0.000    0.000   10.000    0.000    5.333 
#    0.000    0.000    0.000    0.000    0.000    0.000 
#    0.000    0.000    0.000    0.000    0.000    0.000 
#
# Total GULP energy -446331.229512 kJ/mol
# GULP energy per Si atom -12398.089709 kJ/mol
# Density = 2.862003 g / cm^3
# Si number density = 28.685323 Si / 1000 Ang^3
#
#
#
# Elastic Constant Matrix: (Units=GPa)
#
#
# Indices 1 2 3 4 5 6 
#
# 1 256.9838 108.4489 2.8229 -11.2217 0.0000 0.0000
# 2 108.4489 256.9838 2.8229 11.2217 0.0000 0.0000
# 3 2.8229 2.8229 59.9212 0.0000 0.0000 0.0000
# 4 -11.2217 11.2217 0.0000 38.2895 0.0000 0.0000
# 5 0.0000 0.0000 0.0000 0.0000 38.2895 -11.2217
# 6 0.0000 0.0000 0.0000 0.0000 -11.2217 74.2674
#
#
#
# Elastic Compliance Matrix: (Units=1/GPa)
#
#
# Indices 1 2 3 4 5 6 
#
# 1 0.004891 -0.002153 -0.000129 0.002065 0.000000 0.000000
# 2 -0.002153 0.004891 -0.000129 -0.002065 0.000000 0.000000
# 3 -0.000129 -0.000129 0.016701 0.000000 0.000000 0.000000
# 4 0.002065 -0.002065 0.000000 0.027327 0.000000 0.000000
# 5 0.000000 0.000000 0.000000 0.000000 0.027327 0.004129
# 6 0.000000 0.000000 0.000000 0.000000 0.004129 0.014089
#
#
# Mechanical properties :
#
#
# Convention : Reuss Voigt Hill
#
# Bulk Modulus (GPa) = 46.16458 89.11983 67.64220
# Shear Modulus (GPa) = 46.61190 60.82221 53.71705
#
# Velocity S-wave (km/s) = 4.03543 4.60969 4.33209
# Velocity P-wave (km/s) = 6.15153 7.71154 6.97528
#
# Compressibility (1/GPa) = 0.02166163
#
# Stress axis : x y z
#
# Youngs Moduli (GPa) = 204.43947 204.43947 59.87763
#
# Poissons Ratio (x) = 0.44015 0.00772
# Poissons Ratio (y) = 0.44015 0.00772
# Poissons Ratio (z) = 0.02638 0.02638
#
# Static dielectric constant tensor:
#      x y z
#    x 5.530290 0.000000 0.000000 
#    y 0.000000 5.530290 0.000000 
#    z 0.000000 0.000000 8.573110 
# 
# 
# High freq. dielectric constant tensor:
#      x y z
#    x 2.180290 0.000000 0.000000 
#    y 0.000000 2.180290 0.000000 
#    z 0.000000 0.000000 2.248830 
# 
# From -- ./inp_files/400.got.cif
#   From: 2010.03.12/outbox.cif.g09.slc.cpg/sg165_1_cif.got.tgz:400.got - 2010.04.02 06:36:38.
