data_PCOD8323582
_publ_section_title
;
Structure prediction by ZEFSAII (Michael W. Deem and Ramdas Pophale) SiO2 
 PCOD8323582
Probable space group: P -3 M 1
;
_chemical_formula_sum "Si O2"
_cell_formula_units_Z 84
_cell_length_a 17.573170
_cell_length_b 17.573170
_cell_length_c 16.479843
_cell_angle_alpha 90.000000
_cell_angle_beta 90.000000
_cell_angle_gamma 120.000000
_cell_volume 4407.414766
_symmetry_space_group_name_H-M "P -3 M 1"
_symmetry_group_IT_number 164
_symmetry_cell_setting 'hexagonal'
loop_
_space_group_symop_operation_xyz
x,y,z
-y,x-y,z
-x+y,-x,z
x-y,-y,-z
-x,-x+y,-z
y,x,-z
-x,-y,-z
y,-x+y,-z
x-y,x,-z
-x+y,y,z
x,x-y,z
-y,-x,z
loop_
_atom_site_type_symbol
_atom_site_label
_atom_site_fract_x
_atom_site_fract_y
_atom_site_fract_z
Si Si1 0.666077 0.166350 0.063967
Si Si2 0.972889 0.397705 0.331524
Si Si3 0.500930 0.334260 0.713221
Si Si4 0.695400 0.562167 0.890134
Si Si5 0.046497 0.346666 0.829443
Si Si6 0.707107 0.943254 0.579596
Si Si7 0.997246 0.174286 0.265219
O O1 0.571341 0.142681 0.102245
O O2 0.728887 0.271114 0.065906
O O3 0.718472 0.126167 0.111238
O O4 0.645772 0.135154 0.970599
O O5 0.945626 0.472813 0.345906
O O6 0.940371 0.352593 0.244442
O O7 0.933568 0.321744 0.400105
O O8 0.077815 0.439567 0.334853
O O9 0.470480 0.235240 0.686769
O O10 0.601711 0.398290 0.687955
O O11 0.497053 0.344159 0.810087
O O12 0.798687 0.597374 0.897916
O O13 0.683645 0.645267 0.883212
O O14 0.040259 0.255830 0.800988
O O15 0.691599 0.845800 0.568487
O O16 0.747887 0.000000 0.500000
O O17 0.778228 0.996351 0.649547
O O18 0.096186 0.192371 0.247403
O O19 0.930528 0.069473 0.266740
#
# Coordination Sequence:
#
# PCOD8323582 Si02
#       7
#    12  12  12  12  12  12  12
#     4  11  22  34  48  68  97 133 174 220 268 312
#     4   9  19  34  52  75 103 136 173 210 247 291
#     4   9  16  27  45  71 103 137 172 209 251 298
#     4   9  18  30  46  70  98 131 170 214 264 310
#     4  10  19  33  52  73 100 133 173 215 254 301
#     4  10  21  36  57  83 109 137 168 204 250 304
#     4  10  20  35  56  81 108 135 164 202 250 306
#
# _framework density 19.058790999999999
#
# number of rings (size 3 to 8) (size 9 to 14) (size 15 to 20)
#    0.000    2.286    0.000    3.000    0.000    7.143 
#    0.000    1.429    0.000    2.571    0.000    1.000 
#    0.000    6.857    0.000    0.000    0.000    0.000 
#
# Total GULP energy -1040868.729742 kJ/mol
# GULP energy per Si atom -12391.294402 kJ/mol
# Density = 1.901541 g / cm^3
# Si number density = 19.058791 Si / 1000 Ang^3
#
#
#
# Elastic Constant Matrix: (Units=GPa)
#
#
# Indices 1 2 3 4 5 6 
#
# 1 82.3956 66.4979 38.2106 -3.3412 0.0000 0.0000
# 2 66.4979 82.3956 38.2106 3.3412 0.0000 0.0000
# 3 38.2106 38.2106 58.2312 0.0000 0.0000 0.0000
# 4 -3.3412 3.3412 0.0000 22.0951 0.0000 0.0000
# 5 0.0000 0.0000 0.0000 0.0000 22.0951 -3.3412
# 6 0.0000 0.0000 0.0000 0.0000 -3.3412 7.9488
#
#
#
# Elastic Compliance Matrix: (Units=1/GPa)
#
#
# Indices 1 2 3 4 5 6 
#
# 1 0.038649 -0.028523 -0.006645 0.010158 0.000000 0.000000
# 2 -0.028523 0.038649 -0.006645 -0.010158 0.000000 0.000000
# 3 -0.006645 -0.006645 0.025894 0.000000 0.000000 0.000000
# 4 0.010158 -0.010158 0.000000 0.048331 0.000000 0.000000
# 5 0.000000 0.000000 0.000000 0.000000 0.048331 0.020316
# 6 0.000000 0.000000 0.000000 0.000000 0.020316 0.134344
#
#
# Mechanical properties :
#
#
# Convention : Reuss Voigt Hill
#
# Bulk Modulus (GPa) = 51.10626 56.54006 53.82316
# Shear Modulus (GPa) = 11.78282 15.76804 13.77543
#
# Velocity S-wave (km/s) = 2.48913 2.87947 2.69138
# Velocity P-wave (km/s) = 5.92742 6.38636 6.16117
#
# Compressibility (1/GPa) = 0.01956707
#
# Stress axis : x y z
#
# Youngs Moduli (GPa) = 25.87360 25.87360 38.61919
#
# Poissons Ratio (x) = 0.73798 0.25663
# Poissons Ratio (y) = 0.73798 0.25663
# Poissons Ratio (z) = 0.17193 0.17193
#
# Static dielectric constant tensor:
#      x y z
#    x 3.465260 0.000000 0.000000 
#    y 0.000000 3.465260 0.000000 
#    z 0.000000 0.000000 3.289760 
# 
# 
# High freq. dielectric constant tensor:
#      x y z
#    x 1.740530 0.000000 0.000000 
#    y 0.000000 1.740530 0.000000 
#    z 0.000000 0.000000 1.717320 
# 
# From -- ./inp_files/3598.got.cif
#   From: 2010.03.12/outbox.cif.g09.slc.cpg/sg164_2_cif.got.tgz:3598.got - 2010.04.02 06:32:59.
