data_PCOD8323361
_publ_section_title
;
Structure prediction by ZEFSAII (Michael W. Deem and Ramdas Pophale) SiO2 
 PCOD8323361
Probable space group: P -3 M 1
;
_chemical_formula_sum "Si O2"
_cell_formula_units_Z 96
_cell_length_a 21.463857
_cell_length_b 21.463857
_cell_length_c 16.016710
_cell_angle_alpha 90.000000
_cell_angle_beta 90.000000
_cell_angle_gamma 120.000000
_cell_volume 6390.273947
_symmetry_space_group_name_H-M "P -3 M 1"
_symmetry_group_IT_number 164
_symmetry_cell_setting 'hexagonal'
loop_
_space_group_symop_operation_xyz
x,y,z
-y,x-y,z
-x+y,-x,z
x-y,-y,-z
-x,-x+y,-z
y,x,-z
-x,-y,-z
y,-x+y,-z
x-y,x,-z
-x+y,y,z
x,x-y,z
-y,-x,z
loop_
_atom_site_type_symbol
_atom_site_label
_atom_site_fract_x
_atom_site_fract_y
_atom_site_fract_z
Si Si1 0.554758 0.961742 0.082468
Si Si2 0.666685 0.480861 0.837712
Si Si3 0.701601 0.919225 0.399422
Si Si4 0.293302 0.845534 0.657650
Si Si5 0.441990 0.335214 0.669172
Si Si6 0.078833 0.292870 0.590960
Si Si7 0.967280 0.556485 0.247726
Si Si8 0.334607 0.524419 0.487369
O O1 0.483994 0.967988 0.080344
O O2 0.529579 0.876786 0.094531
O O3 0.605709 0.007163 0.159765
O O4 0.602498 0.000000 0.000000
O O5 0.741597 0.483193 0.858440
O O6 0.601576 0.398425 0.840118
O O7 0.669665 0.512814 0.746091
O O8 0.734277 0.867139 0.383450
O O9 0.630433 0.889895 0.343706
O O10 0.680626 0.918656 0.496144
O O11 0.763043 0.999634 0.375841
O O12 0.237276 0.762725 0.683109
O O13 0.251161 0.888677 0.648072
O O14 0.350281 0.885767 0.731220
O O15 0.335146 0.848339 0.573626
O O16 0.418257 0.394959 0.680791
O O17 0.490838 0.357861 0.587089
O O18 0.127503 0.255006 0.599079
O O19 0.970049 0.485025 0.238691
O O20 0.256163 0.512325 0.467686
O O21 0.391176 0.608825 0.494610
#
# Coordination Sequence:
#
# PCOD8323361 Si02
#       8
#    12  12  12  12  12  12  12  12
#     4   8  16  32  51  67  85 109 137 173 218 267
#     4  10  19  30  45  66  93 121 147 177 217 266
#     4  10  17  27  43  61  82 111 147 182 218 261
#     4  10  19  31  43  59  83 113 149 189 224 250
#     4  11  19  29  41  64  89 118 151 186 216 254
#     4   9  17  29  42  57  80 110 143 182 222 257
#     4  10  19  31  47  67  87 110 143 181 223 268
#     4  11  21  31  41  55  82 120 157 188 222 260
#
# _framework density 15.022830000000001
#
# number of rings (size 3 to 8) (size 9 to 14) (size 15 to 20)
#    0.000    2.125    2.500    3.625    0.000    0.500 
#    0.000    3.125    0.000    0.500    0.000    1.750 
#    0.000    0.000    0.000    0.000    0.000    0.000 
#
# Total GULP energy -1189953.492490 kJ/mol
# GULP energy per Si atom -12395.348880 kJ/mol
# Density = 1.498864 g / cm^3
# Si number density = 15.022830 Si / 1000 Ang^3
#
#
#
# Elastic Constant Matrix: (Units=GPa)
#
#
# Indices 1 2 3 4 5 6 
#
# 1 71.1907 24.4540 35.3860 0.9590 0.0000 0.0000
# 2 24.4540 71.1907 35.3860 -0.9590 0.0000 0.0000
# 3 35.3860 35.3860 68.0825 0.0000 0.0000 0.0000
# 4 0.9590 -0.9590 0.0000 13.5794 0.0000 0.0000
# 5 0.0000 0.0000 0.0000 0.0000 13.5794 0.9590
# 6 0.0000 0.0000 0.0000 0.0000 0.9590 23.3683
#
#
#
# Elastic Compliance Matrix: (Units=1/GPa)
#
#
# Indices 1 2 3 4 5 6 
#
# 1 0.019224 -0.002235 -0.008830 -0.001515 0.000000 0.000000
# 2 -0.002235 0.019224 -0.008830 0.001515 0.000000 0.000000
# 3 -0.008830 -0.008830 0.023867 0.000000 0.000000 0.000000
# 4 -0.001515 0.001515 0.000000 0.073855 0.000000 0.000000
# 5 0.000000 0.000000 0.000000 0.000000 0.073855 -0.003031
# 6 0.000000 0.000000 0.000000 0.000000 -0.003031 0.042917
#
#
# Mechanical properties :
#
#
# Convention : Reuss Voigt Hill
#
# Bulk Modulus (GPa) = 44.39552 44.54621 44.47086
# Shear Modulus (GPa) = 16.65329 17.78794 17.22062
#
# Velocity S-wave (km/s) = 3.33307 3.44475 3.38937
# Velocity P-wave (km/s) = 6.66549 6.74822 6.70698
#
# Compressibility (1/GPa) = 0.02252480
#
# Stress axis : x y z
#
# Youngs Moduli (GPa) = 52.01844 52.01844 41.89878
#
# Poissons Ratio (x) = 0.11625 0.36997
# Poissons Ratio (y) = 0.11625 0.36997
# Poissons Ratio (z) = 0.45933 0.45933
#
# Static dielectric constant tensor:
#      x y z
#    x 2.940100 0.000000 0.000000 
#    y 0.000000 2.940100 0.000000 
#    z 0.000000 0.000000 2.851700 
# 
# 
# High freq. dielectric constant tensor:
#      x y z
#    x 1.568330 0.000000 0.000000 
#    y 0.000000 1.568330 0.000000 
#    z 0.000000 0.000000 1.544820 
# 
# From -- ./inp_files/4302.got.cif
#   From: 2010.03.12/outbox.cif.g09.slc.cpg/sg164_3_cif.got.tgz:4302.got - 2010.04.02 06:32:59.
