data_PCOD8323291
_publ_section_title
;
Structure prediction by ZEFSAII (Michael W. Deem and Ramdas Pophale) SiO2 
 PCOD8323291
Probable space group: P -3 1 C
;
_chemical_formula_sum "Si O2"
_cell_formula_units_Z 30
_cell_length_a 12.775662
_cell_length_b 12.775662
_cell_length_c 10.103149
_cell_angle_alpha 90.000000
_cell_angle_beta 90.000000
_cell_angle_gamma 120.000000
_cell_volume 1428.085522
_symmetry_space_group_name_H-M "P -3 1 C"
_symmetry_group_IT_number 163
_symmetry_cell_setting 'hexagonal'
loop_
_space_group_symop_operation_xyz
x,y,z
-y,x-y,z
-x+y,-x,z
-y,-x,1/2-z
-x+y,y,1/2-z
x,x-y,1/2-z
-x,-y,-z
y,-x+y,-z
x-y,x,-z
y,x,1/2+z
x-y,-y,1/2+z
-x,-x+y,1/2+z
loop_
_atom_site_type_symbol
_atom_site_label
_atom_site_fract_x
_atom_site_fract_y
_atom_site_fract_z
Si Si1 0.206855 0.413710 0.250000
Si Si2 0.439327 0.427624 0.868828
Si Si3 0.735448 0.795267 0.489748
O O1 0.154287 0.487936 0.169365
O O2 0.099297 0.333804 0.351087
O O3 0.475050 0.524951 0.750000
O O4 0.295658 0.349648 0.894771
O O5 0.500000 0.500000 0.000000
O O6 0.849986 0.779445 0.461313
#
# Coordination Sequence:
#
# PCOD8323291 Si02
#       3
#     6  12  12
#     4  10  22  42  66 102 132 178 218 282 338 396
#     4  11  22  43  66  95 132 180 227 278 337 396
#     4  10  22  40  67 101 135 176 214 273 342 409
#
# _framework density 21.007145000000001
#
# number of rings (size 3 to 8) (size 9 to 14) (size 15 to 20)
#    0.000    1.600    4.000    0.400    0.000    6.400 
#    1.200    0.000    0.000    0.000    0.000    0.000 
#    0.000    0.000    0.000    0.000    0.000    0.000 
#
# Total GULP energy -371741.320739 kJ/mol
# GULP energy per Si atom -12391.377358 kJ/mol
# Density = 2.095933 g / cm^3
# Si number density = 21.007145 Si / 1000 Ang^3
#
#
#
# Elastic Constant Matrix: (Units=GPa)
#
#
# Indices 1 2 3 4 5 6 
#
# 1 122.7361 62.8716 62.7746 0.0000 13.8933 0.0000
# 2 62.8716 122.7361 62.7746 0.0000 -13.8933 0.0000
# 3 62.7746 62.7746 153.1508 0.0000 0.0000 0.0000
# 4 0.0000 0.0000 0.0000 46.6947 0.0000 -13.8933
# 5 13.8933 -13.8933 0.0000 0.0000 46.6947 0.0000
# 6 0.0000 0.0000 0.0000 -13.8933 0.0000 29.9323
#
#
#
# Elastic Compliance Matrix: (Units=1/GPa)
#
#
# Indices 1 2 3 4 5 6 
#
# 1 0.013418 -0.005963 -0.003056 0.000000 -0.005766 0.000000
# 2 -0.005963 0.013418 -0.003056 0.000000 0.005766 0.000000
# 3 -0.003056 -0.003056 0.009034 0.000000 0.000000 0.000000
# 4 0.000000 0.000000 0.000000 0.024847 0.000000 0.011533
# 5 -0.005766 0.005766 0.000000 0.000000 0.024847 0.000000
# 6 0.000000 0.000000 0.000000 0.011533 0.000000 0.038762
#
#
# Mechanical properties :
#
#
# Convention : Reuss Voigt Hill
#
# Bulk Modulus (GPa) = 85.31453 86.16274 85.73863
# Shear Modulus (GPa) = 32.81236 38.67782 35.74509
#
# Velocity S-wave (km/s) = 3.95645 4.29555 4.12948
# Velocity P-wave (km/s) = 7.84676 8.10600 7.97743
#
# Compressibility (1/GPa) = 0.01172133
#
# Stress axis : x y z
#
# Youngs Moduli (GPa) = 74.52822 74.52822 110.68868
#
# Poissons Ratio (x) = 0.44443 0.33821
# Poissons Ratio (y) = 0.44443 0.33821
# Poissons Ratio (z) = 0.22772 0.22772
#
# Static dielectric constant tensor:
#      x y z
#    x 4.085890 0.000000 0.000000 
#    y 0.000000 4.085890 0.000000 
#    z 0.000000 0.000000 4.070680 
# 
# 
# High freq. dielectric constant tensor:
#      x y z
#    x 1.815360 0.000000 0.000000 
#    y 0.000000 1.815360 0.000000 
#    z 0.000000 0.000000 1.837380 
# 
# From -- ./inp_files/620.got.cif
#   From: 2010.03.12/outbox.cif.g09.slc.cpg/sg163_1_cif.got.tgz:620.got - 2010.04.02 06:30:25.
