data_PCOD8323952
_publ_section_title
;
Structure prediction by ZEFSAII (Michael W. Deem and Ramdas Pophale) SiO2 
 PCOD8323952
Probable space group: P -3 C 1
;
_chemical_formula_sum "Si O2"
_cell_formula_units_Z 64
_cell_length_a 13.653018
_cell_length_b 13.653018
_cell_length_c 17.767591
_cell_angle_alpha 90.000000
_cell_angle_beta 90.000000
_cell_angle_gamma 120.000000
_cell_volume 2868.246721
_symmetry_space_group_name_H-M "P -3 C 1"
_symmetry_group_IT_number 165
_symmetry_cell_setting 'hexagonal'
loop_
_space_group_symop_operation_xyz
x,y,z
-y,x-y,z
-x+y,-x,z
x-y,-y,1/2-z
-x,-x+y,1/2-z
y,x,1/2-z
-x,-y,-z
y,-x+y,-z
x-y,x,-z
-x+y,y,1/2+z
x,x-y,1/2+z
-y,-x,1/2+z
loop_
_atom_site_type_symbol
_atom_site_label
_atom_site_fract_x
_atom_site_fract_y
_atom_site_fract_z
Si Si1 0.910867 0.762286 0.134806
Si Si2 0.739977 0.169142 0.246031
Si Si3 0.000000 0.000000 0.836356
Si Si4 0.211625 0.352070 0.088136
Si Si5 0.647163 0.965079 0.944215
Si Si6 0.405202 0.497477 0.805617
O O1 0.891097 0.699392 0.215365
O O2 0.903354 0.875441 0.139714
O O3 0.809291 0.683238 0.080570
O O4 0.034875 0.806312 0.102052
O O5 0.742032 0.170937 0.336821
O O6 0.615569 0.098046 0.210421
O O7 0.789398 0.295295 0.214381
O O8 0.000000 0.000000 0.750000
O O9 0.095621 0.346293 0.059163
O O10 0.315376 0.401978 0.026985
O O11 0.543353 0.948043 0.891246
O O12 0.402453 0.402453 0.750000
#
# Coordination Sequence:
#
# PCOD8323952 Si02
#       6
#    12  12   4  12  12  12
#     4  11  23  36  62  98 140 185 227 264 326 414
#     4  11  25  44  70  97 128 181 239 289 339 395
#     4  12  21  30  55  95 145 189 220 263 313 405
#     4  12  21  42  62 101 144 180 217 275 343 414
#     4  11  24  38  66 102 147 180 221 274 339 414
#     4  11  23  47  70  98 128 176 239 290 336 401
#
# _framework density 22.313283999999999
#
# number of rings (size 3 to 8) (size 9 to 14) (size 15 to 20)
#    0.000    0.750    5.625    3.188    0.000    0.000 
#    0.000    9.375    0.000    0.000    0.000    0.000 
#    0.000    0.000    0.000    0.000    0.000    0.000 
#
# Total GULP energy -792998.589403 kJ/mol
# GULP energy per Si atom -12390.602959 kJ/mol
# Density = 2.226250 g / cm^3
# Si number density = 22.313284 Si / 1000 Ang^3
#
#
#
# Elastic Constant Matrix: (Units=GPa)
#
#
# Indices 1 2 3 4 5 6 
#
# 1 90.1403 25.3208 34.8950 4.6169 0.0000 0.0000
# 2 25.3208 90.1403 34.8950 -4.6169 0.0000 0.0000
# 3 34.8950 34.8950 145.3390 0.0000 0.0000 0.0000
# 4 4.6169 -4.6169 0.0000 32.1173 0.0000 0.0000
# 5 0.0000 0.0000 0.0000 0.0000 32.1173 4.6169
# 6 0.0000 0.0000 0.0000 0.0000 4.6169 32.4097
#
#
#
# Elastic Compliance Matrix: (Units=1/GPa)
#
#
# Indices 1 2 3 4 5 6 
#
# 1 0.012941 -0.002809 -0.002432 -0.002264 0.000000 0.000000
# 2 -0.002809 0.012941 -0.002432 0.002264 0.000000 0.000000
# 3 -0.002432 -0.002432 0.008048 0.000000 0.000000 0.000000
# 4 -0.002264 0.002264 0.000000 0.031787 0.000000 0.000000
# 5 0.000000 0.000000 0.000000 0.000000 0.031787 -0.004528
# 6 0.000000 0.000000 0.000000 0.000000 -0.004528 0.031500
#
#
# Mechanical properties :
#
#
# Convention : Reuss Voigt Hill
#
# Bulk Modulus (GPa) = 53.81800 57.31569 55.56685
# Shear Modulus (GPa) = 33.21254 34.69611 33.95432
#
# Velocity S-wave (km/s) = 3.86225 3.94757 3.90514
# Velocity P-wave (km/s) = 6.63784 6.82058 6.72983
#
# Compressibility (1/GPa) = 0.01858114
#
# Stress axis : x y z
#
# Youngs Moduli (GPa) = 77.27617 77.27617 124.24679
#
# Poissons Ratio (x) = 0.21710 0.30222
# Poissons Ratio (y) = 0.21710 0.30222
# Poissons Ratio (z) = 0.18797 0.18797
#
# Static dielectric constant tensor:
#      x y z
#    x 3.755380 0.000000 0.000000 
#    y 0.000000 3.755380 0.000000 
#    z 0.000000 0.000000 4.229530 
# 
# 
# High freq. dielectric constant tensor:
#      x y z
#    x 1.869080 0.000000 0.000000 
#    y 0.000000 1.869080 0.000000 
#    z 0.000000 0.000000 1.882820 
# 
# From -- ./inp_files/2228.got.cif
#   From: 2010.03.12/outbox.cif.g09.slc.cpg/sg165_2_cif.got.tgz:2228.got - 2010.04.02 06:36:38.
