data_PCOD8323991
_publ_section_title
;
Structure prediction by ZEFSAII (Michael W. Deem and Ramdas Pophale) SiO2 
 PCOD8323991
Probable space group: R -3 M
;
_chemical_formula_sum "Si O2"
_cell_formula_units_Z 216
_cell_length_a 26.782877
_cell_length_b 26.782877
_cell_length_c 23.222463
_cell_angle_alpha 90.000000
_cell_angle_beta 90.000000
_cell_angle_gamma 120.000000
_cell_volume 14426.247041
_symmetry_space_group_name_H-M "R -3 M"
_symmetry_group_IT_number 166
_symmetry_cell_setting 'hexagonal'
loop_
_space_group_symop_operation_xyz
x,y,z
-y,x-y,z
-x+y,-x,z
x-y,-y,-z
-x,-x+y,-z
y,x,-z
-x,-y,-z
y,-x+y,-z
x-y,x,-z
-x+y,y,z
x,x-y,z
-y,-x,z
2/3+x,1/3+y,1/3+z
2/3-y,1/3+x-y,1/3+z
2/3-x+y,1/3-x,1/3+z
2/3+x-y,1/3-y,1/3-z
2/3-x,1/3-x+y,1/3-z
2/3+y,1/3+x,1/3-z
2/3-x,1/3-y,1/3-z
2/3+y,1/3-x+y,1/3-z
2/3+x-y,1/3+x,1/3-z
2/3-x+y,1/3+y,1/3+z
2/3+x,1/3+x-y,1/3+z
2/3-y,1/3-x,1/3+z
1/3+x,2/3+y,2/3+z
1/3-y,2/3+x-y,2/3+z
1/3-x+y,2/3-x,2/3+z
1/3+x-y,2/3-y,2/3-z
1/3-x,2/3-x+y,2/3-z
1/3+y,2/3+x,2/3-z
1/3-x,2/3-y,2/3-z
1/3+y,2/3-x+y,2/3-z
1/3+x-y,2/3+x,2/3-z
1/3-x+y,2/3+y,2/3+z
1/3+x,2/3+x-y,2/3+z
1/3-y,2/3-x,2/3+z
loop_
_atom_site_type_symbol
_atom_site_label
_atom_site_fract_x
_atom_site_fract_y
_atom_site_fract_z
Si Si1 0.934381 0.521901 0.983405
Si Si2 0.321621 0.409396 0.929233
Si Si3 0.103410 0.319165 0.643617
Si Si4 0.190263 0.924654 0.843652
Si Si5 0.226110 0.168707 0.030441
Si Si6 0.995714 0.283370 0.567683
O O1 0.905843 0.452922 0.973921
O O2 0.929646 0.551896 0.924973
O O3 0.902937 0.534498 0.036085
O O4 0.000000 0.547454 0.000000
O O5 0.309808 0.431999 0.869163
O O6 0.343052 0.363117 0.921320
O O7 0.262388 0.379179 0.964738
O O8 0.149208 0.298415 0.627534
O O9 0.137407 0.386877 0.654418
O O10 0.059864 0.307817 0.591665
O O11 0.124203 0.875798 0.833346
O O12 0.232080 0.898746 0.833334
O O13 0.198487 0.952618 0.906687
O O14 0.200798 0.100399 0.036796
O O15 0.177184 0.177184 0.000000
O O16 0.000000 0.281779 0.500000
#
# Coordination Sequence:
#
# PCOD8323991 Si02
#       6
#    36  36  36  36  36  36
#     4   8  16  31  44  56  83 118 150 181 213 250
#     4  10  17  28  45  65  84 112 151 185 217 262
#     4  10  19  30  43  62  89 116 145 182 223 264
#     4  10  18  28  44  66  88 115 146 183 225 260
#     4  10  20  32  46  63  90 118 144 182 228 268
#     4  10  20  28  43  66  84 118 155 186 215 253
#
# _framework density 14.972709
#
# number of rings (size 3 to 8) (size 9 to 14) (size 15 to 20)
#    0.000    2.333    1.667    3.500    2.333    0.667 
#    0.000    0.833    0.000    0.167    0.000    0.000 
#    0.000    0.000    0.000   65.500    0.000   44.167 
#
# Total GULP energy -892476.449460 kJ/mol
# GULP energy per Si atom -12395.506242 kJ/mol
# Density = 1.493863 g / cm^3
# Si number density = 14.972709 Si / 1000 Ang^3
#
#
#
# Elastic Constant Matrix: (Units=GPa)
#
#
# Indices 1 2 3 4 5 6 
#
# 1 68.7053 34.6302 38.2261 -1.4684 0.0000 0.0000
# 2 34.6302 68.7053 38.2261 1.4684 0.0000 0.0000
# 3 38.2261 38.2261 107.3116 0.0000 0.0000 0.0000
# 4 -1.4684 1.4684 0.0000 21.0716 0.0000 0.0000
# 5 0.0000 0.0000 0.0000 0.0000 21.0716 -1.4684
# 6 0.0000 0.0000 0.0000 0.0000 -1.4684 17.0376
#
#
#
# Elastic Compliance Matrix: (Units=1/GPa)
#
#
# Indices 1 2 3 4 5 6 
#
# 1 0.021332 -0.008192 -0.004681 0.002057 0.000000 0.000000
# 2 -0.008192 0.021332 -0.004681 -0.002057 0.000000 0.000000
# 3 -0.004681 -0.004681 0.012653 0.000000 0.000000 0.000000
# 4 0.002057 -0.002057 0.000000 0.047744 0.000000 0.000000
# 5 0.000000 0.000000 0.000000 0.000000 0.047744 0.004115
# 6 0.000000 0.000000 0.000000 0.000000 0.004115 0.059048
#
#
# Mechanical properties :
#
#
# Convention : Reuss Voigt Hill
#
# Bulk Modulus (GPa) = 49.47843 51.87632 50.67738
# Shear Modulus (GPa) = 19.86507 20.74550 20.30529
#
# Velocity S-wave (km/s) = 3.64641 3.72634 3.68659
# Velocity P-wave (km/s) = 7.13063 7.29634 7.21396
#
# Compressibility (1/GPa) = 0.02021083
#
# Stress axis : x y z
#
# Youngs Moduli (GPa) = 46.87743 46.87743 79.03031
#
# Poissons Ratio (x) = 0.38402 0.36992
# Poissons Ratio (y) = 0.38402 0.36992
# Poissons Ratio (z) = 0.21942 0.21942
#
# Static dielectric constant tensor:
#      x y z
#    x 2.894620 0.000000 0.000000 
#    y 0.000000 2.894620 0.000000 
#    z 0.000000 0.000000 2.971890 
# 
# 
# High freq. dielectric constant tensor:
#      x y z
#    x 1.547510 0.000000 0.000000 
#    y 0.000000 1.547510 0.000000 
#    z 0.000000 0.000000 1.581300 
# 
# From -- ./inp_files/8612.got.cif
#   From: 2010.03.12/outbox.cif.g09.slc.cpg/sg166_5_cif.got.tgz:8612.got - 2010.04.02 06:38:31.
