data_PCOD8323164
_publ_section_title
;
Structure prediction by ZEFSAII (Michael W. Deem and Ramdas Pophale) SiO2 
 PCOD8323164
Probable space group: P -3 1 M 
;
_chemical_formula_sum "Si O2"
_cell_formula_units_Z 60
_cell_length_a 29.768025
_cell_length_b 29.768025
_cell_length_c 5.180285
_cell_angle_alpha 90.000000
_cell_angle_beta 90.000000
_cell_angle_gamma 120.000000
_cell_volume 3975.431997
_symmetry_space_group_name_H-M "P -3 1 M "
_symmetry_group_IT_number 162
_symmetry_cell_setting 'hexagonal'
loop_
_space_group_symop_operation_xyz
x,y,z
-y,x-y,z
-x+y,-x,z
-y,-x,-z
-x+y,y,-z
x,x-y,-z
-x,-y,-z
y,-x+y,-z
x-y,x,-z
y,x,z
x-y,-y,z
-x,-x+y,z
loop_
_atom_site_type_symbol
_atom_site_label
_atom_site_fract_x
_atom_site_fract_y
_atom_site_fract_z
Si Si1 0.175797 0.060343 0.764926
Si Si2 0.937966 0.672538 0.595775
Si Si3 0.519466 0.581222 0.968451
Si Si4 0.061699 0.428291 0.467840
Si Si5 0.276785 0.215712 0.099236
O O1 0.181677 0.090839 0.500000
O O2 0.231433 0.074993 0.884856
O O3 0.141513 0.000000 0.695459
O O4 0.148673 0.074337 0.000000
O O5 0.916732 0.611369 0.563372
O O6 0.915881 0.688234 0.351804
O O7 0.000000 0.703792 0.606663
O O8 0.915135 0.686651 0.847541
O O9 0.548863 0.548863 0.950138
O O10 0.534447 0.618520 0.718171
O O11 0.458070 0.541931 0.000000
O O12 0.535840 0.617189 0.217982
O O13 0.000000 0.396246 0.485671
O O14 0.253060 0.253060 0.091430
#
# Coordination Sequence:
#
# PCOD8323164 Si02
#       5
#    12  12  12  12  12
#     4  11  22  37  56  75  93 111 129 147 171 209
#     4   9  15  24  37  54  75  95 118 147 180 217
#     4   9  15  21  27  37  56  84 120 158 191 221
#     4   9  15  21  30  43  60  86 117 150 187 221
#     4   9  17  28  43  62  81  99 117 141 172 207
#
# _framework density 15.092700000000001
#
# number of rings (size 3 to 8) (size 9 to 14) (size 15 to 20)
#    0.000    2.600    0.000    3.600    0.000   10.400 
#    0.000    0.000    0.000    4.000    0.000    0.000 
#    0.000    0.000    0.000    0.000    0.000    0.000 
#
# Total GULP energy -743612.684964 kJ/mol
# GULP energy per Si atom -12393.544749 kJ/mol
# Density = 1.505835 g / cm^3
# Si number density = 15.092700 Si / 1000 Ang^3
#
#
#
# Elastic Constant Matrix: (Units=GPa)
#
#
# Indices 1 2 3 4 5 6 
#
# 1 46.6062 29.0015 36.9548 -0.0002 -1.6439 0.0000
# 2 29.0015 46.6062 36.9548 0.0002 1.6439 0.0000
# 3 36.9548 36.9548 155.0514 0.0000 0.0000 0.0000
# 4 -0.0002 0.0002 0.0000 22.2927 0.0000 1.6439
# 5 -1.6439 1.6439 0.0000 0.0000 22.2927 -0.0002
# 6 0.0000 0.0000 0.0000 1.6439 -0.0002 8.8024
#
#
#
# Elastic Compliance Matrix: (Units=1/GPa)
#
#
# Indices 1 2 3 4 5 6 
#
# 1 0.037420 -0.020176 -0.004110 0.000000 0.004247 0.000000
# 2 -0.020176 0.037420 -0.004110 0.000000 -0.004247 0.000000
# 3 -0.004110 -0.004110 0.008409 0.000000 0.000000 0.000000
# 4 0.000000 0.000000 0.000000 0.045484 0.000000 -0.008495
# 5 0.004247 -0.004247 0.000000 0.000000 0.045484 0.000001
# 6 0.000000 0.000000 0.000000 -0.008495 0.000001 0.115192
#
#
# Mechanical properties :
#
#
# Convention : Reuss Voigt Hill
#
# Bulk Modulus (GPa) = 37.79781 50.45399 44.12590
# Shear Modulus (GPa) = 14.08372 20.36774 17.22573
#
# Velocity S-wave (km/s) = 3.05806 3.67755 3.38202
# Velocity P-wave (km/s) = 6.12920 7.17875 6.67464
#
# Compressibility (1/GPa) = 0.02645656
#
# Stress axis : x y z
#
# Youngs Moduli (GPa) = 26.72372 26.72372 118.92672
#
# Poissons Ratio (x) = 0.53918 0.48877
# Poissons Ratio (y) = 0.53918 0.48877
# Poissons Ratio (z) = 0.10983 0.10983
#
# Static dielectric constant tensor:
#      x y z
#    x 2.635480 0.000000 0.000000 
#    y 0.000000 2.635480 0.000000 
#    z 0.000000 0.000000 3.230420 
# 
# 
# High freq. dielectric constant tensor:
#      x y z
#    x 1.530880 0.000000 0.000000 
#    y 0.000000 1.530880 0.000000 
#    z 0.000000 0.000000 1.607240 
# 
# From -- ./inp_files/660.got.cif
#   From: 2010.03.12/outbox.cif.g09.slc.cpg/sg162_1_cif.got.tgz:660.got - 2010.04.02 06:27:41.
