data_PCOD8323288
_publ_section_title
;
Structure prediction by ZEFSAII (Michael W. Deem and Ramdas Pophale) SiO2 
 PCOD8323288
Probable space group: P -3 1 C
;
_chemical_formula_sum "Si O2"
_cell_formula_units_Z 42
_cell_length_a 14.805035
_cell_length_b 14.805035
_cell_length_c 10.239188
_cell_angle_alpha 90.000000
_cell_angle_beta 90.000000
_cell_angle_gamma 120.000000
_cell_volume 1943.636408
_symmetry_space_group_name_H-M "P -3 1 C"
_symmetry_group_IT_number 163
_symmetry_cell_setting 'hexagonal'
loop_
_space_group_symop_operation_xyz
x,y,z
-y,x-y,z
-x+y,-x,z
-y,-x,1/2-z
-x+y,y,1/2-z
x,x-y,1/2-z
-x,-y,-z
y,-x+y,-z
x-y,x,-z
y,x,1/2+z
x-y,-y,1/2+z
-x,-x+y,1/2+z
loop_
_atom_site_type_symbol
_atom_site_label
_atom_site_fract_x
_atom_site_fract_y
_atom_site_fract_z
Si Si1 0.820341 0.640682 0.250000
Si Si2 0.844216 0.308195 0.501290
Si Si3 0.150958 0.515501 0.375093
Si Si4 0.944958 0.259831 0.721645
O O1 0.744767 0.562776 0.360445
O O2 0.781174 0.720112 0.211361
O O3 0.881376 0.432848 0.504360
O O4 0.739949 0.255174 0.588337
O O5 0.928926 0.290157 0.575987
O O6 0.173892 0.586946 0.250000
O O7 0.062235 0.396896 0.334578
O O8 0.861651 0.138350 0.750000
#
# Coordination Sequence:
#
# PCOD8323288 Si02
#       4
#     6  12  12  12
#     4  12  26  40  62 102 140 160 220 292 328 382
#     4  10  22  39  67  97 130 171 217 268 320 396
#     4   9  18  40  67  92 122 172 220 249 315 402
#     4   9  22  43  65  91 125 179 226 265 328 395
#
# _framework density 21.608978
#
# number of rings (size 3 to 8) (size 9 to 14) (size 15 to 20)
#    0.000    2.286    0.000    3.143    8.000    5.714 
#   11.143    0.000    0.000    1.714    0.000    0.000 
#    0.000    0.000    0.000    0.000    0.000    0.000 
#
# Total GULP energy -520350.772741 kJ/mol
# GULP energy per Si atom -12389.304113 kJ/mol
# Density = 2.155980 g / cm^3
# Si number density = 21.608978 Si / 1000 Ang^3
#
#
#
# Elastic Constant Matrix: (Units=GPa)
#
#
# Indices 1 2 3 4 5 6 
#
# 1 114.3209 63.5280 48.9870 0.0002 8.1601 0.0000
# 2 63.5280 114.3209 48.9870 -0.0002 -8.1601 0.0000
# 3 48.9870 48.9870 101.1258 0.0000 0.0000 0.0000
# 4 0.0002 -0.0002 0.0000 19.0735 0.0000 -8.1601
# 5 8.1601 -8.1601 0.0000 0.0000 19.0735 0.0002
# 6 0.0000 0.0000 0.0000 -8.1601 0.0002 25.3964
#
#
#
# Elastic Compliance Matrix: (Units=1/GPa)
#
#
# Indices 1 2 3 4 5 6 
#
# 1 0.015247 -0.007578 -0.003715 0.000000 -0.009765 0.000000
# 2 -0.007578 0.015247 -0.003715 0.000000 0.009765 0.000000
# 3 -0.003715 -0.003715 0.013488 0.000000 0.000000 0.000000
# 4 0.000000 0.000000 0.000000 0.060784 0.000000 0.019530
# 5 -0.009765 0.009765 0.000000 0.000000 0.060784 0.000000
# 6 0.000000 0.000000 0.000000 0.019530 0.000000 0.045651
#
#
# Mechanical properties :
#
#
# Convention : Reuss Voigt Hill
#
# Bulk Modulus (GPa) = 71.60184 72.53017 72.06600
# Shear Modulus (GPa) = 20.33558 23.92641 22.13100
#
# Velocity S-wave (km/s) = 3.07102 3.33114 3.20372
# Velocity P-wave (km/s) = 6.76624 6.95938 6.86349
#
# Compressibility (1/GPa) = 0.01396612
#
# Stress axis : x y z
#
# Youngs Moduli (GPa) = 65.58490 65.58490 74.13971
#
# Poissons Ratio (x) = 0.49701 0.27544
# Poissons Ratio (y) = 0.49701 0.27544
# Poissons Ratio (z) = 0.24366 0.24366
#
# Static dielectric constant tensor:
#      x y z
#    x 3.869530 0.000000 0.000000 
#    y 0.000000 3.869530 0.000000 
#    z 0.000000 0.000000 3.890920 
# 
# 
# High freq. dielectric constant tensor:
#      x y z
#    x 1.840590 0.000000 0.000000 
#    y 0.000000 1.840590 0.000000 
#    z 0.000000 0.000000 1.841790 
# 
# From -- ./inp_files/1514.got.cif
#   From: 2010.03.12/outbox.cif.g09.slc.cpg/sg163_1_cif.got.tgz:1514.got - 2010.04.02 06:30:25.
