data_PCOD8323436
_publ_section_title
;
Structure prediction by ZEFSAII (Michael W. Deem and Ramdas Pophale) SiO2 
 PCOD8323436
Probable space group: P -3 M 1
;
_chemical_formula_sum "Si O2"
_cell_formula_units_Z 96
_cell_length_a 16.878136
_cell_length_b 16.878136
_cell_length_c 25.796155
_cell_angle_alpha 90.000000
_cell_angle_beta 90.000000
_cell_angle_gamma 120.000000
_cell_volume 6364.064513
_symmetry_space_group_name_H-M "P -3 M 1"
_symmetry_group_IT_number 164
_symmetry_cell_setting 'hexagonal'
loop_
_space_group_symop_operation_xyz
x,y,z
-y,x-y,z
-x+y,-x,z
x-y,-y,-z
-x,-x+y,-z
y,x,-z
-x,-y,-z
y,-x+y,-z
x-y,x,-z
-x+y,y,z
x,x-y,z
-y,-x,z
loop_
_atom_site_type_symbol
_atom_site_label
_atom_site_fract_x
_atom_site_fract_y
_atom_site_fract_z
Si Si1 0.853699 0.519583 0.981690
Si Si2 0.667457 0.154555 0.578010
Si Si3 0.667034 0.515494 0.283906
Si Si4 0.848914 0.515178 0.166454
Si Si5 0.427716 0.037789 0.380783
Si Si6 0.096018 0.725987 0.520002
Si Si7 0.180011 0.179924 0.061216
Si Si8 0.629661 0.655493 0.921915
O O1 0.760883 0.521765 0.970011
O O2 0.830156 0.415078 0.987336
O O3 0.927067 0.568463 0.935476
O O4 0.899120 0.574879 0.034000
O O5 0.593444 0.186887 0.580921
O O6 0.763780 0.236221 0.597511
O O7 0.671305 0.126789 0.518688
O O8 0.642984 0.070277 0.616302
O O9 0.761497 0.522994 0.300283
O O10 0.589780 0.410221 0.289494
O O11 0.670568 0.549770 0.225218
O O12 0.648315 0.578906 0.322814
O O13 0.763761 0.527522 0.149142
O O14 0.816788 0.408394 0.161216
O O15 0.937574 0.574223 0.131176
O O16 0.529254 0.058507 0.394056
O O17 0.402779 0.092263 0.422321
O O18 0.166273 0.833728 0.519239
O O19 0.000000 0.713009 0.500000
O O20 0.160431 0.080216 0.077945
O O21 0.271606 0.256679 0.087980
O O22 0.095246 0.190491 0.080237
O O23 0.193749 0.193749 0.000000
#
# Coordination Sequence:
#
# PCOD8323436 Si02
#       8
#    12  12  12  12  12  12  12  12
#     4  11  21  33  47  65  88 115 144 173 206 246
#     4   9  16  25  38  57  82 112 143 175 209 247
#     4   9  17  28  43  62  85 111 139 171 209 251
#     4  10  19  31  46  65  87 112 141 174 212 254
#     4   9  16  26  40  59  82 109 139 172 208 248
#     4   9  16  25  38  57  82 110 139 170 207 251
#     4  10  18  29  45  66  90 115 140 168 203 248
#     4  11  20  31  48  66  89 115 142 174 210 249
#
# _framework density 15.0847
#
# number of rings (size 3 to 8) (size 9 to 14) (size 15 to 20)
#    0.000    2.250    1.250    4.375    0.000    3.000 
#    0.000    1.250    0.000    5.625    0.000    0.000 
#    0.000    2.000    0.000    0.000    0.000    1.000 
#
# Total GULP energy -1190363.774322 kJ/mol
# GULP energy per Si atom -12399.622649 kJ/mol
# Density = 1.505037 g / cm^3
# Si number density = 15.084700 Si / 1000 Ang^3
#
#
#
# Elastic Constant Matrix: (Units=GPa)
#
#
# Indices 1 2 3 4 5 6 
#
# 1 99.0046 45.1849 43.6063 0.3283 0.0000 0.0000
# 2 45.1849 99.0046 43.6063 -0.3283 0.0000 0.0000
# 3 43.6063 43.6063 79.6119 0.0000 0.0000 0.0000
# 4 0.3283 -0.3283 0.0000 18.9636 0.0000 0.0000
# 5 0.0000 0.0000 0.0000 0.0000 18.9636 0.3283
# 6 0.0000 0.0000 0.0000 0.0000 0.3283 26.9099
#
#
#
# Elastic Compliance Matrix: (Units=1/GPa)
#
#
# Indices 1 2 3 4 5 6 
#
# 1 0.014478 -0.004107 -0.005681 -0.000322 0.000000 0.000000
# 2 -0.004107 0.014478 -0.005681 0.000322 0.000000 0.000000
# 3 -0.005681 -0.005681 0.018784 0.000000 0.000000 0.000000
# 4 -0.000322 0.000322 0.000000 0.052744 0.000000 0.000000
# 5 0.000000 0.000000 0.000000 0.000000 0.052744 -0.000643
# 6 0.000000 0.000000 0.000000 0.000000 -0.000643 0.037169
#
#
# Mechanical properties :
#
#
# Convention : Reuss Voigt Hill
#
# Bulk Modulus (GPa) = 59.51078 60.26847 59.88963
# Shear Modulus (GPa) = 22.03291 22.64900 22.34096
#
# Velocity S-wave (km/s) = 3.82594 3.87907 3.85260
# Velocity P-wave (km/s) = 7.68465 7.75261 7.71871
#
# Compressibility (1/GPa) = 0.01680368
#
# Stress axis : x y z
#
# Youngs Moduli (GPa) = 69.07089 69.07089 53.23681
#
# Poissons Ratio (x) = 0.28365 0.30242
# Poissons Ratio (y) = 0.28365 0.30242
# Poissons Ratio (z) = 0.39237 0.39237
#
# Static dielectric constant tensor:
#      x y z
#    x 2.940330 0.000000 0.000000 
#    y 0.000000 2.940330 0.000000 
#    z 0.000000 0.000000 2.769460 
# 
# 
# High freq. dielectric constant tensor:
#      x y z
#    x 1.576510 0.000000 0.000000 
#    y 0.000000 1.576510 0.000000 
#    z 0.000000 0.000000 1.551030 
# 
# From -- ./inp_files/5095.got.cif
#   From: 2010.03.12/outbox.cif.g09.slc.cpg/sg164_3_cif.got.tgz:5095.got - 2010.04.02 06:32:59.
