data_PCOD8323005
_publ_section_title
;
Structure prediction by ZEFSAII (Michael W. Deem and Ramdas Pophale) SiO2 
 PCOD8323005
Probable space group: P -3 1 M 
;
_chemical_formula_sum "Si O2"
_cell_formula_units_Z 80
_cell_length_a 17.962710
_cell_length_b 17.962710
_cell_length_c 18.800342
_cell_angle_alpha 90.000000
_cell_angle_beta 90.000000
_cell_angle_gamma 120.000000
_cell_volume 5253.395506
_symmetry_space_group_name_H-M "P -3 1 M "
_symmetry_group_IT_number 162
_symmetry_cell_setting 'hexagonal'
loop_
_space_group_symop_operation_xyz
x,y,z
-y,x-y,z
-x+y,-x,z
-y,-x,-z
-x+y,y,-z
x,x-y,-z
-x,-y,-z
y,-x+y,-z
x-y,x,-z
y,x,z
x-y,-y,z
-x,-x+y,z
loop_
_atom_site_type_symbol
_atom_site_label
_atom_site_fract_x
_atom_site_fract_y
_atom_site_fract_z
Si Si1 0.524290 0.761014 0.420404
Si Si2 0.516508 0.612377 0.667923
Si Si3 0.666668 0.333334 0.223193
Si Si4 0.274791 0.477066 0.827100
Si Si5 0.663156 0.568874 0.827002
Si Si6 0.656858 0.101378 0.687200
Si Si7 0.575595 0.477939 0.075950
Si Si8 0.666668 0.333334 0.607436
O O1 0.562573 0.781287 0.500000
O O2 0.531701 0.846293 0.387324
O O3 0.578049 0.728235 0.373846
O O4 0.425045 0.686806 0.422420
O O5 0.565435 0.565435 0.636454
O O6 0.554180 0.654487 0.743196
O O7 0.416395 0.543639 0.677893
O O8 0.711621 0.430594 0.195665
O O9 0.666668 0.333334 0.307639
O O10 0.173546 0.416774 0.847501
O O11 0.300452 0.433502 0.764367
O O12 0.326937 0.482513 0.897951
O O13 0.650541 0.650541 0.846510
O O14 0.589325 0.485197 0.865619
O O15 0.620286 0.000000 0.681069
O O16 0.554891 0.554891 0.066772
O O17 0.567076 0.432925 0.000000
#
# Coordination Sequence:
#
# PCOD8323005 Si02
#       8
#    12  12   4  12  12  12  12   4
#     4  12  22  32  46  65  92 123 156 201 241 278
#     4  10  19  33  49  65  87 121 159 194 239 289
#     4  12  18  28  50  70  81 118 164 208 228 268
#     4  12  18  32  50  69  92 122 164 205 242 277
#     4  10  19  32  49  67  90 123 161 200 241 287
#     4  11  21  32  49  69  89 117 159 201 240 287
#     4  10  21  34  47  69 101 129 158 201 248 283
#     4  12  19  31  42  64  88 115 158 193 235 280
#
# _framework density 15.228246
#
# number of rings (size 3 to 8) (size 9 to 14) (size 15 to 20)
#    0.000    1.050    7.500    0.900    0.000    1.200 
#    0.000    1.500    0.000    0.000    0.000    0.000 
#    0.000    0.000    0.000    8.100    0.000    4.650 
#
# Total GULP energy -991976.544204 kJ/mol
# GULP energy per Si atom -12399.706803 kJ/mol
# Density = 1.519359 g / cm^3
# Si number density = 15.228246 Si / 1000 Ang^3
#
#
#
# Elastic Constant Matrix: (Units=GPa)
#
#
# Indices 1 2 3 4 5 6 
#
# 1 89.8330 22.8561 30.9116 0.0014 4.5300 -0.0012
# 2 22.8561 89.8325 30.9118 -0.0013 -4.5300 0.0008
# 3 30.9116 30.9118 86.5911 0.0002 0.0001 0.0002
# 4 0.0014 -0.0013 0.0002 15.5847 0.0003 -4.5309
# 5 4.5300 -4.5300 0.0001 0.0003 15.5844 -0.0001
# 6 -0.0012 0.0008 0.0002 -4.5309 -0.0001 33.4895
#
#
#
# Elastic Compliance Matrix: (Units=1/GPa)
#
#
# Indices 1 2 3 4 5 6 
#
# 1 0.013288 -0.002253 -0.003939 -0.000001 -0.004518 0.000000
# 2 -0.002253 0.013289 -0.003939 0.000001 0.004518 0.000000
# 3 -0.003939 -0.003939 0.014361 0.000000 0.000000 0.000000
# 4 -0.000001 0.000001 0.000000 0.066793 0.000000 0.009036
# 5 -0.004518 0.004518 0.000000 0.000000 0.066793 0.000000
# 6 0.000000 0.000000 0.000000 0.009036 0.000000 0.031083
#
#
# Mechanical properties :
#
#
# Convention : Reuss Voigt Hill
#
# Bulk Modulus (GPa) = 48.36999 48.40173 48.38586
# Shear Modulus (GPa) = 21.48121 25.03688 23.25905
#
# Velocity S-wave (km/s) = 3.75989 4.05916 3.91239
# Velocity P-wave (km/s) = 7.11908 7.33636 7.22854
#
# Compressibility (1/GPa) = 0.02067398
#
# Stress axis : x y z
#
# Youngs Moduli (GPa) = 75.25363 75.25301 69.63233
#
# Poissons Ratio (x) = 0.16956 0.27431
# Poissons Ratio (y) = 0.16956 0.27431
# Poissons Ratio (z) = 0.29645 0.29646
#
# Static dielectric constant tensor:
#      x y z
#    x 2.904400 0.000000 0.000000 
#    y 0.000000 2.904400 0.000000 
#    z 0.000000 0.000000 2.978470 
# 
# 
# High freq. dielectric constant tensor:
#      x y z
#    x 1.556710 0.000000 0.000000 
#    y 0.000000 1.556710 0.000000 
#    z 0.000000 0.000000 1.590460 
# 
# From -- ./inp_files/3641.got.cif
#   From: 2010.03.12/outbox.cif.g09.slc.cpg/sg162_2_cif.got.tgz:3641.got - 2010.04.02 06:27:41.
