data_PCOD8323596
_publ_section_title
;
Structure prediction by ZEFSAII (Michael W. Deem and Ramdas Pophale) SiO2 
 PCOD8323596
Probable space group: P -3 M 1
;
_chemical_formula_sum "Si O2"
_cell_formula_units_Z 58
_cell_length_a 15.564721
_cell_length_b 15.564721
_cell_length_c 14.794375
_cell_angle_alpha 90.000000
_cell_angle_beta 90.000000
_cell_angle_gamma 120.000000
_cell_volume 3103.915824
_symmetry_space_group_name_H-M "P -3 M 1"
_symmetry_group_IT_number 164
_symmetry_cell_setting 'hexagonal'
loop_
_space_group_symop_operation_xyz
x,y,z
-y,x-y,z
-x+y,-x,z
x-y,-y,-z
-x,-x+y,-z
y,x,-z
-x,-y,-z
y,-x+y,-z
x-y,x,-z
-x+y,y,z
x,x-y,z
-y,-x,z
loop_
_atom_site_type_symbol
_atom_site_label
_atom_site_fract_x
_atom_site_fract_y
_atom_site_fract_z
Si Si1 0.563702 0.436299 0.438339
Si Si2 0.281080 0.360833 0.079702
Si Si3 0.650163 0.726973 0.778959
Si Si4 0.457177 0.914354 0.762762
Si Si5 0.352592 0.276139 0.431452
Si Si6 0.333334 0.666667 0.466605
Si Si7 0.666667 0.333334 0.746884
Si Si8 0.561227 0.438774 0.837376
O O1 0.572700 0.427301 0.330729
O O2 0.448067 0.379083 0.461245
O O3 0.612166 0.387835 0.496568
O O4 0.172779 0.345558 0.057627
O O5 0.273811 0.296254 0.167995
O O6 0.358484 0.476419 0.097164
O O7 0.320241 0.320241 0.000000
O O8 0.671678 0.835839 0.804252
O O9 0.534945 0.648255 0.809247
O O10 0.671261 0.718804 0.673469
O O11 0.517593 0.035185 0.761571
O O12 0.266228 0.266228 0.500000
O O13 0.371639 0.185820 0.448579
O O14 0.333334 0.666667 0.359822
O O15 0.610919 0.389082 0.780796
#
# Coordination Sequence:
#
# PCOD8323596 Si02
#       8
#     6  12  12   6  12   2   2   6
#     4  10  19  36  47  77 116 154 196 246 291 322
#     4  11  22  38  64  90 116 150 187 237 293 357
#     4   9  19  36  54  81 114 149 189 239 293 347
#     4   8  18  33  57  76 109 152 203 235 285 334
#     4  10  20  34  54  77 110 151 196 243 286 346
#     4  12  24  30  54  87 124 170 205 252 291 345
#     4  12  24  39  57  84 127 164 208 228 303 354
#     4  10  21  42  59  86 118 162 191 239 283 351
#
# _framework density 18.686074000000001
#
# number of rings (size 3 to 8) (size 9 to 14) (size 15 to 20)
#    0.000    2.069    2.069    1.241    1.448    5.793 
#    0.621    0.000    0.000    3.931    0.000    0.000 
#    0.000    0.000    0.000    0.000    0.000    0.000 
#
# Total GULP energy -718527.518862 kJ/mol
# GULP energy per Si atom -12388.405498 kJ/mol
# Density = 1.864354 g / cm^3
# Si number density = 18.686074 Si / 1000 Ang^3
#
#
#
# Elastic Constant Matrix: (Units=GPa)
#
#
# Indices 1 2 3 4 5 6 
#
# 1 95.0534 46.7489 56.4334 3.3162 0.0000 0.0000
# 2 46.7489 95.0536 56.4335 -3.3161 0.0000 0.0000
# 3 56.4334 56.4335 100.3961 0.0000 0.0000 0.0000
# 4 3.3162 -3.3161 0.0000 33.6515 0.0000 0.0000
# 5 0.0000 0.0000 0.0000 0.0000 33.6514 3.3163
# 6 0.0000 0.0000 0.0000 0.0000 3.3163 24.1526
#
#
#
# Elastic Compliance Matrix: (Units=1/GPa)
#
#
# Indices 1 2 3 4 5 6 
#
# 1 0.016874 -0.004112 -0.007174 -0.002068 0.000000 0.000000
# 2 -0.004112 0.016874 -0.007174 0.002068 0.000000 0.000000
# 3 -0.007174 -0.007174 0.018025 0.000000 0.000000 0.000000
# 4 -0.002068 0.002068 0.000000 0.030124 0.000000 0.000000
# 5 0.000000 0.000000 0.000000 0.000000 0.030124 -0.004136
# 6 0.000000 0.000000 0.000000 0.000000 -0.004136 0.041971
#
#
# Mechanical properties :
#
#
# Convention : Reuss Voigt Hill
#
# Bulk Modulus (GPa) = 67.31889 67.74831 67.53360
# Shear Modulus (GPa) = 25.52820 27.01692 26.27256
#
# Velocity S-wave (km/s) = 3.70017 3.80653 3.75373
# Velocity P-wave (km/s) = 7.37289 7.46018 7.41666
#
# Compressibility (1/GPa) = 0.01485467
#
# Stress axis : x y z
#
# Youngs Moduli (GPa) = 59.26323 59.26334 55.47815
#
# Poissons Ratio (x) = 0.24369 0.39797
# Poissons Ratio (y) = 0.24369 0.39797
# Poissons Ratio (z) = 0.42513 0.42513
#
# Static dielectric constant tensor:
#      x y z
#    x 3.346360 0.000000 0.000000 
#    y 0.000000 3.346370 0.000000 
#    z 0.000000 0.000000 3.423440 
# 
# 
# High freq. dielectric constant tensor:
#      x y z
#    x 1.717240 0.000000 0.000000 
#    y 0.000000 1.717240 0.000000 
#    z 0.000000 0.000000 1.722630 
# 
# From -- ./inp_files/3349.got.cif
#   From: 2010.03.12/outbox.cif.g09.slc.cpg/sg164_2_cif.got.tgz:3349.got - 2010.04.02 06:32:59.
