data_PCOD8323486
_publ_section_title
;
Structure prediction by ZEFSAII (Michael W. Deem and Ramdas Pophale) SiO2 
 PCOD8323486
Probable space group: P -3 M 1
;
_chemical_formula_sum "Si O2"
_cell_formula_units_Z 84
_cell_length_a 17.254261
_cell_length_b 17.254261
_cell_length_c 20.395785
_cell_angle_alpha 90.000000
_cell_angle_beta 90.000000
_cell_angle_gamma 120.000000
_cell_volume 5258.523067
_symmetry_space_group_name_H-M "P -3 M 1"
_symmetry_group_IT_number 164
_symmetry_cell_setting 'hexagonal'
loop_
_space_group_symop_operation_xyz
x,y,z
-y,x-y,z
-x+y,-x,z
x-y,-y,-z
-x,-x+y,-z
y,x,-z
-x,-y,-z
y,-x+y,-z
x-y,x,-z
-x+y,y,z
x,x-y,z
-y,-x,z
loop_
_atom_site_type_symbol
_atom_site_label
_atom_site_fract_x
_atom_site_fract_y
_atom_site_fract_z
Si Si1 0.666154 0.153875 0.998440
Si Si2 0.096185 0.371975 0.883031
Si Si3 0.062102 0.303123 0.691471
Si Si4 0.332374 0.847281 0.754580
Si Si5 0.839861 0.333258 0.849672
Si Si6 0.000306 0.178833 0.574569
Si Si7 0.761499 0.063450 0.809240
O O1 0.576541 0.153081 0.017737
O O2 0.746614 0.253386 0.011628
O O3 0.675927 0.085803 0.047308
O O4 0.663514 0.123749 0.923456
O O5 0.174680 0.349359 0.884564
O O6 0.112810 0.443468 0.825683
O O7 0.006911 0.278154 0.868736
O O8 0.144540 0.289080 0.710369
O O9 0.095201 0.408804 0.699632
O O10 0.025167 0.266124 0.618825
O O11 0.982767 0.241745 0.740882
O O12 0.428984 0.857967 0.741295
O O13 0.257237 0.742764 0.750438
O O14 0.860859 0.430430 0.825955
O O15 0.733071 0.266930 0.848806
O O16 0.889140 0.298755 0.801395
O O17 0.074143 0.148285 0.583284
O O18 0.000000 0.208852 0.500000
O O19 0.904493 0.095508 0.594900
O O20 0.863525 0.136476 0.826523
#
# Coordination Sequence:
#
# PCOD8323486 Si02
#       7
#    12  12  12  12  12  12  12
#     4   9  16  27  43  63  86 110 135 166 212 269
#     4   9  18  30  43  60  83 108 135 176 228 271
#     4   9  18  31  46  65  90 117 141 171 213 253
#     4   9  16  26  41  62  87 115 146 178 213 255
#     4   9  18  30  44  62  84 110 140 176 217 260
#     4   9  16  27  46  72  98 120 141 168 207 257
#     4  10  19  30  43  58  79 111 146 173 201 243
#
# _framework density 15.974066000000001
#
# number of rings (size 3 to 8) (size 9 to 14) (size 15 to 20)
#    0.000    2.857    0.000    2.714    0.000    5.143 
#    0.000    2.857    0.000    4.429    0.000    0.000 
#    0.000    0.000    0.000   29.143    0.000    0.000 
#
# Total GULP energy -1041249.771251 kJ/mol
# GULP energy per Si atom -12395.830610 kJ/mol
# Density = 1.593771 g / cm^3
# Si number density = 15.974066 Si / 1000 Ang^3
#
#
#
# Elastic Constant Matrix: (Units=GPa)
#
#
# Indices 1 2 3 4 5 6 
#
# 1 79.9908 38.0742 32.1447 -3.6016 0.0000 0.0000
# 2 38.0742 79.9908 32.1447 3.6016 0.0000 0.0000
# 3 32.1447 32.1447 61.7995 0.0000 0.0000 0.0000
# 4 -3.6016 3.6016 0.0000 21.5787 0.0000 0.0000
# 5 0.0000 0.0000 0.0000 0.0000 21.5787 -3.6016
# 6 0.0000 0.0000 0.0000 0.0000 -3.6016 20.9583
#
#
#
# Elastic Compliance Matrix: (Units=1/GPa)
#
#
# Indices 1 2 3 4 5 6 
#
# 1 0.018189 -0.006372 -0.006146 0.004099 0.000000 0.000000
# 2 -0.006372 0.018189 -0.006146 -0.004099 0.000000 0.000000
# 3 -0.006146 -0.006146 0.022575 0.000000 0.000000 0.000000
# 4 0.004099 -0.004099 0.000000 0.047710 0.000000 0.000000
# 5 0.000000 0.000000 0.000000 0.000000 0.047710 0.008199
# 6 0.000000 0.000000 0.000000 0.000000 0.008199 0.049123
#
#
# Mechanical properties :
#
#
# Convention : Reuss Voigt Hill
#
# Bulk Modulus (GPa) = 46.24648 47.38979 46.81813
# Shear Modulus (GPa) = 20.15843 20.78430 20.47136
#
# Velocity S-wave (km/s) = 3.55624 3.61103 3.58374
# Velocity P-wave (km/s) = 6.77321 6.86419 6.81885
#
# Compressibility (1/GPa) = 0.02162327
#
# Stress axis : x y z
#
# Youngs Moduli (GPa) = 54.97806 54.97806 44.29591
#
# Poissons Ratio (x) = 0.35033 0.27226
# Poissons Ratio (y) = 0.35033 0.27226
# Poissons Ratio (z) = 0.33792 0.33792
#
# Static dielectric constant tensor:
#      x y z
#    x 3.035970 0.000000 0.000000 
#    y 0.000000 3.035970 0.000000 
#    z 0.000000 0.000000 2.933270 
# 
# 
# High freq. dielectric constant tensor:
#      x y z
#    x 1.611140 0.000000 0.000000 
#    y 0.000000 1.611140 0.000000 
#    z 0.000000 0.000000 1.584770 
# 
# From -- ./inp_files/4655.got.cif
#   From: 2010.03.12/outbox.cif.g09.slc.cpg/sg164_3_cif.got.tgz:4655.got - 2010.04.02 06:32:59.
