data_PCOD8323736
_publ_section_title
;
Structure prediction by ZEFSAII (Michael W. Deem and Ramdas Pophale) SiO2 
 PCOD8323736
Probable space group: P -3 M 1
;
_chemical_formula_sum "Si O2"
_cell_formula_units_Z 60
_cell_length_a 17.723405
_cell_length_b 17.723405
_cell_length_c 12.460753
_cell_angle_alpha 90.000000
_cell_angle_beta 90.000000
_cell_angle_gamma 120.000000
_cell_volume 3389.762279
_symmetry_space_group_name_H-M "P -3 M 1"
_symmetry_group_IT_number 164
_symmetry_cell_setting 'hexagonal'
loop_
_space_group_symop_operation_xyz
x,y,z
-y,x-y,z
-x+y,-x,z
x-y,-y,-z
-x,-x+y,-z
y,x,-z
-x,-y,-z
y,-x+y,-z
x-y,x,-z
-x+y,y,z
x,x-y,z
-y,-x,z
loop_
_atom_site_type_symbol
_atom_site_label
_atom_site_fract_x
_atom_site_fract_y
_atom_site_fract_z
Si Si1 0.092688 0.355343 0.212026
Si Si2 0.491184 0.159499 0.965701
Si Si3 0.270502 0.901903 0.837090
Si Si4 0.263085 0.907604 0.460095
Si Si5 0.331934 0.839800 0.636523
O O1 0.159969 0.319938 0.191436
O O2 0.125047 0.445665 0.149147
O O3 0.090153 0.377347 0.336130
O O4 0.997853 0.281745 0.170603
O O5 0.572800 0.145599 0.974687
O O6 0.522800 0.261400 0.980949
O O7 0.422662 0.103463 0.057627
O O8 0.167776 0.832225 0.841372
O O9 0.315575 0.887930 0.734147
O O10 0.162229 0.837772 0.483270
O O11 0.325397 0.882131 0.525367
O O12 0.277148 0.000000 0.500000
O O13 0.427508 0.855015 0.647871
O O14 0.262910 0.737090 0.639332
#
# Coordination Sequence:
#
# PCOD8323736 Si02
#       5
#    12  12  12  12  12
#     4  10  21  36  53  77 106 137 173 215 265 319
#     4  10  21  36  54  77 108 144 181 218 259 306
#     4  10  20  35  55  78 103 135 174 216 264 313
#     4  10  20  36  55  76 102 137 178 218 267 320
#     4  10  20  33  50  74 103 135 172 214 261 308
#
# _framework density 17.700357
#
# number of rings (size 3 to 8) (size 9 to 14) (size 15 to 20)
#    0.000    2.000    2.000    1.600    0.000    3.600 
#    0.000    2.000    0.000    3.000    0.000    0.000 
#    0.000    4.800    0.000    0.000    0.000    0.000 
#
# Total GULP energy -744100.618762 kJ/mol
# GULP energy per Si atom -12401.676979 kJ/mol
# Density = 1.766007 g / cm^3
# Si number density = 17.700357 Si / 1000 Ang^3
#
#
#
# Elastic Constant Matrix: (Units=GPa)
#
#
# Indices 1 2 3 4 5 6 
#
# 1 101.2586 70.5336 45.9810 0.4316 0.0000 0.0000
# 2 70.5336 101.2586 45.9810 -0.4316 0.0000 0.0000
# 3 45.9810 45.9810 123.5476 0.0000 0.0000 0.0000
# 4 0.4316 -0.4316 0.0000 21.0655 0.0000 0.0000
# 5 0.0000 0.0000 0.0000 0.0000 21.0655 0.4316
# 6 0.0000 0.0000 0.0000 0.0000 0.4316 15.3625
#
#
#
# Elastic Compliance Matrix: (Units=1/GPa)
#
#
# Indices 1 2 3 4 5 6 
#
# 1 0.019917 -0.012648 -0.002705 -0.000667 0.000000 0.000000
# 2 -0.012648 0.019917 -0.002705 0.000667 0.000000 0.000000
# 3 -0.002705 -0.002705 0.010108 0.000000 0.000000 0.000000
# 4 -0.000667 0.000667 0.000000 0.047498 0.000000 0.000000
# 5 0.000000 0.000000 0.000000 0.000000 0.047498 -0.001335
# 6 0.000000 0.000000 0.000000 0.000000 -0.001335 0.065131
#
#
# Mechanical properties :
#
#
# Convention : Reuss Voigt Hill
#
# Bulk Modulus (GPa) = 72.33472 72.33957 72.33714
# Shear Modulus (GPa) = 19.93651 22.40332 21.16992
#
# Velocity S-wave (km/s) = 3.35973 3.56153 3.46210
# Velocity P-wave (km/s) = 7.48367 7.60726 7.54572
#
# Compressibility (1/GPa) = 0.01382462
#
# Stress axis : x y z
#
# Youngs Moduli (GPa) = 50.20753 50.20753 98.93351
#
# Poissons Ratio (x) = 0.63503 0.26765
# Poissons Ratio (y) = 0.63503 0.26765
# Poissons Ratio (z) = 0.13583 0.13583
#
# Static dielectric constant tensor:
#      x y z
#    x 3.236510 0.000000 0.000000 
#    y 0.000000 3.236510 0.000000 
#    z 0.000000 0.000000 3.580490 
# 
# 
# High freq. dielectric constant tensor:
#      x y z
#    x 1.672610 0.000000 0.000000 
#    y 0.000000 1.672610 0.000000 
#    z 0.000000 0.000000 1.707300 
# 
# From -- ./inp_files/2669.got.cif
#   From: 2010.03.12/outbox.cif.g09.slc.cpg/sg164_2_cif.got.tgz:2669.got - 2010.04.02 06:32:59.
