data_PCOD8323666
_publ_section_title
;
Structure prediction by ZEFSAII (Michael W. Deem and Ramdas Pophale) SiO2 
 PCOD8323666
Probable space group: P -3 M 1
;
_chemical_formula_sum "Si O2"
_cell_formula_units_Z 60
_cell_length_a 12.466410
_cell_length_b 12.466410
_cell_length_c 26.272498
_cell_angle_alpha 90.000000
_cell_angle_beta 90.000000
_cell_angle_gamma 120.000000
_cell_volume 3536.020803
_symmetry_space_group_name_H-M "P -3 M 1"
_symmetry_group_IT_number 164
_symmetry_cell_setting 'hexagonal'
loop_
_space_group_symop_operation_xyz
x,y,z
-y,x-y,z
-x+y,-x,z
x-y,-y,-z
-x,-x+y,-z
y,x,-z
-x,-y,-z
y,-x+y,-z
x-y,x,-z
-x+y,y,z
x,x-y,z
-y,-x,z
loop_
_atom_site_type_symbol
_atom_site_label
_atom_site_fract_x
_atom_site_fract_y
_atom_site_fract_z
Si Si1 0.248485 0.998999 0.446340
Si Si2 0.334209 0.416809 0.241663
Si Si3 0.081724 0.665280 0.048593
Si Si4 0.583260 0.918013 0.854867
Si Si5 0.749376 0.001771 0.663732
O O1 0.248018 0.124009 0.439047
O O2 0.302188 0.983517 0.392202
O O3 0.318554 0.000000 0.500000
O O4 0.108234 0.891767 0.453380
O O5 0.206503 0.413006 0.231173
O O6 0.441335 0.558666 0.242634
O O7 0.355059 0.341123 0.197534
O O8 0.334708 0.354008 0.294972
O O9 0.119132 0.559566 0.048654
O O10 0.204632 0.795369 0.046481
O O11 0.007516 0.659362 0.099074
O O12 0.000000 0.653957 0.000000
O O13 0.439957 0.879913 0.857712
O O14 0.592603 0.796302 0.859088
O O15 0.738124 0.869062 0.671689
O O16 0.893152 0.106849 0.669788
#
# Coordination Sequence:
#
# PCOD8323666 Si02
#       5
#    12  12  12  12  12
#     4   8  12  18  31  54  84 115 144 175 215 266
#     4  10  20  33  49  67  89 119 155 194 231 270
#     4  10  20  34  54  78 104 134 167 203 238 273
#     4  10  20  34  53  75  98 123 152 190 235 282
#     4   9  16  26  42  65  92 119 146 180 226 279
#
# _framework density 16.968226000000001
#
# number of rings (size 3 to 8) (size 9 to 14) (size 15 to 20)
#    0.000    2.600    0.000    2.800    0.000    2.400 
#    0.000    4.000    0.000    9.800    0.000    0.000 
#    0.000    0.000    0.000    0.000    0.000    0.000 
#
# Total GULP energy -743414.392658 kJ/mol
# GULP energy per Si atom -12390.239878 kJ/mol
# Density = 1.692961 g / cm^3
# Si number density = 16.968226 Si / 1000 Ang^3
#
#
#
# Elastic Constant Matrix: (Units=GPa)
#
#
# Indices 1 2 3 4 5 6 
#
# 1 81.9216 52.9742 52.6774 -1.9435 0.0000 0.0000
# 2 52.9742 81.9216 52.6774 1.9435 0.0000 0.0000
# 3 52.6774 52.6774 160.5981 0.0000 0.0000 0.0000
# 4 -1.9435 1.9435 0.0000 24.6741 0.0000 0.0000
# 5 0.0000 0.0000 0.0000 0.0000 24.6741 -1.9435
# 6 0.0000 0.0000 0.0000 0.0000 -1.9435 14.4737
#
#
#
# Elastic Compliance Matrix: (Units=1/GPa)
#
#
# Indices 1 2 3 4 5 6 
#
# 1 0.022440 -0.012474 -0.003269 0.002750 0.000000 0.000000
# 2 -0.012474 0.022440 -0.003269 -0.002750 0.000000 0.000000
# 3 -0.003269 -0.003269 0.008371 0.000000 0.000000 0.000000
# 4 0.002750 -0.002750 0.000000 0.040962 0.000000 0.000000
# 5 0.000000 0.000000 0.000000 0.000000 0.040962 0.005500
# 6 0.000000 0.000000 0.000000 0.000000 0.005500 0.069829
#
#
# Mechanical properties :
#
#
# Convention : Reuss Voigt Hill
#
# Bulk Modulus (GPa) = 65.66973 71.23328 68.45151
# Shear Modulus (GPa) = 20.15277 23.83855 21.99566
#
# Velocity S-wave (km/s) = 3.45001 3.75226 3.60430
# Velocity P-wave (km/s) = 7.39295 7.80026 7.59934
#
# Compressibility (1/GPa) = 0.01522772
#
# Stress axis : x y z
#
# Youngs Moduli (GPa) = 44.56240 44.56240 119.45657
#
# Poissons Ratio (x) = 0.55588 0.39050
# Poissons Ratio (y) = 0.55588 0.39050
# Poissons Ratio (z) = 0.14567 0.14567
#
# Static dielectric constant tensor:
#      x y z
#    x 2.922200 0.000000 0.000000 
#    y 0.000000 2.922200 0.000000 
#    z 0.000000 0.000000 3.805170 
# 
# 
# High freq. dielectric constant tensor:
#      x y z
#    x 1.630440 0.000000 0.000000 
#    y 0.000000 1.630440 0.000000 
#    z 0.000000 0.000000 1.689160 
# 
# From -- ./inp_files/5169.got.cif
#   From: 2010.03.12/outbox.cif.g09.slc.cpg/sg164_3_cif.got.tgz:5169.got - 2010.04.02 06:32:59.
