data_PCOD8323857
_publ_section_title
;
Structure prediction by ZEFSAII (Michael W. Deem and Ramdas Pophale) SiO2 
 PCOD8323857
Probable space group: P -3 C 1
;
_chemical_formula_sum "Si O2"
_cell_formula_units_Z 96
_cell_length_a 17.751162
_cell_length_b 17.751162
_cell_length_c 19.955329
_cell_angle_alpha 90.000000
_cell_angle_beta 90.000000
_cell_angle_gamma 120.000000
_cell_volume 5445.566914
_symmetry_space_group_name_H-M "P -3 C 1"
_symmetry_group_IT_number 165
_symmetry_cell_setting 'hexagonal'
loop_
_space_group_symop_operation_xyz
x,y,z
-y,x-y,z
-x+y,-x,z
x-y,-y,1/2-z
-x,-x+y,1/2-z
y,x,1/2-z
-x,-y,-z
y,-x+y,-z
x-y,x,-z
-x+y,y,1/2+z
x,x-y,1/2+z
-y,-x,1/2+z
loop_
_atom_site_type_symbol
_atom_site_label
_atom_site_fract_x
_atom_site_fract_y
_atom_site_fract_z
Si Si1 0.713591 0.997145 0.172618
Si Si2 0.192132 0.790716 0.526154
Si Si3 0.373473 0.430081 0.062111
Si Si4 0.154641 0.038574 0.039565
Si Si5 0.322161 0.331574 0.824108
Si Si6 0.100453 0.855189 0.624138
Si Si7 0.390212 0.934236 0.062865
Si Si8 0.672607 0.827523 0.393484
O O1 0.796319 0.087022 0.150850
O O2 0.689435 0.000000 0.250000
O O3 0.630185 0.978563 0.128137
O O4 0.745007 0.927060 0.165027
O O5 0.292507 0.851186 0.542884
O O6 0.132919 0.828641 0.556821
O O7 0.160952 0.695131 0.556036
O O8 0.181674 0.780743 0.445286
O O9 0.451237 0.526523 0.074976
O O10 0.401515 0.389649 0.001926
O O11 0.256742 0.080575 0.055729
O O12 0.111330 0.966198 0.099583
O O13 0.117812 0.983905 0.968530
O O14 0.359563 0.359563 0.750000
O O15 0.278208 0.227407 0.827720
O O16 0.403271 0.384784 0.871583
O O17 0.252395 0.361702 0.842106
#
# Coordination Sequence:
#
# PCOD8323857 Si02
#       8
#    12  12  12  12  12  12  12  12
#     4  11  22  36  54  76 111 147 182 225 274 327
#     4  10  18  34  57  81 108 138 172 227 269 320
#     4  10  21  36  57  86 110 133 181 222 273 322
#     4  11  20  28  45  74 109 140 191 238 275 313
#     4  10  20  34  52  77 110 144 180 216 273 324
#     4   9  20  31  50  75 107 139 186 229 265 313
#     4  10  20  36  58  84 110 137 173 230 266 321
#     4  11  20  31  53  78 107 142 186 227 271 322
#
# _framework density 17.629017999999999
#
# number of rings (size 3 to 8) (size 9 to 14) (size 15 to 20)
#    0.000    1.750    3.750    1.625    1.750    0.500 
#    0.750    0.000    0.000    0.000    0.000    1.750 
#    0.000    0.000    0.000    0.000    0.000    0.000 
#
# Total GULP energy -1189436.862704 kJ/mol
# GULP energy per Si atom -12389.967320 kJ/mol
# Density = 1.758889 g / cm^3
# Si number density = 17.629018 Si / 1000 Ang^3
#
#
#
# Elastic Constant Matrix: (Units=GPa)
#
#
# Indices 1 2 3 4 5 6 
#
# 1 76.8275 34.2532 30.9006 0.5974 0.0000 0.0000
# 2 34.2532 76.8275 30.9006 -0.5974 0.0000 0.0000
# 3 30.9006 30.9006 107.2968 0.0000 0.0000 0.0000
# 4 0.5974 -0.5974 0.0000 17.2099 0.0000 0.0000
# 5 0.0000 0.0000 0.0000 0.0000 17.2099 0.5974
# 6 0.0000 0.0000 0.0000 0.0000 0.5974 21.2872
#
#
#
# Elastic Compliance Matrix: (Units=1/GPa)
#
#
# Indices 1 2 3 4 5 6 
#
# 1 0.017116 -0.006396 -0.003087 -0.000816 0.000000 0.000000
# 2 -0.006396 0.017116 -0.003087 0.000816 0.000000 0.000000
# 3 -0.003087 -0.003087 0.011098 0.000000 0.000000 0.000000
# 4 -0.000816 0.000816 0.000000 0.058163 0.000000 0.000000
# 5 0.000000 0.000000 0.000000 0.000000 0.058163 -0.001632
# 6 0.000000 0.000000 0.000000 0.000000 -0.001632 0.047022
#
#
# Mechanical properties :
#
#
# Convention : Reuss Voigt Hill
#
# Bulk Modulus (GPa) = 49.53143 50.34008 49.93576
# Shear Modulus (GPa) = 20.78591 22.13456 21.46023
#
# Velocity S-wave (km/s) = 3.43749 3.54725 3.49280
# Velocity P-wave (km/s) = 6.62666 6.73755 6.68234
#
# Compressibility (1/GPa) = 0.02018920
#
# Stress axis : x y z
#
# Youngs Moduli (GPa) = 58.42596 58.42596 90.10485
#
# Poissons Ratio (x) = 0.37367 0.27818
# Poissons Ratio (y) = 0.37367 0.27818
# Poissons Ratio (z) = 0.18038 0.18038
#
# Static dielectric constant tensor:
#      x y z
#    x 3.164180 0.000000 0.000000 
#    y 0.000000 3.164180 0.000000 
#    z 0.000000 0.000000 3.201290 
# 
# 
# High freq. dielectric constant tensor:
#      x y z
#    x 1.667280 0.000000 0.000000 
#    y 0.000000 1.667280 0.000000 
#    z 0.000000 0.000000 1.675270 
# 
# From -- ./inp_files/2764.got.cif
#   From: 2010.03.12/outbox.cif.g09.slc.cpg/sg165_2_cif.got.tgz:2764.got - 2010.04.02 06:36:38.
