data_PCOD8323327
_publ_section_title
;
Structure prediction by ZEFSAII (Michael W. Deem and Ramdas Pophale) SiO2 
 PCOD8323327
Probable space group: P -3 1 C
;
_chemical_formula_sum "Si O2"
_cell_formula_units_Z 70
_cell_length_a 14.650210
_cell_length_b 14.650210
_cell_length_c 17.186840
_cell_angle_alpha 90.000000
_cell_angle_beta 90.000000
_cell_angle_gamma 120.000000
_cell_volume 3194.584394
_symmetry_space_group_name_H-M "P -3 1 C"
_symmetry_group_IT_number 163
_symmetry_cell_setting 'hexagonal'
loop_
_space_group_symop_operation_xyz
x,y,z
-y,x-y,z
-x+y,-x,z
-y,-x,1/2-z
-x+y,y,1/2-z
x,x-y,1/2-z
-x,-y,-z
y,-x+y,-z
x-y,x,-z
y,x,1/2+z
x-y,-y,1/2+z
-x,-x+y,1/2+z
loop_
_atom_site_type_symbol
_atom_site_label
_atom_site_fract_x
_atom_site_fract_y
_atom_site_fract_z
Si Si1 0.648781 0.824391 0.250000
Si Si2 0.159023 0.228599 0.519538
Si Si3 0.520854 0.083239 0.934404
Si Si4 0.500547 0.391125 0.172312
Si Si5 0.218769 0.275165 0.695771
Si Si6 0.565286 0.801619 0.419390
Si Si7 0.333335 0.666668 0.655708
O O1 0.717346 0.769126 0.259376
O O2 0.580315 0.803256 0.327043
O O3 0.183681 0.148345 0.474389
O O4 0.197892 0.234682 0.607462
O O5 0.220109 0.336564 0.471293
O O6 0.643388 0.168617 0.927717
O O7 0.464868 0.151558 0.951462
O O8 0.469119 0.006637 0.861034
O O9 0.500000 0.000000 0.000000
O O10 0.557359 0.442642 0.250000
O O11 0.400923 0.278416 0.191137
O O12 0.583371 0.368569 0.123299
O O13 0.117054 0.234107 0.750000
O O14 0.333334 0.666667 0.750000
#
# Coordination Sequence:
#
# PCOD8323327 Si02
#       7
#     6  12  12  12  12  12   4
#     4  12  24  48  70 106 146 192 252 302 366 448
#     4  12  25  48  72 102 142 189 240 299 369 435
#     4  12  27  46  72 105 146 193 250 305 375 442
#     4  11  22  43  66 104 141 191 239 305 371 432
#     4  12  25  43  72 105 144 192 246 305 373 440
#     4  12  26  47  74 106 147 195 249 304 366 450
#     4   9  21  36  66 102 138 171 238 287 364 435
#
# _framework density 21.912082999999999
#
# number of rings (size 3 to 8) (size 9 to 14) (size 15 to 20)
#    0.000    0.343    3.429    6.171    0.000    5.486 
#    0.514    0.000    0.000    0.000    0.000    0.000 
#    0.000    0.000    0.000    0.000    0.000    0.000 
#
# Total GULP energy -867836.771974 kJ/mol
# GULP energy per Si atom -12397.668171 kJ/mol
# Density = 2.186221 g / cm^3
# Si number density = 21.912083 Si / 1000 Ang^3
#
#
#
# Elastic Constant Matrix: (Units=GPa)
#
#
# Indices 1 2 3 4 5 6 
#
# 1 119.5258 19.5193 3.0443 0.0001 -7.8170 0.0001
# 2 19.5193 119.5263 3.0446 0.0000 7.8170 0.0004
# 3 3.0443 3.0446 72.0331 0.0000 0.0000 0.0003
# 4 0.0001 0.0000 0.0000 32.2134 0.0001 7.8170
# 5 -7.8170 7.8170 0.0000 0.0001 32.2134 0.0002
# 6 0.0001 0.0004 0.0003 7.8170 0.0002 50.0036
#
#
#
# Elastic Compliance Matrix: (Units=1/GPa)
#
#
# Indices 1 2 3 4 5 6 
#
# 1 0.008799 -0.001594 -0.000305 0.000000 0.002522 0.000000
# 2 -0.001594 0.008799 -0.000305 0.000000 -0.002522 0.000000
# 3 -0.000305 -0.000305 0.013908 0.000000 0.000000 0.000000
# 4 0.000000 0.000000 0.000000 0.032267 0.000000 -0.005044
# 5 0.002522 -0.002522 0.000000 0.000000 0.032267 0.000000
# 6 0.000000 0.000000 0.000000 -0.005044 0.000000 0.020787
#
#
# Mechanical properties :
#
#
# Convention : Reuss Voigt Hill
#
# Bulk Modulus (GPa) = 36.89951 40.25571 38.57761
# Shear Modulus (GPa) = 38.38234 41.91788 40.15011
#
# Velocity S-wave (km/s) = 4.18981 4.37853 4.28521
# Velocity P-wave (km/s) = 6.34684 6.63125 6.49060
#
# Compressibility (1/GPa) = 0.02710063
#
# Stress axis : x y z
#
# Youngs Moduli (GPa) = 113.64360 113.64408 71.89974
#
# Poissons Ratio (x) = 0.18117 0.02189
# Poissons Ratio (y) = 0.18117 0.02190
# Poissons Ratio (z) = 0.03460 0.03461
#
# Static dielectric constant tensor:
#      x y z
#    x 7.610210 0.004050 0.000120 
#    y 0.004050 7.613070 0.000060 
#    z 0.000120 0.000060 3.546250 
# 
# 
# High freq. dielectric constant tensor:
#      x y z
#    x 1.877060 0.000000 0.000000 
#    y 0.000000 1.877060 0.000000 
#    z 0.000000 0.000000 1.863140 
# 
# From -- ./inp_files/3159.got.cif
#   From: 2010.03.12/outbox.cif.g09.slc.cpg/sg163_2_cif.got.tgz:3159.got - 2010.04.02 06:30:25.
