data_PCOD8323214
_publ_section_title
;
Structure prediction by ZEFSAII (Michael W. Deem and Ramdas Pophale) SiO2 
 PCOD8323214
Probable space group: P -3 1 C
;
_chemical_formula_sum "Si O2"
_cell_formula_units_Z 60
_cell_length_a 29.033624
_cell_length_b 29.033624
_cell_length_c 4.992658
_cell_angle_alpha 90.000000
_cell_angle_beta 90.000000
_cell_angle_gamma 120.000000
_cell_volume 3644.726511
_symmetry_space_group_name_H-M "P -3 1 C"
_symmetry_group_IT_number 163
_symmetry_cell_setting 'hexagonal'
loop_
_space_group_symop_operation_xyz
x,y,z
-y,x-y,z
-x+y,-x,z
-y,-x,1/2-z
-x+y,y,1/2-z
x,x-y,1/2-z
-x,-y,-z
y,-x+y,-z
x-y,x,-z
y,x,1/2+z
x-y,-y,1/2+z
-x,-x+y,1/2+z
loop_
_atom_site_type_symbol
_atom_site_label
_atom_site_fract_x
_atom_site_fract_y
_atom_site_fract_z
Si Si1 0.404154 0.255137 0.753985
Si Si2 0.140239 0.540928 0.002568
Si Si3 0.031399 0.586323 0.307983
Si Si4 0.474263 0.289980 0.246504
Si Si5 0.695766 0.031638 0.779725
O O1 0.386793 0.193397 0.750000
O O2 0.451088 0.291336 0.540194
O O3 0.350740 0.258603 0.715157
O O4 0.425639 0.276025 0.049208
O O5 0.120338 0.560169 0.750000
O O6 0.180440 0.524542 0.862472
O O7 0.167397 0.583699 0.250000
O O8 0.090262 0.491940 0.140630
O O9 0.032784 0.641614 0.300370
O O10 0.989404 0.546467 0.525538
O O11 0.493081 0.246541 0.250000
O O12 0.695365 0.991640 0.555765
#
# Coordination Sequence:
#
# PCOD8323214 Si02
#       5
#    12  12  12  12  12
#     4  10  19  33  54  74  93 122 161 198 226 265
#     4  12  24  35  52  72  96 119 152 184 218 279
#     4  10  21  33  48  65  98 133 154 176 209 266
#     4  10  21  37  55  72  93 114 147 192 239 274
#     4  10  19  30  49  70  99 131 155 186 231 276
#
# _framework density 16.462140000000002
#
# number of rings (size 3 to 8) (size 9 to 14) (size 15 to 20)
#    0.000    1.600    2.000    3.600    5.600    2.400 
#    0.000    0.000    0.000    0.400    0.000    4.200 
#    0.000    0.000    0.000    0.000    0.000    0.000 
#
# Total GULP energy -743594.556156 kJ/mol
# GULP energy per Si atom -12393.242603 kJ/mol
# Density = 1.642467 g / cm^3
# Si number density = 16.462140 Si / 1000 Ang^3
#
#
#
# Elastic Constant Matrix: (Units=GPa)
#
#
# Indices 1 2 3 4 5 6 
#
# 1 61.4458 35.2015 30.3219 0.0001 -0.0529 0.0000
# 2 35.2015 61.4458 30.3219 -0.0001 0.0529 0.0000
# 3 30.3219 30.3219 94.8994 0.0000 0.0000 0.0000
# 4 0.0001 -0.0001 0.0000 19.8415 0.0000 0.0529
# 5 -0.0529 0.0529 0.0000 0.0000 19.8415 0.0001
# 6 0.0000 0.0000 0.0000 0.0529 0.0001 13.1221
#
#
#
# Elastic Compliance Matrix: (Units=1/GPa)
#
#
# Indices 1 2 3 4 5 6 
#
# 1 0.025523 -0.012581 -0.004135 0.000000 0.000102 0.000000
# 2 -0.012581 0.025523 -0.004135 0.000000 -0.000102 0.000000
# 3 -0.004135 -0.004135 0.013180 0.000000 0.000000 0.000000
# 4 0.000000 0.000000 0.000000 0.050400 0.000000 -0.000203
# 5 0.000102 -0.000102 0.000000 0.000000 0.050400 0.000000
# 6 0.000000 0.000000 0.000000 -0.000203 0.000000 0.076208
#
#
# Mechanical properties :
#
#
# Convention : Reuss Voigt Hill
#
# Bulk Modulus (GPa) = 44.39938 45.49794 44.94866
# Shear Modulus (GPa) = 17.21504 18.69073 17.95289
#
# Velocity S-wave (km/s) = 3.23729 3.37319 3.30594
# Velocity P-wave (km/s) = 6.40332 6.54745 6.47579
#
# Compressibility (1/GPa) = 0.02252284
#
# Stress axis : x y z
#
# Youngs Moduli (GPa) = 39.18070 39.18070 75.87324
#
# Poissons Ratio (x) = 0.49294 0.31374
# Poissons Ratio (y) = 0.49294 0.31374
# Poissons Ratio (z) = 0.16201 0.16201
#
# Static dielectric constant tensor:
#      x y z
#    x 3.005370 0.000000 0.000000 
#    y 0.000000 3.005370 0.000000 
#    z 0.000000 0.000000 3.592970 
# 
# 
# High freq. dielectric constant tensor:
#      x y z
#    x 1.594610 0.000000 0.000000 
#    y 0.000000 1.594610 0.000000 
#    z 0.000000 0.000000 1.667130 
# 
# From -- ./inp_files/365.got.cif
#   From: 2010.03.12/outbox.cif.g09.slc.cpg/sg163_1_cif.got.tgz:365.got - 2010.04.02 06:30:25.
