data_PCOD8323979
_publ_section_title
;
Structure prediction by ZEFSAII (Michael W. Deem and Ramdas Pophale) SiO2 
 PCOD8323979
Probable space group: R -3 M
;
_chemical_formula_sum "Si O2"
_cell_formula_units_Z 198
_cell_length_a 29.977281
_cell_length_b 29.977281
_cell_length_c 19.175593
_cell_angle_alpha 90.000000
_cell_angle_beta 90.000000
_cell_angle_gamma 120.000000
_cell_volume 14923.267122
_symmetry_space_group_name_H-M "R -3 M"
_symmetry_group_IT_number 166
_symmetry_cell_setting 'hexagonal'
loop_
_space_group_symop_operation_xyz
x,y,z
-y,x-y,z
-x+y,-x,z
x-y,-y,-z
-x,-x+y,-z
y,x,-z
-x,-y,-z
y,-x+y,-z
x-y,x,-z
-x+y,y,z
x,x-y,z
-y,-x,z
2/3+x,1/3+y,1/3+z
2/3-y,1/3+x-y,1/3+z
2/3-x+y,1/3-x,1/3+z
2/3+x-y,1/3-y,1/3-z
2/3-x,1/3-x+y,1/3-z
2/3+y,1/3+x,1/3-z
2/3-x,1/3-y,1/3-z
2/3+y,1/3-x+y,1/3-z
2/3+x-y,1/3+x,1/3-z
2/3-x+y,1/3+y,1/3+z
2/3+x,1/3+x-y,1/3+z
2/3-y,1/3-x,1/3+z
1/3+x,2/3+y,2/3+z
1/3-y,2/3+x-y,2/3+z
1/3-x+y,2/3-x,2/3+z
1/3+x-y,2/3-y,2/3-z
1/3-x,2/3-x+y,2/3-z
1/3+y,2/3+x,2/3-z
1/3-x,2/3-y,2/3-z
1/3+y,2/3-x+y,2/3-z
1/3+x-y,2/3+x,2/3-z
1/3-x+y,2/3+y,2/3+z
1/3+x,2/3+x-y,2/3+z
1/3-y,2/3-x,2/3+z
loop_
_atom_site_type_symbol
_atom_site_label
_atom_site_fract_x
_atom_site_fract_y
_atom_site_fract_z
Si Si1 0.618284 0.809142 0.164771
Si Si2 0.181540 0.363080 0.617855
Si Si3 0.563102 0.936337 0.106138
Si Si4 0.413988 0.206994 0.983054
Si Si5 0.012187 0.291609 0.191844
Si Si6 0.775593 0.031400 0.319890
Si Si7 0.293637 0.242262 0.957227
O O1 0.675475 0.837738 0.129656
O O2 0.609914 0.847723 0.213120
O O3 0.577020 0.788510 0.100962
O O4 0.156680 0.313360 0.668351
O O5 0.242459 0.394774 0.635281
O O6 0.570408 0.903741 0.166667
O O7 0.614465 0.991849 0.097535
O O8 0.553578 0.905121 0.034157
O O9 0.435508 0.264227 0.015107
O O10 0.040263 0.285820 0.124760
O O11 0.964422 0.297755 0.166667
O O12 0.988061 0.241821 0.241391
O O13 0.745933 0.058845 0.355025
O O14 0.259395 0.259395 0.000000
#
# Coordination Sequence:
#
# PCOD8323979 Si02
#       7
#    18  18  36  18  36  36  36
#     4  10  16  26  44  61  79 107 139 167 203 242
#     4   8  16  28  38  56  80 102 133 167 211 236
#     4  11  16  27  42  59  79 106 140 168 194 239
#     4   8  16  28  40  55  79 107 133 168 208 237
#     4  11  18  25  40  59  76 105 142 173 203 237
#     4  11  18  28  41  59  80 105 140 174 205 238
#     4  11  17  28  44  57  76 107 142 172 201 242
#
# _framework density 13.267872000000001
#
# number of rings (size 3 to 8) (size 9 to 14) (size 15 to 20)
#    0.545    1.091    9.091    0.545    0.000    0.000 
#    0.000    4.091    0.000    0.000    0.000    0.000 
#    0.000    0.000    0.000    5.182    0.000    2.273 
#
# Total GULP energy -817678.691837 kJ/mol
# GULP energy per Si atom -12389.071088 kJ/mol
# Density = 1.323767 g / cm^3
# Si number density = 13.267872 Si / 1000 Ang^3
#
#
#
# Elastic Constant Matrix: (Units=GPa)
#
#
# Indices 1 2 3 4 5 6 
#
# 1 50.0692 26.6212 13.6129 4.7443 0.0000 0.0000
# 2 26.6212 50.0692 13.6129 -4.7443 0.0000 0.0000
# 3 13.6129 13.6129 45.3212 0.0000 0.0000 0.0000
# 4 4.7443 -4.7443 0.0000 14.2990 0.0000 0.0000
# 5 0.0000 0.0000 0.0000 0.0000 14.2990 4.7443
# 6 0.0000 0.0000 0.0000 0.0000 4.7443 11.7240
#
#
#
# Elastic Compliance Matrix: (Units=1/GPa)
#
#
# Indices 1 2 3 4 5 6 
#
# 1 0.031929 -0.017333 -0.004384 -0.016344 0.000000 0.000000
# 2 -0.017333 0.031929 -0.004384 0.016344 0.000000 0.000000
# 3 -0.004384 -0.004384 0.024698 0.000000 0.000000 0.000000
# 4 -0.016344 0.016344 0.000000 0.080781 0.000000 0.000000
# 5 0.000000 0.000000 0.000000 0.000000 0.080781 -0.032689
# 6 0.000000 0.000000 0.000000 0.000000 -0.032689 0.098523
#
#
# Mechanical properties :
#
#
# Convention : Reuss Voigt Hill
#
# Bulk Modulus (GPa) = 27.50751 28.12820 27.81786
# Shear Modulus (GPa) = 12.10770 14.17191 13.13980
#
# Velocity S-wave (km/s) = 3.02413 3.27178 3.15039
# Velocity P-wave (km/s) = 5.74206 5.95978 5.85194
#
# Compressibility (1/GPa) = 0.03635370
#
# Stress axis : x y z
#
# Youngs Moduli (GPa) = 31.31980 31.31980 40.48846
#
# Poissons Ratio (x) = 0.54286 0.17750
# Poissons Ratio (y) = 0.54286 0.17750
# Poissons Ratio (z) = 0.13731 0.13731
#
# Static dielectric constant tensor:
#      x y z
#    x 2.499990 0.000000 0.000000 
#    y 0.000000 2.499990 0.000000 
#    z 0.000000 0.000000 2.625590 
# 
# 
# High freq. dielectric constant tensor:
#      x y z
#    x 1.470530 0.000000 0.000000 
#    y 0.000000 1.470530 0.000000 
#    z 0.000000 0.000000 1.500700 
# 
# From -- ./inp_files/5765.got.cif
#   From: 2010.03.12/outbox.cif.g09.slc.cpg/sg166_3_cif.got.tgz:5765.got - 2010.04.02 06:38:31.
