data_PCOD8323127
_publ_section_title
;
Structure prediction by ZEFSAII (Michael W. Deem and Ramdas Pophale) SiO2 
 PCOD8323127
Probable space group: P -3 1 M 
;
_chemical_formula_sum "Si O2"
_cell_formula_units_Z 84
_cell_length_a 21.175456
_cell_length_b 21.175456
_cell_length_c 12.456461
_cell_angle_alpha 90.000000
_cell_angle_beta 90.000000
_cell_angle_gamma 120.000000
_cell_volume 4837.164390
_symmetry_space_group_name_H-M "P -3 1 M "
_symmetry_group_IT_number 162
_symmetry_cell_setting 'hexagonal'
loop_
_space_group_symop_operation_xyz
x,y,z
-y,x-y,z
-x+y,-x,z
-y,-x,-z
-x+y,y,-z
x,x-y,-z
-x,-y,-z
y,-x+y,-z
x-y,x,-z
y,x,z
x-y,-y,z
-x,-x+y,z
loop_
_atom_site_type_symbol
_atom_site_label
_atom_site_fract_x
_atom_site_fract_y
_atom_site_fract_z
Si Si1 0.915912 0.563398 0.196335
Si Si2 0.218400 0.920626 0.877117
Si Si3 0.522764 0.333152 0.377060
Si Si4 0.522048 0.336197 0.000000
Si Si5 0.189612 0.666848 0.622940
Si Si6 0.920626 0.702226 0.877117
Si Si7 0.563398 0.915912 0.803666
O O1 0.912706 0.637381 0.196765
O O2 0.883822 0.525215 0.309717
O O3 0.865249 0.510618 0.103307
O O4 0.000000 0.582143 0.183455
O O5 0.137005 0.862995 0.841176
O O6 0.226838 0.000000 0.863070
O O7 0.234406 0.908215 1.000000
O O8 0.607789 0.392211 0.364923
O O9 0.511888 0.255944 0.335383
O O10 0.497407 0.326805 0.500000
O O11 0.609180 0.390821 0.000000
O O12 0.505380 0.252690 0.000000
O O13 0.489382 0.354631 0.896693
O O14 0.116178 0.641393 0.690284
O O15 0.912706 0.637381 0.803235
O O16 0.000000 0.773162 0.863071
O O17 0.582143 0.000000 0.816545
#
# Coordination Sequence:
#
# PCOD8323127 Si02
#       7
#    12  12  12  12  12  12  12
#     4  11  22  35  52  75 101 131 165 205 254 303
#     4   9  16  28  47  70  96 126 160 196 236 285
#     4  10  21  37  56  75  97 129 169 210 250 297
#     4  12  24  37  53  73 100 131 165 207 255 306
#     4  10  21  37  56  75  97 129 169 210 250 297
#     4   9  16  28  47  70  96 126 160 196 236 285
#     4  11  22  35  52  75 101 131 165 205 254 303
#
# _framework density 17.365545000000001
#
# number of rings (size 3 to 8) (size 9 to 14) (size 15 to 20)
#    0.000    1.714    1.429    4.286    0.000    4.571 
#    0.000    4.286    0.000    0.286    0.000    2.000 
#    0.000    0.000    0.000    0.000    0.000    0.000 
#
# Total GULP energy -1041517.221650 kJ/mol
# GULP energy per Si atom -12399.014543 kJ/mol
# Density = 1.732602 g / cm^3
# Si number density = 17.365545 Si / 1000 Ang^3
#
#
#
# Elastic Constant Matrix: (Units=GPa)
#
#
# Indices 1 2 3 4 5 6 
#
# 1 101.4970 52.6037 40.7230 0.0000 0.0000 0.0000
# 2 52.6037 101.4970 40.7230 0.0000 0.0000 0.0000
# 3 40.7230 40.7230 79.8527 0.0000 0.0000 0.0000
# 4 0.0000 0.0000 0.0000 19.7754 0.0000 0.0000
# 5 0.0000 0.0000 0.0000 0.0000 19.7754 0.0000
# 6 0.0000 0.0000 0.0000 0.0000 0.0000 24.4466
#
#
#
# Elastic Compliance Matrix: (Units=1/GPa)
#
#
# Indices 1 2 3 4 5 6 
#
# 1 0.014668 -0.005784 -0.004530 0.000000 0.000000 0.000000
# 2 -0.005784 0.014668 -0.004530 0.000000 0.000000 0.000000
# 3 -0.004530 -0.004530 0.017144 0.000000 0.000000 0.000000
# 4 0.000000 0.000000 0.000000 0.050568 0.000000 0.000000
# 5 0.000000 0.000000 0.000000 0.000000 0.050568 0.000000
# 6 0.000000 0.000000 0.000000 0.000000 0.000000 0.040905
#
#
# Mechanical properties :
#
#
# Convention : Reuss Voigt Hill
#
# Bulk Modulus (GPa) = 59.56123 61.21622 60.38873
# Shear Modulus (GPa) = 22.34048 22.71929 22.52988
#
# Velocity S-wave (km/s) = 3.59065 3.62096 3.60584
# Velocity P-wave (km/s) = 7.18076 7.26704 7.22403
#
# Compressibility (1/GPa) = 0.01678944
#
# Stress axis : x y z
#
# Youngs Moduli (GPa) = 68.17454 68.17454 58.32966
#
# Poissons Ratio (x) = 0.39436 0.26426
# Poissons Ratio (y) = 0.39436 0.26426
# Poissons Ratio (z) = 0.30886 0.30886
#
# Static dielectric constant tensor:
#      x y z
#    x 3.269080 0.000000 0.000000 
#    y 0.000000 3.269080 0.000000 
#    z 0.000000 0.000000 3.126610 
# 
# 
# High freq. dielectric constant tensor:
#      x y z
#    x 1.668870 0.000000 0.000000 
#    y 0.000000 1.668870 0.000000 
#    z 0.000000 0.000000 1.652590 
# 
# From -- ./inp_files/2523.got.cif
#   From: 2010.03.12/outbox.cif.g09.slc.cpg/sg162_2_cif.got.tgz:2523.got - 2010.04.02 06:27:41.
