data_PCOD8323158
_publ_section_title
;
Structure prediction by ZEFSAII (Michael W. Deem and Ramdas Pophale) SiO2 
 PCOD8323158
Probable space group: P -3 1 M 
;
_chemical_formula_sum "Si O2"
_cell_formula_units_Z 76
_cell_length_a 17.497542
_cell_length_b 17.497542
_cell_length_c 15.169158
_cell_angle_alpha 90.000000
_cell_angle_beta 90.000000
_cell_angle_gamma 120.000000
_cell_volume 4022.038245
_symmetry_space_group_name_H-M "P -3 1 M "
_symmetry_group_IT_number 162
_symmetry_cell_setting 'hexagonal'
loop_
_space_group_symop_operation_xyz
x,y,z
-y,x-y,z
-x+y,-x,z
-y,-x,-z
-x+y,y,-z
x,x-y,-z
-x,-y,-z
y,-x+y,-z
x-y,x,-z
y,x,z
x-y,-y,z
-x,-x+y,z
loop_
_atom_site_type_symbol
_atom_site_label
_atom_site_fract_x
_atom_site_fract_y
_atom_site_fract_z
Si Si1 0.901983 0.514455 0.236645
Si Si2 0.103102 0.603932 0.425441
Si Si3 0.333335 0.666668 0.102982
Si Si4 0.147084 0.527216 0.091415
Si Si5 0.101059 0.323296 0.572478
Si Si6 0.104169 0.783279 0.225625
Si Si7 0.775079 0.672359 0.077709
O O1 0.855779 0.462570 0.327563
O O2 0.910485 0.453872 0.162886
O O3 0.864427 0.576461 0.200732
O O4 0.000000 0.587532 0.267862
O O5 0.150091 0.575046 0.500000
O O6 0.122341 0.700829 0.449398
O O7 0.000000 0.532574 0.425198
O O8 0.245566 0.578777 0.133733
O O9 0.333334 0.666667 0.000000
O O10 0.114207 0.424977 0.081347
O O11 0.141079 0.570540 0.000000
O O12 0.147429 0.294857 0.500000
O O13 0.128423 0.316256 0.672697
O O14 0.000000 0.253868 0.560441
O O15 0.167024 0.868470 0.166740
O O16 0.000000 0.746004 0.205375
O O17 0.741484 0.741484 0.060187
O O18 0.838152 0.676304 0.000000
#
# Coordination Sequence:
#
# PCOD8323158 Si02
#       7
#    12  12   4  12  12  12  12
#     4   9  17  30  50  75 104 141 181 216 254 303
#     4   8  15  29  48  71 102 139 175 212 254 299
#     4   9  18  33  51  69 103 146 172 192 231 291
#     4  11  21  34  52  78 110 142 174 210 254 304
#     4   9  18  32  54  82 111 145 181 224 277 327
#     4   9  19  38  58  77 108 146 183 226 276 325
#     4  12  25  39  58  82 106 136 177 226 278 332
#
# _framework density 18.895892
#
# number of rings (size 3 to 8) (size 9 to 14) (size 15 to 20)
#    0.000    2.368    0.000    6.158    0.000    4.421 
#    0.000    1.579    0.000    3.316    0.000    0.000 
#    0.000    0.000    0.000    0.000    0.000    0.000 
#
# Total GULP energy -941656.202874 kJ/mol
# GULP energy per Si atom -12390.213196 kJ/mol
# Density = 1.885288 g / cm^3
# Si number density = 18.895892 Si / 1000 Ang^3
#
#
#
# Elastic Constant Matrix: (Units=GPa)
#
#
# Indices 1 2 3 4 5 6 
#
# 1 73.2562 40.3440 47.0737 -0.0004 -2.3417 0.0003
# 2 40.3440 73.2560 47.0744 0.0006 2.3419 -0.0004
# 3 47.0737 47.0744 118.5324 0.0004 -0.0002 -0.0002
# 4 -0.0004 0.0006 0.0004 31.0017 -0.0001 2.3429
# 5 -2.3417 2.3419 -0.0002 -0.0001 31.0030 0.0002
# 6 0.0003 -0.0004 -0.0002 2.3429 0.0002 16.4554
#
#
#
# Elastic Compliance Matrix: (Units=1/GPa)
#
#
# Indices 1 2 3 4 5 6 
#
# 1 0.021918 -0.008796 -0.005211 0.000001 0.002320 -0.000001
# 2 -0.008796 0.021918 -0.005211 -0.000001 -0.002320 0.000001
# 3 -0.005211 -0.005211 0.012576 0.000000 0.000000 0.000000
# 4 0.000001 -0.000001 0.000000 0.032607 0.000000 -0.004643
# 5 0.002320 -0.002320 0.000000 0.000000 0.032605 0.000000
# 6 -0.000001 0.000001 0.000000 -0.004643 0.000000 0.061431
#
#
# Mechanical properties :
#
#
# Convention : Reuss Voigt Hill
#
# Bulk Modulus (GPa) = 55.63489 59.33655 57.48572
# Shear Modulus (GPa) = 21.97960 24.39553 23.18756
#
# Velocity S-wave (km/s) = 3.41426 3.59702 3.50683
# Velocity P-wave (km/s) = 6.71191 6.98007 6.84730
#
# Compressibility (1/GPa) = 0.01797433
#
# Stress axis : x y z
#
# Youngs Moduli (GPa) = 45.62520 45.62449 79.51897
#
# Poissons Ratio (x) = 0.40133 0.41437
# Poissons Ratio (y) = 0.40133 0.41440
# Poissons Ratio (z) = 0.23775 0.23776
#
# Static dielectric constant tensor:
#      x y z
#    x 5.209130 0.000170 0.000040 
#    y 0.000170 5.207780 0.000120 
#    z 0.000040 0.000120 3.629070 
# 
# 
# High freq. dielectric constant tensor:
#      x y z
#    x 1.713210 0.000000 0.000000 
#    y 0.000000 1.713210 0.000000 
#    z 0.000000 0.000000 1.746320 
# 
# From -- ./inp_files/3134.got.cif
#   From: 2010.03.12/outbox.cif.g09.slc.cpg/sg162_2_cif.got.tgz:3134.got - 2010.04.02 06:27:41.
