data_PCOD8323206
_publ_section_title
;
Structure prediction by ZEFSAII (Michael W. Deem and Ramdas Pophale) SiO2 
 PCOD8323206
Probable space group: P -3 1 C
;
_chemical_formula_sum "Si O2"
_cell_formula_units_Z 84
_cell_length_a 18.161925
_cell_length_b 18.161925
_cell_length_c 14.217803
_cell_angle_alpha 90.000000
_cell_angle_beta 90.000000
_cell_angle_gamma 120.000000
_cell_volume 4061.503950
_symmetry_space_group_name_H-M "P -3 1 C"
_symmetry_group_IT_number 163
_symmetry_cell_setting 'hexagonal'
loop_
_space_group_symop_operation_xyz
x,y,z
-y,x-y,z
-x+y,-x,z
-y,-x,1/2-z
-x+y,y,1/2-z
x,x-y,1/2-z
-x,-y,-z
y,-x+y,-z
x-y,x,-z
y,x,1/2+z
x-y,-y,1/2+z
-x,-x+y,1/2+z
loop_
_atom_site_type_symbol
_atom_site_label
_atom_site_fract_x
_atom_site_fract_y
_atom_site_fract_z
Si Si1 0.769654 0.230347 0.750000
Si Si2 0.537394 0.001215 0.349285
Si Si3 0.423280 0.559022 0.507035
Si Si4 0.239661 0.489638 0.452319
Si Si5 0.803016 0.779525 0.377338
Si Si6 0.054466 0.108931 0.750000
Si Si7 0.670535 0.713249 0.214235
Si Si8 0.295184 0.162657 0.947855
O O1 0.747715 0.266577 0.656711
O O2 0.725992 0.128497 0.737845
O O3 0.491895 0.983790 0.250000
O O4 0.546648 0.086058 0.395593
O O5 0.477777 0.924105 0.416935
O O6 0.629239 0.008970 0.333828
O O7 0.321659 0.511574 0.515123
O O8 0.461068 0.658473 0.496860
O O9 0.174606 0.388912 0.448911
O O10 0.900526 0.832438 0.340502
O O11 0.739798 0.725916 0.292380
O O12 0.803156 0.714735 0.452273
O O13 0.774753 0.840185 0.428955
O O14 0.097086 0.048543 0.750000
O O15 0.717078 0.783056 0.133517
#
# Coordination Sequence:
#
# PCOD8323206 Si02
#       8
#     6  12  12  12  12   6  12  12
#     4  10  18  37  62  94 126 168 206 264 330 391
#     4  11  25  41  70 100 131 179 226 275 343 402
#     4  11  25  42  68  98 141 172 225 279 336 410
#     4  11  23  42  64  99 134 176 216 275 333 401
#     4  12  26  42  70  94 133 177 224 278 334 394
#     4  10  26  45  64  88 132 170 218 270 320 391
#     4  11  21  43  65  94 134 169 218 281 327 395
#     4  11  26  41  68  99 130 172 224 273 342 391
#
# _framework density 20.681994
#
# number of rings (size 3 to 8) (size 9 to 14) (size 15 to 20)
#    0.143    0.857    5.714    2.000    8.000    0.000 
#    0.000    1.429    0.000    0.000    0.000    0.000 
#    0.000    0.000    0.000    0.000    0.000    0.000 
#
# Total GULP energy -1041516.197603 kJ/mol
# GULP energy per Si atom -12399.002352 kJ/mol
# Density = 2.063492 g / cm^3
# Si number density = 20.681994 Si / 1000 Ang^3
#
#
#
# Elastic Constant Matrix: (Units=GPa)
#
#
# Indices 1 2 3 4 5 6 
#
# 1 77.2591 31.0986 29.4697 0.0000 1.1995 0.0000
# 2 31.0986 77.2591 29.4697 0.0000 -1.1995 0.0000
# 3 29.4697 29.4697 86.7940 0.0000 0.0000 0.0000
# 4 0.0000 0.0000 0.0000 27.8122 0.0000 -1.1995
# 5 1.1995 -1.1995 0.0000 0.0000 27.8122 0.0000
# 6 0.0000 0.0000 0.0000 -1.1995 0.0000 23.0803
#
#
#
# Elastic Compliance Matrix: (Units=1/GPa)
#
#
# Indices 1 2 3 4 5 6 
#
# 1 0.016516 -0.005197 -0.003843 0.000000 -0.000936 0.000000
# 2 -0.005197 0.016516 -0.003843 0.000000 0.000936 0.000000
# 3 -0.003843 -0.003843 0.014131 0.000000 0.000000 0.000000
# 4 0.000000 0.000000 0.000000 0.036036 0.000000 0.001873
# 5 -0.000936 0.000936 0.000000 0.000000 0.036036 0.000000
# 6 0.000000 0.000000 0.000000 0.001873 0.000000 0.043424
#
#
# Mechanical properties :
#
#
# Convention : Reuss Voigt Hill
#
# Bulk Modulus (GPa) = 46.73626 46.82092 46.77859
# Shear Modulus (GPa) = 25.56788 25.82589 25.69688
#
# Velocity S-wave (km/s) = 3.51983 3.53755 3.52870
# Velocity P-wave (km/s) = 6.25824 6.27481 6.26653
#
# Compressibility (1/GPa) = 0.02139666
#
# Stress axis : x y z
#
# Youngs Moduli (GPa) = 60.54852 60.54852 70.76444
#
# Poissons Ratio (x) = 0.31464 0.27197
# Poissons Ratio (y) = 0.31464 0.27197
# Poissons Ratio (z) = 0.23270 0.23270
#
# Static dielectric constant tensor:
#      x y z
#    x 3.697650 0.000000 0.000000 
#    y 0.000000 3.697650 0.000000 
#    z 0.000000 0.000000 3.827500 
# 
# 
# High freq. dielectric constant tensor:
#      x y z
#    x 1.803170 0.000000 0.000000 
#    y 0.000000 1.803170 0.000000 
#    z 0.000000 0.000000 1.809080 
# 
# From -- ./inp_files/2690.got.cif
#   From: 2010.03.12/outbox.cif.g09.slc.cpg/sg163_2_cif.got.tgz:2690.got - 2010.04.02 06:30:25.
