data_PCOD8323378
_publ_section_title
;
Structure prediction by ZEFSAII (Michael W. Deem and Ramdas Pophale) SiO2 
 PCOD8323378
Probable space group: P -3 M 1
;
_chemical_formula_sum "Si O2"
_cell_formula_units_Z 96
_cell_length_a 24.207357
_cell_length_b 24.207357
_cell_length_c 11.651790
_cell_angle_alpha 90.000000
_cell_angle_beta 90.000000
_cell_angle_gamma 120.000000
_cell_volume 5913.138216
_symmetry_space_group_name_H-M "P -3 M 1"
_symmetry_group_IT_number 164
_symmetry_cell_setting 'hexagonal'
loop_
_space_group_symop_operation_xyz
x,y,z
-y,x-y,z
-x+y,-x,z
x-y,-y,-z
-x,-x+y,-z
y,x,-z
-x,-y,-z
y,-x+y,-z
x-y,x,-z
-x+y,y,z
x,x-y,z
-y,-x,z
loop_
_atom_site_type_symbol
_atom_site_label
_atom_site_fract_x
_atom_site_fract_y
_atom_site_fract_z
Si Si1 0.203434 0.537168 0.428305
Si Si2 0.999791 0.124519 0.864351
Si Si3 0.247295 0.365283 0.812841
Si Si4 0.625607 0.692534 0.044967
Si Si5 0.332705 0.227185 0.608192
Si Si6 0.549283 0.835680 0.223961
Si Si7 0.757983 0.744809 0.793498
Si Si8 0.422236 0.276788 0.418739
O O1 0.274152 0.548303 0.441994
O O2 0.205159 0.602580 0.450208
O O3 0.177292 0.512077 0.299381
O O4 0.155951 0.487775 0.525193
O O5 0.068247 0.136494 0.819756
O O6 0.982003 0.174886 0.814092
O O7 0.945702 0.054299 0.824450
O O8 0.000000 0.130020 0.000000
O O9 0.179130 0.358259 0.806879
O O10 0.236250 0.295734 0.791748
O O11 0.292461 0.414354 0.713374
O O12 0.277514 0.390607 0.936564
O O13 0.566019 0.674118 0.130413
O O14 0.691872 0.743384 0.107283
O O15 0.631991 0.631991 0.000000
O O16 0.302241 0.151121 0.588987
O O17 0.392943 0.250992 0.689967
O O18 0.280704 0.240403 0.666764
O O19 0.359583 0.266448 0.489246
O O20 0.538085 0.769043 0.166663
O O21 0.423077 0.211539 0.430360
#
# Coordination Sequence:
#
# PCOD8323378 Si02
#       8
#    12  12  12  12  12  12  12  12
#     4   9  16  28  49  75  98 118 143 175 209 246
#     4  10  19  29  39  53  79 114 148 182 227 285
#     4  10  18  27  40  60  88 116 142 176 221 272
#     4   9  17  27  41  64  87 114 151 187 225 265
#     4   8  14  26  41  58  82 109 139 176 221 267
#     4   8  14  25  42  64  90 117 144 179 221 259
#     4  10  18  26  41  63  82 107 144 189 231 262
#     4   8  16  29  43  63  91 118 140 168 210 258
#
# _framework density 16.235033999999999
#
# number of rings (size 3 to 8) (size 9 to 14) (size 15 to 20)
#    0.000    3.000    0.000    4.000    0.000    3.500 
#    0.000    0.000    0.000    1.125    0.000   27.125 
#    0.000    2.000    0.000    9.500    0.000    3.125 
#
# Total GULP energy -1189445.250982 kJ/mol
# GULP energy per Si atom -12390.054698 kJ/mol
# Density = 1.619808 g / cm^3
# Si number density = 16.235034 Si / 1000 Ang^3
#
#
#
# Elastic Constant Matrix: (Units=GPa)
#
#
# Indices 1 2 3 4 5 6 
#
# 1 59.0099 18.2190 41.0678 0.2212 0.0000 0.0000
# 2 18.2190 59.0099 41.0678 -0.2212 0.0000 0.0000
# 3 41.0678 41.0678 97.8782 0.0000 0.0000 0.0000
# 4 0.2212 -0.2212 0.0000 17.9407 0.0000 0.0000
# 5 0.0000 0.0000 0.0000 0.0000 17.9407 0.2212
# 6 0.0000 0.0000 0.0000 0.0000 0.2212 20.3954
#
#
#
# Elastic Compliance Matrix: (Units=1/GPa)
#
#
# Indices 1 2 3 4 5 6 
#
# 1 0.023951 -0.000568 -0.009811 -0.000302 0.000000 0.000000
# 2 -0.000568 0.023951 -0.009811 0.000302 0.000000 0.000000
# 3 -0.009811 -0.009811 0.018450 0.000000 0.000000 0.000000
# 4 -0.000302 0.000302 0.000000 0.055747 0.000000 0.000000
# 5 0.000000 0.000000 0.000000 0.000000 0.055747 -0.000605
# 6 0.000000 0.000000 0.000000 0.000000 -0.000605 0.049037
#
#
# Mechanical properties :
#
#
# Convention : Reuss Voigt Hill
#
# Bulk Modulus (GPa) = 38.50372 46.28967 42.39669
# Shear Modulus (GPa) = 18.12130 18.95826 18.53978
#
# Velocity S-wave (km/s) = 3.34456 3.42093 3.38296
# Velocity P-wave (km/s) = 6.21954 6.64663 6.43663
#
# Compressibility (1/GPa) = 0.02597152
#
# Stress axis : x y z
#
# Youngs Moduli (GPa) = 41.75242 41.75242 54.20119
#
# Poissons Ratio (x) = 0.02371 0.53177
# Poissons Ratio (y) = 0.02371 0.53177
# Poissons Ratio (z) = 0.40963 0.40963
#
# Static dielectric constant tensor:
#      x y z
#    x 2.900440 0.000000 0.000000 
#    y 0.000000 2.900440 0.000000 
#    z 0.000000 0.000000 3.391370 
# 
# 
# High freq. dielectric constant tensor:
#      x y z
#    x 1.599530 0.000000 0.000000 
#    y 0.000000 1.599530 0.000000 
#    z 0.000000 0.000000 1.619970 
# 
# From -- ./inp_files/3122.got.cif
#   From: 2010.03.12/outbox.cif.g09.slc.cpg/sg164_2_cif.got.tgz:3122.got - 2010.04.02 06:32:59.
