data_PCOD8323368
_publ_section_title
;
Structure prediction by ZEFSAII (Michael W. Deem and Ramdas Pophale) SiO2 
 PCOD8323368
Probable space group: P -3 M 1
;
_chemical_formula_sum "Si O2"
_cell_formula_units_Z 96
_cell_length_a 17.687127
_cell_length_b 17.687127
_cell_length_c 20.575411
_cell_angle_alpha 90.000000
_cell_angle_beta 90.000000
_cell_angle_gamma 120.000000
_cell_volume 5574.343656
_symmetry_space_group_name_H-M "P -3 M 1"
_symmetry_group_IT_number 164
_symmetry_cell_setting 'hexagonal'
loop_
_space_group_symop_operation_xyz
x,y,z
-y,x-y,z
-x+y,-x,z
x-y,-y,-z
-x,-x+y,-z
y,x,-z
-x,-y,-z
y,-x+y,-z
x-y,x,-z
-x+y,y,z
x,x-y,z
-y,-x,z
loop_
_atom_site_type_symbol
_atom_site_label
_atom_site_fract_x
_atom_site_fract_y
_atom_site_fract_z
Si Si1 0.268103 0.361396 0.973034
Si Si2 0.026825 0.599335 0.859918
Si Si3 0.426327 0.020970 0.285533
Si Si4 0.662835 0.503076 0.541252
Si Si5 0.739328 0.645508 0.643417
Si Si6 0.559235 0.863243 0.596625
Si Si7 0.202125 0.238386 0.571172
Si Si8 0.491931 0.332439 0.911212
O O1 0.164241 0.328482 0.967377
O O2 0.314324 0.393197 0.903237
O O3 0.282999 0.282999 0.000000
O O4 0.315687 0.445413 0.019085
O O5 0.047139 0.523570 0.883322
O O6 0.059632 0.628491 0.786165
O O7 0.921817 0.560014 0.862178
O O8 0.489962 0.979924 0.288310
O O9 0.457869 0.095644 0.339910
O O10 0.326217 0.947918 0.296843
O O11 0.743022 0.486043 0.546323
O O12 0.578045 0.421956 0.573303
O O13 0.684433 0.590382 0.580452
O O14 0.639464 0.508137 0.466155
O O15 0.809800 0.619600 0.666132
O O16 0.789689 0.748102 0.623432
O O17 0.526521 0.763261 0.615091
O O18 0.657915 0.910083 0.572433
O O19 0.202689 0.202689 0.500000
O O20 0.100807 0.201614 0.591374
O O21 0.488226 0.244113 0.885246
O O22 0.592321 0.407680 0.918970
#
# Coordination Sequence:
#
# PCOD8323368 Si02
#       8
#    12  12  12  12  12  12  12  12
#     4   9  17  30  50  75 100 127 157 194 237 278
#     4   9  18  31  45  66  99 132 162 195 231 269
#     4  10  20  32  47  68  93 126 165 199 227 268
#     4  10  18  29  45  66  91 119 153 193 237 282
#     4  10  20  33  48  67  91 120 153 193 241 285
#     4   9  18  30  45  65  88 116 152 194 238 283
#     4  10  17  29  47  66  86 108 137 178 234 293
#     4   9  16  27  46  71  98 127 159 192 228 267
#
# _framework density 17.221758000000001
#
# number of rings (size 3 to 8) (size 9 to 14) (size 15 to 20)
#    0.000    2.500    1.250    1.750    0.000    2.500 
#    0.000    1.875    0.000    3.125    0.000    0.000 
#    0.000    1.000    0.000    0.000    0.000    0.000 
#
# Total GULP energy -1189761.306936 kJ/mol
# GULP energy per Si atom -12393.346947 kJ/mol
# Density = 1.718256 g / cm^3
# Si number density = 17.221758 Si / 1000 Ang^3
#
#
#
# Elastic Constant Matrix: (Units=GPa)
#
#
# Indices 1 2 3 4 5 6 
#
# 1 67.0472 31.7644 26.3508 1.5542 0.0000 0.0000
# 2 31.7644 67.0472 26.3508 -1.5542 0.0000 0.0000
# 3 26.3508 26.3508 71.2838 0.0000 0.0000 0.0000
# 4 1.5542 -1.5542 0.0000 16.9262 0.0000 0.0000
# 5 0.0000 0.0000 0.0000 0.0000 16.9262 1.5542
# 6 0.0000 0.0000 0.0000 0.0000 1.5542 17.6414
#
#
#
# Elastic Compliance Matrix: (Units=1/GPa)
#
#
# Indices 1 2 3 4 5 6 
#
# 1 0.020590 -0.007984 -0.004660 -0.002624 0.000000 0.000000
# 2 -0.007984 0.020590 -0.004660 0.002624 0.000000 0.000000
# 3 -0.004660 -0.004660 0.017473 0.000000 0.000000 0.000000
# 4 -0.002624 0.002624 0.000000 0.059562 0.000000 0.000000
# 5 0.000000 0.000000 0.000000 0.000000 0.059562 -0.005247
# 6 0.000000 0.000000 0.000000 0.000000 -0.005247 0.057147
#
#
# Mechanical properties :
#
#
# Convention : Reuss Voigt Hill
#
# Bulk Modulus (GPa) = 41.58774 41.59000 41.58887
# Shear Modulus (GPa) = 18.01504 18.35957 18.18730
#
# Velocity S-wave (km/s) = 3.23780 3.26861 3.25324
# Velocity P-wave (km/s) = 6.17888 6.20058 6.18974
#
# Compressibility (1/GPa) = 0.02404555
#
# Stress axis : x y z
#
# Youngs Moduli (GPa) = 48.56820 48.56820 57.22954
#
# Poissons Ratio (x) = 0.38777 0.26668
# Poissons Ratio (y) = 0.38777 0.26668
# Poissons Ratio (z) = 0.22632 0.22632
#
# Static dielectric constant tensor:
#      x y z
#    x 3.313750 0.000000 0.000000 
#    y 0.000000 3.313750 0.000000 
#    z 0.000000 0.000000 3.017910 
# 
# 
# High freq. dielectric constant tensor:
#      x y z
#    x 1.656570 0.000000 0.000000 
#    y 0.000000 1.656570 0.000000 
#    z 0.000000 0.000000 1.644130 
# 
# From -- ./inp_files/4690.got.cif
#   From: 2010.03.12/outbox.cif.g09.slc.cpg/sg164_3_cif.got.tgz:4690.got - 2010.04.02 06:32:59.
