data_PCOD8323350
_publ_section_title
;
Structure prediction by ZEFSAII (Michael W. Deem and Ramdas Pophale) SiO2 
 PCOD8323350
Probable space group: P -3 1 C
;
_chemical_formula_sum "Si O2"
_cell_formula_units_Z 72
_cell_length_a 23.866758
_cell_length_b 23.866758
_cell_length_c 9.494593
_cell_angle_alpha 90.000000
_cell_angle_beta 90.000000
_cell_angle_gamma 120.000000
_cell_volume 4683.751483
_symmetry_space_group_name_H-M "P -3 1 C"
_symmetry_group_IT_number 163
_symmetry_cell_setting 'hexagonal'
loop_
_space_group_symop_operation_xyz
x,y,z
-y,x-y,z
-x+y,-x,z
-y,-x,1/2-z
-x+y,y,1/2-z
x,x-y,1/2-z
-x,-y,-z
y,-x+y,-z
x-y,x,-z
y,x,1/2+z
x-y,-y,1/2+z
-x,-x+y,1/2+z
loop_
_atom_site_type_symbol
_atom_site_label
_atom_site_fract_x
_atom_site_fract_y
_atom_site_fract_z
Si Si1 0.404998 0.469598 0.414027
Si Si2 0.400225 0.139013 0.583028
Si Si3 0.860987 0.261212 0.916972
Si Si4 0.807999 0.745382 0.913098
Si Si5 0.745382 0.807999 0.086902
Si Si6 0.530402 0.595002 0.414027
O O1 0.333667 0.451613 0.467597
O O2 0.454228 0.545772 0.441709
O O3 0.404131 0.452501 0.250000
O O4 0.426380 0.426380 0.500000
O O5 0.399045 0.142238 0.750000
O O6 0.421048 0.210524 0.522192
O O7 0.327782 0.087620 0.532288
O O8 0.912380 0.240161 0.967712
O O9 0.882054 0.333667 0.967597
O O10 0.881867 0.763734 0.938004
O O11 0.795223 0.751908 0.750000
O O12 0.795052 0.795052 0.000000
#
# Coordination Sequence:
#
# PCOD8323350 Si02
#       6
#    12  12  12  12  12  12
#     4   9  16  25  39  59  80 103 131 161 194 231
#     4   8  14  25  40  57  79 106 132 159 193 232
#     4   8  14  25  40  57  79 106 132 159 193 232
#     4   9  17  28  42  60  80 103 130 158 192 233
#     4   9  17  28  42  60  80 103 130 158 192 233
#     4   9  16  25  39  59  80 103 131 161 194 231
#
# _framework density 15.372294
#
# number of rings (size 3 to 8) (size 9 to 14) (size 15 to 20)
#    0.000    3.333    0.000    3.000    0.000    0.667 
#    0.000    0.000    0.000    4.000    0.000    4.667 
#    0.000    0.000    0.000    0.000    0.000    0.333 
#
# Total GULP energy -892289.880609 kJ/mol
# GULP energy per Si atom -12392.915008 kJ/mol
# Density = 1.533731 g / cm^3
# Si number density = 15.372294 Si / 1000 Ang^3
#
#
#
# Elastic Constant Matrix: (Units=GPa)
#
#
# Indices 1 2 3 4 5 6 
#
# 1 118.3890 71.3092 36.0964 0.0000 0.0000 0.0000
# 2 71.3092 118.3890 36.0964 0.0000 0.0000 0.0000
# 3 36.0964 36.0964 32.4679 0.0000 0.0000 0.0000
# 4 0.0000 0.0000 0.0000 17.3096 0.0000 0.0000
# 5 0.0000 0.0000 0.0000 0.0000 17.3096 0.0000
# 6 0.0000 0.0000 0.0000 0.0000 0.0000 23.5399
#
#
#
# Elastic Compliance Matrix: (Units=1/GPa)
#
#
# Indices 1 2 3 4 5 6 
#
# 1 0.015189 -0.006051 -0.010159 0.000000 0.000000 0.000000
# 2 -0.006051 0.015189 -0.010159 0.000000 0.000000 0.000000
# 3 -0.010159 -0.010159 0.053388 0.000000 0.000000 0.000000
# 4 0.000000 0.000000 0.000000 0.057771 0.000000 0.000000
# 5 0.000000 0.000000 0.000000 0.000000 0.057771 0.000000
# 6 0.000000 0.000000 0.000000 0.000000 0.000000 0.042481
#
#
# Mechanical properties :
#
#
# Convention : Reuss Voigt Hill
#
# Bulk Modulus (GPa) = 32.22902 61.80552 47.01727
# Shear Modulus (GPa) = 16.40039 20.01476 18.20757
#
# Velocity S-wave (km/s) = 3.26986 3.61224 3.44530
# Velocity P-wave (km/s) = 5.93861 7.59545 6.81755
#
# Compressibility (1/GPa) = 0.03102793
#
# Stress axis : x y z
#
# Youngs Moduli (GPa) = 65.83679 65.83679 18.73081
#
# Poissons Ratio (x) = 0.39841 0.19028
# Poissons Ratio (y) = 0.39841 0.19028
# Poissons Ratio (z) = 0.66882 0.66882
#
# Static dielectric constant tensor:
#      x y z
#    x 3.127920 0.000000 0.000000 
#    y 0.000000 3.127920 0.000000 
#    z 0.000000 0.000000 2.657800 
# 
# 
# High freq. dielectric constant tensor:
#      x y z
#    x 1.582850 0.000000 0.000000 
#    y 0.000000 1.582850 0.000000 
#    z 0.000000 0.000000 1.560020 
# 
# From -- ./inp_files/1221.got.cif
#   From: 2010.03.12/outbox.cif.g09.slc.cpg/sg163_1_cif.got.tgz:1221.got - 2010.04.02 06:30:25.
