data_PCOD8323909
_publ_section_title
;
Structure prediction by ZEFSAII (Michael W. Deem and Ramdas Pophale) SiO2 
 PCOD8323909
Probable space group: P -3 C 1
;
_chemical_formula_sum "Si O2"
_cell_formula_units_Z 48
_cell_length_a 12.289181
_cell_length_b 12.289181
_cell_length_c 17.845056
_cell_angle_alpha 90.000000
_cell_angle_beta 90.000000
_cell_angle_gamma 120.000000
_cell_volume 2333.965480
_symmetry_space_group_name_H-M "P -3 C 1"
_symmetry_group_IT_number 165
_symmetry_cell_setting 'hexagonal'
loop_
_space_group_symop_operation_xyz
x,y,z
-y,x-y,z
-x+y,-x,z
x-y,-y,1/2-z
-x,-x+y,1/2-z
y,x,1/2-z
-x,-y,-z
y,-x+y,-z
x-y,x,-z
-x+y,y,1/2+z
x,x-y,1/2+z
-y,-x,1/2+z
loop_
_atom_site_type_symbol
_atom_site_label
_atom_site_fract_x
_atom_site_fract_y
_atom_site_fract_z
Si Si1 0.000000 0.000000 0.660013
Si Si2 0.577886 0.724149 0.838203
Si Si3 0.577887 0.853739 0.161799
Si Si4 0.333334 0.666668 0.411608
Si Si5 0.333335 0.666668 0.588397
Si Si6 0.760268 0.000000 0.661351
O O1 0.120132 0.120130 0.626440
O O2 0.000000 0.000000 0.750000
O O3 0.668750 0.668750 0.859738
O O4 0.550581 0.708981 0.750001
O O5 0.446768 0.648073 0.881552
O O6 0.638291 0.870368 0.863921
O O7 0.446767 0.798700 0.118452
O O8 0.638293 0.767927 0.136080
O O9 0.333334 0.666667 0.500002
O O10 0.770501 0.000000 0.750000
#
# Coordination Sequence:
#
# PCOD8323909 Si02
#       6
#     4  12  12   4   4  12
#     4   9  12  24  51  93 130 146 175 234 313 362
#     4  10  21  39  65  93 119 153 201 252 302 360
#     4  10  21  39  65  93 119 153 201 252 302 360
#     4  12  28  44  58  81 124 170 208 246 295 365
#     4  12  28  44  58  81 124 170 208 246 295 365
#     4   9  16  30  58  95 127 148 181 243 308 363
#
# _framework density 20.565856
#
# number of rings (size 3 to 8) (size 9 to 14) (size 15 to 20)
#    0.000    2.000    2.500    1.500    3.500    1.000 
#    0.000    0.000    0.000    0.000    0.000    3.500 
#    0.000    0.000    0.000    0.000    0.000    0.000 
#
# Total GULP energy -594965.522476 kJ/mol
# GULP energy per Si atom -12395.115052 kJ/mol
# Density = 2.051905 g / cm^3
# Si number density = 20.565856 Si / 1000 Ang^3
#
#
#
# Elastic Constant Matrix: (Units=GPa)
#
#
# Indices 1 2 3 4 5 6 
#
# 1 111.9183 42.5559 42.8359 -0.0010 0.0000 0.0000
# 2 42.5559 111.9203 42.8360 -0.0004 0.0000 0.0000
# 3 42.8359 42.8360 60.5784 0.0006 0.0000 0.0000
# 4 -0.0010 -0.0004 0.0006 1.5952 0.0000 0.0000
# 5 0.0000 0.0000 0.0000 0.0000 1.5915 -0.0003
# 6 0.0000 0.0000 0.0000 0.0000 -0.0003 34.6828
#
#
#
# Elastic Compliance Matrix: (Units=1/GPa)
#
#
# Indices 1 2 3 4 5 6 
#
# 1 0.012534 -0.001883 -0.007531 0.000010 0.000000 0.000000
# 2 -0.001883 0.012533 -0.007531 0.000004 0.000000 0.000000
# 3 -0.007531 -0.007531 0.027158 -0.000016 0.000000 0.000000
# 4 0.000010 0.000004 -0.000016 0.626886 0.000000 0.000000
# 5 0.000000 0.000000 0.000000 0.000000 0.628357 0.000005
# 6 0.000000 0.000000 0.000000 0.000000 0.000005 0.028833
#
#
# Mechanical properties :
#
#
# Convention : Reuss Voigt Hill
#
# Bulk Modulus (GPa) = 54.54140 60.09696 57.31918
# Shear Modulus (GPa) = 3.63292 17.98651 10.80972
#
# Velocity S-wave (km/s) = 1.33053 2.96054 2.29512
# Velocity P-wave (km/s) = 5.37944 6.40090 5.91227
#
# Compressibility (1/GPa) = 0.01833470
#
# Stress axis : x y z
#
# Youngs Moduli (GPa) = 79.78536 79.78713 36.82167
#
# Poissons Ratio (x) = 0.15027 0.27730
# Poissons Ratio (y) = 0.15026 0.27730
# Poissons Ratio (z) = 0.60086 0.60086
#
# Static dielectric constant tensor:
#      x y z
#    x 3.879700 0.000000 0.000000 
#    y 0.000000 3.879710 -0.000010 
#    z 0.000000 -0.000010 3.079970 
# 
# 
# High freq. dielectric constant tensor:
#      x y z
#    x 1.815270 0.000000 0.000000 
#    y 0.000000 1.815270 0.000000 
#    z 0.000000 0.000000 1.737570 
# 
# From -- ./inp_files/2563.got.cif
#   From: 2010.03.12/outbox.cif.g09.slc.cpg/sg165_2_cif.got.tgz:2563.got - 2010.04.02 06:36:38.
