data_PCOD8323872
_publ_section_title
;
Structure prediction by ZEFSAII (Michael W. Deem and Ramdas Pophale) SiO2 
 PCOD8323872
Probable space group: P -3 C 1
;
_chemical_formula_sum "Si O2"
_cell_formula_units_Z 48
_cell_length_a 16.585458
_cell_length_b 16.585458
_cell_length_c 9.281494
_cell_angle_alpha 90.000000
_cell_angle_beta 90.000000
_cell_angle_gamma 120.000000
_cell_volume 2211.074916
_symmetry_space_group_name_H-M "P -3 C 1"
_symmetry_group_IT_number 165
_symmetry_cell_setting 'hexagonal'
loop_
_space_group_symop_operation_xyz
x,y,z
-y,x-y,z
-x+y,-x,z
x-y,-y,1/2-z
-x,-x+y,1/2-z
y,x,1/2-z
-x,-y,-z
y,-x+y,-z
x-y,x,-z
-x+y,y,1/2+z
x,x-y,1/2+z
-y,-x,1/2+z
loop_
_atom_site_type_symbol
_atom_site_label
_atom_site_fract_x
_atom_site_fract_y
_atom_site_fract_z
Si Si1 0.078636 0.867404 0.975570
Si Si2 0.517550 0.340443 0.174129
Si Si3 0.660162 0.843623 0.223473
Si Si4 0.331491 0.513962 0.663020
O O1 0.114038 0.861099 0.818927
O O2 0.095677 0.799270 0.079746
O O3 0.971541 0.836684 0.963441
O O4 0.405338 0.284495 0.200903
O O5 0.569746 0.442872 0.250563
O O6 0.558951 0.283456 0.259108
O O7 0.540267 0.349678 0.005020
O O8 0.598271 0.732946 0.182973
#
# Coordination Sequence:
#
# PCOD8323872 Si02
#       4
#    12  12  12  12
#     4  12  25  46  74 102 130 174 234 298 361 422
#     4  10  19  33  59  96 135 180 226 267 308 395
#     4  10  22  42  63 102 144 178 215 280 354 408
#     4  10  19  33  59  96 135 180 226 267 308 395
#
# _framework density 21.708898999999999
#
# number of rings (size 3 to 8) (size 9 to 14) (size 15 to 20)
#    1.500    0.000    2.500    3.750    3.500    0.000 
#    0.000    2.500    0.000    9.000    0.000    0.000 
#    0.000    0.000    0.000    0.000    0.000    0.000 
#
# Total GULP energy -594628.854114 kJ/mol
# GULP energy per Si atom -12388.101127 kJ/mol
# Density = 2.165949 g / cm^3
# Si number density = 21.708899 Si / 1000 Ang^3
#
#
#
# Elastic Constant Matrix: (Units=GPa)
#
#
# Indices 1 2 3 4 5 6 
#
# 1 68.0204 18.9245 11.8514 3.8219 0.0000 0.0000
# 2 18.9245 68.0204 11.8514 -3.8219 0.0000 0.0000
# 3 11.8514 11.8514 112.3840 0.0000 0.0000 0.0000
# 4 3.8219 -3.8219 0.0000 17.8050 0.0000 0.0000
# 5 0.0000 0.0000 0.0000 0.0000 17.8050 3.8219
# 6 0.0000 0.0000 0.0000 0.0000 3.8219 24.5479
#
#
#
# Elastic Compliance Matrix: (Units=1/GPa)
#
#
# Indices 1 2 3 4 5 6 
#
# 1 0.016457 -0.004615 -0.001249 -0.004523 0.000000 0.000000
# 2 -0.004615 0.016457 -0.001249 0.004523 0.000000 0.000000
# 3 -0.001249 -0.001249 0.009161 0.000000 0.000000 0.000000
# 4 -0.004523 0.004523 0.000000 0.058106 0.000000 0.000000
# 5 0.000000 0.000000 0.000000 0.000000 0.058106 -0.009047
# 6 0.000000 0.000000 0.000000 0.000000 -0.009047 0.042145
#
#
# Mechanical properties :
#
#
# Convention : Reuss Voigt Hill
#
# Bulk Modulus (GPa) = 35.90633 37.07549 36.49091
# Shear Modulus (GPa) = 22.32716 25.75139 24.03928
#
# Velocity S-wave (km/s) = 3.21047 3.44788 3.33129
# Velocity P-wave (km/s) = 5.50624 5.74161 5.62515
#
# Compressibility (1/GPa) = 0.02785025
#
# Stress axis : x y z
#
# Youngs Moduli (GPa) = 60.76340 60.76340 109.15306
#
# Poissons Ratio (x) = 0.28044 0.13631
# Poissons Ratio (y) = 0.28044 0.13631
# Poissons Ratio (z) = 0.07588 0.07588
#
# Static dielectric constant tensor:
#      x y z
#    x 3.646520 0.000000 0.000000 
#    y 0.000000 3.646520 0.000000 
#    z 0.000000 0.000000 3.873250 
# 
# 
# High freq. dielectric constant tensor:
#      x y z
#    x 1.826790 0.000000 0.000000 
#    y 0.000000 1.826790 0.000000 
#    z 0.000000 0.000000 1.869810 
# 
# From -- ./inp_files/510.got.cif
#   From: 2010.03.12/outbox.cif.g09.slc.cpg/sg165_1_cif.got.tgz:510.got - 2010.04.02 06:36:38.
