data_PCOD8323826
_publ_section_title
;
Structure prediction by ZEFSAII (Michael W. Deem and Ramdas Pophale) SiO2 
 PCOD8323826
Probable space group: P -3 M 1
;
_chemical_formula_sum "Si O2"
_cell_formula_units_Z 54
_cell_length_a 13.463302
_cell_length_b 13.463302
_cell_length_c 22.487024
_cell_angle_alpha 90.000000
_cell_angle_beta 90.000000
_cell_angle_gamma 120.000000
_cell_volume 3529.927540
_symmetry_space_group_name_H-M "P -3 M 1"
_symmetry_group_IT_number 164
_symmetry_cell_setting 'hexagonal'
loop_
_space_group_symop_operation_xyz
x,y,z
-y,x-y,z
-x+y,-x,z
x-y,-y,-z
-x,-x+y,-z
y,x,-z
-x,-y,-z
y,-x+y,-z
x-y,x,-z
-x+y,y,z
x,x-y,z
-y,-x,z
loop_
_atom_site_type_symbol
_atom_site_label
_atom_site_fract_x
_atom_site_fract_y
_atom_site_fract_z
Si Si1 0.000379 0.229147 0.068395
Si Si2 0.772009 0.000000 0.500000
Si Si3 0.104123 0.437680 0.713900
Si Si4 0.765504 0.999159 0.628781
Si Si5 0.104596 0.438357 0.851337
O O1 0.900292 0.099709 0.080496
O O2 0.985779 0.318526 0.109123
O O3 0.118809 0.237617 0.086754
O O4 0.000000 0.263134 0.000000
O O5 0.791039 0.895520 0.488268
O O6 0.707389 0.988447 0.562766
O O7 0.233153 0.466306 0.700653
O O8 0.094943 0.547472 0.694903
O O9 0.013136 0.328816 0.676166
O O10 0.072331 0.406725 0.782659
O O11 0.796439 0.898220 0.636375
O O12 0.879450 0.120551 0.639990
O O13 0.233252 0.466503 0.864423
O O14 0.096293 0.548147 0.870345
#
# Coordination Sequence:
#
# PCOD8323826 Si02
#       5
#    12   6  12  12  12
#     4   9  17  29  45  65  89 116 142 167 200 246
#     4   8  13  22  37  58  84 112 138 164 200 248
#     4   9  17  29  44  61  81 107 139 174 211 249
#     4   9  16  26  42  64  88 111 136 169 210 253
#     4   9  17  29  45  63  82 106 138 176 214 248
#
# _framework density 15.297765
#
# number of rings (size 3 to 8) (size 9 to 14) (size 15 to 20)
#    0.000    3.111    0.000    1.000    0.000    5.778 
#    0.000    0.556    0.000    3.556    0.000    0.000 
#    0.000    0.000    0.000    0.000    0.000    0.000 
#
# Total GULP energy -669249.798770 kJ/mol
# GULP energy per Si atom -12393.514792 kJ/mol
# Density = 1.526295 g / cm^3
# Si number density = 15.297765 Si / 1000 Ang^3
#
#
#
# Elastic Constant Matrix: (Units=GPa)
#
#
# Indices 1 2 3 4 5 6 
#
# 1 96.5302 51.8048 61.8530 -0.3521 0.0000 0.0000
# 2 51.8048 96.5302 61.8530 0.3521 0.0000 0.0000
# 3 61.8530 61.8530 88.4784 0.0000 0.0000 0.0000
# 4 -0.3521 0.3521 0.0000 24.8024 0.0000 0.0000
# 5 0.0000 0.0000 0.0000 0.0000 24.8024 -0.3521
# 6 0.0000 0.0000 0.0000 0.0000 -0.3521 22.3627
#
#
#
# Elastic Compliance Matrix: (Units=1/GPa)
#
#
# Indices 1 2 3 4 5 6 
#
# 1 0.019265 -0.003098 -0.011302 0.000317 0.000000 0.000000
# 2 -0.003098 0.019265 -0.011302 -0.000317 0.000000 0.000000
# 3 -0.011302 -0.011302 0.027104 0.000000 0.000000 0.000000
# 4 0.000317 -0.000317 0.000000 0.040328 0.000000 0.000000
# 5 0.000000 0.000000 0.000000 0.000000 0.040328 0.000635
# 6 0.000000 0.000000 0.000000 0.000000 0.000635 0.044727
#
#
# Mechanical properties :
#
#
# Convention : Reuss Voigt Hill
#
# Bulk Modulus (GPa) = 70.27310 70.28447 70.27879
# Shear Modulus (GPa) = 20.22945 21.46203 20.84574
#
# Velocity S-wave (km/s) = 3.64040 3.74966 3.69543
# Velocity P-wave (km/s) = 7.98164 8.04926 8.01552
#
# Compressibility (1/GPa) = 0.01423020
#
# Stress axis : x y z
#
# Youngs Moduli (GPa) = 51.90699 51.90699 36.89522
#
# Poissons Ratio (x) = 0.16083 0.41698
# Poissons Ratio (y) = 0.16083 0.41698
# Poissons Ratio (z) = 0.58664 0.58664
#
# Static dielectric constant tensor:
#      x y z
#    x 2.789810 0.000000 0.000000 
#    y 0.000000 2.789810 0.000000 
#    z 0.000000 0.000000 3.098340 
# 
# 
# High freq. dielectric constant tensor:
#      x y z
#    x 1.568060 0.000000 0.000000 
#    y 0.000000 1.568060 0.000000 
#    z 0.000000 0.000000 1.597380 
# 
# From -- ./inp_files/4863.got.cif
#   From: 2010.03.12/outbox.cif.g09.slc.cpg/sg164_3_cif.got.tgz:4863.got - 2010.04.02 06:32:59.
