data_PCOD8323533
_publ_section_title
;
Structure prediction by ZEFSAII (Michael W. Deem and Ramdas Pophale) SiO2 
 PCOD8323533
Probable space group: P -3 M 1
;
_chemical_formula_sum "Si O2"
_cell_formula_units_Z 84
_cell_length_a 19.621471
_cell_length_b 19.621471
_cell_length_c 13.422207
_cell_angle_alpha 90.000000
_cell_angle_beta 90.000000
_cell_angle_gamma 120.000000
_cell_volume 4475.254003
_symmetry_space_group_name_H-M "P -3 M 1"
_symmetry_group_IT_number 164
_symmetry_cell_setting 'hexagonal'
loop_
_space_group_symop_operation_xyz
x,y,z
-y,x-y,z
-x+y,-x,z
x-y,-y,-z
-x,-x+y,-z
y,x,-z
-x,-y,-z
y,-x+y,-z
x-y,x,-z
-x+y,y,z
x,x-y,z
-y,-x,z
loop_
_atom_site_type_symbol
_atom_site_label
_atom_site_fract_x
_atom_site_fract_y
_atom_site_fract_z
Si Si1 0.334784 0.516395 0.901342
Si Si2 0.912642 0.666920 0.548376
Si Si3 0.030051 0.329120 0.246802
Si Si4 0.210153 0.266418 0.920911
Si Si5 0.914534 0.382468 0.289667
Si Si6 0.176125 0.666710 0.518359
Si Si7 0.127721 0.717810 0.067888
O O1 0.245498 0.490995 0.877560
O O2 0.390104 0.609897 0.892289
O O3 0.359953 0.471691 0.823903
O O4 0.341989 0.492128 0.014725
O O5 0.841811 0.683621 0.510992
O O6 0.918446 0.681328 0.667902
O O7 0.885359 0.574461 0.531558
O O8 0.000000 0.725571 0.500000
O O9 0.078724 0.399011 0.167711
O O10 0.985036 0.249066 0.183457
O O11 0.975283 0.352567 0.310815
O O12 0.126647 0.253294 0.889365
O O13 0.198681 0.198681 0.000000
O O14 0.264138 0.346840 0.980670
O O15 0.953653 0.476827 0.304393
O O16 0.840129 0.338410 0.363158
O O17 0.164456 0.582228 0.479521
O O18 0.265858 0.734143 0.498018
O O19 0.202629 0.797372 0.104553
#
# Coordination Sequence:
#
# PCOD8323533 Si02
#       7
#    12  12  12  12  12  12  12
#     4  10  19  31  47  71 105 146 189 230 272 322
#     4  11  24  41  62  89 118 149 192 243 295 350
#     4  11  20  34  53  81 110 144 180 227 280 338
#     4   9  18  32  54  81 108 139 173 213 263 324
#     4  10  20  31  50  79 112 146 183 234 289 335
#     4  10  21  38  60  86 117 155 197 243 294 347
#     4   9  18  32  50  73 105 141 180 220 266 319
#
# _framework density 18.769883
#
# number of rings (size 3 to 8) (size 9 to 14) (size 15 to 20)
#    0.000    2.000    2.857    1.143    0.000    3.143 
#    0.000    2.857    0.000    0.286    0.000    3.000 
#    0.000    0.000    0.000    0.000    0.000    0.000 
#
# Total GULP energy -1040702.163075 kJ/mol
# GULP energy per Si atom -12389.311465 kJ/mol
# Density = 1.872716 g / cm^3
# Si number density = 18.769883 Si / 1000 Ang^3
#
#
#
# Elastic Constant Matrix: (Units=GPa)
#
#
# Indices 1 2 3 4 5 6 
#
# 1 83.9767 36.1286 27.4793 -1.8524 0.0000 0.0000
# 2 36.1286 83.9767 27.4793 1.8524 0.0000 0.0000
# 3 27.4793 27.4793 87.9302 0.0000 0.0000 0.0000
# 4 -1.8524 1.8524 0.0000 24.1753 0.0000 0.0000
# 5 0.0000 0.0000 0.0000 0.0000 24.1753 -1.8524
# 6 0.0000 0.0000 0.0000 0.0000 -1.8524 23.9241
#
#
#
# Elastic Compliance Matrix: (Units=1/GPa)
#
#
# Indices 1 2 3 4 5 6 
#
# 1 0.015370 -0.005654 -0.003036 0.001611 0.000000 0.000000
# 2 -0.005654 0.015370 -0.003036 -0.001611 0.000000 0.000000
# 3 -0.003036 -0.003036 0.013270 0.000000 0.000000 0.000000
# 4 0.001611 -0.001611 0.000000 0.041611 0.000000 0.000000
# 5 0.000000 0.000000 0.000000 0.000000 0.041611 0.003222
# 6 0.000000 0.000000 0.000000 0.000000 0.003222 0.042048
#
#
# Mechanical properties :
#
#
# Convention : Reuss Voigt Hill
#
# Bulk Modulus (GPa) = 48.64680 48.67314 48.65997
# Shear Modulus (GPa) = 25.05176 25.44135 25.24655
#
# Velocity S-wave (km/s) = 3.65729 3.68562 3.67148
# Velocity P-wave (km/s) = 6.61877 6.64075 6.62977
#
# Compressibility (1/GPa) = 0.02055634
#
# Stress axis : x y z
#
# Youngs Moduli (GPa) = 65.06281 65.06281 75.35600
#
# Poissons Ratio (x) = 0.36789 0.22879
# Poissons Ratio (y) = 0.36789 0.22879
# Poissons Ratio (z) = 0.19754 0.19754
#
# Static dielectric constant tensor:
#      x y z
#    x 3.468520 0.000000 0.000000 
#    y 0.000000 3.468520 0.000000 
#    z 0.000000 0.000000 3.377850 
# 
# 
# High freq. dielectric constant tensor:
#      x y z
#    x 1.714930 0.000000 0.000000 
#    y 0.000000 1.714930 0.000000 
#    z 0.000000 0.000000 1.727050 
# 
# From -- ./inp_files/2949.got.cif
#   From: 2010.03.12/outbox.cif.g09.slc.cpg/sg164_2_cif.got.tgz:2949.got - 2010.04.02 06:32:59.
