data_PCOD8323233
_publ_section_title
;
Structure prediction by ZEFSAII (Michael W. Deem and Ramdas Pophale) SiO2 
 PCOD8323233
Probable space group: P -3 1 C
;
_chemical_formula_sum "Si O2"
_cell_formula_units_Z 60
_cell_length_a 13.070984
_cell_length_b 13.070984
_cell_length_c 25.084801
_cell_angle_alpha 90.000000
_cell_angle_beta 90.000000
_cell_angle_gamma 120.000000
_cell_volume 3711.571727
_symmetry_space_group_name_H-M "P -3 1 C"
_symmetry_group_IT_number 163
_symmetry_cell_setting 'hexagonal'
loop_
_space_group_symop_operation_xyz
x,y,z
-y,x-y,z
-x+y,-x,z
-y,-x,1/2-z
-x+y,y,1/2-z
x,x-y,1/2-z
-x,-y,-z
y,-x+y,-z
x-y,x,-z
y,x,1/2+z
x-y,-y,1/2+z
-x,-x+y,1/2+z
loop_
_atom_site_type_symbol
_atom_site_label
_atom_site_fract_x
_atom_site_fract_y
_atom_site_fract_z
Si Si1 0.430230 0.097362 0.040322
Si Si2 0.096443 0.430136 0.661928
Si Si3 0.902638 0.569770 0.040322
Si Si4 0.091583 0.665135 0.250000
Si Si5 0.333693 0.903557 0.838072
O O1 0.390898 0.057602 0.101097
O O2 0.432379 0.216190 0.026294
O O3 0.560274 0.120548 0.029344
O O4 0.337677 0.000000 0.000000
O O5 0.132396 0.566198 0.670986
O O6 0.209020 0.418040 0.677868
O O7 0.985043 0.344482 0.698073
O O8 0.942398 0.609102 0.101096
O O9 0.209081 0.790920 0.250000
O O10 0.126610 0.563305 0.250000
O O11 0.014957 0.655518 0.198073
#
# Coordination Sequence:
#
# PCOD8323233 Si02
#       5
#    12  12  12  12  12
#     4   9  17  29  46  69  95 121 149 183 224 267
#     4   9  17  30  49  71  92 115 147 189 231 266
#     4   9  17  29  46  69  95 121 149 183 224 267
#     4  10  20  32  46  66  94 124 150 178 218 272
#     4   9  17  30  49  71  92 115 147 189 231 266
#
# _framework density 16.165656999999999
#
# number of rings (size 3 to 8) (size 9 to 14) (size 15 to 20)
#    0.000    2.800    0.000    1.600    0.000    4.800 
#    0.000    2.000    0.000    8.400    0.000    0.000 
#    0.000    0.000    0.000    0.000    0.000    0.000 
#
# Total GULP energy -743981.417337 kJ/mol
# GULP energy per Si atom -12399.690289 kJ/mol
# Density = 1.612886 g / cm^3
# Si number density = 16.165657 Si / 1000 Ang^3
#
#
#
# Elastic Constant Matrix: (Units=GPa)
#
#
# Indices 1 2 3 4 5 6 
#
# 1 106.2847 55.6161 66.2839 0.0000 0.0000 0.0000
# 2 55.6161 106.2847 66.2839 0.0000 0.0000 0.0000
# 3 66.2839 66.2839 108.7646 0.0000 0.0000 0.0000
# 4 0.0000 0.0000 0.0000 26.1706 0.0000 0.0000
# 5 0.0000 0.0000 0.0000 0.0000 26.1706 0.0000
# 6 0.0000 0.0000 0.0000 0.0000 0.0000 25.3343
#
#
#
# Elastic Compliance Matrix: (Units=1/GPa)
#
#
# Indices 1 2 3 4 5 6 
#
# 1 0.016032 -0.003704 -0.007513 0.000000 0.000000 0.000000
# 2 -0.003704 0.016032 -0.007513 0.000000 0.000000 0.000000
# 3 -0.007513 -0.007513 0.018352 0.000000 0.000000 0.000000
# 4 0.000000 0.000000 0.000000 0.038211 0.000000 0.000000
# 5 0.000000 0.000000 0.000000 0.000000 0.038211 0.000000
# 6 0.000000 0.000000 0.000000 0.000000 0.000000 0.039472
#
#
# Mechanical properties :
#
#
# Convention : Reuss Voigt Hill
#
# Bulk Modulus (GPa) = 77.18632 77.52241 77.35437
# Shear Modulus (GPa) = 24.02801 24.41178 24.21990
#
# Velocity S-wave (km/s) = 3.85952 3.89022 3.87490
# Velocity P-wave (km/s) = 8.22873 8.26060 8.24468
#
# Compressibility (1/GPa) = 0.01295566
#
# Stress axis : x y z
#
# Youngs Moduli (GPa) = 62.37343 62.37343 54.49003
#
# Poissons Ratio (x) = 0.23101 0.40941
# Poissons Ratio (y) = 0.23101 0.40941
# Poissons Ratio (z) = 0.46864 0.46864
#
# Static dielectric constant tensor:
#      x y z
#    x 2.914180 0.000000 0.000000 
#    y 0.000000 2.914180 0.000000 
#    z 0.000000 0.000000 3.336820 
# 
# 
# High freq. dielectric constant tensor:
#      x y z
#    x 1.605720 0.000000 0.000000 
#    y 0.000000 1.605720 0.000000 
#    z 0.000000 0.000000 1.636960 
# 
# From -- ./inp_files/4088.got.cif
#   From: 2010.03.12/outbox.cif.g09.slc.cpg/sg163_3_cif.got.tgz:4088.got - 2010.04.02 06:30:25.
