data_PCOD8323744
_publ_section_title
;
Structure prediction by ZEFSAII (Michael W. Deem and Ramdas Pophale) SiO2 
 PCOD8323744
Probable space group: P -3 M 1
;
_chemical_formula_sum "Si O2"
_cell_formula_units_Z 72
_cell_length_a 22.414917
_cell_length_b 22.414917
_cell_length_c 8.822082
_cell_angle_alpha 90.000000
_cell_angle_beta 90.000000
_cell_angle_gamma 120.000000
_cell_volume 3838.627692
_symmetry_space_group_name_H-M "P -3 M 1"
_symmetry_group_IT_number 164
_symmetry_cell_setting 'hexagonal'
loop_
_space_group_symop_operation_xyz
x,y,z
-y,x-y,z
-x+y,-x,z
x-y,-y,-z
-x,-x+y,-z
y,x,-z
-x,-y,-z
y,-x+y,-z
x-y,x,-z
-x+y,y,z
x,x-y,z
-y,-x,z
loop_
_atom_site_type_symbol
_atom_site_label
_atom_site_fract_x
_atom_site_fract_y
_atom_site_fract_z
Si Si1 0.458689 0.402449 0.618054
Si Si2 0.569203 0.854296 0.821398
Si Si3 0.194090 0.528124 0.555570
Si Si4 0.318704 0.382459 0.102137
Si Si5 0.293780 0.079594 0.343343
Si Si6 0.794196 0.073371 0.689570
O O1 0.404372 0.404372 0.500000
O O2 0.521203 0.478798 0.638689
O O3 0.485212 0.350499 0.566976
O O4 0.422357 0.380322 0.780153
O O5 0.576069 0.788035 0.839148
O O6 0.502451 0.836964 0.721208
O O7 0.639064 0.912829 0.740557
O O8 0.561853 0.878536 0.988586
O O9 0.260056 0.520111 0.516003
O O10 0.216532 0.608266 0.555004
O O11 0.246548 0.339937 0.190155
O O12 0.330352 0.330352 0.000000
O O13 0.275936 0.137968 0.293472
O O14 0.311369 0.085203 0.521580
O O15 0.227371 0.006793 0.296260
O O16 0.876253 0.123748 0.717123
#
# Coordination Sequence:
#
# PCOD8323744 Si02
#       6
#    12  12  12  12  12  12
#     4  10  23  40  58  80 110 147 189 234 279 331
#     4  10  20  34  52  80 113 144 177 221 277 333
#     4  10  21  39  63  86 111 147 191 237 282 338
#     4  12  22  32  53  80 112 148 180 229 279 339
#     4   9  18  34  55  77 108 147 188 228 275 337
#     4  10  20  33  53  80 110 146 185 229 280 332
#
# _framework density 18.756701
#
# number of rings (size 3 to 8) (size 9 to 14) (size 15 to 20)
#    0.000    1.833    1.667    2.667    2.333    3.667 
#    0.000    0.000    0.000    0.333    0.000    8.167 
#    0.000    0.667    0.000    0.000    0.000    0.000 
#
# Total GULP energy -892703.674471 kJ/mol
# GULP energy per Si atom -12398.662145 kJ/mol
# Density = 1.871401 g / cm^3
# Si number density = 18.756701 Si / 1000 Ang^3
#
#
#
# Elastic Constant Matrix: (Units=GPa)
#
#
# Indices 1 2 3 4 5 6 
#
# 1 83.3091 38.1318 35.2655 0.4346 0.0000 0.0000
# 2 38.1318 83.3091 35.2655 -0.4346 0.0000 0.0000
# 3 35.2655 35.2655 96.8137 0.0000 0.0000 0.0000
# 4 0.4346 -0.4346 0.0000 24.0459 0.0000 0.0000
# 5 0.0000 0.0000 0.0000 0.0000 24.0459 0.4346
# 6 0.0000 0.0000 0.0000 0.0000 0.4346 22.5887
#
#
#
# Elastic Compliance Matrix: (Units=1/GPa)
#
#
# Indices 1 2 3 4 5 6 
#
# 1 0.016293 -0.005849 -0.003804 -0.000400 0.000000 0.000000
# 2 -0.005849 0.016293 -0.003804 0.000400 0.000000 0.000000
# 3 -0.003804 -0.003804 0.013101 0.000000 0.000000 0.000000
# 4 -0.000400 0.000400 0.000000 0.041602 0.000000 0.000000
# 5 0.000000 0.000000 0.000000 0.000000 0.041602 -0.000800
# 6 0.000000 0.000000 0.000000 0.000000 -0.000800 0.044285
#
#
# Mechanical properties :
#
#
# Convention : Reuss Voigt Hill
#
# Bulk Modulus (GPa) = 53.27296 53.41749 53.34522
# Shear Modulus (GPa) = 24.23079 24.45403 24.34241
#
# Velocity S-wave (km/s) = 3.59813 3.61466 3.60640
# Velocity P-wave (km/s) = 6.76208 6.77953 6.77081
#
# Compressibility (1/GPa) = 0.01877125
#
# Stress axis : x y z
#
# Youngs Moduli (GPa) = 61.37483 61.37483 76.33209
#
# Poissons Ratio (x) = 0.35900 0.29039
# Poissons Ratio (y) = 0.35900 0.29039
# Poissons Ratio (z) = 0.23349 0.23349
#
# Static dielectric constant tensor:
#      x y z
#    x 3.421550 0.000000 0.000000 
#    y 0.000000 3.421550 0.000000 
#    z 0.000000 0.000000 3.678280 
# 
# 
# High freq. dielectric constant tensor:
#      x y z
#    x 1.720480 0.000000 0.000000 
#    y 0.000000 1.720480 0.000000 
#    z 0.000000 0.000000 1.730160 
# 
# From -- ./inp_files/1888.got.cif
#   From: 2010.03.12/outbox.cif.g09.slc.cpg/sg164_1_cif.got.tgz:1888.got - 2010.04.02 06:32:59.
