data_PCOD8323764
_publ_section_title
;
Structure prediction by ZEFSAII (Michael W. Deem and Ramdas Pophale) SiO2 
 PCOD8323764
Probable space group: P -3 M 1
;
_chemical_formula_sum "Si O2"
_cell_formula_units_Z 66
_cell_length_a 12.391522
_cell_length_b 12.391522
_cell_length_c 28.321144
_cell_angle_alpha 90.000000
_cell_angle_beta 90.000000
_cell_angle_gamma 120.000000
_cell_volume 3766.090296
_symmetry_space_group_name_H-M "P -3 M 1"
_symmetry_group_IT_number 164
_symmetry_cell_setting 'hexagonal'
loop_
_space_group_symop_operation_xyz
x,y,z
-y,x-y,z
-x+y,-x,z
x-y,-y,-z
-x,-x+y,-z
y,x,-z
-x,-y,-z
y,-x+y,-z
x-y,x,-z
-x+y,y,z
x,x-y,z
-y,-x,z
loop_
_atom_site_type_symbol
_atom_site_label
_atom_site_fract_x
_atom_site_fract_y
_atom_site_fract_z
Si Si1 0.918698 0.583903 0.954131
Si Si2 0.918384 0.585019 0.773663
Si Si3 0.748115 0.000000 0.500000
Si Si4 0.251770 0.253186 0.317774
Si Si5 0.080397 0.415092 0.864802
Si Si6 0.081788 0.413273 0.407970
O O1 0.796428 0.592856 0.958070
O O2 0.879560 0.439780 0.950410
O O3 0.993947 0.658047 0.908044
O O4 0.000000 0.647346 0.000000
O O5 0.788868 0.577736 0.784631
O O6 0.891427 0.445714 0.767702
O O7 0.981300 0.659484 0.726301
O O8 0.010764 0.656052 0.816332
O O9 0.682091 0.021040 0.544438
O O10 0.882913 0.117088 0.489962
O O11 0.107553 0.215105 0.319512
O O12 0.322662 0.326273 0.364671
O O13 0.259979 0.129990 0.313430
O O14 0.204164 0.408328 0.866675
O O15 0.116463 0.558232 0.869086
O O16 0.226075 0.452149 0.403743
O O17 0.071829 0.535915 0.407315
#
# Coordination Sequence:
#
# PCOD8323764 Si02
#       6
#    12  12   6  12  12  12
#     4  10  20  34  54  78 104 134 168 209 254 301
#     4  10  20  34  54  78 104 134 168 209 254 301
#     4  10  20  34  54  78 104 134 168 208 252 300
#     4  10  20  34  53  76 103 135 170 209 252 300
#     4  10  20  34  53  76 103 135 170 209 252 299
#     4  10  20  34  53  76 103 135 170 209 252 299
#
# _framework density 17.524804
#
# number of rings (size 3 to 8) (size 9 to 14) (size 15 to 20)
#    0.000    2.000    0.000    4.000    0.000    0.000 
#    0.000    7.273    0.000   16.727    0.000    0.000 
#    0.000    0.000    0.000    0.000    0.000    0.000 
#
# Total GULP energy -818681.342211 kJ/mol
# GULP energy per Si atom -12404.262761 kJ/mol
# Density = 1.748492 g / cm^3
# Si number density = 17.524804 Si / 1000 Ang^3
#
#
#
# Elastic Constant Matrix: (Units=GPa)
#
#
# Indices 1 2 3 4 5 6 
#
# 1 82.8878 42.6303 13.3328 -4.6296 0.0000 0.0000
# 2 42.6303 82.8878 13.3328 4.6296 0.0000 0.0000
# 3 13.3328 13.3328 63.4125 0.0000 0.0000 0.0000
# 4 -4.6296 4.6296 0.0000 17.9150 0.0000 0.0000
# 5 0.0000 0.0000 0.0000 0.0000 17.9150 -4.6296
# 6 0.0000 0.0000 0.0000 0.0000 -4.6296 20.1288
#
#
#
# Elastic Compliance Matrix: (Units=1/GPa)
#
#
# Indices 1 2 3 4 5 6 
#
# 1 0.017375 -0.009035 -0.001753 0.006825 0.000000 0.000000
# 2 -0.009035 0.017375 -0.001753 -0.006825 0.000000 0.000000
# 3 -0.001753 -0.001753 0.016507 0.000000 0.000000 0.000000
# 4 0.006825 -0.006825 0.000000 0.059346 0.000000 0.000000
# 5 0.000000 0.000000 0.000000 0.000000 0.059346 0.013650
# 6 0.000000 0.000000 0.000000 0.000000 0.013650 0.052820
#
#
# Mechanical properties :
#
#
# Convention : Reuss Voigt Hill
#
# Bulk Modulus (GPa) = 38.20821 40.86443 39.53632
# Shear Modulus (GPa) = 19.48734 21.85123 20.66929
#
# Velocity S-wave (km/s) = 3.33826 3.53494 3.43801
# Velocity P-wave (km/s) = 6.05874 6.32691 6.19428
#
# Compressibility (1/GPa) = 0.02617238
#
# Stress axis : x y z
#
# Youngs Moduli (GPa) = 57.55521 57.55521 60.58000
#
# Poissons Ratio (x) = 0.52002 0.10622
# Poissons Ratio (y) = 0.52002 0.10622
# Poissons Ratio (z) = 0.10092 0.10092
#
# Static dielectric constant tensor:
#      x y z
#    x 3.198340 0.000000 0.000000 
#    y 0.000000 3.198340 0.000000 
#    z 0.000000 0.000000 3.481700 
# 
# 
# High freq. dielectric constant tensor:
#      x y z
#    x 1.679160 0.000000 0.000000 
#    y 0.000000 1.679160 0.000000 
#    z 0.000000 0.000000 1.700630 
# 
# From -- ./inp_files/5483.got.cif
#   From: 2010.03.12/outbox.cif.g09.slc.cpg/sg164_3_cif.got.tgz:5483.got - 2010.04.02 06:32:59.
