data_PCOD8323395
_publ_section_title
;
Structure prediction by ZEFSAII (Michael W. Deem and Ramdas Pophale) SiO2 
 PCOD8323395
Probable space group: P -3 M 1
;
_chemical_formula_sum "Si O2"
_cell_formula_units_Z 96
_cell_length_a 17.169459
_cell_length_b 17.169459
_cell_length_c 24.897955
_cell_angle_alpha 90.000000
_cell_angle_beta 90.000000
_cell_angle_gamma 120.000000
_cell_volume 6356.346028
_symmetry_space_group_name_H-M "P -3 M 1"
_symmetry_group_IT_number 164
_symmetry_cell_setting 'hexagonal'
loop_
_space_group_symop_operation_xyz
x,y,z
-y,x-y,z
-x+y,-x,z
x-y,-y,-z
-x,-x+y,-z
y,x,-z
-x,-y,-z
y,-x+y,-z
x-y,x,-z
-x+y,y,z
x,x-y,z
-y,-x,z
loop_
_atom_site_type_symbol
_atom_site_label
_atom_site_fract_x
_atom_site_fract_y
_atom_site_fract_z
Si Si1 0.817895 0.816115 0.351607
Si Si2 0.905896 0.362562 0.984758
Si Si3 0.837904 0.331131 0.099475
Si Si4 0.668170 0.516834 0.381584
Si Si5 0.066039 0.755061 0.548657
Si Si6 0.578248 0.980271 0.813992
Si Si7 0.840547 0.331068 0.872289
Si Si8 0.268429 0.356070 0.716781
O O1 0.923038 0.846076 0.346698
O O2 0.779369 0.767766 0.408377
O O3 0.760418 0.742948 0.305836
O O4 0.806355 0.903178 0.345672
O O5 0.925071 0.462536 0.972110
O O6 0.866066 0.306154 0.930262
O O7 0.841556 0.318794 0.035648
O O8 0.000000 0.368501 0.000000
O O9 0.807971 0.403986 0.110878
O O10 0.762426 0.237575 0.124348
O O11 0.930488 0.359175 0.129762
O O12 0.743225 0.486450 0.382950
O O13 0.569994 0.430007 0.389594
O O14 0.688083 0.589822 0.428044
O O15 0.672901 0.565368 0.325522
O O16 0.153037 0.846964 0.529138
O O17 0.000000 0.703933 0.500000
O O18 0.479642 0.959283 0.794359
O O19 0.626742 0.953852 0.769369
O O20 0.640765 0.084310 0.827030
O O21 0.813427 0.406714 0.881017
O O22 0.756573 0.243428 0.848294
O O23 0.180021 0.360042 0.732182
#
# Coordination Sequence:
#
# PCOD8323395 Si02
#       8
#    12  12  12  12  12  12  12  12
#     4   9  17  29  46  66  88 113 140 172 208 249
#     4   9  15  27  42  57  79 105 134 163 197 243
#     4  10  18  27  41  60  82 107 134 164 198 241
#     4   9  17  29  45  64  86 114 148 183 215 247
#     4   9  17  28  43  65  92 119 145 173 208 251
#     4  10  19  30  44  60  82 110 137 170 211 250
#     4  10  19  30  44  61  81 107 139 173 207 245
#     4   9  18  31  45  63  85 110 142 175 211 254
#
# _framework density 15.103016999999999
#
# number of rings (size 3 to 8) (size 9 to 14) (size 15 to 20)
#    0.000    2.625    1.250    3.500    0.000    0.750 
#    0.000    1.250    0.000    6.000    0.000    0.000 
#    0.000    0.000    0.000   31.000    0.000    2.750 
#
# Total GULP energy -1189857.573065 kJ/mol
# GULP energy per Si atom -12394.349719 kJ/mol
# Density = 1.506864 g / cm^3
# Si number density = 15.103017 Si / 1000 Ang^3
#
#
#
# Elastic Constant Matrix: (Units=GPa)
#
#
# Indices 1 2 3 4 5 6 
#
# 1 93.1800 46.4932 35.7804 1.9715 0.0000 0.0000
# 2 46.4932 93.1800 35.7804 -1.9715 0.0000 0.0000
# 3 35.7804 35.7804 78.7747 0.0000 0.0000 0.0000
# 4 1.9715 -1.9715 0.0000 18.3651 0.0000 0.0000
# 5 0.0000 0.0000 0.0000 0.0000 18.3651 1.9715
# 6 0.0000 0.0000 0.0000 0.0000 1.9715 23.3434
#
#
#
# Elastic Compliance Matrix: (Units=1/GPa)
#
#
# Indices 1 2 3 4 5 6 
#
# 1 0.015473 -0.006142 -0.004238 -0.002320 0.000000 0.000000
# 2 -0.006142 0.015473 -0.004238 0.002320 0.000000 0.000000
# 3 -0.004238 -0.004238 0.016545 0.000000 0.000000 0.000000
# 4 -0.002320 0.002320 0.000000 0.054949 0.000000 0.000000
# 5 0.000000 0.000000 0.000000 0.000000 0.054949 -0.004641
# 6 0.000000 0.000000 0.000000 0.000000 -0.004641 0.043231
#
#
# Mechanical properties :
#
#
# Convention : Reuss Voigt Hill
#
# Bulk Modulus (GPa) = 54.78380 55.69362 55.23871
# Shear Modulus (GPa) = 21.19165 21.82009 21.50587
#
# Velocity S-wave (km/s) = 3.74992 3.80511 3.77761
# Velocity P-wave (km/s) = 7.42303 7.50074 7.46198
#
# Compressibility (1/GPa) = 0.01825357
#
# Stress axis : x y z
#
# Youngs Moduli (GPa) = 64.62801 64.62801 60.44277
#
# Poissons Ratio (x) = 0.39695 0.25617
# Poissons Ratio (y) = 0.39695 0.25617
# Poissons Ratio (z) = 0.27391 0.27391
#
# Static dielectric constant tensor:
#      x y z
#    x 2.778920 0.000000 0.000000 
#    y 0.000000 2.778920 0.000000 
#    z 0.000000 0.000000 2.778440 
# 
# 
# High freq. dielectric constant tensor:
#      x y z
#    x 1.568530 0.000000 0.000000 
#    y 0.000000 1.568530 0.000000 
#    z 0.000000 0.000000 1.571080 
# 
# From -- ./inp_files/5103.got.cif
#   From: 2010.03.12/outbox.cif.g09.slc.cpg/sg164_3_cif.got.tgz:5103.got - 2010.04.02 06:32:59.
