data_PCOD8323715
_publ_section_title
;
Structure prediction by ZEFSAII (Michael W. Deem and Ramdas Pophale) SiO2 
 PCOD8323715
Probable space group: P -3 M 1
;
_chemical_formula_sum "Si O2"
_cell_formula_units_Z 72
_cell_length_a 16.886079
_cell_length_b 16.886079
_cell_length_c 17.942538
_cell_angle_alpha 90.000000
_cell_angle_beta 90.000000
_cell_angle_gamma 120.000000
_cell_volume 4430.697905
_symmetry_space_group_name_H-M "P -3 M 1"
_symmetry_group_IT_number 164
_symmetry_cell_setting 'hexagonal'
loop_
_space_group_symop_operation_xyz
x,y,z
-y,x-y,z
-x+y,-x,z
x-y,-y,-z
-x,-x+y,-z
y,x,-z
-x,-y,-z
y,-x+y,-z
x-y,x,-z
-x+y,y,z
x,x-y,z
-y,-x,z
loop_
_atom_site_type_symbol
_atom_site_label
_atom_site_fract_x
_atom_site_fract_y
_atom_site_fract_z
Si Si1 0.667221 0.151724 0.644487
Si Si2 0.596955 0.587282 0.081567
Si Si3 0.705817 0.759817 0.423751
Si Si4 0.700622 0.761040 0.721202
Si Si5 0.282294 0.898849 0.203223
Si Si6 0.484604 0.152775 0.203269
O O1 0.568293 0.136586 0.623568
O O2 0.740552 0.259449 0.643678
O O3 0.695440 0.099238 0.584164
O O4 0.664468 0.110452 0.725892
O O5 0.501702 0.498299 0.069352
O O6 0.578632 0.655256 0.131056
O O7 0.665617 0.562148 0.124855
O O8 0.633505 0.633505 0.000000
O O9 0.740733 0.740733 0.500000
O O10 0.732235 0.866118 0.416857
O O11 0.757088 0.733890 0.361412
O O12 0.732037 0.866019 0.740834
O O13 0.746067 0.721687 0.778735
O O14 0.589946 0.698316 0.730298
O O15 0.193306 0.806695 0.183334
O O16 0.569578 0.139156 0.224361
O O17 0.519378 0.259689 0.193764
#
# Coordination Sequence:
#
# PCOD8323715 Si02
#       6
#    12  12  12  12  12  12
#     4   9  17  29  46  68  93 121 151 182 215 252
#     4   9  17  28  42  63  92 122 151 186 226 267
#     4  10  20  33  50  70  92 119 148 180 219 264
#     4   9  17  30  48  67  88 114 143 181 227 268
#     4   9  17  29  46  66  87 115 151 188 224 265
#     4   9  17  29  46  67  91 121 155 189 225 266
#
# _framework density 16.250260999999998
#
# number of rings (size 3 to 8) (size 9 to 14) (size 15 to 20)
#    0.000    2.833    0.000    2.833    0.000    5.000 
#    0.000    0.000    0.000    6.667    0.000    2.333 
#    0.000    0.667    0.000    0.000    0.000    0.000 
#
# Total GULP energy -892301.888236 kJ/mol
# GULP energy per Si atom -12393.081781 kJ/mol
# Density = 1.621327 g / cm^3
# Si number density = 16.250261 Si / 1000 Ang^3
#
#
#
# Elastic Constant Matrix: (Units=GPa)
#
#
# Indices 1 2 3 4 5 6 
#
# 1 54.6157 15.9445 10.8338 4.1314 0.0000 0.0000
# 2 15.9445 54.6157 10.8338 -4.1314 0.0000 0.0000
# 3 10.8338 10.8338 71.8584 0.0000 0.0000 0.0000
# 4 4.1314 -4.1314 0.0000 8.6082 0.0000 0.0000
# 5 0.0000 0.0000 0.0000 0.0000 8.6082 4.1314
# 6 0.0000 0.0000 0.0000 0.0000 4.1314 19.3356
#
#
#
# Elastic Compliance Matrix: (Units=1/GPa)
#
#
# Indices 1 2 3 4 5 6 
#
# 1 0.021837 -0.006977 -0.002240 -0.013829 0.000000 0.000000
# 2 -0.006977 0.021837 -0.002240 0.013829 0.000000 0.000000
# 3 -0.002240 -0.002240 0.014592 0.000000 0.000000 0.000000
# 4 -0.013829 0.013829 0.000000 0.129443 0.000000 0.000000
# 5 0.000000 0.000000 0.000000 0.000000 0.129443 -0.027658
# 6 0.000000 0.000000 0.000000 0.000000 -0.027658 0.057628
#
#
# Mechanical properties :
#
#
# Convention : Reuss Voigt Hill
#
# Bulk Modulus (GPa) = 28.28797 28.47930 28.38363
# Shear Modulus (GPa) = 12.21067 16.87557 14.54312
#
# Velocity S-wave (km/s) = 2.74417 3.22604 2.99481
# Velocity P-wave (km/s) = 5.24272 5.60713 5.42798
#
# Compressibility (1/GPa) = 0.03535072
#
# Stress axis : x y z
#
# Youngs Moduli (GPa) = 45.79364 45.79364 68.53155
#
# Poissons Ratio (x) = 0.31949 0.15354
# Poissons Ratio (y) = 0.31949 0.15354
# Poissons Ratio (z) = 0.10260 0.10260
#
# Static dielectric constant tensor:
#      x y z
#    x 3.093640 0.000000 0.000000 
#    y 0.000000 3.093640 0.000000 
#    z 0.000000 0.000000 3.098050 
# 
# 
# High freq. dielectric constant tensor:
#      x y z
#    x 1.621420 0.000000 0.000000 
#    y 0.000000 1.621420 0.000000 
#    z 0.000000 0.000000 1.611500 
# 
# From -- ./inp_files/4082.got.cif
#   From: 2010.03.12/outbox.cif.g09.slc.cpg/sg164_3_cif.got.tgz:4082.got - 2010.04.02 06:32:59.
