data_PCOD8323404
_publ_section_title
;
Structure prediction by ZEFSAII (Michael W. Deem and Ramdas Pophale) SiO2 
 PCOD8323404
Probable space group: P -3 M 1
;
_chemical_formula_sum "Si O2"
_cell_formula_units_Z 84
_cell_length_a 20.868701
_cell_length_b 20.868701
_cell_length_c 13.088328
_cell_angle_alpha 90.000000
_cell_angle_beta 90.000000
_cell_angle_gamma 120.000000
_cell_volume 4936.346481
_symmetry_space_group_name_H-M "P -3 M 1"
_symmetry_group_IT_number 164
_symmetry_cell_setting 'hexagonal'
loop_
_space_group_symop_operation_xyz
x,y,z
-y,x-y,z
-x+y,-x,z
x-y,-y,-z
-x,-x+y,-z
y,x,-z
-x,-y,-z
y,-x+y,-z
x-y,x,-z
-x+y,y,z
x,x-y,z
-y,-x,z
loop_
_atom_site_type_symbol
_atom_site_label
_atom_site_fract_x
_atom_site_fract_y
_atom_site_fract_z
Si Si1 0.553887 0.960789 0.602550
Si Si2 0.666308 0.189897 0.498274
Si Si3 0.520582 0.187527 0.726603
Si Si4 0.778634 0.076057 0.045002
Si Si5 0.048005 0.393685 0.813251
Si Si6 0.663792 0.479024 0.090583
Si Si7 0.102349 0.672581 0.091615
O O1 0.492969 0.985937 0.626587
O O2 0.513811 0.873357 0.585454
O O3 0.610598 0.979688 0.696834
O O4 0.598832 0.000000 0.500000
O O5 0.612016 0.224032 0.498963
O O6 0.747597 0.252404 0.466105
O O7 0.664235 0.157705 0.611783
O O8 0.586979 0.173957 0.761042
O O9 0.549862 0.274931 0.730550
O O10 0.449912 0.143504 0.799596
O O11 0.865068 0.134933 0.061371
O O12 0.735605 0.062216 0.154062
O O13 0.744471 0.108729 0.963385
O O14 0.770329 0.000000 0.000000
O O15 0.123393 0.471474 0.825568
O O16 0.984019 0.388158 0.889722
O O17 0.746932 0.493863 0.094535
O O18 0.606915 0.393086 0.113481
O O19 0.643306 0.498716 0.980409
#
# Coordination Sequence:
#
# PCOD8323404 Si02
#       7
#    12  12  12  12  12  12  12
#     4  10  20  33  47  64  88 116 151 198 247 287
#     4   9  18  30  44  61  81 110 147 188 233 281
#     4  10  18  28  42  61  87 117 151 191 236 282
#     4   9  18  33  52  75 101 128 156 183 218 266
#     4  10  20  33  50  68  87 117 155 195 233 273
#     4  11  22  34  47  65  91 120 151 186 227 275
#     4  10  19  30  47  68  90 118 151 189 226 270
#
# _framework density 17.016634
#
# number of rings (size 3 to 8) (size 9 to 14) (size 15 to 20)
#    0.000    2.143    0.000    6.000    0.000    6.286 
#    0.000    1.429    0.000    1.857    0.000    0.000 
#    0.000    0.000    0.000    0.000    0.000    0.714 
#
# Total GULP energy -1041208.221357 kJ/mol
# GULP energy per Si atom -12395.335969 kJ/mol
# Density = 1.697790 g / cm^3
# Si number density = 17.016634 Si / 1000 Ang^3
#
#
#
# Elastic Constant Matrix: (Units=GPa)
#
#
# Indices 1 2 3 4 5 6 
#
# 1 68.1467 28.2090 27.8943 -0.8895 0.0000 0.0000
# 2 28.2090 68.1467 27.8943 0.8895 0.0000 0.0000
# 3 27.8943 27.8943 88.2085 0.0000 0.0000 0.0000
# 4 -0.8895 0.8895 0.0000 17.9147 0.0000 0.0000
# 5 0.0000 0.0000 0.0000 0.0000 17.9147 -0.8895
# 6 0.0000 0.0000 0.0000 0.0000 -0.8895 19.9689
#
#
#
# Elastic Compliance Matrix: (Units=1/GPa)
#
#
# Indices 1 2 3 4 5 6 
#
# 1 0.018899 -0.006195 -0.004017 0.001246 0.000000 0.000000
# 2 -0.006195 0.018899 -0.004017 -0.001246 0.000000 0.000000
# 3 -0.004017 -0.004017 0.013878 0.000000 0.000000 0.000000
# 4 0.001246 -0.001246 0.000000 0.055944 0.000000 0.000000
# 5 0.000000 0.000000 0.000000 0.000000 0.055944 0.002492
# 6 0.000000 0.000000 0.000000 0.000000 0.002492 0.050189
#
#
# Mechanical properties :
#
#
# Convention : Reuss Voigt Hill
#
# Bulk Modulus (GPa) = 43.07322 43.61079 43.34200
# Shear Modulus (GPa) = 20.00382 20.52659 20.26520
#
# Velocity S-wave (km/s) = 3.43234 3.47690 3.45469
# Velocity P-wave (km/s) = 6.40900 6.46548 6.43730
#
# Compressibility (1/GPa) = 0.02321628
#
# Stress axis : x y z
#
# Youngs Moduli (GPa) = 52.91176 52.91176 72.05814
#
# Poissons Ratio (x) = 0.32779 0.28949
# Poissons Ratio (y) = 0.32779 0.28949
# Poissons Ratio (z) = 0.21257 0.21257
#
# Static dielectric constant tensor:
#      x y z
#    x 3.019710 0.000000 0.000000 
#    y 0.000000 3.019710 0.000000 
#    z 0.000000 0.000000 3.208680 
# 
# 
# High freq. dielectric constant tensor:
#      x y z
#    x 1.633750 0.000000 0.000000 
#    y 0.000000 1.633750 0.000000 
#    z 0.000000 0.000000 1.657260 
# 
# From -- ./inp_files/2888.got.cif
#   From: 2010.03.12/outbox.cif.g09.slc.cpg/sg164_2_cif.got.tgz:2888.got - 2010.04.02 06:32:59.
