data_PCOD8323695
_publ_section_title
;
Structure prediction by ZEFSAII (Michael W. Deem and Ramdas Pophale) SiO2 
 PCOD8323695
Probable space group: P -3 M 1
;
_chemical_formula_sum "Si O2"
_cell_formula_units_Z 66
_cell_length_a 12.500482
_cell_length_b 12.500482
_cell_length_c 27.953122
_cell_angle_alpha 90.000000
_cell_angle_beta 90.000000
_cell_angle_gamma 120.000000
_cell_volume 3782.809490
_symmetry_space_group_name_H-M "P -3 M 1"
_symmetry_group_IT_number 164
_symmetry_cell_setting 'hexagonal'
loop_
_space_group_symop_operation_xyz
x,y,z
-y,x-y,z
-x+y,-x,z
x-y,-y,-z
-x,-x+y,-z
y,x,-z
-x,-y,-z
y,-x+y,-z
x-y,x,-z
-x+y,y,z
x,x-y,z
-y,-x,z
loop_
_atom_site_type_symbol
_atom_site_label
_atom_site_fract_x
_atom_site_fract_y
_atom_site_fract_z
Si Si1 0.333674 0.914322 0.859922
Si Si2 0.249200 0.999893 0.319275
Si Si3 0.754681 0.754821 0.945955
Si Si4 0.251369 0.000000 0.500000
Si Si5 0.415999 0.331806 0.409757
Si Si6 0.417997 0.333484 0.770622
O O1 0.438564 0.877127 0.862106
O O2 0.206241 0.793760 0.846201
O O3 0.327634 0.968527 0.911294
O O4 0.362166 0.017906 0.820617
O O5 0.219272 0.109636 0.315044
O O6 0.345918 0.023445 0.360852
O O7 0.307584 0.989842 0.269851
O O8 0.123515 0.876486 0.331719
O O9 0.798710 0.899355 0.941122
O O10 0.868636 0.737271 0.931263
O O11 0.709534 0.709534 0.000000
O O12 0.234481 0.117241 0.505265
O O13 0.329403 0.007471 0.453591
O O14 0.453724 0.226862 0.412893
O O15 0.537213 0.462788 0.411921
O O16 0.449245 0.224623 0.774766
O O17 0.542244 0.457757 0.757173
#
# Coordination Sequence:
#
# PCOD8323695 Si02
#       6
#    12  12  12   6  12  12
#     4  10  20  33  49  69  95 127 162 199 239 285
#     4  10  20  34  53  76 102 131 163 201 244 290
#     4   9  17  30  49  72  96 122 154 194 240 288
#     4  10  20  34  54  78 104 134 168 208 252 298
#     4  10  20  34  52  74 101 133 168 205 245 290
#     4  10  20  34  52  73  98 128 162 201 244 290
#
# _framework density 17.447348000000002
#
# number of rings (size 3 to 8) (size 9 to 14) (size 15 to 20)
#    0.000    2.182    0.000    3.455    0.000    1.091 
#    0.000    1.818    0.000   17.091    0.000    0.000 
#    0.000    0.000    0.000    0.000    0.000    0.000 
#
# Total GULP energy -818643.827872 kJ/mol
# GULP energy per Si atom -12403.694362 kJ/mol
# Density = 1.740764 g / cm^3
# Si number density = 17.447348 Si / 1000 Ang^3
#
#
#
# Elastic Constant Matrix: (Units=GPa)
#
#
# Indices 1 2 3 4 5 6 
#
# 1 89.9635 44.5166 40.6270 -1.9027 0.0000 0.0000
# 2 44.5166 89.9635 40.6270 1.9027 0.0000 0.0000
# 3 40.6270 40.6270 95.8573 0.0000 0.0000 0.0000
# 4 -1.9027 1.9027 0.0000 26.0517 0.0000 0.0000
# 5 0.0000 0.0000 0.0000 0.0000 26.0517 -1.9027
# 6 0.0000 0.0000 0.0000 0.0000 -1.9027 22.7234
#
#
#
# Elastic Compliance Matrix: (Units=1/GPa)
#
#
# Indices 1 2 3 4 5 6 
#
# 1 0.016067 -0.006072 -0.004236 0.001617 0.000000 0.000000
# 2 -0.006072 0.016067 -0.004236 -0.001617 0.000000 0.000000
# 3 -0.004236 -0.004236 0.014023 0.000000 0.000000 0.000000
# 4 0.001617 -0.001617 0.000000 0.038621 0.000000 0.000000
# 5 0.000000 0.000000 0.000000 0.000000 0.038621 0.003234
# 6 0.000000 0.000000 0.000000 0.000000 0.003234 0.044278
#
#
# Mechanical properties :
#
#
# Convention : Reuss Voigt Hill
#
# Bulk Modulus (GPa) = 58.58628 58.59173 58.58901
# Shear Modulus (GPa) = 24.69649 24.96629 24.83139
#
# Velocity S-wave (km/s) = 3.76638 3.78689 3.77665
# Velocity P-wave (km/s) = 7.25024 7.26469 7.25747
#
# Compressibility (1/GPa) = 0.01706884
#
# Stress axis : x y z
#
# Youngs Moduli (GPa) = 62.23772 62.23772 71.31010
#
# Poissons Ratio (x) = 0.37789 0.30210
# Poissons Ratio (y) = 0.37789 0.30210
# Poissons Ratio (z) = 0.26367 0.26367
#
# Static dielectric constant tensor:
#      x y z
#    x 3.208910 0.000000 0.000000 
#    y 0.000000 3.208910 0.000000 
#    z 0.000000 0.000000 3.402650 
# 
# 
# High freq. dielectric constant tensor:
#      x y z
#    x 1.677860 0.000000 0.000000 
#    y 0.000000 1.677860 0.000000 
#    z 0.000000 0.000000 1.687790 
# 
# From -- ./inp_files/5428.got.cif
#   From: 2010.03.12/outbox.cif.g09.slc.cpg/sg164_3_cif.got.tgz:5428.got - 2010.04.02 06:32:59.
