data_PCOD8323231
_publ_section_title
;
Structure prediction by ZEFSAII (Michael W. Deem and Ramdas Pophale) SiO2 
 PCOD8323231
Probable space group: P -3 1 C
;
_chemical_formula_sum "Si O2"
_cell_formula_units_Z 58
_cell_length_a 15.560495
_cell_length_b 15.560495
_cell_length_c 20.367365
_cell_angle_alpha 90.000000
_cell_angle_beta 90.000000
_cell_angle_gamma 120.000000
_cell_volume 4270.830099
_symmetry_space_group_name_H-M "P -3 1 C"
_symmetry_group_IT_number 163
_symmetry_cell_setting 'hexagonal'
loop_
_space_group_symop_operation_xyz
x,y,z
-y,x-y,z
-x+y,-x,z
-y,-x,1/2-z
-x+y,y,1/2-z
x,x-y,1/2-z
-x,-y,-z
y,-x+y,-z
x-y,x,-z
y,x,1/2+z
x-y,-y,1/2+z
-x,-x+y,1/2+z
loop_
_atom_site_type_symbol
_atom_site_label
_atom_site_fract_x
_atom_site_fract_y
_atom_site_fract_z
Si Si1 0.136443 0.568394 0.093617
Si Si2 0.396759 0.603242 0.750000
Si Si3 0.085295 0.542520 0.882364
Si Si4 0.888968 0.303418 0.011727
Si Si5 0.666668 0.333334 0.827510
Si Si6 0.414423 0.303471 0.012371
O O1 0.220740 0.610270 0.148063
O O2 0.031756 0.506784 0.130477
O O3 0.138987 0.658124 0.053383
O O4 0.152053 0.497404 0.044017
O O5 0.446338 0.723169 0.750000
O O6 0.430509 0.569162 0.813394
O O7 0.123557 0.641378 0.925513
O O8 0.108001 0.465012 0.919607
O O9 0.814330 0.185686 0.019283
O O10 0.001532 0.324640 0.005985
O O11 0.666668 0.333334 0.750000
#
# Coordination Sequence:
#
# PCOD8323231 Si02
#       6
#    12   6  12  12   4  12
#     4   9  18  30  42  61  84 113 137 179 200 248
#     4  10  20  28  40  62  84 112 140 166 214 242
#     4   9  18  29  42  60  86 112 138 171 214 243
#     4   9  16  28  46  62  80 108 143 175 211 243
#     4  12  21  27  42  66  87 115 149 154 222 240
#     4   9  16  28  46  62  80 108 143 175 211 243
#
# _framework density 13.580498
#
# number of rings (size 3 to 8) (size 9 to 14) (size 15 to 20)
#    0.207    2.483    2.069    3.724    1.448    0.000 
#    1.241    0.000    0.000    0.414    0.000    0.000 
#    0.000    0.000    0.000    0.000    0.000   29.379 
#
# Total GULP energy -718965.106478 kJ/mol
# GULP energy per Si atom -12395.950112 kJ/mol
# Density = 1.354959 g / cm^3
# Si number density = 13.580498 Si / 1000 Ang^3
#
#
#
# Elastic Constant Matrix: (Units=GPa)
#
#
# Indices 1 2 3 4 5 6 
#
# 1 79.5227 33.9510 30.5997 0.0001 -0.0425 0.0001
# 2 33.9510 79.5227 30.5996 0.0001 0.0427 0.0000
# 3 30.5997 30.5996 99.1653 0.0000 0.0000 0.0001
# 4 0.0001 0.0001 0.0000 18.7804 0.0000 0.0426
# 5 -0.0425 0.0427 0.0000 0.0000 18.7804 0.0000
# 6 0.0001 0.0000 0.0001 0.0426 0.0000 22.7858
#
#
#
# Elastic Compliance Matrix: (Units=1/GPa)
#
#
# Indices 1 2 3 4 5 6 
#
# 1 0.016258 -0.005686 -0.003262 0.000000 0.000050 0.000000
# 2 -0.005686 0.016258 -0.003262 0.000000 -0.000050 0.000000
# 3 -0.003262 -0.003262 0.012097 0.000000 0.000000 0.000000
# 4 0.000000 0.000000 0.000000 0.053247 0.000000 -0.000100
# 5 0.000050 -0.000050 0.000000 0.000000 0.053247 0.000000
# 6 0.000000 0.000000 0.000000 -0.000100 0.000000 0.043887
#
#
# Mechanical properties :
#
#
# Convention : Reuss Voigt Hill
#
# Bulk Modulus (GPa) = 49.52321 49.83460 49.67891
# Shear Modulus (GPa) = 22.10961 22.94000 22.52481
#
# Velocity S-wave (km/s) = 4.03928 4.11443 4.07703
# Velocity P-wave (km/s) = 7.63544 7.70368 7.66964
#
# Compressibility (1/GPa) = 0.02019255
#
# Stress axis : x y z
#
# Youngs Moduli (GPa) = 61.50894 61.50897 82.66205
#
# Poissons Ratio (x) = 0.34973 0.26966
# Poissons Ratio (y) = 0.34973 0.26966
# Poissons Ratio (z) = 0.20066 0.20066
#
# Static dielectric constant tensor:
#      x y z
#    x 2.615280 0.000000 0.000000 
#    y 0.000000 2.615280 0.000000 
#    z 0.000000 0.000000 2.535850 
# 
# 
# High freq. dielectric constant tensor:
#      x y z
#    x 1.505820 0.000000 0.000000 
#    y 0.000000 1.505820 0.000000 
#    z 0.000000 0.000000 1.509980 
# 
# From -- ./inp_files/3578.got.cif
#   From: 2010.03.12/outbox.cif.g09.slc.cpg/sg163_2_cif.got.tgz:3578.got - 2010.04.02 06:30:25.
