data_PCOD8323783
_publ_section_title
;
Structure prediction by ZEFSAII (Michael W. Deem and Ramdas Pophale) SiO2 
 PCOD8323783
Probable space group: P -3 M 1
;
_chemical_formula_sum "Si O2"
_cell_formula_units_Z 84
_cell_length_a 21.247151
_cell_length_b 21.247151
_cell_length_c 10.761564
_cell_angle_alpha 90.000000
_cell_angle_beta 90.000000
_cell_angle_gamma 120.000000
_cell_volume 4207.338295
_symmetry_space_group_name_H-M "P -3 M 1"
_symmetry_group_IT_number 164
_symmetry_cell_setting 'hexagonal'
loop_
_space_group_symop_operation_xyz
x,y,z
-y,x-y,z
-x+y,-x,z
x-y,-y,-z
-x,-x+y,-z
y,x,-z
-x,-y,-z
y,-x+y,-z
x-y,x,-z
-x+y,y,z
x,x-y,z
-y,-x,z
loop_
_atom_site_type_symbol
_atom_site_label
_atom_site_fract_x
_atom_site_fract_y
_atom_site_fract_z
Si Si1 0.365708 0.318012 0.753027
Si Si2 0.763735 0.807409 0.124874
Si Si3 0.466887 0.076094 0.357997
Si Si4 0.526638 0.191445 0.154383
Si Si5 0.368135 0.257672 0.498806
Si Si6 0.218239 0.036768 0.375097
Si Si7 0.613324 0.080162 0.950657
O O1 0.305407 0.273198 0.858389
O O2 0.377569 0.396670 0.717544
O O3 0.345341 0.260435 0.640494
O O4 0.440950 0.340106 0.823560
O O5 0.745595 0.872798 0.111477
O O6 0.807641 0.819064 0.253725
O O7 0.806416 0.806416 0.000000
O O8 0.523690 0.047379 0.391559
O O9 0.511109 0.149424 0.282611
O O10 0.436977 0.098361 0.478841
O O11 0.610688 0.221376 0.117359
O O12 0.509183 0.254592 0.173322
O O13 0.472865 0.138056 0.050949
O O14 0.387851 0.193926 0.484465
O O15 0.303002 0.244169 0.402797
O O16 0.217624 0.108812 0.347517
O O17 0.172675 0.000000 0.500000
O O18 0.543197 0.086394 0.923818
O O19 0.590445 0.000000 0.000000
#
# Coordination Sequence:
#
# PCOD8323783 Si02
#       7
#    12  12  12  12  12  12  12
#     4  12  22  38  59  93 126 164 208 260 323 382
#     4  12  26  44  65  96 134 175 216 265 321 384
#     4  11  22  38  61  90 127 163 205 264 326 380
#     4  10  21  37  59  86 119 164 213 263 318 383
#     4  11  23  39  61  91 127 164 213 264 314 385
#     4  11  21  41  68  95 129 169 213 269 324 380
#     4  10  20  37  58  83 120 160 203 257 317 378
#
# _framework density 19.965116999999999
#
# number of rings (size 3 to 8) (size 9 to 14) (size 15 to 20)
#    0.000    1.000    4.286    3.143    0.000    2.857 
#    0.000    0.000    0.000    6.000    0.000    1.000 
#    0.000    0.000    0.000    0.000    0.000    0.000 
#
# Total GULP energy -1040682.779728 kJ/mol
# GULP energy per Si atom -12389.080711 kJ/mol
# Density = 1.991968 g / cm^3
# Si number density = 19.965117 Si / 1000 Ang^3
#
#
#
# Elastic Constant Matrix: (Units=GPa)
#
#
# Indices 1 2 3 4 5 6 
#
# 1 77.0723 46.3600 25.8002 1.9114 0.0000 0.0000
# 2 46.3600 77.0723 25.8002 -1.9114 0.0000 0.0000
# 3 25.8002 25.8002 108.8246 0.0000 0.0000 0.0000
# 4 1.9114 -1.9114 0.0000 30.5739 0.0000 0.0000
# 5 0.0000 0.0000 0.0000 0.0000 30.5739 1.9114
# 6 0.0000 0.0000 0.0000 0.0000 1.9114 15.3562
#
#
#
# Elastic Compliance Matrix: (Units=1/GPa)
#
#
# Indices 1 2 3 4 5 6 
#
# 1 0.020904 -0.011911 -0.002132 -0.002052 0.000000 0.000000
# 2 -0.011911 0.020904 -0.002132 0.002052 0.000000 0.000000
# 3 -0.002132 -0.002132 0.010200 0.000000 0.000000 0.000000
# 4 -0.002052 0.002052 0.000000 0.032964 0.000000 0.000000
# 5 0.000000 0.000000 0.000000 0.000000 0.032964 -0.004103
# 6 0.000000 0.000000 0.000000 0.000000 -0.004103 0.065631
#
#
# Mechanical properties :
#
#
# Convention : Reuss Voigt Hill
#
# Bulk Modulus (GPa) = 50.87077 50.98780 50.92928
# Shear Modulus (GPa) = 22.47482 26.30140 24.38811
#
# Velocity S-wave (km/s) = 3.35879 3.63349 3.49884
# Velocity P-wave (km/s) = 6.37002 6.57244 6.47202
#
# Compressibility (1/GPa) = 0.01965765
#
# Stress axis : x y z
#
# Youngs Moduli (GPa) = 47.83722 47.83722 98.03890
#
# Poissons Ratio (x) = 0.56980 0.20902
# Poissons Ratio (y) = 0.56980 0.20902
# Poissons Ratio (z) = 0.10199 0.10199
#
# Static dielectric constant tensor:
#      x y z
#    x 3.707990 0.000000 0.000000 
#    y 0.000000 3.707990 0.000000 
#    z 0.000000 0.000000 3.755890 
# 
# 
# High freq. dielectric constant tensor:
#      x y z
#    x 1.771560 0.000000 0.000000 
#    y 0.000000 1.771560 0.000000 
#    z 0.000000 0.000000 1.783960 
# 
# From -- ./inp_files/2877.got.cif
#   From: 2010.03.12/outbox.cif.g09.slc.cpg/sg164_2_cif.got.tgz:2877.got - 2010.04.02 06:32:59.
