data_PCOD8323081
_publ_section_title
;
Structure prediction by ZEFSAII (Michael W. Deem and Ramdas Pophale) SiO2 
 PCOD8323081
Probable space group: P -3 1 M 
;
_chemical_formula_sum "Si O2"
_cell_formula_units_Z 48
_cell_length_a 18.520702
_cell_length_b 18.520702
_cell_length_c 8.655694
_cell_angle_alpha 90.000000
_cell_angle_beta 90.000000
_cell_angle_gamma 120.000000
_cell_volume 2571.268410
_symmetry_space_group_name_H-M "P -3 1 M "
_symmetry_group_IT_number 162
_symmetry_cell_setting 'hexagonal'
loop_
_space_group_symop_operation_xyz
x,y,z
-y,x-y,z
-x+y,-x,z
-y,-x,-z
-x+y,y,-z
x,x-y,-z
-x,-y,-z
y,-x+y,-z
x-y,x,-z
y,x,z
x-y,-y,z
-x,-x+y,z
loop_
_atom_site_type_symbol
_atom_site_label
_atom_site_fract_x
_atom_site_fract_y
_atom_site_fract_z
Si Si1 0.490432 0.664698 0.434862
Si Si2 0.241824 0.335941 0.426229
Si Si3 0.482091 0.096407 0.110900
Si Si4 0.759325 0.665040 0.926860
O O1 0.424110 0.575891 0.500000
O O2 0.470317 0.735159 0.500000
O O3 0.581824 0.687297 0.490335
O O4 0.489019 0.652651 0.249850
O O5 0.151490 0.302979 0.500000
O O6 0.262431 0.262431 0.447075
O O7 0.240008 0.360025 0.249679
O O8 0.441695 0.000000 0.168840
O O9 0.560304 0.120608 0.000000
O O10 0.416745 0.108744 0.012606
O O11 0.739537 0.739537 0.941638
O O12 0.849879 0.699757 0.000000
#
# Coordination Sequence:
#
# PCOD8323081 Si02
#       4
#    12  12  12  12
#     4  11  22  36  54  77 109 147 187 227 273 322
#     4  10  21  36  57  83 109 140 178 222 271 324
#     4  10  21  36  55  80 108 140 182 231 278 326
#     4  10  20  35  55  80 109 141 178 218 265 319
#
# _framework density 18.667828
#
# number of rings (size 3 to 8) (size 9 to 14) (size 15 to 20)
#    0.000    1.750    0.000    5.500    0.000    7.000 
#    0.000    0.000    0.000    1.000    0.000    0.000 
#    0.000    0.000    0.000    0.000    0.000    0.000 
#
# Total GULP energy -595170.856773 kJ/mol
# GULP energy per Si atom -12399.392849 kJ/mol
# Density = 1.862534 g / cm^3
# Si number density = 18.667828 Si / 1000 Ang^3
#
#
#
# Elastic Constant Matrix: (Units=GPa)
#
#
# Indices 1 2 3 4 5 6 
#
# 1 92.6831 54.5803 61.1252 -0.0004 2.0632 0.0000
# 2 54.5803 92.6831 61.1252 0.0004 -2.0632 0.0000
# 3 61.1252 61.1252 154.5553 0.0000 0.0000 0.0000
# 4 -0.0004 0.0004 0.0000 34.2121 0.0000 -2.0632
# 5 2.0632 -2.0632 0.0000 0.0000 34.2121 -0.0004
# 6 0.0000 0.0000 0.0000 -2.0632 -0.0004 19.0514
#
#
#
# Elastic Compliance Matrix: (Units=1/GPa)
#
#
# Indices 1 2 3 4 5 6 
#
# 1 0.018264 -0.008154 -0.003998 0.000000 -0.001593 0.000000
# 2 -0.008154 0.018264 -0.003998 0.000000 0.001593 0.000000
# 3 -0.003998 -0.003998 0.009633 0.000000 0.000000 0.000000
# 4 0.000000 0.000000 0.000000 0.029422 0.000000 0.003186
# 5 -0.001593 0.001593 0.000000 0.000000 0.029422 0.000001
# 6 0.000000 0.000000 0.000000 0.003186 0.000001 0.052835
#
#
# Mechanical properties :
#
#
# Convention : Reuss Voigt Hill
#
# Bulk Modulus (GPa) = 72.15525 77.06479 74.61002
# Shear Modulus (GPa) = 25.67287 28.36783 27.02035
#
# Velocity S-wave (km/s) = 3.71245 3.90245 3.80864
# Velocity P-wave (km/s) = 7.55728 7.85348 7.70681
#
# Compressibility (1/GPa) = 0.01385901
#
# Stress axis : x y z
#
# Youngs Moduli (GPa) = 54.75389 54.75389 103.81231
#
# Poissons Ratio (x) = 0.44645 0.41507
# Poissons Ratio (y) = 0.44645 0.41507
# Poissons Ratio (z) = 0.21892 0.21892
#
# Static dielectric constant tensor:
#      x y z
#    x 3.533000 0.000000 0.000000 
#    y 0.000000 3.533000 0.000000 
#    z 0.000000 0.000000 3.634080 
# 
# 
# High freq. dielectric constant tensor:
#      x y z
#    x 1.716800 0.000000 0.000000 
#    y 0.000000 1.716800 0.000000 
#    z 0.000000 0.000000 1.743440 
# 
# From -- ./inp_files/1173.got.cif
#   From: 2010.03.12/outbox.cif.g09.slc.cpg/sg162_1_cif.got.tgz:1173.got - 2010.04.02 06:27:41.
