data_PCOD8323955
_publ_section_title
;
Structure prediction by ZEFSAII (Michael W. Deem and Ramdas Pophale) SiO2 
 PCOD8323955
Probable space group: P -3 C 1
;
_chemical_formula_sum "Si O2"
_cell_formula_units_Z 48
_cell_length_a 16.515757
_cell_length_b 16.515757
_cell_length_c 9.195029
_cell_angle_alpha 90.000000
_cell_angle_beta 90.000000
_cell_angle_gamma 120.000000
_cell_volume 2172.104442
_symmetry_space_group_name_H-M "P -3 C 1"
_symmetry_group_IT_number 165
_symmetry_cell_setting 'hexagonal'
loop_
_space_group_symop_operation_xyz
x,y,z
-y,x-y,z
-x+y,-x,z
x-y,-y,1/2-z
-x,-x+y,1/2-z
y,x,1/2-z
-x,-y,-z
y,-x+y,-z
x-y,x,-z
-x+y,y,1/2+z
x,x-y,1/2+z
-y,-x,1/2+z
loop_
_atom_site_type_symbol
_atom_site_label
_atom_site_fract_x
_atom_site_fract_y
_atom_site_fract_z
Si Si1 0.501665 0.065967 0.371517
Si Si2 0.028807 0.178777 0.081339
Si Si3 0.614965 0.850409 0.518506
Si Si4 0.413285 0.305891 0.284666
O O1 0.470407 0.138890 0.420304
O O2 0.605877 0.122952 0.303667
O O3 0.429279 0.000000 0.250000
O O4 0.500000 0.000000 0.500000
O O5 0.057931 0.286927 0.060231
O O6 0.000000 0.147253 0.250000
O O7 0.117588 0.169768 0.033359
O O8 0.596700 0.834064 0.346633
O O9 0.612880 0.756974 0.571868
O O10 0.340415 0.340415 0.250000
#
# Coordination Sequence:
#
# PCOD8323955 Si02
#       4
#    12  12  12  12
#     4  11  23  45  73 102 145 185 234 297 360 423
#     4  12  26  45  70 103 144 190 245 303 364 425
#     4  12  25  44  75 104 141 189 237 296 357 440
#     4  11  25  45  70 109 146 184 242 295 359 431
#
# _framework density 22.098385
#
# number of rings (size 3 to 8) (size 9 to 14) (size 15 to 20)
#    0.000    0.500    5.000    4.750    3.500    0.000 
#    1.500    0.000    0.000    0.000    0.000    0.000 
#    0.000    0.000    0.000    0.000    0.000    0.000 
#
# Total GULP energy -595131.803043 kJ/mol
# GULP energy per Si atom -12398.579230 kJ/mol
# Density = 2.204809 g / cm^3
# Si number density = 22.098385 Si / 1000 Ang^3
#
#
#
# Elastic Constant Matrix: (Units=GPa)
#
#
# Indices 1 2 3 4 5 6 
#
# 1 106.8513 58.1876 36.7889 -0.5377 0.0000 0.0000
# 2 58.1876 106.8513 36.7889 0.5377 0.0000 0.0000
# 3 36.7889 36.7889 109.6554 0.0000 0.0000 0.0000
# 4 -0.5377 0.5377 0.0000 45.1762 0.0000 0.0000
# 5 0.0000 0.0000 0.0000 0.0000 45.1762 -0.5377
# 6 0.0000 0.0000 0.0000 0.0000 -0.5377 24.3318
#
#
#
# Elastic Compliance Matrix: (Units=1/GPa)
#
#
# Indices 1 2 3 4 5 6 
#
# 1 0.013840 -0.006715 -0.002390 0.000245 0.000000 0.000000
# 2 -0.006715 0.013840 -0.002390 -0.000245 0.000000 0.000000
# 3 -0.002390 -0.002390 0.010723 0.000000 0.000000 0.000000
# 4 0.000245 -0.000245 0.000000 0.022141 0.000000 0.000000
# 5 0.000000 0.000000 0.000000 0.000000 0.022141 0.000489
# 6 0.000000 0.000000 0.000000 0.000000 0.000489 0.041109
#
#
# Mechanical properties :
#
#
# Convention : Reuss Voigt Hill
#
# Bulk Modulus (GPa) = 64.88591 65.20985 65.04788
# Shear Modulus (GPa) = 32.91134 35.70966 34.31050
#
# Velocity S-wave (km/s) = 3.86334 4.02424 3.94461
# Velocity P-wave (km/s) = 7.02329 7.15301 7.08845
#
# Compressibility (1/GPa) = 0.01541167
#
# Stress axis : x y z
#
# Youngs Moduli (GPa) = 72.25572 72.25572 93.25411
#
# Poissons Ratio (x) = 0.48519 0.22291
# Poissons Ratio (y) = 0.48519 0.22291
# Poissons Ratio (z) = 0.17272 0.17272
#
# Static dielectric constant tensor:
#      x y z
#    x 4.004570 0.000000 0.000000 
#    y 0.000000 4.004570 0.000000 
#    z 0.000000 0.000000 4.702650 
# 
# 
# High freq. dielectric constant tensor:
#      x y z
#    x 1.862840 0.000000 0.000000 
#    y 0.000000 1.862840 0.000000 
#    z 0.000000 0.000000 1.891850 
# 
# From -- ./inp_files/492.got.cif
#   From: 2010.03.12/outbox.cif.g09.slc.cpg/sg165_1_cif.got.tgz:492.got - 2010.04.02 06:36:38.
