data_PCOD8323481
_publ_section_title
;
Structure prediction by ZEFSAII (Michael W. Deem and Ramdas Pophale) SiO2 
 PCOD8323481
Probable space group: P -3 M 1
;
_chemical_formula_sum "Si O2"
_cell_formula_units_Z 60
_cell_length_a 28.375789
_cell_length_b 28.375789
_cell_length_c 5.134579
_cell_angle_alpha 90.000000
_cell_angle_beta 90.000000
_cell_angle_gamma 120.000000
_cell_volume 3580.398480
_symmetry_space_group_name_H-M "P -3 M 1"
_symmetry_group_IT_number 164
_symmetry_cell_setting 'hexagonal'
loop_
_space_group_symop_operation_xyz
x,y,z
-y,x-y,z
-x+y,-x,z
x-y,-y,-z
-x,-x+y,-z
y,x,-z
-x,-y,-z
y,-x+y,-z
x-y,x,-z
-x+y,y,z
x,x-y,z
-y,-x,z
loop_
_atom_site_type_symbol
_atom_site_label
_atom_site_fract_x
_atom_site_fract_y
_atom_site_fract_z
Si Si1 0.141648 0.173887 0.265636
Si Si2 0.286972 0.090401 0.540252
Si Si3 0.422180 0.064744 0.998140
Si Si4 0.645628 0.768018 0.946655
Si Si5 0.936213 0.416252 0.496599
O O1 0.131259 0.131259 0.500000
O O2 0.088357 0.176714 0.203425
O O3 0.192470 0.231296 0.363253
O O4 0.157637 0.157637 0.000000
O O5 0.270809 0.135405 0.475414
O O6 0.311223 0.082299 0.270495
O O7 0.330943 0.108148 0.765406
O O8 0.401457 0.107171 0.055204
O O9 0.467522 0.079579 0.216877
O O10 0.453351 0.081767 0.723423
O O11 0.375027 0.000000 0.000000
O O12 0.626881 0.813441 0.886925
O O13 0.909055 0.454528 0.532302
O O14 0.000000 0.454708 0.500000
#
# Coordination Sequence:
#
# PCOD8323481 Si02
#       5
#    12  12  12  12  12
#     4  11  22  37  56  75  93 115 147 187 233 286
#     4   9  19  33  48  66  89 120 154 183 220 273
#     4  10  19  29  44  67  92 124 165 199 231 278
#     4  10  19  32  47  67  99 132 159 193 239 285
#     4   9  17  30  46  64  89 121 157 198 238 270
#
# _framework density 16.757911
#
# number of rings (size 3 to 8) (size 9 to 14) (size 15 to 20)
#    0.000    2.200    0.000    3.600    0.000    8.000 
#    0.000    0.000    0.000    4.000    0.000    0.000 
#    0.000    0.000    0.000   12.000    0.000    0.000 
#
# Total GULP energy -743363.371114 kJ/mol
# GULP energy per Si atom -12389.389519 kJ/mol
# Density = 1.671977 g / cm^3
# Si number density = 16.757911 Si / 1000 Ang^3
#
#
#
# Elastic Constant Matrix: (Units=GPa)
#
#
# Indices 1 2 3 4 5 6 
#
# 1 73.8748 38.5060 25.5091 -1.1061 0.0000 0.0000
# 2 38.5060 73.8748 25.5091 1.1061 0.0000 0.0000
# 3 25.5091 25.5091 104.2987 0.0000 0.0000 0.0000
# 4 -1.1061 1.1061 0.0000 37.6548 0.0000 0.0000
# 5 0.0000 0.0000 0.0000 0.0000 37.6548 -1.1061
# 6 0.0000 0.0000 0.0000 0.0000 -1.1061 17.6844
#
#
#
# Elastic Compliance Matrix: (Units=1/GPa)
#
#
# Indices 1 2 3 4 5 6 
#
# 1 0.019168 -0.009158 -0.002448 0.000832 0.000000 0.000000
# 2 -0.009158 0.019168 -0.002448 -0.000832 0.000000 0.000000
# 3 -0.002448 -0.002448 0.010785 0.000000 0.000000 0.000000
# 4 0.000832 -0.000832 0.000000 0.026606 0.000000 0.000000
# 5 0.000000 0.000000 0.000000 0.000000 0.026606 0.001664
# 6 0.000000 0.000000 0.000000 0.000000 0.001664 0.056651
#
#
# Mechanical properties :
#
#
# Convention : Reuss Voigt Hill
#
# Bulk Modulus (GPa) = 47.59137 47.89962 47.74550
# Shear Modulus (GPa) = 25.76046 29.43377 27.59712
#
# Velocity S-wave (km/s) = 3.92498 4.19550 4.06249
# Velocity P-wave (km/s) = 7.00012 7.21907 7.11044
#
# Compressibility (1/GPa) = 0.02101221
#
# Stress axis : x y z
#
# Youngs Moduli (GPa) = 52.17133 52.17133 92.71821
#
# Poissons Ratio (x) = 0.47778 0.22699
# Poissons Ratio (y) = 0.47778 0.22699
# Poissons Ratio (z) = 0.12772 0.12772
#
# Static dielectric constant tensor:
#      x y z
#    x 4.128310 0.000000 0.000000 
#    y 0.000000 4.128310 0.000000 
#    z 0.000000 0.000000 3.991680 
# 
# 
# High freq. dielectric constant tensor:
#      x y z
#    x 1.615400 0.000000 0.000000 
#    y 0.000000 1.615400 0.000000 
#    z 0.000000 0.000000 1.676210 
# 
# From -- ./inp_files/685.got.cif
#   From: 2010.03.12/outbox.cif.g09.slc.cpg/sg164_1_cif.got.tgz:685.got - 2010.04.02 06:32:59.
