data_PCOD8323453
_publ_section_title
;
Structure prediction by ZEFSAII (Michael W. Deem and Ramdas Pophale) SiO2 
 PCOD8323453
Probable space group: P -3 M 1
;
_chemical_formula_sum "Si O2"
_cell_formula_units_Z 96
_cell_length_a 26.256242
_cell_length_b 26.256242
_cell_length_c 9.750104
_cell_angle_alpha 90.000000
_cell_angle_beta 90.000000
_cell_angle_gamma 120.000000
_cell_volume 5821.099369
_symmetry_space_group_name_H-M "P -3 M 1"
_symmetry_group_IT_number 164
_symmetry_cell_setting 'hexagonal'
loop_
_space_group_symop_operation_xyz
x,y,z
-y,x-y,z
-x+y,-x,z
x-y,-y,-z
-x,-x+y,-z
y,x,-z
-x,-y,-z
y,-x+y,-z
x-y,x,-z
-x+y,y,z
x,x-y,z
-y,-x,z
loop_
_atom_site_type_symbol
_atom_site_label
_atom_site_fract_x
_atom_site_fract_y
_atom_site_fract_z
Si Si1 0.666613 0.215387 0.648420
Si Si2 0.066279 0.749585 0.738702
Si Si3 0.439842 0.159789 0.148809
Si Si4 0.333318 0.548598 0.666292
Si Si5 0.178891 0.244035 0.981680
Si Si6 0.280901 0.441373 0.164834
Si Si7 0.817191 0.749764 0.514684
Si Si8 0.250715 0.316427 0.228669
O O1 0.606347 0.212693 0.686561
O O2 0.718457 0.281544 0.674054
O O3 0.667111 0.196574 0.491138
O O4 0.672697 0.170568 0.749753
O O5 0.107115 0.723293 0.778803
O O6 0.079491 0.775502 0.585664
O O7 0.000074 0.695661 0.751859
O O8 0.075133 0.804461 0.830206
O O9 0.431633 0.215817 0.154311
O O10 0.496616 0.170606 0.234461
O O11 0.446703 0.144103 0.992286
O O12 0.281746 0.563491 0.691720
O O13 0.394082 0.605919 0.704908
O O14 0.110809 0.221617 0.011304
O O15 0.222103 0.297553 0.078926
O O16 0.188151 0.188151 0.000000
O O17 0.217111 0.434222 0.170102
O O18 0.277513 0.385798 0.241941
O O19 0.803855 0.803855 0.500000
O O20 0.886511 0.773021 0.488892
O O21 0.801130 0.721672 0.664990
#
# Coordination Sequence:
#
# PCOD8323453 Si02
#       8
#    12  12  12  12  12  12  12  12
#     4   9  18  32  50  72  97 127 161 197 238 284
#     4  10  20  32  48  71  98 129 160 195 240 289
#     4  10  19  30  47  71  98 126 158 199 243 286
#     4   9  18  32  50  72  97 127 161 197 238 284
#     4  10  18  30  48  69  95 127 161 195 235 283
#     4  10  19  30  47  71  98 126 158 199 243 286
#     4  10  20  32  48  71  99 129 161 199 243 289
#     4  10  20  32  48  71  98 129 160 195 240 289
#
# _framework density 16.491731000000001
#
# number of rings (size 3 to 8) (size 9 to 14) (size 15 to 20)
#    0.000    2.250    1.250    2.500    1.750    1.500 
#    0.000    0.000    0.000    2.500    0.000    3.500 
#    0.000    6.000    0.000    0.000    0.000    1.000 
#
# Total GULP energy -1190487.024239 kJ/mol
# GULP energy per Si atom -12400.906502 kJ/mol
# Density = 1.645420 g / cm^3
# Si number density = 16.491731 Si / 1000 Ang^3
#
#
#
# Elastic Constant Matrix: (Units=GPa)
#
#
# Indices 1 2 3 4 5 6 
#
# 1 104.9501 53.5734 32.8316 -2.4338 0.0000 0.0000
# 2 53.5734 104.9501 32.8316 2.4338 0.0000 0.0000
# 3 32.8316 32.8316 63.3502 0.0000 0.0000 0.0000
# 4 -2.4338 2.4338 0.0000 20.0341 0.0000 0.0000
# 5 0.0000 0.0000 0.0000 0.0000 20.0341 -2.4338
# 6 0.0000 0.0000 0.0000 0.0000 -2.4338 25.6883
#
#
#
# Elastic Compliance Matrix: (Units=1/GPa)
#
#
# Indices 1 2 3 4 5 6 
#
# 1 0.013862 -0.005829 -0.004163 0.002392 0.000000 0.000000
# 2 -0.005829 0.013862 -0.004163 -0.002392 0.000000 0.000000
# 3 -0.004163 -0.004163 0.020100 0.000000 0.000000 0.000000
# 4 0.002392 -0.002392 0.000000 0.050496 0.000000 0.000000
# 5 0.000000 0.000000 0.000000 0.000000 0.050496 0.004784
# 6 0.000000 0.000000 0.000000 0.000000 0.004784 0.039381
#
#
# Mechanical properties :
#
#
# Convention : Reuss Voigt Hill
#
# Bulk Modulus (GPa) = 51.24621 56.85816 54.05218
# Shear Modulus (GPa) = 22.42036 23.41889 22.91962
#
# Velocity S-wave (km/s) = 3.69113 3.77243 3.73200
# Velocity P-wave (km/s) = 7.02191 7.31618 7.17056
#
# Compressibility (1/GPa) = 0.01951364
#
# Stress axis : x y z
#
# Youngs Moduli (GPa) = 72.14145 72.14145 49.75080
#
# Poissons Ratio (x) = 0.42052 0.20711
# Poissons Ratio (y) = 0.42052 0.20711
# Poissons Ratio (z) = 0.30032 0.30032
#
# Static dielectric constant tensor:
#      x y z
#    x 2.990370 0.000000 0.000000 
#    y 0.000000 2.990370 0.000000 
#    z 0.000000 0.000000 3.298110 
# 
# 
# High freq. dielectric constant tensor:
#      x y z
#    x 1.617170 0.000000 0.000000 
#    y 0.000000 1.617170 0.000000 
#    z 0.000000 0.000000 1.651450 
# 
# From -- ./inp_files/3161.got.cif
#   From: 2010.03.12/outbox.cif.g09.slc.cpg/sg164_2_cif.got.tgz:3161.got - 2010.04.02 06:32:59.
