data_PCOD8323777
_publ_section_title
;
Structure prediction by ZEFSAII (Michael W. Deem and Ramdas Pophale) SiO2 
 PCOD8323777
Probable space group: P -3 M 1
;
_chemical_formula_sum "Si O2"
_cell_formula_units_Z 40
_cell_length_a 11.002162
_cell_length_b 11.002162
_cell_length_c 18.496809
_cell_angle_alpha 90.000000
_cell_angle_beta 90.000000
_cell_angle_gamma 120.000000
_cell_volume 1939.025473
_symmetry_space_group_name_H-M "P -3 M 1"
_symmetry_group_IT_number 164
_symmetry_cell_setting 'hexagonal'
loop_
_space_group_symop_operation_xyz
x,y,z
-y,x-y,z
-x+y,-x,z
x-y,-y,-z
-x,-x+y,-z
y,x,-z
-x,-y,-z
y,-x+y,-z
x-y,x,-z
-x+y,y,z
x,x-y,z
-y,-x,z
loop_
_atom_site_type_symbol
_atom_site_label
_atom_site_fract_x
_atom_site_fract_y
_atom_site_fract_z
Si Si1 0.174655 0.825346 0.306188
Si Si2 0.333334 0.666668 0.309596
Si Si3 0.668378 0.067052 0.225583
Si Si4 0.333333 0.666667 0.480450
Si Si5 0.833549 0.166452 0.522803
Si Si6 0.667508 0.609169 0.925154
O O1 0.254977 0.745024 0.279361
O O2 0.165746 0.834255 0.391301
O O3 0.020901 0.742998 0.271420
O O4 0.333334 0.666667 0.395362
O O5 0.512565 0.025129 0.250994
O O6 0.771167 0.228834 0.244323
O O7 0.677122 0.052676 0.139321
O O8 0.501189 0.750595 0.505191
O O9 0.000000 0.249896 0.500000
O O10 0.807530 0.615059 0.898722
O O11 0.551566 0.448435 0.939349
O O12 0.694092 0.694092 0.000000
#
# Coordination Sequence:
#
# PCOD8323777 Si02
#       6
#     6   2  12   2   6  12
#     4  11  22  41  69  91 127 164 220 261 315 385
#     4   9  18  39  69  99 114 162 214 278 301 363
#     4  11  23  40  63  93 126 167 212 267 319 374
#     4   9  21  45  75  99 135 171 229 272 322 402
#     4  11  25  45  69 103 138 177 220 277 343 405
#     4  10  20  35  57  85 119 160 211 261 315 374
#
# _framework density 20.628919
#
# number of rings (size 3 to 8) (size 9 to 14) (size 15 to 20)
#    0.000    1.500    3.000    2.100    2.100    0.000 
#    0.900    3.000    0.000    1.200    0.000    0.000 
#    0.000    0.000    0.000    0.000    0.000    0.000 
#
# Total GULP energy -495735.769350 kJ/mol
# GULP energy per Si atom -12393.394234 kJ/mol
# Density = 2.058197 g / cm^3
# Si number density = 20.628919 Si / 1000 Ang^3
#
#
#
# Elastic Constant Matrix: (Units=GPa)
#
#
# Indices 1 2 3 4 5 6 
#
# 1 114.3627 49.6919 29.2013 -1.9936 0.0000 0.0000
# 2 49.6919 114.3621 29.2014 1.9936 0.0000 0.0000
# 3 29.2013 29.2014 95.5494 0.0000 0.0000 0.0000
# 4 -1.9936 1.9936 0.0000 28.5353 0.0000 0.0000
# 5 0.0000 0.0000 0.0000 0.0000 28.5353 -1.9936
# 6 0.0000 0.0000 0.0000 0.0000 -1.9936 32.3354
#
#
#
# Elastic Compliance Matrix: (Units=1/GPa)
#
#
# Indices 1 2 3 4 5 6 
#
# 1 0.011185 -0.004345 -0.002090 0.001085 0.000000 0.000000
# 2 -0.004345 0.011185 -0.002090 -0.001085 0.000000 0.000000
# 3 -0.002090 -0.002090 0.011743 0.000000 0.000000 0.000000
# 4 0.001085 -0.001085 0.000000 0.035196 0.000000 0.000000
# 5 0.000000 0.000000 0.000000 0.000000 0.035196 0.002170
# 6 0.000000 0.000000 0.000000 0.000000 0.002170 0.031060
#
#
# Mechanical properties :
#
#
# Convention : Reuss Voigt Hill
#
# Bulk Modulus (GPa) = 58.61124 60.05150 59.33137
# Shear Modulus (GPa) = 31.58495 32.29315 31.93905
#
# Velocity S-wave (km/s) = 3.91717 3.96085 3.93907
# Velocity P-wave (km/s) = 6.99520 7.07752 7.03648
#
# Compressibility (1/GPa) = 0.01706157
#
# Stress axis : x y z
#
# Youngs Moduli (GPa) = 89.40735 89.40683 85.15376
#
# Poissons Ratio (x) = 0.38848 0.17800
# Poissons Ratio (y) = 0.38848 0.17800
# Poissons Ratio (z) = 0.18689 0.18689
#
# Static dielectric constant tensor:
#      x y z
#    x 3.803300 0.000000 0.000000 
#    y 0.000000 3.803310 0.000000 
#    z 0.000000 0.000000 3.597530 
# 
# 
# High freq. dielectric constant tensor:
#      x y z
#    x 1.804330 0.000000 0.000000 
#    y 0.000000 1.804330 0.000000 
#    z 0.000000 0.000000 1.804630 
# 
# From -- ./inp_files/3855.got.cif
#   From: 2010.03.12/outbox.cif.g09.slc.cpg/sg164_2_cif.got.tgz:3855.got - 2010.04.02 06:32:59.
