data_PCOD8323059
_publ_section_title
;
Structure prediction by ZEFSAII (Michael W. Deem and Ramdas Pophale) SiO2 
 PCOD8323059
Probable space group: P -3 1 M 
;
_chemical_formula_sum "Si O2"
_cell_formula_units_Z 60
_cell_length_a 13.099411
_cell_length_b 13.099411
_cell_length_c 21.781046
_cell_angle_alpha 90.000000
_cell_angle_beta 90.000000
_cell_angle_gamma 120.000000
_cell_volume 3236.777906
_symmetry_space_group_name_H-M "P -3 1 M "
_symmetry_group_IT_number 162
_symmetry_cell_setting 'hexagonal'
loop_
_space_group_symop_operation_xyz
x,y,z
-y,x-y,z
-x+y,-x,z
-y,-x,-z
-x+y,y,-z
x,x-y,-z
-x,-y,-z
y,-x+y,-z
x-y,x,-z
y,x,z
x-y,-y,z
-x,-x+y,z
loop_
_atom_site_type_symbol
_atom_site_label
_atom_site_fract_x
_atom_site_fract_y
_atom_site_fract_z
Si Si1 0.533606 0.665570 0.757051
Si Si2 0.531107 0.867335 0.381580
Si Si3 0.672626 0.535628 0.034537
Si Si4 0.545883 0.860771 0.552328
Si Si5 0.134895 0.460863 0.174754
O O1 0.641278 0.641278 0.762994
O O2 0.482169 0.637240 0.687642
O O3 0.584305 0.797717 0.780968
O O4 0.427685 0.585189 0.801488
O O5 0.430580 0.849650 0.432230
O O6 0.577739 0.774399 0.390277
O O7 0.639253 0.000000 0.389897
O O8 0.626107 0.626107 0.029084
O O9 0.694713 0.515461 0.104884
O O10 0.586019 0.413982 0.000000
O O11 0.797365 0.594730 0.000000
O O12 0.541949 0.770975 0.500000
O O13 0.643363 0.000000 0.541625
O O14 0.000000 0.360347 0.179543
#
# Coordination Sequence:
#
# PCOD8323059 Si02
#       5
#    12  12  12  12  12
#     4  10  20  34  53  77 106 138 170 207 255 309
#     4  10  21  36  55  80 108 138 170 208 256 307
#     4  10  20  33  50  73 102 136 173 213 259 309
#     4  11  22  37  58  81 107 137 171 212 254 300
#     4  10  20  33  51  76 104 135 171 213 259 306
#
# _framework density 18.536951999999999
#
# number of rings (size 3 to 8) (size 9 to 14) (size 15 to 20)
#    0.000    1.800    0.000    4.600    0.000    6.400 
#    0.000    0.000    0.000    4.200    0.000    0.000 
#    0.000    0.000    0.000    0.000    0.000    0.000 
#
# Total GULP energy -743387.413390 kJ/mol
# GULP energy per Si atom -12389.790223 kJ/mol
# Density = 1.849476 g / cm^3
# Si number density = 18.536952 Si / 1000 Ang^3
#
#
#
# Elastic Constant Matrix: (Units=GPa)
#
#
# Indices 1 2 3 4 5 6 
#
# 1 201.3025 -56.6510 47.9919 -0.0008 23.2315 0.0000
# 2 -56.6510 201.3025 47.9919 0.0008 -23.2315 0.0000
# 3 47.9919 47.9919 115.9103 0.0000 0.0000 0.0000
# 4 -0.0008 0.0008 0.0000 35.7091 0.0000 -23.2315
# 5 23.2315 -23.2315 0.0000 0.0000 35.7091 -0.0008
# 6 0.0000 0.0000 0.0000 -23.2315 -0.0008 128.9768
#
#
#
# Elastic Compliance Matrix: (Units=1/GPa)
#
#
# Indices 1 2 3 4 5 6 
#
# 1 0.006962 0.002570 -0.003947 0.000000 -0.002857 0.000000
# 2 0.002570 0.006962 -0.003947 0.000000 0.002857 0.000000
# 3 -0.003947 -0.003947 0.011896 0.000000 0.000000 0.000000
# 4 0.000000 0.000000 0.000000 0.031721 0.000000 0.005714
# 5 -0.002857 0.002857 0.000000 0.000000 0.031721 0.000000
# 6 0.000000 0.000000 0.000000 0.005714 0.000000 0.008782
#
#
# Mechanical properties :
#
#
# Convention : Reuss Voigt Hill
#
# Bulk Modulus (GPa) = 65.90710 66.35345 66.13028
# Shear Modulus (GPa) = 43.95706 72.02448 57.99077
#
# Velocity S-wave (km/s) = 4.87490 6.24010 5.59927
# Velocity P-wave (km/s) = 8.20475 9.36971 8.80651
#
# Compressibility (1/GPa) = 0.01517287
#
# Stress axis : x y z
#
# Youngs Moduli (GPa) = 143.64491 143.64491 84.06517
#
# Poissons Ratio (x) = -0.36922 0.33178
# Poissons Ratio (y) = -0.36922 0.33178
# Poissons Ratio (z) = 0.56692 0.56692
#
# Static dielectric constant tensor:
#      x y z
#    x 3.361360 0.000000 0.000000 
#    y 0.000000 3.361360 0.000000 
#    z 0.000000 0.000000 3.822450 
# 
# 
# High freq. dielectric constant tensor:
#      x y z
#    x 1.701650 0.000000 0.000000 
#    y 0.000000 1.701650 0.000000 
#    z 0.000000 0.000000 1.748390 
# 
# From -- ./inp_files/3785.got.cif
#   From: 2010.03.12/outbox.cif.g09.slc.cpg/sg162_2_cif.got.tgz:3785.got - 2010.04.02 06:27:41.
