data_PCOD8323402
_publ_section_title
;
Structure prediction by ZEFSAII (Michael W. Deem and Ramdas Pophale) SiO2 
 PCOD8323402
Probable space group: P -3 M 1
;
_chemical_formula_sum "Si O2"
_cell_formula_units_Z 96
_cell_length_a 16.650959
_cell_length_b 16.650959
_cell_length_c 27.819911
_cell_angle_alpha 90.000000
_cell_angle_beta 90.000000
_cell_angle_gamma 120.000000
_cell_volume 6679.821709
_symmetry_space_group_name_H-M "P -3 M 1"
_symmetry_group_IT_number 164
_symmetry_cell_setting 'hexagonal'
loop_
_space_group_symop_operation_xyz
x,y,z
-y,x-y,z
-x+y,-x,z
x-y,-y,-z
-x,-x+y,-z
y,x,-z
-x,-y,-z
y,-x+y,-z
x-y,x,-z
-x+y,y,z
x,x-y,z
-y,-x,z
loop_
_atom_site_type_symbol
_atom_site_label
_atom_site_fract_x
_atom_site_fract_y
_atom_site_fract_z
Si Si1 0.000454 0.810834 0.142396
Si Si2 0.850990 0.519740 0.581793
Si Si3 0.150512 0.481786 0.525652
Si Si4 0.371465 0.090890 0.192910
Si Si5 0.057735 0.759957 0.952744
Si Si6 0.954595 0.572046 0.383740
Si Si7 0.332292 0.856484 0.712339
Si Si8 0.666256 0.149041 0.102715
O O1 0.095314 0.904687 0.152933
O O2 0.915350 0.830699 0.145912
O O3 0.990337 0.734036 0.181993
O O4 0.003725 0.771305 0.089911
O O5 0.761744 0.523488 0.600351
O O6 0.826548 0.413274 0.582134
O O7 0.880006 0.561475 0.527657
O O8 0.936009 0.583425 0.617084
O O9 0.257669 0.515338 0.534401
O O10 0.135698 0.567849 0.529825
O O11 0.089778 0.410751 0.568036
O O12 0.370716 0.185358 0.187217
O O13 0.406984 0.081212 0.245116
O O14 0.443281 0.094337 0.153024
O O15 0.137447 0.862554 0.966024
O O16 0.101092 0.696835 0.937510
O O17 0.000000 0.714552 0.000000
O O18 0.940051 0.470026 0.385075
O O19 0.904285 0.580393 0.336400
O O20 0.427917 0.855834 0.716258
O O21 0.249055 0.750946 0.714787
O O22 0.570319 0.140638 0.086502
O O23 0.743052 0.256949 0.108469
#
# Coordination Sequence:
#
# PCOD8323402 Si02
#       8
#    12  12  12  12  12  12  12  12
#     4   9  16  27  43  61  80 102 129 158 188 224
#     4   9  16  26  39  53  70  96 130 163 191 222
#     4   9  15  23  36  54  76 101 128 154 182 222
#     4   8  16  28  40  57  79 101 125 156 192 225
#     4   9  17  27  39  57  81 107 131 158 194 233
#     4   9  17  26  36  53  77 101 123 154 194 228
#     4  10  18  28  42  59  80 104 129 154 184 226
#     4   9  16  26  40  57  77 102 133 165 195 228
#
# _framework density 14.371641
#
# number of rings (size 3 to 8) (size 9 to 14) (size 15 to 20)
#    0.000    3.000    0.000    3.625    0.000    2.750 
#    0.000    3.125    0.000    2.000    0.000    0.000 
#    0.000    0.000    0.000   38.375    0.000   27.750 
#
# Total GULP energy -1189722.994812 kJ/mol
# GULP energy per Si atom -12392.947863 kJ/mol
# Density = 1.433893 g / cm^3
# Si number density = 14.371641 Si / 1000 Ang^3
#
#
#
# Elastic Constant Matrix: (Units=GPa)
#
#
# Indices 1 2 3 4 5 6 
#
# 1 64.6690 27.1787 34.8114 2.2400 0.0000 0.0000
# 2 27.1787 64.6690 34.8114 -2.2400 0.0000 0.0000
# 3 34.8114 34.8114 74.4449 0.0000 0.0000 0.0000
# 4 2.2400 -2.2400 0.0000 19.1692 0.0000 0.0000
# 5 0.0000 0.0000 0.0000 0.0000 19.1692 2.2400
# 6 0.0000 0.0000 0.0000 0.0000 2.2400 18.7451
#
#
#
# Elastic Compliance Matrix: (Units=1/GPa)
#
#
# Indices 1 2 3 4 5 6 
#
# 1 0.021959 -0.005093 -0.007887 -0.003161 0.000000 0.000000
# 2 -0.005093 0.021959 -0.007887 0.003161 0.000000 0.000000
# 3 -0.007887 -0.007887 0.020809 0.000000 0.000000 0.000000
# 4 -0.003161 0.003161 0.000000 0.052906 0.000000 0.000000
# 5 0.000000 0.000000 0.000000 0.000000 0.052906 -0.006322
# 6 0.000000 0.000000 0.000000 0.000000 -0.006322 0.054103
#
#
# Mechanical properties :
#
#
# Convention : Reuss Voigt Hill
#
# Bulk Modulus (GPa) = 43.49041 44.15398 43.82219
# Shear Modulus (GPa) = 18.24573 18.54880 18.39726
#
# Velocity S-wave (km/s) = 3.56696 3.59646 3.58174
# Velocity P-wave (km/s) = 6.87686 6.93078 6.90388
#
# Compressibility (1/GPa) = 0.02299357
#
# Stress axis : x y z
#
# Youngs Moduli (GPa) = 45.54022 45.54022 48.05697
#
# Poissons Ratio (x) = 0.23192 0.37901
# Poissons Ratio (y) = 0.23192 0.37901
# Poissons Ratio (z) = 0.35916 0.35916
#
# Static dielectric constant tensor:
#      x y z
#    x 2.658520 0.000000 0.000000 
#    y 0.000000 2.658520 0.000000 
#    z 0.000000 0.000000 2.912760 
# 
# 
# High freq. dielectric constant tensor:
#      x y z
#    x 1.529910 0.000000 0.000000 
#    y 0.000000 1.529910 0.000000 
#    z 0.000000 0.000000 1.545750 
# 
# From -- ./inp_files/5077.got.cif
#   From: 2010.03.12/outbox.cif.g09.slc.cpg/sg164_3_cif.got.tgz:5077.got - 2010.04.02 06:32:59.
