data_PCOD8323965
_publ_section_title
;
Structure prediction by ZEFSAII (Michael W. Deem and Ramdas Pophale) SiO2 
 PCOD8323965
Probable space group: P -3 C 1
;
_chemical_formula_sum "Si O2"
_cell_formula_units_Z 48
_cell_length_a 11.651709
_cell_length_b 11.651709
_cell_length_c 18.377502
_cell_angle_alpha 90.000000
_cell_angle_beta 90.000000
_cell_angle_gamma 120.000000
_cell_volume 2160.709442
_symmetry_space_group_name_H-M "P -3 C 1"
_symmetry_group_IT_number 165
_symmetry_cell_setting 'hexagonal'
loop_
_space_group_symop_operation_xyz
x,y,z
-y,x-y,z
-x+y,-x,z
x-y,-y,1/2-z
-x,-x+y,1/2-z
y,x,1/2-z
-x,-y,-z
y,-x+y,-z
x-y,x,-z
-x+y,y,1/2+z
x,x-y,1/2+z
-y,-x,1/2+z
loop_
_atom_site_type_symbol
_atom_site_label
_atom_site_fract_x
_atom_site_fract_y
_atom_site_fract_z
Si Si1 0.333284 0.925961 0.554853
Si Si2 0.046855 0.552107 0.827126
Si Si3 0.666668 0.333335 0.654350
Si Si4 0.000000 0.000000 0.085275
Si Si5 0.721085 0.761885 0.092566
Si Si6 0.666667 0.333334 0.485060
O O1 0.194923 0.866164 0.594643
O O2 0.370828 0.812565 0.540982
O O3 0.448295 0.028580 0.608664
O O4 0.321307 0.996675 0.482004
O O5 0.200201 0.655960 0.816387
O O6 0.000000 0.478665 0.750000
O O7 0.983208 0.644491 0.842403
O O8 0.666668 0.333334 0.569349
O O9 0.972959 0.120133 0.108167
O O10 0.000000 0.000000 0.000000
#
# Coordination Sequence:
#
# PCOD8323965 Si02
#       6
#    12  12   4   4  12   4
#     4  12  23  43  73 104 141 180 236 293 355 409
#     4  12  30  46  69 101 146 191 235 288 351 430
#     4  12  27  46  71 103 141 178 242 292 348 412
#     4  12  24  42  76 110 145 174 234 303 361 426
#     4  12  24  45  73 107 139 183 234 294 357 419
#     4  12  21  40  77 109 138 175 236 298 342 412
#
# _framework density 22.214924
#
# number of rings (size 3 to 8) (size 9 to 14) (size 15 to 20)
#    0.000    0.000    7.500    2.250    7.000    0.000 
#    0.000    1.250    0.000    0.000    0.000    0.000 
#    0.000    0.000    0.000    0.000    0.000    0.000 
#
# Total GULP energy -594991.942404 kJ/mol
# GULP energy per Si atom -12395.665467 kJ/mol
# Density = 2.216436 g / cm^3
# Si number density = 22.214924 Si / 1000 Ang^3
#
#
#
# Elastic Constant Matrix: (Units=GPa)
#
#
# Indices 1 2 3 4 5 6 
#
# 1 113.5315 21.6489 24.8584 4.7724 0.0000 0.0000
# 2 21.6489 113.5313 24.8583 -4.7714 0.0000 0.0000
# 3 24.8584 24.8583 80.0648 0.0003 0.0000 0.0000
# 4 4.7724 -4.7714 0.0003 28.9107 0.0000 0.0000
# 5 0.0000 0.0000 0.0000 0.0000 28.9101 4.7717
# 6 0.0000 0.0000 0.0000 0.0000 4.7717 45.9417
#
#
#
# Elastic Compliance Matrix: (Units=1/GPa)
#
#
# Indices 1 2 3 4 5 6 
#
# 1 0.009712 -0.001361 -0.002593 -0.001828 0.000000 0.000000
# 2 -0.001361 0.009712 -0.002593 0.001828 0.000000 0.000000
# 3 -0.002593 -0.002593 0.014100 0.000000 0.000000 0.000000
# 4 -0.001828 0.001828 0.000000 0.035193 0.000000 0.000000
# 5 0.000000 0.000000 0.000000 0.000000 0.035193 -0.003655
# 6 0.000000 0.000000 0.000000 0.000000 -0.003655 0.022146
#
#
# Mechanical properties :
#
#
# Convention : Reuss Voigt Hill
#
# Bulk Modulus (GPa) = 48.94568 49.98431 49.46500
# Shear Modulus (GPa) = 34.25583 36.46995 35.36289
#
# Velocity S-wave (km/s) = 3.93112 4.05617 3.99413
# Velocity P-wave (km/s) = 6.53342 6.66977 6.60195
#
# Compressibility (1/GPa) = 0.02043081
#
# Stress axis : x y z
#
# Youngs Moduli (GPa) = 102.96297 102.96316 70.92237
#
# Poissons Ratio (x) = 0.14014 0.18389
# Poissons Ratio (y) = 0.14014 0.18389
# Poissons Ratio (z) = 0.26697 0.26697
#
# Static dielectric constant tensor:
#      x y z
#    x 4.256140 0.000000 0.000000 
#    y 0.000000 4.256170 -0.000030 
#    z 0.000000 -0.000030 3.837990 
# 
# 
# High freq. dielectric constant tensor:
#      x y z
#    x 1.892710 0.000000 0.000000 
#    y 0.000000 1.892710 0.000000 
#    z 0.000000 0.000000 1.839310 
# 
# From -- ./inp_files/2556.got.cif
#   From: 2010.03.12/outbox.cif.g09.slc.cpg/sg165_2_cif.got.tgz:2556.got - 2010.04.02 06:36:38.
