data_PCOD8323812
_publ_section_title
;
Structure prediction by ZEFSAII (Michael W. Deem and Ramdas Pophale) SiO2 
 PCOD8323812
Probable space group: P -3 M 1
;
_chemical_formula_sum "Si O2"
_cell_formula_units_Z 72
_cell_length_a 22.524192
_cell_length_b 22.524192
_cell_length_c 9.421366
_cell_angle_alpha 90.000000
_cell_angle_beta 90.000000
_cell_angle_gamma 120.000000
_cell_volume 4139.452930
_symmetry_space_group_name_H-M "P -3 M 1"
_symmetry_group_IT_number 164
_symmetry_cell_setting 'hexagonal'
loop_
_space_group_symop_operation_xyz
x,y,z
-y,x-y,z
-x+y,-x,z
x-y,-y,-z
-x,-x+y,-z
y,x,-z
-x,-y,-z
y,-x+y,-z
x-y,x,-z
-x+y,y,z
x,x-y,z
-y,-x,z
loop_
_atom_site_type_symbol
_atom_site_label
_atom_site_fract_x
_atom_site_fract_y
_atom_site_fract_z
Si Si1 0.388725 0.479005 0.880998
Si Si2 0.298413 0.930088 0.423730
Si Si3 0.777083 0.818698 0.358284
Si Si4 0.388148 0.127726 0.278279
Si Si5 0.466541 0.067627 0.803147
Si Si6 0.248682 0.194638 0.124284
O O1 0.441639 0.558362 0.850494
O O2 0.324081 0.456327 0.781891
O O3 0.421313 0.433558 0.833407
O O4 0.366635 0.470297 0.046457
O O5 0.238752 0.935616 0.341170
O O6 0.263474 0.876102 0.551079
O O7 0.339002 0.907693 0.314471
O O8 0.353267 0.000000 0.500000
O O9 0.807917 0.807917 0.500000
O O10 0.786507 0.893254 0.353153
O O11 0.823016 0.812428 0.234684
O O12 0.394483 0.197242 0.229588
O O13 0.318825 0.068816 0.203375
O O14 0.542844 0.085688 0.752370
O O15 0.248000 0.124000 0.078928
O O16 0.235338 0.235338 0.000000
#
# Coordination Sequence:
#
# PCOD8323812 Si02
#       6
#    12  12  12  12  12  12
#     4   9  18  33  52  76 109 140 171 208 250 303
#     4  11  19  31  49  75 110 142 170 211 259 319
#     4  11  21  36  56  76 102 139 181 226 277 332
#     4  11  22  35  52  79 111 142 182 225 264 312
#     4   9  18  31  51  79 109 141 168 199 251 316
#     4  11  23  38  55  77 104 137 178 227 283 339
#
# _framework density 17.393602999999999
#
# number of rings (size 3 to 8) (size 9 to 14) (size 15 to 20)
#    0.000    1.667    5.000    2.500    4.667    1.000 
#    0.000    0.833    0.000    7.000    0.000    0.000 
#    0.000    1.333    0.000    0.000    0.000    0.000 
#
# Total GULP energy -892291.720976 kJ/mol
# GULP energy per Si atom -12392.940569 kJ/mol
# Density = 1.735401 g / cm^3
# Si number density = 17.393603 Si / 1000 Ang^3
#
#
#
# Elastic Constant Matrix: (Units=GPa)
#
#
# Indices 1 2 3 4 5 6 
#
# 1 72.4541 33.2429 33.7280 1.4094 0.0000 0.0000
# 2 33.2429 72.4541 33.7280 -1.4094 0.0000 0.0000
# 3 33.7280 33.7280 86.5739 0.0000 0.0000 0.0000
# 4 1.4094 -1.4094 0.0000 26.9470 0.0000 0.0000
# 5 0.0000 0.0000 0.0000 0.0000 26.9470 1.4094
# 6 0.0000 0.0000 0.0000 0.0000 1.4094 19.6056
#
#
#
# Elastic Compliance Matrix: (Units=1/GPa)
#
#
# Indices 1 2 3 4 5 6 
#
# 1 0.019095 -0.006504 -0.004906 -0.001339 0.000000 0.000000
# 2 -0.006504 0.019095 -0.004906 0.001339 0.000000 0.000000
# 3 -0.004906 -0.004906 0.015373 0.000000 0.000000 0.000000
# 4 -0.001339 0.001339 0.000000 0.037250 0.000000 0.000000
# 5 0.000000 0.000000 0.000000 0.000000 0.037250 -0.002678
# 6 0.000000 0.000000 0.000000 0.000000 -0.002678 0.051198
#
#
# Mechanical properties :
#
#
# Convention : Reuss Voigt Hill
#
# Bulk Modulus (GPa) = 47.76844 48.09777 47.93311
# Shear Modulus (GPa) = 22.84458 23.41877 23.13168
#
# Velocity S-wave (km/s) = 3.62800 3.67332 3.65073
# Velocity P-wave (km/s) = 6.71362 6.76044 6.73707
#
# Compressibility (1/GPa) = 0.02093432
#
# Stress axis : x y z
#
# Youngs Moduli (GPa) = 52.36841 52.36841 65.04863
#
# Poissons Ratio (x) = 0.34059 0.31910
# Poissons Ratio (y) = 0.34059 0.31910
# Poissons Ratio (z) = 0.25690 0.25690
#
# Static dielectric constant tensor:
#      x y z
#    x 3.227180 0.000000 0.000000 
#    y 0.000000 3.227180 0.000000 
#    z 0.000000 0.000000 3.423950 
# 
# 
# High freq. dielectric constant tensor:
#      x y z
#    x 1.648760 0.000000 0.000000 
#    y 0.000000 1.648760 0.000000 
#    z 0.000000 0.000000 1.682740 
# 
# From -- ./inp_files/1892.got.cif
#   From: 2010.03.12/outbox.cif.g09.slc.cpg/sg164_1_cif.got.tgz:1892.got - 2010.04.02 06:32:59.
