data_PCOD8323455
_publ_section_title
;
Structure prediction by ZEFSAII (Michael W. Deem and Ramdas Pophale) SiO2 
 PCOD8323455
Probable space group: P -3 M 1
;
_chemical_formula_sum "Si O2"
_cell_formula_units_Z 84
_cell_length_a 21.077146
_cell_length_b 21.077146
_cell_length_c 11.980973
_cell_angle_alpha 90.000000
_cell_angle_beta 90.000000
_cell_angle_gamma 120.000000
_cell_volume 4609.420499
_symmetry_space_group_name_H-M "P -3 M 1"
_symmetry_group_IT_number 164
_symmetry_cell_setting 'hexagonal'
loop_
_space_group_symop_operation_xyz
x,y,z
-y,x-y,z
-x+y,-x,z
x-y,-y,-z
-x,-x+y,-z
y,x,-z
-x,-y,-z
y,-x+y,-z
x-y,x,-z
-x+y,y,z
x,x-y,z
-y,-x,z
loop_
_atom_site_type_symbol
_atom_site_label
_atom_site_fract_x
_atom_site_fract_y
_atom_site_fract_z
Si Si1 0.938783 0.207428 0.410097
Si Si2 0.746932 0.111063 0.964911
Si Si3 0.287642 0.851521 0.546870
Si Si4 0.405561 0.953810 0.705152
Si Si5 0.520820 0.187481 0.906150
Si Si6 0.489932 0.121733 0.665485
Si Si7 0.684068 0.711279 0.819433
O O1 0.878605 0.121396 0.400074
O O2 0.904518 0.254072 0.457829
O O3 0.969387 0.238859 0.285542
O O4 0.000000 0.215824 0.500000
O O5 0.823998 0.176003 0.923981
O O6 0.690708 0.141806 0.987397
O O7 0.720496 0.055322 0.862005
O O8 0.759700 0.078284 0.078782
O O9 0.227436 0.772565 0.598791
O O10 0.364171 0.889827 0.613541
O O11 0.301865 0.838199 0.420238
O O12 0.473010 0.946019 0.755800
O O13 0.345013 0.943263 0.795333
O O14 0.436995 0.034319 0.653067
O O15 0.588651 0.177302 0.944319
O O16 0.547295 0.273648 0.905421
O O17 0.489354 0.151931 0.786703
O O18 0.571888 0.143775 0.633133
#
# Coordination Sequence:
#
# PCOD8323455 Si02
#       7
#    12  12  12  12  12  12  12
#     4  10  21  35  55  82 112 142 171 208 260 321
#     4  10  21  35  55  78 106 144 182 223 268 318
#     4  10  19  30  46  70 101 138 175 217 269 326
#     4  10  19  32  50  73  99 132 176 227 279 328
#     4  10  20  33  49  73 104 141 182 228 279 329
#     4  10  18  30  48  72  99 131 176 225 277 329
#     4  10  20  36  54  80 112 140 178 224 269 315
#
# _framework density 18.223549999999999
#
# number of rings (size 3 to 8) (size 9 to 14) (size 15 to 20)
#    0.000    2.000    1.429    3.571    0.000    2.857 
#    0.000    1.429    0.000    3.286    0.000    1.000 
#    0.000    0.000    0.000    7.286    0.000    0.000 
#
# Total GULP energy -1041088.423266 kJ/mol
# GULP energy per Si atom -12393.909801 kJ/mol
# Density = 1.818207 g / cm^3
# Si number density = 18.223550 Si / 1000 Ang^3
#
#
#
# Elastic Constant Matrix: (Units=GPa)
#
#
# Indices 1 2 3 4 5 6 
#
# 1 82.6681 33.7925 27.1844 3.3113 0.0000 0.0000
# 2 33.7925 82.6681 27.1844 -3.3113 0.0000 0.0000
# 3 27.1844 27.1844 73.7056 0.0000 0.0000 0.0000
# 4 3.3113 -3.3113 0.0000 18.9425 0.0000 0.0000
# 5 0.0000 0.0000 0.0000 0.0000 18.9425 3.3113
# 6 0.0000 0.0000 0.0000 0.0000 3.3113 24.4378
#
#
#
# Elastic Compliance Matrix: (Units=1/GPa)
#
#
# Indices 1 2 3 4 5 6 
#
# 1 0.015665 -0.005292 -0.003826 -0.003663 0.000000 0.000000
# 2 -0.005292 0.015665 -0.003826 0.003663 0.000000 0.000000
# 3 -0.003826 -0.003826 0.016389 0.000000 0.000000 0.000000
# 4 -0.003663 0.003663 0.000000 0.054072 0.000000 0.000000
# 5 0.000000 0.000000 0.000000 0.000000 0.054072 -0.007327
# 6 0.000000 0.000000 0.000000 0.000000 -0.007327 0.041913
#
#
# Mechanical properties :
#
#
# Convention : Reuss Voigt Hill
#
# Bulk Modulus (GPa) = 45.80429 46.15158 45.97793
# Shear Modulus (GPa) = 21.65068 22.52325 22.08696
#
# Velocity S-wave (km/s) = 3.45056 3.51941 3.48516
# Velocity P-wave (km/s) = 6.40815 6.47265 6.44048
#
# Compressibility (1/GPa) = 0.02183202
#
# Stress axis : x y z
#
# Youngs Moduli (GPa) = 63.83844 63.83844 61.01475
#
# Poissons Ratio (x) = 0.33783 0.23342
# Poissons Ratio (y) = 0.33783 0.23342
# Poissons Ratio (z) = 0.24422 0.24422
#
# Static dielectric constant tensor:
#      x y z
#    x 3.341200 0.000000 0.000000 
#    y 0.000000 3.341200 0.000000 
#    z 0.000000 0.000000 3.197800 
# 
# 
# High freq. dielectric constant tensor:
#      x y z
#    x 1.696100 0.000000 0.000000 
#    y 0.000000 1.696100 0.000000 
#    z 0.000000 0.000000 1.696100 
# 
# From -- ./inp_files/2917.got.cif
#   From: 2010.03.12/outbox.cif.g09.slc.cpg/sg164_2_cif.got.tgz:2917.got - 2010.04.02 06:32:59.
