data_PCOD8323167
_publ_section_title
;
Structure prediction by ZEFSAII (Michael W. Deem and Ramdas Pophale) SiO2 
 PCOD8323167
Probable space group: P -3 1 M 
;
_chemical_formula_sum "Si O2"
_cell_formula_units_Z 36
_cell_length_a 19.756840
_cell_length_b 19.756840
_cell_length_c 4.841930
_cell_angle_alpha 90.000000
_cell_angle_beta 90.000000
_cell_angle_gamma 120.000000
_cell_volume 1636.756611
_symmetry_space_group_name_H-M "P -3 1 M "
_symmetry_group_IT_number 162
_symmetry_cell_setting 'hexagonal'
loop_
_space_group_symop_operation_xyz
x,y,z
-y,x-y,z
-x+y,-x,z
-y,-x,-z
-x+y,y,-z
x,x-y,-z
-x,-y,-z
y,-x+y,-z
x-y,x,-z
y,x,z
x-y,-y,z
-x,-x+y,z
loop_
_atom_site_type_symbol
_atom_site_label
_atom_site_fract_x
_atom_site_fract_y
_atom_site_fract_z
Si Si1 0.736060 0.824318 0.766339
Si Si2 0.332715 0.508791 0.461653
Si Si3 0.589267 0.910198 0.969128
O O1 0.711899 0.855950 0.500000
O O2 0.790044 0.790044 0.661064
O O3 0.781997 0.890999 0.000000
O O4 0.660744 0.760955 0.933525
O O5 0.414440 0.585561 0.500000
O O6 0.264578 0.529155 0.500000
O O7 0.317701 0.435680 0.655010
O O8 0.338269 0.485020 0.150511
O O9 0.610851 0.000000 0.993293
#
# Coordination Sequence:
#
# PCOD8323167 Si02
#       3
#    12  12  12
#     4  11  22  39  64  93 125 161 205 254 309 368
#     4  12  25  42  63  88 124 165 205 245 295 364
#     4  11  24  41  65  93 120 155 200 258 313 353
#
# _framework density 21.994717000000001
#
# number of rings (size 3 to 8) (size 9 to 14) (size 15 to 20)
#    0.000    0.667    0.000    9.333    0.000    9.333 
#    0.000    3.333    0.000    6.667    0.000    0.000 
#    0.000    0.000    0.000    0.000    0.000    0.000 
#
# Total GULP energy -446490.614946 kJ/mol
# GULP energy per Si atom -12402.517082 kJ/mol
# Density = 2.194466 g / cm^3
# Si number density = 21.994717 Si / 1000 Ang^3
#
#
#
# Elastic Constant Matrix: (Units=GPa)
#
#
# Indices 1 2 3 4 5 6 
#
# 1 79.7672 50.1310 13.4998 -0.0008 4.5524 0.0000
# 2 50.1310 79.7672 13.4998 0.0008 -4.5524 0.0000
# 3 13.4998 13.4998 90.2099 0.0000 0.0000 0.0000
# 4 -0.0008 0.0008 0.0000 28.0531 0.0000 -4.5524
# 5 4.5524 -4.5524 0.0000 0.0000 28.0531 -0.0008
# 6 0.0000 0.0000 0.0000 -4.5524 -0.0008 14.8181
#
#
#
# Elastic Compliance Matrix: (Units=1/GPa)
#
#
# Indices 1 2 3 4 5 6 
#
# 1 0.021729 -0.013784 -0.001189 0.000001 -0.005763 0.000000
# 2 -0.013784 0.021729 -0.001189 -0.000001 0.005763 0.000000
# 3 -0.001189 -0.001189 0.011441 0.000000 0.000000 0.000000
# 4 0.000001 -0.000001 0.000000 0.037517 0.000000 0.011526
# 5 -0.005763 0.005763 0.000000 0.000000 0.037517 0.000002
# 6 0.000000 0.000000 0.000000 0.011526 0.000002 0.071026
#
#
# Mechanical properties :
#
#
# Convention : Reuss Voigt Hill
#
# Bulk Modulus (GPa) = 44.29487 44.88948 44.59217
# Shear Modulus (GPa) = 20.76340 25.69246 23.22793
#
# Velocity S-wave (km/s) = 3.07582 3.42148 3.25325
# Velocity P-wave (km/s) = 5.72685 6.00519 5.86767
#
# Compressibility (1/GPa) = 0.02257598
#
# Stress axis : x y z
#
# Youngs Moduli (GPa) = 46.02102 46.02102 87.40391
#
# Poissons Ratio (x) = 0.63434 0.10393
# Poissons Ratio (y) = 0.63434 0.10393
# Poissons Ratio (z) = 0.05472 0.05472
#
# Static dielectric constant tensor:
#      x y z
#    x 3.968520 0.000000 0.000000 
#    y 0.000000 3.968520 0.000000 
#    z 0.000000 0.000000 1.980830 
# 
# 
# High freq. dielectric constant tensor:
#      x y z
#    x 1.863880 0.000000 0.000000 
#    y 0.000000 1.863880 0.000000 
#    z 0.000000 0.000000 1.885780 
# 
# From -- ./inp_files/275.got.cif
#   From: 2010.03.12/outbox.cif.g09.slc.cpg/sg162_1_cif.got.tgz:275.got - 2010.04.02 06:27:41.
