data_PCOD8323194
_publ_section_title
;
Structure prediction by ZEFSAII (Michael W. Deem and Ramdas Pophale) SiO2 
 PCOD8323194
Probable space group: P -3 1 C
;
_chemical_formula_sum "Si O2"
_cell_formula_units_Z 72
_cell_length_a 24.195240
_cell_length_b 24.195240
_cell_length_c 9.195884
_cell_angle_alpha 90.000000
_cell_angle_beta 90.000000
_cell_angle_gamma 120.000000
_cell_volume 4662.125764
_symmetry_space_group_name_H-M "P -3 1 C"
_symmetry_group_IT_number 163
_symmetry_cell_setting 'hexagonal'
loop_
_space_group_symop_operation_xyz
x,y,z
-y,x-y,z
-x+y,-x,z
-y,-x,1/2-z
-x+y,y,1/2-z
x,x-y,1/2-z
-x,-y,-z
y,-x+y,-z
x-y,x,-z
y,x,1/2+z
x-y,-y,1/2+z
-x,-x+y,1/2+z
loop_
_atom_site_type_symbol
_atom_site_label
_atom_site_fract_x
_atom_site_fract_y
_atom_site_fract_z
Si Si1 0.367876 0.063579 0.915499
Si Si2 0.936421 0.632124 0.915500
Si Si3 0.635944 0.148470 0.581044
Si Si4 0.189961 0.379921 0.084826
Si Si5 0.364055 0.512526 0.418956
Si Si6 0.745748 0.491495 0.422054
O O1 0.364850 0.043027 0.749999
O O2 0.441319 0.095972 0.971226
O O3 0.340942 0.113190 0.935856
O O4 0.321391 1.000000 0.999999
O O5 0.886809 0.659058 0.935856
O O6 0.904027 0.558681 0.971227
O O7 0.560715 0.121430 0.553819
O O8 0.653912 0.164369 0.750000
O O9 0.675028 0.214198 0.490440
O O10 0.204488 0.408976 0.250000
O O11 0.217225 0.434448 0.964512
O O12 0.324971 0.539169 0.509559
O O13 0.740869 0.481737 0.250000
#
# Coordination Sequence:
#
# PCOD8323194 Si02
#       6
#    12  12  12  12  12  12
#     4   9  17  29  46  67  88 113 146 180 213 255
#     4   9  17  29  46  67  88 113 146 180 213 255
#     4   9  18  33  48  59  79 115 151 177 214 278
#     4   8  16  32  48  60  84 120 147 165 198 259
#     4   9  18  33  48  59  79 115 151 177 214 278
#     4  10  18  28  44  64  82 100 132 183 232 261
#
# _framework density 15.443598
#
# number of rings (size 3 to 8) (size 9 to 14) (size 15 to 20)
#    0.000    3.000    0.000    3.500    0.000    6.667 
#    1.000    0.000    0.000    0.000    0.000    0.000 
#    0.000    0.000    0.000    0.500    0.000    6.000 
#
# Total GULP energy -891979.104563 kJ/mol
# GULP energy per Si atom -12388.598674 kJ/mol
# Density = 1.540845 g / cm^3
# Si number density = 15.443598 Si / 1000 Ang^3
#
#
#
# Elastic Constant Matrix: (Units=GPa)
#
#
# Indices 1 2 3 4 5 6 
#
# 1 86.5634 53.4099 29.6983 0.0000 0.0001 0.0000
# 2 53.4099 86.5634 29.6983 0.0000 -0.0001 0.0000
# 3 29.6983 29.6983 57.2127 0.0000 0.0000 0.0000
# 4 0.0000 0.0000 0.0000 22.2595 0.0000 -0.0001
# 5 0.0001 -0.0001 0.0000 0.0000 22.2595 0.0000
# 6 0.0000 0.0000 0.0000 -0.0001 0.0000 16.5767
#
#
#
# Elastic Compliance Matrix: (Units=1/GPa)
#
#
# Indices 1 2 3 4 5 6 
#
# 1 0.019663 -0.010500 -0.004756 0.000000 0.000000 0.000000
# 2 -0.010500 0.019663 -0.004756 0.000000 0.000000 0.000000
# 3 -0.004756 -0.004756 0.022416 0.000000 0.000000 0.000000
# 4 0.000000 0.000000 0.000000 0.044925 0.000000 0.000000
# 5 0.000000 0.000000 0.000000 0.000000 0.044925 0.000000
# 6 0.000000 0.000000 0.000000 0.000000 0.000000 0.060326
#
#
# Mechanical properties :
#
#
# Convention : Reuss Voigt Hill
#
# Bulk Modulus (GPa) = 46.04735 50.66139 48.35437
# Shear Modulus (GPa) = 19.29161 20.05466 19.67313
#
# Velocity S-wave (km/s) = 3.53819 3.60748 3.57300
# Velocity P-wave (km/s) = 6.82443 7.08712 6.95702
#
# Compressibility (1/GPa) = 0.02171678
#
# Stress axis : x y z
#
# Youngs Moduli (GPa) = 50.85799 50.85799 44.61046
#
# Poissons Ratio (x) = 0.53402 0.21217
# Poissons Ratio (y) = 0.53402 0.21217
# Poissons Ratio (z) = 0.24189 0.24189
#
# Static dielectric constant tensor:
#      x y z
#    x 2.870360 0.000000 0.000000 
#    y 0.000000 2.870360 0.000000 
#    z 0.000000 0.000000 2.851330 
# 
# 
# High freq. dielectric constant tensor:
#      x y z
#    x 1.565800 0.000000 0.000000 
#    y 0.000000 1.565800 0.000000 
#    z 0.000000 0.000000 1.589080 
# 
# From -- ./inp_files/1252.got.cif
#   From: 2010.03.12/outbox.cif.g09.slc.cpg/sg163_1_cif.got.tgz:1252.got - 2010.04.02 06:30:25.
