data_PCOD8323839
_publ_section_title
;
Structure prediction by ZEFSAII (Michael W. Deem and Ramdas Pophale) SiO2 
 PCOD8323839
Probable space group: P -3 M 1
;
_chemical_formula_sum "Si O2"
_cell_formula_units_Z 72
_cell_length_a 17.522681
_cell_length_b 17.522681
_cell_length_c 18.479516
_cell_angle_alpha 90.000000
_cell_angle_beta 90.000000
_cell_angle_gamma 120.000000
_cell_volume 4913.854960
_symmetry_space_group_name_H-M "P -3 M 1"
_symmetry_group_IT_number 164
_symmetry_cell_setting 'hexagonal'
loop_
_space_group_symop_operation_xyz
x,y,z
-y,x-y,z
-x+y,-x,z
x-y,-y,-z
-x,-x+y,-z
y,x,-z
-x,-y,-z
y,-x+y,-z
x-y,x,-z
-x+y,y,z
x,x-y,z
-y,-x,z
loop_
_atom_site_type_symbol
_atom_site_label
_atom_site_fract_x
_atom_site_fract_y
_atom_site_fract_z
Si Si1 0.731910 0.639997 0.966241
Si Si2 0.423697 0.023275 0.838142
Si Si3 0.016053 0.598354 0.324915
Si Si4 0.843022 0.332968 0.563404
Si Si5 0.667153 0.510079 0.398173
Si Si6 0.667389 0.507077 0.093630
O O1 0.836373 0.672745 0.959150
O O2 0.684529 0.608239 0.888775
O O3 0.718580 0.718580 0.000000
O O4 0.683299 0.554770 0.016716
O O5 0.526336 0.052672 0.852701
O O6 0.407567 0.042893 0.756201
O O7 0.364161 0.918309 0.849048
O O8 0.013131 0.506566 0.333174
O O9 0.085475 0.667241 0.382009
O O10 0.919433 0.580560 0.346228
O O11 0.829375 0.414688 0.579409
O O12 0.752200 0.247801 0.581265
O O13 0.872965 0.334130 0.480974
O O14 0.756441 0.512882 0.377601
O O15 0.588833 0.411168 0.384919
O O16 0.756364 0.512728 0.123508
O O17 0.594261 0.405740 0.082047
#
# Coordination Sequence:
#
# PCOD8323839 Si02
#       6
#    12  12  12  12  12  12
#     4   9  17  29  45  62  79 101 129 161 195 232
#     4   9  17  28  40  56  80 108 134 159 191 231
#     4   9  17  27  38  54  78 106 133 162 197 233
#     4   9  16  26  40  56  74  99 133 170 203 234
#     4   9  16  26  40  57  77 103 135 167 196 227
#     4   9  16  26  41  60  81 105 133 163 192 223
#
# _framework density 14.652447
#
# number of rings (size 3 to 8) (size 9 to 14) (size 15 to 20)
#    0.000    3.000    0.000    1.500    0.000    6.667 
#    0.000    0.000    0.000    2.500    0.000    0.000 
#    0.000    0.000    0.000    0.500    0.000    7.500 
#
# Total GULP energy -892539.013482 kJ/mol
# GULP energy per Si atom -12396.375187 kJ/mol
# Density = 1.461910 g / cm^3
# Si number density = 14.652447 Si / 1000 Ang^3
#
#
#
# Elastic Constant Matrix: (Units=GPa)
#
#
# Indices 1 2 3 4 5 6 
#
# 1 61.7530 24.7282 26.0915 -0.6921 0.0000 0.0000
# 2 24.7282 61.7530 26.0915 0.6921 0.0000 0.0000
# 3 26.0915 26.0915 67.1067 0.0000 0.0000 0.0000
# 4 -0.6921 0.6921 0.0000 15.9663 0.0000 0.0000
# 5 0.0000 0.0000 0.0000 0.0000 15.9663 -0.6921
# 6 0.0000 0.0000 0.0000 0.0000 -0.6921 18.5124
#
#
#
# Elastic Compliance Matrix: (Units=1/GPa)
#
#
# Indices 1 2 3 4 5 6 
#
# 1 0.021080 -0.005973 -0.005874 0.001173 0.000000 0.000000
# 2 -0.005973 0.021080 -0.005874 -0.001173 0.000000 0.000000
# 3 -0.005874 -0.005874 0.019469 0.000000 0.000000 0.000000
# 4 0.001173 -0.001173 0.000000 0.062734 0.000000 0.000000
# 5 0.000000 0.000000 0.000000 0.000000 0.062734 0.002345
# 6 0.000000 0.000000 0.000000 0.000000 0.002345 0.054105
#
#
# Mechanical properties :
#
#
# Convention : Reuss Voigt Hill
#
# Bulk Modulus (GPa) = 38.18440 38.27059 38.22750
# Shear Modulus (GPa) = 17.52094 17.66909 17.59502
#
# Velocity S-wave (km/s) = 3.46174 3.47635 3.46905
# Velocity P-wave (km/s) = 6.48806 6.50299 6.49553
#
# Compressibility (1/GPa) = 0.02618870
#
# Stress axis : x y z
#
# Youngs Moduli (GPa) = 47.43803 47.43803 51.36295
#
# Poissons Ratio (x) = 0.28333 0.30170
# Poissons Ratio (y) = 0.28333 0.30170
# Poissons Ratio (z) = 0.27865 0.27865
#
# Static dielectric constant tensor:
#      x y z
#    x 2.765960 0.000000 0.000000 
#    y 0.000000 2.765960 0.000000 
#    z 0.000000 0.000000 2.907080 
# 
# 
# High freq. dielectric constant tensor:
#      x y z
#    x 1.538700 0.000000 0.000000 
#    y 0.000000 1.538700 0.000000 
#    z 0.000000 0.000000 1.565180 
# 
# From -- ./inp_files/4059.got.cif
#   From: 2010.03.12/outbox.cif.g09.slc.cpg/sg164_3_cif.got.tgz:4059.got - 2010.04.02 06:32:59.
