data_PCOD8323604
_publ_section_title
;
Structure prediction by ZEFSAII (Michael W. Deem and Ramdas Pophale) SiO2 
 PCOD8323604
Probable space group: P -3 M 1
;
_chemical_formula_sum "Si O2"
_cell_formula_units_Z 72
_cell_length_a 23.525092
_cell_length_b 23.525092
_cell_length_c 9.278847
_cell_angle_alpha 90.000000
_cell_angle_beta 90.000000
_cell_angle_gamma 120.000000
_cell_volume 4447.206608
_symmetry_space_group_name_H-M "P -3 M 1"
_symmetry_group_IT_number 164
_symmetry_cell_setting 'hexagonal'
loop_
_space_group_symop_operation_xyz
x,y,z
-y,x-y,z
-x+y,-x,z
x-y,-y,-z
-x,-x+y,-z
y,x,-z
-x,-y,-z
y,-x+y,-z
x-y,x,-z
-x+y,y,z
x,x-y,z
-y,-x,z
loop_
_atom_site_type_symbol
_atom_site_label
_atom_site_fract_x
_atom_site_fract_y
_atom_site_fract_z
Si Si1 0.073159 0.273227 0.334260
Si Si2 0.924676 0.527768 0.333206
Si Si3 0.924676 0.527768 0.666794
Si Si4 0.404717 0.137142 0.168252
Si Si5 0.404717 0.137142 0.831749
Si Si6 0.726773 0.799933 0.665741
O O1 0.123886 0.247772 0.297771
O O2 0.087234 0.334872 0.237403
O O3 0.080083 0.295916 0.500000
O O4 0.000000 0.214016 0.301086
O O5 0.908880 0.454440 0.299919
O O6 0.912090 0.535338 0.500000
O O7 0.875403 0.540121 0.237085
O O8 1.000000 0.579286 0.293001
O O9 0.908880 0.454440 0.700081
O O10 0.875403 0.540121 0.762915
O O11 0.424208 0.212104 0.199836
O O12 0.334872 0.087233 0.237403
O O13 0.399897 0.122210 0.000000
O O14 0.424209 0.212105 0.800164
O O15 0.752228 0.876114 0.702230
#
# Coordination Sequence:
#
# PCOD8323604 Si02
#       6
#    12  12  12  12  12  12
#     4   9  17  29  45  64  87 117 151 185 222 265
#     4   9  18  32  49  69  92 117 146 181 220 262
#     4   9  18  32  49  69  92 117 146 181 220 262
#     4  10  20  31  44  66  94 120 147 181 220 261
#     4  10  20  31  44  66  94 120 147 181 220 261
#     4   9  17  29  45  64  87 117 151 185 222 265
#
# _framework density 16.189938000000001
#
# number of rings (size 3 to 8) (size 9 to 14) (size 15 to 20)
#    0.000    2.667    0.000    3.000    0.000    8.000 
#    0.000    1.667    0.000    1.000    0.000    2.333 
#    0.000    0.000    0.000    8.333    0.000    8.667 
#
# Total GULP energy -892823.093964 kJ/mol
# GULP energy per Si atom -12400.320750 kJ/mol
# Density = 1.615309 g / cm^3
# Si number density = 16.189938 Si / 1000 Ang^3
#
#
#
# Elastic Constant Matrix: (Units=GPa)
#
#
# Indices 1 2 3 4 5 6 
#
# 1 107.1695 60.1516 55.9026 0.0000 0.0000 0.0000
# 2 60.1516 107.1695 55.9026 0.0000 0.0000 0.0000
# 3 55.9026 55.9026 80.7384 0.0000 0.0000 0.0000
# 4 0.0000 0.0000 0.0000 20.3654 0.0000 0.0000
# 5 0.0000 0.0000 0.0000 0.0000 20.3654 0.0000
# 6 0.0000 0.0000 0.0000 0.0000 0.0000 23.5089
#
#
#
# Elastic Compliance Matrix: (Units=1/GPa)
#
#
# Indices 1 2 3 4 5 6 
#
# 1 0.016195 -0.005073 -0.007701 0.000000 0.000000 0.000000
# 2 -0.005073 0.016195 -0.007701 0.000000 0.000000 0.000000
# 3 -0.007701 -0.007701 0.023050 0.000000 0.000000 0.000000
# 4 0.000000 0.000000 0.000000 0.049103 0.000000 0.000000
# 5 0.000000 0.000000 0.000000 0.000000 0.049103 0.000000
# 6 0.000000 0.000000 0.000000 0.000000 0.000000 0.042537
#
#
# Mechanical properties :
#
#
# Convention : Reuss Voigt Hill
#
# Bulk Modulus (GPa) = 69.01042 70.99899 70.00471
# Shear Modulus (GPa) = 20.66419 21.05598 20.86009
#
# Velocity S-wave (km/s) = 3.57649 3.61024 3.59341
# Velocity P-wave (km/s) = 7.73131 7.83118 7.78141
#
# Compressibility (1/GPa) = 0.01449056
#
# Stress axis : x y z
#
# Youngs Moduli (GPa) = 61.74563 61.74563 43.38392
#
# Poissons Ratio (x) = 0.31324 0.33410
# Poissons Ratio (y) = 0.31324 0.33410
# Poissons Ratio (z) = 0.47551 0.47551
#
# Static dielectric constant tensor:
#      x y z
#    x 3.011310 0.000000 0.000000 
#    y 0.000000 3.011310 0.000000 
#    z 0.000000 0.000000 3.084410 
# 
# 
# High freq. dielectric constant tensor:
#      x y z
#    x 1.611720 0.000000 0.000000 
#    y 0.000000 1.611720 0.000000 
#    z 0.000000 0.000000 1.625870 
# 
# From -- ./inp_files/1885.got.cif
#   From: 2010.03.12/outbox.cif.g09.slc.cpg/sg164_1_cif.got.tgz:1885.got - 2010.04.02 06:32:59.
