data_PCOD8323448
_publ_section_title
;
Structure prediction by ZEFSAII (Michael W. Deem and Ramdas Pophale) SiO2 
 PCOD8323448
Probable space group: P -3 M 1
;
_chemical_formula_sum "Si O2"
_cell_formula_units_Z 72
_cell_length_a 23.327241
_cell_length_b 23.327241
_cell_length_c 8.721339
_cell_angle_alpha 90.000000
_cell_angle_beta 90.000000
_cell_angle_gamma 120.000000
_cell_volume 4109.987983
_symmetry_space_group_name_H-M "P -3 M 1"
_symmetry_group_IT_number 164
_symmetry_cell_setting 'hexagonal'
loop_
_space_group_symop_operation_xyz
x,y,z
-y,x-y,z
-x+y,-x,z
x-y,-y,-z
-x,-x+y,-z
y,x,-z
-x,-y,-z
y,-x+y,-z
x-y,x,-z
-x+y,y,z
x,x-y,z
-y,-x,z
loop_
_atom_site_type_symbol
_atom_site_label
_atom_site_fract_x
_atom_site_fract_y
_atom_site_fract_z
Si Si1 0.347707 0.932222 0.937152
Si Si2 0.890809 0.656075 0.845763
Si Si3 0.272325 0.069741 0.548333
Si Si4 0.299375 0.473676 0.362149
Si Si5 0.664504 0.200852 0.939930
Si Si6 0.932143 0.327330 0.420494
O O1 0.350100 0.866048 0.973390
O O2 0.343570 0.937605 0.756780
O O3 0.284082 0.930873 0.016695
O O4 0.411926 0.000000 0.000000
O O5 0.834427 0.668853 0.917783
O O6 0.936889 0.715187 0.729172
O O7 0.857021 0.590950 0.742991
O O8 0.256784 0.128392 0.517988
O O9 0.336017 0.083560 0.447110
O O10 0.209017 0.000000 0.500000
O O11 0.243256 0.486511 0.435284
O O12 0.338257 0.463435 0.502554
O O13 0.344693 0.532394 0.244109
O O14 0.609767 0.219533 0.993644
O O15 0.738323 0.261678 0.978831
O O16 0.000000 0.379427 0.500000
#
# Coordination Sequence:
#
# PCOD8323448 Si02
#       6
#    12  12  12  12  12  12
#     4  11  20  31  51  78 108 136 163 201 251 308
#     4   8  15  28  44  66  97 129 160 196 240 291
#     4   9  16  27  43  64  94 131 170 210 250 297
#     4   8  15  29  48  68  91 121 158 199 239 283
#     4  10  21  38  58  77  99 131 172 214 254 298
#     4  10  18  29  47  73 103 133 161 193 242 305
#
# _framework density 17.518301000000001
#
# number of rings (size 3 to 8) (size 9 to 14) (size 15 to 20)
#    0.000    2.667    0.000    7.167    0.000    3.000 
#    0.000    0.833    0.000    2.167    0.000    2.333 
#    0.000    0.000    0.000    0.000    0.000   44.833 
#
# Total GULP energy -892069.234718 kJ/mol
# GULP energy per Si atom -12389.850482 kJ/mol
# Density = 1.747843 g / cm^3
# Si number density = 17.518301 Si / 1000 Ang^3
#
#
#
# Elastic Constant Matrix: (Units=GPa)
#
#
# Indices 1 2 3 4 5 6 
#
# 1 81.6092 45.3848 35.9508 -2.3737 0.0000 0.0000
# 2 45.3848 81.6092 35.9508 2.3737 0.0000 0.0000
# 3 35.9508 35.9508 115.5139 0.0000 0.0000 0.0000
# 4 -2.3737 2.3737 0.0000 18.7448 0.0000 0.0000
# 5 0.0000 0.0000 0.0000 0.0000 18.7448 -2.3737
# 6 0.0000 0.0000 0.0000 0.0000 -2.3737 18.1122
#
#
#
# Elastic Compliance Matrix: (Units=1/GPa)
#
#
# Indices 1 2 3 4 5 6 
#
# 1 0.018815 -0.009256 -0.002975 0.003555 0.000000 0.000000
# 2 -0.009256 0.018815 -0.002975 -0.003555 0.000000 0.000000
# 3 -0.002975 -0.002975 0.010509 0.000000 0.000000 0.000000
# 4 0.003555 -0.003555 0.000000 0.054248 0.000000 0.000000
# 5 0.000000 0.000000 0.000000 0.000000 0.054248 0.007110
# 6 0.000000 0.000000 0.000000 0.000000 0.007110 0.056143
#
#
# Mechanical properties :
#
#
# Convention : Reuss Voigt Hill
#
# Bulk Modulus (GPa) = 56.41271 57.03391 56.72331
# Shear Modulus (GPa) = 20.07222 21.88341 20.97781
#
# Velocity S-wave (km/s) = 3.38862 3.53820 3.46422
# Velocity P-wave (km/s) = 6.89800 7.02277 6.96066
#
# Compressibility (1/GPa) = 0.01772650
#
# Stress axis : x y z
#
# Youngs Moduli (GPa) = 53.14862 53.14862 95.15922
#
# Poissons Ratio (x) = 0.49197 0.28309
# Poissons Ratio (y) = 0.49197 0.28309
# Poissons Ratio (z) = 0.15811 0.15811
#
# Static dielectric constant tensor:
#      x y z
#    x 3.253990 0.000000 0.000000 
#    y 0.000000 3.253990 0.000000 
#    z 0.000000 0.000000 3.281570 
# 
# 
# High freq. dielectric constant tensor:
#      x y z
#    x 1.656300 0.000000 0.000000 
#    y 0.000000 1.656300 0.000000 
#    z 0.000000 0.000000 1.666810 
# 
# From -- ./inp_files/1971.got.cif
#   From: 2010.03.12/outbox.cif.g09.slc.cpg/sg164_1_cif.got.tgz:1971.got - 2010.04.02 06:32:59.
