data_PCOD8323774
_publ_section_title
;
Structure prediction by ZEFSAII (Michael W. Deem and Ramdas Pophale) SiO2 
 PCOD8323774
Probable space group: P -3 M 1
;
_chemical_formula_sum "Si O2"
_cell_formula_units_Z 84
_cell_length_a 17.697980
_cell_length_b 17.697980
_cell_length_c 15.166843
_cell_angle_alpha 90.000000
_cell_angle_beta 90.000000
_cell_angle_gamma 120.000000
_cell_volume 4114.084645
_symmetry_space_group_name_H-M "P -3 M 1"
_symmetry_group_IT_number 164
_symmetry_cell_setting 'hexagonal'
loop_
_space_group_symop_operation_xyz
x,y,z
-y,x-y,z
-x+y,-x,z
x-y,-y,-z
-x,-x+y,-z
y,x,-z
-x,-y,-z
y,-x+y,-z
x-y,x,-z
-x+y,y,z
x,x-y,z
-y,-x,z
loop_
_atom_site_type_symbol
_atom_site_label
_atom_site_fract_x
_atom_site_fract_y
_atom_site_fract_z
Si Si1 0.831996 0.000057 0.603070
Si Si2 0.091066 0.351567 0.112042
Si Si3 0.157666 0.666720 0.760901
Si Si4 0.361534 0.270052 0.392551
Si Si5 0.333366 0.840281 0.257109
Si Si6 0.510045 0.666667 0.457251
Si Si7 0.899382 0.630686 0.086137
O O1 0.839443 0.919722 0.645956
O O2 0.736608 0.990710 0.618580
O O3 0.847538 0.000000 0.500000
O O4 0.907244 0.092757 0.643442
O O5 0.156887 0.313774 0.127033
O O6 0.101837 0.418429 0.188066
O O7 0.990941 0.275100 0.112135
O O8 0.108701 0.397637 0.016075
O O9 0.151976 0.575988 0.741869
O O10 0.257418 0.742583 0.749765
O O11 0.095435 0.678013 0.691858
O O12 0.120648 0.665857 0.858193
O O13 0.349728 0.174864 0.400732
O O14 0.411431 0.323615 0.480684
O O15 0.424974 0.849948 0.231767
O O16 0.260762 0.739239 0.248522
O O17 0.334666 0.873740 0.356531
O O18 0.490600 0.745300 0.473639
O O19 0.422154 0.577847 0.481170
O O20 0.830095 0.660189 0.112123
#
# Coordination Sequence:
#
# PCOD8323774 Si02
#       7
#    12  12  12  12  12  12  12
#     4   9  17  32  55  80 103 134 177 228 281 334
#     4   9  18  35  58  83 107 137 176 220 275 338
#     4  10  20  35  55  80 111 149 191 230 266 311
#     4   9  18  32  50  74 108 145 183 225 270 315
#     4   9  17  29  48  76 110 144 182 225 273 325
#     4   9  16  28  48  74 106 145 187 229 268 314
#     4   9  19  36  58  81 108 139 176 224 276 327
#
# _framework density 20.417663999999998
#
# number of rings (size 3 to 8) (size 9 to 14) (size 15 to 20)
#    0.000    2.857    0.000    1.000    0.000    2.857 
#    2.571    3.571    0.000    2.857    0.000    2.000 
#    0.000    0.000    0.000    4.714    0.000    0.000 
#
# Total GULP energy -1041270.864341 kJ/mol
# GULP energy per Si atom -12396.081718 kJ/mol
# Density = 2.037119 g / cm^3
# Si number density = 20.417664 Si / 1000 Ang^3
#
#
#
# Elastic Constant Matrix: (Units=GPa)
#
#
# Indices 1 2 3 4 5 6 
#
# 1 117.1666 62.5116 49.8672 0.0012 0.0000 0.0000
# 2 62.5116 117.1666 49.8672 -0.0012 0.0000 0.0000
# 3 49.8672 49.8672 99.5200 0.0000 0.0000 0.0000
# 4 0.0012 -0.0012 0.0000 15.5107 0.0000 0.0000
# 5 0.0000 0.0000 0.0000 0.0000 15.5107 0.0012
# 6 0.0000 0.0000 0.0000 0.0000 0.0012 27.3275
#
#
#
# Elastic Compliance Matrix: (Units=1/GPa)
#
#
# Indices 1 2 3 4 5 6 
#
# 1 0.013003 -0.005293 -0.003863 -0.000001 0.000000 0.000000
# 2 -0.005293 0.013003 -0.003863 0.000001 0.000000 0.000000
# 3 -0.003863 -0.003863 0.013920 0.000000 0.000000 0.000000
# 4 -0.000001 0.000001 0.000000 0.064472 0.000000 0.000000
# 5 0.000000 0.000000 0.000000 0.000000 0.064472 -0.000003
# 6 0.000000 0.000000 0.000000 0.000000 -0.000003 0.036593
#
#
# Mechanical properties :
#
#
# Convention : Reuss Voigt Hill
#
# Bulk Modulus (GPa) = 72.01197 73.14948 72.58073
# Shear Modulus (GPa) = 21.17464 23.11024 22.14244
#
# Velocity S-wave (km/s) = 3.22386 3.36798 3.29671
# Velocity P-wave (km/s) = 7.01453 7.14344 7.07928
#
# Compressibility (1/GPa) = 0.01388658
#
# Stress axis : x y z
#
# Youngs Moduli (GPa) = 76.90385 76.90385 71.84009
#
# Poissons Ratio (x) = 0.40708 0.27754
# Poissons Ratio (y) = 0.40708 0.27754
# Poissons Ratio (z) = 0.29710 0.29710
#
# Static dielectric constant tensor:
#      x y z
#    x 3.700250 0.000000 0.000000 
#    y 0.000000 3.700250 0.000000 
#    z 0.000000 0.000000 3.793200 
# 
# 
# High freq. dielectric constant tensor:
#      x y z
#    x 1.790760 0.000000 0.000000 
#    y 0.000000 1.790760 0.000000 
#    z 0.000000 0.000000 1.792060 
# 
# From -- ./inp_files/3584.got.cif
#   From: 2010.03.12/outbox.cif.g09.slc.cpg/sg164_2_cif.got.tgz:3584.got - 2010.04.02 06:32:59.
