data_PCOD8323118
_publ_section_title
;
Structure prediction by ZEFSAII (Michael W. Deem and Ramdas Pophale) SiO2 
 PCOD8323118
Probable space group: P -3 1 M 
;
_chemical_formula_sum "Si O2"
_cell_formula_units_Z 84
_cell_length_a 21.472363
_cell_length_b 21.472363
_cell_length_c 11.257612
_cell_angle_alpha 90.000000
_cell_angle_beta 90.000000
_cell_angle_gamma 120.000000
_cell_volume 4495.071344
_symmetry_space_group_name_H-M "P -3 1 M "
_symmetry_group_IT_number 162
_symmetry_cell_setting 'hexagonal'
loop_
_space_group_symop_operation_xyz
x,y,z
-y,x-y,z
-x+y,-x,z
-y,-x,-z
-x+y,y,-z
x,x-y,-z
-x,-y,-z
y,-x+y,-z
x-y,x,-z
y,x,z
x-y,-y,z
-x,-x+y,z
loop_
_atom_site_type_symbol
_atom_site_label
_atom_site_fract_x
_atom_site_fract_y
_atom_site_fract_z
Si Si1 0.836906 0.918244 0.634191
Si Si2 0.324229 0.406684 0.211131
Si Si3 0.289454 0.208644 0.742505
Si Si4 0.584284 0.788744 0.635424
Si Si5 0.296547 0.378714 0.948402
Si Si6 0.783374 0.297287 0.165958
Si Si7 0.626574 0.182944 0.121530
O O1 0.804617 0.902309 0.500000
O O2 0.865890 0.865890 0.671811
O O3 0.776190 0.903720 0.731418
O O4 0.901939 0.000000 0.638914
O O5 0.371607 0.371607 0.250853
O O6 0.268668 0.393310 0.317307
O O7 0.377887 0.491342 0.184858
O O8 0.279669 0.370986 0.089216
O O9 0.263435 0.263435 0.700296
O O10 0.350538 0.219592 0.650834
O O11 0.319549 0.225802 0.877638
O O12 0.560732 0.780366 0.500000
O O13 0.516404 0.778438 0.707986
O O14 0.363159 0.363159 0.924390
O O15 0.313525 0.458047 0.907923
O O16 0.709529 0.243286 0.095832
O O17 0.786125 0.371622 0.200819
O O18 0.580906 0.161812 0.000000
#
# Coordination Sequence:
#
# PCOD8323118 Si02
#       7
#    12  12  12  12  12  12  12
#     4   9  16  26  42  69 106 146 188 233 277 321
#     4  10  22  37  56  83 113 142 180 229 284 338
#     4   9  18  31  52  77 104 140 187 230 274 335
#     4  10  22  38  57  78 110 151 188 228 275 322
#     4   9  18  35  55  79 111 143 172 222 284 331
#     4  10  21  35  54  85 116 143 185 225 270 323
#     4  11  20  32  56  85 115 146 178 224 275 326
#
# _framework density 18.687132999999999
#
# number of rings (size 3 to 8) (size 9 to 14) (size 15 to 20)
#    0.000    2.286    1.429    1.286    2.000    4.286 
#    0.000    2.857    0.000    1.714    0.000    0.000 
#    0.000    0.000    0.000   19.286    0.000    2.857 
#
# Total GULP energy -1040932.909014 kJ/mol
# GULP energy per Si atom -12392.058441 kJ/mol
# Density = 1.864460 g / cm^3
# Si number density = 18.687133 Si / 1000 Ang^3
#
#
#
# Elastic Constant Matrix: (Units=GPa)
#
#
# Indices 1 2 3 4 5 6 
#
# 1 109.8837 53.1825 34.7740 0.0000 -1.9684 0.0000
# 2 53.1825 109.8837 34.7740 0.0000 1.9684 0.0000
# 3 34.7740 34.7740 79.9896 0.0000 0.0000 0.0000
# 4 0.0000 0.0000 0.0000 19.8625 0.0000 1.9684
# 5 -1.9684 1.9684 0.0000 0.0000 19.8625 0.0000
# 6 0.0000 0.0000 0.0000 1.9684 0.0000 28.3506
#
#
#
# Elastic Compliance Matrix: (Units=1/GPa)
#
#
# Indices 1 2 3 4 5 6 
#
# 1 0.012643 -0.005115 -0.003273 0.000000 0.001760 0.000000
# 2 -0.005115 0.012643 -0.003273 0.000000 -0.001760 0.000000
# 3 -0.003273 -0.003273 0.015347 0.000000 0.000000 0.000000
# 4 0.000000 0.000000 0.000000 0.050695 0.000000 -0.003520
# 5 0.001760 -0.001760 0.000000 0.000000 0.050695 0.000000
# 6 0.000000 0.000000 0.000000 -0.003520 0.000000 0.035517
#
#
# Mechanical properties :
#
#
# Convention : Reuss Voigt Hill
#
# Bulk Modulus (GPa) = 57.76120 60.57978 59.17049
# Shear Modulus (GPa) = 24.19749 25.41691 24.80720
#
# Velocity S-wave (km/s) = 3.60234 3.69199 3.64744
# Velocity P-wave (km/s) = 6.94832 7.11777 7.03356
#
# Compressibility (1/GPa) = 0.01731266
#
# Stress axis : x y z
#
# Youngs Moduli (GPa) = 79.09261 79.09261 65.15846
#
# Poissons Ratio (x) = 0.40456 0.21325
# Poissons Ratio (y) = 0.40456 0.21325
# Poissons Ratio (z) = 0.25885 0.25885
#
# Static dielectric constant tensor:
#      x y z
#    x 3.752180 0.000000 0.000000 
#    y 0.000000 3.752180 0.000000 
#    z 0.000000 0.000000 3.221820 
# 
# 
# High freq. dielectric constant tensor:
#      x y z
#    x 1.729170 0.000000 0.000000 
#    y 0.000000 1.729170 0.000000 
#    z 0.000000 0.000000 1.696870 
# 
# From -- ./inp_files/2513.got.cif
#   From: 2010.03.12/outbox.cif.g09.slc.cpg/sg162_2_cif.got.tgz:2513.got - 2010.04.02 06:27:41.
