data_PCOD8323516
_publ_section_title
;
Structure prediction by ZEFSAII (Michael W. Deem and Ramdas Pophale) SiO2 
 PCOD8323516
Probable space group: P -3 M 1
;
_chemical_formula_sum "Si O2"
_cell_formula_units_Z 48
_cell_length_a 17.227549
_cell_length_b 17.227549
_cell_length_c 10.703967
_cell_angle_alpha 90.000000
_cell_angle_beta 90.000000
_cell_angle_gamma 120.000000
_cell_volume 2751.201382
_symmetry_space_group_name_H-M "P -3 M 1"
_symmetry_group_IT_number 164
_symmetry_cell_setting 'hexagonal'
loop_
_space_group_symop_operation_xyz
x,y,z
-y,x-y,z
-x+y,-x,z
x-y,-y,-z
-x,-x+y,-z
y,x,-z
-x,-y,-z
y,-x+y,-z
x-y,x,-z
-x+y,y,z
x,x-y,z
-y,-x,z
loop_
_atom_site_type_symbol
_atom_site_label
_atom_site_fract_x
_atom_site_fract_y
_atom_site_fract_z
Si Si1 0.510379 0.663210 0.953294
Si Si2 0.000000 0.183081 0.000000
Si Si3 0.769775 0.722158 0.739252
Si Si4 0.177133 0.000000 0.500000
Si Si5 0.426436 0.024566 0.810753
O O1 0.533345 0.766673 0.946649
O O2 0.402806 0.597195 0.946549
O O3 0.549223 0.643167 0.076505
O O4 0.558270 0.638787 0.843325
O O5 0.994787 0.233405 0.875761
O O6 0.085444 0.170887 0.989319
O O7 0.853571 0.707142 0.727974
O O8 0.766429 0.782350 0.626695
O O9 0.679626 0.627373 0.715779
O O10 0.082056 0.917945 0.471637
O O11 0.518353 0.036705 0.751726
#
# Coordination Sequence:
#
# PCOD8323516 Si02
#       5
#    12   6  12   6  12
#     4   9  16  26  42  65  94 126 158 193 236 286
#     4  10  19  30  47  72 102 134 166 200 239 284
#     4  10  20  33  50  72  97 127 163 200 237 281
#     4  10  21  36  53  74 102 134 164 192 225 270
#     4   9  18  30  44  65  92 122 156 198 245 285
#
# _framework density 17.446925
#
# number of rings (size 3 to 8) (size 9 to 14) (size 15 to 20)
#    0.000    2.500    0.000    5.000    0.000    4.000 
#    0.000    3.125    0.000    0.500    0.000    0.000 
#    0.000    2.000    0.000    0.000    0.000    0.000 
#
# Total GULP energy -594638.467843 kJ/mol
# GULP energy per Si atom -12388.301413 kJ/mol
# Density = 1.740721 g / cm^3
# Si number density = 17.446925 Si / 1000 Ang^3
#
#
#
# Elastic Constant Matrix: (Units=GPa)
#
#
# Indices 1 2 3 4 5 6 
#
# 1 74.2854 61.7003 26.9576 -4.7078 0.0000 0.0000
# 2 61.7003 74.2854 26.9576 4.7078 0.0000 0.0000
# 3 26.9576 26.9576 84.7106 0.0000 0.0000 0.0000
# 4 -4.7078 4.7078 0.0000 15.3711 0.0000 0.0000
# 5 0.0000 0.0000 0.0000 0.0000 15.3711 -4.7078
# 6 0.0000 0.0000 0.0000 0.0000 -4.7078 6.2926
#
#
#
# Elastic Compliance Matrix: (Units=1/GPa)
#
#
# Indices 1 2 3 4 5 6 
#
# 1 0.055747 -0.047331 -0.002678 0.031570 0.000000 0.000000
# 2 -0.047331 0.055747 -0.002678 -0.031570 0.000000 0.000000
# 3 -0.002678 -0.002678 0.013509 0.000000 0.000000 0.000000
# 4 0.031570 -0.031570 0.000000 0.084396 0.000000 0.000000
# 5 0.000000 0.000000 0.000000 0.000000 0.084396 0.063141
# 6 0.000000 0.000000 0.000000 0.000000 0.063141 0.206156
#
#
# Mechanical properties :
#
#
# Convention : Reuss Voigt Hill
#
# Bulk Modulus (GPa) = 50.94738 51.61249 51.27993
# Shear Modulus (GPa) = 8.17169 15.25136 11.71153
#
# Velocity S-wave (km/s) = 2.16654 2.95982 2.59369
# Velocity P-wave (km/s) = 5.96014 6.42865 6.19882
#
# Compressibility (1/GPa) = 0.01962810
#
# Stress axis : x y z
#
# Youngs Moduli (GPa) = 17.93823 17.93823 74.02249
#
# Poissons Ratio (x) = 0.84904 0.19824
# Poissons Ratio (y) = 0.84904 0.19824
# Poissons Ratio (z) = 0.04804 0.04804
#
# Static dielectric constant tensor:
#      x y z
#    x 3.383120 0.000000 0.000000 
#    y 0.000000 3.383120 0.000000 
#    z 0.000000 0.000000 3.805370 
# 
# 
# High freq. dielectric constant tensor:
#      x y z
#    x 1.681930 0.000000 0.000000 
#    y 0.000000 1.681930 0.000000 
#    z 0.000000 0.000000 1.629980 
# 
# From -- ./inp_files/2463.got.cif
#   From: 2010.03.12/outbox.cif.g09.slc.cpg/sg164_2_cif.got.tgz:2463.got - 2010.04.02 06:32:59.
