data_PCOD8323470
_publ_section_title
;
Structure prediction by ZEFSAII (Michael W. Deem and Ramdas Pophale) SiO2 
 PCOD8323470
Probable space group: P -3 M 1
;
_chemical_formula_sum "Si O2"
_cell_formula_units_Z 60
_cell_length_a 19.873694
_cell_length_b 19.873694
_cell_length_c 10.019544
_cell_angle_alpha 90.000000
_cell_angle_beta 90.000000
_cell_angle_gamma 120.000000
_cell_volume 3427.171090
_symmetry_space_group_name_H-M "P -3 M 1"
_symmetry_group_IT_number 164
_symmetry_cell_setting 'hexagonal'
loop_
_space_group_symop_operation_xyz
x,y,z
-y,x-y,z
-x+y,-x,z
x-y,-y,-z
-x,-x+y,-z
y,x,-z
-x,-y,-z
y,-x+y,-z
x-y,x,-z
-x+y,y,z
x,x-y,z
-y,-x,z
loop_
_atom_site_type_symbol
_atom_site_label
_atom_site_fract_x
_atom_site_fract_y
_atom_site_fract_z
Si Si1 0.080151 0.306858 0.749462
Si Si2 0.290695 0.863790 0.517216
Si Si3 0.594642 0.686191 0.988388
Si Si4 0.660665 0.755061 0.257656
Si Si5 0.075556 0.537778 0.908401
Si Si6 0.462444 0.924887 0.594176
O O1 0.131837 0.263674 0.740091
O O2 0.092277 0.356697 0.618823
O O3 0.988010 0.248125 0.764392
O O4 0.114210 0.363825 0.875358
O O5 0.227662 0.772339 0.507950
O O6 0.300115 0.907339 0.376506
O O7 0.371766 0.872240 0.560835
O O8 0.604697 0.728493 0.128838
O O9 0.632923 0.632923 0.000000
O O10 0.504253 0.629607 0.946041
O O11 0.689049 0.844525 0.290964
O O12 0.052263 0.526132 0.751074
O O13 0.000000 0.500000 0.000000
O O14 0.500000 0.000000 0.500000
#
# Coordination Sequence:
#
# PCOD8323470 Si02
#       6
#    12  12  12  12   6   6
#     4  10  18  32  52  75 104 137 176 220 266 319
#     4  10  22  36  52  79 109 139 175 217 272 323
#     4   9  18  30  48  71 104 134 166 210 264 311
#     4  10  20  34  51  76 108 142 176 222 272 321
#     4  10  20  32  48  82 112 136 168 222 272 312
#     4  12  22  34  60  84 108 142 188 228 270 318
#
# _framework density 17.507151
#
# number of rings (size 3 to 8) (size 9 to 14) (size 15 to 20)
#    0.000    2.000    2.000    2.400    5.600    0.000 
#    0.600    0.000    0.000    0.400    0.000    0.000 
#    1.000    9.600    0.000    0.000    0.000    1.600 
#
# Total GULP energy -743640.568899 kJ/mol
# GULP energy per Si atom -12394.009482 kJ/mol
# Density = 1.746730 g / cm^3
# Si number density = 17.507151 Si / 1000 Ang^3
#
#
#
# Elastic Constant Matrix: (Units=GPa)
#
#
# Indices 1 2 3 4 5 6 
#
# 1 87.8602 38.3627 26.3021 -3.1674 0.0000 0.0000
# 2 38.3627 87.8602 26.3021 3.1674 0.0000 0.0000
# 3 26.3021 26.3021 140.8774 0.0000 0.0000 0.0000
# 4 -3.1674 3.1674 0.0000 26.3241 0.0000 0.0000
# 5 0.0000 0.0000 0.0000 0.0000 26.3241 -3.1674
# 6 0.0000 0.0000 0.0000 0.0000 -3.1674 24.7487
#
#
#
# Elastic Compliance Matrix: (Units=1/GPa)
#
#
# Indices 1 2 3 4 5 6 
#
# 1 0.014555 -0.005964 -0.001604 0.002469 0.000000 0.000000
# 2 -0.005964 0.014555 -0.001604 -0.002469 0.000000 0.000000
# 3 -0.001604 -0.001604 0.007697 0.000000 0.000000 0.000000
# 4 0.002469 -0.002469 0.000000 0.038582 0.000000 0.000000
# 5 0.000000 0.000000 0.000000 0.000000 0.038582 0.004938
# 6 0.000000 0.000000 0.000000 0.000000 0.004938 0.041038
#
#
# Mechanical properties :
#
#
# Convention : Reuss Voigt Hill
#
# Bulk Modulus (GPa) = 54.16122 55.39241 54.77682
# Shear Modulus (GPa) = 27.85393 30.52144 29.18769
#
# Velocity S-wave (km/s) = 3.99307 4.17990 4.08755
# Velocity P-wave (km/s) = 7.22933 7.41647 7.32350
#
# Compressibility (1/GPa) = 0.01846339
#
# Stress axis : x y z
#
# Youngs Moduli (GPa) = 68.70500 68.70500 129.91585
#
# Poissons Ratio (x) = 0.40976 0.20838
# Poissons Ratio (y) = 0.40976 0.20838
# Poissons Ratio (z) = 0.11020 0.11020
#
# Static dielectric constant tensor:
#      x y z
#    x 3.013280 0.000000 0.000000 
#    y 0.000000 3.013280 0.000000 
#    z 0.000000 0.000000 3.641510 
# 
# 
# High freq. dielectric constant tensor:
#      x y z
#    x 1.653800 0.000000 0.000000 
#    y 0.000000 1.653800 0.000000 
#    z 0.000000 0.000000 1.703830 
# 
# From -- ./inp_files/1634.got.cif
#   From: 2010.03.12/outbox.cif.g09.slc.cpg/sg164_1_cif.got.tgz:1634.got - 2010.04.02 06:32:59.
