data_PCOD8323392
_publ_section_title
;
Structure prediction by ZEFSAII (Michael W. Deem and Ramdas Pophale) SiO2 
 PCOD8323392
Probable space group: P -3 M 1
;
_chemical_formula_sum "Si O2"
_cell_formula_units_Z 84
_cell_length_a 16.617680
_cell_length_b 16.617680
_cell_length_c 23.638067
_cell_angle_alpha 90.000000
_cell_angle_beta 90.000000
_cell_angle_gamma 120.000000
_cell_volume 5653.057128
_symmetry_space_group_name_H-M "P -3 M 1"
_symmetry_group_IT_number 164
_symmetry_cell_setting 'hexagonal'
loop_
_space_group_symop_operation_xyz
x,y,z
-y,x-y,z
-x+y,-x,z
x-y,-y,-z
-x,-x+y,-z
y,x,-z
-x,-y,-z
y,-x+y,-z
x-y,x,-z
-x+y,y,z
x,x-y,z
-y,-x,z
loop_
_atom_site_type_symbol
_atom_site_label
_atom_site_fract_x
_atom_site_fract_y
_atom_site_fract_z
Si Si1 0.372382 0.274372 0.019860
Si Si2 0.144580 0.476727 0.532589
Si Si3 0.423417 0.387790 0.806207
Si Si4 0.047487 0.428804 0.417874
Si Si5 0.669539 0.154347 0.907118
Si Si6 0.333747 0.478239 0.866960
Si Si7 0.474614 0.332683 0.696326
O O1 0.330458 0.165229 0.031969
O O2 0.426164 0.332988 0.075190
O O3 0.287747 0.287747 0.000000
O O4 0.444746 0.307932 0.969427
O O5 0.237737 0.475474 0.549782
O O6 0.164121 0.582061 0.536837
O O7 0.114089 0.436104 0.469367
O O8 0.059760 0.406771 0.573759
O O9 0.527277 0.472724 0.806652
O O10 0.410918 0.320531 0.859136
O O11 0.350858 0.425170 0.814716
O O12 0.410109 0.334431 0.747191
O O13 0.044583 0.522292 0.416081
O O14 0.091161 0.416737 0.360102
O O15 0.565521 0.131041 0.908090
O O16 0.738942 0.261059 0.890452
O O17 0.238316 0.476632 0.855706
O O18 0.415751 0.584250 0.871337
O O19 0.486442 0.243221 0.702162
O O20 0.577055 0.422946 0.695655
#
# Coordination Sequence:
#
# PCOD8323392 Si02
#       7
#    12  12  12  12  12  12  12
#     4  10  19  30  46  65  87 111 138 175 218 263
#     4   9  15  25  41  62  87 119 153 183 211 247
#     4   9  18  29  42  58  82 112 140 176 217 246
#     4   8  16  27  39  59  89 117 144 181 222 251
#     4  10  18  27  40  60  86 114 140 168 205 253
#     4  10  19  31  46  63  84 114 149 181 211 250
#     4  10  18  29  44  63  86 115 147 177 210 255
#
# _framework density 14.859216
#
# number of rings (size 3 to 8) (size 9 to 14) (size 15 to 20)
#    0.000    2.571    1.429    2.714    0.000    0.571 
#    0.000    5.000    0.000    0.143    0.000    2.000 
#    0.000    0.000    0.000   53.857    0.000    0.000 
#
# Total GULP energy -1040910.049509 kJ/mol
# GULP energy per Si atom -12391.786304 kJ/mol
# Density = 1.482540 g / cm^3
# Si number density = 14.859216 Si / 1000 Ang^3
#
#
#
# Elastic Constant Matrix: (Units=GPa)
#
#
# Indices 1 2 3 4 5 6 
#
# 1 72.8192 32.0521 32.3212 -0.5489 0.0000 0.0000
# 2 32.0521 72.8192 32.3212 0.5489 0.0000 0.0000
# 3 32.3212 32.3212 91.2469 0.0000 0.0000 0.0000
# 4 -0.5489 0.5489 0.0000 17.6620 0.0000 0.0000
# 5 0.0000 0.0000 0.0000 0.0000 17.6620 -0.5489
# 6 0.0000 0.0000 0.0000 0.0000 -0.5489 20.3835
#
#
#
# Elastic Compliance Matrix: (Units=1/GPa)
#
#
# Indices 1 2 3 4 5 6 
#
# 1 0.018375 -0.006176 -0.004321 0.000763 0.000000 0.000000
# 2 -0.006176 0.018375 -0.004321 -0.000763 0.000000 0.000000
# 3 -0.004321 -0.004321 0.014020 0.000000 0.000000 0.000000
# 4 0.000763 -0.000763 0.000000 0.056666 0.000000 0.000000
# 5 0.000000 0.000000 0.000000 0.000000 0.056666 0.001526
# 6 0.000000 0.000000 0.000000 0.000000 0.001526 0.049100
#
#
# Mechanical properties :
#
#
# Convention : Reuss Voigt Hill
#
# Bulk Modulus (GPa) = 47.31687 47.80827 47.56257
# Shear Modulus (GPa) = 20.00941 20.48757 20.24849
#
# Velocity S-wave (km/s) = 3.67359 3.71722 3.69547
# Velocity P-wave (km/s) = 7.06443 7.11812 7.09133
#
# Compressibility (1/GPa) = 0.02113411
#
# Stress axis : x y z
#
# Youngs Moduli (GPa) = 54.42306 54.42306 71.32426
#
# Poissons Ratio (x) = 0.33609 0.30820
# Poissons Ratio (y) = 0.33609 0.30820
# Poissons Ratio (z) = 0.23517 0.23517
#
# Static dielectric constant tensor:
#      x y z
#    x 2.808110 0.000000 0.000000 
#    y 0.000000 2.808110 0.000000 
#    z 0.000000 0.000000 3.220260 
# 
# 
# High freq. dielectric constant tensor:
#      x y z
#    x 1.547360 0.000000 0.000000 
#    y 0.000000 1.547360 0.000000 
#    z 0.000000 0.000000 1.570210 
# 
# From -- ./inp_files/4612.got.cif
#   From: 2010.03.12/outbox.cif.g09.slc.cpg/sg164_3_cif.got.tgz:4612.got - 2010.04.02 06:32:59.
