data_PCOD8323942
_publ_section_title
;
Structure prediction by ZEFSAII (Michael W. Deem and Ramdas Pophale) SiO2 
 PCOD8323942
Probable space group: P -3 C 1
;
_chemical_formula_sum "Si O2"
_cell_formula_units_Z 52
_cell_length_a 14.370538
_cell_length_b 14.370538
_cell_length_c 13.794015
_cell_angle_alpha 90.000000
_cell_angle_beta 90.000000
_cell_angle_gamma 120.000000
_cell_volume 2466.989951
_symmetry_space_group_name_H-M "P -3 C 1"
_symmetry_group_IT_number 165
_symmetry_cell_setting 'hexagonal'
loop_
_space_group_symop_operation_xyz
x,y,z
-y,x-y,z
-x+y,-x,z
x-y,-y,1/2-z
-x,-x+y,1/2-z
y,x,1/2-z
-x,-y,-z
y,-x+y,-z
x-y,x,-z
-x+y,y,1/2+z
x,x-y,1/2+z
-y,-x,1/2+z
loop_
_atom_site_type_symbol
_atom_site_label
_atom_site_fract_x
_atom_site_fract_y
_atom_site_fract_z
Si Si1 0.000000 0.000000 0.612693
Si Si2 0.253590 0.873126 0.255436
Si Si3 0.680556 0.222218 0.907069
Si Si4 0.825551 0.064072 0.380483
Si Si5 0.143594 0.784841 0.446541
O O1 0.093557 0.978239 0.649458
O O2 0.000000 0.000000 0.500000
O O3 0.317310 0.824437 0.198426
O O4 0.137701 0.828223 0.206876
O O5 0.239529 0.838236 0.367953
O O6 0.320889 0.000000 0.250000
O O7 0.779061 0.346669 0.915823
O O8 0.694544 0.153945 0.992674
O O9 0.857616 0.126893 0.482413
O O10 0.702402 0.968971 0.389924
#
# Coordination Sequence:
#
# PCOD8323942 Si02
#       5
#     4  12  12  12  12
#     4  12  18  33  60  85 132 192 205 240 312 400
#     4  11  23  38  62  95 131 164 205 267 322 386
#     4   9  23  46  66  86 116 162 218 272 318 380
#     4  11  21  35  56  93 133 168 218 247 305 399
#     4  11  20  37  61  86 123 170 202 261 319 370
#
# _framework density 21.078320999999999
#
# number of rings (size 3 to 8) (size 9 to 14) (size 15 to 20)
#    0.462    0.923    2.308    4.846    0.000    1.846 
#    0.000   17.308    0.000    0.000    0.000    0.000 
#    0.000    0.000    0.000    0.000    0.000    0.000 
#
# Total GULP energy -644720.741884 kJ/mol
# GULP energy per Si atom -12398.475805 kJ/mol
# Density = 2.103035 g / cm^3
# Si number density = 21.078321 Si / 1000 Ang^3
#
#
#
# Elastic Constant Matrix: (Units=GPa)
#
#
# Indices 1 2 3 4 5 6 
#
# 1 82.8332 20.2609 20.5345 0.1650 0.0000 0.0000
# 2 20.2609 82.8332 20.5345 -0.1650 0.0000 0.0000
# 3 20.5345 20.5345 106.0815 0.0000 0.0000 0.0000
# 4 0.1650 -0.1650 0.0000 14.7668 0.0000 0.0000
# 5 0.0000 0.0000 0.0000 0.0000 14.7668 0.1650
# 6 0.0000 0.0000 0.0000 0.0000 0.1650 31.2862
#
#
#
# Elastic Compliance Matrix: (Units=1/GPa)
#
#
# Indices 1 2 3 4 5 6 
#
# 1 0.013246 -0.002736 -0.002035 -0.000179 0.000000 0.000000
# 2 -0.002736 0.013246 -0.002035 0.000179 0.000000 0.000000
# 3 -0.002035 -0.002035 0.010214 0.000000 0.000000 0.000000
# 4 -0.000179 0.000179 0.000000 0.067724 0.000000 0.000000
# 5 0.000000 0.000000 0.000000 0.000000 0.067724 -0.000357
# 6 0.000000 0.000000 0.000000 0.000000 -0.000357 0.031965
#
#
# Mechanical properties :
#
#
# Convention : Reuss Voigt Hill
#
# Bulk Modulus (GPa) = 43.29565 43.82306 43.55936
# Shear Modulus (GPa) = 22.17999 26.19181 24.18590
#
# Velocity S-wave (km/s) = 3.24738 3.52887 3.39105
# Velocity P-wave (km/s) = 5.88605 6.11879 6.00355
#
# Compressibility (1/GPa) = 0.02309701
#
# Stress axis : x y z
#
# Youngs Moduli (GPa) = 75.49219 75.49219 97.90127
#
# Poissons Ratio (x) = 0.20655 0.19918
# Poissons Ratio (y) = 0.20655 0.19918
# Poissons Ratio (z) = 0.15359 0.15359
#
# Static dielectric constant tensor:
#      x y z
#    x 3.862950 0.000000 0.000000 
#    y 0.000000 3.862950 0.000000 
#    z 0.000000 0.000000 3.973600 
# 
# 
# High freq. dielectric constant tensor:
#      x y z
#    x 1.810020 0.000000 0.000000 
#    y 0.000000 1.810020 0.000000 
#    z 0.000000 0.000000 1.842420 
# 
# From -- ./inp_files/1610.got.cif
#   From: 2010.03.12/outbox.cif.g09.slc.cpg/sg165_1_cif.got.tgz:1610.got - 2010.04.02 06:36:38.
