data_PCOD8323807
_publ_section_title
;
Structure prediction by ZEFSAII (Michael W. Deem and Ramdas Pophale) SiO2 
 PCOD8323807
Probable space group: P -3 M 1
;
_chemical_formula_sum "Si O2"
_cell_formula_units_Z 40
_cell_length_a 13.862750
_cell_length_b 13.862750
_cell_length_c 12.559528
_cell_angle_alpha 90.000000
_cell_angle_beta 90.000000
_cell_angle_gamma 120.000000
_cell_volume 2090.271661
_symmetry_space_group_name_H-M "P -3 M 1"
_symmetry_group_IT_number 164
_symmetry_cell_setting 'hexagonal'
loop_
_space_group_symop_operation_xyz
x,y,z
-y,x-y,z
-x+y,-x,z
x-y,-y,-z
-x,-x+y,-z
y,x,-z
-x,-y,-z
y,-x+y,-z
x-y,x,-z
-x+y,y,z
x,x-y,z
-y,-x,z
loop_
_atom_site_type_symbol
_atom_site_label
_atom_site_fract_x
_atom_site_fract_y
_atom_site_fract_z
Si Si1 0.333334 0.666668 0.069438
Si Si2 0.599924 0.974557 0.211013
Si Si3 0.581201 0.790601 0.817567
Si Si4 0.209382 0.418764 0.070907
Si Si5 0.333334 0.666668 0.817542
Si Si6 0.112142 0.445863 0.443268
O O1 0.271962 0.543924 0.115313
O O2 0.333334 0.666667 0.943810
O O3 0.499582 0.999163 0.177867
O O4 0.630573 0.914319 0.117576
O O5 0.566546 0.901175 0.316617
O O6 0.718208 0.086276 0.230159
O O7 0.456751 0.728376 0.774032
O O8 0.592402 0.796201 0.944865
O O9 0.215799 0.431598 0.479250
O O10 0.135572 0.567786 0.478876
O O11 0.000000 0.351550 0.500000
#
# Coordination Sequence:
#
# PCOD8323807 Si02
#       6
#     2  12   6   6   2  12
#     4   9  18  27  54  84 109 152 193 240 276 330
#     4  11  22  36  57  85 117 158 196 234 288 346
#     4  11  22  34  52  84 123 159 193 234 281 337
#     4  11  20  34  54  84 120 153 195 238 282 341
#     4   9  18  33  48  78 121 155 193 234 276 327
#     4  10  22  40  63  90 118 148 187 237 292 348
#
# _framework density 19.13627
#
# number of rings (size 3 to 8) (size 9 to 14) (size 15 to 20)
#    0.000    1.500    4.500    1.200    2.100    1.200 
#    0.000    0.000    0.000    0.900    3.900    2.100 
#    0.000    0.000    0.000    0.000    0.000    0.000 
#
# Total GULP energy -495889.755361 kJ/mol
# GULP energy per Si atom -12397.243884 kJ/mol
# Density = 1.909271 g / cm^3
# Si number density = 19.136270 Si / 1000 Ang^3
#
#
#
# Elastic Constant Matrix: (Units=GPa)
#
#
# Indices 1 2 3 4 5 6 
#
# 1 115.5153 50.1165 5.6179 -1.6041 0.0000 0.0000
# 2 50.1165 115.5142 5.6179 1.6042 0.0000 0.0000
# 3 5.6179 5.6179 36.2266 0.0000 0.0000 0.0000
# 4 -1.6041 1.6042 0.0000 27.0176 0.0000 0.0000
# 5 0.0000 0.0000 0.0000 0.0000 27.0177 -1.6040
# 6 0.0000 0.0000 0.0000 0.0000 -1.6040 32.6993
#
#
#
# Elastic Compliance Matrix: (Units=1/GPa)
#
#
# Indices 1 2 3 4 5 6 
#
# 1 0.010719 -0.004617 -0.000946 0.000911 0.000000 0.000000
# 2 -0.004617 0.010719 -0.000946 -0.000911 0.000000 0.000000
# 3 -0.000946 -0.000946 0.027897 0.000000 0.000000 0.000000
# 4 0.000911 -0.000911 0.000000 0.037121 0.000000 0.000000
# 5 0.000000 0.000000 0.000000 0.000000 0.037121 0.001821
# 6 0.000000 0.000000 0.000000 0.000000 0.001821 0.030671
#
#
# Mechanical properties :
#
#
# Convention : Reuss Voigt Hill
#
# Bulk Modulus (GPa) = 27.53611 43.32896 35.43253
# Shear Modulus (GPa) = 27.87506 31.07384 29.47445
#
# Velocity S-wave (km/s) = 3.82076 4.03404 3.92885
# Velocity P-wave (km/s) = 5.82109 6.66254 6.25597
#
# Compressibility (1/GPa) = 0.03631596
#
# Stress axis : x y z
#
# Youngs Moduli (GPa) = 93.29573 93.29485 35.84554
#
# Poissons Ratio (x) = 0.43074 0.03392
# Poissons Ratio (y) = 0.43074 0.03392
# Poissons Ratio (z) = 0.08828 0.08828
#
# Static dielectric constant tensor:
#      x y z
#    x 3.450790 0.000000 0.000000 
#    y 0.000000 3.450800 0.000000 
#    z 0.000000 0.000000 3.288470 
# 
# 
# High freq. dielectric constant tensor:
#      x y z
#    x 1.731730 0.000000 0.000000 
#    y 0.000000 1.731730 0.000000 
#    z 0.000000 0.000000 1.741230 
# 
# From -- ./inp_files/2269.got.cif
#   From: 2010.03.12/outbox.cif.g09.slc.cpg/sg164_2_cif.got.tgz:2269.got - 2010.04.02 06:32:59.
