data_PCOD8323160
_publ_section_title
;
Structure prediction by ZEFSAII (Michael W. Deem and Ramdas Pophale) SiO2 
 PCOD8323160
Probable space group: P -3 1 M 
;
_chemical_formula_sum "Si O2"
_cell_formula_units_Z 72
_cell_length_a 14.359800
_cell_length_b 14.359800
_cell_length_c 18.454782
_cell_angle_alpha 90.000000
_cell_angle_beta 90.000000
_cell_angle_gamma 120.000000
_cell_volume 3295.613957
_symmetry_space_group_name_H-M "P -3 1 M "
_symmetry_group_IT_number 162
_symmetry_cell_setting 'hexagonal'
loop_
_space_group_symop_operation_xyz
x,y,z
-y,x-y,z
-x+y,-x,z
-y,-x,-z
-x+y,y,-z
x,x-y,-z
-x,-y,-z
y,-x+y,-z
x-y,x,-z
y,x,z
x-y,-y,z
-x,-x+y,z
loop_
_atom_site_type_symbol
_atom_site_label
_atom_site_fract_x
_atom_site_fract_y
_atom_site_fract_z
Si Si1 0.421310 0.881518 0.273568
Si Si2 0.873044 0.747571 0.792288
Si Si3 0.583038 0.803446 0.078492
Si Si4 0.564270 0.758478 0.681568
Si Si5 0.667427 0.123680 0.473394
Si Si6 0.540388 0.424896 0.890182
O O1 0.321339 0.840085 0.329984
O O2 0.477019 0.808870 0.265491
O O3 0.385262 0.882789 0.192126
O O4 0.507210 0.000000 0.301418
O O5 0.826569 0.826569 0.807236
O O6 0.848926 0.670422 0.860998
O O7 0.819714 0.681416 0.718109
O O8 0.000000 0.817179 0.779529
O O9 0.480444 0.682551 0.070512
O O10 0.530609 0.875266 0.098918
O O11 0.640786 0.820393 0.000000
O O12 0.554568 0.685621 0.612553
O O13 0.786730 0.213271 0.500000
O O14 0.575970 0.151939 0.500000
O O15 0.630050 0.000000 0.497664
O O16 0.456448 0.456448 0.923115
#
# Coordination Sequence:
#
# PCOD8323160 Si02
#       6
#    12  12  12  12  12  12
#     4  11  21  37  64  97 129 164 210 264 327 396
#     4  12  26  45  67  93 126 172 234 294 345 391
#     4  12  25  41  64  94 133 176 219 273 340 414
#     4  12  23  41  69  99 134 170 210 268 328 396
#     4  11  25  45  69 103 145 187 229 275 337 411
#     4  11  22  40  62  90 127 167 212 268 334 399
#
# _framework density 21.847218999999999
#
# number of rings (size 3 to 8) (size 9 to 14) (size 15 to 20)
#    0.000    0.500    3.333    5.500    0.000    6.000 
#    0.000    0.000    0.000    1.167    0.000    0.000 
#    0.000    0.000    0.000    0.000    0.000    0.000 
#
# Total GULP energy -892029.389299 kJ/mol
# GULP energy per Si atom -12389.297074 kJ/mol
# Density = 2.179749 g / cm^3
# Si number density = 21.847219 Si / 1000 Ang^3
#
#
#
# Elastic Constant Matrix: (Units=GPa)
#
#
# Indices 1 2 3 4 5 6 
#
# 1 128.4000 51.4985 37.9589 0.0000 -5.4048 0.0000
# 2 51.4985 128.4000 37.9589 0.0000 5.4048 0.0000
# 3 37.9589 37.9589 92.8379 0.0000 0.0000 0.0000
# 4 0.0000 0.0000 0.0000 1.8261 0.0000 5.4048
# 5 -5.4048 5.4048 0.0000 0.0000 1.8261 0.0000
# 6 0.0000 0.0000 0.0000 5.4048 0.0000 38.4508
#
#
#
# Elastic Compliance Matrix: (Units=1/GPa)
#
#
# Indices 1 2 3 4 5 6 
#
# 1 0.014493 -0.007775 -0.002747 0.000000 0.065907 0.000000
# 2 -0.007775 0.014493 -0.002747 0.000000 -0.065907 0.000000
# 3 -0.002747 -0.002747 0.013018 0.000000 0.000000 0.000000
# 4 0.000000 0.000000 0.000000 0.937747 0.000000 -0.131814
# 5 0.065907 -0.065907 0.000000 0.000000 0.937747 -0.000001
# 6 0.000000 0.000000 0.000000 -0.131814 -0.000001 0.044536
#
#
# Mechanical properties :
#
#
# Convention : Reuss Voigt Hill
#
# Bulk Modulus (GPa) = 64.65671 67.16338 65.91004
# Shear Modulus (GPa) = 2.50787 23.23539 12.87163
#
# Velocity S-wave (km/s) = 1.07257 3.26473 2.42991
# Velocity P-wave (km/s) = 5.58507 6.70972 6.17306
#
# Compressibility (1/GPa) = 0.01546630
#
# Stress axis : x y z
#
# Youngs Moduli (GPa) = 68.99969 68.99969 76.81918
#
# Poissons Ratio (x) = 0.53647 0.21100
# Poissons Ratio (y) = 0.53647 0.21100
# Poissons Ratio (z) = 0.18952 0.18952
#
# Static dielectric constant tensor:
#      x y z
#    x 3.897500 0.000000 0.000000 
#    y 0.000000 3.897500 0.000000 
#    z 0.000000 0.000000 4.051020 
# 
# 
# High freq. dielectric constant tensor:
#      x y z
#    x 1.860210 0.000000 0.000000 
#    y 0.000000 1.860210 0.000000 
#    z 0.000000 0.000000 1.858150 
# 
# From -- ./inp_files/3523.got.cif
#   From: 2010.03.12/outbox.cif.g09.slc.cpg/sg162_2_cif.got.tgz:3523.got - 2010.04.02 06:27:41.
