data_PCOD8323195
_publ_section_title
;
Structure prediction by ZEFSAII (Michael W. Deem and Ramdas Pophale) SiO2 
 PCOD8323195
Probable space group: P -3 1 C
;
_chemical_formula_sum "Si O2"
_cell_formula_units_Z 60
_cell_length_a 20.989358
_cell_length_b 20.989358
_cell_length_c 9.507835
_cell_angle_alpha 90.000000
_cell_angle_beta 90.000000
_cell_angle_gamma 120.000000
_cell_volume 3627.526369
_symmetry_space_group_name_H-M "P -3 1 C"
_symmetry_group_IT_number 163
_symmetry_cell_setting 'hexagonal'
loop_
_space_group_symop_operation_xyz
x,y,z
-y,x-y,z
-x+y,-x,z
-y,-x,1/2-z
-x+y,y,1/2-z
x,x-y,1/2-z
-x,-y,-z
y,-x+y,-z
x-y,x,-z
y,x,1/2+z
x-y,-y,1/2+z
-x,-x+y,1/2+z
loop_
_atom_site_type_symbol
_atom_site_label
_atom_site_fract_x
_atom_site_fract_y
_atom_site_fract_z
Si Si1 0.550797 0.705421 0.416887
Si Si2 0.931029 0.215246 0.910344
Si Si3 0.154624 0.705422 0.416887
Si Si4 0.931029 0.715783 0.910345
Si Si5 0.461641 0.923282 0.418213
O O1 0.633386 0.733271 0.470838
O O2 0.524011 0.762005 0.472155
O O3 0.552262 0.708376 0.250000
O O4 0.497928 0.622694 0.469312
O O5 0.869689 0.130312 0.923460
O O6 0.956319 0.236438 0.750000
O O7 1.000000 0.227003 1.000000
O O8 0.099885 0.733272 0.470839
O O9 0.124766 0.622694 0.469313
O O10 0.468708 0.937415 0.250000
O O11 0.500000 0.000000 0.500000
#
# Coordination Sequence:
#
# PCOD8323195 Si02
#       5
#    12  12  12  12  12
#     4   8  15  28  43  63  91 118 146 183 225 261
#     4   9  17  29  45  64  88 115 141 175 217 257
#     4   8  15  28  43  63  91 118 146 183 225 261
#     4   9  17  29  45  64  88 115 141 175 217 257
#     4  10  18  28  46  68  90 118 152 190 228 268
#
# _framework density 16.540196000000002
#
# number of rings (size 3 to 8) (size 9 to 14) (size 15 to 20)
#    0.000    3.200    0.000    3.600    0.000    0.800 
#    1.200    0.000    0.000    4.000    0.000    0.000 
#    0.000    0.000    0.000    0.000    0.000    0.000 
#
# Total GULP energy -743632.733758 kJ/mol
# GULP energy per Si atom -12393.878896 kJ/mol
# Density = 1.650255 g / cm^3
# Si number density = 16.540196 Si / 1000 Ang^3
#
#
#
# Elastic Constant Matrix: (Units=GPa)
#
#
# Indices 1 2 3 4 5 6 
#
# 1 111.3732 67.2521 38.2211 0.0000 0.0000 0.0000
# 2 67.2521 111.3732 38.2211 0.0000 0.0000 0.0000
# 3 38.2211 38.2211 37.0624 0.0000 0.0000 0.0000
# 4 0.0000 0.0000 0.0000 20.3458 0.0000 0.0000
# 5 0.0000 0.0000 0.0000 0.0000 20.3458 0.0000
# 6 0.0000 0.0000 0.0000 0.0000 0.0000 22.0605
#
#
#
# Elastic Compliance Matrix: (Units=1/GPa)
#
#
# Indices 1 2 3 4 5 6 
#
# 1 0.016343 -0.006322 -0.010334 0.000000 0.000000 0.000000
# 2 -0.006322 0.016343 -0.010334 0.000000 0.000000 0.000000
# 3 -0.010334 -0.010334 0.048296 0.000000 0.000000 0.000000
# 4 0.000000 0.000000 0.000000 0.049150 0.000000 0.000000
# 5 0.000000 0.000000 0.000000 0.000000 0.049150 0.000000
# 6 0.000000 0.000000 0.000000 0.000000 0.000000 0.045330
#
#
# Mechanical properties :
#
#
# Convention : Reuss Voigt Hill
#
# Bulk Modulus (GPa) = 37.03551 60.79972 48.91761
# Shear Modulus (GPa) = 17.38575 20.29140 18.83857
#
# Velocity S-wave (km/s) = 3.24562 3.50636 3.37851
# Velocity P-wave (km/s) = 6.04030 7.29598 6.69763
#
# Compressibility (1/GPa) = 0.02700112
#
# Stress axis : x y z
#
# Youngs Moduli (GPa) = 61.18897 61.18897 20.70579
#
# Poissons Ratio (x) = 0.38684 0.21397
# Poissons Ratio (y) = 0.38684 0.21397
# Poissons Ratio (z) = 0.63233 0.63233
#
# Static dielectric constant tensor:
#      x y z
#    x 3.332540 0.000000 0.000000 
#    y 0.000000 3.332540 0.000000 
#    z 0.000000 0.000000 2.709690 
# 
# 
# High freq. dielectric constant tensor:
#      x y z
#    x 1.636770 0.000000 0.000000 
#    y 0.000000 1.636770 0.000000 
#    z 0.000000 0.000000 1.594930 
# 
# From -- ./inp_files/1754.got.cif
#   From: 2010.03.12/outbox.cif.g09.slc.cpg/sg163_1_cif.got.tgz:1754.got - 2010.04.02 06:30:25.
