data_PCOD8323720
_publ_section_title
;
Structure prediction by ZEFSAII (Michael W. Deem and Ramdas Pophale) SiO2 
 PCOD8323720
Probable space group: P -3 M 1
;
_chemical_formula_sum "Si O2"
_cell_formula_units_Z 54
_cell_length_a 12.647634
_cell_length_b 12.647634
_cell_length_c 22.960188
_cell_angle_alpha 90.000000
_cell_angle_beta 90.000000
_cell_angle_gamma 120.000000
_cell_volume 3180.714218
_symmetry_space_group_name_H-M "P -3 M 1"
_symmetry_group_IT_number 164
_symmetry_cell_setting 'hexagonal'
loop_
_space_group_symop_operation_xyz
x,y,z
-y,x-y,z
-x+y,-x,z
x-y,-y,-z
-x,-x+y,-z
y,x,-z
-x,-y,-z
y,-x+y,-z
x-y,x,-z
-x+y,y,z
x,x-y,z
-y,-x,z
loop_
_atom_site_type_symbol
_atom_site_label
_atom_site_fract_x
_atom_site_fract_y
_atom_site_fract_z
Si Si1 0.422195 0.333342 0.679423
Si Si2 0.248318 0.248318 0.000000
Si Si3 0.088682 0.666984 0.451249
Si Si4 0.581520 0.912886 0.891036
Si Si5 0.999834 0.246819 0.216557
O O1 0.462143 0.231072 0.683840
O O2 0.538368 0.461633 0.697109
O O3 0.376391 0.337653 0.614122
O O4 0.310466 0.303421 0.721953
O O5 0.315038 0.330903 0.944521
O O6 0.115813 0.231625 0.010282
O O7 0.108390 0.554195 0.462529
O O8 0.216342 0.783659 0.461418
O O9 0.000000 0.671544 0.500000
O O10 0.463058 0.926115 0.894702
O O11 0.540984 0.770492 0.892370
O O12 0.653777 0.976145 0.832396
O O13 0.123779 0.247557 0.201494
O O14 0.892222 0.107779 0.219405
#
# Coordination Sequence:
#
# PCOD8323720 Si02
#       5
#    12   6  12  12  12
#     4   9  17  30  48  69  92 120 155 195 238 282
#     4  10  20  34  54  78 104 134 166 200 236 278
#     4   9  17  29  46  67  91 120 154 193 236 282
#     4  10  20  34  52  73  98 128 161 198 239 282
#     4  10  20  33  50  71  96 126 158 194 235 281
#
# _framework density 16.977319000000001
#
# number of rings (size 3 to 8) (size 9 to 14) (size 15 to 20)
#    0.000    2.444    0.000    2.667    0.000    2.667 
#    0.000    2.222    0.000    6.889    0.000    0.000 
#    0.000    0.000    0.000    0.000    0.000    0.000 
#
# Total GULP energy -669617.891861 kJ/mol
# GULP energy per Si atom -12400.331331 kJ/mol
# Density = 1.693868 g / cm^3
# Si number density = 16.977319 Si / 1000 Ang^3
#
#
#
# Elastic Constant Matrix: (Units=GPa)
#
#
# Indices 1 2 3 4 5 6 
#
# 1 98.1945 52.6550 60.9810 -1.0252 0.0000 0.0000
# 2 52.6550 98.1945 60.9810 1.0252 0.0000 0.0000
# 3 60.9810 60.9810 124.7584 0.0000 0.0000 0.0000
# 4 -1.0252 1.0252 0.0000 27.8247 0.0000 0.0000
# 5 0.0000 0.0000 0.0000 0.0000 27.8247 -1.0252
# 6 0.0000 0.0000 0.0000 0.0000 -1.0252 22.7698
#
#
#
# Elastic Compliance Matrix: (Units=1/GPa)
#
#
# Indices 1 2 3 4 5 6 
#
# 1 0.016478 -0.005517 -0.005358 0.000810 0.000000 0.000000
# 2 -0.005517 0.016478 -0.005358 -0.000810 0.000000 0.000000
# 3 -0.005358 -0.005358 0.013253 0.000000 0.000000 0.000000
# 4 0.000810 -0.000810 0.000000 0.035999 0.000000 0.000000
# 5 0.000000 0.000000 0.000000 0.000000 0.035999 0.001621
# 6 0.000000 0.000000 0.000000 0.000000 0.001621 0.043991
#
#
# Mechanical properties :
#
#
# Convention : Reuss Voigt Hill
#
# Bulk Modulus (GPa) = 72.75766 74.48681 73.62224
# Shear Modulus (GPa) = 25.09483 25.45251 25.27367
#
# Velocity S-wave (km/s) = 3.84883 3.87616 3.86252
# Velocity P-wave (km/s) = 7.91834 8.00015 7.95935
#
# Compressibility (1/GPa) = 0.01374426
#
# Stress axis : x y z
#
# Youngs Moduli (GPa) = 60.68677 60.68677 75.45508
#
# Poissons Ratio (x) = 0.33483 0.40425
# Poissons Ratio (y) = 0.33483 0.40425
# Poissons Ratio (z) = 0.32513 0.32513
#
# Static dielectric constant tensor:
#      x y z
#    x 3.101180 0.000000 0.000000 
#    y 0.000000 3.101180 0.000000 
#    z 0.000000 0.000000 3.449630 
# 
# 
# High freq. dielectric constant tensor:
#      x y z
#    x 1.651550 0.000000 0.000000 
#    y 0.000000 1.651550 0.000000 
#    z 0.000000 0.000000 1.670650 
# 
# From -- ./inp_files/4860.got.cif
#   From: 2010.03.12/outbox.cif.g09.slc.cpg/sg164_3_cif.got.tgz:4860.got - 2010.04.02 06:32:59.
