data_PCOD8323477
_publ_section_title
;
Structure prediction by ZEFSAII (Michael W. Deem and Ramdas Pophale) SiO2 
 PCOD8323477
Probable space group: P -3 M 1
;
_chemical_formula_sum "Si O2"
_cell_formula_units_Z 52
_cell_length_a 23.627405
_cell_length_b 23.627405
_cell_length_c 8.773067
_cell_angle_alpha 90.000000
_cell_angle_beta 90.000000
_cell_angle_gamma 120.000000
_cell_volume 4241.447826
_symmetry_space_group_name_H-M "P -3 M 1"
_symmetry_group_IT_number 164
_symmetry_cell_setting 'hexagonal'
loop_
_space_group_symop_operation_xyz
x,y,z
-y,x-y,z
-x+y,-x,z
x-y,-y,-z
-x,-x+y,-z
y,x,-z
-x,-y,-z
y,-x+y,-z
x-y,x,-z
-x+y,y,z
x,x-y,z
-y,-x,z
loop_
_atom_site_type_symbol
_atom_site_label
_atom_site_fract_x
_atom_site_fract_y
_atom_site_fract_z
Si Si1 0.866381 0.498492 0.819900
Si Si2 0.632112 0.133620 0.180103
Si Si3 0.740100 0.259900 0.318866
Si Si4 0.480201 0.740101 0.318860
Si Si5 0.666667 0.333333 0.319354
Si Si6 0.333334 0.666668 0.319343
Si Si7 0.567069 0.000000 0.328807
O O1 0.854361 0.427181 0.768535
O O2 0.813159 0.513669 0.746137
O O3 0.935940 0.555987 0.760458
O O4 0.864338 0.502954 0.000002
O O5 0.572820 0.145639 0.231469
O O6 0.700510 0.186842 0.253867
O O7 0.620048 0.064061 0.239544
O O8 0.742376 0.257624 0.500003
O O9 0.703194 0.296807 0.256017
O O10 0.406387 0.703194 0.256008
O O11 0.666667 0.333334 0.500005
O O12 0.500000 0.000000 0.332882
O O13 0.591949 0.000000 0.500000
#
# Coordination Sequence:
#
# PCOD8323477 Si02
#       7
#    12  12   6   6   2   2  12
#     4  10  19  29  40  55  73  92 114 144 179 215
#     4  10  19  29  40  55  73  92 114 144 179 215
#     4  11  19  29  41  55  72  94 119 145 177 219
#     4  11  19  29  41  55  72  94 119 145 177 219
#     4   9  18  27  37  50  70  93 115 143 178 216
#     4   9  18  27  37  50  70  93 115 143 178 216
#     4   9  17  29  43  55  67  89 117 143 171 210
#
# _framework density 12.259964
#
# number of rings (size 3 to 8) (size 9 to 14) (size 15 to 20)
#    0.000    2.077    2.308    2.769    0.000    4.615 
#    0.000    0.000    0.000    0.000    0.000    0.000 
#    0.000    0.000    0.000    0.000    0.000    0.000 
#
# Total GULP energy -644821.868440 kJ/mol
# GULP energy per Si atom -12400.420547 kJ/mol
# Density = 1.223206 g / cm^3
# Si number density = 12.259964 Si / 1000 Ang^3
#
#
#
# Elastic Constant Matrix: (Units=GPa)
#
#
# Indices 1 2 3 4 5 6 
#
# 1 71.9805 39.9176 32.2652 0.0000 0.0000 0.0000
# 2 39.9176 71.9802 32.2652 -0.0001 0.0000 0.0000
# 3 32.2652 32.2652 73.2277 0.0000 0.0000 0.0000
# 4 0.0000 -0.0001 0.0000 19.8552 0.0000 0.0000
# 5 0.0000 0.0000 0.0000 0.0000 19.8552 0.0000
# 6 0.0000 0.0000 0.0000 0.0000 0.0000 16.0314
#
#
#
# Elastic Compliance Matrix: (Units=1/GPa)
#
#
# Indices 1 2 3 4 5 6 
#
# 1 0.021585 -0.009604 -0.005279 0.000000 0.000000 0.000000
# 2 -0.009604 0.021585 -0.005279 0.000000 0.000000 0.000000
# 3 -0.005279 -0.005279 0.018308 0.000000 0.000000 0.000000
# 4 0.000000 0.000000 0.000000 0.050365 0.000000 0.000000
# 5 0.000000 0.000000 0.000000 0.000000 0.050365 0.000000
# 6 0.000000 0.000000 0.000000 0.000000 0.000000 0.062377
#
#
# Mechanical properties :
#
#
# Convention : Reuss Voigt Hill
#
# Bulk Modulus (GPa) = 47.27219 47.34270 47.30745
# Shear Modulus (GPa) = 18.38507 18.66440 18.52473
#
# Velocity S-wave (km/s) = 3.87667 3.90601 3.89137
# Velocity P-wave (km/s) = 7.66029 7.68388 7.67209
#
# Compressibility (1/GPa) = 0.02115409
#
# Stress axis : x y z
#
# Youngs Moduli (GPa) = 46.32873 46.32851 54.62065
#
# Poissons Ratio (x) = 0.44493 0.28834
# Poissons Ratio (y) = 0.44493 0.28835
# Poissons Ratio (z) = 0.24457 0.24457
#
# Static dielectric constant tensor:
#      x y z
#    x 2.394750 0.000000 0.000000 
#    y 0.000000 2.394750 0.000000 
#    z 0.000000 0.000000 2.577410 
# 
# 
# High freq. dielectric constant tensor:
#      x y z
#    x 1.432080 0.000000 0.000000 
#    y 0.000000 1.432080 0.000000 
#    z 0.000000 0.000000 1.482400 
# 
# From -- ./inp_files/1600.got.cif
#   From: 2010.03.12/outbox.cif.g09.slc.cpg/sg164_1_cif.got.tgz:1600.got - 2010.04.02 06:32:59.
