data_PCOD8323503
_publ_section_title
;
Structure prediction by ZEFSAII (Michael W. Deem and Ramdas Pophale) SiO2 
 PCOD8323503
Probable space group: P -3 M 1
;
_chemical_formula_sum "Si O2"
_cell_formula_units_Z 96
_cell_length_a 17.204509
_cell_length_b 17.204509
_cell_length_c 22.869717
_cell_angle_alpha 90.000000
_cell_angle_beta 90.000000
_cell_angle_gamma 120.000000
_cell_volume 5862.407291
_symmetry_space_group_name_H-M "P -3 M 1"
_symmetry_group_IT_number 164
_symmetry_cell_setting 'hexagonal'
loop_
_space_group_symop_operation_xyz
x,y,z
-y,x-y,z
-x+y,-x,z
x-y,-y,-z
-x,-x+y,-z
y,x,-z
-x,-y,-z
y,-x+y,-z
x-y,x,-z
-x+y,y,z
x,x-y,z
-y,-x,z
loop_
_atom_site_type_symbol
_atom_site_label
_atom_site_fract_x
_atom_site_fract_y
_atom_site_fract_z
Si Si1 0.962851 0.570566 0.238207
Si Si2 0.896322 0.363836 0.013301
Si Si3 0.156118 0.666760 0.201960
Si Si4 0.728502 0.632965 0.477211
Si Si5 0.630318 0.898732 0.094694
Si Si6 0.332463 0.844001 0.414268
Si Si7 0.903638 0.275014 0.125448
Si Si8 0.607371 0.035648 0.368675
O O1 0.943616 0.471808 0.220764
O O2 0.913162 0.599343 0.190804
O O3 0.928002 0.572172 0.303438
O O4 0.070010 0.638324 0.242598
O O5 0.848574 0.424287 0.004306
O O6 0.874325 0.326988 0.079723
O O7 0.866488 0.281805 0.968848
O O8 0.000000 0.427931 0.000000
O O9 0.188991 0.594496 0.203642
O O10 0.237897 0.762104 0.222923
O O11 0.122466 0.669722 0.136800
O O12 0.713309 0.713309 0.500000
O O13 0.834967 0.669934 0.476158
O O14 0.677105 0.547678 0.519690
O O15 0.689497 0.600253 0.412583
O O16 0.673515 0.836758 0.110384
O O17 0.710313 0.001217 0.101443
O O18 0.407326 0.814652 0.413891
O O19 0.239264 0.760737 0.391269
O O20 0.359288 0.928693 0.372253
O O21 0.830567 0.169434 0.127188
O O22 0.527316 0.054631 0.385199
#
# Coordination Sequence:
#
# PCOD8323503 Si02
#       8
#    12  12  12  12  12  12  12  12
#     4   9  18  31  44  59  84 118 151 183 218 253
#     4   9  16  27  45  67  88 110 137 170 211 261
#     4   9  16  26  41  62  88 117 147 178 214 258
#     4   9  17  29  46  67  89 113 143 180 220 260
#     4   9  17  29  45  65  89 115 144 183 230 275
#     4   9  16  26  42  66  95 122 145 171 207 252
#     4  10  19  30  46  66  86 113 152 192 227 266
#     4   9  17  29  44  62  86 117 151 182 211 248
#
# _framework density 16.375525
#
# number of rings (size 3 to 8) (size 9 to 14) (size 15 to 20)
#    0.000    2.875    0.000    1.750    0.000    5.500 
#    0.000    0.000    0.000    7.375    0.000    0.000 
#    0.000    3.000    0.000    0.750    0.000    0.000 
#
# Total GULP energy -1189681.303746 kJ/mol
# GULP energy per Si atom -12392.513581 kJ/mol
# Density = 1.633825 g / cm^3
# Si number density = 16.375525 Si / 1000 Ang^3
#
#
#
# Elastic Constant Matrix: (Units=GPa)
#
#
# Indices 1 2 3 4 5 6 
#
# 1 84.3040 30.4405 26.6707 5.0519 0.0000 0.0000
# 2 30.4405 84.3040 26.6707 -5.0519 0.0000 0.0000
# 3 26.6707 26.6707 91.6482 0.0000 0.0000 0.0000
# 4 5.0519 -5.0519 0.0000 19.2552 0.0000 0.0000
# 5 0.0000 0.0000 0.0000 0.0000 19.2552 5.0519
# 6 0.0000 0.0000 0.0000 0.0000 5.0519 26.9318
#
#
#
# Elastic Compliance Matrix: (Units=1/GPa)
#
#
# Indices 1 2 3 4 5 6 
#
# 1 0.014802 -0.004724 -0.002933 -0.005123 0.000000 0.000000
# 2 -0.004724 0.014802 -0.002933 0.005123 0.000000 0.000000
# 3 -0.002933 -0.002933 0.012618 0.000000 0.000000 0.000000
# 4 -0.005123 0.005123 0.000000 0.054622 0.000000 0.000000
# 5 0.000000 0.000000 0.000000 0.000000 0.054622 -0.010246
# 6 0.000000 0.000000 0.000000 0.000000 -0.010246 0.039053
#
#
# Mechanical properties :
#
#
# Convention : Reuss Voigt Hill
#
# Bulk Modulus (GPa) = 47.52071 47.53555 47.52813
# Shear Modulus (GPa) = 22.86081 24.85338 23.85710
#
# Velocity S-wave (km/s) = 3.74041 3.90001 3.82104
# Velocity P-wave (km/s) = 6.90917 7.02649 6.96807
#
# Compressibility (1/GPa) = 0.02104346
#
# Stress axis : x y z
#
# Youngs Moduli (GPa) = 67.55641 67.55641 79.24975
#
# Poissons Ratio (x) = 0.31914 0.23244
# Poissons Ratio (y) = 0.31914 0.23244
# Poissons Ratio (z) = 0.19814 0.19814
#
# Static dielectric constant tensor:
#      x y z
#    x 2.945980 0.000000 0.000000 
#    y 0.000000 2.945980 0.000000 
#    z 0.000000 0.000000 3.129770 
# 
# 
# High freq. dielectric constant tensor:
#      x y z
#    x 1.607710 0.000000 0.000000 
#    y 0.000000 1.607710 0.000000 
#    z 0.000000 0.000000 1.636850 
# 
# From -- ./inp_files/4721.got.cif
#   From: 2010.03.12/outbox.cif.g09.slc.cpg/sg164_3_cif.got.tgz:4721.got - 2010.04.02 06:32:59.
