data_PCOD8323592
_publ_section_title
;
Structure prediction by ZEFSAII (Michael W. Deem and Ramdas Pophale) SiO2 
 PCOD8323592
Probable space group: P -3 M 1
;
_chemical_formula_sum "Si O2"
_cell_formula_units_Z 96
_cell_length_a 22.595447
_cell_length_b 22.595447
_cell_length_c 11.629577
_cell_angle_alpha 90.000000
_cell_angle_beta 90.000000
_cell_angle_gamma 120.000000
_cell_volume 5142.051533
_symmetry_space_group_name_H-M "P -3 M 1"
_symmetry_group_IT_number 164
_symmetry_cell_setting 'hexagonal'
loop_
_space_group_symop_operation_xyz
x,y,z
-y,x-y,z
-x+y,-x,z
x-y,-y,-z
-x,-x+y,-z
y,x,-z
-x,-y,-z
y,-x+y,-z
x-y,x,-z
-x+y,y,z
x,x-y,z
-y,-x,z
loop_
_atom_site_type_symbol
_atom_site_label
_atom_site_fract_x
_atom_site_fract_y
_atom_site_fract_z
Si Si1 0.865040 0.266586 0.572015
Si Si2 0.665306 0.472298 0.968064
Si Si3 0.076700 0.284826 0.992205
Si Si4 0.793982 0.064642 0.440412
Si Si5 0.606963 0.900309 0.173297
Si Si6 0.949997 0.656178 0.226693
Si Si7 0.534896 0.200262 0.462108
Si Si8 0.825443 0.307607 0.220612
O O1 0.798651 0.201350 0.520009
O O2 0.927380 0.258783 0.525050
O O3 0.859570 0.265487 0.708985
O O4 0.864118 0.331640 0.517233
O O5 0.733564 0.467128 0.948720
O O6 0.598640 0.401361 0.928687
O O7 0.669754 0.535851 0.896683
O O8 0.654646 0.483884 0.101664
O O9 0.127839 0.255679 0.970598
O O10 0.079694 0.334173 0.892116
O O11 0.101704 0.332077 0.105306
O O12 0.000000 0.220173 0.000000
O O13 0.870705 0.129296 0.434839
O O14 0.759507 0.045989 0.314430
O O15 0.795652 0.000000 0.500000
O O16 0.635467 0.979456 0.206292
O O17 0.896887 0.579935 0.265589
O O18 0.597774 0.195548 0.512872
O O19 0.542204 0.271102 0.505669
O O20 0.536807 0.198440 0.323255
O O21 0.773001 0.227000 0.205346
#
# Coordination Sequence:
#
# PCOD8323592 Si02
#       8
#    12  12  12  12  12  12  12  12
#     4  10  20  34  54  78 108 147 186 230 282 339
#     4  11  23  39  59  81 110 149 197 248 302 360
#     4  10  20  34  56  84 114 149 188 231 278 329
#     4  11  21  37  61  90 122 152 190 237 282 340
#     4  11  22  36  57  82 116 149 189 237 291 345
#     4  11  20  35  60  86 116 146 190 237 288 341
#     4  10  20  34  54  80 109 144 191 245 299 349
#     4  10  19  34  57  82 110 148 190 237 295 355
#
# _framework density 18.669589999999999
#
# number of rings (size 3 to 8) (size 9 to 14) (size 15 to 20)
#    0.000    1.500    3.750    2.875    0.000    0.500 
#    0.000    3.125    0.000    2.875    0.000    0.000 
#    0.000    1.000    0.000    0.000    0.000    0.000 
#
# Total GULP energy -1189916.014094 kJ/mol
# GULP energy per Si atom -12394.958480 kJ/mol
# Density = 1.862710 g / cm^3
# Si number density = 18.669590 Si / 1000 Ang^3
#
#
#
# Elastic Constant Matrix: (Units=GPa)
#
#
# Indices 1 2 3 4 5 6 
#
# 1 103.0565 52.2302 19.4619 0.2841 0.0000 0.0000
# 2 52.2302 103.0565 19.4619 -0.2841 0.0000 0.0000
# 3 19.4619 19.4619 90.1146 0.0000 0.0000 0.0000
# 4 0.2841 -0.2841 0.0000 22.0399 0.0000 0.0000
# 5 0.0000 0.0000 0.0000 0.0000 22.0399 0.2841
# 6 0.0000 0.0000 0.0000 0.0000 0.2841 25.4131
#
#
#
# Elastic Compliance Matrix: (Units=1/GPa)
#
#
# Indices 1 2 3 4 5 6 
#
# 1 0.013243 -0.006435 -0.001470 -0.000254 0.000000 0.000000
# 2 -0.006435 0.013243 -0.001470 0.000254 0.000000 0.000000
# 3 -0.001470 -0.001470 0.011732 0.000000 0.000000 0.000000
# 4 -0.000254 0.000254 0.000000 0.045379 0.000000 0.000000
# 5 0.000000 0.000000 0.000000 0.000000 0.045379 -0.000507
# 6 0.000000 0.000000 0.000000 0.000000 -0.000507 0.039355
#
#
# Mechanical properties :
#
#
# Convention : Reuss Voigt Hill
#
# Bulk Modulus (GPa) = 51.36862 53.17061 52.26962
# Shear Modulus (GPa) = 25.83034 27.57017 26.70025
#
# Velocity S-wave (km/s) = 3.72365 3.84701 3.78583
# Velocity P-wave (km/s) = 6.78688 6.94797 6.86790
#
# Compressibility (1/GPa) = 0.01946714
#
# Stress axis : x y z
#
# Youngs Moduli (GPa) = 75.51170 75.51170 85.23628
#
# Poissons Ratio (x) = 0.48590 0.12533
# Poissons Ratio (y) = 0.48590 0.12533
# Poissons Ratio (z) = 0.11103 0.11103
#
# Static dielectric constant tensor:
#      x y z
#    x 3.313380 0.000000 0.000000 
#    y 0.000000 3.313380 0.000000 
#    z 0.000000 0.000000 3.465740 
# 
# 
# High freq. dielectric constant tensor:
#      x y z
#    x 1.707410 0.000000 0.000000 
#    y 0.000000 1.707410 0.000000 
#    z 0.000000 0.000000 1.737270 
# 
# From -- ./inp_files/3149.got.cif
#   From: 2010.03.12/outbox.cif.g09.slc.cpg/sg164_2_cif.got.tgz:3149.got - 2010.04.02 06:32:59.
