data_PCOD8323810
_publ_section_title
;
Structure prediction by ZEFSAII (Michael W. Deem and Ramdas Pophale) SiO2 
 PCOD8323810
Probable space group: P -3 M 1
;
_chemical_formula_sum "Si O2"
_cell_formula_units_Z 54
_cell_length_a 28.752187
_cell_length_b 28.752187
_cell_length_c 5.031339
_cell_angle_alpha 90.000000
_cell_angle_beta 90.000000
_cell_angle_gamma 120.000000
_cell_volume 3602.101784
_symmetry_space_group_name_H-M "P -3 M 1"
_symmetry_group_IT_number 164
_symmetry_cell_setting 'hexagonal'
loop_
_space_group_symop_operation_xyz
x,y,z
-y,x-y,z
-x+y,-x,z
x-y,-y,-z
-x,-x+y,-z
y,x,-z
-x,-y,-z
y,-x+y,-z
x-y,x,-z
-x+y,y,z
x,x-y,z
-y,-x,z
loop_
_atom_site_type_symbol
_atom_site_label
_atom_site_fract_x
_atom_site_fract_y
_atom_site_fract_z
Si Si1 0.481081 0.518920 0.251400
Si Si2 0.382045 0.962204 0.248573
Si Si3 0.098335 0.302774 0.594954
Si Si4 0.336226 0.061931 0.918044
Si Si5 0.857079 0.820586 0.255356
O O1 0.500000 0.500000 0.500000
O O2 0.514050 0.584786 0.271050
O O3 0.500000 0.500000 0.000000
O O4 0.318558 0.923125 0.192587
O O5 0.389828 0.000000 0.500000
O O6 0.407505 0.000000 0.000000
O O7 0.159955 0.319909 0.546728
O O8 0.073526 0.305811 0.315634
O O9 0.063649 0.242450 0.695797
O O10 0.096845 0.342095 0.820540
O O11 0.302740 0.000000 0.000000
O O12 0.854662 0.854662 0.500000
O O13 0.918713 0.837426 0.207993
O O14 0.834072 0.834072 0.000000
#
# Coordination Sequence:
#
# PCOD8323810 Si02
#       5
#     6  12  12  12  12
#     4   8  14  24  36  54  82 108 136 168 198 226
#     4   9  16  25  39  59  81 109 138 171 204 228
#     4  11  22  33  46  64  86 110 136 171 208 249
#     4  11  19  30  46  63  83 108 141 176 209 240
#     4  11  22  36  53  69  84 102 124 155 201 253
#
# _framework density 14.991248000000001
#
# number of rings (size 3 to 8) (size 9 to 14) (size 15 to 20)
#    0.000    1.778    0.000    8.000    0.000    3.556 
#    0.000    0.000    0.000    4.444    0.000    0.000 
#    0.000    0.000    0.000    0.000    0.000    0.000 
#
# Total GULP energy -669058.741921 kJ/mol
# GULP energy per Si atom -12389.976702 kJ/mol
# Density = 1.495713 g / cm^3
# Si number density = 14.991248 Si / 1000 Ang^3
#
#
#
# Elastic Constant Matrix: (Units=GPa)
#
#
# Indices 1 2 3 4 5 6 
#
# 1 74.3902 42.5688 24.3765 -0.1132 0.0000 0.0000
# 2 42.5688 74.3902 24.3765 0.1132 0.0000 0.0000
# 3 24.3765 24.3765 104.5023 0.0000 0.0000 0.0000
# 4 -0.1132 0.1132 0.0000 17.1644 0.0000 0.0000
# 5 0.0000 0.0000 0.0000 0.0000 17.1644 -0.1132
# 6 0.0000 0.0000 0.0000 0.0000 -0.1132 15.9107
#
#
#
# Elastic Compliance Matrix: (Units=1/GPa)
#
#
# Indices 1 2 3 4 5 6 
#
# 1 0.020449 -0.010978 -0.002209 0.000207 0.000000 0.000000
# 2 -0.010978 0.020449 -0.002209 -0.000207 0.000000 0.000000
# 3 -0.002209 -0.002209 0.010600 0.000000 0.000000 0.000000
# 4 0.000207 -0.000207 0.000000 0.058263 0.000000 0.000000
# 5 0.000000 0.000000 0.000000 0.000000 0.058263 0.000415
# 6 0.000000 0.000000 0.000000 0.000000 0.000415 0.062854
#
#
# Mechanical properties :
#
#
# Convention : Reuss Voigt Hill
#
# Bulk Modulus (GPa) = 48.29805 48.43625 48.36715
# Shear Modulus (GPa) = 18.61702 20.84529 19.73116
#
# Velocity S-wave (km/s) = 3.52783 3.73298 3.63185
# Velocity P-wave (km/s) = 6.99153 7.13863 7.06546
#
# Compressibility (1/GPa) = 0.02070477
#
# Stress axis : x y z
#
# Youngs Moduli (GPa) = 48.90244 48.90244 94.34117
#
# Poissons Ratio (x) = 0.53685 0.20842
# Poissons Ratio (y) = 0.53685 0.20842
# Poissons Ratio (z) = 0.10804 0.10804
#
# Static dielectric constant tensor:
#      x y z
#    x 3.220150 0.000000 0.000000 
#    y 0.000000 3.220150 0.000000 
#    z 0.000000 0.000000 3.086630 
# 
# 
# High freq. dielectric constant tensor:
#      x y z
#    x 1.544690 0.000000 0.000000 
#    y 0.000000 1.544690 0.000000 
#    z 0.000000 0.000000 1.607620 
# 
# From -- ./inp_files/634.got.cif
#   From: 2010.03.12/outbox.cif.g09.slc.cpg/sg164_1_cif.got.tgz:634.got - 2010.04.02 06:32:59.
