data_PCOD8323318
_publ_section_title
;
Structure prediction by ZEFSAII (Michael W. Deem and Ramdas Pophale) SiO2 
 PCOD8323318
Probable space group: P -3 1 C
;
_chemical_formula_sum "Si O2"
_cell_formula_units_Z 72
_cell_length_a 23.037947
_cell_length_b 23.037947
_cell_length_c 8.800481
_cell_angle_alpha 90.000000
_cell_angle_beta 90.000000
_cell_angle_gamma 120.000000
_cell_volume 4045.056490
_symmetry_space_group_name_H-M "P -3 1 C"
_symmetry_group_IT_number 163
_symmetry_cell_setting 'hexagonal'
loop_
_space_group_symop_operation_xyz
x,y,z
-y,x-y,z
-x+y,-x,z
-y,-x,1/2-z
-x+y,y,1/2-z
x,x-y,1/2-z
-x,-y,-z
y,-x+y,-z
x-y,x,-z
y,x,1/2+z
x-y,-y,1/2+z
-x,-x+y,1/2+z
loop_
_atom_site_type_symbol
_atom_site_label
_atom_site_fract_x
_atom_site_fract_y
_atom_site_fract_z
Si Si1 0.033687 0.573363 0.062271
Si Si2 0.547210 0.213985 0.181747
Si Si3 0.643799 0.181135 0.650273
Si Si4 0.595136 0.855126 0.326435
Si Si5 0.141163 0.401431 0.815026
Si Si6 0.364911 0.005317 0.198709
O O1 0.109437 0.591693 0.081727
O O2 0.000918 0.575084 0.221641
O O3 0.025446 0.629995 0.969706
O O4 0.000000 0.500000 0.000000
O O5 0.592385 0.184769 0.250000
O O6 0.574210 0.287105 0.250000
O O7 0.471519 0.162875 0.232582
O O8 0.551509 0.226026 0.999751
O O9 0.604770 0.209540 0.750000
O O10 0.698875 0.177577 0.754233
O O11 0.629118 0.814559 0.250000
O O12 0.587920 0.844966 0.506359
O O13 0.639798 0.934671 0.292283
O O14 0.184796 0.369592 0.750000
O O15 0.062835 0.352944 0.773589
#
# Coordination Sequence:
#
# PCOD8323318 Si02
#       6
#    12  12  12  12  12  12
#     4  11  21  34  51  83 110 139 174 226 282 334
#     4  11  23  38  57  75 101 137 184 228 284 343
#     4  11  23  37  55  81 107 137 179 229 286 341
#     4  11  23  39  58  80 113 144 181 223 274 332
#     4  11  23  38  59  81 105 144 182 227 278 335
#     4  11  22  36  56  81 113 142 179 225 276 335
#
# _framework density 17.799505
#
# number of rings (size 3 to 8) (size 9 to 14) (size 15 to 20)
#    0.000    1.000    3.333    5.667    4.667    0.000 
#    0.000    0.000    0.000    0.333    0.000    0.000 
#    0.000    0.000    0.000    0.500    0.000    4.333 
#
# Total GULP energy -892596.795628 kJ/mol
# GULP energy per Si atom -12397.177717 kJ/mol
# Density = 1.775899 g / cm^3
# Si number density = 17.799505 Si / 1000 Ang^3
#
#
#
# Elastic Constant Matrix: (Units=GPa)
#
#
# Indices 1 2 3 4 5 6 
#
# 1 80.0219 37.6638 38.4275 0.0000 1.4679 0.0000
# 2 37.6638 80.0219 38.4275 0.0000 -1.4679 0.0000
# 3 38.4275 38.4275 136.1138 0.0000 0.0000 0.0000
# 4 0.0000 0.0000 0.0000 27.0143 0.0000 -1.4679
# 5 1.4679 -1.4679 0.0000 0.0000 27.0143 0.0000
# 6 0.0000 0.0000 0.0000 -1.4679 0.0000 21.1791
#
#
#
# Elastic Compliance Matrix: (Units=1/GPa)
#
#
# Indices 1 2 3 4 5 6 
#
# 1 0.017058 -0.006640 -0.002941 0.000000 -0.001288 0.000000
# 2 -0.006640 0.017058 -0.002941 0.000000 0.001288 0.000000
# 3 -0.002941 -0.002941 0.009007 0.000000 0.000000 0.000000
# 4 0.000000 0.000000 0.000000 0.037157 0.000000 0.002575
# 5 -0.001288 0.001288 0.000000 0.000000 0.037157 0.000000
# 6 0.000000 0.000000 0.000000 0.002575 0.000000 0.047395
#
#
# Mechanical properties :
#
#
# Convention : Reuss Voigt Hill
#
# Bulk Modulus (GPa) = 55.31382 58.35503 56.83443
# Shear Modulus (GPa) = 25.52283 27.15079 26.33681
#
# Velocity S-wave (km/s) = 3.79080 3.90983 3.85078
# Velocity P-wave (km/s) = 7.09251 7.29645 7.19521
#
# Compressibility (1/GPa) = 0.01807866
#
# Stress axis : x y z
#
# Youngs Moduli (GPa) = 58.62454 58.62454 111.01865
#
# Poissons Ratio (x) = 0.38925 0.32653
# Poissons Ratio (y) = 0.38925 0.32653
# Poissons Ratio (z) = 0.17243 0.17243
#
# Static dielectric constant tensor:
#      x y z
#    x 3.250890 0.000000 0.000000 
#    y 0.000000 3.250890 0.000000 
#    z 0.000000 0.000000 3.376750 
# 
# 
# High freq. dielectric constant tensor:
#      x y z
#    x 1.656360 0.000000 0.000000 
#    y 0.000000 1.656360 0.000000 
#    z 0.000000 0.000000 1.722110 
# 
# From -- ./inp_files/1237.got.cif
#   From: 2010.03.12/outbox.cif.g09.slc.cpg/sg163_1_cif.got.tgz:1237.got - 2010.04.02 06:30:25.
