data_PCOD8323044
_publ_section_title
;
Structure prediction by ZEFSAII (Michael W. Deem and Ramdas Pophale) SiO2 
 PCOD8323044
Probable space group: P -3 1 M 
;
_chemical_formula_sum "Si O2"
_cell_formula_units_Z 96
_cell_length_a 21.277180
_cell_length_b 21.277180
_cell_length_c 16.832984
_cell_angle_alpha 90.000000
_cell_angle_beta 90.000000
_cell_angle_gamma 120.000000
_cell_volume 6599.634400
_symmetry_space_group_name_H-M "P -3 1 M "
_symmetry_group_IT_number 162
_symmetry_cell_setting 'hexagonal'
loop_
_space_group_symop_operation_xyz
x,y,z
-y,x-y,z
-x+y,-x,z
-y,-x,-z
-x+y,y,-z
x,x-y,-z
-x,-y,-z
y,-x+y,-z
x-y,x,-z
y,x,z
x-y,-y,z
-x,-x+y,z
loop_
_atom_site_type_symbol
_atom_site_label
_atom_site_fract_x
_atom_site_fract_y
_atom_site_fract_z
Si Si1 0.468123 0.385071 0.146604
Si Si2 0.301811 0.081500 0.590894
Si Si3 0.081500 0.301814 0.409108
Si Si4 0.575268 0.914282 0.684259
Si Si5 0.184274 0.665917 1.000000
Si Si6 0.543419 0.456585 0.589527
Si Si7 0.085718 0.660989 0.315740
Si Si8 0.083051 0.468123 0.146604
O O1 0.410419 0.410419 0.122373
O O2 0.441535 0.332918 0.223577
O O3 0.544436 0.455564 0.167587
O O4 0.475781 0.339148 0.076089
O O5 0.268049 0.134026 0.602164
O O6 0.327069 0.083245 0.500001
O O7 0.372088 0.111818 0.647327
O O8 0.240274 0.000000 0.614584
O O9 0.111820 0.372093 0.352678
O O10 0.000000 0.240279 0.385415
O O11 0.501333 0.880631 0.633694
O O12 0.558467 0.891386 0.776422
O O13 0.613384 0.000000 0.676923
O O14 0.136634 0.660853 0.923910
O O15 0.258238 0.741763 0.000000
O O16 0.202841 0.601421 0.000000
O O17 0.558067 0.441934 0.500000
O O18 0.500003 0.500003 0.591533
O O19 0.620707 0.501337 0.633691
O O20 0.000000 0.613383 0.323071
O O21 0.000000 0.410419 0.122372
#
# Coordination Sequence:
#
# PCOD8323044 Si02
#       8
#    12  12  12  12  12  12  12  12
#     4   9  16  28  44  61  80 103 132 165 201 240
#     4   9  17  28  41  58  82 111 140 171 210 252
#     4   9  17  28  41  58  82 111 140 171 210 252
#     4   9  15  24  39  60  83 104 128 160 197 240
#     4  10  20  31  43  57  76 103 132 170 207 244
#     4   9  14  20  34  57  85 109 125 148 186 230
#     4   9  15  24  39  60  83 104 128 160 197 240
#     4   9  16  28  44  61  80 103 132 165 201 240
#
# _framework density 14.546260999999999
#
# number of rings (size 3 to 8) (size 9 to 14) (size 15 to 20)
#    0.000    2.875    1.250    1.250    0.000    5.500 
#    0.000    0.000    0.000    0.250    0.000    1.750 
#    1.250    0.000    1.500    0.000    0.000    0.000 
#
# Total GULP energy -1189960.715979 kJ/mol
# GULP energy per Si atom -12395.424125 kJ/mol
# Density = 1.451315 g / cm^3
# Si number density = 14.546261 Si / 1000 Ang^3
#
#
#
# Elastic Constant Matrix: (Units=GPa)
#
#
# Indices 1 2 3 4 5 6 
#
# 1 72.5632 39.2406 45.9866 0.0000 0.0000 0.0000
# 2 39.2406 72.5632 45.9866 0.0000 0.0000 0.0000
# 3 45.9866 45.9866 98.2810 0.0000 0.0000 0.0000
# 4 0.0000 0.0000 0.0000 13.1355 0.0000 0.0000
# 5 0.0000 0.0000 0.0000 0.0000 13.1355 0.0000
# 6 0.0000 0.0000 0.0000 0.0000 0.0000 16.6613
#
#
#
# Elastic Compliance Matrix: (Units=1/GPa)
#
#
# Indices 1 2 3 4 5 6 
#
# 1 0.022276 -0.007734 -0.006804 0.000000 0.000000 0.000000
# 2 -0.007734 0.022276 -0.006804 0.000000 0.000000 0.000000
# 3 -0.006804 -0.006804 0.016542 0.000000 0.000000 0.000000
# 4 0.000000 0.000000 0.000000 0.076129 0.000000 0.000000
# 5 0.000000 0.000000 0.000000 0.000000 0.076129 0.000000
# 6 0.000000 0.000000 0.000000 0.000000 0.000000 0.060019
#
#
# Mechanical properties :
#
#
# Convention : Reuss Voigt Hill
#
# Bulk Modulus (GPa) = 54.32155 56.20389 55.26272
# Shear Modulus (GPa) = 15.51867 16.06604 15.79236
#
# Velocity S-wave (km/s) = 3.26981 3.32698 3.29852
# Velocity P-wave (km/s) = 7.18892 7.31302 7.25124
#
# Compressibility (1/GPa) = 0.01840890
#
# Stress axis : x y z
#
# Youngs Moduli (GPa) = 44.89216 44.89216 60.45106
#
# Poissons Ratio (x) = 0.34720 0.41132
# Poissons Ratio (y) = 0.34720 0.41132
# Poissons Ratio (z) = 0.30545 0.30545
#
# Static dielectric constant tensor:
#      x y z
#    x 2.632170 0.000000 0.000000 
#    y 0.000000 2.632170 0.000000 
#    z 0.000000 0.000000 2.995140 
# 
# 
# High freq. dielectric constant tensor:
#      x y z
#    x 1.526550 0.000000 0.000000 
#    y 0.000000 1.526550 0.000000 
#    z 0.000000 0.000000 1.564560 
# 
# From -- ./inp_files/3695.got.cif
#   From: 2010.03.12/outbox.cif.g09.slc.cpg/sg162_2_cif.got.tgz:3695.got - 2010.04.02 06:27:41.
