data_PCOD8323244
_publ_section_title
;
Structure prediction by ZEFSAII (Michael W. Deem and Ramdas Pophale) SiO2 
 PCOD8323244
Probable space group: P -3 1 C
;
_chemical_formula_sum "Si O2"
_cell_formula_units_Z 60
_cell_length_a 12.657783
_cell_length_b 12.657783
_cell_length_c 25.324419
_cell_angle_alpha 90.000000
_cell_angle_beta 90.000000
_cell_angle_gamma 120.000000
_cell_volume 3513.867767
_symmetry_space_group_name_H-M "P -3 1 C"
_symmetry_group_IT_number 163
_symmetry_cell_setting 'hexagonal'
loop_
_space_group_symop_operation_xyz
x,y,z
-y,x-y,z
-x+y,-x,z
-y,-x,1/2-z
-x+y,y,1/2-z
x,x-y,1/2-z
-x,-y,-z
y,-x+y,-z
x-y,x,-z
y,x,1/2+z
x-y,-y,1/2+z
-x,-x+y,1/2+z
loop_
_atom_site_type_symbol
_atom_site_label
_atom_site_fract_x
_atom_site_fract_y
_atom_site_fract_z
Si Si1 0.335047 0.420917 0.250000
Si Si2 0.666587 0.087012 0.152817
Si Si3 0.242367 0.242460 0.940119
Si Si4 0.757540 0.757633 0.940119
Si Si5 0.666587 0.579575 0.152817
O O1 0.437286 0.562715 0.250000
O O2 0.204265 0.408531 0.250000
O O3 0.346000 0.354000 0.198572
O O4 0.346000 0.354000 0.301428
O O5 0.673907 0.029741 0.097292
O O6 0.558368 0.116736 0.149494
O O7 0.789042 0.210958 0.165994
O O8 0.100124 0.200248 0.933795
O O9 0.326093 0.355834 0.902708
O O10 0.259386 0.129693 0.923864
O O11 0.285427 0.285427 1.000000
#
# Coordination Sequence:
#
# PCOD8323244 Si02
#       5
#    12  12  12  12  12
#     4  10  20  34  52  72  94 120 152 192 236 282
#     4  10  20  33  50  71  97 129 162 196 233 279
#     4   9  17  30  49  72  97 126 161 202 247 291
#     4   9  17  30  49  72  97 126 161 202 247 291
#     4  10  20  33  50  71  97 129 162 196 233 279
#
# _framework density 17.075201
#
# number of rings (size 3 to 8) (size 9 to 14) (size 15 to 20)
#    0.000    2.400    0.000    2.800    0.000    2.400 
#    0.000    2.000    0.000    6.400    0.000    0.000 
#    0.000    0.000    0.000    0.000    0.000    0.000 
#
# Total GULP energy -744160.708662 kJ/mol
# GULP energy per Si atom -12402.678478 kJ/mol
# Density = 1.703634 g / cm^3
# Si number density = 17.075201 Si / 1000 Ang^3
#
#
#
# Elastic Constant Matrix: (Units=GPa)
#
#
# Indices 1 2 3 4 5 6 
#
# 1 114.6104 70.4982 65.0234 0.0000 0.0000 0.0000
# 2 70.4982 114.6104 65.0234 0.0000 0.0000 0.0000
# 3 65.0234 65.0234 120.4942 0.0000 0.0000 0.0000
# 4 0.0000 0.0000 0.0000 23.8509 0.0000 0.0000
# 5 0.0000 0.0000 0.0000 0.0000 23.8509 0.0000
# 6 0.0000 0.0000 0.0000 0.0000 0.0000 22.0561
#
#
#
# Elastic Compliance Matrix: (Units=1/GPa)
#
#
# Indices 1 2 3 4 5 6 
#
# 1 0.015685 -0.006984 -0.004695 0.000000 0.000000 0.000000
# 2 -0.006984 0.015685 -0.004695 0.000000 0.000000 0.000000
# 3 -0.004695 -0.004695 0.013367 0.000000 0.000000 0.000000
# 4 0.000000 0.000000 0.000000 0.041927 0.000000 0.000000
# 5 0.000000 0.000000 0.000000 0.000000 0.041927 0.000000
# 6 0.000000 0.000000 0.000000 0.000000 0.000000 0.045339
#
#
# Mechanical properties :
#
#
# Convention : Reuss Voigt Hill
#
# Bulk Modulus (GPa) = 83.42257 83.42279 83.42268
# Shear Modulus (GPa) = 23.73311 23.89624 23.81467
#
# Velocity S-wave (km/s) = 3.73220 3.74501 3.73861
# Velocity P-wave (km/s) = 8.21794 8.22571 8.22182
#
# Compressibility (1/GPa) = 0.01198716
#
# Stress axis : x y z
#
# Youngs Moduli (GPa) = 63.75440 63.75440 74.81243
#
# Poissons Ratio (x) = 0.44528 0.35127
# Poissons Ratio (y) = 0.44528 0.35127
# Poissons Ratio (z) = 0.29935 0.29935
#
# Static dielectric constant tensor:
#      x y z
#    x 3.096880 0.000000 0.000000 
#    y 0.000000 3.096880 0.000000 
#    z 0.000000 0.000000 3.417770 
# 
# 
# High freq. dielectric constant tensor:
#      x y z
#    x 1.657720 0.000000 0.000000 
#    y 0.000000 1.657720 0.000000 
#    z 0.000000 0.000000 1.671580 
# 
# From -- ./inp_files/4093.got.cif
#   From: 2010.03.12/outbox.cif.g09.slc.cpg/sg163_3_cif.got.tgz:4093.got - 2010.04.02 06:30:25.
