data_PCOD8323585
_publ_section_title
;
Structure prediction by ZEFSAII (Michael W. Deem and Ramdas Pophale) SiO2 
 PCOD8323585
Probable space group: P -3 M 1
;
_chemical_formula_sum "Si O2"
_cell_formula_units_Z 48
_cell_length_a 17.434902
_cell_length_b 17.434902
_cell_length_c 10.129746
_cell_angle_alpha 90.000000
_cell_angle_beta 90.000000
_cell_angle_gamma 120.000000
_cell_volume 2666.663451
_symmetry_space_group_name_H-M "P -3 M 1"
_symmetry_group_IT_number 164
_symmetry_cell_setting 'hexagonal'
loop_
_space_group_symop_operation_xyz
x,y,z
-y,x-y,z
-x+y,-x,z
x-y,-y,-z
-x,-x+y,-z
y,x,-z
-x,-y,-z
y,-x+y,-z
x-y,x,-z
-x+y,y,z
x,x-y,z
-y,-x,z
loop_
_atom_site_type_symbol
_atom_site_label
_atom_site_fract_x
_atom_site_fract_y
_atom_site_fract_z
Si Si1 0.101109 0.467841 0.031772
Si Si2 0.062056 0.757009 0.626357
Si Si3 0.331783 0.838715 0.741813
Si Si4 0.766275 0.707072 0.870457
O O1 0.138589 0.569295 0.086282
O O2 0.108714 0.401515 0.136463
O O3 0.150333 0.469402 0.896811
O O4 0.000000 0.431036 0.000000
O O5 0.143707 0.856294 0.606523
O O6 0.096493 0.688600 0.655339
O O7 0.000000 0.724521 0.500000
O O8 0.002375 0.755496 0.746878
O O9 0.430704 0.861408 0.707439
O O10 0.262692 0.737309 0.704634
O O11 0.868947 0.737894 0.876189
O O12 0.739141 0.739141 0.000000
#
# Coordination Sequence:
#
# PCOD8323585 Si02
#       4
#    12  12  12  12
#     4   9  16  28  50  81 114 143 174 217 264 315
#     4  11  23  39  57  79 109 145 185 229 278 334
#     4  10  19  33  54  83 116 149 184 222 267 320
#     4  11  20  34  58  84 108 140 182 229 279 329
#
# _framework density 18.000021
#
# number of rings (size 3 to 8) (size 9 to 14) (size 15 to 20)
#    0.000    1.750    5.000    2.500    0.000    0.500 
#    0.000    0.000    0.000   10.500    0.000    0.000 
#    0.000    0.000    0.000    0.000    0.000    0.000 
#
# Total GULP energy -594862.277460 kJ/mol
# GULP energy per Si atom -12392.964114 kJ/mol
# Density = 1.795905 g / cm^3
# Si number density = 18.000021 Si / 1000 Ang^3
#
#
#
# Elastic Constant Matrix: (Units=GPa)
#
#
# Indices 1 2 3 4 5 6 
#
# 1 103.2916 59.7930 37.3745 0.5546 0.0000 0.0000
# 2 59.7930 103.2916 37.3745 -0.5546 0.0000 0.0000
# 3 37.3745 37.3745 73.7479 0.0000 0.0000 0.0000
# 4 0.5546 -0.5546 0.0000 28.8828 0.0000 0.0000
# 5 0.0000 0.0000 0.0000 0.0000 28.8828 0.5546
# 6 0.0000 0.0000 0.0000 0.0000 0.5546 21.7493
#
#
#
# Elastic Compliance Matrix: (Units=1/GPa)
#
#
# Indices 1 2 3 4 5 6 
#
# 1 0.015494 -0.007507 -0.004048 -0.000442 0.000000 0.000000
# 2 -0.007507 0.015494 -0.004048 0.000442 0.000000 0.000000
# 3 -0.004048 -0.004048 0.017662 0.000000 0.000000 0.000000
# 4 -0.000442 0.000442 0.000000 0.034640 0.000000 0.000000
# 5 0.000000 0.000000 0.000000 0.000000 0.034640 -0.000883
# 6 0.000000 0.000000 0.000000 0.000000 -0.000883 0.046001
#
#
# Mechanical properties :
#
#
# Convention : Reuss Voigt Hill
#
# Bulk Modulus (GPa) = 57.32121 61.04612 59.18367
# Shear Modulus (GPa) = 24.88182 25.62224 25.25203
#
# Velocity S-wave (km/s) = 3.72199 3.77696 3.74958
# Velocity P-wave (km/s) = 7.09825 7.28071 7.19006
#
# Compressibility (1/GPa) = 0.01744555
#
# Stress axis : x y z
#
# Youngs Moduli (GPa) = 64.54203 64.54203 56.61744
#
# Poissons Ratio (x) = 0.48450 0.22917
# Poissons Ratio (y) = 0.48450 0.22917
# Poissons Ratio (z) = 0.26125 0.26125
#
# Static dielectric constant tensor:
#      x y z
#    x 3.544250 0.000000 0.000000 
#    y 0.000000 3.544250 0.000000 
#    z 0.000000 0.000000 2.914200 
# 
# 
# High freq. dielectric constant tensor:
#      x y z
#    x 1.701480 0.000000 0.000000 
#    y 0.000000 1.701480 0.000000 
#    z 0.000000 0.000000 1.661990 
# 
# From -- ./inp_files/1217.got.cif
#   From: 2010.03.12/outbox.cif.g09.slc.cpg/sg164_1_cif.got.tgz:1217.got - 2010.04.02 06:32:59.
