data_PCOD8323165
_publ_section_title
;
Structure prediction by ZEFSAII (Michael W. Deem and Ramdas Pophale) SiO2 
 PCOD8323165
Probable space group: P -3 1 M 
;
_chemical_formula_sum "Si O2"
_cell_formula_units_Z 36
_cell_length_a 20.479068
_cell_length_b 20.479068
_cell_length_c 4.867487
_cell_angle_alpha 90.000000
_cell_angle_beta 90.000000
_cell_angle_gamma 120.000000
_cell_volume 1767.892316
_symmetry_space_group_name_H-M "P -3 1 M "
_symmetry_group_IT_number 162
_symmetry_cell_setting 'hexagonal'
loop_
_space_group_symop_operation_xyz
x,y,z
-y,x-y,z
-x+y,-x,z
-y,-x,-z
-x+y,y,-z
x,x-y,-z
-x,-y,-z
y,-x+y,-z
x-y,x,-z
y,x,z
x-y,-y,z
-x,-x+y,z
loop_
_atom_site_type_symbol
_atom_site_label
_atom_site_fract_x
_atom_site_fract_y
_atom_site_fract_z
Si Si1 0.576763 0.717765 0.587109
Si Si2 0.085706 0.257802 0.734889
Si Si3 0.470684 0.087456 0.076903
O O1 0.545155 0.772578 0.500000
O O2 0.667525 0.762307 0.586040
O O3 0.541262 0.643966 0.392176
O O4 0.551237 0.690054 0.895656
O O5 0.108189 0.216378 0.500000
O O6 0.000000 0.203403 0.827948
O O7 0.139345 0.278689 0.000000
O O8 0.416144 0.000000 0.006337
O O9 0.555964 0.111928 0.000000
#
# Coordination Sequence:
#
# PCOD8323165 Si02
#       3
#    12  12  12
#     4  11  22  37  58  85 115 147 184 230 281 333
#     4  11  22  37  59  86 116 150 188 235 287 339
#     4  11  22  37  59  85 114 147 184 230 280 332
#
# _framework density 20.363232
#
# number of rings (size 3 to 8) (size 9 to 14) (size 15 to 20)
#    0.000    1.000    0.000   10.000    0.000    2.667 
#    0.000    0.000    0.000   20.000    0.000    0.000 
#    0.000    0.000    0.000    0.000    0.000    0.000 
#
# Total GULP energy -446500.231180 kJ/mol
# GULP energy per Si atom -12402.784199 kJ/mol
# Density = 2.031688 g / cm^3
# Si number density = 20.363232 Si / 1000 Ang^3
#
#
#
# Elastic Constant Matrix: (Units=GPa)
#
#
# Indices 1 2 3 4 5 6 
#
# 1 84.4504 37.9134 18.9108 0.0000 -4.7839 0.0000
# 2 37.9134 84.4504 18.9108 0.0000 4.7839 0.0000
# 3 18.9108 18.9108 94.7900 0.0000 0.0000 0.0000
# 4 0.0000 0.0000 0.0000 36.0909 0.0000 4.7839
# 5 -4.7839 4.7839 0.0000 0.0000 36.0909 0.0000
# 6 0.0000 0.0000 0.0000 4.7839 0.0000 23.2685
#
#
#
# Elastic Compliance Matrix: (Units=1/GPa)
#
#
# Indices 1 2 3 4 5 6 
#
# 1 0.015400 -0.006690 -0.001738 0.000000 0.002928 0.000000
# 2 -0.006690 0.015400 -0.001738 0.000000 -0.002928 0.000000
# 3 -0.001738 -0.001738 0.011243 0.000000 0.000000 0.000000
# 4 0.000000 0.000000 0.000000 0.028484 0.000000 -0.005856
# 5 0.002928 -0.002928 0.000000 0.000000 0.028484 0.000000
# 6 0.000000 0.000000 0.000000 -0.005856 0.000000 0.044181
#
#
# Mechanical properties :
#
#
# Convention : Reuss Voigt Hill
#
# Bulk Modulus (GPa) = 46.05842 46.12900 46.09371
# Shear Modulus (GPa) = 29.28094 31.62045 30.45070
#
# Velocity S-wave (km/s) = 3.79612 3.94486 3.87120
# Velocity P-wave (km/s) = 6.47160 6.59177 6.53196
#
# Compressibility (1/GPa) = 0.02171156
#
# Stress axis : x y z
#
# Youngs Moduli (GPa) = 64.93572 64.93572 88.94481
#
# Poissons Ratio (x) = 0.43445 0.15455
# Poissons Ratio (y) = 0.43445 0.15455
# Poissons Ratio (z) = 0.11283 0.11283
#
# Static dielectric constant tensor:
#      x y z
#    x 3.623390 0.000000 0.000000 
#    y 0.000000 3.623390 0.000000 
#    z 0.000000 0.000000 3.705470 
# 
# 
# High freq. dielectric constant tensor:
#      x y z
#    x 1.781510 0.000000 0.000000 
#    y 0.000000 1.781510 0.000000 
#    z 0.000000 0.000000 1.816450 
# 
# From -- ./inp_files/286.got.cif
#   From: 2010.03.12/outbox.cif.g09.slc.cpg/sg162_1_cif.got.tgz:286.got - 2010.04.02 06:27:41.
