data_PCOD8323272
_publ_section_title
;
Structure prediction by ZEFSAII (Michael W. Deem and Ramdas Pophale) SiO2 
 PCOD8323272
Probable space group: P -3 1 C
;
_chemical_formula_sum "Si O2"
_cell_formula_units_Z 44
_cell_length_a 12.638258
_cell_length_b 12.638258
_cell_length_c 15.216196
_cell_angle_alpha 90.000000
_cell_angle_beta 90.000000
_cell_angle_gamma 120.000000
_cell_volume 2104.801571
_symmetry_space_group_name_H-M "P -3 1 C"
_symmetry_group_IT_number 163
_symmetry_cell_setting 'hexagonal'
loop_
_space_group_symop_operation_xyz
x,y,z
-y,x-y,z
-x+y,-x,z
-y,-x,1/2-z
-x+y,y,1/2-z
x,x-y,1/2-z
-x,-y,-z
y,-x+y,-z
x-y,x,-z
y,x,1/2+z
x-y,-y,1/2+z
-x,-x+y,1/2+z
loop_
_atom_site_type_symbol
_atom_site_label
_atom_site_fract_x
_atom_site_fract_y
_atom_site_fract_z
Si Si1 0.333334 0.666668 0.644265
Si Si2 0.833590 0.093761 0.016665
Si Si3 0.529940 0.926755 0.426363
Si Si4 0.265118 0.854929 0.658374
Si Si5 0.666668 0.333334 0.855393
O O1 0.333334 0.666667 0.750000
O O2 0.289113 0.756758 0.607092
O O3 0.874315 0.165874 0.108194
O O4 0.732303 0.113113 0.969914
O O5 0.956135 0.159851 0.958008
O O6 0.410277 0.806616 0.390177
O O7 0.500000 0.000000 0.500000
O O8 0.604004 0.017758 0.343537
O O9 0.203887 0.796114 0.750000
O O10 0.666668 0.333334 0.750000
#
# Coordination Sequence:
#
# PCOD8323272 Si02
#       5
#     4  12  12  12   4
#     4   9  18  31  53  82 111 141 187 248 292 337
#     4  10  21  38  60  84 115 156 201 252 309 377
#     4  11  24  41  63  90 125 172 215 258 326 408
#     4  10  21  37  61  89 117 155 205 258 308 375
#     4  12  27  43  62  97 139 170 211 288 354 391
#
# _framework density 20.904582000000001
#
# number of rings (size 3 to 8) (size 9 to 14) (size 15 to 20)
#    0.000    1.636    0.000    5.182    0.000    9.818 
#    0.000    4.091    0.000    0.000    0.000    0.000 
#    0.000    0.000    0.000    0.000    0.000    0.000 
#
# Total GULP energy -545125.119294 kJ/mol
# GULP energy per Si atom -12389.207257 kJ/mol
# Density = 2.085700 g / cm^3
# Si number density = 20.904582 Si / 1000 Ang^3
#
#
#
# Elastic Constant Matrix: (Units=GPa)
#
#
# Indices 1 2 3 4 5 6 
#
# 1 150.4976 59.5246 49.5687 0.0002 3.6703 -0.0002
# 2 59.5246 150.4969 49.5685 0.0002 -3.6701 -0.0003
# 3 49.5687 49.5685 74.9893 -0.0001 -0.0001 -0.0002
# 4 0.0002 0.0002 -0.0001 31.4853 0.0000 -3.6701
# 5 3.6703 -3.6701 -0.0001 0.0000 31.4854 0.0001
# 6 -0.0002 -0.0003 -0.0002 -3.6701 0.0001 45.4864
#
#
#
# Elastic Compliance Matrix: (Units=1/GPa)
#
#
# Indices 1 2 3 4 5 6 
#
# 1 0.009009 -0.002088 -0.004575 0.000000 -0.001294 0.000000
# 2 -0.002088 0.009009 -0.004575 0.000000 0.001293 0.000000
# 3 -0.004575 -0.004575 0.019383 0.000000 0.000000 0.000000
# 4 0.000000 0.000000 0.000000 0.032062 0.000000 0.002587
# 5 -0.001294 0.001293 0.000000 0.000000 0.032062 0.000000
# 6 0.000000 0.000000 0.000000 0.002587 0.000000 0.022193
#
#
# Mechanical properties :
#
#
# Convention : Reuss Voigt Hill
#
# Bulk Modulus (GPa) = 66.99786 77.03414 72.01600
# Shear Modulus (GPa) = 33.07563 36.17956 34.62759
#
# Velocity S-wave (km/s) = 3.98203 4.16468 4.07438
# Velocity P-wave (km/s) = 7.29801 7.74961 7.52720
#
# Compressibility (1/GPa) = 0.01492585
#
# Stress axis : x y z
#
# Youngs Moduli (GPa) = 111.00327 111.00300 51.59135
#
# Poissons Ratio (x) = 0.23177 0.23602
# Poissons Ratio (y) = 0.23177 0.23602
# Poissons Ratio (z) = 0.50781 0.50781
#
# Static dielectric constant tensor:
#      x y z
#    x 4.280370 0.000000 0.000000 
#    y 0.000000 4.280370 0.000000 
#    z 0.000000 0.000000 3.523690 
# 
# 
# High freq. dielectric constant tensor:
#      x y z
#    x 1.836660 0.000000 0.000000 
#    y 0.000000 1.836660 0.000000 
#    z 0.000000 0.000000 1.786470 
# 
# From -- ./inp_files/2947.got.cif
#   From: 2010.03.12/outbox.cif.g09.slc.cpg/sg163_2_cif.got.tgz:2947.got - 2010.04.02 06:30:25.
