data_PCOD8323606
_publ_section_title
;
Structure prediction by ZEFSAII (Michael W. Deem and Ramdas Pophale) SiO2 
 PCOD8323606
Probable space group: P -3 M 1
;
_chemical_formula_sum "Si O2"
_cell_formula_units_Z 66
_cell_length_a 12.575308
_cell_length_b 12.575308
_cell_length_c 28.795538
_cell_angle_alpha 90.000000
_cell_angle_beta 90.000000
_cell_angle_gamma 120.000000
_cell_volume 3943.602110
_symmetry_space_group_name_H-M "P -3 M 1"
_symmetry_group_IT_number 164
_symmetry_cell_setting 'hexagonal'
loop_
_space_group_symop_operation_xyz
x,y,z
-y,x-y,z
-x+y,-x,z
x-y,-y,-z
-x,-x+y,-z
y,x,-z
-x,-y,-z
y,-x+y,-z
x-y,x,-z
-x+y,y,z
x,x-y,z
-y,-x,z
loop_
_atom_site_type_symbol
_atom_site_label
_atom_site_fract_x
_atom_site_fract_y
_atom_site_fract_z
Si Si1 0.418505 0.335160 0.456735
Si Si2 0.750776 0.750776 0.000000
Si Si3 0.426876 0.335362 0.183955
Si Si4 0.336223 0.418700 0.715209
Si Si5 0.665733 0.581286 0.631197
Si Si6 0.418487 0.335812 0.083577
O O1 0.342732 0.342732 0.500000
O O2 0.409549 0.204775 0.456842
O O3 0.560691 0.439310 0.460402
O O4 0.357734 0.348407 0.410076
O O5 0.680614 0.676611 0.954001
O O6 0.883313 0.766625 0.999453
O O7 0.397276 0.198638 0.186272
O O8 0.573237 0.426764 0.181941
O O9 0.376318 0.356446 0.233010
O O10 0.371288 0.351569 0.135094
O O11 0.204757 0.409513 0.710113
O O12 0.440558 0.559443 0.705114
O O13 0.349183 0.329554 0.678841
O O14 0.794588 0.589176 0.623235
O O15 0.561002 0.438999 0.632852
O O16 0.437863 0.218932 0.083179
O O17 0.546681 0.453319 0.070079
#
# Coordination Sequence:
#
# PCOD8323606 Si02
#       6
#    12   6  12  12  12  12
#     4  10  20  34  54  78 102 126 153 189 231 274
#     4  10  20  32  44  58  80 114 154 190 220 254
#     4   8  13  22  39  65  93 116 138 169 217 274
#     4   9  16  27  46  71  96 119 144 180 226 274
#     4  10  20  33  49  68  92 124 160 196 230 265
#     4   9  16  27  45  68  91 112 137 175 225 277
#
# _framework density 16.735969000000001
#
# number of rings (size 3 to 8) (size 9 to 14) (size 15 to 20)
#    0.000    2.727    0.000    2.364    0.000    2.909 
#    0.000    4.545    0.000    7.273    0.000    0.000 
#    0.000    0.000    0.000    0.000    0.000    0.000 
#
# Total GULP energy -817732.714144 kJ/mol
# GULP energy per Si atom -12389.889608 kJ/mol
# Density = 1.669788 g / cm^3
# Si number density = 16.735969 Si / 1000 Ang^3
#
#
#
# Elastic Constant Matrix: (Units=GPa)
#
#
# Indices 1 2 3 4 5 6 
#
# 1 71.6502 38.6418 47.2551 1.3696 0.0000 0.0000
# 2 38.6418 71.6502 47.2551 -1.3696 0.0000 0.0000
# 3 47.2551 47.2551 153.3065 0.0000 0.0000 0.0000
# 4 1.3696 -1.3696 0.0000 19.8660 0.0000 0.0000
# 5 0.0000 0.0000 0.0000 0.0000 19.8660 1.3696
# 6 0.0000 0.0000 0.0000 0.0000 1.3696 16.5042
#
#
#
# Elastic Compliance Matrix: (Units=1/GPa)
#
#
# Indices 1 2 3 4 5 6 
#
# 1 0.021395 -0.009074 -0.003798 -0.002101 0.000000 0.000000
# 2 -0.009074 0.021395 -0.003798 0.002101 0.000000 0.000000
# 3 -0.003798 -0.003798 0.008864 0.000000 0.000000 0.000000
# 4 -0.002101 0.002101 0.000000 0.050627 0.000000 0.000000
# 5 0.000000 0.000000 0.000000 0.000000 0.050627 -0.004201
# 6 0.000000 0.000000 0.000000 0.000000 -0.004201 0.060939
#
#
# Mechanical properties :
#
#
# Convention : Reuss Voigt Hill
#
# Bulk Modulus (GPa) = 54.59954 62.54567 58.57260
# Shear Modulus (GPa) = 19.73999 22.14425 20.94212
#
# Velocity S-wave (km/s) = 3.43810 3.64146 3.54124
# Velocity P-wave (km/s) = 6.96101 7.42519 7.19684
#
# Compressibility (1/GPa) = 0.01831517
#
# Stress axis : x y z
#
# Youngs Moduli (GPa) = 46.73890 46.73890 112.81312
#
# Poissons Ratio (x) = 0.42412 0.42845
# Poissons Ratio (y) = 0.42412 0.42845
# Poissons Ratio (z) = 0.17751 0.17751
#
# Static dielectric constant tensor:
#      x y z
#    x 2.855120 0.000000 0.000000 
#    y 0.000000 2.855120 0.000000 
#    z 0.000000 0.000000 3.797820 
# 
# 
# High freq. dielectric constant tensor:
#      x y z
#    x 1.616480 0.000000 0.000000 
#    y 0.000000 1.616480 0.000000 
#    z 0.000000 0.000000 1.676960 
# 
# From -- ./inp_files/5502.got.cif
#   From: 2010.03.12/outbox.cif.g09.slc.cpg/sg164_3_cif.got.tgz:5502.got - 2010.04.02 06:32:59.
