data_PCOD8323066
_publ_section_title
;
Structure prediction by ZEFSAII (Michael W. Deem and Ramdas Pophale) SiO2 
 PCOD8323066
Probable space group: P -3 1 M 
;
_chemical_formula_sum "Si O2"
_cell_formula_units_Z 60
_cell_length_a 16.540145
_cell_length_b 16.540145
_cell_length_c 14.234988
_cell_angle_alpha 90.000000
_cell_angle_beta 90.000000
_cell_angle_gamma 120.000000
_cell_volume 3372.611854
_symmetry_space_group_name_H-M "P -3 1 M "
_symmetry_group_IT_number 162
_symmetry_cell_setting 'hexagonal'
loop_
_space_group_symop_operation_xyz
x,y,z
-y,x-y,z
-x+y,-x,z
-y,-x,-z
-x+y,y,-z
x,x-y,-z
-x,-y,-z
y,-x+y,-z
x-y,x,-z
y,x,z
x-y,-y,z
-x,-x+y,z
loop_
_atom_site_type_symbol
_atom_site_label
_atom_site_fract_x
_atom_site_fract_y
_atom_site_fract_z
Si Si1 0.895734 0.610190 0.706950
Si Si2 0.667938 0.517563 0.895544
Si Si3 0.110557 0.555279 0.394690
Si Si4 0.667937 0.150375 0.895544
Si Si5 0.714456 0.104266 0.293050
O O1 0.856001 0.508937 0.658324
O O2 0.902086 0.598631 0.818981
O O3 0.823251 0.646502 0.683576
O O4 0.000000 0.685928 0.671060
O O5 0.738664 0.477328 0.889658
O O6 0.564704 0.435296 0.872467
O O7 0.696545 0.598631 0.818981
O O8 0.671385 0.558359 0.000000
O O9 0.152152 0.576076 0.500000
O O10 0.143999 0.652936 0.341675
O O11 0.000000 0.500001 0.396940
O O12 0.685927 0.000000 0.328940
#
# Coordination Sequence:
#
# PCOD8323066 Si02
#       5
#    12  12  12  12  12
#     4  10  20  34  51  72  99 131 167 206 247 290
#     4   9  16  26  43  68  98 130 162 196 236 285
#     4   9  18  34  53  73  99 127 156 194 239 289
#     4   9  16  26  43  68  98 130 162 196 236 285
#     4  10  20  34  51  72  99 131 167 206 247 290
#
# _framework density 17.790365999999999
#
# number of rings (size 3 to 8) (size 9 to 14) (size 15 to 20)
#    0.000    2.600    2.000    0.400    0.000    3.200 
#    1.200    2.000    0.000    0.400    0.000    0.000 
#    0.000    0.000    0.000   20.000    0.000    0.000 
#
# Total GULP energy -743599.715469 kJ/mol
# GULP energy per Si atom -12393.328591 kJ/mol
# Density = 1.774987 g / cm^3
# Si number density = 17.790366 Si / 1000 Ang^3
#
#
#
# Elastic Constant Matrix: (Units=GPa)
#
#
# Indices 1 2 3 4 5 6 
#
# 1 81.8257 45.6795 18.0677 0.0000 0.0000 0.0000
# 2 45.6795 81.8257 18.0677 0.0000 0.0000 0.0000
# 3 18.0677 18.0677 83.4661 0.0000 0.0000 0.0000
# 4 0.0000 0.0000 0.0000 14.1182 0.0000 0.0000
# 5 0.0000 0.0000 0.0000 0.0000 14.1182 0.0000
# 6 0.0000 0.0000 0.0000 0.0000 0.0000 18.0731
#
#
#
# Elastic Compliance Matrix: (Units=1/GPa)
#
#
# Indices 1 2 3 4 5 6 
#
# 1 0.018010 -0.009655 -0.001809 0.000000 0.000000 0.000000
# 2 -0.009655 0.018010 -0.001809 0.000000 0.000000 0.000000
# 3 -0.001809 -0.001809 0.012764 0.000000 0.000000 0.000000
# 4 0.000000 0.000000 0.000000 0.070831 0.000000 0.000000
# 5 0.000000 0.000000 0.000000 0.000000 0.070831 0.000000
# 6 0.000000 0.000000 0.000000 0.000000 0.000000 0.055331
#
#
# Mechanical properties :
#
#
# Convention : Reuss Voigt Hill
#
# Bulk Modulus (GPa) = 44.96391 45.63859 45.30125
# Shear Modulus (GPa) = 17.87405 20.28206 19.07805
#
# Velocity S-wave (km/s) = 3.17315 3.38014 3.27828
# Velocity P-wave (km/s) = 6.22530 6.39867 6.31258
#
# Compressibility (1/GPa) = 0.02224006
#
# Stress axis : x y z
#
# Youngs Moduli (GPa) = 55.52338 55.52338 78.34563
#
# Poissons Ratio (x) = 0.53608 0.14170
# Poissons Ratio (y) = 0.53608 0.14170
# Poissons Ratio (z) = 0.10042 0.10042
#
# Static dielectric constant tensor:
#      x y z
#    x 3.042390 0.000000 0.000000 
#    y 0.000000 3.042390 0.000000 
#    z 0.000000 0.000000 3.552430 
# 
# 
# High freq. dielectric constant tensor:
#      x y z
#    x 1.653480 0.000000 0.000000 
#    y 0.000000 1.653480 0.000000 
#    z 0.000000 0.000000 1.699330 
# 
# From -- ./inp_files/3032.got.cif
#   From: 2010.03.12/outbox.cif.g09.slc.cpg/sg162_2_cif.got.tgz:3032.got - 2010.04.02 06:27:41.
