data_PCOD8323987
_publ_section_title
;
Structure prediction by ZEFSAII (Michael W. Deem and Ramdas Pophale) SiO2 
 PCOD8323987
Probable space group: R -3 M
;
_chemical_formula_sum "Si O2"
_cell_formula_units_Z 216
_cell_length_a 26.653799
_cell_length_b 26.653799
_cell_length_c 16.248606
_cell_angle_alpha 90.000000
_cell_angle_beta 90.000000
_cell_angle_gamma 120.000000
_cell_volume 9996.891447
_symmetry_space_group_name_H-M "R -3 M"
_symmetry_group_IT_number 166
_symmetry_cell_setting 'hexagonal'
loop_
_space_group_symop_operation_xyz
x,y,z
-y,x-y,z
-x+y,-x,z
x-y,-y,-z
-x,-x+y,-z
y,x,-z
-x,-y,-z
y,-x+y,-z
x-y,x,-z
-x+y,y,z
x,x-y,z
-y,-x,z
2/3+x,1/3+y,1/3+z
2/3-y,1/3+x-y,1/3+z
2/3-x+y,1/3-x,1/3+z
2/3+x-y,1/3-y,1/3-z
2/3-x,1/3-x+y,1/3-z
2/3+y,1/3+x,1/3-z
2/3-x,1/3-y,1/3-z
2/3+y,1/3-x+y,1/3-z
2/3+x-y,1/3+x,1/3-z
2/3-x+y,1/3+y,1/3+z
2/3+x,1/3+x-y,1/3+z
2/3-y,1/3-x,1/3+z
1/3+x,2/3+y,2/3+z
1/3-y,2/3+x-y,2/3+z
1/3-x+y,2/3-x,2/3+z
1/3+x-y,2/3-y,2/3-z
1/3-x,2/3-x+y,2/3-z
1/3+y,2/3+x,2/3-z
1/3-x,2/3-y,2/3-z
1/3+y,2/3-x+y,2/3-z
1/3+x-y,2/3+x,2/3-z
1/3-x+y,2/3+y,2/3+z
1/3+x,2/3+x-y,2/3+z
1/3-y,2/3-x,2/3+z
loop_
_atom_site_type_symbol
_atom_site_label
_atom_site_fract_x
_atom_site_fract_y
_atom_site_fract_z
Si Si1 0.214392 0.898243 0.121780
Si Si2 0.222425 0.556073 0.855446
Si Si3 0.726424 0.571132 0.966632
Si Si4 0.897502 0.342823 0.525765
Si Si5 0.394833 0.491980 0.634198
Si Si6 0.556449 0.333159 0.715222
O O1 0.156666 0.843335 0.159049
O O2 0.237052 0.951999 0.185071
O O3 0.263827 0.881129 0.104543
O O4 0.201845 0.914043 0.032240
O O5 0.273204 0.546408 0.817998
O O6 0.225568 0.612784 0.814919
O O7 0.159616 0.502144 0.837864
O O8 0.231585 0.564874 0.952034
O O9 0.785704 0.571407 0.988822
O O10 0.703665 0.585063 0.051275
O O11 0.678962 0.508117 0.931648
O O12 0.931226 0.387637 0.451247
O O13 0.439754 0.560247 0.621761
O O14 0.333334 0.483146 0.666667
O O15 0.541300 0.270650 0.752383
O O16 0.616485 0.383516 0.754558
#
# Coordination Sequence:
#
# PCOD8323987 Si02
#       6
#    36  36  36  36  36  36
#     4   9  18  30  42  58  84 119 153 192 247 297
#     4   9  15  22  34  54  81 114 149 183 220 267
#     4   9  17  28  42  63  91 121 156 197 239 288
#     4  10  17  27  41  57  80 113 155 196 240 286
#     4   9  17  28  41  57  79 110 150 193 240 291
#     4   8  13  21  35  57  86 116 143 173 211 261
#
# _framework density 21.606717
#
# number of rings (size 3 to 8) (size 9 to 14) (size 15 to 20)
#    0.000    3.000    0.000    3.333    0.000    3.333 
#    0.000    2.500    0.000    0.167    0.000    0.000 
#    0.000   14.000    0.000    0.000    0.000    0.000 
#
# Total GULP energy -892184.910905 kJ/mol
# GULP energy per Si atom -12391.457096 kJ/mol
# Density = 2.155754 g / cm^3
# Si number density = 21.606717 Si / 1000 Ang^3
#
#
#
# Elastic Constant Matrix: (Units=GPa)
#
#
# Indices 1 2 3 4 5 6 
#
# 1 103.3375 46.5881 10.1263 13.5520 -0.0004 0.0000
# 2 46.5881 103.3375 10.1263 -13.5520 0.0004 0.0000
# 3 10.1263 10.1263 40.2166 0.0000 0.0000 0.0000
# 4 13.5520 -13.5520 0.0000 -113.0922 0.0000 0.0004
# 5 -0.0004 0.0004 0.0000 0.0000 -113.0922 13.5520
# 6 0.0000 0.0000 0.0000 0.0004 13.5520 28.3747
#
#
#
# Elastic Compliance Matrix: (Units=1/GPa)
#
#
# Indices 1 2 3 4 5 6 
#
# 1 0.011786 -0.004881 -0.001739 0.001997 0.000000 0.000000
# 2 -0.004881 0.011786 -0.001739 -0.001997 0.000000 0.000000
# 3 -0.001739 -0.001739 0.025741 0.000000 0.000000 0.000000
# 4 0.001997 -0.001997 0.000000 -0.008364 0.000000 0.000000
# 5 0.000000 0.000000 0.000000 0.000000 -0.008364 0.003995
# 6 0.000000 0.000000 0.000000 0.000000 0.003995 0.033335
#
#
# Mechanical properties :
#
#
# Convention : Reuss Voigt Hill
#
# Bulk Modulus (GPa) = 30.67845 42.28589 36.48217
# Shear Modulus (GPa) = 53.47425 -27.55854 12.95786
#
# Velocity S-wave (km/s) = 4.98022 -3.57523 2.45156
# Velocity P-wave (km/s) = 6.87747 1.60316 4.99348
#
# Compressibility (1/GPa) = 0.03259617
#
# Stress axis : x y z
#
# Youngs Moduli (GPa) = 84.84557 84.84557 38.84869
#
# Poissons Ratio (x) = 0.41416 0.06754
# Poissons Ratio (y) = 0.41416 0.06754
# Poissons Ratio (z) = 0.14751 0.14751
#
# Static dielectric constant tensor:
#      x y z
#    x 4.072870 0.000000 0.000000 
#    y 0.000000 4.072870 0.000000 
#    z 0.000000 0.000000 3.521970 
# 
# 
# High freq. dielectric constant tensor:
#      x y z
#    x 1.837910 0.000000 0.000000 
#    y 0.000000 1.837910 0.000000 
#    z 0.000000 0.000000 1.819570 
# 
# From -- ./inp_files/7168.got.cif
#   From: 2010.03.12/outbox.cif.g09.slc.cpg/sg166_4_cif.got.tgz:7168.got - 2010.04.02 06:38:31.
