data_PCOD8323397
_publ_section_title
;
Structure prediction by ZEFSAII (Michael W. Deem and Ramdas Pophale) SiO2 
 PCOD8323397
Probable space group: P -3 M 1
;
_chemical_formula_sum "Si O2"
_cell_formula_units_Z 96
_cell_length_a 16.892776
_cell_length_b 16.892776
_cell_length_c 25.630623
_cell_angle_alpha 90.000000
_cell_angle_beta 90.000000
_cell_angle_gamma 120.000000
_cell_volume 6334.201007
_symmetry_space_group_name_H-M "P -3 M 1"
_symmetry_group_IT_number 164
_symmetry_cell_setting 'hexagonal'
loop_
_space_group_symop_operation_xyz
x,y,z
-y,x-y,z
-x+y,-x,z
x-y,-y,-z
-x,-x+y,-z
y,x,-z
-x,-y,-z
y,-x+y,-z
x-y,x,-z
-x+y,y,z
x,x-y,z
-y,-x,z
loop_
_atom_site_type_symbol
_atom_site_label
_atom_site_fract_x
_atom_site_fract_y
_atom_site_fract_z
Si Si1 0.152048 0.484744 0.585477
Si Si2 0.971650 0.578797 0.822249
Si Si3 0.384916 0.430866 0.381329
Si Si4 0.333586 0.855524 0.274774
Si Si5 0.374212 0.275782 0.515934
Si Si6 0.099262 0.722617 0.984083
Si Si7 0.515528 0.847295 0.086429
Si Si8 0.332419 0.852104 0.876990
O O1 0.236262 0.472524 0.604946
O O2 0.180210 0.590105 0.591619
O O3 0.128870 0.457264 0.524834
O O4 0.062588 0.419112 0.620132
O O5 0.959320 0.479660 0.819470
O O6 0.922970 0.588802 0.770638
O O7 0.923902 0.587776 0.874550
O O8 0.079662 0.653216 0.828475
O O9 0.470575 0.529426 0.392782
O O10 0.335926 0.428727 0.327651
O O11 0.312845 0.411062 0.426799
O O12 0.419320 0.838639 0.271086
O O13 0.241653 0.758348 0.271141
O O14 0.290459 0.290459 0.500000
O O15 0.335409 0.167705 0.514682
O O16 0.168405 0.831596 0.984122
O O17 0.102039 0.679175 0.929175
O O18 0.128217 0.672670 0.026754
O O19 0.000000 0.706424 0.000000
O O20 0.416834 0.833667 0.093773
O O21 0.509553 0.754777 0.104277
O O22 0.419396 0.838792 0.884206
O O23 0.244814 0.755187 0.864364
#
# Coordination Sequence:
#
# PCOD8323397 Si02
#       8
#    12  12  12  12  12  12  12  12
#     4   9  16  26  41  62  88 118 150 181 212 249
#     4   9  18  30  44  60  83 114 144 180 219 252
#     4   9  17  28  42  61  87 116 145 179 217 259
#     4  10  19  31  46  64  86 113 145 179 217 260
#     4   9  16  26  41  61  85 114 146 180 219 261
#     4  10  19  30  46  67  92 119 146 180 219 263
#     4  10  18  27  41  62  89 118 146 174 208 252
#     4  10  19  31  47  66  90 120 153 184 216 255
#
# _framework density 15.155818999999999
#
# number of rings (size 3 to 8) (size 9 to 14) (size 15 to 20)
#    0.000    2.500    1.250    2.000    0.000    2.000 
#    0.000    3.125    0.000    4.250    0.000    1.750 
#    0.000    0.000    0.000    5.625    0.000    0.500 
#
# Total GULP energy -1189918.095327 kJ/mol
# GULP energy per Si atom -12394.980160 kJ/mol
# Density = 1.512132 g / cm^3
# Si number density = 15.155819 Si / 1000 Ang^3
#
#
#
# Elastic Constant Matrix: (Units=GPa)
#
#
# Indices 1 2 3 4 5 6 
#
# 1 91.9151 47.9962 37.9991 0.8578 0.0000 0.0000
# 2 47.9962 91.9151 37.9991 -0.8578 0.0000 0.0000
# 3 37.9991 37.9991 80.1612 0.0000 0.0000 0.0000
# 4 0.8578 -0.8578 0.0000 19.0217 0.0000 0.0000
# 5 0.0000 0.0000 0.0000 0.0000 19.0217 0.8578
# 6 0.0000 0.0000 0.0000 0.0000 0.8578 21.9595
#
#
#
# Elastic Compliance Matrix: (Units=1/GPa)
#
#
# Indices 1 2 3 4 5 6 
#
# 1 0.016218 -0.006592 -0.004563 -0.001029 0.000000 0.000000
# 2 -0.006592 0.016218 -0.004563 0.001029 0.000000 0.000000
# 3 -0.004563 -0.004563 0.016801 0.000000 0.000000 0.000000
# 4 -0.001029 0.001029 0.000000 0.052664 0.000000 0.000000
# 5 0.000000 0.000000 0.000000 0.000000 0.052664 -0.002057
# 6 0.000000 0.000000 0.000000 0.000000 -0.002057 0.045619
#
#
# Mechanical properties :
#
#
# Convention : Reuss Voigt Hill
#
# Bulk Modulus (GPa) = 56.17746 56.88669 56.53208
# Shear Modulus (GPa) = 21.04797 21.33372 21.19084
#
# Velocity S-wave (km/s) = 3.73067 3.75590 3.74331
# Velocity P-wave (km/s) = 7.46353 7.51167 7.48763
#
# Compressibility (1/GPa) = 0.01780073
#
# Stress axis : x y z
#
# Youngs Moduli (GPa) = 61.66105 61.66105 59.52057
#
# Poissons Ratio (x) = 0.40645 0.27159
# Poissons Ratio (y) = 0.40645 0.27159
# Poissons Ratio (z) = 0.28136 0.28136
#
# Static dielectric constant tensor:
#      x y z
#    x 2.876860 0.000000 0.000000 
#    y 0.000000 2.876860 0.000000 
#    z 0.000000 0.000000 2.999570 
# 
# 
# High freq. dielectric constant tensor:
#      x y z
#    x 1.567750 0.000000 0.000000 
#    y 0.000000 1.567750 0.000000 
#    z 0.000000 0.000000 1.578560 
# 
# From -- ./inp_files/4719.got.cif
#   From: 2010.03.12/outbox.cif.g09.slc.cpg/sg164_3_cif.got.tgz:4719.got - 2010.04.02 06:32:59.
