data_PCOD8323739
_publ_section_title
;
Structure prediction by ZEFSAII (Michael W. Deem and Ramdas Pophale) SiO2 
 PCOD8323739
Probable space group: P -3 M 1
;
_chemical_formula_sum "Si O2"
_cell_formula_units_Z 72
_cell_length_a 23.178292
_cell_length_b 23.178292
_cell_length_c 9.216021
_cell_angle_alpha 90.000000
_cell_angle_beta 90.000000
_cell_angle_gamma 120.000000
_cell_volume 4287.823962
_symmetry_space_group_name_H-M "P -3 M 1"
_symmetry_group_IT_number 164
_symmetry_cell_setting 'hexagonal'
loop_
_space_group_symop_operation_xyz
x,y,z
-y,x-y,z
-x+y,-x,z
x-y,-y,-z
-x,-x+y,-z
y,x,-z
-x,-y,-z
y,-x+y,-z
x-y,x,-z
-x+y,y,z
x,x-y,z
-y,-x,z
loop_
_atom_site_type_symbol
_atom_site_label
_atom_site_fract_x
_atom_site_fract_y
_atom_site_fract_z
Si Si1 0.801133 0.736369 0.419438
Si Si2 0.666361 0.461895 0.577155
Si Si3 0.127864 0.392619 0.411262
Si Si4 0.872136 0.607380 0.911266
Si Si5 0.198868 0.263631 0.919436
Si Si6 0.204467 0.666361 0.077148
O O1 0.794297 0.794297 0.500000
O O2 0.874314 0.748628 0.454491
O O3 0.743868 0.664768 0.478763
O O4 0.789759 0.739257 0.250001
O O5 0.725194 0.450388 0.515074
O O6 0.595671 0.404330 0.514585
O O7 0.677976 0.534738 0.531210
O O8 0.667336 0.458941 0.750003
O O9 0.197915 0.395829 0.402240
O O10 0.095336 0.377140 0.249998
O O11 0.802086 0.604171 0.902247
O O12 0.920901 0.664768 0.021241
O O13 0.856762 0.534738 0.968795
O O14 0.125687 0.251373 0.954489
O O15 0.205704 0.205704 0.000000
O O16 0.191341 0.595671 0.014578
O O17 0.274806 0.725195 0.015067
#
# Coordination Sequence:
#
# PCOD8323739 Si02
#       6
#    12  12  12  12  12  12
#     4  10  20  33  51  74  96 118 144 175 212 253
#     4   8  12  18  32  57  88 120 154 193 236 278
#     4   8  14  25  41  62  89 120 152 187 226 264
#     4   8  14  25  41  62  89 120 152 187 226 264
#     4  10  20  33  51  74  96 118 144 175 212 253
#     4   8  12  18  32  57  88 120 154 193 236 278
#
# _framework density 16.791734999999999
#
# number of rings (size 3 to 8) (size 9 to 14) (size 15 to 20)
#    0.000    3.333    0.000    3.333    0.000    3.333 
#    0.000    0.000    0.000    2.333    0.000    0.000 
#    0.000    2.667    0.000    0.000    0.000    0.000 
#
# Total GULP energy -892208.041659 kJ/mol
# GULP energy per Si atom -12391.778356 kJ/mol
# Density = 1.675352 g / cm^3
# Si number density = 16.791735 Si / 1000 Ang^3
#
#
#
# Elastic Constant Matrix: (Units=GPa)
#
#
# Indices 1 2 3 4 5 6 
#
# 1 89.8207 49.9187 45.4755 -0.0002 0.0000 0.0000
# 2 49.9187 89.8207 45.4755 0.0002 0.0000 0.0000
# 3 45.4755 45.4755 71.9302 0.0000 0.0000 0.0000
# 4 -0.0002 0.0002 0.0000 15.0448 0.0000 0.0000
# 5 0.0000 0.0000 0.0000 0.0000 15.0448 -0.0002
# 6 0.0000 0.0000 0.0000 0.0000 -0.0002 19.9510
#
#
#
# Elastic Compliance Matrix: (Units=1/GPa)
#
#
# Indices 1 2 3 4 5 6 
#
# 1 0.018611 -0.006451 -0.007688 0.000000 0.000000 0.000000
# 2 -0.006451 0.018611 -0.007688 0.000000 0.000000 0.000000
# 3 -0.007688 -0.007688 0.023623 0.000000 0.000000 0.000000
# 4 0.000000 0.000000 0.000000 0.066468 0.000000 0.000000
# 5 0.000000 0.000000 0.000000 0.000000 0.066468 0.000000
# 6 0.000000 0.000000 0.000000 0.000000 0.000000 0.050123
#
#
# Mechanical properties :
#
#
# Convention : Reuss Voigt Hill
#
# Bulk Modulus (GPa) = 58.16684 59.25677 58.71180
# Shear Modulus (GPa) = 17.04824 17.38827 17.21825
#
# Velocity S-wave (km/s) = 3.18980 3.22145 3.20566
# Velocity P-wave (km/s) = 6.94851 7.01447 6.98157
#
# Compressibility (1/GPa) = 0.01719193
#
# Stress axis : x y z
#
# Youngs Moduli (GPa) = 53.73296 53.73296 42.33191
#
# Poissons Ratio (x) = 0.34662 0.32543
# Poissons Ratio (y) = 0.34662 0.32543
# Poissons Ratio (z) = 0.41308 0.41308
#
# Static dielectric constant tensor:
#      x y z
#    x 3.241990 0.000000 0.000000 
#    y 0.000000 3.241990 0.000000 
#    z 0.000000 0.000000 2.888580 
# 
# 
# High freq. dielectric constant tensor:
#      x y z
#    x 1.631500 0.000000 0.000000 
#    y 0.000000 1.631500 0.000000 
#    z 0.000000 0.000000 1.614610 
# 
# From -- ./inp_files/1977.got.cif
#   From: 2010.03.12/outbox.cif.g09.slc.cpg/sg164_1_cif.got.tgz:1977.got - 2010.04.02 06:32:59.
