data_PCOD8323036
_publ_section_title
;
Structure prediction by ZEFSAII (Michael W. Deem and Ramdas Pophale) SiO2 
 PCOD8323036
Probable space group: P -3 1 M 
;
_chemical_formula_sum "Si O2"
_cell_formula_units_Z 46
_cell_length_a 17.603393
_cell_length_b 17.603393
_cell_length_c 8.766378
_cell_angle_alpha 90.000000
_cell_angle_beta 90.000000
_cell_angle_gamma 120.000000
_cell_volume 2352.575633
_symmetry_space_group_name_H-M "P -3 1 M "
_symmetry_group_IT_number 162
_symmetry_cell_setting 'hexagonal'
loop_
_space_group_symop_operation_xyz
x,y,z
-y,x-y,z
-x+y,-x,z
-y,-x,-z
-x+y,y,-z
x,x-y,-z
-x,-y,-z
y,-x+y,-z
x-y,x,-z
y,x,z
x-y,-y,z
-x,-x+y,z
loop_
_atom_site_type_symbol
_atom_site_label
_atom_site_fract_x
_atom_site_fract_y
_atom_site_fract_z
Si Si1 0.746378 0.648813 0.159947
Si Si2 0.333335 0.666668 0.178046
Si Si3 0.900120 0.800240 0.000000
Si Si4 0.524462 0.898543 0.092742
Si Si5 0.253617 0.759571 0.677530
O O1 0.673914 0.673914 0.212581
O O2 0.757982 0.595054 0.294934
O O3 0.839328 0.737201 0.134966
O O4 0.711632 0.590476 0.005883
O O5 0.322175 0.746983 0.238708
O O6 0.333334 0.666667 0.000000
O O7 0.861357 0.861357 0.940654
O O8 0.510025 0.846876 0.251961
O O9 0.566950 0.000000 0.135861
O O10 0.433464 0.866928 0.000000
O O11 0.256692 0.743308 0.500000
#
# Coordination Sequence:
#
# PCOD8323036 Si02
#       5
#    12   4   6  12  12
#     4  10  20  36  57  82 113 152 197 241 288 353
#     4  12  25  41  61  78 109 158 208 249 295 353
#     4  10  19  34  60  90 120 150 196 250 295 344
#     4  10  20  36  59  82 109 151 200 245 290 349
#     4  12  23  36  56  85 120 152 193 248 308 365
#
# _framework density 19.553037
#
# number of rings (size 3 to 8) (size 9 to 14) (size 15 to 20)
#    0.000    1.304    2.609    4.826    0.000    1.043 
#    0.000    0.000    0.000    7.826    0.000    0.000 
#    0.000    5.217    0.000    0.000    0.000    0.000 
#
# Total GULP energy -570254.958073 kJ/mol
# GULP energy per Si atom -12396.846915 kJ/mol
# Density = 1.950853 g / cm^3
# Si number density = 19.553037 Si / 1000 Ang^3
#
#
#
# Elastic Constant Matrix: (Units=GPa)
#
#
# Indices 1 2 3 4 5 6 
#
# 1 122.5537 50.8911 50.6108 0.0004 -2.7450 -0.0003
# 2 50.8911 122.5534 50.6104 0.0004 2.7448 0.0002
# 3 50.6108 50.6104 137.4331 0.0002 -0.0006 0.0001
# 4 0.0004 0.0004 0.0002 17.7625 -0.0005 2.7450
# 5 -2.7450 2.7448 -0.0006 -0.0005 17.7632 0.0001
# 6 -0.0003 0.0002 0.0001 2.7450 0.0001 35.8316
#
#
#
# Elastic Compliance Matrix: (Units=1/GPa)
#
#
# Indices 1 2 3 4 5 6 
#
# 1 0.010733 -0.003389 -0.002704 0.000000 0.002182 0.000000
# 2 -0.003389 0.010733 -0.002704 0.000000 -0.002182 0.000000
# 3 -0.002704 -0.002704 0.009268 0.000000 0.000000 0.000000
# 4 0.000000 0.000000 0.000000 0.056973 0.000002 -0.004365
# 5 0.002182 -0.002182 0.000000 0.000002 0.056971 0.000000
# 6 0.000000 0.000000 0.000000 -0.004365 0.000000 0.028243
#
#
# Mechanical properties :
#
#
# Convention : Reuss Voigt Hill
#
# Bulk Modulus (GPa) = 76.11458 76.30721 76.21090
# Shear Modulus (GPa) = 25.65495 29.63332 27.64414
#
# Velocity S-wave (km/s) = 3.62618 3.89721 3.76414
# Velocity P-wave (km/s) = 7.51957 7.70464 7.61267
#
# Compressibility (1/GPa) = 0.01313809
#
# Stress axis : x y z
#
# Youngs Moduli (GPa) = 93.17381 93.17375 107.89714
#
# Poissons Ratio (x) = 0.31575 0.29180
# Poissons Ratio (y) = 0.31575 0.29180
# Poissons Ratio (z) = 0.25198 0.25198
#
# Static dielectric constant tensor:
#      x y z
#    x 3.823270 0.000010 0.000000 
#    y 0.000010 3.823280 0.000000 
#    z 0.000000 0.000000 3.033150 
# 
# 
# High freq. dielectric constant tensor:
#      x y z
#    x 1.779770 0.000000 0.000000 
#    y 0.000000 1.779770 0.000000 
#    z 0.000000 0.000000 1.710240 
# 
# From -- ./inp_files/1239.got.cif
#   From: 2010.03.12/outbox.cif.g09.slc.cpg/sg162_1_cif.got.tgz:1239.got - 2010.04.02 06:27:41.
