data_PCOD8323022
_publ_section_title
;
Structure prediction by ZEFSAII (Michael W. Deem and Ramdas Pophale) SiO2 
 PCOD8323022
Probable space group: P -3 1 M 
;
_chemical_formula_sum "Si O2"
_cell_formula_units_Z 96
_cell_length_a 16.867826
_cell_length_b 16.867826
_cell_length_c 22.119671
_cell_angle_alpha 90.000000
_cell_angle_beta 90.000000
_cell_angle_gamma 120.000000
_cell_volume 5450.389254
_symmetry_space_group_name_H-M "P -3 1 M "
_symmetry_group_IT_number 162
_symmetry_cell_setting 'hexagonal'
loop_
_space_group_symop_operation_xyz
x,y,z
-y,x-y,z
-x+y,-x,z
-y,-x,-z
-x+y,y,-z
x,x-y,-z
-x,-y,-z
y,-x+y,-z
x-y,x,-z
y,x,z
x-y,-y,z
-x,-x+y,z
loop_
_atom_site_type_symbol
_atom_site_label
_atom_site_fract_x
_atom_site_fract_y
_atom_site_fract_z
Si Si1 0.553867 0.107891 0.932656
Si Si2 0.467163 0.360069 0.736714
Si Si3 0.605878 0.892459 0.136479
Si Si4 0.273500 0.898722 0.619383
Si Si5 0.518221 0.667222 0.500238
Si Si6 0.713964 0.108326 0.862657
Si Si7 0.899025 0.624965 0.618964
Si Si8 0.893814 0.359947 0.735981
O O1 0.489458 0.138607 0.898315
O O2 0.648760 0.136791 0.898687
O O3 0.498385 0.000000 0.936218
O O4 0.575451 0.150901 0.000000
O O5 0.426685 0.426685 0.733862
O O6 0.421433 0.291632 0.792581
O O7 0.446724 0.304893 0.674298
O O8 0.577238 0.423902 0.745453
O O9 0.641274 0.820758 0.118207
O O10 0.582492 0.877609 0.207163
O O11 0.682581 0.000000 0.122714
O O12 0.328716 0.902590 0.559758
O O13 0.165210 0.834324 0.608422
O O14 0.300823 0.855251 0.675164
O O15 0.292522 0.000000 0.634601
O O16 0.428068 0.571933 0.500000
O O17 0.492154 0.746077 0.500000
O O18 0.574744 0.671552 0.441137
O O19 0.682845 0.000000 0.873618
O O20 0.000000 0.707339 0.634449
O O21 0.000000 0.427463 0.725716
#
# Coordination Sequence:
#
# PCOD8323022 Si02
#       8
#    12  12  12  12  12  12  12  12
#     4   9  18  34  54  74 100 133 167 207 253 300
#     4   9  16  29  49  71  95 125 161 201 245 293
#     4  10  19  33  53  76 104 138 175 213 254 301
#     4  10  20  32  48  69  93 124 161 201 243 288
#     4  10  20  33  48  69  96 124 153 188 234 287
#     4  10  19  33  53  76 104 138 175 213 254 301
#     4  10  20  32  48  69  93 124 161 201 243 288
#     4   9  16  29  49  71  95 125 161 201 245 293
#
# _framework density 17.613422
#
# number of rings (size 3 to 8) (size 9 to 14) (size 15 to 20)
#    0.000    2.375    1.250    2.000    0.000    2.500 
#    0.750    0.000    0.000    2.500    0.000    0.000 
#    0.000    9.000    0.000    6.250    0.000    1.000 
#
# Total GULP energy -1189539.426972 kJ/mol
# GULP energy per Si atom -12391.035698 kJ/mol
# Density = 1.757333 g / cm^3
# Si number density = 17.613422 Si / 1000 Ang^3
#
#
#
# Elastic Constant Matrix: (Units=GPa)
#
#
# Indices 1 2 3 4 5 6 
#
# 1 84.9836 56.4887 16.1637 0.0000 -0.0990 0.0000
# 2 56.4887 84.9836 16.1637 0.0000 0.0990 0.0000
# 3 16.1637 16.1637 107.1583 0.0000 0.0000 0.0000
# 4 0.0000 0.0000 0.0000 4.8462 0.0000 0.0990
# 5 -0.0990 0.0990 0.0000 0.0000 4.8462 0.0000
# 6 0.0000 0.0000 0.0000 0.0990 0.0000 14.2474
#
#
#
# Elastic Compliance Matrix: (Units=1/GPa)
#
#
# Indices 1 2 3 4 5 6 
#
# 1 0.021210 -0.013889 -0.001104 0.000000 0.000717 0.000000
# 2 -0.013889 0.021210 -0.001104 0.000000 -0.000717 0.000000
# 3 -0.001104 -0.001104 0.009665 0.000000 0.000000 0.000000
# 4 0.000000 0.000000 0.000000 0.206377 0.000000 -0.001434
# 5 0.000717 -0.000717 0.000000 0.000000 0.206377 0.000000
# 6 0.000000 0.000000 0.000000 -0.001434 0.000000 0.070198
#
#
# Mechanical properties :
#
#
# Convention : Reuss Voigt Hill
#
# Bulk Modulus (GPa) = 50.27718 50.52863 50.40290
# Shear Modulus (GPa) = 8.71289 17.34192 13.02741
#
# Velocity S-wave (km/s) = 2.22654 3.14121 2.72256
# Velocity P-wave (km/s) = 5.93437 6.47350 6.20979
#
# Compressibility (1/GPa) = 0.01988974
#
# Stress axis : x y z
#
# Youngs Moduli (GPa) = 47.14774 47.14774 103.46478
#
# Poissons Ratio (x) = 0.65484 0.11425
# Poissons Ratio (y) = 0.65484 0.11425
# Poissons Ratio (z) = 0.05206 0.05206
#
# Static dielectric constant tensor:
#      x y z
#    x 3.163030 0.000000 0.000000 
#    y 0.000000 3.163030 0.000000 
#    z 0.000000 0.000000 3.846690 
# 
# 
# High freq. dielectric constant tensor:
#      x y z
#    x 1.657590 0.000000 0.000000 
#    y 0.000000 1.657590 0.000000 
#    z 0.000000 0.000000 1.694800 
# 
# From -- ./inp_files/3899.got.cif
#   From: 2010.03.12/outbox.cif.g09.slc.cpg/sg162_2_cif.got.tgz:3899.got - 2010.04.02 06:27:41.
