data_PCOD8323904
_publ_section_title
;
Structure prediction by ZEFSAII (Michael W. Deem and Ramdas Pophale) SiO2 
 PCOD8323904
Probable space group: P -3 C 1
;
_chemical_formula_sum "Si O2"
_cell_formula_units_Z 44
_cell_length_a 12.529036
_cell_length_b 12.529036
_cell_length_c 16.200364
_cell_angle_alpha 90.000000
_cell_angle_beta 90.000000
_cell_angle_gamma 120.000000
_cell_volume 2202.372211
_symmetry_space_group_name_H-M "P -3 C 1"
_symmetry_group_IT_number 165
_symmetry_cell_setting 'hexagonal'
loop_
_space_group_symop_operation_xyz
x,y,z
-y,x-y,z
-x+y,-x,z
x-y,-y,1/2-z
-x,-x+y,1/2-z
y,x,1/2-z
-x,-y,-z
y,-x+y,-z
x-y,x,-z
-x+y,y,1/2+z
x,x-y,1/2+z
-y,-x,1/2+z
loop_
_atom_site_type_symbol
_atom_site_label
_atom_site_fract_x
_atom_site_fract_y
_atom_site_fract_z
Si Si1 0.926942 0.354812 0.829313
Si Si2 0.666668 0.333334 0.793196
Si Si3 0.261607 0.036225 0.989569
Si Si4 0.666667 0.333333 0.099808
Si Si5 0.524728 0.938285 0.923980
O O1 0.783460 0.318553 0.820821
O O2 0.934663 0.274149 0.904413
O O3 0.000000 0.340850 0.750000
O O4 0.008199 0.503169 0.842976
O O5 0.666668 0.333334 0.696589
O O6 0.228033 0.137424 0.016148
O O7 0.334426 0.028027 0.069649
O O8 0.557099 0.207532 0.065370
O O9 0.500000 0.000000 0.000000
#
# Coordination Sequence:
#
# PCOD8323904 Si02
#       5
#    12   4  12   4  12
#     4  11  23  41  63  98 130 168 215 267 328 392
#     4  12  24  37  65  94 132 169 209 259 333 391
#     4  11  24  43  66  91 126 173 221 271 325 394
#     4  12  21  37  62  91 126 166 206 262 324 382
#     4  10  21  37  61  90 126 162 207 261 323 381
#
# _framework density 19.978456999999999
#
# number of rings (size 3 to 8) (size 9 to 14) (size 15 to 20)
#    0.000    1.091    2.727    5.182    0.000    6.545 
#    0.000    1.364    0.000    0.000    0.000    0.000 
#    0.000    0.000    0.000    0.000    0.000    0.000 
#
# Total GULP energy -545157.327844 kJ/mol
# GULP energy per Si atom -12389.939269 kJ/mol
# Density = 1.993299 g / cm^3
# Si number density = 19.978457 Si / 1000 Ang^3
#
#
#
# Elastic Constant Matrix: (Units=GPa)
#
#
# Indices 1 2 3 4 5 6 
#
# 1 67.1716 93.3709 29.7175 125.6180 0.0000 0.0000
# 2 93.3709 67.2158 29.7356 -125.5663 0.0000 0.0000
# 3 29.7175 29.7356 85.3204 0.0216 0.0000 0.0000
# 4 125.6180 -125.5663 0.0216 -276.7432 0.0000 0.0000
# 5 0.0000 0.0000 0.0000 0.0000 -277.9489 126.1195
# 6 0.0000 0.0000 0.0000 0.0000 126.1195 -13.3190
#
#
#
# Elastic Compliance Matrix: (Units=1/GPa)
#
#
# Indices 1 2 3 4 5 6 
#
# 1 0.009269 -0.002118 -0.002491 0.005168 0.000000 0.000000
# 2 -0.002118 0.009269 -0.002491 -0.005167 0.000000 0.000000
# 3 -0.002491 -0.002491 0.013457 0.000001 0.000000 0.000000
# 4 0.005168 -0.005167 0.000001 0.001077 0.000000 0.000000
# 5 0.000000 0.000000 0.000000 0.000000 0.001091 0.010334
# 6 0.000000 0.000000 0.000000 0.000000 0.010334 0.022775
#
#
# Mechanical properties :
#
#
# Convention : Reuss Voigt Hill
#
# Bulk Modulus (GPa) = 56.20419 58.37288 57.28854
# Shear Modulus (GPa) = 64.87527 -109.14331 -22.13402
#
# Velocity S-wave (km/s) = 5.70466 -7.39926 -3.33212
# Velocity P-wave (km/s) = 8.46075 6.61192 3.73275
#
# Compressibility (1/GPa) = 0.01779227
#
# Stress axis : x y z
#
# Youngs Moduli (GPa) = 107.88752 107.88584 74.31341
#
# Poissons Ratio (x) = 0.22856 0.18514
# Poissons Ratio (y) = 0.22856 0.18513
# Poissons Ratio (z) = 0.26879 0.26877
#
# Static dielectric constant tensor:
#      x y z
#    x 4.712110 0.000000 0.000000 
#    y 0.000000 4.712310 -0.000040 
#    z 0.000000 -0.000040 4.722300 
# 
# 
# High freq. dielectric constant tensor:
#      x y z
#    x 1.786830 0.000000 0.000000 
#    y 0.000000 1.786830 0.000000 
#    z 0.000000 0.000000 1.777340 
# 
# From -- ./inp_files/2100.got.cif
#   From: 2010.03.12/outbox.cif.g09.slc.cpg/sg165_2_cif.got.tgz:2100.got - 2010.04.02 06:36:38.
