data_PCOD8323271
_publ_section_title
;
Structure prediction by ZEFSAII (Michael W. Deem and Ramdas Pophale) SiO2 
 PCOD8323271
Probable space group: P -3 1 C
;
_chemical_formula_sum "Si O2"
_cell_formula_units_Z 46
_cell_length_a 11.315500
_cell_length_b 11.315500
_cell_length_c 23.342342
_cell_angle_alpha 90.000000
_cell_angle_beta 90.000000
_cell_angle_gamma 120.000000
_cell_volume 2588.347352
_symmetry_space_group_name_H-M "P -3 1 C"
_symmetry_group_IT_number 163
_symmetry_cell_setting 'hexagonal'
loop_
_space_group_symop_operation_xyz
x,y,z
-y,x-y,z
-x+y,-x,z
-y,-x,1/2-z
-x+y,y,1/2-z
x,x-y,1/2-z
-x,-y,-z
y,-x+y,-z
x-y,x,-z
y,x,1/2+z
x-y,-y,1/2+z
-x,-x+y,1/2+z
loop_
_atom_site_type_symbol
_atom_site_label
_atom_site_fract_x
_atom_site_fract_y
_atom_site_fract_z
Si Si1 0.019403 0.736538 0.565406
Si Si2 0.333335 0.666668 0.182310
Si Si3 0.421023 0.842045 0.750000
Si Si4 0.282029 0.262926 0.932847
Si Si5 0.966308 0.477090 0.859136
O O1 0.022086 0.700882 0.499076
O O2 0.887880 0.747786 0.580879
O O3 0.026438 0.620606 0.600986
O O4 0.148377 0.878907 0.583014
O O5 0.333334 0.666667 0.250000
O O6 0.185802 0.632590 0.159970
O O7 0.255657 0.744344 0.750000
O O8 0.474635 0.936268 0.805155
O O9 0.404592 0.367293 0.894074
#
# Coordination Sequence:
#
# PCOD8323271 Si02
#       5
#    12   4   6  12  12
#     4  10  21  37  59  87 120 159 198 243 293 352
#     4  12  24  39  63  90 108 165 195 253 293 355
#     4  10  24  40  60  88 110 150 190 246 306 340
#     4  10  21  37  59  87 120 159 198 243 293 352
#     4  12  21  40  61  84 122 149 207 238 302 359
#
# _framework density 17.771958999999999
#
# number of rings (size 3 to 8) (size 9 to 14) (size 15 to 20)
#    0.261    1.043    3.913    2.870    0.000    2.087 
#    1.565    0.000    0.000    0.000    0.000    0.000 
#    0.000    0.000    0.000    0.000    0.000    0.000 
#
# Total GULP energy -570533.662180 kJ/mol
# GULP energy per Si atom -12402.905700 kJ/mol
# Density = 1.773151 g / cm^3
# Si number density = 17.771959 Si / 1000 Ang^3
#
#
#
# Elastic Constant Matrix: (Units=GPa)
#
#
# Indices 1 2 3 4 5 6 
#
# 1 87.4010 14.3448 38.6818 -0.0013 -0.1714 0.0004
# 2 14.3448 87.4018 38.6821 -0.0016 0.1684 0.0005
# 3 38.6818 38.6821 80.1532 -0.0008 -0.0011 0.0003
# 4 -0.0013 -0.0016 -0.0008 65.2853 0.0002 0.1703
# 5 -0.1714 0.1684 -0.0011 0.0002 65.2836 -0.0002
# 6 0.0004 0.0005 0.0003 0.1703 -0.0002 36.5284
#
#
#
# Elastic Compliance Matrix: (Units=1/GPa)
#
#
# Indices 1 2 3 4 5 6 
#
# 1 0.014607 0.000919 -0.007493 0.000000 0.000036 0.000000
# 2 0.000919 0.014607 -0.007493 0.000000 -0.000035 0.000000
# 3 -0.007493 -0.007493 0.019708 0.000000 0.000000 0.000000
# 4 0.000000 0.000000 0.000000 0.015318 0.000000 -0.000071
# 5 0.000036 -0.000035 0.000000 0.000000 0.015318 0.000000
# 6 0.000000 0.000000 0.000000 -0.000071 0.000000 0.027376
#
#
# Mechanical properties :
#
#
# Convention : Reuss Voigt Hill
#
# Bulk Modulus (GPa) = 48.10350 48.70817 48.40584
# Shear Modulus (GPa) = 35.21224 44.30260 39.75742
#
# Velocity S-wave (km/s) = 4.45605 4.99825 4.73492
# Velocity P-wave (km/s) = 7.32127 7.79595 7.56233
#
# Compressibility (1/GPa) = 0.02078851
#
# Stress axis : x y z
#
# Youngs Moduli (GPa) = 68.46090 68.46145 50.74087
#
# Poissons Ratio (x) = -0.06289 0.38018
# Poissons Ratio (y) = -0.06289 0.38018
# Poissons Ratio (z) = 0.51295 0.51295
#
# Static dielectric constant tensor:
#      x y z
#    x 3.518050 0.000010 0.000000 
#    y 0.000010 3.518080 -0.000010 
#    z 0.000000 -0.000010 3.052610 
# 
# 
# High freq. dielectric constant tensor:
#      x y z
#    x 1.697980 0.000000 0.000000 
#    y 0.000000 1.697980 0.000000 
#    z 0.000000 0.000000 1.691770 
# 
# From -- ./inp_files/3811.got.cif
#   From: 2010.03.12/outbox.cif.g09.slc.cpg/sg163_2_cif.got.tgz:3811.got - 2010.04.02 06:30:25.
