data_PCOD8323142
_publ_section_title
;
Structure prediction by ZEFSAII (Michael W. Deem and Ramdas Pophale) SiO2 
 PCOD8323142
Probable space group: P -3 1 M 
;
_chemical_formula_sum "Si O2"
_cell_formula_units_Z 52
_cell_length_a 12.582157
_cell_length_b 12.582157
_cell_length_c 19.019575
_cell_angle_alpha 90.000000
_cell_angle_beta 90.000000
_cell_angle_gamma 120.000000
_cell_volume 2607.604008
_symmetry_space_group_name_H-M "P -3 1 M "
_symmetry_group_IT_number 162
_symmetry_cell_setting 'hexagonal'
loop_
_space_group_symop_operation_xyz
x,y,z
-y,x-y,z
-x+y,-x,z
-y,-x,-z
-x+y,y,-z
x,x-y,-z
-x,-y,-z
y,-x+y,-z
x-y,x,-z
y,x,z
x-y,-y,z
-x,-x+y,z
loop_
_atom_site_type_symbol
_atom_site_label
_atom_site_fract_x
_atom_site_fract_y
_atom_site_fract_z
Si Si1 0.282549 0.515854 0.799109
Si Si2 0.138979 0.861816 0.710904
Si Si3 0.677296 0.535614 0.045350
Si Si4 0.860055 0.598367 0.426564
Si Si5 0.666668 0.333335 0.582527
O O1 0.424164 0.620364 0.781067
O O2 0.236377 0.393051 0.755290
O O3 0.281665 0.494694 0.881670
O O4 0.162426 0.853386 0.628510
O O5 0.000000 0.830578 0.719558
O O6 0.228028 0.000000 0.739098
O O7 0.626542 0.626542 0.060062
O O8 0.582878 0.417123 0.000000
O O9 0.802337 0.604674 0.000000
O O10 0.805168 0.610336 0.500000
O O11 0.781748 0.462113 0.392567
O O12 0.000000 0.629393 0.437976
O O13 0.666668 0.333334 0.500000
#
# Coordination Sequence:
#
# PCOD8323142 Si02
#       5
#    12  12  12  12   4
#     4  10  22  40  61  90 126 157 207 256 313 369
#     4  11  25  42  63  89 124 168 212 259 314 376
#     4  11  20  36  61  90 124 158 197 250 304 363
#     4  10  22  40  63  90 120 161 209 259 316 372
#     4   9  21  36  54  87 126 153 190 251 322 381
#
# _framework density 19.941678
#
# number of rings (size 3 to 8) (size 9 to 14) (size 15 to 20)
#    0.462    1.154    2.308    1.846    3.231    7.846 
#    0.000    0.000    0.000    3.923    0.000    0.000 
#    0.000    0.000    0.000    0.000    0.000    0.000 
#
# Total GULP energy -644436.046746 kJ/mol
# GULP energy per Si atom -12393.000899 kJ/mol
# Density = 1.989629 g / cm^3
# Si number density = 19.941678 Si / 1000 Ang^3
#
#
#
# Elastic Constant Matrix: (Units=GPa)
#
#
# Indices 1 2 3 4 5 6 
#
# 1 116.0882 54.9061 33.0224 0.0000 -2.6806 0.0000
# 2 54.9061 116.0879 33.0222 0.0002 2.6807 -0.0001
# 3 33.0224 33.0222 85.1743 0.0002 0.0000 -0.0001
# 4 0.0000 0.0002 0.0002 21.6488 -0.0001 2.6806
# 5 -2.6806 2.6807 0.0000 -0.0001 21.6489 0.0001
# 6 0.0000 -0.0001 -0.0001 2.6806 0.0001 30.5909
#
#
#
# Elastic Compliance Matrix: (Units=1/GPa)
#
#
# Indices 1 2 3 4 5 6 
#
# 1 0.011701 -0.004823 -0.002667 0.000000 0.002046 0.000000
# 2 -0.004823 0.011701 -0.002667 0.000000 -0.002046 0.000000
# 3 -0.002667 -0.002667 0.013808 0.000000 0.000000 0.000000
# 4 0.000000 0.000000 0.000000 0.046699 0.000000 -0.004092
# 5 0.002046 -0.002046 0.000000 0.000000 0.046698 0.000000
# 6 0.000000 0.000000 0.000000 -0.004092 0.000000 0.033048
#
#
# Mechanical properties :
#
#
# Convention : Reuss Voigt Hill
#
# Bulk Modulus (GPa) = 59.17875 62.13910 60.65892
# Shear Modulus (GPa) = 26.37122 27.87104 27.12113
#
# Velocity S-wave (km/s) = 3.64045 3.74254 3.69185
# Velocity P-wave (km/s) = 6.88555 7.06424 6.97547
#
# Compressibility (1/GPa) = 0.01689796
#
# Stress axis : x y z
#
# Youngs Moduli (GPa) = 85.46242 85.46229 72.41978
#
# Poissons Ratio (x) = 0.41218 0.19312
# Poissons Ratio (y) = 0.41218 0.19312
# Poissons Ratio (z) = 0.22790 0.22790
#
# Static dielectric constant tensor:
#      x y z
#    x 3.744530 0.000010 0.000000 
#    y 0.000010 3.744540 0.000000 
#    z 0.000000 0.000000 3.585530 
# 
# 
# High freq. dielectric constant tensor:
#      x y z
#    x 1.770130 0.000000 0.000000 
#    y 0.000000 1.770130 0.000000 
#    z 0.000000 0.000000 1.784470 
# 
# From -- ./inp_files/3762.got.cif
#   From: 2010.03.12/outbox.cif.g09.slc.cpg/sg162_2_cif.got.tgz:3762.got - 2010.04.02 06:27:41.
