data_PCOD8323710
_publ_section_title
;
Structure prediction by ZEFSAII (Michael W. Deem and Ramdas Pophale) SiO2 
 PCOD8323710
Probable space group: P -3 M 1
;
_chemical_formula_sum "Si O2"
_cell_formula_units_Z 66
_cell_length_a 12.583069
_cell_length_b 12.583069
_cell_length_c 28.053650
_cell_angle_alpha 90.000000
_cell_angle_beta 90.000000
_cell_angle_gamma 120.000000
_cell_volume 3846.742912
_symmetry_space_group_name_H-M "P -3 M 1"
_symmetry_group_IT_number 164
_symmetry_cell_setting 'hexagonal'
loop_
_space_group_symop_operation_xyz
x,y,z
-y,x-y,z
-x+y,-x,z
x-y,-y,-z
-x,-x+y,-z
y,x,-z
-x,-y,-z
y,-x+y,-z
x-y,x,-z
-x+y,y,z
x,x-y,z
-y,-x,z
loop_
_atom_site_type_symbol
_atom_site_label
_atom_site_fract_x
_atom_site_fract_y
_atom_site_fract_z
Si Si1 0.912191 0.578966 0.353298
Si Si2 0.668522 0.085907 0.089667
Si Si3 0.248021 0.999672 0.178878
Si Si4 0.000000 0.750360 0.000000
Si Si5 0.580333 0.913218 0.267654
Si Si6 0.087738 0.419810 0.539893
O O1 0.795252 0.590504 0.338642
O O2 0.872086 0.436043 0.350115
O O3 0.958582 0.630263 0.406642
O O4 0.023680 0.660455 0.318111
O O5 0.536765 0.073530 0.087340
O O6 0.771336 0.228665 0.087913
O O7 0.678296 0.023244 0.137710
O O8 0.682222 0.013043 0.045697
O O9 0.220685 0.110343 0.183634
O O10 0.305133 0.986852 0.227890
O O11 0.121809 0.878192 0.166142
O O12 0.883561 0.767121 0.992607
O O13 0.459133 0.918266 0.254634
O O14 0.544942 0.772471 0.270718
O O15 0.222200 0.444400 0.531480
O O16 0.094611 0.547306 0.531256
O O17 0.000000 0.323279 0.500000
#
# Coordination Sequence:
#
# PCOD8323710 Si02
#       6
#    12  12  12   6  12  12
#     4   9  17  30  48  69  92 119 154 196 240 283
#     4  10  20  34  52  74 101 132 165 202 245 293
#     4  10  20  34  53  75  99 128 163 204 245 285
#     4  10  20  34  54  78 104 134 168 208 250 292
#     4  10  20  33  49  70  98 130 161 194 235 285
#     4   9  17  29  46  68  93 121 153 191 235 282
#
# _framework density 17.157373
#
# number of rings (size 3 to 8) (size 9 to 14) (size 15 to 20)
#    0.000    2.364    0.000    2.909    0.000    2.182 
#    0.000    1.818    0.000   13.636    0.000    0.000 
#    0.000    0.000    0.000    0.000    0.000    0.000 
#
# Total GULP energy -818468.193564 kJ/mol
# GULP energy per Si atom -12401.033236 kJ/mol
# Density = 1.711832 g / cm^3
# Si number density = 17.157373 Si / 1000 Ang^3
#
#
#
# Elastic Constant Matrix: (Units=GPa)
#
#
# Indices 1 2 3 4 5 6 
#
# 1 93.9184 46.4920 48.9528 1.6555 0.0000 0.0000
# 2 46.4920 93.9184 48.9528 -1.6555 0.0000 0.0000
# 3 48.9528 48.9528 106.5551 0.0000 0.0000 0.0000
# 4 1.6555 -1.6555 0.0000 27.3094 0.0000 0.0000
# 5 0.0000 0.0000 0.0000 0.0000 27.3094 1.6555
# 6 0.0000 0.0000 0.0000 0.0000 1.6555 23.7132
#
#
#
# Elastic Compliance Matrix: (Units=1/GPa)
#
#
# Indices 1 2 3 4 5 6 
#
# 1 0.015827 -0.005348 -0.004814 -0.001284 0.000000 0.000000
# 2 -0.005348 0.015827 -0.004814 0.001284 0.000000 0.000000
# 3 -0.004814 -0.004814 0.013808 0.000000 0.000000 0.000000
# 4 -0.001284 0.001284 0.000000 0.036773 0.000000 0.000000
# 5 0.000000 0.000000 0.000000 0.000000 0.036773 -0.002567
# 6 0.000000 0.000000 0.000000 0.000000 -0.002567 0.042350
#
#
# Mechanical properties :
#
#
# Convention : Reuss Voigt Hill
#
# Bulk Modulus (GPa) = 64.47739 64.79856 64.63798
# Shear Modulus (GPa) = 25.44788 25.66601 25.55695
#
# Velocity S-wave (km/s) = 3.85542 3.87191 3.86367
# Velocity P-wave (km/s) = 7.58159 7.60513 7.59337
#
# Compressibility (1/GPa) = 0.01550931
#
# Stress axis : x y z
#
# Youngs Moduli (GPa) = 63.18383 63.18383 72.42125
#
# Poissons Ratio (x) = 0.33791 0.34864
# Poissons Ratio (y) = 0.33791 0.34864
# Poissons Ratio (z) = 0.30417 0.30417
#
# Static dielectric constant tensor:
#      x y z
#    x 3.138990 0.000000 0.000000 
#    y 0.000000 3.138990 0.000000 
#    z 0.000000 0.000000 3.463290 
# 
# 
# High freq. dielectric constant tensor:
#      x y z
#    x 1.660090 0.000000 0.000000 
#    y 0.000000 1.660090 0.000000 
#    z 0.000000 0.000000 1.677970 
# 
# From -- ./inp_files/5508.got.cif
#   From: 2010.03.12/outbox.cif.g09.slc.cpg/sg164_3_cif.got.tgz:5508.got - 2010.04.02 06:32:59.
