data_PCOD8323360
_publ_section_title
;
Structure prediction by ZEFSAII (Michael W. Deem and Ramdas Pophale) SiO2 
 PCOD8323360
Probable space group: P -3 M 1
;
_chemical_formula_sum "Si O2"
_cell_formula_units_Z 54
_cell_length_a 21.674034
_cell_length_b 21.674034
_cell_length_c 8.815212
_cell_angle_alpha 90.000000
_cell_angle_beta 90.000000
_cell_angle_gamma 120.000000
_cell_volume 3586.269259
_symmetry_space_group_name_H-M "P -3 M 1"
_symmetry_group_IT_number 164
_symmetry_cell_setting 'hexagonal'
loop_
_space_group_symop_operation_xyz
x,y,z
-y,x-y,z
-x+y,-x,z
x-y,-y,-z
-x,-x+y,-z
y,x,-z
-x,-y,-z
y,-x+y,-z
x-y,x,-z
-x+y,y,z
x,x-y,z
-y,-x,z
loop_
_atom_site_type_symbol
_atom_site_label
_atom_site_fract_x
_atom_site_fract_y
_atom_site_fract_z
Si Si1 0.999981 0.347640 0.676747
Si Si2 0.861883 0.861883 0.000000
Si Si3 0.267088 0.389892 0.900827
Si Si4 0.604470 0.071719 0.904889
Si Si5 0.792170 0.720745 0.842470
O O1 0.949731 0.375984 0.745140
O O2 0.963297 0.263672 0.707816
O O3 0.000000 0.360745 0.500000
O O4 0.080114 0.385692 0.746834
O O5 0.805761 0.832638 0.137703
O O6 0.872556 0.936278 0.937040
O O7 0.200900 0.401800 0.861547
O O8 0.324924 0.455072 0.005294
O O9 0.242940 0.317100 0.995656
O O10 0.551628 0.103256 0.879120
O O11 0.566096 0.000000 0.000000
O O12 0.847809 0.695617 0.793503
#
# Coordination Sequence:
#
# PCOD8323360 Si02
#       5
#    12   6  12  12  12
#     4  10  18  26  39  65  93 113 137 169 212 268
#     4  10  17  26  42  60  77 102 144 192 230 260
#     4   9  16  28  45  62  82 110 144 179 211 246
#     4   8  15  29  46  63  84 112 142 172 207 247
#     4   9  16  28  42  56  78 110 144 179 218 255
#
# _framework density 15.05743
#
# number of rings (size 3 to 8) (size 9 to 14) (size 15 to 20)
#    0.000    2.889    2.222    1.444    0.000    1.333 
#    0.000    0.000    0.000    0.444    0.000    0.000 
#    0.000    6.222    0.000    0.000    0.000    0.000 
#
# Total GULP energy -669264.994786 kJ/mol
# GULP energy per Si atom -12393.796200 kJ/mol
# Density = 1.502316 g / cm^3
# Si number density = 15.057430 Si / 1000 Ang^3
#
#
#
# Elastic Constant Matrix: (Units=GPa)
#
#
# Indices 1 2 3 4 5 6 
#
# 1 85.5081 44.2212 33.2462 2.2089 0.0000 0.0000
# 2 44.2212 85.5081 33.2462 -2.2089 0.0000 0.0000
# 3 33.2462 33.2462 99.1842 0.0000 0.0000 0.0000
# 4 2.2089 -2.2089 0.0000 12.9361 0.0000 0.0000
# 5 0.0000 0.0000 0.0000 0.0000 12.9361 2.2089
# 6 0.0000 0.0000 0.0000 0.0000 2.2089 20.6434
#
#
#
# Elastic Compliance Matrix: (Units=1/GPa)
#
#
# Indices 1 2 3 4 5 6 
#
# 1 0.016989 -0.007682 -0.003120 -0.004213 0.000000 0.000000
# 2 -0.007682 0.016989 -0.003120 0.004213 0.000000 0.000000
# 3 -0.003120 -0.003120 0.012174 0.000000 0.000000 0.000000
# 4 -0.004213 0.004213 0.000000 0.078742 0.000000 0.000000
# 5 0.000000 0.000000 0.000000 0.000000 0.078742 -0.008426
# 6 0.000000 0.000000 0.000000 0.000000 -0.008426 0.049343
#
#
# Mechanical properties :
#
#
# Convention : Reuss Voigt Hill
#
# Bulk Modulus (GPa) = 54.61696 54.62527 54.62112
# Shear Modulus (GPa) = 17.42608 19.93556 18.68082
#
# Velocity S-wave (km/s) = 3.40561 3.64259 3.52609
# Velocity P-wave (km/s) = 7.19829 7.35173 7.27542
#
# Compressibility (1/GPa) = 0.01830933
#
# Stress axis : x y z
#
# Youngs Moduli (GPa) = 58.85990 58.85990 82.14394
#
# Poissons Ratio (x) = 0.45217 0.25627
# Poissons Ratio (y) = 0.45217 0.25627
# Poissons Ratio (z) = 0.18363 0.18363
#
# Static dielectric constant tensor:
#      x y z
#    x 3.030780 0.000000 0.000000 
#    y 0.000000 3.030780 0.000000 
#    z 0.000000 0.000000 2.519220 
# 
# 
# High freq. dielectric constant tensor:
#      x y z
#    x 1.569120 0.000000 0.000000 
#    y 0.000000 1.569120 0.000000 
#    z 0.000000 0.000000 1.539820 
# 
# From -- ./inp_files/1522.got.cif
#   From: 2010.03.12/outbox.cif.g09.slc.cpg/sg164_1_cif.got.tgz:1522.got - 2010.04.02 06:32:59.
