data_PCOD8323822
_publ_section_title
;
Structure prediction by ZEFSAII (Michael W. Deem and Ramdas Pophale) SiO2 
 PCOD8323822
Probable space group: P -3 M 1
;
_chemical_formula_sum "Si O2"
_cell_formula_units_Z 60
_cell_length_a 17.325820
_cell_length_b 17.325820
_cell_length_c 10.660601
_cell_angle_alpha 90.000000
_cell_angle_beta 90.000000
_cell_angle_gamma 120.000000
_cell_volume 2771.404495
_symmetry_space_group_name_H-M "P -3 M 1"
_symmetry_group_IT_number 164
_symmetry_cell_setting 'hexagonal'
loop_
_space_group_symop_operation_xyz
x,y,z
-y,x-y,z
-x+y,-x,z
x-y,-y,-z
-x,-x+y,-z
y,x,-z
-x,-y,-z
y,-x+y,-z
x-y,x,-z
-x+y,y,z
x,x-y,z
-y,-x,z
loop_
_atom_site_type_symbol
_atom_site_label
_atom_site_fract_x
_atom_site_fract_y
_atom_site_fract_z
Si Si1 0.633164 0.908588 0.196886
Si Si2 0.515848 0.847930 0.425179
Si Si3 0.488487 0.331895 0.303241
Si Si4 0.827121 0.826563 0.149162
Si Si5 0.332526 0.848870 0.967989
O O1 0.635653 0.817827 0.190602
O O2 0.583760 0.914746 0.321275
O O3 0.734776 0.989137 0.201546
O O4 0.583043 0.915144 0.073023
O O5 0.423885 0.847769 0.412534
O O6 0.495806 0.747903 0.399549
O O7 0.561895 0.882886 0.563524
O O8 0.521800 0.260900 0.298604
O O9 0.572970 0.427031 0.307840
O O10 0.438191 0.325126 0.170884
O O11 0.844491 0.922246 0.197010
O O12 0.905704 0.811408 0.201002
O O13 0.824102 0.824102 0.000000
O O14 0.422617 0.845233 0.980469
O O15 0.250642 0.749358 0.988864
#
# Coordination Sequence:
#
# PCOD8323822 Si02
#       5
#    12  12  12  12  12
#     4   9  17  26  39  65  98 126 155 199 252 299
#     4   9  15  23  36  58  93 138 183 218 243 269
#     4   8  13  20  32  52  82 127 182 228 252 266
#     4   9  17  31  52  76  98 119 146 188 248 318
#     4   9  15  23  36  58  93 138 183 218 243 269
#
# _framework density 21.649673
#
# number of rings (size 3 to 8) (size 9 to 14) (size 15 to 20)
#    0.000    3.200    0.000    1.400    0.000    4.000 
#    0.000    2.000    0.000    2.400    0.000    2.800 
#    0.000   11.200    0.000   13.200    0.000  194.400 
#
# Total GULP energy -743310.002167 kJ/mol
# GULP energy per Si atom -12388.500036 kJ/mol
# Density = 2.160040 g / cm^3
# Si number density = 21.649673 Si / 1000 Ang^3
#
#
#
# Elastic Constant Matrix: (Units=GPa)
#
#
# Indices 1 2 3 4 5 6 
#
# 1 49.8248 77.3790 63.9252 4.4077 0.0000 0.0000
# 2 77.3790 49.8248 63.9252 -4.4077 0.0000 0.0000
# 3 63.9252 63.9252 181.4307 0.0000 0.0000 0.0000
# 4 4.4077 -4.4077 0.0000 13.1995 0.0000 0.0000
# 5 0.0000 0.0000 0.0000 0.0000 13.1995 4.4077
# 6 0.0000 0.0000 0.0000 0.0000 4.4077 -13.7771
#
#
#
# Elastic Compliance Matrix: (Units=1/GPa)
#
#
# Indices 1 2 3 4 5 6 
#
# 1 -0.010309 0.022480 -0.004289 0.010949 0.000000 0.000000
# 2 0.022480 -0.010309 -0.004289 -0.010949 0.000000 0.000000
# 3 -0.004289 -0.004289 0.008534 0.000000 0.000000 0.000000
# 4 0.010949 -0.010949 0.000000 0.068448 0.000000 0.000000
# 5 0.000000 0.000000 0.000000 0.000000 0.068448 0.021899
# 6 0.000000 0.000000 0.000000 0.000000 0.021899 -0.065578
#
#
# Mechanical properties :
#
#
# Convention : Reuss Voigt Hill
#
# Bulk Modulus (GPa) = 63.60103 76.83770 70.21936
# Shear Modulus (GPa) = 136.35603 7.58110 71.96856
#
# Velocity S-wave (km/s) = 7.94479 1.87332 5.77187
# Velocity P-wave (km/s) = 10.65836 6.34409 8.77064
#
# Compressibility (1/GPa) = 0.01572302
#
# Stress axis : x y z
#
# Youngs Moduli (GPa) = -97.00596 -97.00596 117.18054
#
# Poissons Ratio (x) = 2.18074 0.50254
# Poissons Ratio (y) = 2.18074 0.50254
# Poissons Ratio (z) = -0.41602 -0.41602
#
# Static dielectric constant tensor:
#      x y z
#    x 3.819400 0.000000 0.000000 
#    y 0.000000 3.819400 0.000000 
#    z 0.000000 0.000000 4.580080 
# 
# 
# High freq. dielectric constant tensor:
#      x y z
#    x 1.833900 0.000000 0.000000 
#    y 0.000000 1.833900 0.000000 
#    z 0.000000 0.000000 1.850480 
# 
# From -- ./inp_files/2716.got.cif
#   From: 2010.03.12/outbox.cif.g09.slc.cpg/sg164_2_cif.got.tgz:2716.got - 2010.04.02 06:32:59.
