data_PCOD8323335
_publ_section_title
;
Structure prediction by ZEFSAII (Michael W. Deem and Ramdas Pophale) SiO2 
 PCOD8323335
Probable space group: P -3 1 C
;
_chemical_formula_sum "Si O2"
_cell_formula_units_Z 48
_cell_length_a 11.624517
_cell_length_b 11.624517
_cell_length_c 17.884470
_cell_angle_alpha 90.000000
_cell_angle_beta 90.000000
_cell_angle_gamma 120.000000
_cell_volume 2092.938852
_symmetry_space_group_name_H-M "P -3 1 C"
_symmetry_group_IT_number 163
_symmetry_cell_setting 'hexagonal'
loop_
_space_group_symop_operation_xyz
x,y,z
-y,x-y,z
-x+y,-x,z
-y,-x,1/2-z
-x+y,y,1/2-z
x,x-y,1/2-z
-x,-y,-z
y,-x+y,-z
x-y,x,-z
y,x,1/2+z
x-y,-y,1/2+z
-x,-x+y,1/2+z
loop_
_atom_site_type_symbol
_atom_site_label
_atom_site_fract_x
_atom_site_fract_y
_atom_site_fract_z
Si Si1 0.666668 0.333335 0.638390
Si Si2 0.239968 0.969796 0.074875
Si Si3 0.876651 0.261476 0.415049
Si Si4 0.000000 0.000000 0.086913
Si Si5 0.258426 0.861713 0.325383
Si Si6 0.666668 0.333335 0.460680
O O1 0.638110 0.192183 0.673510
O O2 0.666668 0.333334 0.549102
O O3 0.105110 0.956359 0.110892
O O4 0.239027 0.844482 0.111592
O O5 0.357114 0.113080 0.102180
O O6 0.249956 0.959961 0.985081
O O7 0.805983 0.348168 0.431198
O O8 0.981494 0.321304 0.346553
O O9 0.000000 0.000000 0.000000
O O10 0.170775 0.829226 0.250000
#
# Coordination Sequence:
#
# PCOD8323335 Si02
#       6
#     4  12  12   4  12   4
#     4  12  25  49  72 102 142 194 251 295 361 442
#     4  12  20  39  70 100 141 182 242 306 363 424
#     4  12  24  43  71 107 145 188 243 308 362 434
#     4  12  15  33  61  98 130 174 229 299 364 396
#     4  12  27  44  70 103 146 195 240 301 370 440
#     4  12  27  43  76 112 139 193 251 301 360 442
#
# _framework density 22.934258
#
# number of rings (size 3 to 8) (size 9 to 14) (size 15 to 20)
#    0.000    0.000   10.000    0.750    3.500    3.000 
#    0.000    0.000    0.000    0.000    0.000    0.000 
#    0.000    0.000    0.000    0.000    0.000    0.000 
#
# Total GULP energy -594741.039400 kJ/mol
# GULP energy per Si atom -12390.438321 kJ/mol
# Density = 2.288206 g / cm^3
# Si number density = 22.934258 Si / 1000 Ang^3
#
#
#
# Elastic Constant Matrix: (Units=GPa)
#
#
# Indices 1 2 3 4 5 6 
#
# 1 108.3758 32.1205 24.8255 -0.0002 -4.6682 0.0001
# 2 32.1205 108.3755 24.8257 0.0000 4.6681 -0.0003
# 3 24.8255 24.8257 91.3920 -0.0002 -0.0001 0.0001
# 4 -0.0002 0.0000 -0.0002 28.8643 0.0001 4.6683
# 5 -4.6682 4.6681 -0.0001 0.0001 28.8642 0.0001
# 6 0.0001 -0.0003 0.0001 4.6683 0.0001 38.1273
#
#
#
# Elastic Compliance Matrix: (Units=1/GPa)
#
#
# Indices 1 2 3 4 5 6 
#
# 1 0.010626 -0.002753 -0.002139 0.000000 0.002164 0.000000
# 2 -0.002753 0.010626 -0.002139 0.000000 -0.002164 0.000000
# 3 -0.002139 -0.002139 0.012104 0.000000 0.000000 0.000000
# 4 0.000000 0.000000 0.000000 0.035345 0.000000 -0.004328
# 5 0.002164 -0.002164 0.000000 0.000000 0.035345 0.000000
# 6 0.000000 0.000000 0.000000 -0.004328 0.000000 0.026758
#
#
# Mechanical properties :
#
#
# Convention : Reuss Voigt Hill
#
# Bulk Modulus (GPa) = 51.82481 52.40964 52.11723
# Shear Modulus (GPa) = 33.04789 34.26262 33.65525
#
# Velocity S-wave (km/s) = 3.80015 3.86936 3.83491
# Velocity P-wave (km/s) = 6.47310 6.54708 6.51020
#
# Compressibility (1/GPa) = 0.01929578
#
# Stress axis : x y z
#
# Youngs Moduli (GPa) = 94.10783 94.10752 82.61866
#
# Poissons Ratio (x) = 0.25905 0.17670
# Poissons Ratio (y) = 0.25905 0.17670
# Poissons Ratio (z) = 0.20127 0.20127
#
# Static dielectric constant tensor:
#      x y z
#    x 3.897240 0.000010 0.000000 
#    y 0.000010 3.897250 0.000000 
#    z 0.000000 0.000000 3.728440 
# 
# 
# High freq. dielectric constant tensor:
#      x y z
#    x 1.913480 0.000000 0.000000 
#    y 0.000000 1.913480 0.000000 
#    z 0.000000 0.000000 1.864490 
# 
# From -- ./inp_files/3483.got.cif
#   From: 2010.03.12/outbox.cif.g09.slc.cpg/sg163_2_cif.got.tgz:3483.got - 2010.04.02 06:30:25.
