data_PCOD8323967
_publ_section_title
;
Structure prediction by ZEFSAII (Michael W. Deem and Ramdas Pophale) SiO2 
 PCOD8323967
Probable space group: P -3 C 1
;
_chemical_formula_sum "Si O2"
_cell_formula_units_Z 48
_cell_length_a 16.426371
_cell_length_b 16.426371
_cell_length_c 9.049894
_cell_angle_alpha 90.000000
_cell_angle_beta 90.000000
_cell_angle_gamma 120.000000
_cell_volume 2114.741943
_symmetry_space_group_name_H-M "P -3 C 1"
_symmetry_group_IT_number 165
_symmetry_cell_setting 'hexagonal'
loop_
_space_group_symop_operation_xyz
x,y,z
-y,x-y,z
-x+y,-x,z
x-y,-y,1/2-z
-x,-x+y,1/2-z
y,x,1/2-z
-x,-y,-z
y,-x+y,-z
x-y,x,-z
-x+y,y,1/2+z
x,x-y,1/2+z
-y,-x,1/2+z
loop_
_atom_site_type_symbol
_atom_site_label
_atom_site_fract_x
_atom_site_fract_y
_atom_site_fract_z
Si Si1 0.810717 0.810717 0.750000
Si Si2 0.506035 0.830919 0.871974
Si Si3 0.303248 0.297038 0.514375
Si Si4 0.822242 0.822242 0.250000
Si Si5 0.842163 0.497564 0.978846
O O1 0.729134 0.769479 0.627793
O O2 0.830664 0.911837 0.808650
O O3 0.479174 0.729559 0.934335
O O4 0.446445 0.867994 0.960888
O O5 0.486597 0.824884 0.696927
O O6 0.614538 0.903793 0.903176
O O7 0.213050 0.254083 0.620093
O O8 0.331917 0.402786 0.474957
#
# Coordination Sequence:
#
# PCOD8323967 Si02
#       5
#     6  12  12   6  12
#     4  12  27  42  77 100 148 186 236 296 365 418
#     4  12  26  47  73 107 147 189 239 292 354 420
#     4  12  27  44  74 104 143 186 244 289 352 425
#     4  12  23  50  65 110 136 192 232 298 351 432
#     4  12  26  47  73 107 147 189 239 292 354 420
#
# _framework density 22.697807000000001
#
# number of rings (size 3 to 8) (size 9 to 14) (size 15 to 20)
#    0.000    0.000    2.500    7.500    7.000    0.000 
#    0.000    2.500    0.000    0.000    0.000    0.000 
#    0.000    0.000    0.000    0.000    0.000    0.000 
#
# Total GULP energy -595392.496242 kJ/mol
# GULP energy per Si atom -12404.010338 kJ/mol
# Density = 2.264615 g / cm^3
# Si number density = 22.697807 Si / 1000 Ang^3
#
#
#
# Elastic Constant Matrix: (Units=GPa)
#
#
# Indices 1 2 3 4 5 6 
#
# 1 101.9816 33.9315 35.3479 -2.6040 0.0000 0.0000
# 2 33.9315 101.9816 35.3479 2.6040 0.0000 0.0000
# 3 35.3479 35.3479 138.4419 0.0000 0.0000 0.0000
# 4 -2.6040 2.6040 0.0000 36.0011 0.0000 0.0000
# 5 0.0000 0.0000 0.0000 0.0000 36.0011 -2.6040
# 6 0.0000 0.0000 0.0000 0.0000 -2.6040 34.0251
#
#
#
# Elastic Compliance Matrix: (Units=1/GPa)
#
#
# Indices 1 2 3 4 5 6 
#
# 1 0.011631 -0.003146 -0.002166 0.001069 0.000000 0.000000
# 2 -0.003146 0.011631 -0.002166 -0.001069 0.000000 0.000000
# 3 -0.002166 -0.002166 0.008329 0.000000 0.000000 0.000000
# 4 0.001069 -0.001069 0.000000 0.027932 0.000000 0.000000
# 5 0.000000 0.000000 0.000000 0.000000 0.027932 0.002138
# 6 0.000000 0.000000 0.000000 0.000000 0.002138 0.029554
#
#
# Mechanical properties :
#
#
# Convention : Reuss Voigt Hill
#
# Bulk Modulus (GPa) = 60.12085 61.29551 60.70818
# Shear Modulus (GPa) = 36.36112 37.05733 36.70923
#
# Velocity S-wave (km/s) = 4.00680 4.04498 4.02593
# Velocity P-wave (km/s) = 6.92466 6.99138 6.95810
#
# Compressibility (1/GPa) = 0.01663316
#
# Stress axis : x y z
#
# Youngs Moduli (GPa) = 85.97972 85.97972 120.05556
#
# Poissons Ratio (x) = 0.27051 0.26008
# Poissons Ratio (y) = 0.27051 0.26008
# Poissons Ratio (z) = 0.18626 0.18626
#
# Static dielectric constant tensor:
#      x y z
#    x 4.112290 0.000000 0.000000 
#    y 0.000000 4.112290 0.000000 
#    z 0.000000 0.000000 4.338270 
# 
# 
# High freq. dielectric constant tensor:
#      x y z
#    x 1.907080 0.000000 0.000000 
#    y 0.000000 1.907080 0.000000 
#    z 0.000000 0.000000 1.903940 
# 
# From -- ./inp_files/548.got.cif
#   From: 2010.03.12/outbox.cif.g09.slc.cpg/sg165_1_cif.got.tgz:548.got - 2010.04.02 06:36:38.
