data_PCOD8323681
_publ_section_title
;
Structure prediction by ZEFSAII (Michael W. Deem and Ramdas Pophale) SiO2 
 PCOD8323681
Probable space group: P -3 M 1
;
_chemical_formula_sum "Si O2"
_cell_formula_units_Z 60
_cell_length_a 12.609404
_cell_length_b 12.609404
_cell_length_c 26.183097
_cell_angle_alpha 90.000000
_cell_angle_beta 90.000000
_cell_angle_gamma 120.000000
_cell_volume 3605.294661
_symmetry_space_group_name_H-M "P -3 M 1"
_symmetry_group_IT_number 164
_symmetry_cell_setting 'hexagonal'
loop_
_space_group_symop_operation_xyz
x,y,z
-y,x-y,z
-x+y,-x,z
x-y,-y,-z
-x,-x+y,-z
y,x,-z
-x,-y,-z
y,-x+y,-z
x-y,x,-z
-x+y,y,z
x,x-y,z
-y,-x,z
loop_
_atom_site_type_symbol
_atom_site_label
_atom_site_fract_x
_atom_site_fract_y
_atom_site_fract_z
Si Si1 0.913789 0.582497 0.235204
Si Si2 0.083979 0.419019 0.952313
Si Si3 0.334484 0.419669 0.143068
Si Si4 0.582631 0.670160 0.543922
Si Si5 0.425845 0.331454 0.346005
O O1 0.790804 0.581607 0.217921
O O2 0.884624 0.442312 0.235190
O O3 0.957992 0.644722 0.291981
O O4 0.023154 0.664471 0.196822
O O5 0.204946 0.409892 0.954062
O O6 0.122136 0.561068 0.954452
O O7 0.010904 0.355703 0.901042
O O8 0.000000 0.345975 0.000000
O O9 0.204631 0.409262 0.135130
O O10 0.438098 0.561903 0.141281
O O11 0.672313 0.672313 0.500000
O O12 0.554582 0.777291 0.531283
O O13 0.455019 0.544982 0.543394
O O14 0.648114 0.690511 0.600330
O O15 0.481728 0.240864 0.345299
O O16 0.531023 0.468978 0.347507
#
# Coordination Sequence:
#
# PCOD8323681 Si02
#       5
#    12  12  12  12  12
#     4   9  16  27  46  70  92 112 139 182 233 278
#     4  10  20  34  54  78 102 126 153 189 230 270
#     4  10  20  33  49  68  93 126 160 191 222 262
#     4   9  16  26  41  61  86 114 144 179 219 266
#     4   8  13  22  38  61  86 111 140 176 221 268
#
# _framework density 16.642189999999999
#
# number of rings (size 3 to 8) (size 9 to 14) (size 15 to 20)
#    0.000    2.800    0.000    2.200    0.000    3.200 
#    0.000    5.000    0.000    7.800    0.000    2.800 
#    0.000    0.000    0.000    0.000    0.000    0.000 
#
# Total GULP energy -743288.263863 kJ/mol
# GULP energy per Si atom -12388.137731 kJ/mol
# Density = 1.660431 g / cm^3
# Si number density = 16.642190 Si / 1000 Ang^3
#
#
#
# Elastic Constant Matrix: (Units=GPa)
#
#
# Indices 1 2 3 4 5 6 
#
# 1 76.3172 40.6500 51.0487 0.8334 0.0000 0.0000
# 2 40.6500 76.3172 51.0487 -0.8334 0.0000 0.0000
# 3 51.0487 51.0487 152.0775 0.0000 0.0000 0.0000
# 4 0.8334 -0.8334 0.0000 19.6888 0.0000 0.0000
# 5 0.0000 0.0000 0.0000 0.0000 19.6888 0.8334
# 6 0.0000 0.0000 0.0000 0.0000 0.8334 17.8336
#
#
#
# Elastic Compliance Matrix: (Units=1/GPa)
#
#
# Indices 1 2 3 4 5 6 
#
# 1 0.020093 -0.008000 -0.004059 -0.001189 0.000000 0.000000
# 2 -0.008000 0.020093 -0.004059 0.001189 0.000000 0.000000
# 3 -0.004059 -0.004059 0.009301 0.000000 0.000000 0.000000
# 4 -0.001189 0.001189 0.000000 0.050891 0.000000 0.000000
# 5 0.000000 0.000000 0.000000 0.000000 0.050891 -0.002378
# 6 0.000000 0.000000 0.000000 0.000000 -0.002378 0.056185
#
#
# Mechanical properties :
#
#
# Convention : Reuss Voigt Hill
#
# Bulk Modulus (GPa) = 57.97395 65.57852 61.77623
# Shear Modulus (GPa) = 20.37164 22.23987 21.30576
#
# Velocity S-wave (km/s) = 3.50250 3.65958 3.58191
# Velocity P-wave (km/s) = 7.16016 7.57280 7.36937
#
# Compressibility (1/GPa) = 0.01724913
#
# Stress axis : x y z
#
# Youngs Moduli (GPa) = 49.76975 49.76975 107.51858
#
# Poissons Ratio (x) = 0.39816 0.43644
# Poissons Ratio (y) = 0.39816 0.43644
# Poissons Ratio (z) = 0.20202 0.20202
#
# Static dielectric constant tensor:
#      x y z
#    x 2.813260 0.000000 0.000000 
#    y 0.000000 2.813260 0.000000 
#    z 0.000000 0.000000 3.849720 
# 
# 
# High freq. dielectric constant tensor:
#      x y z
#    x 1.607890 0.000000 0.000000 
#    y 0.000000 1.607890 0.000000 
#    z 0.000000 0.000000 1.674340 
# 
# From -- ./inp_files/5191.got.cif
#   From: 2010.03.12/outbox.cif.g09.slc.cpg/sg164_3_cif.got.tgz:5191.got - 2010.04.02 06:32:59.
