data_PCOD8323497
_publ_section_title
;
Structure prediction by ZEFSAII (Michael W. Deem and Ramdas Pophale) SiO2 
 PCOD8323497
Probable space group: P -3 M 1
;
_chemical_formula_sum "Si O2"
_cell_formula_units_Z 84
_cell_length_a 17.533882
_cell_length_b 17.533882
_cell_length_c 21.776421
_cell_angle_alpha 90.000000
_cell_angle_beta 90.000000
_cell_angle_gamma 120.000000
_cell_volume 5797.934367
_symmetry_space_group_name_H-M "P -3 M 1"
_symmetry_group_IT_number 164
_symmetry_cell_setting 'hexagonal'
loop_
_space_group_symop_operation_xyz
x,y,z
-y,x-y,z
-x+y,-x,z
x-y,-y,-z
-x,-x+y,-z
y,x,-z
-x,-y,-z
y,-x+y,-z
x-y,x,-z
-x+y,y,z
x,x-y,z
-y,-x,z
loop_
_atom_site_type_symbol
_atom_site_label
_atom_site_fract_x
_atom_site_fract_y
_atom_site_fract_z
Si Si1 0.000000 0.590236 0.790363
Si Si2 0.843034 0.510209 0.569761
Si Si3 0.155078 0.668275 0.878319
Si Si4 0.899044 0.624977 0.000000
Si Si5 0.409026 0.409025 0.652868
Si Si6 0.844922 0.513196 0.878320
Si Si7 0.489792 0.332825 0.430238
O O1 0.000003 0.500002 0.786811
O O2 0.087808 0.661435 0.825333
O O3 0.999999 0.624815 0.721717
O O4 0.912190 0.573623 0.825332
O O5 0.754070 0.508140 0.585810
O O6 0.825870 0.412935 0.580619
O O7 0.874300 0.540990 0.499999
O O8 0.915246 0.579019 0.616447
O O9 0.162426 0.581213 0.883076
O O10 0.250350 0.749650 0.862116
O O11 0.118217 0.681281 0.941952
O O12 0.831901 0.663801 0.000001
O O13 0.881784 0.563066 0.941951
O O14 0.000000 0.705554 0.000000
O O15 0.500002 0.499999 0.652827
O O16 0.336229 0.420983 0.616448
O O17 0.749650 0.499299 0.862116
O O18 0.837573 0.418787 0.883079
O O19 0.491858 0.245929 0.414188
O O20 0.587067 0.412934 0.419380
#
# Coordination Sequence:
#
# PCOD8323497 Si02
#       7
#    12  12  12  12  12  12  12
#     4   9  18  30  42  56  80 113 143 175 214 252
#     4   9  16  26  41  60  81 106 138 176 215 254
#     4  10  19  30  45  64  87 114 146 181 219 259
#     4  10  19  31  49  70  91 116 144 180 223 265
#     4   9  17  28  40  56  79 109 142 174 212 253
#     4  10  19  30  45  64  87 114 146 181 219 259
#     4   9  16  26  41  60  81 106 138 176 215 254
#
# _framework density 14.487918000000001
#
# number of rings (size 3 to 8) (size 9 to 14) (size 15 to 20)
#    0.000    2.571    1.429    1.429    0.000    4.571 
#    0.000    1.429    0.000    3.571    0.000    0.000 
#    0.000    0.000    0.000    0.429    0.000    9.857 
#
# Total GULP energy -1041422.167317 kJ/mol
# GULP energy per Si atom -12397.882944 kJ/mol
# Density = 1.445494 g / cm^3
# Si number density = 14.487918 Si / 1000 Ang^3
#
#
#
# Elastic Constant Matrix: (Units=GPa)
#
#
# Indices 1 2 3 4 5 6 
#
# 1 85.9865 48.8492 52.4707 -0.0003 0.0000 0.0000
# 2 48.8492 85.9865 52.4707 0.0003 0.0000 0.0000
# 3 52.4707 52.4707 126.8029 0.0000 0.0000 0.0000
# 4 -0.0003 0.0003 0.0000 12.8525 0.0000 0.0000
# 5 0.0000 0.0000 0.0000 0.0000 12.8525 -0.0003
# 6 0.0000 0.0000 0.0000 0.0000 -0.0003 18.5687
#
#
#
# Elastic Compliance Matrix: (Units=1/GPa)
#
#
# Indices 1 2 3 4 5 6 
#
# 1 0.018933 -0.007994 -0.004527 0.000001 0.000000 0.000000
# 2 -0.007994 0.018933 -0.004527 -0.000001 0.000000 0.000000
# 3 -0.004527 -0.004527 0.011633 0.000000 0.000000 0.000000
# 4 0.000001 -0.000001 0.000000 0.077806 0.000000 0.000000
# 5 0.000000 0.000000 0.000000 0.000000 0.077806 0.000001
# 6 0.000000 0.000000 0.000000 0.000000 0.000001 0.053854
#
#
# Mechanical properties :
#
#
# Convention : Reuss Voigt Hill
#
# Bulk Modulus (GPa) = 64.91537 67.37299 66.14418
# Shear Modulus (GPa) = 16.76755 18.52040 17.64398
#
# Velocity S-wave (km/s) = 3.40567 3.57926 3.49354
# Velocity P-wave (km/s) = 7.76972 7.98031 7.87572
#
# Compressibility (1/GPa) = 0.01540467
#
# Stress axis : x y z
#
# Youngs Moduli (GPa) = 52.81687 52.81687 85.96536
#
# Poissons Ratio (x) = 0.42221 0.38915
# Poissons Ratio (y) = 0.42221 0.38915
# Poissons Ratio (z) = 0.23909 0.23909
#
# Static dielectric constant tensor:
#      x y z
#    x 2.738920 0.000000 0.000000 
#    y 0.000000 2.738920 0.000000 
#    z 0.000000 0.000000 3.073030 
# 
# 
# High freq. dielectric constant tensor:
#      x y z
#    x 1.533250 0.000000 0.000000 
#    y 0.000000 1.533250 0.000000 
#    z 0.000000 0.000000 1.565590 
# 
# From -- ./inp_files/4672.got.cif
#   From: 2010.03.12/outbox.cif.g09.slc.cpg/sg164_3_cif.got.tgz:4672.got - 2010.04.02 06:32:59.
