data_PCOD8323188
_publ_section_title
;
Structure prediction by ZEFSAII (Michael W. Deem and Ramdas Pophale) SiO2 
 PCOD8323188
Probable space group: P -3 1 C
;
_chemical_formula_sum "Si O2"
_cell_formula_units_Z 96
_cell_length_a 17.240665
_cell_length_b 17.240665
_cell_length_c 22.401996
_cell_angle_alpha 90.000000
_cell_angle_beta 90.000000
_cell_angle_gamma 120.000000
_cell_volume 5766.673639
_symmetry_space_group_name_H-M "P -3 1 C"
_symmetry_group_IT_number 163
_symmetry_cell_setting 'hexagonal'
loop_
_space_group_symop_operation_xyz
x,y,z
-y,x-y,z
-x+y,-x,z
-y,-x,1/2-z
-x+y,y,1/2-z
x,x-y,1/2-z
-x,-y,-z
y,-x+y,-z
x-y,x,-z
y,x,1/2+z
x-y,-y,1/2+z
-x,-x+y,1/2+z
loop_
_atom_site_type_symbol
_atom_site_label
_atom_site_fract_x
_atom_site_fract_y
_atom_site_fract_z
Si Si1 0.178417 0.013345 0.121340
Si Si2 0.781758 0.052949 0.258193
Si Si3 0.599911 0.709889 0.250532
Si Si4 0.738383 0.678075 0.940779
Si Si5 0.156932 0.480718 0.122310
Si Si6 0.158460 0.989893 0.353336
Si Si7 0.320037 0.089078 0.533166
Si Si8 0.657354 0.153154 0.627464
O O1 0.248100 0.027885 0.173180
O O2 0.180259 0.105087 0.105063
O O3 0.079767 0.945967 0.145815
O O4 0.202109 0.976798 0.063395
O O5 0.836666 0.163335 0.250000
O O6 0.677872 0.993926 0.239105
O O7 0.835956 0.021505 0.214755
O O8 0.636609 0.818305 0.250000
O O9 0.552968 0.670857 0.187873
O O10 0.528992 0.659280 0.302941
O O11 0.787138 0.732067 0.880671
O O12 0.815270 0.673546 0.980957
O O13 0.666203 0.580654 0.917591
O O14 0.683168 0.718481 0.973600
O O15 0.102599 0.402244 0.074395
O O16 0.144609 0.564480 0.108145
O O17 0.261827 0.515148 0.117613
#
# Coordination Sequence:
#
# PCOD8323188 Si02
#       8
#    12  12  12  12  12  12  12  12
#     4  10  18  28  43  64  92 125 161 196 227 264
#     4  10  18  27  44  68  95 126 156 187 221 265
#     4  10  17  31  50  72  99 124 152 183 229 281
#     4  10  20  33  48  66  91 125 162 196 233 274
#     4  10  20  33  52  73  95 120 149 192 241 294
#     4  10  18  28  43  64  92 125 161 196 227 264
#     4  10  20  33  48  66  91 125 162 196 233 274
#     4  10  20  33  52  73  95 120 149 192 241 294
#
# _framework density 16.647379999999998
#
# number of rings (size 3 to 8) (size 9 to 14) (size 15 to 20)
#    0.000    2.000    2.500    2.750    0.000    0.500 
#    0.000    2.500    0.000    4.250    0.000    0.000 
#    0.000    0.000    0.000   10.250    0.000    0.000 
#
# Total GULP energy -1189723.505968 kJ/mol
# GULP energy per Si atom -12392.953187 kJ/mol
# Density = 1.660949 g / cm^3
# Si number density = 16.647380 Si / 1000 Ang^3
#
#
#
# Elastic Constant Matrix: (Units=GPa)
#
#
# Indices 1 2 3 4 5 6 
#
# 1 65.2514 15.7251 4.3852 0.0000 -0.2596 0.0000
# 2 15.7251 65.2514 4.3852 0.0000 0.2596 0.0000
# 3 4.3852 4.3852 43.6605 0.0000 0.0000 0.0000
# 4 0.0000 0.0000 0.0000 18.5065 0.0000 0.2596
# 5 -0.2596 0.2596 0.0000 0.0000 18.5065 0.0000
# 6 0.0000 0.0000 0.0000 0.2596 0.0000 24.7632
#
#
#
# Elastic Compliance Matrix: (Units=1/GPa)
#
#
# Indices 1 2 3 4 5 6 
#
# 1 0.016340 -0.003855 -0.001254 0.000000 0.000283 0.000000
# 2 -0.003855 0.016340 -0.001254 0.000000 -0.000283 0.000000
# 3 -0.001254 -0.001254 0.023156 0.000000 0.000000 0.000000
# 4 0.000000 0.000000 0.000000 0.054043 0.000000 -0.000567
# 5 0.000283 -0.000283 0.000000 0.000000 0.054043 0.000000
# 6 0.000000 0.000000 0.000000 -0.000567 0.000000 0.040388
#
#
# Mechanical properties :
#
#
# Convention : Reuss Voigt Hill
#
# Bulk Modulus (GPa) = 23.19642 24.79493 23.99568
# Shear Modulus (GPa) = 21.60712 22.33307 21.97010
#
# Velocity S-wave (km/s) = 3.60659 3.66667 3.63675
# Velocity P-wave (km/s) = 5.59531 5.73171 5.66392
#
# Compressibility (1/GPa) = 0.04311009
#
# Stress axis : x y z
#
# Youngs Moduli (GPa) = 61.20077 61.20077 43.18553
#
# Poissons Ratio (x) = 0.23590 0.05415
# Poissons Ratio (y) = 0.23590 0.05415
# Poissons Ratio (z) = 0.07675 0.07675
#
# Static dielectric constant tensor:
#      x y z
#    x 3.001550 0.000000 0.000000 
#    y 0.000000 3.001550 0.000000 
#    z 0.000000 0.000000 2.970490 
# 
# 
# High freq. dielectric constant tensor:
#      x y z
#    x 1.623880 0.000000 0.000000 
#    y 0.000000 1.623880 0.000000 
#    z 0.000000 0.000000 1.636600 
# 
# From -- ./inp_files/3697.got.cif
#   From: 2010.03.12/outbox.cif.g09.slc.cpg/sg163_2_cif.got.tgz:3697.got - 2010.04.02 06:30:25.
