data_PCOD8323377
_publ_section_title
;
Structure prediction by ZEFSAII (Michael W. Deem and Ramdas Pophale) SiO2 
 PCOD8323377
Probable space group: P -3 M 1
;
_chemical_formula_sum "Si O2"
_cell_formula_units_Z 84
_cell_length_a 22.997612
_cell_length_b 22.997612
_cell_length_c 12.676207
_cell_angle_alpha 90.000000
_cell_angle_beta 90.000000
_cell_angle_gamma 120.000000
_cell_volume 5806.112404
_symmetry_space_group_name_H-M "P -3 M 1"
_symmetry_group_IT_number 164
_symmetry_cell_setting 'hexagonal'
loop_
_space_group_symop_operation_xyz
x,y,z
-y,x-y,z
-x+y,-x,z
x-y,-y,-z
-x,-x+y,-z
y,x,-z
-x,-y,-z
y,-x+y,-z
x-y,x,-z
-x+y,y,z
x,x-y,z
-y,-x,z
loop_
_atom_site_type_symbol
_atom_site_label
_atom_site_fract_x
_atom_site_fract_y
_atom_site_fract_z
Si Si1 0.743611 0.619782 0.197439
Si Si2 0.719761 0.924939 0.379546
Si Si3 0.921295 0.525364 0.121166
Si Si4 0.474636 0.078705 0.878835
Si Si5 0.790563 0.075834 0.000001
Si Si6 0.205177 0.280239 0.620454
Si Si7 0.876172 0.619782 0.802562
O O1 0.797725 0.595450 0.192713
O O2 0.671026 0.553285 0.190696
O O3 0.747555 0.656364 0.307224
O O4 0.754869 0.670245 0.102216
O O5 0.746414 0.873207 0.353570
O O6 0.694913 0.917238 0.500000
O O7 0.656365 0.908811 0.307223
O O8 0.780799 0.000000 0.357396
O O9 0.902388 0.451194 0.161613
O O10 0.000000 0.575631 0.132960
O O11 0.899404 0.521218 0.000000
O O12 0.548807 0.097613 0.838387
O O13 0.446715 0.117741 0.809305
O O14 0.870503 0.129498 0.000002
O O15 0.754870 0.084625 0.897786
O O16 0.778301 0.000000 0.000000
O O17 0.126793 0.253585 0.646429
O O18 0.797726 0.595452 0.807286
#
# Coordination Sequence:
#
# PCOD8323377 Si02
#       7
#    12  12  12  12  12  12  12
#     4  10  18  27  42  62  83 107 134 168 207 246
#     4   9  17  28  42  60  82 110 142 175 212 252
#     4   9  16  25  39  59  82 107 131 157 192 236
#     4   9  16  25  39  59  82 107 131 157 192 236
#     4  10  18  26  39  60  83 105 131 167 209 247
#     4   9  17  28  42  60  82 110 142 175 212 252
#     4  10  18  27  42  62  83 107 134 168 207 246
#
# _framework density 14.467511999999999
#
# number of rings (size 3 to 8) (size 9 to 14) (size 15 to 20)
#    0.000    2.571    1.429    3.429    0.000    0.000 
#    0.000    0.000    0.000    1.857    0.000    6.000 
#    0.000    6.857    0.000    0.286    0.000    0.571 
#
# Total GULP energy -1041380.706296 kJ/mol
# GULP energy per Si atom -12397.389361 kJ/mol
# Density = 1.443458 g / cm^3
# Si number density = 14.467512 Si / 1000 Ang^3
#
#
#
# Elastic Constant Matrix: (Units=GPa)
#
#
# Indices 1 2 3 4 5 6 
#
# 1 106.8860 58.6296 40.2281 0.0000 0.0000 0.0000
# 2 58.6296 106.8860 40.2281 0.0000 0.0000 0.0000
# 3 40.2281 40.2281 67.8895 0.0000 0.0000 0.0000
# 4 0.0000 0.0000 0.0000 18.0700 0.0000 0.0000
# 5 0.0000 0.0000 0.0000 0.0000 18.0700 0.0000
# 6 0.0000 0.0000 0.0000 0.0000 0.0000 24.1282
#
#
#
# Elastic Compliance Matrix: (Units=1/GPa)
#
#
# Indices 1 2 3 4 5 6 
#
# 1 0.014604 -0.006118 -0.005028 0.000000 0.000000 0.000000
# 2 -0.006118 0.014604 -0.005028 0.000000 0.000000 0.000000
# 3 -0.005028 -0.005028 0.020689 0.000000 0.000000 0.000000
# 4 0.000000 0.000000 0.000000 0.055340 0.000000 0.000000
# 5 0.000000 0.000000 0.000000 0.000000 0.055340 0.000000
# 6 0.000000 0.000000 0.000000 0.000000 0.000000 0.041445
#
#
# Mechanical properties :
#
#
# Convention : Reuss Voigt Hill
#
# Bulk Modulus (GPa) = 56.98850 62.20368 59.59609
# Shear Modulus (GPa) = 20.81402 21.55871 21.18636
#
# Velocity S-wave (km/s) = 3.79710 3.86443 3.83091
# Velocity P-wave (km/s) = 7.66160 7.93729 7.80066
#
# Compressibility (1/GPa) = 0.01754740
#
# Stress axis : x y z
#
# Youngs Moduli (GPa) = 68.47289 68.47289 48.33490
#
# Poissons Ratio (x) = 0.41894 0.24305
# Poissons Ratio (y) = 0.41894 0.24305
# Poissons Ratio (z) = 0.34431 0.34431
#
# Static dielectric constant tensor:
#      x y z
#    x 2.787830 0.000000 0.000000 
#    y 0.000000 2.787830 0.000000 
#    z 0.000000 0.000000 2.850750 
# 
# 
# High freq. dielectric constant tensor:
#      x y z
#    x 1.538370 0.000000 0.000000 
#    y 0.000000 1.538370 0.000000 
#    z 0.000000 0.000000 1.546940 
# 
# From -- ./inp_files/3065.got.cif
#   From: 2010.03.12/outbox.cif.g09.slc.cpg/sg164_2_cif.got.tgz:3065.got - 2010.04.02 06:32:59.
