data_PCOD8323348
_publ_section_title
;
Structure prediction by ZEFSAII (Michael W. Deem and Ramdas Pophale) SiO2 
 PCOD8323348
Probable space group: P -3 1 C
;
_chemical_formula_sum "Si O2"
_cell_formula_units_Z 60
_cell_length_a 13.439190
_cell_length_b 13.439190
_cell_length_c 25.367484
_cell_angle_alpha 90.000000
_cell_angle_beta 90.000000
_cell_angle_gamma 120.000000
_cell_volume 3967.840579
_symmetry_space_group_name_H-M "P -3 1 C"
_symmetry_group_IT_number 163
_symmetry_cell_setting 'hexagonal'
loop_
_space_group_symop_operation_xyz
x,y,z
-y,x-y,z
-x+y,-x,z
-y,-x,1/2-z
-x+y,y,1/2-z
x,x-y,1/2-z
-x,-y,-z
y,-x+y,-z
x-y,x,-z
y,x,1/2+z
x-y,-y,1/2+z
-x,-x+y,1/2+z
loop_
_atom_site_type_symbol
_atom_site_label
_atom_site_fract_x
_atom_site_fract_y
_atom_site_fract_z
Si Si1 0.555794 0.890756 0.750000
Si Si2 0.000260 0.770962 0.060757
Si Si3 0.999740 0.770701 0.939243
Si Si4 0.901158 0.336084 0.135531
Si Si5 0.663916 0.098842 0.135531
O O1 0.417724 0.835447 0.750000
O O2 0.590903 0.795452 0.750000
O O3 0.603252 0.958604 0.805496
O O4 0.603251 0.958604 0.694504
O O5 0.900641 0.801282 0.071699
O O6 0.983193 0.664017 0.095410
O O7 0.119661 0.880339 0.077377
O O8 1.000000 0.737844 1.000000
O O9 0.016807 0.680824 0.904590
O O10 0.772235 0.227765 0.135119
O O11 0.895409 0.447704 0.117414
#
# Coordination Sequence:
#
# PCOD8323348 Si02
#       5
#    12  12  12  12  12
#     4   8  13  22  37  58  82 106 130 156 192 240
#     4   9  17  29  44  60  79 107 142 175 204 237
#     4   9  17  29  44  60  79 107 142 175 204 237
#     4   9  16  26  42  63  85 106 129 161 202 246
#     4   9  16  26  42  63  85 106 129 161 202 246
#
# _framework density 15.121575
#
# number of rings (size 3 to 8) (size 9 to 14) (size 15 to 20)
#    0.000    3.200    0.000    1.000    0.000    5.600 
#    0.000    1.000    0.000    0.800    0.000    2.800 
#    0.000    0.000    0.000    0.000    0.000    0.000 
#
# Total GULP energy -743307.143229 kJ/mol
# GULP energy per Si atom -12388.452387 kJ/mol
# Density = 1.508716 g / cm^3
# Si number density = 15.121575 Si / 1000 Ang^3
#
#
#
# Elastic Constant Matrix: (Units=GPa)
#
#
# Indices 1 2 3 4 5 6 
#
# 1 80.2742 42.2041 58.9425 0.0000 0.0000 0.0000
# 2 42.2041 80.2742 58.9425 0.0000 0.0000 0.0000
# 3 58.9425 58.9425 104.6842 0.0000 0.0000 0.0000
# 4 0.0000 0.0000 0.0000 21.9713 0.0000 0.0000
# 5 0.0000 0.0000 0.0000 0.0000 21.9713 0.0000
# 6 0.0000 0.0000 0.0000 0.0000 0.0000 19.0350
#
#
#
# Elastic Compliance Matrix: (Units=1/GPa)
#
#
# Indices 1 2 3 4 5 6 
#
# 1 0.022046 -0.004222 -0.010036 0.000000 0.000000 0.000000
# 2 -0.004222 0.022046 -0.010036 0.000000 0.000000 0.000000
# 3 -0.010036 -0.010036 0.020854 0.000000 0.000000 0.000000
# 4 0.000000 0.000000 0.000000 0.045514 0.000000 0.000000
# 5 0.000000 0.000000 0.000000 0.000000 0.045514 0.000000
# 6 0.000000 0.000000 0.000000 0.000000 0.000000 0.052535
#
#
# Mechanical properties :
#
#
# Convention : Reuss Voigt Hill
#
# Bulk Modulus (GPa) = 61.12938 65.04567 63.08752
# Shear Modulus (GPa) = 19.04411 19.60509 19.32460
#
# Velocity S-wave (km/s) = 3.55265 3.60460 3.57872
# Velocity P-wave (km/s) = 7.57242 7.77385 7.67379
#
# Compressibility (1/GPa) = 0.01635875
#
# Stress axis : x y z
#
# Youngs Moduli (GPa) = 45.36002 45.36002 47.95218
#
# Poissons Ratio (x) = 0.19149 0.48125
# Poissons Ratio (y) = 0.19149 0.48125
# Poissons Ratio (z) = 0.45523 0.45523
#
# Static dielectric constant tensor:
#      x y z
#    x 2.686190 0.000000 0.000000 
#    y 0.000000 2.686190 0.000000 
#    z 0.000000 0.000000 3.263940 
# 
# 
# High freq. dielectric constant tensor:
#      x y z
#    x 1.553310 0.000000 0.000000 
#    y 0.000000 1.553310 0.000000 
#    z 0.000000 0.000000 1.594400 
# 
# From -- ./inp_files/4094.got.cif
#   From: 2010.03.12/outbox.cif.g09.slc.cpg/sg163_3_cif.got.tgz:4094.got - 2010.04.02 06:30:25.
