data_PCOD8323570
_publ_section_title
;
Structure prediction by ZEFSAII (Michael W. Deem and Ramdas Pophale) SiO2 
 PCOD8323570
Probable space group: P -3 M 1
;
_chemical_formula_sum "Si O2"
_cell_formula_units_Z 60
_cell_length_a 17.069895
_cell_length_b 17.069895
_cell_length_c 12.880898
_cell_angle_alpha 90.000000
_cell_angle_beta 90.000000
_cell_angle_gamma 120.000000
_cell_volume 3250.412446
_symmetry_space_group_name_H-M "P -3 M 1"
_symmetry_group_IT_number 164
_symmetry_cell_setting 'hexagonal'
loop_
_space_group_symop_operation_xyz
x,y,z
-y,x-y,z
-x+y,-x,z
x-y,-y,-z
-x,-x+y,-z
y,x,-z
-x,-y,-z
y,-x+y,-z
x-y,x,-z
-x+y,y,z
x,x-y,z
-y,-x,z
loop_
_atom_site_type_symbol
_atom_site_label
_atom_site_fract_x
_atom_site_fract_y
_atom_site_fract_z
Si Si1 0.424608 0.396330 0.265743
Si Si2 0.998771 0.176886 0.194720
Si Si3 0.274416 0.904112 0.122097
Si Si4 0.665851 0.512678 0.073031
Si Si5 0.763448 0.706247 0.397525
O O1 0.509603 0.490398 0.303539
O O2 0.352632 0.417256 0.208747
O O3 0.454523 0.343970 0.185718
O O4 0.381436 0.331200 0.364579
O O5 0.072731 0.145462 0.197788
O O6 0.028114 0.262223 0.119410
O O7 0.986280 0.203158 0.310368
O O8 0.905248 0.094753 0.150558
O O9 0.196521 0.803480 0.154072
O O10 0.312854 0.904994 0.008275
O O11 0.743525 0.487049 0.078010
O O12 0.574577 0.425424 0.035742
O O13 0.749268 0.749268 0.500000
O O14 0.838137 0.676273 0.417107
#
# Coordination Sequence:
#
# PCOD8323570 Si02
#       5
#    12  12  12  12  12
#     4  10  20  34  53  76 101 130 165 205 249 297
#     4   9  17  30  49  74 103 135 170 207 246 287
#     4   9  18  31  48  73 104 136 168 202 240 285
#     4  10  19  32  51  75 103 132 164 203 247 294
#     4  10  20  34  53  76 101 129 164 206 251 299
#
# _framework density 18.459195999999999
#
# number of rings (size 3 to 8) (size 9 to 14) (size 15 to 20)
#    0.000    2.400    0.000    2.800    0.000    3.600 
#    0.000    1.000    0.000    4.000    0.000    1.400 
#    0.000   52.800    0.000    0.000    0.000    0.000 
#
# Total GULP energy -744102.318772 kJ/mol
# GULP energy per Si atom -12401.705313 kJ/mol
# Density = 1.841718 g / cm^3
# Si number density = 18.459196 Si / 1000 Ang^3
#
#
#
# Elastic Constant Matrix: (Units=GPa)
#
#
# Indices 1 2 3 4 5 6 
#
# 1 101.9318 48.0320 24.2225 -3.8246 0.0000 0.0000
# 2 48.0320 101.9318 24.2225 3.8246 0.0000 0.0000
# 3 24.2225 24.2225 46.3130 0.0000 0.0000 0.0000
# 4 -3.8246 3.8246 0.0000 23.3772 0.0000 0.0000
# 5 0.0000 0.0000 0.0000 0.0000 23.3772 -3.8246
# 6 0.0000 0.0000 0.0000 0.0000 -3.8246 26.9499
#
#
#
# Elastic Compliance Matrix: (Units=1/GPa)
#
#
# Indices 1 2 3 4 5 6 
#
# 1 0.013509 -0.005485 -0.004197 0.003107 0.000000 0.000000
# 2 -0.005485 0.013509 -0.004197 -0.003107 0.000000 0.000000
# 3 -0.004197 -0.004197 0.025982 0.000000 0.000000 0.000000
# 4 0.003107 -0.003107 0.000000 0.043794 0.000000 0.000000
# 5 0.000000 0.000000 0.000000 0.000000 0.043794 0.006215
# 6 0.000000 0.000000 0.000000 0.000000 0.006215 0.037988
#
#
# Mechanical properties :
#
#
# Convention : Reuss Voigt Hill
#
# Bulk Modulus (GPa) = 39.61442 49.23671 44.42557
# Shear Modulus (GPa) = 23.28331 24.98749 24.13540
#
# Velocity S-wave (km/s) = 3.55539 3.68320 3.61986
# Velocity P-wave (km/s) = 6.19367 6.69471 6.44906
#
# Compressibility (1/GPa) = 0.02524333
#
# Stress axis : x y z
#
# Youngs Moduli (GPa) = 74.02492 74.02492 38.48808
#
# Poissons Ratio (x) = 0.40602 0.16152
# Poissons Ratio (y) = 0.40602 0.16152
# Poissons Ratio (z) = 0.31066 0.31066
#
# Static dielectric constant tensor:
#      x y z
#    x 3.542520 0.000000 0.000000 
#    y 0.000000 3.542520 0.000000 
#    z 0.000000 0.000000 3.114690 
# 
# 
# High freq. dielectric constant tensor:
#      x y z
#    x 1.723080 0.000000 0.000000 
#    y 0.000000 1.723080 0.000000 
#    z 0.000000 0.000000 1.691740 
# 
# From -- ./inp_files/2675.got.cif
#   From: 2010.03.12/outbox.cif.g09.slc.cpg/sg164_2_cif.got.tgz:2675.got - 2010.04.02 06:32:59.
