data_PCOD8323916
_publ_section_title
;
Structure prediction by ZEFSAII (Michael W. Deem and Ramdas Pophale) SiO2 
 PCOD8323916
Probable space group: P -3 C 1
;
_chemical_formula_sum "Si O2"
_cell_formula_units_Z 42
_cell_length_a 8.505940
_cell_length_b 8.505940
_cell_length_c 32.121616
_cell_angle_alpha 90.000000
_cell_angle_beta 90.000000
_cell_angle_gamma 120.000000
_cell_volume 2012.670344
_symmetry_space_group_name_H-M "P -3 C 1"
_symmetry_group_IT_number 165
_symmetry_cell_setting 'hexagonal'
loop_
_space_group_symop_operation_xyz
x,y,z
-y,x-y,z
-x+y,-x,z
x-y,-y,1/2-z
-x,-x+y,1/2-z
y,x,1/2-z
-x,-y,-z
y,-x+y,-z
x-y,x,-z
-x+y,y,1/2+z
x,x-y,1/2+z
-y,-x,1/2+z
loop_
_atom_site_type_symbol
_atom_site_label
_atom_site_fract_x
_atom_site_fract_y
_atom_site_fract_z
Si Si1 0.333335 0.666668 0.474346
Si Si2 0.000000 0.000000 0.307559
Si Si3 0.000000 0.284345 0.250000
Si Si4 0.000000 0.000000 0.093887
Si Si5 0.666668 0.333334 0.140930
Si Si6 0.666668 0.333334 0.427068
Si Si7 0.333334 0.666667 0.760452
Si Si8 0.333594 0.951099 0.416605
O O1 0.333334 0.666667 0.523385
O O2 0.357968 0.856445 0.457627
O O3 0.027905 0.190947 0.290807
O O4 0.000000 0.000000 0.356572
O O5 0.175231 0.478761 0.242528
O O6 0.838552 0.814058 0.076041
O O7 0.666668 0.333334 0.189980
O O8 0.475085 0.171540 0.124096
O O9 0.631623 0.488228 0.409179
#
# Coordination Sequence:
#
# PCOD8323916 Si02
#       8
#     4   4   6   4   4   4   4  12
#     4  10  22  42  60  85 118 151 191 244 286 334
#     4  10  22  42  60  85 118 151 191 244 286 334
#     4  10  22  38  62  88 114 150 198 232 284 350
#     4  12  22  40  61  85 120 154 188 241 288 337
#     4  10  22  42  60  85 118 151 191 244 286 334
#     4  12  22  40  61  85 120 154 188 241 288 337
#     4  12  22  40  61  85 120 154 188 241 288 337
#     4  10  22  38  61  88 114 151 198 232 284 350
#
# _framework density 20.867799000000002
#
# number of rings (size 3 to 8) (size 9 to 14) (size 15 to 20)
#    0.000    1.714    0.000    7.714    0.000    0.000 
#    0.000   10.000    0.000    0.000    0.000    0.000 
#    0.000    0.000    0.000    0.000    0.000    0.000 
#
# Total GULP energy -521012.986872 kJ/mol
# GULP energy per Si atom -12405.071116 kJ/mol
# Density = 2.082030 g / cm^3
# Si number density = 20.867799 Si / 1000 Ang^3
#
#
#
# Elastic Constant Matrix: (Units=GPa)
#
#
# Indices 1 2 3 4 5 6 
#
# 1 140.4739 40.9008 -7.3861 -0.3547 0.0000 0.0000
# 2 40.9008 140.4706 -7.3832 0.3536 0.0000 0.0000
# 3 -7.3861 -7.3832 29.3120 0.0004 0.0000 0.0000
# 4 -0.3547 0.3536 0.0004 15.1300 0.0000 0.0000
# 5 0.0000 0.0000 0.0000 0.0000 15.1301 -0.3541
# 6 0.0000 0.0000 0.0000 0.0000 -0.3541 49.7850
#
#
#
# Elastic Compliance Matrix: (Units=1/GPa)
#
#
# Indices 1 2 3 4 5 6 
#
# 1 0.007837 -0.002208 0.001419 0.000235 0.000000 0.000000
# 2 -0.002208 0.007837 0.001418 -0.000235 0.000000 0.000000
# 3 0.001419 0.001418 0.034830 -0.000001 0.000000 0.000000
# 4 0.000235 -0.000235 -0.000001 0.066105 0.000000 0.000000
# 5 0.000000 0.000000 0.000000 0.000000 0.066104 0.000470
# 6 0.000000 0.000000 0.000000 0.000000 0.000470 0.020090
#
#
# Mechanical properties :
#
#
# Convention : Reuss Voigt Hill
#
# Bulk Modulus (GPa) = 19.31968 40.27994 29.79981
# Shear Modulus (GPa) = 22.85197 34.95070 28.90134
#
# Velocity S-wave (km/s) = 3.31279 4.09695 3.72556
# Velocity P-wave (km/s) = 4.88989 6.45944 5.72867
#
# Compressibility (1/GPa) = 0.05176070
#
# Stress axis : x y z
#
# Youngs Moduli (GPa) = 127.60322 127.60155 28.71069
#
# Poissons Ratio (x) = 0.28173 -0.04073
# Poissons Ratio (y) = 0.28173 -0.04070
# Poissons Ratio (z) = -0.18102 -0.18089
#
# Static dielectric constant tensor:
#      x y z
#    x 3.973240 0.000000 0.000000 
#    y 0.000000 3.973270 0.000060 
#    z 0.000000 0.000060 3.687480 
# 
# 
# High freq. dielectric constant tensor:
#      x y z
#    x 1.834450 0.000000 0.000000 
#    y 0.000000 1.834450 0.000000 
#    z 0.000000 0.000000 1.796110 
# 
# From -- ./inp_files/3275.got.cif
#   From: 2010.03.12/outbox.cif.g09.slc.cpg/sg165_2_cif.got.tgz:3275.got - 2010.04.02 06:36:38.
