data_PCOD8323316
_publ_section_title
;
Structure prediction by ZEFSAII (Michael W. Deem and Ramdas Pophale) SiO2 
 PCOD8323316
Probable space group: P -3 1 C
;
_chemical_formula_sum "Si O2"
_cell_formula_units_Z 52
_cell_length_a 13.106485
_cell_length_b 13.106485
_cell_length_c 13.876342
_cell_angle_alpha 90.000000
_cell_angle_beta 90.000000
_cell_angle_gamma 120.000000
_cell_volume 2064.325115
_symmetry_space_group_name_H-M "P -3 1 C"
_symmetry_group_IT_number 163
_symmetry_cell_setting 'hexagonal'
loop_
_space_group_symop_operation_xyz
x,y,z
-y,x-y,z
-x+y,-x,z
-y,-x,1/2-z
-x+y,y,1/2-z
x,x-y,1/2-z
-x,-y,-z
y,-x+y,-z
x-y,x,-z
y,x,1/2+z
x-y,-y,1/2+z
-x,-x+y,1/2+z
loop_
_atom_site_type_symbol
_atom_site_label
_atom_site_fract_x
_atom_site_fract_y
_atom_site_fract_z
Si Si1 0.812841 0.440193 0.087964
Si Si2 0.634028 0.954671 0.444941
Si Si3 0.069637 0.805836 0.120603
Si Si4 0.314719 0.920049 0.745111
Si Si5 0.000000 0.000000 0.387593
O O1 0.700703 0.463034 0.084846
O O2 0.878999 0.488678 0.189877
O O3 0.896296 0.506817 0.997049
O O4 0.650566 0.859309 0.386536
O O5 0.741147 0.010761 0.520369
O O6 0.636475 0.047926 0.365950
O O7 0.033942 0.714033 0.207466
O O8 0.033755 0.903650 0.148246
O O9 0.178790 0.821211 0.750000
O O10 0.000000 0.000000 0.500000
#
# Coordination Sequence:
#
# PCOD8323316 Si02
#       5
#    12  12  12  12   4
#     4   9  23  48  73  95 134 184 239 297 361 427
#     4  11  20  39  67  99 138 186 236 293 357 428
#     4  11  21  35  58  94 143 185 237 285 357 444
#     4  11  23  38  64 104 140 176 234 301 350 424
#     4  12  18  33  60  88 138 210 223 273 366 457
#
# _framework density 25.189829
#
# number of rings (size 3 to 8) (size 9 to 14) (size 15 to 20)
#    0.462    0.923    2.308    4.846    0.000    0.923 
#    0.000   15.000    0.000    4.154    0.000    6.462 
#    0.000    0.000    0.000    0.000    0.000    0.000 
#
# Total GULP energy -644724.865865 kJ/mol
# GULP energy per Si atom -12398.555113 kJ/mol
# Density = 2.513250 g / cm^3
# Si number density = 25.189829 Si / 1000 Ang^3
#
#
#
# Elastic Constant Matrix: (Units=GPa)
#
#
# Indices 1 2 3 4 5 6 
#
# 1 97.8398 17.8873 56.6786 0.0003 10.4121 0.0000
# 2 17.8873 97.8398 56.6786 -0.0003 -10.4121 0.0000
# 3 56.6786 56.6786 189.6970 0.0000 0.0000 0.0000
# 4 0.0003 -0.0003 0.0000 16.8376 0.0000 -10.4121
# 5 10.4121 -10.4121 0.0000 0.0000 16.8376 0.0003
# 6 0.0000 0.0000 0.0000 -10.4121 0.0003 39.9763
#
#
#
# Elastic Compliance Matrix: (Units=1/GPa)
#
#
# Indices 1 2 3 4 5 6 
#
# 1 0.013562 -0.001346 -0.003650 0.000000 -0.009219 0.000000
# 2 -0.001346 0.013562 -0.003650 0.000000 0.009219 0.000000
# 3 -0.003650 -0.003650 0.007453 0.000000 0.000000 0.000000
# 4 0.000000 0.000000 0.000000 0.070793 0.000000 0.018439
# 5 -0.009219 0.009219 0.000000 0.000000 0.070793 0.000000
# 6 0.000000 0.000000 0.000000 0.018439 0.000000 0.029817
#
#
# Mechanical properties :
#
#
# Convention : Reuss Voigt Hill
#
# Bulk Modulus (GPa) = 57.85307 71.98506 64.91907
# Shear Modulus (GPa) = 21.83068 31.67243 26.75155
#
# Velocity S-wave (km/s) = 2.94708 3.54976 3.26237
# Velocity P-wave (km/s) = 5.88193 6.74093 6.32603
#
# Compressibility (1/GPa) = 0.01728517
#
# Stress axis : x y z
#
# Youngs Moduli (GPa) = 73.73274 73.73274 134.17907
#
# Poissons Ratio (x) = 0.09926 0.48976
# Poissons Ratio (y) = 0.09926 0.48976
# Poissons Ratio (z) = 0.26913 0.26913
#
# Static dielectric constant tensor:
#      x y z
#    x 4.755460 0.000000 0.000000 
#    y 0.000000 4.755460 0.000000 
#    z 0.000000 0.000000 4.663000 
# 
# 
# High freq. dielectric constant tensor:
#      x y z
#    x 2.012120 0.000000 0.000000 
#    y 0.000000 2.012120 0.000000 
#    z 0.000000 0.000000 2.013940 
# 
# From -- ./inp_files/2328.got.cif
#   From: 2010.03.12/outbox.cif.g09.slc.cpg/sg163_2_cif.got.tgz:2328.got - 2010.04.02 06:30:25.
