data_PCOD8323837
_publ_section_title
;
Structure prediction by ZEFSAII (Michael W. Deem and Ramdas Pophale) SiO2 
 PCOD8323837
Probable space group: P -3 M 1
;
_chemical_formula_sum "Si O2"
_cell_formula_units_Z 96
_cell_length_a 17.027342
_cell_length_b 17.027342
_cell_length_c 27.546288
_cell_angle_alpha 90.000000
_cell_angle_beta 90.000000
_cell_angle_gamma 120.000000
_cell_volume 6916.516759
_symmetry_space_group_name_H-M "P -3 M 1"
_symmetry_group_IT_number 164
_symmetry_cell_setting 'hexagonal'
loop_
_space_group_symop_operation_xyz
x,y,z
-y,x-y,z
-x+y,-x,z
x-y,-y,-z
-x,-x+y,-z
y,x,-z
-x,-y,-z
y,-x+y,-z
x-y,x,-z
-x+y,y,z
x,x-y,z
-y,-x,z
loop_
_atom_site_type_symbol
_atom_site_label
_atom_site_fract_x
_atom_site_fract_y
_atom_site_fract_z
Si Si1 0.515673 0.849191 0.689417
Si Si2 0.155185 0.487548 0.072909
Si Si3 0.368751 0.095748 0.018496
Si Si4 0.502548 0.835791 0.531668
Si Si5 0.593092 0.582498 0.390955
Si Si6 0.486710 0.153520 0.199895
Si Si7 0.427784 0.036248 0.110369
Si Si8 0.339561 0.079945 0.538402
O O1 0.411505 0.823010 0.680658
O O2 0.524973 0.762487 0.674564
O O3 0.582846 0.938463 0.658459
O O4 0.545509 0.876754 0.745086
O O5 0.237882 0.475764 0.091580
O O6 0.185370 0.592685 0.074367
O O7 0.071132 0.428108 0.108683
O O8 0.127684 0.453515 0.017767
O O9 0.331909 0.165955 0.018924
O O10 0.401949 0.090244 0.072048
O O11 0.286433 0.000000 0.000000
O O12 0.399980 0.799959 0.514922
O O13 0.510048 0.755024 0.557439
O O14 0.532560 0.915723 0.568455
O O15 0.560985 0.867404 0.483406
O O16 0.481527 0.518474 0.384573
O O17 0.639067 0.687382 0.409513
O O18 0.591803 0.183605 0.194100
O O19 0.476292 0.238146 0.184419
O O20 0.424284 0.070065 0.164464
O O21 0.527516 0.055031 0.096707
O O22 0.302035 0.151018 0.546282
O O23 0.273172 0.000000 0.500000
#
# Coordination Sequence:
#
# PCOD8323837 Si02
#       8
#    12  12  12  12  12  12  12  12
#     4   9  16  25  38  57  81 106 128 148 172 207
#     4   9  16  25  37  53  73  97 125 156 189 223
#     4   9  16  25  37  53  73  97 124 153 186 224
#     4   9  15  22  34  54  80 106 128 147 168 199
#     4   9  16  25  37  54  77 103 128 152 178 209
#     4   9  16  25  37  54  77 104 130 153 177 208
#     4   9  16  25  37  53  74  99 126 155 186 220
#     4   9  17  28  41  56  74  97 124 153 185 219
#
# _framework density 13.87982
#
# number of rings (size 3 to 8) (size 9 to 14) (size 15 to 20)
#    0.000    3.000    0.000    2.000    0.000    4.500 
#    0.000    1.250    0.000    5.250    0.000    0.000 
#    0.000    0.000    0.000    0.000    0.000    3.500 
#
# Total GULP energy -1189374.164798 kJ/mol
# GULP energy per Si atom -12389.314217 kJ/mol
# Density = 1.384823 g / cm^3
# Si number density = 13.879820 Si / 1000 Ang^3
#
#
#
# Elastic Constant Matrix: (Units=GPa)
#
#
# Indices 1 2 3 4 5 6 
#
# 1 74.9419 38.4970 35.2800 -0.0694 0.0000 0.0000
# 2 38.4970 74.9419 35.2800 0.0694 0.0000 0.0000
# 3 35.2800 35.2800 74.9760 0.0000 0.0000 0.0000
# 4 -0.0694 0.0694 0.0000 16.6617 0.0000 0.0000
# 5 0.0000 0.0000 0.0000 0.0000 16.6617 -0.0694
# 6 0.0000 0.0000 0.0000 0.0000 -0.0694 18.2225
#
#
#
# Elastic Compliance Matrix: (Units=1/GPa)
#
#
# Indices 1 2 3 4 5 6 
#
# 1 0.019951 -0.007488 -0.005865 0.000114 0.000000 0.000000
# 2 -0.007488 0.019951 -0.005865 -0.000114 0.000000 0.000000
# 3 -0.005865 -0.005865 0.018857 0.000000 0.000000 0.000000
# 4 0.000114 -0.000114 0.000000 0.060019 0.000000 0.000000
# 5 0.000000 0.000000 0.000000 0.000000 0.060019 0.000229
# 6 0.000000 0.000000 0.000000 0.000000 0.000229 0.054878
#
#
# Mechanical properties :
#
#
# Convention : Reuss Voigt Hill
#
# Bulk Modulus (GPa) = 49.20092 49.21933 49.21012
# Shear Modulus (GPa) = 17.92863 18.02937 17.97900
#
# Velocity S-wave (km/s) = 3.59793 3.60802 3.60298
# Velocity P-wave (km/s) = 7.26532 7.27291 7.26911
#
# Compressibility (1/GPa) = 0.02032483
#
# Stress axis : x y z
#
# Youngs Moduli (GPa) = 50.12254 50.12254 53.03146
#
# Poissons Ratio (x) = 0.37532 0.31100
# Poissons Ratio (y) = 0.37532 0.31100
# Poissons Ratio (z) = 0.29395 0.29395
#
# Static dielectric constant tensor:
#      x y z
#    x 3.264160 0.000000 0.000000 
#    y 0.000000 3.264160 0.000000 
#    z 0.000000 0.000000 2.762340 
# 
# 
# High freq. dielectric constant tensor:
#      x y z
#    x 1.513100 0.000000 0.000000 
#    y 0.000000 1.513100 0.000000 
#    z 0.000000 0.000000 1.517140 
# 
# From -- ./inp_files/5126.got.cif
#   From: 2010.03.12/outbox.cif.g09.slc.cpg/sg164_3_cif.got.tgz:5126.got - 2010.04.02 06:32:59.
