data_PCOD8323869
_publ_section_title
;
Structure prediction by ZEFSAII (Michael W. Deem and Ramdas Pophale) SiO2 
 PCOD8323869
Probable space group: P -3 C 1
;
_chemical_formula_sum "Si O2"
_cell_formula_units_Z 78
_cell_length_a 23.855699
_cell_length_b 23.855699
_cell_length_c 8.260206
_cell_angle_alpha 90.000000
_cell_angle_beta 90.000000
_cell_angle_gamma 120.000000
_cell_volume 4071.044061
_symmetry_space_group_name_H-M "P -3 C 1"
_symmetry_group_IT_number 165
_symmetry_cell_setting 'hexagonal'
loop_
_space_group_symop_operation_xyz
x,y,z
-y,x-y,z
-x+y,-x,z
x-y,-y,1/2-z
-x,-x+y,1/2-z
y,x,1/2-z
-x,-y,-z
y,-x+y,-z
x-y,x,-z
-x+y,y,1/2+z
x,x-y,1/2+z
-y,-x,1/2+z
loop_
_atom_site_type_symbol
_atom_site_label
_atom_site_fract_x
_atom_site_fract_y
_atom_site_fract_z
Si Si1 0.958136 0.223667 0.412238
Si Si2 0.583356 0.713592 0.702601
Si Si3 0.028963 0.899828 0.577632
Si Si4 0.207397 0.557742 0.745088
Si Si5 0.221566 0.539888 0.115276
Si Si6 0.000000 0.701938 0.250000
Si Si7 0.398657 0.167599 0.448232
O O1 0.944681 0.150653 0.427101
O O2 0.892577 0.225449 0.380814
O O3 0.000000 0.256906 0.250000
O O4 0.988175 0.255630 0.587453
O O5 0.509602 0.655448 0.683529
O O6 0.630446 0.685154 0.704232
O O7 0.605003 0.766899 0.561595
O O8 0.591606 0.753358 0.864737
O O9 0.000000 0.900983 0.750000
O O10 0.970906 0.880688 0.450412
O O11 0.271160 0.568093 0.653407
O O12 0.193000 0.615930 0.717896
O O13 0.218374 0.555660 0.931928
O O14 0.178215 0.462612 0.150540
#
# Coordination Sequence:
#
# PCOD8323869 Si02
#       7
#    12  12  12  12  12   6  12
#     4  10  24  39  61  89 115 150 197 240 283 345
#     4   9  20  35  57  81 111 148 185 234 286 334
#     4  11  25  41  62  88 121 155 190 235 289 351
#     4  10  19  33  52  81 113 148 190 226 285 342
#     4  10  19  33  53  80 115 149 186 234 282 338
#     4  10  22  38  60  82 120 150 190 248 282 334
#     4   9  20  36  56  82 112 144 189 234 283 338
#
# _framework density 19.159704999999999
#
# number of rings (size 3 to 8) (size 9 to 14) (size 15 to 20)
#    0.000    2.154    0.000    1.846    6.462    3.692 
#    0.000    0.000    1.692    2.769    0.000    0.000 
#    0.000    0.000    0.000    0.000    0.000    0.000 
#
# Total GULP energy -966711.609340 kJ/mol
# GULP energy per Si atom -12393.738581 kJ/mol
# Density = 1.911610 g / cm^3
# Si number density = 19.159705 Si / 1000 Ang^3
#
#
#
# Elastic Constant Matrix: (Units=GPa)
#
#
# Indices 1 2 3 4 5 6 
#
# 1 120.0312 60.1338 24.3992 3.1179 0.0000 0.0000
# 2 60.1338 120.0312 24.3992 -3.1179 0.0000 0.0000
# 3 24.3992 24.3992 54.4784 0.0000 0.0000 0.0000
# 4 3.1179 -3.1179 0.0000 24.0974 0.0000 0.0000
# 5 0.0000 0.0000 0.0000 0.0000 24.0974 3.1179
# 6 0.0000 0.0000 0.0000 0.0000 3.1179 29.9487
#
#
#
# Elastic Compliance Matrix: (Units=1/GPa)
#
#
# Indices 1 2 3 4 5 6 
#
# 1 0.011620 -0.005303 -0.002829 -0.002190 0.000000 0.000000
# 2 -0.005303 0.011620 -0.002829 0.002190 0.000000 0.000000
# 3 -0.002829 -0.002829 0.020890 0.000000 0.000000 0.000000
# 4 -0.002190 0.002190 0.000000 0.042065 0.000000 0.000000
# 5 0.000000 0.000000 0.000000 0.000000 0.042065 -0.004379
# 6 0.000000 0.000000 0.000000 0.000000 -0.004379 0.033846
#
#
# Mechanical properties :
#
#
# Convention : Reuss Voigt Hill
#
# Bulk Modulus (GPa) = 45.03050 56.93393 50.98221
# Shear Modulus (GPa) = 26.11908 28.00263 27.06086
#
# Velocity S-wave (km/s) = 3.69620 3.82715 3.76225
# Velocity P-wave (km/s) = 6.46294 7.02207 6.74830
#
# Compressibility (1/GPa) = 0.02220717
#
# Stress axis : x y z
#
# Youngs Moduli (GPa) = 86.05893 86.05893 47.86978
#
# Poissons Ratio (x) = 0.45639 0.13543
# Poissons Ratio (y) = 0.45639 0.13543
# Poissons Ratio (z) = 0.24347 0.24347
#
# Static dielectric constant tensor:
#      x y z
#    x 3.613490 0.000000 0.000000 
#    y 0.000000 3.613490 0.000000 
#    z 0.000000 0.000000 3.643730 
# 
# 
# High freq. dielectric constant tensor:
#      x y z
#    x 1.739570 0.000000 0.000000 
#    y 0.000000 1.739570 0.000000 
#    z 0.000000 0.000000 1.757660 
# 
# From -- ./inp_files/803.got.cif
#   From: 2010.03.12/outbox.cif.g09.slc.cpg/sg165_1_cif.got.tgz:803.got - 2010.04.02 06:36:38.
