data_PCOD8323365
_publ_section_title
;
Structure prediction by ZEFSAII (Michael W. Deem and Ramdas Pophale) SiO2 
 PCOD8323365
Probable space group: P -3 M 1
;
_chemical_formula_sum "Si O2"
_cell_formula_units_Z 48
_cell_length_a 17.883150
_cell_length_b 17.883150
_cell_length_c 9.965733
_cell_angle_alpha 90.000000
_cell_angle_beta 90.000000
_cell_angle_gamma 120.000000
_cell_volume 2760.119706
_symmetry_space_group_name_H-M "P -3 M 1"
_symmetry_group_IT_number 164
_symmetry_cell_setting 'hexagonal'
loop_
_space_group_symop_operation_xyz
x,y,z
-y,x-y,z
-x+y,-x,z
x-y,-y,-z
-x,-x+y,-z
y,x,-z
-x,-y,-z
y,-x+y,-z
x-y,x,-z
-x+y,y,z
x,x-y,z
-y,-x,z
loop_
_atom_site_type_symbol
_atom_site_label
_atom_site_fract_x
_atom_site_fract_y
_atom_site_fract_z
Si Si1 0.333554 0.500833 0.985046
Si Si2 0.671750 0.000000 0.000000
Si Si3 0.932813 0.689582 0.727131
Si Si4 0.177100 0.000000 0.500000
Si Si5 0.500004 0.166557 0.697595
O O1 0.245874 0.491747 0.923735
O O2 0.414885 0.585116 0.921593
O O3 0.333470 0.510305 0.143724
O O4 0.341023 0.418278 0.945576
O O5 0.736333 0.025928 0.874827
O O6 0.841139 0.682278 0.743092
O O7 0.994956 0.767010 0.629476
O O8 0.914104 0.596492 0.668348
O O9 0.083364 0.916637 0.515163
O O10 0.574254 0.148508 0.638157
O O11 0.512184 0.256092 0.635868
#
# Coordination Sequence:
#
# PCOD8323365 Si02
#       5
#    12   6  12   6  12
#     4   9  16  25  39  62  94 130 165 198 231 270
#     4  10  17  28  48  74  99 122 152 192 237 282
#     4   9  19  33  49  71  97 122 150 189 234 276
#     4  10  21  38  57  72  88 116 154 192 231 282
#     4   8  13  23  41  66  95 126 158 189 221 261
#
# _framework density 17.390550000000001
#
# number of rings (size 3 to 8) (size 9 to 14) (size 15 to 20)
#    0.000    3.000    0.000    3.250    0.000    5.000 
#    0.000    0.625    0.000    0.000    0.000    4.375 
#    0.000    4.000    0.000    0.000    0.000    0.000 
#
# Total GULP energy -594897.952640 kJ/mol
# GULP energy per Si atom -12393.707347 kJ/mol
# Density = 1.735097 g / cm^3
# Si number density = 17.390550 Si / 1000 Ang^3
#
#
#
# Elastic Constant Matrix: (Units=GPa)
#
#
# Indices 1 2 3 4 5 6 
#
# 1 94.5533 53.3515 40.0778 3.9205 0.0000 0.0000
# 2 53.3515 94.5533 40.0778 -3.9205 0.0000 0.0000
# 3 40.0778 40.0778 53.1483 0.0000 0.0000 0.0000
# 4 3.9205 -3.9205 0.0000 17.8050 0.0000 0.0000
# 5 0.0000 0.0000 0.0000 0.0000 17.8050 3.9205
# 6 0.0000 0.0000 0.0000 0.0000 3.9205 20.6009
#
#
#
# Elastic Compliance Matrix: (Units=1/GPa)
#
#
# Indices 1 2 3 4 5 6 
#
# 1 0.018383 -0.006949 -0.008622 -0.005578 0.000000 0.000000
# 2 -0.006949 0.018383 -0.008622 0.005578 0.000000 0.000000
# 3 -0.008622 -0.008622 0.031818 0.000000 0.000000 0.000000
# 4 -0.005578 0.005578 0.000000 0.058620 0.000000 0.000000
# 5 0.000000 0.000000 0.000000 0.000000 0.058620 -0.011156
# 6 0.000000 0.000000 0.000000 0.000000 -0.011156 0.050665
#
#
# Mechanical properties :
#
#
# Convention : Reuss Voigt Hill
#
# Bulk Modulus (GPa) = 49.50919 56.58548 53.04733
# Shear Modulus (GPa) = 17.14629 18.49202 17.81916
#
# Velocity S-wave (km/s) = 3.14340 3.26442 3.20448
# Velocity P-wave (km/s) = 6.45797 6.84232 6.65292
#
# Compressibility (1/GPa) = 0.02019827
#
# Stress axis : x y z
#
# Youngs Moduli (GPa) = 54.39825 54.39825 31.42850
#
# Poissons Ratio (x) = 0.37803 0.27097
# Poissons Ratio (y) = 0.37803 0.27097
# Poissons Ratio (z) = 0.46901 0.46901
#
# Static dielectric constant tensor:
#      x y z
#    x 3.502170 0.000000 0.000000 
#    y 0.000000 3.502170 0.000000 
#    z 0.000000 0.000000 2.741220 
# 
# 
# High freq. dielectric constant tensor:
#      x y z
#    x 1.680280 0.000000 0.000000 
#    y 0.000000 1.680280 0.000000 
#    z 0.000000 0.000000 1.609270 
# 
# From -- ./inp_files/2464.got.cif
#   From: 2010.03.12/outbox.cif.g09.slc.cpg/sg164_2_cif.got.tgz:2464.got - 2010.04.02 06:32:59.
