data_PCOD8323018
_publ_section_title
;
Structure prediction by ZEFSAII (Michael W. Deem and Ramdas Pophale) SiO2 
 PCOD8323018
Probable space group: P -3 1 M 
;
_chemical_formula_sum "Si O2"
_cell_formula_units_Z 90
_cell_length_a 28.496453
_cell_length_b 28.496453
_cell_length_c 8.017134
_cell_angle_alpha 90.000000
_cell_angle_beta 90.000000
_cell_angle_gamma 120.000000
_cell_volume 5638.081979
_symmetry_space_group_name_H-M "P -3 1 M "
_symmetry_group_IT_number 162
_symmetry_cell_setting 'hexagonal'
loop_
_space_group_symop_operation_xyz
x,y,z
-y,x-y,z
-x+y,-x,z
-y,-x,-z
-x+y,y,-z
x,x-y,-z
-x,-y,-z
y,-x+y,-z
x-y,x,-z
y,x,z
x-y,-y,z
-x,-x+y,z
loop_
_atom_site_type_symbol
_atom_site_label
_atom_site_fract_x
_atom_site_fract_y
_atom_site_fract_z
Si Si1 0.062244 0.637219 0.684844
Si Si2 0.893063 0.062767 0.666172
Si Si3 0.319193 0.061252 0.797383
Si Si4 0.142519 0.849636 0.680097
Si Si5 0.579172 0.643764 0.679881
Si Si6 0.414169 0.935318 0.995569
Si Si7 0.677466 0.737616 0.180700
Si Si8 0.061867 0.938134 0.000000
O O1 0.086663 0.636964 0.501136
O O2 0.068812 0.695715 0.711322
O O3 0.000000 0.590991 0.683366
O O4 0.089740 0.622563 0.837643
O O5 0.929129 0.070872 0.500000
O O6 0.861544 0.094651 0.641402
O O7 0.929323 0.088058 0.833089
O O8 0.849939 0.000000 0.691188
O O9 0.295659 0.101771 0.772996
O O10 0.375258 0.082360 0.697823
O O11 0.273452 0.000000 0.741906
O O12 0.335473 0.060275 0.987377
O O13 0.161280 0.838721 0.500000
O O14 0.112708 0.795796 0.789670
O O15 0.609667 0.609667 0.684295
O O16 0.534910 0.622961 0.828933
O O17 0.442540 0.000000 0.993959
O O18 0.457776 0.915552 0.000000
O O19 0.729281 0.729281 0.225073
O O20 0.000000 0.914083 0.959132
#
# Coordination Sequence:
#
# PCOD8323018 Si02
#       8
#    12  12  12  12  12  12  12   6
#     4   9  16  27  44  62  85 118 151 185 224 264
#     4  10  22  38  54  72  92 111 134 171 226 290
#     4  10  20  33  50  67  88 118 151 190 238 289
#     4  11  23  34  47  69  92 113 146 188 233 290
#     4   9  16  28  44  63  86 117 153 184 222 266
#     4   9  16  26  40  62  90 117 148 186 221 248
#     4  10  19  33  50  66  88 117 152 191 237 286
#     4  10  21  36  54  70  84 102 126 156 200 266
#
# _framework density 15.962876
#
# number of rings (size 3 to 8) (size 9 to 14) (size 15 to 20)
#    0.000    2.267    1.333    2.067    1.867    4.800 
#    0.000    2.667    0.000    2.133    0.000    0.000 
#    0.000    0.000    0.000    0.000    0.000    0.000 
#
# Total GULP energy -1115150.724967 kJ/mol
# GULP energy per Si atom -12390.563611 kJ/mol
# Density = 1.592654 g / cm^3
# Si number density = 15.962876 Si / 1000 Ang^3
#
#
#
# Elastic Constant Matrix: (Units=GPa)
#
#
# Indices 1 2 3 4 5 6 
#
# 1 20.5037 58.5103 30.9682 0.0022 -29.9328 0.0000
# 2 58.5103 20.5037 30.9682 -0.0022 29.9328 0.0000
# 3 30.9682 30.9682 137.0760 0.0000 0.0000 0.0000
# 4 0.0022 -0.0022 0.0000 -10.4265 0.0000 29.9327
# 5 -29.9328 29.9328 0.0000 0.0000 -10.4265 0.0022
# 6 0.0000 0.0000 0.0000 29.9327 0.0022 -19.0033
#
#
#
# Elastic Compliance Matrix: (Units=1/GPa)
#
#
# Indices 1 2 3 4 5 6 
#
# 1 0.011425 0.003954 -0.003475 0.000002 -0.021447 0.000000
# 2 0.003954 0.011425 -0.003475 -0.000002 0.021447 0.000000
# 3 -0.003475 -0.003475 0.008865 0.000000 0.000000 0.000000
# 4 0.000002 -0.000002 0.000000 0.027232 0.000000 0.042894
# 5 -0.021447 0.021447 0.000000 0.000000 0.027232 0.000003
# 6 0.000000 0.000000 0.000000 0.042894 0.000003 0.014941
#
#
# Mechanical properties :
#
#
# Convention : Reuss Voigt Hill
#
# Bulk Modulus (GPa) = 38.87103 46.55298 42.71200
# Shear Modulus (GPa) = 43.22071 -4.12883 19.54594
#
# Velocity S-wave (km/s) = 5.20908 -1.61001 3.50303
# Velocity P-wave (km/s) = 7.78352 5.07646 6.57090
#
# Compressibility (1/GPa) = 0.02572610
#
# Stress axis : x y z
#
# Youngs Moduli (GPa) = 87.52644 87.52644 112.80099
#
# Poissons Ratio (x) = -0.34612 0.39193
# Poissons Ratio (y) = -0.34612 0.39193
# Poissons Ratio (z) = 0.30412 0.30412
#
# Static dielectric constant tensor:
#      x y z
#    x 2.734770 0.000000 0.000000 
#    y 0.000000 2.734770 0.000000 
#    z 0.000000 0.000000 3.604750 
# 
# 
# High freq. dielectric constant tensor:
#      x y z
#    x 1.569120 0.000000 0.000000 
#    y 0.000000 1.569120 0.000000 
#    z 0.000000 0.000000 1.644290 
# 
# From -- ./inp_files/1908.got.cif
#   From: 2010.03.12/outbox.cif.g09.slc.cpg/sg162_1_cif.got.tgz:1908.got - 2010.04.02 06:27:41.
