data_PCOD8323274
_publ_section_title
;
Structure prediction by ZEFSAII (Michael W. Deem and Ramdas Pophale) SiO2 
 PCOD8323274
Probable space group: P -3 1 C
;
_chemical_formula_sum "Si O2"
_cell_formula_units_Z 58
_cell_length_a 14.559306
_cell_length_b 14.559306
_cell_length_c 13.368319
_cell_angle_alpha 90.000000
_cell_angle_beta 90.000000
_cell_angle_gamma 120.000000
_cell_volume 2454.080360
_symmetry_space_group_name_H-M "P -3 1 C"
_symmetry_group_IT_number 163
_symmetry_cell_setting 'hexagonal'
loop_
_space_group_symop_operation_xyz
x,y,z
-y,x-y,z
-x+y,-x,z
-y,-x,1/2-z
-x+y,y,1/2-z
x,x-y,1/2-z
-x,-y,-z
y,-x+y,-z
x-y,x,-z
y,x,1/2+z
x-y,-y,1/2+z
-x,-x+y,1/2+z
loop_
_atom_site_type_symbol
_atom_site_label
_atom_site_fract_x
_atom_site_fract_y
_atom_site_fract_z
Si Si1 0.633596 0.150503 0.510379
Si Si2 0.666667 0.333334 0.633665
Si Si3 0.310436 0.155218 0.750000
Si Si4 0.607872 0.586308 0.806336
Si Si5 0.721327 0.568214 0.427651
Si Si6 0.151577 0.927845 0.039609
O O1 0.688491 0.241798 0.594980
O O2 0.535735 0.149796 0.460023
O O3 0.725015 0.180120 0.425614
O O4 0.603624 0.045967 0.574626
O O5 0.666668 0.333334 0.750000
O O6 0.385310 0.282878 0.747742
O O7 0.234505 0.121203 0.846625
O O8 0.510517 0.489484 0.750000
O O9 0.596197 0.692080 0.817466
O O10 0.752034 0.663968 0.504589
O O11 0.051277 0.863192 0.966654
#
# Coordination Sequence:
#
# PCOD8323274 Si02
#       6
#    12   4   6  12  12  12
#     4  10  21  37  67  96 142 197 247 295 379 451
#     4   9  18  27  51  93 130 167 235 303 339 414
#     4  12  26  48  74 112 148 202 264 318 392 470
#     4  12  25  41  70 109 152 197 256 321 382 468
#     4  11  22  46  68 109 152 202 249 319 385 458
#     4  12  26  50  79 112 155 200 260 325 396 458
#
# _framework density 23.634107
#
# number of rings (size 3 to 8) (size 9 to 14) (size 15 to 20)
#    0.000    0.828    4.138    3.103    4.345    2.483 
#    0.621    3.103    0.000    0.000    0.000    0.000 
#    0.000    0.000    0.000    0.000    0.000    0.000 
#
# Total GULP energy -718863.775118 kJ/mol
# GULP energy per Si atom -12394.203019 kJ/mol
# Density = 2.358031 g / cm^3
# Si number density = 23.634107 Si / 1000 Ang^3
#
#
#
# Elastic Constant Matrix: (Units=GPa)
#
#
# Indices 1 2 3 4 5 6 
#
# 1 110.6762 38.3394 47.1920 0.0000 1.5261 0.0000
# 2 38.3394 110.6764 47.1921 -0.0002 -1.5262 0.0002
# 3 47.1920 47.1921 93.8469 -0.0001 -0.0001 0.0001
# 4 0.0000 -0.0002 -0.0001 32.7996 0.0001 -1.5262
# 5 1.5261 -1.5262 -0.0001 0.0001 32.7995 0.0000
# 6 0.0000 0.0002 0.0001 -1.5262 0.0000 36.1687
#
#
#
# Elastic Compliance Matrix: (Units=1/GPa)
#
#
# Indices 1 2 3 4 5 6 
#
# 1 0.011849 -0.002002 -0.004952 0.000000 -0.000644 0.000000
# 2 -0.002002 0.011849 -0.004952 0.000000 0.000645 0.000000
# 3 -0.004952 -0.004952 0.015636 0.000000 0.000000 0.000000
# 4 0.000000 0.000000 0.000000 0.030548 0.000000 0.001289
# 5 -0.000644 0.000645 0.000000 0.000000 0.030548 0.000000
# 6 0.000000 0.000000 0.000000 0.001289 0.000000 0.027703
#
#
# Mechanical properties :
#
#
# Convention : Reuss Voigt Hill
#
# Bulk Modulus (GPa) = 64.42071 64.51629 64.46850
# Shear Modulus (GPa) = 31.82310 32.51863 32.17086
#
# Velocity S-wave (km/s) = 3.67344 3.71336 3.69345
# Velocity P-wave (km/s) = 6.73119 6.76333 6.74728
#
# Compressibility (1/GPa) = 0.01552296
#
# Stress axis : x y z
#
# Youngs Moduli (GPa) = 84.39379 84.39385 63.95628
#
# Poissons Ratio (x) = 0.16897 0.31669
# Poissons Ratio (y) = 0.16897 0.31669
# Poissons Ratio (z) = 0.41789 0.41789
#
# Static dielectric constant tensor:
#      x y z
#    x 4.655980 -0.000010 0.000000 
#    y -0.000010 4.655970 0.000000 
#    z 0.000000 0.000000 4.020520 
# 
# 
# High freq. dielectric constant tensor:
#      x y z
#    x 1.948930 0.000000 0.000000 
#    y 0.000000 1.948930 0.000000 
#    z 0.000000 0.000000 1.905790 
# 
# From -- ./inp_files/2403.got.cif
#   From: 2010.03.12/outbox.cif.g09.slc.cpg/sg163_2_cif.got.tgz:2403.got - 2010.04.02 06:30:25.
