data_PCOD8323699
_publ_section_title
;
Structure prediction by ZEFSAII (Michael W. Deem and Ramdas Pophale) SiO2 
 PCOD8323699
Probable space group: P -3 M 1
;
_chemical_formula_sum "Si O2"
_cell_formula_units_Z 60
_cell_length_a 12.504828
_cell_length_b 12.504828
_cell_length_c 25.443662
_cell_angle_alpha 90.000000
_cell_angle_beta 90.000000
_cell_angle_gamma 120.000000
_cell_volume 3445.606630
_symmetry_space_group_name_H-M "P -3 M 1"
_symmetry_group_IT_number 164
_symmetry_cell_setting 'hexagonal'
loop_
_space_group_symop_operation_xyz
x,y,z
-y,x-y,z
-x+y,-x,z
x-y,-y,-z
-x,-x+y,-z
y,x,-z
-x,-y,-z
y,-x+y,-z
x-y,x,-z
-x+y,y,z
x,x-y,z
-y,-x,z
loop_
_atom_site_type_symbol
_atom_site_label
_atom_site_fract_x
_atom_site_fract_y
_atom_site_fract_z
Si Si1 0.584671 0.917673 0.049542
Si Si2 0.000140 0.754867 0.559386
Si Si3 0.333622 0.914482 0.653901
Si Si4 0.001612 0.751396 0.149116
Si Si5 0.666495 0.084122 0.752000
O O1 0.451056 0.902111 0.054881
O O2 0.567405 0.783703 0.041944
O O3 0.660307 0.983986 0.101529
O O4 0.658876 0.000000 0.000000
O O5 0.868704 0.737407 0.575516
O O6 0.000000 0.709669 0.500000
O O7 0.031350 0.672285 0.597430
O O8 0.100681 0.899320 0.564755
O O9 0.439062 0.878124 0.651731
O O10 0.206411 0.793590 0.668759
O O11 0.361055 0.017894 0.697065
O O12 0.105239 0.894762 0.146503
O O13 0.009374 0.690532 0.203142
O O14 0.869686 0.739371 0.145058
O O15 0.542574 0.085148 0.766094
O O16 0.775858 0.224143 0.748291
#
# Coordination Sequence:
#
# PCOD8323699 Si02
#       5
#    12  12  12  12  12
#     4  10  20  34  53  76 103 135 170 209 251 296
#     4   9  17  30  49  72  96 122 155 198 247 295
#     4  10  20  33  49  69  96 130 165 200 238 285
#     4  10  20  34  52  74 100 129 162 200 243 290
#     4  10  20  34  53  75  99 127 160 200 244 290
#
# _framework density 17.413478000000001
#
# number of rings (size 3 to 8) (size 9 to 14) (size 15 to 20)
#    0.000    2.200    0.000    3.400    0.000    1.200 
#    0.000    2.000    0.000   15.600    0.000    0.000 
#    0.000    0.000    0.000    0.000    0.000    0.000 
#
# Total GULP energy -744213.670734 kJ/mol
# GULP energy per Si atom -12403.561179 kJ/mol
# Density = 1.737384 g / cm^3
# Si number density = 17.413478 Si / 1000 Ang^3
#
#
#
# Elastic Constant Matrix: (Units=GPa)
#
#
# Indices 1 2 3 4 5 6 
#
# 1 82.7574 39.9420 40.6566 -0.0609 0.0000 0.0000
# 2 39.9420 82.7574 40.6566 0.0609 0.0000 0.0000
# 3 40.6566 40.6566 104.2591 0.0000 0.0000 0.0000
# 4 -0.0609 0.0609 0.0000 26.6687 0.0000 0.0000
# 5 0.0000 0.0000 0.0000 0.0000 26.6687 -0.0609
# 6 0.0000 0.0000 0.0000 0.0000 -0.0609 21.4077
#
#
#
# Elastic Compliance Matrix: (Units=1/GPa)
#
#
# Indices 1 2 3 4 5 6 
#
# 1 0.017173 -0.006183 -0.004286 0.000053 0.000000 0.000000
# 2 -0.006183 0.017173 -0.004286 -0.000053 0.000000 0.000000
# 3 -0.004286 -0.004286 0.012934 0.000000 0.000000 0.000000
# 4 0.000053 -0.000053 0.000000 0.037497 0.000000 0.000000
# 5 0.000000 0.000000 0.000000 0.000000 0.037497 0.000107
# 6 0.000000 0.000000 0.000000 0.000000 0.000107 0.046712
#
#
# Mechanical properties :
#
#
# Convention : Reuss Voigt Hill
#
# Bulk Modulus (GPa) = 56.26993 56.92050 56.59521
# Shear Modulus (GPa) = 24.45942 24.85027 24.65484
#
# Velocity S-wave (km/s) = 3.75190 3.78176 3.76686
# Velocity P-wave (km/s) = 7.15214 7.19913 7.17568
#
# Compressibility (1/GPa) = 0.01777148
#
# Stress axis : x y z
#
# Youngs Moduli (GPa) = 58.23032 58.23032 77.31582
#
# Poissons Ratio (x) = 0.36004 0.33135
# Poissons Ratio (y) = 0.36004 0.33135
# Poissons Ratio (z) = 0.24956 0.24956
#
# Static dielectric constant tensor:
#      x y z
#    x 3.189030 0.000000 0.000000 
#    y 0.000000 3.189030 0.000000 
#    z 0.000000 0.000000 3.413890 
# 
# 
# High freq. dielectric constant tensor:
#      x y z
#    x 1.675780 0.000000 0.000000 
#    y 0.000000 1.675780 0.000000 
#    z 0.000000 0.000000 1.687090 
# 
# From -- ./inp_files/5168.got.cif
#   From: 2010.03.12/outbox.cif.g09.slc.cpg/sg164_3_cif.got.tgz:5168.got - 2010.04.02 06:32:59.
