data_PCOD8323745
_publ_section_title
;
Structure prediction by ZEFSAII (Michael W. Deem and Ramdas Pophale) SiO2 
 PCOD8323745
Probable space group: P -3 M 1
;
_chemical_formula_sum "Si O2"
_cell_formula_units_Z 48
_cell_length_a 17.802185
_cell_length_b 17.802185
_cell_length_c 9.323090
_cell_angle_alpha 90.000000
_cell_angle_beta 90.000000
_cell_angle_gamma 120.000000
_cell_volume 2558.804632
_symmetry_space_group_name_H-M "P -3 M 1"
_symmetry_group_IT_number 164
_symmetry_cell_setting 'hexagonal'
loop_
_space_group_symop_operation_xyz
x,y,z
-y,x-y,z
-x+y,-x,z
x-y,-y,-z
-x,-x+y,-z
y,x,-z
-x,-y,-z
y,-x+y,-z
x-y,x,-z
-x+y,y,z
x,x-y,z
-y,-x,z
loop_
_atom_site_type_symbol
_atom_site_label
_atom_site_fract_x
_atom_site_fract_y
_atom_site_fract_z
Si Si1 0.331326 0.491339 0.669080
Si Si2 0.999286 0.162174 0.168684
Si Si3 0.013692 0.339158 0.832369
Si Si4 0.909119 0.643795 0.573250
O O1 0.256089 0.512177 0.709299
O O2 0.420941 0.579060 0.661493
O O3 0.335549 0.430790 0.792518
O O4 0.314376 0.444359 0.516539
O O5 0.929894 0.070107 0.237137
O O6 0.967245 0.229216 0.205848
O O7 0.095301 0.190601 0.230118
O O8 0.000000 0.152444 0.000000
O O9 0.929337 0.311901 0.731116
O O10 0.000000 0.346691 0.000000
O O11 0.837733 0.675466 0.581836
O O12 0.000000 0.717894 0.500000
#
# Coordination Sequence:
#
# PCOD8323745 Si02
#       4
#    12  12  12  12
#     4  10  21  38  59  80 103 135 178 227 275 323
#     4   9  16  26  42  67 101 140 178 212 247 293
#     4  10  20  33  53  80 112 144 177 217 268 328
#     4   9  19  35  55  78 106 141 180 223 268 317
#
# _framework density 18.758759000000001
#
# number of rings (size 3 to 8) (size 9 to 14) (size 15 to 20)
#    0.000    2.500    0.000    2.000    0.000   10.000 
#    0.000    0.000    0.000    0.250    0.000    3.500 
#    0.000    0.000    0.000    0.000    0.000    0.000 
#
# Total GULP energy -594640.571826 kJ/mol
# GULP energy per Si atom -12388.345246 kJ/mol
# Density = 1.871606 g / cm^3
# Si number density = 18.758759 Si / 1000 Ang^3
#
#
#
# Elastic Constant Matrix: (Units=GPa)
#
#
# Indices 1 2 3 4 5 6 
#
# 1 126.2431 79.4597 44.3722 11.1346 0.0000 0.0000
# 2 79.4597 126.2431 44.3722 -11.1346 0.0000 0.0000
# 3 44.3722 44.3722 123.6112 0.0000 0.0000 0.0000
# 4 11.1346 -11.1346 0.0000 11.1855 0.0000 0.0000
# 5 0.0000 0.0000 0.0000 0.0000 11.1855 11.1346
# 6 0.0000 0.0000 0.0000 0.0000 11.1346 23.3917
#
#
#
# Elastic Compliance Matrix: (Units=1/GPa)
#
#
# Indices 1 2 3 4 5 6 
#
# 1 0.023188 -0.017436 -0.002065 -0.040440 0.000000 0.000000
# 2 -0.017436 0.023188 -0.002065 0.040440 0.000000 0.000000
# 3 -0.002065 -0.002065 0.009572 0.000000 0.000000 0.000000
# 4 -0.040440 0.040440 0.000000 0.169913 0.000000 0.000000
# 5 0.000000 0.000000 0.000000 0.000000 0.169913 -0.080880
# 6 0.000000 0.000000 0.000000 0.000000 -0.080880 0.081249
#
#
# Mechanical properties :
#
#
# Convention : Reuss Voigt Hill
#
# Bulk Modulus (GPa) = 78.01944 79.16732 78.59338
# Shear Modulus (GPa) = 9.53419 23.01209 16.27314
#
# Velocity S-wave (km/s) = 2.25689 3.50628 2.94852
# Velocity P-wave (km/s) = 6.96223 7.66071 7.31981
#
# Compressibility (1/GPa) = 0.01281732
#
# Stress axis : x y z
#
# Youngs Moduli (GPa) = 43.12491 43.12491 104.46810
#
# Poissons Ratio (x) = 0.75194 0.21571
# Poissons Ratio (y) = 0.75194 0.21571
# Poissons Ratio (z) = 0.08905 0.08905
#
# Static dielectric constant tensor:
#      x y z
#    x 3.445240 0.000000 0.000000 
#    y 0.000000 3.445240 0.000000 
#    z 0.000000 0.000000 3.613240 
# 
# 
# High freq. dielectric constant tensor:
#      x y z
#    x 1.720230 0.000000 0.000000 
#    y 0.000000 1.720230 0.000000 
#    z 0.000000 0.000000 1.723010 
# 
# From -- ./inp_files/1222.got.cif
#   From: 2010.03.12/outbox.cif.g09.slc.cpg/sg164_1_cif.got.tgz:1222.got - 2010.04.02 06:32:59.
