data_PCOD8323027
_publ_section_title
;
Structure prediction by ZEFSAII (Michael W. Deem and Ramdas Pophale) SiO2 
 PCOD8323027
Probable space group: P -3 1 M 
;
_chemical_formula_sum "Si O2"
_cell_formula_units_Z 84
_cell_length_a 13.814132
_cell_length_b 13.814132
_cell_length_c 24.722615
_cell_angle_alpha 90.000000
_cell_angle_beta 90.000000
_cell_angle_gamma 120.000000
_cell_volume 4085.754245
_symmetry_space_group_name_H-M "P -3 1 M "
_symmetry_group_IT_number 162
_symmetry_cell_setting 'hexagonal'
loop_
_space_group_symop_operation_xyz
x,y,z
-y,x-y,z
-x+y,-x,z
-y,-x,-z
-x+y,y,-z
x,x-y,-z
-x,-y,-z
y,-x+y,-z
x-y,x,-z
y,x,z
x-y,-y,z
-x,-x+y,z
loop_
_atom_site_type_symbol
_atom_site_label
_atom_site_fract_x
_atom_site_fract_y
_atom_site_fract_z
Si Si1 0.870833 0.331554 0.148869
Si Si2 0.875576 0.750086 0.321384
Si Si3 0.670461 0.132106 0.649604
Si Si4 0.877131 0.663120 0.212548
Si Si5 0.579706 0.130551 0.249351
Si Si6 0.462810 0.332946 0.527461
Si Si7 0.668491 0.537265 0.027697
O O1 0.849130 0.208924 0.164636
O O2 0.816227 0.373058 0.195137
O O3 0.823256 0.323538 0.088923
O O4 0.000000 0.419951 0.145925
O O5 0.831660 0.831660 0.341686
O O6 0.802018 0.624847 0.343206
O O7 0.873244 0.747816 0.255847
O O8 0.000000 0.796152 0.344031
O O9 0.622896 0.183168 0.695247
O O10 0.659774 0.165648 0.588911
O O11 0.605852 0.000000 0.657645
O O12 0.846073 0.551044 0.246577
O O13 0.000000 0.714630 0.186085
O O14 0.489980 0.000000 0.249714
O O15 0.573045 0.426956 0.500000
O O16 0.423735 0.211868 0.500000
O O17 0.361323 0.361323 0.523615
O O18 0.636033 0.636033 0.025099
O O19 0.573871 0.426130 0.000000
O O20 0.789483 0.578966 0.000000
#
# Coordination Sequence:
#
# PCOD8323027 Si02
#       7
#    12  12  12  12  12  12  12
#     4  10  20  37  58  80 115 153 186 234 294 349
#     4  10  19  33  54  83 118 155 192 232 286 351
#     4   9  18  35  56  78 112 150 187 238 292 342
#     4  10  20  32  53  84 114 151 192 231 284 351
#     4   9  18  34  52  74 108 146 181 225 285 344
#     4  10  22  40  62  87 116 157 204 251 300 354
#     4  10  23  41  62  88 118 157 203 251 300 352
#
# _framework density 20.559239999999999
#
# number of rings (size 3 to 8) (size 9 to 14) (size 15 to 20)
#    0.000    2.286    1.429    0.857    2.000    2.286 
#    0.857    2.857    0.000    0.571    0.000    0.000 
#    0.000    0.000    0.000    0.000    0.000    0.000 
#
# Total GULP energy -1040928.175940 kJ/mol
# GULP energy per Si atom -12392.002095 kJ/mol
# Density = 2.051245 g / cm^3
# Si number density = 20.559240 Si / 1000 Ang^3
#
#
#
# Elastic Constant Matrix: (Units=GPa)
#
#
# Indices 1 2 3 4 5 6 
#
# 1 55.4518 7.4099 23.2412 -0.0001 0.5298 0.0000
# 2 7.4099 55.4518 23.2412 0.0001 -0.5298 0.0000
# 3 23.2412 23.2412 146.4045 0.0000 0.0000 0.0000
# 4 -0.0001 0.0001 0.0000 22.3226 0.0000 -0.5298
# 5 0.5298 -0.5298 0.0000 0.0000 22.3226 -0.0001
# 6 0.0000 0.0000 0.0000 -0.5298 -0.0001 24.0210
#
#
#
# Elastic Compliance Matrix: (Units=1/GPa)
#
#
# Indices 1 2 3 4 5 6 
#
# 1 0.019425 -0.001401 -0.002861 0.000000 -0.000494 0.000000
# 2 -0.001401 0.019425 -0.002861 0.000000 0.000494 0.000000
# 3 -0.002861 -0.002861 0.007739 0.000000 0.000000 0.000000
# 4 0.000000 0.000000 0.000000 0.044821 0.000000 0.000989
# 5 -0.000494 0.000494 0.000000 0.000000 0.044821 0.000000
# 6 0.000000 0.000000 0.000000 0.000989 0.000000 0.041652
#
#
# Mechanical properties :
#
#
# Convention : Reuss Voigt Hill
#
# Bulk Modulus (GPa) = 30.92020 40.56582 35.74301
# Shear Modulus (GPa) = 24.64141 27.29428 25.96785
#
# Velocity S-wave (km/s) = 3.46577 3.64757 3.55783
# Velocity P-wave (km/s) = 5.57563 6.12484 5.85668
#
# Compressibility (1/GPa) = 0.03234131
#
# Stress axis : x y z
#
# Youngs Moduli (GPa) = 51.48048 51.48048 129.21910
#
# Poissons Ratio (x) = 0.07214 0.36972
# Poissons Ratio (y) = 0.07214 0.36972
# Poissons Ratio (z) = 0.14729 0.14729
#
# Static dielectric constant tensor:
#      x y z
#    x 3.645190 0.000000 0.000000 
#    y 0.000000 3.645190 0.000000 
#    z 0.000000 0.000000 3.874130 
# 
# 
# High freq. dielectric constant tensor:
#      x y z
#    x 1.794270 0.000000 0.000000 
#    y 0.000000 1.794270 0.000000 
#    z 0.000000 0.000000 1.796800 
# 
# From -- ./inp_files/3951.got.cif
#   From: 2010.03.12/outbox.cif.g09.slc.cpg/sg162_2_cif.got.tgz:3951.got - 2010.04.02 06:27:41.
