data_PCOD8323530
_publ_section_title
;
Structure prediction by ZEFSAII (Michael W. Deem and Ramdas Pophale) SiO2 
 PCOD8323530
Probable space group: P -3 M 1
;
_chemical_formula_sum "Si O2"
_cell_formula_units_Z 84
_cell_length_a 21.609531
_cell_length_b 21.609531
_cell_length_c 12.606014
_cell_angle_alpha 90.000000
_cell_angle_beta 90.000000
_cell_angle_gamma 120.000000
_cell_volume 5097.991411
_symmetry_space_group_name_H-M "P -3 M 1"
_symmetry_group_IT_number 164
_symmetry_cell_setting 'hexagonal'
loop_
_space_group_symop_operation_xyz
x,y,z
-y,x-y,z
-x+y,-x,z
x-y,-y,-z
-x,-x+y,-z
y,x,-z
-x,-y,-z
y,-x+y,-z
x-y,x,-z
-x+y,y,z
x,x-y,z
-y,-x,z
loop_
_atom_site_type_symbol
_atom_site_label
_atom_site_fract_x
_atom_site_fract_y
_atom_site_fract_z
Si Si1 0.282176 0.000001 0.373222
Si Si2 0.476046 0.809311 0.121277
Si Si3 0.139723 0.139723 0.374071
Si Si4 0.860988 0.283192 0.692512
Si Si5 0.577794 0.716809 0.692526
Si Si6 0.476046 0.809312 0.878738
Si Si7 0.333178 0.812009 0.500002
O O1 0.348153 0.067532 0.320814
O O2 0.289436 0.000000 0.500000
O O3 0.210823 0.000007 0.337817
O O4 0.280607 0.932464 0.320811
O O5 0.408308 0.816616 0.153810
O O6 0.454211 0.727106 0.139902
O O7 0.543576 0.860916 0.193785
O O8 0.498634 0.832593 0.000008
O O9 0.135946 0.135946 0.500000
O O10 0.070425 0.140849 0.328477
O O11 0.140839 0.070420 0.328476
O O12 0.797259 0.202742 0.681070
O O13 0.854938 0.332317 0.602834
O O14 0.594530 0.797265 0.681094
O O15 0.543578 0.682662 0.806232
O O16 0.522606 0.667690 0.602859
O O17 0.408309 0.816617 0.846206
O O18 0.454210 0.727105 0.860113
O O19 0.404610 0.809219 0.499998
O O20 0.268341 0.731660 0.499983
#
# Coordination Sequence:
#
# PCOD8323530 Si02
#       7
#    12  12  12  12  12  12  12
#     4  11  20  33  49  67  94 136 174 197 229 289
#     4   9  17  31  52  75  97 123 159 206 257 301
#     4   9  17  28  47  73 100 126 157 199 244 285
#     4  10  20  33  49  70  97 126 161 202 241 287
#     4  10  20  33  49  70  97 126 161 202 241 287
#     4   9  17  31  52  75  97 123 159 206 257 301
#     4  10  19  31  47  67  92 122 158 203 249 285
#
# _framework density 16.477077000000001
#
# number of rings (size 3 to 8) (size 9 to 14) (size 15 to 20)
#    0.000    2.286    1.429    2.286    0.000    2.857 
#    0.000    7.143    0.000    1.714    0.000    0.000 
#    0.000    0.000    0.000    0.857    0.000   26.429 
#
# Total GULP energy -1041693.085148 kJ/mol
# GULP energy per Si atom -12401.108157 kJ/mol
# Density = 1.643957 g / cm^3
# Si number density = 16.477077 Si / 1000 Ang^3
#
#
#
# Elastic Constant Matrix: (Units=GPa)
#
#
# Indices 1 2 3 4 5 6 
#
# 1 120.8561 70.4118 48.9390 -0.0054 0.0000 0.0000
# 2 70.4118 120.8561 48.9390 0.0054 0.0000 0.0000
# 3 48.9390 48.9390 84.4956 0.0000 0.0000 0.0000
# 4 -0.0054 0.0054 0.0000 19.6901 0.0000 0.0000
# 5 0.0000 0.0000 0.0000 0.0000 19.6901 -0.0054
# 6 0.0000 0.0000 0.0000 0.0000 -0.0054 25.2222
#
#
#
# Elastic Compliance Matrix: (Units=1/GPa)
#
#
# Indices 1 2 3 4 5 6 
#
# 1 0.013627 -0.006197 -0.004304 0.000005 0.000000 0.000000
# 2 -0.006197 0.013627 -0.004304 -0.000005 0.000000 0.000000
# 3 -0.004304 -0.004304 0.016820 0.000000 0.000000 0.000000
# 4 0.000005 -0.000005 0.000000 0.050787 0.000000 0.000000
# 5 0.000000 0.000000 0.000000 0.000000 0.050787 0.000011
# 6 0.000000 0.000000 0.000000 0.000000 0.000011 0.039648
#
#
# Mechanical properties :
#
#
# Convention : Reuss Voigt Hill
#
# Bulk Modulus (GPa) = 69.12483 73.64305 71.38394
# Shear Modulus (GPa) = 22.75553 23.44834 23.10193
#
# Velocity S-wave (km/s) = 3.72027 3.77648 3.74848
# Velocity P-wave (km/s) = 7.77799 7.98793 7.88366
#
# Compressibility (1/GPa) = 0.01446658
#
# Stress axis : x y z
#
# Youngs Moduli (GPa) = 73.38247 73.38247 59.45194
#
# Poissons Ratio (x) = 0.45472 0.25587
# Poissons Ratio (y) = 0.45472 0.25587
# Poissons Ratio (z) = 0.31582 0.31582
#
# Static dielectric constant tensor:
#      x y z
#    x 3.073080 0.000000 0.000000 
#    y 0.000000 3.073080 0.000000 
#    z 0.000000 0.000000 3.090540 
# 
# 
# High freq. dielectric constant tensor:
#      x y z
#    x 1.632400 0.000000 0.000000 
#    y 0.000000 1.632400 0.000000 
#    z 0.000000 0.000000 1.616280 
# 
# From -- ./inp_files/2910.got.cif
#   From: 2010.03.12/outbox.cif.g09.slc.cpg/sg164_2_cif.got.tgz:2910.got - 2010.04.02 06:32:59.
