data_PCOD8323735
_publ_section_title
;
Structure prediction by ZEFSAII (Michael W. Deem and Ramdas Pophale) SiO2 
 PCOD8323735
Probable space group: P -3 M 1
;
_chemical_formula_sum "Si O2"
_cell_formula_units_Z 60
_cell_length_a 12.548773
_cell_length_b 12.548773
_cell_length_c 25.646297
_cell_angle_alpha 90.000000
_cell_angle_beta 90.000000
_cell_angle_gamma 120.000000
_cell_volume 3497.500824
_symmetry_space_group_name_H-M "P -3 M 1"
_symmetry_group_IT_number 164
_symmetry_cell_setting 'hexagonal'
loop_
_space_group_symop_operation_xyz
x,y,z
-y,x-y,z
-x+y,-x,z
x-y,-y,-z
-x,-x+y,-z
y,x,-z
-x,-y,-z
y,-x+y,-z
x-y,x,-z
-x+y,y,z
x,x-y,z
-y,-x,z
loop_
_atom_site_type_symbol
_atom_site_label
_atom_site_fract_x
_atom_site_fract_y
_atom_site_fract_z
Si Si1 0.580521 0.913925 0.839145
Si Si2 0.082708 0.665083 0.450641
Si Si3 0.915266 0.580804 0.745087
Si Si4 0.580648 0.913027 0.956073
Si Si5 0.664971 0.083281 0.352478
O O1 0.437746 0.875492 0.833724
O O2 0.590976 0.795488 0.824208
O O3 0.629871 0.961000 0.897662
O O4 0.664557 0.025744 0.800869
O O5 0.120291 0.560146 0.451126
O O6 0.204956 0.795045 0.452586
O O7 0.000000 0.653345 0.500000
O O8 0.008268 0.657779 0.398934
O O9 0.796791 0.593582 0.735761
O O10 0.874771 0.437386 0.742293
O O11 0.016021 0.657379 0.701501
O O12 0.452358 0.904715 0.966208
O O13 0.556629 0.778315 0.964269
O O14 0.677254 0.000000 0.000000
O O15 0.561299 0.122597 0.355729
O O16 0.796210 0.203791 0.357077
#
# Coordination Sequence:
#
# PCOD8323735 Si02
#       5
#    12  12  12  12  12
#     4   9  17  30  49  71  94 121 155 197 241 284
#     4  10  20  34  54  78 104 134 167 205 247 291
#     4  10  20  33  50  72  99 129 159 194 237 287
#     4   9  17  29  46  69  95 123 155 192 237 285
#     4  10  20  34  54  78 102 128 160 202 247 289
#
# _framework density 17.155107999999998
#
# number of rings (size 3 to 8) (size 9 to 14) (size 15 to 20)
#    0.000    2.400    0.000    2.800    0.000    2.400 
#    0.000    6.000    0.000   14.200    0.000    0.000 
#    0.000    0.000    0.000    0.000    0.000    0.000 
#
# Total GULP energy -744035.929921 kJ/mol
# GULP energy per Si atom -12400.598832 kJ/mol
# Density = 1.711606 g / cm^3
# Si number density = 17.155108 Si / 1000 Ang^3
#
#
#
# Elastic Constant Matrix: (Units=GPa)
#
#
# Indices 1 2 3 4 5 6 
#
# 1 98.7249 54.9715 48.6343 -0.8179 0.0000 0.0000
# 2 54.9715 98.7249 48.6343 0.8179 0.0000 0.0000
# 3 48.6343 48.6343 117.8074 0.0000 0.0000 0.0000
# 4 -0.8179 0.8179 0.0000 19.7961 0.0000 0.0000
# 5 0.0000 0.0000 0.0000 0.0000 19.7961 -0.8179
# 6 0.0000 0.0000 0.0000 0.0000 -0.8179 21.8767
#
#
#
# Elastic Compliance Matrix: (Units=1/GPa)
#
#
# Indices 1 2 3 4 5 6 
#
# 1 0.015849 -0.007042 -0.003636 0.000946 0.000000 0.000000
# 2 -0.007042 0.015849 -0.003636 -0.000946 0.000000 0.000000
# 3 -0.003636 -0.003636 0.011490 0.000000 0.000000 0.000000
# 4 0.000946 -0.000946 0.000000 0.050593 0.000000 0.000000
# 5 0.000000 0.000000 0.000000 0.000000 0.050593 0.001892
# 6 0.000000 0.000000 0.000000 0.000000 0.001892 0.045781
#
#
# Mechanical properties :
#
#
# Convention : Reuss Voigt Hill
#
# Bulk Modulus (GPa) = 68.67438 68.85972 68.76705
# Shear Modulus (GPa) = 22.35764 23.16160 22.75962
#
# Velocity S-wave (km/s) = 3.61399 3.67840 3.64634
# Velocity P-wave (km/s) = 7.58505 7.63331 7.60922
#
# Compressibility (1/GPa) = 0.01456147
#
# Stress axis : x y z
#
# Youngs Moduli (GPa) = 63.09529 63.09529 87.02857
#
# Poissons Ratio (x) = 0.44430 0.31643
# Poissons Ratio (y) = 0.44430 0.31643
# Poissons Ratio (z) = 0.22941 0.22941
#
# Static dielectric constant tensor:
#      x y z
#    x 3.024930 0.000000 0.000000 
#    y 0.000000 3.024930 0.000000 
#    z 0.000000 0.000000 3.595410 
# 
# 
# High freq. dielectric constant tensor:
#      x y z
#    x 1.648630 0.000000 0.000000 
#    y 0.000000 1.648630 0.000000 
#    z 0.000000 0.000000 1.684960 
# 
# From -- ./inp_files/5181.got.cif
#   From: 2010.03.12/outbox.cif.g09.slc.cpg/sg164_3_cif.got.tgz:5181.got - 2010.04.02 06:32:59.
