data_PCOD8323787
_publ_section_title
;
Structure prediction by ZEFSAII (Michael W. Deem and Ramdas Pophale) SiO2 
 PCOD8323787
Probable space group: P -3 M 1
;
_chemical_formula_sum "Si O2"
_cell_formula_units_Z 60
_cell_length_a 17.842004
_cell_length_b 17.842004
_cell_length_c 12.067208
_cell_angle_alpha 90.000000
_cell_angle_beta 90.000000
_cell_angle_gamma 120.000000
_cell_volume 3326.784697
_symmetry_space_group_name_H-M "P -3 M 1"
_symmetry_group_IT_number 164
_symmetry_cell_setting 'hexagonal'
loop_
_space_group_symop_operation_xyz
x,y,z
-y,x-y,z
-x+y,-x,z
x-y,-y,-z
-x,-x+y,-z
y,x,-z
-x,-y,-z
y,-x+y,-z
x-y,x,-z
-x+y,y,z
x,x-y,z
-y,-x,z
loop_
_atom_site_type_symbol
_atom_site_label
_atom_site_fract_x
_atom_site_fract_y
_atom_site_fract_z
Si Si1 0.908701 0.641631 0.796269
Si Si2 0.333478 0.840261 0.018704
Si Si3 0.588944 0.583865 0.626733
Si Si4 0.333415 0.496529 0.767667
Si Si5 0.170956 0.000274 0.130749
O O1 0.818603 0.637205 0.777006
O O2 0.904300 0.586749 0.904523
O O3 0.924662 0.599689 0.688047
O O4 0.984325 0.741075 0.811765
O O5 0.424542 0.849083 0.052293
O O6 0.259392 0.740608 0.034182
O O7 0.333789 0.870001 0.892362
O O8 0.612242 0.612242 0.500000
O O9 0.517059 0.482941 0.636179
O O10 0.556873 0.643974 0.682403
O O11 0.240477 0.480954 0.733161
O O12 0.401544 0.598457 0.760541
O O13 0.184596 0.092298 0.171937
O O14 0.074582 0.925419 0.163672
O O15 0.183256 0.000000 0.000000
#
# Coordination Sequence:
#
# PCOD8323787 Si02
#       5
#    12  12  12  12  12
#     4  10  21  34  51  77 105 133 168 213 260 307
#     4   9  17  30  50  77 107 136 164 199 250 310
#     4  10  22  38  53  71  99 138 179 215 254 300
#     4   9  18  32  53  78 102 129 163 204 250 302
#     4   9  18  32  51  75 105 138 170 206 251 308
#
# _framework density 18.035433000000001
#
# number of rings (size 3 to 8) (size 9 to 14) (size 15 to 20)
#    0.000    2.600    0.000    1.200    2.800    4.000 
#    0.000    3.000    0.000    0.400    0.000    0.000 
#    0.000    4.000    0.000    0.000    0.000    0.000 
#
# Total GULP energy -744103.839240 kJ/mol
# GULP energy per Si atom -12401.730654 kJ/mol
# Density = 1.799438 g / cm^3
# Si number density = 18.035433 Si / 1000 Ang^3
#
#
#
# Elastic Constant Matrix: (Units=GPa)
#
#
# Indices 1 2 3 4 5 6 
#
# 1 93.7087 53.7682 59.1161 1.5151 0.0000 0.0000
# 2 53.7682 93.7087 59.1161 -1.5151 0.0000 0.0000
# 3 59.1161 59.1161 117.6242 0.0000 0.0000 0.0000
# 4 1.5151 -1.5151 0.0000 24.1827 0.0000 0.0000
# 5 0.0000 0.0000 0.0000 0.0000 24.1827 1.5151
# 6 0.0000 0.0000 0.0000 0.0000 1.5151 19.9703
#
#
#
# Elastic Compliance Matrix: (Units=1/GPa)
#
#
# Indices 1 2 3 4 5 6 
#
# 1 0.018257 -0.006900 -0.005708 -0.001576 0.000000 0.000000
# 2 -0.006900 0.018257 -0.005708 0.001576 0.000000 0.000000
# 3 -0.005708 -0.005708 0.014239 0.000000 0.000000 0.000000
# 4 -0.001576 0.001576 0.000000 0.041549 0.000000 0.000000
# 5 0.000000 0.000000 0.000000 0.000000 0.041549 -0.003152
# 6 0.000000 0.000000 0.000000 0.000000 -0.003152 0.050314
#
#
# Mechanical properties :
#
#
# Convention : Reuss Voigt Hill
#
# Bulk Modulus (GPa) = 70.81475 72.11585 71.46530
# Shear Modulus (GPa) = 22.17275 22.53656 22.35466
#
# Velocity S-wave (km/s) = 3.51008 3.53876 3.52445
# Velocity P-wave (km/s) = 7.46840 7.53456 7.50155
#
# Compressibility (1/GPa) = 0.01412135
#
# Stress axis : x y z
#
# Youngs Moduli (GPa) = 54.77457 54.77457 70.23079
#
# Poissons Ratio (x) = 0.37795 0.40085
# Poissons Ratio (y) = 0.37795 0.40085
# Poissons Ratio (z) = 0.31263 0.31263
#
# Static dielectric constant tensor:
#      x y z
#    x 3.359110 0.000000 0.000000 
#    y 0.000000 3.359110 0.000000 
#    z 0.000000 0.000000 3.150250 
# 
# 
# High freq. dielectric constant tensor:
#      x y z
#    x 1.703120 0.000000 0.000000 
#    y 0.000000 1.703120 0.000000 
#    z 0.000000 0.000000 1.669860 
# 
# From -- ./inp_files/2664.got.cif
#   From: 2010.03.12/outbox.cif.g09.slc.cpg/sg164_2_cif.got.tgz:2664.got - 2010.04.02 06:32:59.
