data_PCOD8323381
_publ_section_title
;
Structure prediction by ZEFSAII (Michael W. Deem and Ramdas Pophale) SiO2 
 PCOD8323381
Probable space group: P -3 M 1
;
_chemical_formula_sum "Si O2"
_cell_formula_units_Z 96
_cell_length_a 23.660527
_cell_length_b 23.660527
_cell_length_c 14.643437
_cell_angle_alpha 90.000000
_cell_angle_beta 90.000000
_cell_angle_gamma 120.000000
_cell_volume 7099.413663
_symmetry_space_group_name_H-M "P -3 M 1"
_symmetry_group_IT_number 164
_symmetry_cell_setting 'hexagonal'
loop_
_space_group_symop_operation_xyz
x,y,z
-y,x-y,z
-x+y,-x,z
x-y,-y,-z
-x,-x+y,-z
y,x,-z
-x,-y,-z
y,-x+y,-z
x-y,x,-z
-x+y,y,z
x,x-y,z
-y,-x,z
loop_
_atom_site_type_symbol
_atom_site_label
_atom_site_fract_x
_atom_site_fract_y
_atom_site_fract_z
Si Si1 0.407637 0.267171 0.377198
Si Si2 0.502594 0.876308 0.121942
Si Si3 0.667876 0.202161 0.045156
Si Si4 0.494394 0.859704 0.765909
Si Si5 0.666031 0.203539 0.701344
Si Si6 0.993301 0.560956 0.764286
Si Si7 0.648804 0.002404 0.603991
Si Si8 0.589140 0.857222 0.411966
O O1 0.382629 0.191315 0.349596
O O2 0.470548 0.315418 0.317048
O O3 0.350020 0.286179 0.366817
O O4 0.430093 0.278431 0.481709
O O5 0.447088 0.894176 0.101323
O O6 0.479145 0.817423 0.193635
O O7 0.564208 0.942654 0.163207
O O8 0.517475 0.852077 0.026098
O O9 0.604446 0.208892 0.031917
O O10 0.729512 0.270489 0.020278
O O11 0.674629 0.184158 0.148586
O O12 0.422413 0.844825 0.733937
O O13 0.535809 0.933709 0.802847
O O14 0.598455 0.196910 0.667263
O O15 0.722026 0.277975 0.690773
O O16 0.680225 0.155813 0.640364
O O17 0.971117 0.485559 0.747394
O O18 0.990512 0.587970 0.665739
O O19 0.718699 0.069788 0.612671
O O20 0.625850 0.000000 0.500000
O O21 0.612117 0.806059 0.381767
#
# Coordination Sequence:
#
# PCOD8323381 Si02
#       8
#    12  12  12  12  12  12  12  12
#     4   9  17  29  43  59  78  98 124 160 194 228
#     4   9  17  27  40  54  71  92 117 152 190 228
#     4  10  19  30  42  55  69  91 123 160 200 240
#     4   9  18  29  42  57  74  96 123 158 200 239
#     4  10  18  27  38  53  75 101 127 155 187 226
#     4   9  16  27  39  56  78  96 121 155 192 234
#     4   9  16  26  41  59  78 102 128 153 186 225
#     4   9  17  27  40  58  79 103 128 154 187 226
#
# _framework density 13.522244000000001
#
# number of rings (size 3 to 8) (size 9 to 14) (size 15 to 20)
#    0.000    2.750    1.250    1.000    0.000    1.250 
#    0.000    6.250    0.000    0.250    0.000    0.000 
#    0.000    0.000    0.000    0.375    0.000   12.000 
#
# Total GULP energy -1189309.692527 kJ/mol
# GULP energy per Si atom -12388.642630 kJ/mol
# Density = 1.349147 g / cm^3
# Si number density = 13.522244 Si / 1000 Ang^3
#
#
#
# Elastic Constant Matrix: (Units=GPa)
#
#
# Indices 1 2 3 4 5 6 
#
# 1 68.3840 39.4578 24.3296 -0.2585 0.0000 0.0000
# 2 39.4578 68.3840 24.3296 0.2585 0.0000 0.0000
# 3 24.3296 24.3296 48.0768 0.0000 0.0000 0.0000
# 4 -0.2585 0.2585 0.0000 16.5061 0.0000 0.0000
# 5 0.0000 0.0000 0.0000 0.0000 16.5061 -0.2585
# 6 0.0000 0.0000 0.0000 0.0000 -0.2585 14.4631
#
#
#
# Elastic Compliance Matrix: (Units=1/GPa)
#
#
# Indices 1 2 3 4 5 6 
#
# 1 0.023299 -0.011282 -0.006081 0.000542 0.000000 0.000000
# 2 -0.011282 0.023299 -0.006081 -0.000542 0.000000 0.000000
# 3 -0.006081 -0.006081 0.026955 0.000000 0.000000 0.000000
# 4 0.000542 -0.000542 0.000000 0.060601 0.000000 0.000000
# 5 0.000000 0.000000 0.000000 0.000000 0.060601 0.001083
# 6 0.000000 0.000000 0.000000 0.000000 0.001083 0.069161
#
#
# Mechanical properties :
#
#
# Convention : Reuss Voigt Hill
#
# Bulk Modulus (GPa) = 37.50412 40.11984 38.81198
# Shear Modulus (GPa) = 15.64016 15.94359 15.79188
#
# Velocity S-wave (km/s) = 3.40461 3.43748 3.42108
# Velocity P-wave (km/s) = 6.57651 6.74455 6.66106
#
# Compressibility (1/GPa) = 0.02666374
#
# Stress axis : x y z
#
# Youngs Moduli (GPa) = 42.92114 42.92114 37.09905
#
# Poissons Ratio (x) = 0.48423 0.22560
# Poissons Ratio (y) = 0.48423 0.22560
# Poissons Ratio (z) = 0.26101 0.26101
#
# Static dielectric constant tensor:
#      x y z
#    x 2.726420 0.000000 0.000000 
#    y 0.000000 2.726420 0.000000 
#    z 0.000000 0.000000 2.755050 
# 
# 
# High freq. dielectric constant tensor:
#      x y z
#    x 1.493360 0.000000 0.000000 
#    y 0.000000 1.493360 0.000000 
#    z 0.000000 0.000000 1.519740 
# 
# From -- ./inp_files/3156.got.cif
#   From: 2010.03.12/outbox.cif.g09.slc.cpg/sg164_2_cif.got.tgz:3156.got - 2010.04.02 06:32:59.
