data_PCOD8323688
_publ_section_title
;
Structure prediction by ZEFSAII (Michael W. Deem and Ramdas Pophale) SiO2 
 PCOD8323688
Probable space group: P -3 M 1
;
_chemical_formula_sum "Si O2"
_cell_formula_units_Z 60
_cell_length_a 12.656598
_cell_length_b 12.656598
_cell_length_c 25.321570
_cell_angle_alpha 90.000000
_cell_angle_beta 90.000000
_cell_angle_gamma 120.000000
_cell_volume 3512.814637
_symmetry_space_group_name_H-M "P -3 M 1"
_symmetry_group_IT_number 164
_symmetry_cell_setting 'hexagonal'
loop_
_space_group_symop_operation_xyz
x,y,z
-y,x-y,z
-x+y,-x,z
x-y,-y,-z
-x,-x+y,-z
y,x,-z
-x,-y,-z
y,-x+y,-z
x-y,x,-z
-x+y,y,z
x,x-y,z
-y,-x,z
loop_
_atom_site_type_symbol
_atom_site_label
_atom_site_fract_x
_atom_site_fract_y
_atom_site_fract_z
Si Si1 0.756850 0.000110 0.859368
Si Si2 0.084793 0.664833 0.451308
Si Si3 0.242397 0.999796 0.739257
Si Si4 0.579185 0.913137 0.951503
Si Si5 0.666340 0.087290 0.353467
O O1 0.872735 0.127266 0.875302
O O2 0.716109 0.001950 0.799234
O O3 0.793543 0.896772 0.867244
O O4 0.645722 0.976916 0.897012
O O5 0.122713 0.561357 0.455496
O O6 0.205046 0.794955 0.452354
O O7 0.000000 0.655621 0.500000
O O8 0.012376 0.652377 0.397868
O O9 0.258379 0.129190 0.722771
O O10 0.326138 0.968987 0.702331
O O11 0.100489 0.899512 0.732521
O O12 0.441929 0.883857 0.947352
O O13 0.577569 0.788785 0.961631
O O14 0.650271 0.000000 0.000000
O O15 0.560361 0.120722 0.349981
O O16 0.790679 0.209321 0.367813
#
# Coordination Sequence:
#
# PCOD8323688 Si02
#       5
#    12  12  12  12  12
#     4   9  17  30  49  72  96 122 154 194 239 285
#     4  10  20  34  53  75  99 128 162 200 241 286
#     4   9  17  30  49  72  97 125 157 194 237 284
#     4  10  20  33  49  69  94 125 160 197 238 284
#     4  10  20  33  50  72  99 131 165 201 240 283
#
# _framework density 17.08032
#
# number of rings (size 3 to 8) (size 9 to 14) (size 15 to 20)
#    0.000    2.400    0.000    2.800    0.000    2.400 
#    0.000    2.000    0.000   11.200    0.000    0.000 
#    0.000    0.000    0.000    0.000    0.000    0.000 
#
# Total GULP energy -744132.896411 kJ/mol
# GULP energy per Si atom -12402.214940 kJ/mol
# Density = 1.704144 g / cm^3
# Si number density = 17.080320 Si / 1000 Ang^3
#
#
#
# Elastic Constant Matrix: (Units=GPa)
#
#
# Indices 1 2 3 4 5 6 
#
# 1 106.0198 66.4786 59.9048 1.2191 0.0000 0.0000
# 2 66.4786 106.0198 59.9048 -1.2191 0.0000 0.0000
# 3 59.9048 59.9048 104.9030 0.0000 0.0000 0.0000
# 4 1.2191 -1.2191 0.0000 26.0844 0.0000 0.0000
# 5 0.0000 0.0000 0.0000 0.0000 26.0844 1.2191
# 6 0.0000 0.0000 0.0000 0.0000 1.2191 19.7706
#
#
#
# Elastic Compliance Matrix: (Units=1/GPa)
#
#
# Indices 1 2 3 4 5 6 
#
# 1 0.017485 -0.007878 -0.005487 -0.001185 0.000000 0.000000
# 2 -0.007878 0.017485 -0.005487 0.001185 0.000000 0.000000
# 3 -0.005487 -0.005487 0.015799 0.000000 0.000000 0.000000
# 4 -0.001185 0.001185 0.000000 0.038448 0.000000 0.000000
# 5 0.000000 0.000000 0.000000 0.000000 0.038448 -0.002371
# 6 0.000000 0.000000 0.000000 0.000000 -0.002371 0.050726
#
#
# Mechanical properties :
#
#
# Convention : Reuss Voigt Hill
#
# Bulk Modulus (GPa) = 76.52108 76.61320 76.56714
# Shear Modulus (GPa) = 22.68093 23.09818 22.88956
#
# Velocity S-wave (km/s) = 3.64799 3.68139 3.66473
# Velocity P-wave (km/s) = 7.91465 7.93865 7.92666
#
# Compressibility (1/GPa) = 0.01306829
#
# Stress axis : x y z
#
# Youngs Moduli (GPa) = 57.19025 57.19025 63.29589
#
# Poissons Ratio (x) = 0.45052 0.34728
# Poissons Ratio (y) = 0.45052 0.34728
# Poissons Ratio (z) = 0.31378 0.31378
#
# Static dielectric constant tensor:
#      x y z
#    x 3.119970 0.000000 0.000000 
#    y 0.000000 3.119970 0.000000 
#    z 0.000000 0.000000 3.383020 
# 
# 
# High freq. dielectric constant tensor:
#      x y z
#    x 1.656970 0.000000 0.000000 
#    y 0.000000 1.656970 0.000000 
#    z 0.000000 0.000000 1.672150 
# 
# From -- ./inp_files/5173.got.cif
#   From: 2010.03.12/outbox.cif.g09.slc.cpg/sg164_3_cif.got.tgz:5173.got - 2010.04.02 06:32:59.
