data_PCOD8323765
_publ_section_title
;
Structure prediction by ZEFSAII (Michael W. Deem and Ramdas Pophale) SiO2 
 PCOD8323765
Probable space group: P -3 M 1
;
_chemical_formula_sum "Si O2"
_cell_formula_units_Z 48
_cell_length_a 11.822152
_cell_length_b 11.822152
_cell_length_c 21.306053
_cell_angle_alpha 90.000000
_cell_angle_beta 90.000000
_cell_angle_gamma 120.000000
_cell_volume 2578.853744
_symmetry_space_group_name_H-M "P -3 M 1"
_symmetry_group_IT_number 164
_symmetry_cell_setting 'hexagonal'
loop_
_space_group_symop_operation_xyz
x,y,z
-y,x-y,z
-x+y,-x,z
x-y,-y,-z
-x,-x+y,-z
y,x,-z
-x,-y,-z
y,-x+y,-z
x-y,x,-z
-x+y,y,z
x,x-y,z
-y,-x,z
loop_
_atom_site_type_symbol
_atom_site_label
_atom_site_fract_x
_atom_site_fract_y
_atom_site_fract_z
Si Si1 0.734653 0.735098 0.685966
Si Si2 0.591620 0.923442 0.810235
Si Si3 0.491733 0.508268 0.613047
Si Si4 0.586599 0.173197 0.497604
Si Si5 0.666426 0.069552 0.937047
O O1 0.738457 0.869229 0.665352
O O2 0.708203 0.711211 0.760338
O O3 0.617746 0.608861 0.652365
O O4 0.873234 0.746468 0.669967
O O5 0.473523 0.947046 0.791766
O O6 0.537907 0.768954 0.809022
O O7 0.645614 0.975311 0.879138
O O8 0.529742 0.470259 0.547350
O O9 0.422329 0.577672 0.578912
O O10 0.741671 0.258330 0.511763
O O11 0.551716 0.103431 0.942828
O O12 0.798140 0.201861 0.925651
O O13 0.675581 0.000000 0.000000
#
# Coordination Sequence:
#
# PCOD8323765 Si02
#       5
#    12  12   6   6  12
#     4  11  23  39  59  88 124 167 204 249 302 368
#     4  10  20  36  56  83 115 150 195 248 301 355
#     4  11  20  38  62  90 119 160 204 246 301 352
#     4   9  20  36  58  88 120 151 190 252 294 349
#     4  10  20  34  54  78 107 145 189 241 298 360
#
# _framework density 18.612919999999999
#
# number of rings (size 3 to 8) (size 9 to 14) (size 15 to 20)
#    0.250    1.500    1.250    3.750    0.000    0.000 
#    1.500    2.500    0.000    6.000    0.000    8.750 
#    0.000    0.000    0.000    0.000    0.000    0.000 
#
# Total GULP energy -594756.635090 kJ/mol
# GULP energy per Si atom -12390.763231 kJ/mol
# Density = 1.857056 g / cm^3
# Si number density = 18.612920 Si / 1000 Ang^3
#
#
#
# Elastic Constant Matrix: (Units=GPa)
#
#
# Indices 1 2 3 4 5 6 
#
# 1 97.8410 49.0852 38.5486 -2.9671 0.0000 0.0000
# 2 49.0852 97.8410 38.5486 2.9671 0.0000 0.0000
# 3 38.5486 38.5486 102.9975 0.0000 0.0000 0.0000
# 4 -2.9671 2.9671 0.0000 24.2947 0.0000 0.0000
# 5 0.0000 0.0000 0.0000 0.0000 24.2947 -2.9671
# 6 0.0000 0.0000 0.0000 0.0000 -2.9671 24.3779
#
#
#
# Elastic Compliance Matrix: (Units=1/GPa)
#
#
# Indices 1 2 3 4 5 6 
#
# 1 0.014645 -0.006175 -0.003170 0.002543 0.000000 0.000000
# 2 -0.006175 0.014645 -0.003170 -0.002543 0.000000 0.000000
# 3 -0.003170 -0.003170 0.012082 0.000000 0.000000 0.000000
# 4 0.002543 -0.002543 0.000000 0.041782 0.000000 0.000000
# 5 0.000000 0.000000 0.000000 0.000000 0.041782 0.005085
# 6 0.000000 0.000000 0.000000 0.000000 0.005085 0.041640
#
#
# Mechanical properties :
#
#
# Convention : Reuss Voigt Hill
#
# Bulk Modulus (GPa) = 61.19479 61.22716 61.21097
# Shear Modulus (GPa) = 25.37397 26.09325 25.73361
#
# Velocity S-wave (km/s) = 3.69622 3.74824 3.72232
# Velocity P-wave (km/s) = 7.15297 7.19019 7.17161
#
# Compressibility (1/GPa) = 0.01634126
#
# Stress axis : x y z
#
# Youngs Moduli (GPa) = 68.28426 68.28426 82.76970
#
# Poissons Ratio (x) = 0.42167 0.26237
# Poissons Ratio (y) = 0.42167 0.26237
# Poissons Ratio (z) = 0.21645 0.21645
#
# Static dielectric constant tensor:
#      x y z
#    x 3.341930 0.000000 0.000000 
#    y 0.000000 3.341930 0.000000 
#    z 0.000000 0.000000 3.565390 
# 
# 
# High freq. dielectric constant tensor:
#      x y z
#    x 1.720060 0.000000 0.000000 
#    y 0.000000 1.720060 0.000000 
#    z 0.000000 0.000000 1.735360 
# 
# From -- ./inp_files/4391.got.cif
#   From: 2010.03.12/outbox.cif.g09.slc.cpg/sg164_3_cif.got.tgz:4391.got - 2010.04.02 06:32:59.
