data_PCOD8323961
_publ_section_title
;
Structure prediction by ZEFSAII (Michael W. Deem and Ramdas Pophale) SiO2 
 PCOD8323961
Probable space group: P -3 C 1
;
_chemical_formula_sum "Si O2"
_cell_formula_units_Z 58
_cell_length_a 15.208483
_cell_length_b 15.208483
_cell_length_c 13.449283
_cell_angle_alpha 90.000000
_cell_angle_beta 90.000000
_cell_angle_gamma 120.000000
_cell_volume 2694.024600
_symmetry_space_group_name_H-M "P -3 C 1"
_symmetry_group_IT_number 165
_symmetry_cell_setting 'hexagonal'
loop_
_space_group_symop_operation_xyz
x,y,z
-y,x-y,z
-x+y,-x,z
x-y,-y,1/2-z
-x,-x+y,1/2-z
y,x,1/2-z
-x,-y,-z
y,-x+y,-z
x-y,x,-z
-x+y,y,1/2+z
x,x-y,1/2+z
-y,-x,1/2+z
loop_
_atom_site_type_symbol
_atom_site_label
_atom_site_fract_x
_atom_site_fract_y
_atom_site_fract_z
Si Si1 0.772020 0.914860 0.826092
Si Si2 0.000000 0.000000 0.886175
Si Si3 0.519617 0.662204 0.178431
Si Si4 0.528587 0.670226 0.609108
Si Si5 0.303657 0.000000 0.750000
Si Si6 0.596506 0.672322 0.394678
O O1 0.884296 0.937708 0.852110
O O2 0.709252 0.802953 0.783023
O O3 0.702419 0.921992 0.913326
O O4 0.779693 0.000000 0.750000
O O5 0.000000 0.000000 0.000000
O O6 0.551342 0.767818 0.125626
O O7 0.402441 0.579779 0.159628
O O8 0.539832 0.680615 0.296486
O O9 0.581766 0.618375 0.121962
O O10 0.616010 0.653991 0.659884
O O11 0.526559 0.649035 0.491338
#
# Coordination Sequence:
#
# PCOD8323961 Si02
#       6
#    12   4  12  12   6  12
#     4  12  22  43  64  98 145 190 231 287 349 412
#     4  12  28  35  64 105 151 194 244 289 332 430
#     4  11  25  48  66 104 138 176 228 294 343 421
#     4  12  27  45  75 102 136 184 234 290 356 423
#     4  12  24  42  68 104 136 184 240 286 342 430
#     4  11  25  45  72  97 139 182 227 287 355 415
#
# _framework density 21.529126999999999
#
# number of rings (size 3 to 8) (size 9 to 14) (size 15 to 20)
#    0.000    0.414    6.207    2.276    5.793    1.655 
#    0.000    0.000    0.000    0.000    0.000    0.000 
#    0.000    0.000    0.000    0.000    0.000    0.000 
#
# Total GULP energy -719219.601408 kJ/mol
# GULP energy per Si atom -12400.337955 kJ/mol
# Density = 2.148013 g / cm^3
# Si number density = 21.529127 Si / 1000 Ang^3
#
#
#
# Elastic Constant Matrix: (Units=GPa)
#
#
# Indices 1 2 3 4 5 6 
#
# 1 84.5851 15.2532 44.8791 -1.4260 0.0000 0.0000
# 2 15.2532 84.5851 44.8791 1.4260 0.0000 0.0000
# 3 44.8791 44.8791 151.7829 0.0000 0.0000 0.0000
# 4 -1.4260 1.4260 0.0000 22.3529 0.0000 0.0000
# 5 0.0000 0.0000 0.0000 0.0000 22.3529 -1.4260
# 6 0.0000 0.0000 0.0000 0.0000 -1.4260 34.6659
#
#
#
# Elastic Compliance Matrix: (Units=1/GPa)
#
#
# Indices 1 2 3 4 5 6 
#
# 1 0.014052 -0.000409 -0.004034 0.000923 0.000000 0.000000
# 2 -0.000409 0.014052 -0.004034 -0.000923 0.000000 0.000000
# 3 -0.004034 -0.004034 0.008974 0.000000 0.000000 0.000000
# 4 0.000923 -0.000923 0.000000 0.044855 0.000000 0.000000
# 5 0.000000 0.000000 0.000000 0.000000 0.044855 0.001845
# 6 0.000000 0.000000 0.000000 0.000000 0.001845 0.028923
#
#
# Mechanical properties :
#
#
# Convention : Reuss Voigt Hill
#
# Bulk Modulus (GPa) = 49.69222 58.99730 54.34476
# Shear Modulus (GPa) = 27.87506 30.27047 29.07276
#
# Velocity S-wave (km/s) = 3.60218 3.75377 3.67875
# Velocity P-wave (km/s) = 6.35865 6.80078 6.58343
#
# Compressibility (1/GPa) = 0.02012387
#
# Stress axis : x y z
#
# Youngs Moduli (GPa) = 71.16387 71.16387 111.43506
#
# Poissons Ratio (x) = 0.02912 0.44952
# Poissons Ratio (y) = 0.02912 0.44952
# Poissons Ratio (z) = 0.28707 0.28707
#
# Static dielectric constant tensor:
#      x y z
#    x 3.924650 0.000000 0.000000 
#    y 0.000000 3.924650 0.000000 
#    z 0.000000 0.000000 3.846490 
# 
# 
# High freq. dielectric constant tensor:
#      x y z
#    x 1.856100 0.000000 0.000000 
#    y 0.000000 1.856100 0.000000 
#    z 0.000000 0.000000 1.832530 
# 
# From -- ./inp_files/1708.got.cif
#   From: 2010.03.12/outbox.cif.g09.slc.cpg/sg165_1_cif.got.tgz:1708.got - 2010.04.02 06:36:38.
