data_PCOD8323205
_publ_section_title
;
Structure prediction by ZEFSAII (Michael W. Deem and Ramdas Pophale) SiO2 
 PCOD8323205
Probable space group: P -3 1 C
;
_chemical_formula_sum "Si O2"
_cell_formula_units_Z 72
_cell_length_a 22.660279
_cell_length_b 22.660279
_cell_length_c 9.279856
_cell_angle_alpha 90.000000
_cell_angle_beta 90.000000
_cell_angle_gamma 120.000000
_cell_volume 4126.695023
_symmetry_space_group_name_H-M "P -3 1 C"
_symmetry_group_IT_number 163
_symmetry_cell_setting 'hexagonal'
loop_
_space_group_symop_operation_xyz
x,y,z
-y,x-y,z
-x+y,-x,z
-y,-x,1/2-z
-x+y,y,1/2-z
x,x-y,1/2-z
-x,-y,-z
y,-x+y,-z
x-y,x,-z
y,x,1/2+z
x-y,-y,1/2+z
-x,-x+y,1/2+z
loop_
_atom_site_type_symbol
_atom_site_label
_atom_site_fract_x
_atom_site_fract_y
_atom_site_fract_z
Si Si1 0.761150 0.522300 0.750000
Si Si2 0.199844 0.400274 0.527283
Si Si3 0.383412 0.857680 0.132495
Si Si4 0.387957 0.538738 0.875185
Si Si5 0.510559 0.255280 0.250000
Si Si6 0.929241 0.313115 0.144556
Si Si7 0.682204 0.064383 0.018437
O O1 0.810215 0.570290 0.622649
O O2 0.792830 0.476251 0.801740
O O3 0.257384 0.462604 0.622756
O O4 0.128405 0.361807 0.615254
O O5 0.236969 0.356144 0.496504
O O6 0.445169 0.890337 0.250000
O O7 0.410858 0.829369 0.007695
O O8 0.366407 0.913503 0.066539
O O9 0.443883 0.556118 0.750000
O O10 0.330905 0.554549 0.810559
O O11 0.356865 0.460139 0.920283
O O12 0.947699 0.332301 0.311227
O O13 0.994574 0.326248 0.054036
#
# Coordination Sequence:
#
# PCOD8323205 Si02
#       7
#     6  12  12  12   6  12  12
#     4  10  22  38  58  74  96 142 180 220 292 338
#     4  10  19  40  61  75 109 140 172 217 262 329
#     4  11  23  38  56  75 109 138 175 241 296 334
#     4  11  20  37  56  76 102 135 178 237 285 332
#     4  10  18  36  60  70  88 144 184 216 272 346
#     4  11  23  37  60  86 105 143 182 219 274 342
#     4  11  23  38  59  85 107 141 184 218 276 341
#
# _framework density 17.447375999999998
#
# number of rings (size 3 to 8) (size 9 to 14) (size 15 to 20)
#    0.000    1.333    5.000    3.000    7.000    1.333 
#    1.000    0.000   14.667    0.000    0.000    0.000 
#    0.000    0.000    0.000    0.500    0.000    2.833 
#
# Total GULP energy -892264.406274 kJ/mol
# GULP energy per Si atom -12392.561198 kJ/mol
# Density = 1.740766 g / cm^3
# Si number density = 17.447376 Si / 1000 Ang^3
#
#
#
# Elastic Constant Matrix: (Units=GPa)
#
#
# Indices 1 2 3 4 5 6 
#
# 1 69.7445 55.5558 34.3181 0.0000 -2.6294 0.0000
# 2 55.5558 69.7445 34.3181 0.0000 2.6294 0.0000
# 3 34.3181 34.3181 116.5707 0.0000 0.0000 0.0000
# 4 0.0000 0.0000 0.0000 28.6092 0.0000 2.6294
# 5 -2.6294 2.6294 0.0000 0.0000 28.6092 0.0000
# 6 0.0000 0.0000 0.0000 2.6294 0.0000 7.0943
#
#
#
# Elastic Compliance Matrix: (Units=1/GPa)
#
#
# Indices 1 2 3 4 5 6 
#
# 1 0.041240 -0.031725 -0.002801 0.000000 0.006706 0.000000
# 2 -0.031725 0.041240 -0.002801 0.000000 -0.006706 0.000000
# 3 -0.002801 -0.002801 0.010228 0.000000 0.000000 0.000000
# 4 0.000000 0.000000 0.000000 0.036186 0.000000 -0.013412
# 5 0.006706 -0.006706 0.000000 0.000000 0.036186 0.000000
# 6 0.000000 0.000000 0.000000 -0.013412 0.000000 0.145929
#
#
# Mechanical properties :
#
#
# Convention : Reuss Voigt Hill
#
# Bulk Modulus (GPa) = 55.39141 56.04930 55.72036
# Shear Modulus (GPa) = 12.76549 21.65373 17.20961
#
# Velocity S-wave (km/s) = 2.70785 3.52673 3.14406
# Velocity P-wave (km/s) = 6.44928 6.98414 6.72203
#
# Compressibility (1/GPa) = 0.01805334
#
# Stress axis : x y z
#
# Youngs Moduli (GPa) = 24.24841 24.24841 97.77213
#
# Poissons Ratio (x) = 0.76927 0.27389
# Poissons Ratio (y) = 0.76927 0.27389
# Poissons Ratio (z) = 0.06793 0.06793
#
# Static dielectric constant tensor:
#      x y z
#    x 3.026900 0.000000 0.000000 
#    y 0.000000 3.026900 0.000000 
#    z 0.000000 0.000000 3.720500 
# 
# 
# High freq. dielectric constant tensor:
#      x y z
#    x 1.635090 0.000000 0.000000 
#    y 0.000000 1.635090 0.000000 
#    z 0.000000 0.000000 1.707610 
# 
# From -- ./inp_files/1263.got.cif
#   From: 2010.03.12/outbox.cif.g09.slc.cpg/sg163_1_cif.got.tgz:1263.got - 2010.04.02 06:30:25.
