data_PCOD8323372
_publ_section_title
;
Structure prediction by ZEFSAII (Michael W. Deem and Ramdas Pophale) SiO2 
 PCOD8323372
Probable space group: P -3 M 1
;
_chemical_formula_sum "Si O2"
_cell_formula_units_Z 96
_cell_length_a 20.806396
_cell_length_b 20.806396
_cell_length_c 20.376545
_cell_angle_alpha 90.000000
_cell_angle_beta 90.000000
_cell_angle_gamma 120.000000
_cell_volume 7639.323469
_symmetry_space_group_name_H-M "P -3 M 1"
_symmetry_group_IT_number 164
_symmetry_cell_setting 'hexagonal'
loop_
_space_group_symop_operation_xyz
x,y,z
-y,x-y,z
-x+y,-x,z
x-y,-y,-z
-x,-x+y,-z
y,x,-z
-x,-y,-z
y,-x+y,-z
x-y,x,-z
-x+y,y,z
x,x-y,z
-y,-x,z
loop_
_atom_site_type_symbol
_atom_site_label
_atom_site_fract_x
_atom_site_fract_y
_atom_site_fract_z
Si Si1 0.668140 0.183800 0.320292
Si Si2 0.086821 0.467212 0.798552
Si Si3 0.462680 0.384895 0.582831
Si Si4 0.819538 0.332957 0.701566
Si Si5 0.619694 0.533029 0.437340
Si Si6 0.538658 0.926253 0.034380
Si Si7 0.333670 0.516191 0.921378
Si Si8 0.614836 0.538056 0.819063
O O1 0.593299 0.186598 0.317622
O O2 0.733940 0.266061 0.310873
O O3 0.670696 0.132630 0.262426
O O4 0.676790 0.150708 0.389107
O O5 0.085153 0.542577 0.794831
O O6 0.124992 0.464279 0.866049
O O7 0.003024 0.398729 0.794791
O O8 0.539217 0.460784 0.587903
O O9 0.462630 0.332005 0.640593
O O10 0.394777 0.401673 0.589089
O O11 0.453662 0.347267 0.511101
O O12 0.809533 0.404767 0.699204
O O13 0.739246 0.260755 0.697568
O O14 0.859395 0.330095 0.768981
O O15 0.541217 0.458784 0.437013
O O16 0.470165 0.940330 0.040929
O O17 0.558988 0.910567 0.107177
O O18 0.517652 0.853784 0.991511
O O19 0.605573 0.000000 0.000000
O O20 0.257589 0.515178 0.913485
O O21 0.399563 0.600438 0.914018
O O22 0.538089 0.461912 0.819677
#
# Coordination Sequence:
#
# PCOD8323372 Si02
#       8
#    12  12  12  12  12  12  12  12
#     4  10  18  25  33  48  71  94 112 135 174 222
#     4   9  16  26  39  51  64  87 119 147 170 204
#     4   8  14  26  41  53  64  83 115 151 180 209
#     4  10  19  28  38  53  74  96 117 146 190 238
#     4   8  14  25  40  53  64  83 116 152 178 206
#     4   9  15  26  41  53  65  85 116 149 176 208
#     4  10  18  26  37  54  75  94 111 139 185 234
#     4   9  16  27  42  54  63  84 119 151 175 205
#
# _framework density 12.566558000000001
#
# number of rings (size 3 to 8) (size 9 to 14) (size 15 to 20)
#    0.000    2.875    1.250    2.250    0.000    4.000 
#    0.000    1.250    0.000    3.000    0.000    0.000 
#    0.000    0.000    0.000    0.000    0.000    0.000 
#
# Total GULP energy -1189675.021152 kJ/mol
# GULP energy per Si atom -12392.448137 kJ/mol
# Density = 1.253796 g / cm^3
# Si number density = 12.566558 Si / 1000 Ang^3
#
#
#
# Elastic Constant Matrix: (Units=GPa)
#
#
# Indices 1 2 3 4 5 6 
#
# 1 37.8825 18.7711 26.3354 0.8701 0.0000 0.0000
# 2 18.7711 37.8825 26.3354 -0.8701 0.0000 0.0000
# 3 26.3354 26.3354 103.7712 0.0000 0.0000 0.0000
# 4 0.8701 -0.8701 0.0000 12.6876 0.0000 0.0000
# 5 0.0000 0.0000 0.0000 0.0000 12.6876 0.8701
# 6 0.0000 0.0000 0.0000 0.0000 0.8701 9.5557
#
#
#
# Elastic Compliance Matrix: (Units=1/GPa)
#
#
# Indices 1 2 3 4 5 6 
#
# 1 0.037878 -0.014776 -0.005863 -0.003611 0.000000 0.000000
# 2 -0.014776 0.037878 -0.005863 0.003611 0.000000 0.000000
# 3 -0.005863 -0.005863 0.012612 0.000000 0.000000 0.000000
# 4 -0.003611 0.003611 0.000000 0.079313 0.000000 0.000000
# 5 0.000000 0.000000 0.000000 0.000000 0.079313 -0.007222
# 6 0.000000 0.000000 0.000000 0.000000 -0.007222 0.105307
#
#
# Mechanical properties :
#
#
# Convention : Reuss Voigt Hill
#
# Bulk Modulus (GPa) = 28.27689 35.82444 32.05067
# Shear Modulus (GPa) = 11.98778 14.19245 13.09012
#
# Velocity S-wave (km/s) = 3.09195 3.36427 3.23098
# Velocity P-wave (km/s) = 5.94116 6.60763 6.28324
#
# Compressibility (1/GPa) = 0.03536457
#
# Stress axis : x y z
#
# Youngs Moduli (GPa) = 26.40078 26.40078 79.28722
#
# Poissons Ratio (x) = 0.39009 0.46485
# Poissons Ratio (y) = 0.39009 0.46485
# Poissons Ratio (z) = 0.15478 0.15478
#
# Static dielectric constant tensor:
#      x y z
#    x 2.290010 0.000000 0.000000 
#    y 0.000000 2.290010 0.000000 
#    z 0.000000 0.000000 2.980730 
# 
# 
# High freq. dielectric constant tensor:
#      x y z
#    x 1.434800 0.000000 0.000000 
#    y 0.000000 1.434800 0.000000 
#    z 0.000000 0.000000 1.501970 
# 
# From -- ./inp_files/4329.got.cif
#   From: 2010.03.12/outbox.cif.g09.slc.cpg/sg164_3_cif.got.tgz:4329.got - 2010.04.02 06:32:59.
