data_PCOD8323528
_publ_section_title
;
Structure prediction by ZEFSAII (Michael W. Deem and Ramdas Pophale) SiO2 
 PCOD8323528
Probable space group: P -3 M 1
;
_chemical_formula_sum "Si O2"
_cell_formula_units_Z 72
_cell_length_a 17.153254
_cell_length_b 17.153254
_cell_length_c 17.985415
_cell_angle_alpha 90.000000
_cell_angle_beta 90.000000
_cell_angle_gamma 120.000000
_cell_volume 4582.939584
_symmetry_space_group_name_H-M "P -3 M 1"
_symmetry_group_IT_number 164
_symmetry_cell_setting 'hexagonal'
loop_
_space_group_symop_operation_xyz
x,y,z
-y,x-y,z
-x+y,-x,z
x-y,-y,-z
-x,-x+y,-z
y,x,-z
-x,-y,-z
y,-x+y,-z
x-y,x,-z
-x+y,y,z
x,x-y,z
-y,-x,z
loop_
_atom_site_type_symbol
_atom_site_label
_atom_site_fract_x
_atom_site_fract_y
_atom_site_fract_z
Si Si1 0.821767 0.998947 0.138997
Si Si2 0.846560 0.512175 0.945545
Si Si3 0.938837 0.237750 0.719517
Si Si4 0.631279 0.904688 0.916003
Si Si5 0.000106 0.180024 0.584074
Si Si6 0.023693 0.423305 0.188851
O O1 0.926343 0.073658 0.141827
O O2 0.765797 0.026883 0.083705
O O3 0.812118 0.906059 0.108451
O O4 0.781917 0.987116 0.221514
O O5 0.744357 0.488713 0.940360
O O6 0.848222 0.424111 0.973332
O O7 0.890909 0.543423 0.865234
O O8 0.904999 0.592783 0.002667
O O9 0.831896 0.168105 0.718669
O O10 0.981605 0.243049 0.638818
O O11 0.957123 0.337016 0.739141
O O12 0.609575 0.804788 0.893745
O O13 0.582624 0.933964 0.854481
O O14 0.924026 0.075975 0.594018
O O15 0.000000 0.212535 0.500000
O O16 0.094546 0.189092 0.605337
O O17 0.010836 0.505418 0.215765
#
# Coordination Sequence:
#
# PCOD8323528 Si02
#       6
#    12  12  12  12  12  12
#     4   9  16  26  41  61  86 118 153 184 211 244
#     4  10  19  31  47  65  84 105 134 176 226 275
#     4   9  17  28  42  63  90 116 143 175 213 255
#     4   9  18  30  43  62  86 111 142 181 223 264
#     4   9  16  26  43  69 100 130 155 177 201 233
#     4  10  19  31  47  64  83 109 141 177 217 262
#
# _framework density 15.710440999999999
#
# number of rings (size 3 to 8) (size 9 to 14) (size 15 to 20)
#    0.000    2.667    0.000    2.500    0.000    3.333 
#    0.000    2.500    0.000    1.167    0.000    0.000 
#    0.000   46.667    0.000    0.333    0.000    0.000 
#
# Total GULP energy -892843.069202 kJ/mol
# GULP energy per Si atom -12400.598183 kJ/mol
# Density = 1.567468 g / cm^3
# Si number density = 15.710441 Si / 1000 Ang^3
#
#
#
# Elastic Constant Matrix: (Units=GPa)
#
#
# Indices 1 2 3 4 5 6 
#
# 1 101.7270 52.9504 46.0327 0.5345 0.0000 0.0000
# 2 52.9504 101.7270 46.0327 -0.5345 0.0000 0.0000
# 3 46.0327 46.0327 79.0661 0.0000 0.0000 0.0000
# 4 0.5345 -0.5345 0.0000 20.7299 0.0000 0.0000
# 5 0.0000 0.0000 0.0000 0.0000 20.7299 0.5345
# 6 0.0000 0.0000 0.0000 0.0000 0.5345 24.3883
#
#
#
# Elastic Compliance Matrix: (Units=1/GPa)
#
#
# Indices 1 2 3 4 5 6 
#
# 1 0.015203 -0.005310 -0.005760 -0.000529 0.000000 0.000000
# 2 -0.005310 0.015203 -0.005760 0.000529 0.000000 0.000000
# 3 -0.005760 -0.005760 0.019355 0.000000 0.000000 0.000000
# 4 -0.000529 0.000529 0.000000 0.048267 0.000000 0.000000
# 5 0.000000 0.000000 0.000000 0.000000 0.048267 -0.001058
# 6 0.000000 0.000000 0.000000 0.000000 -0.001058 0.041026
#
#
# Mechanical properties :
#
#
# Convention : Reuss Voigt Hill
#
# Bulk Modulus (GPa) = 62.10594 63.61684 62.86139
# Shear Modulus (GPa) = 22.08984 22.33658 22.21321
#
# Velocity S-wave (km/s) = 3.75382 3.77472 3.76428
# Velocity P-wave (km/s) = 7.64236 7.71876 7.68066
#
# Compressibility (1/GPa) = 0.01610152
#
# Stress axis : x y z
#
# Youngs Moduli (GPa) = 65.77497 65.77497 51.66706
#
# Poissons Ratio (x) = 0.34926 0.29760
# Poissons Ratio (y) = 0.34926 0.29760
# Poissons Ratio (z) = 0.37887 0.37887
#
# Static dielectric constant tensor:
#      x y z
#    x 3.022900 0.000000 0.000000 
#    y 0.000000 3.022900 0.000000 
#    z 0.000000 0.000000 2.851320 
# 
# 
# High freq. dielectric constant tensor:
#      x y z
#    x 1.599510 0.000000 0.000000 
#    y 0.000000 1.599510 0.000000 
#    z 0.000000 0.000000 1.575510 
# 
# From -- ./inp_files/4074.got.cif
#   From: 2010.03.12/outbox.cif.g09.slc.cpg/sg164_3_cif.got.tgz:4074.got - 2010.04.02 06:32:59.
