data_PCOD8323323
_publ_section_title
;
Structure prediction by ZEFSAII (Michael W. Deem and Ramdas Pophale) SiO2 
 PCOD8323323
Probable space group: P -3 1 C
;
_chemical_formula_sum "Si O2"
_cell_formula_units_Z 28
_cell_length_a 12.994578
_cell_length_b 12.994578
_cell_length_c 8.573467
_cell_angle_alpha 90.000000
_cell_angle_beta 90.000000
_cell_angle_gamma 120.000000
_cell_volume 1253.751521
_symmetry_space_group_name_H-M "P -3 1 C"
_symmetry_group_IT_number 163
_symmetry_cell_setting 'hexagonal'
loop_
_space_group_symop_operation_xyz
x,y,z
-y,x-y,z
-x+y,-x,z
-y,-x,1/2-z
-x+y,y,1/2-z
x,x-y,1/2-z
-x,-y,-z
y,-x+y,-z
x-y,x,-z
y,x,1/2+z
x-y,-y,1/2+z
-x,-x+y,1/2+z
loop_
_atom_site_type_symbol
_atom_site_label
_atom_site_fract_x
_atom_site_fract_y
_atom_site_fract_z
Si Si1 0.333335 0.666668 0.435350
Si Si2 0.389202 0.907826 0.094418
Si Si3 0.170596 0.951495 0.093377
O O1 0.333334 0.666667 0.250000
O O2 0.217759 0.670407 0.497496
O O3 0.445534 0.891067 0.250000
O O4 0.288065 0.942109 0.120659
O O5 0.500000 0.000000 0.000000
O O6 0.091068 0.908933 0.250000
O O7 0.089205 0.872852 0.947823
#
# Coordination Sequence:
#
# PCOD8323323 Si02
#       3
#     4  12  12
#     4   9  18  36  58  83 115 159 205 254 322 402
#     4  11  22  40  65  92 127 171 222 280 344 417
#     4  12  25  44  69 101 139 184 235 294 358 429
#
# _framework density 22.332975000000001
#
# number of rings (size 3 to 8) (size 9 to 14) (size 15 to 20)
#    0.000    0.857    0.000   10.714    0.000    0.000 
#    0.000    6.429    0.000    0.000    0.000    0.000 
#    0.000    0.000    0.000    0.000    0.000    0.000 
#
# Total GULP energy -346939.365365 kJ/mol
# GULP energy per Si atom -12390.691620 kJ/mol
# Density = 2.228214 g / cm^3
# Si number density = 22.332975 Si / 1000 Ang^3
#
#
#
# Elastic Constant Matrix: (Units=GPa)
#
#
# Indices 1 2 3 4 5 6 
#
# 1 136.5762 38.3555 27.2087 -0.0002 4.6303 0.0003
# 2 38.3555 136.5777 27.2089 -0.0001 -4.6306 0.0009
# 3 27.2087 27.2089 73.5932 -0.0001 0.0000 0.0002
# 4 -0.0002 -0.0001 -0.0001 34.5256 0.0002 -4.6303
# 5 4.6303 -4.6306 0.0000 0.0002 34.5256 0.0000
# 6 0.0003 0.0009 0.0002 -4.6303 0.0000 49.1110
#
#
#
# Elastic Compliance Matrix: (Units=1/GPa)
#
#
# Indices 1 2 3 4 5 6 
#
# 1 0.008385 -0.001926 -0.002388 0.000000 -0.001383 0.000000
# 2 -0.001926 0.008385 -0.002388 0.000000 0.001383 0.000000
# 3 -0.002388 -0.002388 0.015354 0.000000 0.000000 0.000000
# 4 0.000000 0.000000 0.000000 0.029335 0.000000 0.002766
# 5 -0.001383 0.001383 0.000000 0.000000 0.029335 0.000000
# 6 0.000000 0.000000 0.000000 0.002766 0.000000 0.020623
#
#
# Mechanical properties :
#
#
# Convention : Reuss Voigt Hill
#
# Bulk Modulus (GPa) = 53.41807 59.14370 56.28088
# Shear Modulus (GPa) = 38.14974 40.56404 39.35689
#
# Velocity S-wave (km/s) = 4.13755 4.26647 4.20250
# Velocity P-wave (km/s) = 6.84081 7.12815 6.98595
#
# Compressibility (1/GPa) = 0.01872026
#
# Stress axis : x y z
#
# Youngs Moduli (GPa) = 119.25384 119.25509 65.12911
#
# Poissons Ratio (x) = 0.22969 0.15554
# Poissons Ratio (y) = 0.22969 0.15554
# Poissons Ratio (z) = 0.28480 0.28480
#
# Static dielectric constant tensor:
#      x y z
#    x 5.480020 -0.000380 0.000080 
#    y -0.000380 5.479290 0.000130 
#    z 0.000080 0.000130 3.723100 
# 
# 
# High freq. dielectric constant tensor:
#      x y z
#    x 1.901360 0.000000 0.000000 
#    y 0.000000 1.901360 0.000000 
#    z 0.000000 0.000000 1.852300 
# 
# From -- ./inp_files/619.got.cif
#   From: 2010.03.12/outbox.cif.g09.slc.cpg/sg163_1_cif.got.tgz:619.got - 2010.04.02 06:30:25.
