data_PCOD8323155
_publ_section_title
;
Structure prediction by ZEFSAII (Michael W. Deem and Ramdas Pophale) SiO2 
 PCOD8323155
Probable space group: P -3 1 M 
;
_chemical_formula_sum "Si O2"
_cell_formula_units_Z 48
_cell_length_a 14.328510
_cell_length_b 14.328510
_cell_length_c 14.636219
_cell_angle_alpha 90.000000
_cell_angle_beta 90.000000
_cell_angle_gamma 120.000000
_cell_volume 2602.325355
_symmetry_space_group_name_H-M "P -3 1 M "
_symmetry_group_IT_number 162
_symmetry_cell_setting 'hexagonal'
loop_
_space_group_symop_operation_xyz
x,y,z
-y,x-y,z
-x+y,-x,z
-y,-x,-z
-x+y,y,-z
x,x-y,-z
-x,-y,-z
y,-x+y,-z
x-y,x,-z
y,x,z
x-y,-y,z
-x,-x+y,z
loop_
_atom_site_type_symbol
_atom_site_label
_atom_site_fract_x
_atom_site_fract_y
_atom_site_fract_z
Si Si1 0.213485 0.877937 0.098925
Si Si2 0.728691 0.257688 0.398993
Si Si3 0.571636 0.449574 0.099004
Si Si4 0.877149 0.293504 0.765203
O O1 0.319939 0.874659 0.129180
O O2 0.126039 0.803020 0.174218
O O3 0.235667 0.000000 0.101537
O O4 0.172103 0.827898 0.000000
O O5 0.788802 0.387978 0.388154
O O6 0.762134 0.237867 0.500000
O O7 0.760478 0.197234 0.323708
O O8 0.473192 0.473192 0.087693
O O9 0.528236 0.355158 0.175239
O O10 0.590094 0.409907 0.000000
O O11 0.000000 0.373586 0.734546
#
# Coordination Sequence:
#
# PCOD8323155 Si02
#       4
#    12  12  12  12
#     4  11  21  34  50  72 106 144 176 213 256 303
#     4   8  17  35  55  73 106 139 168 207 259 316
#     4   9  17  30  46  71 104 134 167 206 252 304
#     4  11  20  33  53  79 105 134 176 220 260 306
#
# _framework density 18.445041
#
# number of rings (size 3 to 8) (size 9 to 14) (size 15 to 20)
#    0.500    1.750    2.500    2.250    0.000    0.000 
#    1.500    5.000    0.000    4.500    0.000    0.000 
#    0.000    1.000    0.000    0.000    0.000    0.000 
#
# Total GULP energy -594729.194697 kJ/mol
# GULP energy per Si atom -12390.191556 kJ/mol
# Density = 1.840306 g / cm^3
# Si number density = 18.445041 Si / 1000 Ang^3
#
#
#
# Elastic Constant Matrix: (Units=GPa)
#
#
# Indices 1 2 3 4 5 6 
#
# 1 53.2853 16.0916 32.9001 -0.0001 1.3607 0.0000
# 2 16.0916 53.2853 32.9001 0.0001 -1.3607 0.0000
# 3 32.9001 32.9001 148.2445 0.0000 0.0000 0.0000
# 4 -0.0001 0.0001 0.0000 16.4207 0.0000 -1.3607
# 5 1.3607 -1.3607 0.0000 0.0000 16.4207 -0.0001
# 6 0.0000 0.0000 0.0000 -1.3607 -0.0001 18.5969
#
#
#
# Elastic Compliance Matrix: (Units=1/GPa)
#
#
# Indices 1 2 3 4 5 6 
#
# 1 0.022654 -0.004397 -0.004052 0.000000 -0.002241 0.000000
# 2 -0.004397 0.022654 -0.004052 0.000000 0.002241 0.000000
# 3 -0.004052 -0.004052 0.008544 0.000000 0.000000 0.000000
# 4 0.000000 0.000000 0.000000 0.061270 0.000000 0.004483
# 5 -0.002241 0.002241 0.000000 0.000000 0.061270 0.000000
# 6 0.000000 0.000000 0.000000 0.004483 0.000000 0.054101
#
#
# Mechanical properties :
#
#
# Convention : Reuss Voigt Hill
#
# Bulk Modulus (GPa) = 34.66112 46.51094 40.58603
# Shear Modulus (GPa) = 18.86014 21.81589 20.33801
#
# Velocity S-wave (km/s) = 3.20113 3.44285 3.32419
# Velocity P-wave (km/s) = 5.70047 6.40897 6.06508
#
# Compressibility (1/GPa) = 0.02885077
#
# Stress axis : x y z
#
# Youngs Moduli (GPa) = 44.14311 44.14311 117.04064
#
# Poissons Ratio (x) = 0.19408 0.47422
# Poissons Ratio (y) = 0.19408 0.47422
# Poissons Ratio (z) = 0.17886 0.17886
#
# Static dielectric constant tensor:
#      x y z
#    x 3.157750 0.000000 0.000000 
#    y 0.000000 3.157750 0.000000 
#    z 0.000000 0.000000 3.337330 
# 
# 
# High freq. dielectric constant tensor:
#      x y z
#    x 1.680140 0.000000 0.000000 
#    y 0.000000 1.680140 0.000000 
#    z 0.000000 0.000000 1.712160 
# 
# From -- ./inp_files/2810.got.cif
#   From: 2010.03.12/outbox.cif.g09.slc.cpg/sg162_2_cif.got.tgz:2810.got - 2010.04.02 06:27:41.
