data_PCOD8323849
_publ_section_title
;
Structure prediction by ZEFSAII (Michael W. Deem and Ramdas Pophale) SiO2 
 PCOD8323849
Probable space group: P -3 C 1
;
_chemical_formula_sum "Si O2"
_cell_formula_units_Z 60
_cell_length_a 29.472915
_cell_length_b 29.472915
_cell_length_c 5.224923
_cell_angle_alpha 90.000000
_cell_angle_beta 90.000000
_cell_angle_gamma 120.000000
_cell_volume 3930.580629
_symmetry_space_group_name_H-M "P -3 C 1"
_symmetry_group_IT_number 165
_symmetry_cell_setting 'hexagonal'
loop_
_space_group_symop_operation_xyz
x,y,z
-y,x-y,z
-x+y,-x,z
x-y,-y,1/2-z
-x,-x+y,1/2-z
y,x,1/2-z
-x,-y,-z
y,-x+y,-z
x-y,x,-z
-x+y,y,1/2+z
x,x-y,1/2+z
-y,-x,1/2+z
loop_
_atom_site_type_symbol
_atom_site_label
_atom_site_fract_x
_atom_site_fract_y
_atom_site_fract_z
Si Si1 0.299731 0.177180 0.781558
Si Si2 0.547417 0.488827 0.937173
Si Si3 0.059216 0.408024 0.727877
Si Si4 0.362557 0.299779 0.769753
Si Si5 0.884922 0.823645 0.283188
O O1 0.317947 0.162675 0.519003
O O2 0.324495 0.238824 0.812844
O O3 0.238025 0.154027 0.780373
O O4 0.556006 0.469567 0.215019
O O5 0.500000 0.500000 0.000000
O O6 0.599016 0.537828 0.828521
O O7 0.086255 0.395016 0.492834
O O8 0.000000 0.361750 0.750000
O O9 0.083837 0.405870 0.000662
O O10 0.329141 0.329141 0.750000
O O11 0.850519 0.850519 0.250000
O O12 0.915255 0.841487 0.551666
#
# Coordination Sequence:
#
# PCOD8323849 Si02
#       5
#    12  12  12  12  12
#     4  10  20  34  50  66  84 111 143 177 226 279
#     4  10  17  24  39  54  80 114 152 179 208 244
#     4  10  18  27  39  60  83 113 142 177 222 259
#     4  10  20  30  44  62  88 107 136 182 233 274
#     4  10  20  34  54  74  92 112 138 170 208 269
#
# _framework density 15.264919000000001
#
# number of rings (size 3 to 8) (size 9 to 14) (size 15 to 20)
#    0.000    2.000    2.000    3.600    5.600    0.000 
#    0.000    6.000    0.000    4.000    0.000    0.000 
#    0.000    0.000    0.000    0.000    0.000    0.000 
#
# Total GULP energy -743414.969654 kJ/mol
# GULP energy per Si atom -12390.249494 kJ/mol
# Density = 1.523018 g / cm^3
# Si number density = 15.264919 Si / 1000 Ang^3
#
#
#
# Elastic Constant Matrix: (Units=GPa)
#
#
# Indices 1 2 3 4 5 6 
#
# 1 53.7064 11.9630 36.9918 -2.9803 0.0000 0.0000
# 2 11.9630 53.7064 36.9918 2.9803 0.0000 0.0000
# 3 36.9918 36.9918 158.3874 0.0000 0.0000 0.0000
# 4 -2.9803 2.9803 0.0000 18.8331 0.0000 0.0000
# 5 0.0000 0.0000 0.0000 0.0000 18.8331 -2.9803
# 6 0.0000 0.0000 0.0000 0.0000 -2.9803 20.8717
#
#
#
# Elastic Compliance Matrix: (Units=1/GPa)
#
#
# Indices 1 2 3 4 5 6 
#
# 1 0.022587 -0.001922 -0.004826 0.003879 0.000000 0.000000
# 2 -0.001922 0.022587 -0.004826 -0.003879 0.000000 0.000000
# 3 -0.004826 -0.004826 0.008568 0.000000 0.000000 0.000000
# 4 0.003879 -0.003879 0.000000 0.054326 0.000000 0.000000
# 5 0.000000 0.000000 0.000000 0.000000 0.054326 0.007757
# 6 0.000000 0.000000 0.000000 0.000000 0.007757 0.049019
#
#
# Mechanical properties :
#
#
# Convention : Reuss Voigt Hill
#
# Bulk Modulus (GPa) = 32.68731 48.63260 40.65996
# Shear Modulus (GPa) = 20.42807 23.69784 22.06296
#
# Velocity S-wave (km/s) = 3.66216 3.94437 3.80588
# Velocity P-wave (km/s) = 6.27230 7.25757 6.78285
#
# Compressibility (1/GPa) = 0.03059292
#
# Stress axis : x y z
#
# Youngs Moduli (GPa) = 44.27231 44.27231 116.71218
#
# Poissons Ratio (x) = 0.08510 0.56330
# Poissons Ratio (y) = 0.08510 0.56330
# Poissons Ratio (z) = 0.21368 0.21368
#
# Static dielectric constant tensor:
#      x y z
#    x 2.643490 0.000000 0.000000 
#    y 0.000000 2.643490 0.000000 
#    z 0.000000 0.000000 9.159640 
# 
# 
# High freq. dielectric constant tensor:
#      x y z
#    x 1.545670 0.000000 0.000000 
#    y 0.000000 1.545670 0.000000 
#    z 0.000000 0.000000 1.626200 
# 
# From -- ./inp_files/189.got.cif
#   From: 2010.03.12/outbox.cif.g09.slc.cpg/sg165_1_cif.got.tgz:189.got - 2010.04.02 06:36:38.
