data_PCOD8323535
_publ_section_title
;
Structure prediction by ZEFSAII (Michael W. Deem and Ramdas Pophale) SiO2 
 PCOD8323535
Probable space group: P -3 M 1
;
_chemical_formula_sum "Si O2"
_cell_formula_units_Z 96
_cell_length_a 17.393875
_cell_length_b 17.393875
_cell_length_c 23.677521
_cell_angle_alpha 90.000000
_cell_angle_beta 90.000000
_cell_angle_gamma 120.000000
_cell_volume 6203.825186
_symmetry_space_group_name_H-M "P -3 M 1"
_symmetry_group_IT_number 164
_symmetry_cell_setting 'hexagonal'
loop_
_space_group_symop_operation_xyz
x,y,z
-y,x-y,z
-x+y,-x,z
x-y,-y,-z
-x,-x+y,-z
y,x,-z
-x,-y,-z
y,-x+y,-z
x-y,x,-z
-x+y,y,z
x,x-y,z
-y,-x,z
loop_
_atom_site_type_symbol
_atom_site_label
_atom_site_fract_x
_atom_site_fract_y
_atom_site_fract_z
Si Si1 0.517097 0.666184 0.515975
Si Si2 0.579995 0.978612 0.416113
Si Si3 0.424928 0.397792 0.709422
Si Si4 0.907694 0.641469 0.015438
Si Si5 0.636830 0.906076 0.187755
Si Si6 0.490561 0.332050 0.918082
Si Si7 0.092926 0.735327 0.856201
Si Si8 0.507675 0.840629 0.760788
O O1 0.518304 0.759152 0.523909
O O2 0.415347 0.584654 0.519581
O O3 0.580975 0.656885 0.562421
O O4 0.562126 0.665739 0.456167
O O5 0.493362 0.986723 0.414861
O O6 0.599309 0.955734 0.353467
O O7 0.528526 0.471475 0.716153
O O8 0.403618 0.319568 0.753410
O O9 0.364345 0.442803 0.717726
O O10 0.834412 0.668823 0.003807
O O11 0.910127 0.613849 0.079719
O O12 0.894079 0.562796 0.973752
O O13 0.000000 0.728552 0.000000
O O14 0.669001 0.834501 0.195821
O O15 0.564573 0.876801 0.138999
O O16 0.719705 0.999552 0.167950
O O17 0.524516 0.262258 0.926132
O O18 0.570941 0.429060 0.911207
O O19 0.159610 0.840390 0.849893
O O20 0.127078 0.678461 0.822197
O O21 0.404362 0.808723 0.766474
O O22 0.517546 0.758773 0.738026
#
# Coordination Sequence:
#
# PCOD8323535 Si02
#       8
#    12  12  12  12  12  12  12  12
#     4   9  16  27  44  65  89 119 153 185 214 251
#     4   8  16  29  42  60  90 122 147 178 224 259
#     4   9  17  30  45  62  88 120 149 179 217 260
#     4  10  19  32  48  67  87 112 145 182 225 272
#     4  10  19  31  48  68  86 109 148 186 217 258
#     4  10  20  32  45  64  90 118 147 181 222 262
#     4   9  18  32  46  63  87 114 140 174 226 274
#     4   9  17  28  43  62  86 115 149 184 218 258
#
# _framework density 15.474323
#
# number of rings (size 3 to 8) (size 9 to 14) (size 15 to 20)
#    0.000    2.750    1.250    1.500    0.000    2.250 
#    0.000    0.000    0.000    3.625    0.000    0.000 
#    0.000    0.000    0.000   12.000    0.000    0.000 
#
# Total GULP energy -1189827.475219 kJ/mol
# GULP energy per Si atom -12394.036200 kJ/mol
# Density = 1.543910 g / cm^3
# Si number density = 15.474323 Si / 1000 Ang^3
#
#
#
# Elastic Constant Matrix: (Units=GPa)
#
#
# Indices 1 2 3 4 5 6 
#
# 1 65.8581 31.5710 25.4298 0.6296 0.0000 0.0000
# 2 31.5710 65.8581 25.4298 -0.6296 0.0000 0.0000
# 3 25.4298 25.4298 106.4676 0.0000 0.0000 0.0000
# 4 0.6296 -0.6296 0.0000 15.2687 0.0000 0.0000
# 5 0.0000 0.0000 0.0000 0.0000 15.2687 0.6296
# 6 0.0000 0.0000 0.0000 0.0000 0.6296 17.1436
#
#
#
# Elastic Compliance Matrix: (Units=1/GPa)
#
#
# Indices 1 2 3 4 5 6 
#
# 1 0.020468 -0.008742 -0.002801 -0.001204 0.000000 0.000000
# 2 -0.008742 0.020468 -0.002801 0.001204 0.000000 0.000000
# 3 -0.002801 -0.002801 0.010730 0.000000 0.000000 0.000000
# 4 -0.001204 0.001204 0.000000 0.065593 0.000000 0.000000
# 5 0.000000 0.000000 0.000000 0.000000 0.065593 -0.002409
# 6 0.000000 0.000000 0.000000 0.000000 -0.002409 0.058419
#
#
# Mechanical properties :
#
#
# Convention : Reuss Voigt Hill
#
# Bulk Modulus (GPa) = 43.51737 44.78274 44.15006
# Shear Modulus (GPa) = 18.01040 19.91975 18.96507
#
# Velocity S-wave (km/s) = 3.41528 3.59176 3.50463
# Velocity P-wave (km/s) = 6.61329 6.79734 6.70595
#
# Compressibility (1/GPa) = 0.02297933
#
# Stress axis : x y z
#
# Youngs Moduli (GPa) = 48.85726 48.85726 93.19283
#
# Poissons Ratio (x) = 0.42710 0.26101
# Poissons Ratio (y) = 0.42710 0.26101
# Poissons Ratio (z) = 0.13684 0.13684
#
# Static dielectric constant tensor:
#      x y z
#    x 2.886490 0.000000 0.000000 
#    y 0.000000 2.886490 0.000000 
#    z 0.000000 0.000000 3.364010 
# 
# 
# High freq. dielectric constant tensor:
#      x y z
#    x 1.576680 0.000000 0.000000 
#    y 0.000000 1.576680 0.000000 
#    z 0.000000 0.000000 1.603520 
# 
# From -- ./inp_files/5090.got.cif
#   From: 2010.03.12/outbox.cif.g09.slc.cpg/sg164_3_cif.got.tgz:5090.got - 2010.04.02 06:32:59.
