data_PCOD8323352
_publ_section_title
;
Structure prediction by ZEFSAII (Michael W. Deem and Ramdas Pophale) SiO2 
 PCOD8323352
Probable space group: P -3 1 C
;
_chemical_formula_sum "Si O2"
_cell_formula_units_Z 72
_cell_length_a 21.273640
_cell_length_b 21.273640
_cell_length_c 15.224644
_cell_angle_alpha 90.000000
_cell_angle_beta 90.000000
_cell_angle_gamma 120.000000
_cell_volume 5967.073527
_symmetry_space_group_name_H-M "P -3 1 C"
_symmetry_group_IT_number 163
_symmetry_cell_setting 'hexagonal'
loop_
_space_group_symop_operation_xyz
x,y,z
-y,x-y,z
-x+y,-x,z
-y,-x,1/2-z
-x+y,y,1/2-z
x,x-y,1/2-z
-x,-y,-z
y,-x+y,-z
x-y,x,-z
y,x,1/2+z
x-y,-y,1/2+z
-x,-x+y,1/2+z
loop_
_atom_site_type_symbol
_atom_site_label
_atom_site_fract_x
_atom_site_fract_y
_atom_site_fract_z
Si Si1 0.520667 0.187341 0.100038
Si Si2 0.465854 0.385214 0.750000
Si Si3 0.614786 0.080640 0.250000
Si Si4 0.520667 0.187342 0.600038
Si Si5 0.666675 0.187342 0.100038
Si Si6 0.333325 0.520667 0.100039
O O1 0.464347 0.122918 0.162853
O O2 0.602349 0.204699 0.116687
O O3 0.518661 0.259330 0.123787
O O4 0.496482 0.162627 1.000000
O O5 0.537102 0.462899 0.750000
O O6 0.395482 0.395482 0.750000
O O7 0.464348 0.341430 0.837147
O O8 0.464348 0.341430 0.662853
O O9 0.537102 0.074204 0.250000
O O10 0.658571 0.122919 0.162853
O O11 0.496482 0.162627 0.500000
O O12 0.518660 0.259330 0.623788
O O13 0.602350 0.204699 0.616688
#
# Coordination Sequence:
#
# PCOD8323352 Si02
#       6
#    12  12  12  12  12  12
#     4   9  16  25  37  51  65  81 103 133 167 199
#     4   9  17  26  34  46  64  85 106 126 154 196
#     4   9  17  26  34  46  64  85 106 126 154 196
#     4   9  16  25  37  51  65  81 103 133 167 199
#     4   9  16  25  37  51  65  81 103 133 167 199
#     4   9  16  25  37  51  65  81 103 133 167 199
#
# _framework density 12.066216000000001
#
# number of rings (size 3 to 8) (size 9 to 14) (size 15 to 20)
#    0.000    3.000    0.000    1.667    0.000    4.000 
#    0.000   10.000    0.000    0.000    0.000    0.000 
#    0.000    0.000    0.000    0.000    0.000    0.000 
#
# Total GULP energy -892616.051354 kJ/mol
# GULP energy per Si atom -12397.445158 kJ/mol
# Density = 1.203875 g / cm^3
# Si number density = 12.066216 Si / 1000 Ang^3
#
#
#
# Elastic Constant Matrix: (Units=GPa)
#
#
# Indices 1 2 3 4 5 6 
#
# 1 58.9517 38.0566 48.1028 0.0000 0.0000 0.0000
# 2 38.0566 58.9517 48.1028 0.0000 0.0000 0.0000
# 3 48.1028 48.1028 99.0117 0.0000 0.0000 0.0000
# 4 0.0000 0.0000 0.0000 16.0938 0.0000 0.0000
# 5 0.0000 0.0000 0.0000 0.0000 16.0938 0.0000
# 6 0.0000 0.0000 0.0000 0.0000 0.0000 10.4475
#
#
#
# Elastic Compliance Matrix: (Units=1/GPa)
#
#
# Indices 1 2 3 4 5 6 
#
# 1 0.033876 -0.013983 -0.009665 0.000000 0.000000 0.000000
# 2 -0.013983 0.033876 -0.009665 0.000000 0.000000 0.000000
# 3 -0.009665 -0.009665 0.019491 0.000000 0.000000 0.000000
# 4 0.000000 0.000000 0.000000 0.062136 0.000000 0.000000
# 5 0.000000 0.000000 0.000000 0.000000 0.062136 0.000000
# 6 0.000000 0.000000 0.000000 0.000000 0.000000 0.095716
#
#
# Mechanical properties :
#
#
# Convention : Reuss Voigt Hill
#
# Bulk Modulus (GPa) = 48.50102 53.93775 51.21938
# Shear Modulus (GPa) = 13.13278 14.03719 13.58499
#
# Velocity S-wave (km/s) = 3.30266 3.41449 3.35904
# Velocity P-wave (km/s) = 7.40448 7.76811 7.58847
#
# Compressibility (1/GPa) = 0.02061812
#
# Stress axis : x y z
#
# Youngs Moduli (GPa) = 29.51972 29.51972 51.30687
#
# Poissons Ratio (x) = 0.41276 0.49586
# Poissons Ratio (y) = 0.41276 0.49586
# Poissons Ratio (z) = 0.28530 0.28530
#
# Static dielectric constant tensor:
#      x y z
#    x 2.364810 0.000000 0.000000 
#    y 0.000000 2.364810 0.000000 
#    z 0.000000 0.000000 2.718500 
# 
# 
# High freq. dielectric constant tensor:
#      x y z
#    x 1.420970 0.000000 0.000000 
#    y 0.000000 1.420970 0.000000 
#    z 0.000000 0.000000 1.478710 
# 
# From -- ./inp_files/3211.got.cif
#   From: 2010.03.12/outbox.cif.g09.slc.cpg/sg163_2_cif.got.tgz:3211.got - 2010.04.02 06:30:25.
