data_PCOD8323844
_publ_section_title
;
Structure prediction by ZEFSAII (Michael W. Deem and Ramdas Pophale) SiO2 
 PCOD8323844
Probable space group: P -3 M 1
;
_chemical_formula_sum "Si O2"
_cell_formula_units_Z 36
_cell_length_a 13.455133
_cell_length_b 13.455133
_cell_length_c 15.813545
_cell_angle_alpha 90.000000
_cell_angle_beta 90.000000
_cell_angle_gamma 120.000000
_cell_volume 2479.338706
_symmetry_space_group_name_H-M "P -3 M 1"
_symmetry_group_IT_number 164
_symmetry_cell_setting 'hexagonal'
loop_
_space_group_symop_operation_xyz
x,y,z
-y,x-y,z
-x+y,-x,z
x-y,-y,-z
-x,-x+y,-z
y,x,-z
-x,-y,-z
y,-x+y,-z
x-y,x,-z
-x+y,y,z
x,x-y,z
-y,-x,z
loop_
_atom_site_type_symbol
_atom_site_label
_atom_site_fract_x
_atom_site_fract_y
_atom_site_fract_z
Si Si1 0.514490 0.028980 0.862858
Si Si2 0.406755 0.813510 0.974124
Si Si3 0.661642 0.103373 0.710335
Si Si4 0.229033 0.000343 0.402565
O O1 0.623815 0.051239 0.805197
O O2 0.449207 0.898414 0.894491
O O3 0.558759 0.117517 0.939243
O O4 0.267954 0.732047 0.970200
O O5 0.558667 0.117333 0.669144
O O6 0.773731 0.226270 0.715575
O O7 0.681466 0.016259 0.653704
O O8 0.099134 0.900867 0.385597
O O9 0.262091 0.000000 0.500000
O O10 0.239330 0.119665 0.375821
#
# Coordination Sequence:
#
# PCOD8323844 Si02
#       4
#     6   6  12  12
#     4   9  18  30  45  72  86 120 161 175 238 272
#     4   9  18  30  48  66  92 122 146 194 226 276
#     4   9  18  29  46  68  88 122 153 190 230 274
#     4   9  17  30  47  67  91 120 156 194 232 271
#
# _framework density 14.520001000000001
#
# number of rings (size 3 to 8) (size 9 to 14) (size 15 to 20)
#    1.333    1.667    0.000    1.667    0.000    3.333 
#    0.000    0.000    0.000    0.667    0.000    0.000 
#    0.000    0.000    0.000   41.333    0.000    0.000 
#
# Total GULP energy -446106.617368 kJ/mol
# GULP energy per Si atom -12391.850482 kJ/mol
# Density = 1.448695 g / cm^3
# Si number density = 14.520001 Si / 1000 Ang^3
#
#
#
# Elastic Constant Matrix: (Units=GPa)
#
#
# Indices 1 2 3 4 5 6 
#
# 1 99.7540 63.8630 61.9674 6.9262 0.0000 0.0000
# 2 63.8630 99.7540 61.9674 -6.9262 0.0000 0.0000
# 3 61.9674 61.9674 85.6385 0.0000 0.0000 0.0000
# 4 6.9262 -6.9262 0.0000 24.2076 0.0000 0.0000
# 5 0.0000 0.0000 0.0000 0.0000 24.2076 6.9262
# 6 0.0000 0.0000 0.0000 0.0000 6.9262 17.9455
#
#
#
# Elastic Compliance Matrix: (Units=1/GPa)
#
#
# Indices 1 2 3 4 5 6 
#
# 1 0.022423 -0.008898 -0.009786 -0.008961 0.000000 0.000000
# 2 -0.008898 0.022423 -0.009786 0.008961 0.000000 0.000000
# 3 -0.009786 -0.009786 0.025840 0.000000 0.000000 0.000000
# 4 -0.008961 0.008961 0.000000 0.046437 0.000000 0.000000
# 5 0.000000 0.000000 0.000000 0.000000 0.046437 -0.017923
# 6 0.000000 0.000000 0.000000 0.000000 -0.017923 0.062642
#
#
# Mechanical properties :
#
#
# Convention : Reuss Voigt Hill
#
# Bulk Modulus (GPa) = 72.76117 73.41579 73.08848
# Shear Modulus (GPa) = 17.37771 19.76204 18.56988
#
# Velocity S-wave (km/s) = 3.46325 3.69321 3.58007
# Velocity P-wave (km/s) = 8.13707 8.29807 8.21796
#
# Compressibility (1/GPa) = 0.01374359
#
# Stress axis : x y z
#
# Youngs Moduli (GPa) = 44.59748 44.59748 38.70014
#
# Poissons Ratio (x) = 0.39683 0.37873
# Poissons Ratio (y) = 0.39683 0.37873
# Poissons Ratio (z) = 0.43645 0.43645
#
# Static dielectric constant tensor:
#      x y z
#    x 2.767610 0.000000 0.000000 
#    y 0.000000 2.767610 0.000000 
#    z 0.000000 0.000000 2.774290 
# 
# 
# High freq. dielectric constant tensor:
#      x y z
#    x 1.550510 0.000000 0.000000 
#    y 0.000000 1.550510 0.000000 
#    z 0.000000 0.000000 1.550200 
# 
# From -- ./inp_files/3232.got.cif
#   From: 2010.03.12/outbox.cif.g09.slc.cpg/sg164_2_cif.got.tgz:3232.got - 2010.04.02 06:32:59.
