data_PCOD8323344
_publ_section_title
;
Structure prediction by ZEFSAII (Michael W. Deem and Ramdas Pophale) SiO2 
 PCOD8323344
Probable space group: P -3 1 C
;
_chemical_formula_sum "Si O2"
_cell_formula_units_Z 36
_cell_length_a 8.510910
_cell_length_b 8.510910
_cell_length_c 22.958957
_cell_angle_alpha 90.000000
_cell_angle_beta 90.000000
_cell_angle_gamma 120.000000
_cell_volume 1440.239715
_symmetry_space_group_name_H-M "P -3 1 C"
_symmetry_group_IT_number 163
_symmetry_cell_setting 'hexagonal'
loop_
_space_group_symop_operation_xyz
x,y,z
-y,x-y,z
-x+y,-x,z
-y,-x,1/2-z
-x+y,y,1/2-z
x,x-y,1/2-z
-x,-y,-z
y,-x+y,-z
x-y,x,-z
y,x,1/2+z
x-y,-y,1/2+z
-x,-x+y,1/2+z
loop_
_atom_site_type_symbol
_atom_site_label
_atom_site_fract_x
_atom_site_fract_y
_atom_site_fract_z
Si Si1 0.039517 0.336209 0.803207
Si Si2 0.654396 0.978085 0.346244
Si Si3 0.655668 0.971631 0.476695
O O1 0.174814 0.349628 0.750000
O O2 0.007851 0.506465 0.810931
O O3 0.311374 0.157144 0.804011
O O4 0.839302 0.170821 0.356784
O O5 0.599209 0.893865 0.410706
O O6 0.677881 0.839286 0.520522
O O7 0.500000 0.000000 0.500000
#
# Coordination Sequence:
#
# PCOD8323344 Si02
#       3
#    12  12  12
#     4  12  27  48  77 108 146 196 251 311 375 441
#     4  12  25  48  73 109 151 197 249 309 371 446
#     4  12  25  44  72 109 152 199 246 302 372 449
#
# _framework density 24.995842
#
# number of rings (size 3 to 8) (size 9 to 14) (size 15 to 20)
#    0.000    0.000    0.000   11.000    0.000    0.000 
#    0.000    3.333    0.000    0.000    0.000    0.000 
#    0.000    0.000    0.000    0.000    0.000    0.000 
#
# Total GULP energy -446081.638956 kJ/mol
# GULP energy per Si atom -12391.156638 kJ/mol
# Density = 2.493895 g / cm^3
# Si number density = 24.995842 Si / 1000 Ang^3
#
#
#
# Elastic Constant Matrix: (Units=GPa)
#
#
# Indices 1 2 3 4 5 6 
#
# 1 196.6504 89.9377 34.0575 0.0000 5.4375 0.0000
# 2 89.9377 196.6504 34.0575 0.0000 -5.4375 0.0000
# 3 34.0575 34.0575 182.6306 0.0000 0.0000 0.0000
# 4 0.0000 0.0000 0.0000 37.3528 0.0000 -5.4375
# 5 5.4375 -5.4375 0.0000 0.0000 37.3528 0.0000
# 6 0.0000 0.0000 0.0000 -5.4375 0.0000 53.3563
#
#
#
# Elastic Compliance Matrix: (Units=1/GPa)
#
#
# Indices 1 2 3 4 5 6 
#
# 1 0.006582 -0.002930 -0.000681 0.000000 -0.001385 0.000000
# 2 -0.002930 0.006582 -0.000681 0.000000 0.001385 0.000000
# 3 -0.000681 -0.000681 0.005729 0.000000 0.000000 0.000000
# 4 0.000000 0.000000 0.000000 0.027175 0.000000 0.002769
# 5 -0.001385 0.001385 0.000000 0.000000 0.027175 0.000000
# 6 0.000000 0.000000 0.000000 0.002769 0.000000 0.019024
#
#
# Mechanical properties :
#
#
# Convention : Reuss Voigt Hill
#
# Bulk Modulus (GPa) = 97.00941 99.11519 98.06230
# Shear Modulus (GPa) = 47.94457 53.47099 50.70778
#
# Velocity S-wave (km/s) = 4.38437 4.63016 4.50894
# Velocity P-wave (km/s) = 8.03273 8.26579 8.15009
#
# Compressibility (1/GPa) = 0.01030828
#
# Stress axis : x y z
#
# Youngs Moduli (GPa) = 151.93843 151.93843 174.53598
#
# Poissons Ratio (x) = 0.44525 0.11884
# Poissons Ratio (y) = 0.44525 0.11884
# Poissons Ratio (z) = 0.10345 0.10345
#
# Static dielectric constant tensor:
#      x y z
#    x 4.482210 0.000000 0.000000 
#    y 0.000000 4.482210 0.000000 
#    z 0.000000 0.000000 4.967470 
# 
# 
# High freq. dielectric constant tensor:
#      x y z
#    x 2.009350 0.000000 0.000000 
#    y 0.000000 2.009350 0.000000 
#    z 0.000000 0.000000 2.019090 
# 
# From -- ./inp_files/4222.got.cif
#   From: 2010.03.12/outbox.cif.g09.slc.cpg/sg163_3_cif.got.tgz:4222.got - 2010.04.02 06:30:25.
