data_PCOD8323590
_publ_section_title
;
Structure prediction by ZEFSAII (Michael W. Deem and Ramdas Pophale) SiO2 
 PCOD8323590
Probable space group: P -3 M 1
;
_chemical_formula_sum "Si O2"
_cell_formula_units_Z 84
_cell_length_a 18.637581
_cell_length_b 18.637581
_cell_length_c 14.291168
_cell_angle_alpha 90.000000
_cell_angle_beta 90.000000
_cell_angle_gamma 120.000000
_cell_volume 4299.098980
_symmetry_space_group_name_H-M "P -3 M 1"
_symmetry_group_IT_number 164
_symmetry_cell_setting 'hexagonal'
loop_
_space_group_symop_operation_xyz
x,y,z
-y,x-y,z
-x+y,-x,z
x-y,-y,-z
-x,-x+y,-z
y,x,-z
-x,-y,-z
y,-x+y,-z
x-y,x,-z
-x+y,y,z
x,x-y,z
-y,-x,z
loop_
_atom_site_type_symbol
_atom_site_label
_atom_site_fract_x
_atom_site_fract_y
_atom_site_fract_z
Si Si1 0.667132 0.750159 0.271983
Si Si2 0.665108 0.165873 0.042249
Si Si3 0.165159 0.501583 0.366460
Si Si4 0.505851 0.335091 0.248158
Si Si5 0.248563 0.917982 0.054770
Si Si6 0.793110 0.746383 0.412242
Si Si7 0.698118 0.138850 0.437297
O O1 0.672755 0.836378 0.294390
O O2 0.577387 0.677407 0.305933
O O3 0.677875 0.738070 0.163506
O O4 0.744188 0.752757 0.324291
O O5 0.581545 0.163090 0.006391
O O6 0.738602 0.261399 0.042857
O O7 0.651081 0.126228 0.147225
O O8 0.685773 0.110229 0.974791
O O9 0.256661 0.513321 0.360484
O O10 0.167968 0.583984 0.326872
O O11 0.130315 0.487805 0.472962
O O12 0.481709 0.240855 0.251832
O O13 0.604477 0.395524 0.255586
O O14 0.462245 0.351982 0.337916
O O15 0.155242 0.844759 0.032712
O O16 0.264725 0.000000 0.000000
O O17 0.806853 0.806853 0.500000
O O18 0.882429 0.764858 0.374730
O O19 0.742242 0.655992 0.458642
O O20 0.764288 0.235713 0.427760
#
# Coordination Sequence:
#
# PCOD8323590 Si02
#       7
#    12  12  12  12  12  12  12
#     4  10  22  41  60  84 119 152 183 231 293 344
#     4   9  18  33  54  81 115 157 202 248 293 336
#     4  10  19  34  55  81 116 160 208 247 281 325
#     4   9  16  27  45  72 108 149 195 244 290 329
#     4  10  23  41  63  87 114 146 187 239 291 347
#     4  11  21  37  63  89 112 148 188 223 275 345
#     4   9  18  30  48  77 113 150 190 234 281 332
#
# _framework density 19.538978
#
# number of rings (size 3 to 8) (size 9 to 14) (size 15 to 20)
#    0.000    2.286    1.429    1.286    2.000    2.571 
#    0.000    3.571    0.000    4.429    0.000    0.000 
#    0.000    0.000    0.000    0.429    0.000    0.000 
#
# Total GULP energy -1041118.598467 kJ/mol
# GULP energy per Si atom -12394.269029 kJ/mol
# Density = 1.949451 g / cm^3
# Si number density = 19.538978 Si / 1000 Ang^3
#
#
#
# Elastic Constant Matrix: (Units=GPa)
#
#
# Indices 1 2 3 4 5 6 
#
# 1 92.4148 44.1404 58.5817 -1.1784 0.0000 0.0000
# 2 44.1404 92.4148 58.5817 1.1784 0.0000 0.0000
# 3 58.5817 58.5817 119.6639 0.0000 0.0000 0.0000
# 4 -1.1784 1.1784 0.0000 26.5345 0.0000 0.0000
# 5 0.0000 0.0000 0.0000 0.0000 26.5345 -1.1784
# 6 0.0000 0.0000 0.0000 0.0000 -1.1784 24.1372
#
#
#
# Elastic Compliance Matrix: (Units=1/GPa)
#
#
# Indices 1 2 3 4 5 6 
#
# 1 0.016693 -0.004067 -0.006181 0.000922 0.000000 0.000000
# 2 -0.004067 0.016693 -0.006181 -0.000922 0.000000 0.000000
# 3 -0.006181 -0.006181 0.014409 0.000000 0.000000 0.000000
# 4 0.000922 -0.000922 0.000000 0.037769 0.000000 0.000000
# 5 0.000000 0.000000 0.000000 0.000000 0.037769 0.001844
# 6 0.000000 0.000000 0.000000 0.000000 0.001844 0.041520
#
#
# Mechanical properties :
#
#
# Convention : Reuss Voigt Hill
#
# Bulk Modulus (GPa) = 66.94934 69.67789 68.31362
# Shear Modulus (GPa) = 24.66815 24.98721 24.82768
#
# Velocity S-wave (km/s) = 3.55704 3.57997 3.56852
# Velocity P-wave (km/s) = 7.15604 7.26819 7.21233
#
# Compressibility (1/GPa) = 0.01493667
#
# Stress axis : x y z
#
# Youngs Moduli (GPa) = 59.90435 59.90435 69.40129
#
# Poissons Ratio (x) = 0.24361 0.42900
# Poissons Ratio (y) = 0.24361 0.42900
# Poissons Ratio (z) = 0.37029 0.37029
#
# Static dielectric constant tensor:
#      x y z
#    x 3.413560 0.000000 0.000000 
#    y 0.000000 3.413560 0.000000 
#    z 0.000000 0.000000 3.768640 
# 
# 
# High freq. dielectric constant tensor:
#      x y z
#    x 1.741500 0.000000 0.000000 
#    y 0.000000 1.741500 0.000000 
#    z 0.000000 0.000000 1.770270 
# 
# From -- ./inp_files/3594.got.cif
#   From: 2010.03.12/outbox.cif.g09.slc.cpg/sg164_2_cif.got.tgz:3594.got - 2010.04.02 06:32:59.
