data_PCOD8323015
_publ_section_title
;
Structure prediction by ZEFSAII (Michael W. Deem and Ramdas Pophale) SiO2 
 PCOD8323015
Probable space group: P -3 1 M 
;
_chemical_formula_sum "Si O2"
_cell_formula_units_Z 84
_cell_length_a 14.262490
_cell_length_b 14.262490
_cell_length_c 22.839066
_cell_angle_alpha 90.000000
_cell_angle_beta 90.000000
_cell_angle_gamma 120.000000
_cell_volume 4023.459898
_symmetry_space_group_name_H-M "P -3 1 M "
_symmetry_group_IT_number 162
_symmetry_cell_setting 'hexagonal'
loop_
_space_group_symop_operation_xyz
x,y,z
-y,x-y,z
-x+y,-x,z
-y,-x,-z
-x+y,y,-z
x,x-y,-z
-x,-y,-z
y,-x+y,-z
x-y,x,-z
y,x,z
x-y,-y,z
-x,-x+y,z
loop_
_atom_site_type_symbol
_atom_site_label
_atom_site_fract_x
_atom_site_fract_y
_atom_site_fract_z
Si Si1 0.746206 0.873201 0.568068
Si Si2 0.559702 0.435989 0.134848
Si Si3 0.660121 0.781287 0.254549
Si Si4 0.121704 0.247905 0.134014
Si Si5 0.282473 0.402376 0.344122
Si Si6 0.551872 0.780978 0.067673
Si Si7 0.434032 0.874871 0.265003
O O1 0.717383 0.858692 0.500000
O O2 0.826998 0.826998 0.583402
O O3 0.629231 0.803064 0.601811
O O4 0.804767 0.000000 0.586092
O O5 0.534355 0.534355 0.139688
O O6 0.672545 0.477231 0.102929
O O7 0.469193 0.342174 0.094698
O O8 0.562022 0.391711 0.200239
O O9 0.751695 0.751695 0.271541
O O10 0.667740 0.807837 0.186048
O O11 0.676314 0.883895 0.291355
O O12 0.542164 0.684569 0.274554
O O13 0.200786 0.200786 0.142570
O O14 0.146485 0.319673 0.075456
O O15 0.000000 0.148440 0.131547
O O16 0.368998 0.368998 0.364820
O O17 0.349151 0.526710 0.317416
O O18 0.520884 0.760442 0.000000
O O19 0.524689 0.000000 0.265721
#
# Coordination Sequence:
#
# PCOD8323015 Si02
#       7
#    12  12  12  12  12  12  12
#     4   9  17  30  51  83 125 171 214 253 292 340
#     4  11  23  42  62  83 114 148 187 243 304 363
#     4  10  19  35  56  79 111 145 186 239 295 353
#     4  11  23  40  60  84 116 156 198 241 294 361
#     4  10  19  32  53  83 115 149 194 241 292 351
#     4  12  25  40  61  87 113 147 194 245 302 366
#     4   9  19  35  54  78 108 142 182 234 292 352
#
# _framework density 20.877554
#
# number of rings (size 3 to 8) (size 9 to 14) (size 15 to 20)
#    0.000    1.714    1.429    3.571    0.000    4.571 
#    0.857    0.000    0.000    6.286    0.000    5.000 
#    0.000    0.000    0.000    0.000    0.000    0.429 
#
# Total GULP energy -1040686.688916 kJ/mol
# GULP energy per Si atom -12389.127249 kJ/mol
# Density = 2.083004 g / cm^3
# Si number density = 20.877554 Si / 1000 Ang^3
#
#
#
# Elastic Constant Matrix: (Units=GPa)
#
#
# Indices 1 2 3 4 5 6 
#
# 1 79.1675 26.9623 37.2437 0.0000 6.3104 0.0000
# 2 26.9623 79.1675 37.2437 0.0000 -6.3104 0.0000
# 3 37.2437 37.2437 107.1334 0.0000 0.0000 0.0000
# 4 0.0000 0.0000 0.0000 29.9264 0.0000 -6.3104
# 5 6.3104 -6.3104 0.0000 0.0000 29.9264 0.0000
# 6 0.0000 0.0000 0.0000 -6.3104 0.0000 26.1026
#
#
#
# Elastic Compliance Matrix: (Units=1/GPa)
#
#
# Indices 1 2 3 4 5 6 
#
# 1 0.016324 -0.003860 -0.004333 0.000000 -0.004256 0.000000
# 2 -0.003860 0.016324 -0.004333 0.000000 0.004256 0.000000
# 3 -0.004333 -0.004333 0.012347 0.000000 0.000000 0.000000
# 4 0.000000 0.000000 0.000000 0.035210 0.000000 0.008512
# 5 -0.004256 0.004256 0.000000 0.000000 0.035210 0.000000
# 6 0.000000 0.000000 0.000000 0.008512 0.000000 0.040368
#
#
# Mechanical properties :
#
#
# Convention : Reuss Voigt Hill
#
# Bulk Modulus (GPa) = 50.14451 52.04087 51.09269
# Shear Modulus (GPa) = 26.66925 28.12568 27.39746
#
# Velocity S-wave (km/s) = 3.57797 3.67437 3.62649
# Velocity P-wave (km/s) = 6.41402 6.55608 6.48544
#
# Compressibility (1/GPa) = 0.01994236
#
# Stress axis : x y z
#
# Youngs Moduli (GPa) = 61.26051 61.26051 80.99386
#
# Poissons Ratio (x) = 0.23649 0.35093
# Poissons Ratio (y) = 0.23649 0.35093
# Poissons Ratio (z) = 0.26543 0.26543
#
# Static dielectric constant tensor:
#      x y z
#    x 3.738440 0.000000 0.000000 
#    y 0.000000 3.738440 0.000000 
#    z 0.000000 0.000000 3.753610 
# 
# 
# High freq. dielectric constant tensor:
#      x y z
#    x 1.811170 0.000000 0.000000 
#    y 0.000000 1.811170 0.000000 
#    z 0.000000 0.000000 1.799560 
# 
# From -- ./inp_files/3977.got.cif
#   From: 2010.03.12/outbox.cif.g09.slc.cpg/sg162_2_cif.got.tgz:3977.got - 2010.04.02 06:27:41.
