data_PCOD8323667
_publ_section_title
;
Structure prediction by ZEFSAII (Michael W. Deem and Ramdas Pophale) SiO2 
 PCOD8323667
Probable space group: P -3 M 1
;
_chemical_formula_sum "Si O2"
_cell_formula_units_Z 60
_cell_length_a 12.469007
_cell_length_b 12.469007
_cell_length_c 26.249369
_cell_angle_alpha 90.000000
_cell_angle_beta 90.000000
_cell_angle_gamma 120.000000
_cell_volume 3534.379969
_symmetry_space_group_name_H-M "P -3 M 1"
_symmetry_group_IT_number 164
_symmetry_cell_setting 'hexagonal'
loop_
_space_group_symop_operation_xyz
x,y,z
-y,x-y,z
-x+y,-x,z
x-y,-y,-z
-x,-x+y,-z
y,x,-z
-x,-y,-z
y,-x+y,-z
x-y,x,-z
-x+y,y,z
x,x-y,z
-y,-x,z
loop_
_atom_site_type_symbol
_atom_site_label
_atom_site_fract_x
_atom_site_fract_y
_atom_site_fract_z
Si Si1 0.248134 0.998973 0.446291
Si Si2 0.332616 0.416268 0.241686
Si Si3 0.081524 0.667052 0.048088
Si Si4 0.750562 0.001573 0.855062
Si Si5 0.749041 0.001849 0.663983
O O1 0.249248 0.124624 0.438709
O O2 0.300932 0.982207 0.392142
O O3 0.318170 0.000000 0.500000
O O4 0.107452 0.892549 0.453487
O O5 0.227068 0.454135 0.241677
O O6 0.462404 0.537597 0.232480
O O7 0.310158 0.319692 0.197338
O O8 0.336428 0.354502 0.294948
O O9 0.096542 0.548271 0.052236
O O10 0.216189 0.783812 0.041550
O O11 0.014634 0.674562 0.098726
O O12 0.000000 0.661287 0.000000
O O13 0.739741 0.869871 0.858629
O O14 0.894098 0.105903 0.857831
O O15 0.739250 0.869625 0.671501
O O16 0.892374 0.107626 0.671452
#
# Coordination Sequence:
#
# PCOD8323667 Si02
#       5
#    12  12  12  12  12
#     4   8  12  18  31  55  87 118 144 172 213 268
#     4  10  20  33  49  67  89 119 155 194 232 272
#     4  10  20  34  53  76 103 135 169 203 236 272
#     4  10  20  34  53  76 100 124 151 188 236 286
#     4   9  16  26  43  67  93 119 146 181 227 277
#
# _framework density 16.976103999999999
#
# number of rings (size 3 to 8) (size 9 to 14) (size 15 to 20)
#    0.000    2.600    0.000    2.800    0.000    2.400 
#    0.000    4.000    0.000   12.200    0.000    0.000 
#    0.000    0.000    0.000    0.000    0.000    0.000 
#
# Total GULP energy -743421.597480 kJ/mol
# GULP energy per Si atom -12390.359958 kJ/mol
# Density = 1.693747 g / cm^3
# Si number density = 16.976104 Si / 1000 Ang^3
#
#
#
# Elastic Constant Matrix: (Units=GPa)
#
#
# Indices 1 2 3 4 5 6 
#
# 1 56.4996 31.0209 35.9782 2.8366 0.0000 0.0000
# 2 31.0209 56.4996 35.9782 -2.8366 0.0000 0.0000
# 3 35.9782 35.9782 150.0714 0.0000 0.0000 0.0000
# 4 2.8366 -2.8366 0.0000 16.4736 0.0000 0.0000
# 5 0.0000 0.0000 0.0000 0.0000 16.4736 2.8366
# 6 0.0000 0.0000 0.0000 0.0000 2.8366 12.7394
#
#
#
# Elastic Compliance Matrix: (Units=1/GPa)
#
#
# Indices 1 2 3 4 5 6 
#
# 1 0.027522 -0.013291 -0.003412 -0.007028 0.000000 0.000000
# 2 -0.013291 0.027522 -0.003412 0.007028 0.000000 0.000000
# 3 -0.003412 -0.003412 0.008299 0.000000 0.000000 0.000000
# 4 -0.007028 0.007028 0.000000 0.063124 0.000000 0.000000
# 5 0.000000 0.000000 0.000000 0.000000 0.063124 -0.014056
# 6 0.000000 0.000000 0.000000 0.000000 -0.014056 0.081627
#
#
# Mechanical properties :
#
#
# Convention : Reuss Voigt Hill
#
# Bulk Modulus (GPa) = 43.26337 52.11394 47.68865
# Shear Modulus (GPa) = 15.66654 19.81018 17.73836
#
# Velocity S-wave (km/s) = 3.04115 3.41976 3.23600
# Velocity P-wave (km/s) = 6.15400 6.80868 6.48960
#
# Compressibility (1/GPa) = 0.02311424
#
# Stress axis : x y z
#
# Youngs Moduli (GPa) = 36.33442 36.33442 120.49130
#
# Poissons Ratio (x) = 0.48293 0.41108
# Poissons Ratio (y) = 0.48293 0.41108
# Poissons Ratio (z) = 0.12396 0.12396
#
# Static dielectric constant tensor:
#      x y z
#    x 2.902530 0.000000 0.000000 
#    y 0.000000 2.902530 0.000000 
#    z 0.000000 0.000000 3.809910 
# 
# 
# High freq. dielectric constant tensor:
#      x y z
#    x 1.628780 0.000000 0.000000 
#    y 0.000000 1.628780 0.000000 
#    z 0.000000 0.000000 1.689890 
# 
# From -- ./inp_files/5163.got.cif
#   From: 2010.03.12/outbox.cif.g09.slc.cpg/sg164_3_cif.got.tgz:5163.got - 2010.04.02 06:32:59.
