data_PCOD8323798
_publ_section_title
;
Structure prediction by ZEFSAII (Michael W. Deem and Ramdas Pophale) SiO2 
 PCOD8323798
Probable space group: P -3 M 1
;
_chemical_formula_sum "Si O2"
_cell_formula_units_Z 84
_cell_length_a 17.170218
_cell_length_b 17.170218
_cell_length_c 16.095820
_cell_angle_alpha 90.000000
_cell_angle_beta 90.000000
_cell_angle_gamma 120.000000
_cell_volume 4109.560295
_symmetry_space_group_name_H-M "P -3 M 1"
_symmetry_group_IT_number 164
_symmetry_cell_setting 'hexagonal'
loop_
_space_group_symop_operation_xyz
x,y,z
-y,x-y,z
-x+y,-x,z
x-y,-y,-z
-x,-x+y,-z
y,x,-z
-x,-y,-z
y,-x+y,-z
x-y,x,-z
-x+y,y,z
x,x-y,z
-y,-x,z
loop_
_atom_site_type_symbol
_atom_site_label
_atom_site_fract_x
_atom_site_fract_y
_atom_site_fract_z
Si Si1 0.181645 0.182315 0.588439
Si Si2 0.667525 0.155102 0.462466
Si Si3 0.154510 0.667764 0.839728
Si Si4 0.512191 0.667549 0.344672
Si Si5 0.936185 0.241704 0.078078
Si Si6 0.573655 0.963004 0.683495
Si Si7 0.184411 0.183590 0.231177
O O1 0.230979 0.230979 0.500000
O O2 0.179516 0.089758 0.598314
O O3 0.223174 0.232435 0.677234
O O4 0.080129 0.160257 0.580707
O O5 0.586685 0.173370 0.442611
O O6 0.757145 0.242856 0.434698
O O7 0.669577 0.133731 0.558558
O O8 0.660138 0.074167 0.405290
O O9 0.142597 0.571299 0.861362
O O10 0.259740 0.740261 0.830992
O O11 0.108692 0.695633 0.912121
O O12 0.105485 0.668890 0.755260
O O13 0.522780 0.761390 0.314153
O O14 0.410245 0.589756 0.326050
O O15 0.587885 0.653368 0.298471
O O16 0.860407 0.139594 0.060432
O O17 0.990764 0.245673 0.161188
O O18 0.000000 0.277006 0.000000
O O19 0.485676 0.971352 0.676687
O O20 0.093151 0.186302 0.219287
O O21 0.161191 0.080596 0.222933
#
# Coordination Sequence:
#
# PCOD8323798 Si02
#       7
#    12  12  12  12  12  12  12
#     4   8  12  18  32  58  94 137 184 231 274 313
#     4   9  15  23  39  65  99 139 182 229 281 338
#     4  10  21  38  61  86 109 133 164 207 263 328
#     4   9  16  26  41  64  98 143 192 235 274 322
#     4  10  21  37  57  82 112 146 183 223 268 317
#     4   9  17  29  46  71 102 134 172 222 279 332
#     4   9  16  27  46  74 110 151 193 234 273 315
#
# _framework density 20.440142999999999
#
# number of rings (size 3 to 8) (size 9 to 14) (size 15 to 20)
#    0.000    2.857    0.000    2.000    0.000    4.857 
#    0.000    2.857    0.000    4.000    0.000    4.000 
#    0.000    5.714    0.000    3.429    0.000   27.429 
#
# Total GULP energy -1040785.380981 kJ/mol
# GULP energy per Si atom -12390.302155 kJ/mol
# Density = 2.039362 g / cm^3
# Si number density = 20.440143 Si / 1000 Ang^3
#
#
#
# Elastic Constant Matrix: (Units=GPa)
#
#
# Indices 1 2 3 4 5 6 
#
# 1 74.5729 33.0908 45.1760 2.1042 0.0000 0.0000
# 2 33.0908 74.5729 45.1760 -2.1042 0.0000 0.0000
# 3 45.1760 45.1760 117.9024 0.0000 0.0000 0.0000
# 4 2.1042 -2.1042 0.0000 22.6522 0.0000 0.0000
# 5 0.0000 0.0000 0.0000 0.0000 22.6522 2.1042
# 6 0.0000 0.0000 0.0000 0.0000 2.1042 20.7411
#
#
#
# Elastic Compliance Matrix: (Units=1/GPa)
#
#
# Indices 1 2 3 4 5 6 
#
# 1 0.019013 -0.005323 -0.005246 -0.002261 0.000000 0.000000
# 2 -0.005323 0.019013 -0.005246 0.002261 0.000000 0.000000
# 3 -0.005246 -0.005246 0.012501 0.000000 0.000000 0.000000
# 4 -0.002261 0.002261 0.000000 0.044566 0.000000 0.000000
# 5 0.000000 0.000000 0.000000 0.000000 0.044566 -0.004521
# 6 0.000000 0.000000 0.000000 0.000000 -0.004521 0.048672
#
#
# Mechanical properties :
#
#
# Convention : Reuss Voigt Hill
#
# Bulk Modulus (GPa) = 52.91123 57.10378 55.00750
# Shear Modulus (GPa) = 22.09847 22.78278 22.44062
#
# Velocity S-wave (km/s) = 3.29162 3.34220 3.31701
# Velocity P-wave (km/s) = 6.35520 6.54916 6.45290
#
# Compressibility (1/GPa) = 0.01889958
#
# Stress axis : x y z
#
# Youngs Moduli (GPa) = 52.59495 52.59495 79.99042
#
# Poissons Ratio (x) = 0.27996 0.41960
# Poissons Ratio (y) = 0.27996 0.41960
# Poissons Ratio (z) = 0.27590 0.27590
#
# Static dielectric constant tensor:
#      x y z
#    x 3.670440 0.000000 0.000000 
#    y 0.000000 3.670440 0.000000 
#    z 0.000000 0.000000 3.673210 
# 
# 
# High freq. dielectric constant tensor:
#      x y z
#    x 1.797850 0.000000 0.000000 
#    y 0.000000 1.797850 0.000000 
#    z 0.000000 0.000000 1.772250 
# 
# From -- ./inp_files/3620.got.cif
#   From: 2010.03.12/outbox.cif.g09.slc.cpg/sg164_2_cif.got.tgz:3620.got - 2010.04.02 06:32:59.
