data_PCOD8323439
_publ_section_title
;
Structure prediction by ZEFSAII (Michael W. Deem and Ramdas Pophale) SiO2 
 PCOD8323439
Probable space group: P -3 M 1
;
_chemical_formula_sum "Si O2"
_cell_formula_units_Z 78
_cell_length_a 17.238545
_cell_length_b 17.238545
_cell_length_c 17.840172
_cell_angle_alpha 90.000000
_cell_angle_beta 90.000000
_cell_angle_gamma 120.000000
_cell_volume 4591.249379
_symmetry_space_group_name_H-M "P -3 M 1"
_symmetry_group_IT_number 164
_symmetry_cell_setting 'hexagonal'
loop_
_space_group_symop_operation_xyz
x,y,z
-y,x-y,z
-x+y,-x,z
x-y,-y,-z
-x,-x+y,-z
y,x,-z
-x,-y,-z
y,-x+y,-z
x-y,x,-z
-x+y,y,z
x,x-y,z
-y,-x,z
loop_
_atom_site_type_symbol
_atom_site_label
_atom_site_fract_x
_atom_site_fract_y
_atom_site_fract_z
Si Si1 0.295501 0.058710 0.647314
Si Si2 0.241004 0.306894 0.785340
Si Si3 0.485527 0.152441 0.706878
Si Si4 0.331002 0.494525 0.837853
Si Si5 0.379504 0.274997 0.851591
Si Si6 0.183742 0.000000 0.500000
Si Si7 0.637704 0.532601 0.999489
O O1 0.277929 0.138965 0.669487
O O2 0.403134 0.096300 0.648547
O O3 0.251862 0.018055 0.567725
O O4 0.243758 0.979769 0.706910
O O5 0.137866 0.275732 0.806348
O O6 0.298785 0.414896 0.777876
O O7 0.288613 0.280450 0.851000
O O8 0.571311 0.142621 0.685200
O O9 0.514791 0.257395 0.705863
O O10 0.450385 0.109281 0.789520
O O11 0.270759 0.541517 0.828806
O O12 0.434653 0.565348 0.823732
O O13 0.313222 0.451542 0.921075
O O14 0.349473 0.174737 0.826613
O O15 0.424897 0.291922 0.932579
O O16 0.171767 0.085884 0.484393
O O17 0.574271 0.425730 0.986288
O O18 0.576689 0.576689 0.000000
#
# Coordination Sequence:
#
# PCOD8323439 Si02
#       7
#    12  12  12  12  12   6  12
#     4   9  19  34  52  76 103 128 153 192 238 282
#     4  10  19  31  47  67  92 123 157 189 230 285
#     4   9  17  29  47  71  99 132 165 197 235 280
#     4  10  20  32  47  67  93 125 162 203 245 286
#     4  10  19  31  47  67  92 121 159 208 253 291
#     4  10  19  34  57  82 106 128 154 192 243 296
#     4  10  18  29  45  67  92 119 156 201 248 295
#
# _framework density 16.988838999999999
#
# number of rings (size 3 to 8) (size 9 to 14) (size 15 to 20)
#    0.000    2.308    1.538    3.154    0.000    2.462 
#    0.000    0.385    0.000    8.308    0.000    0.000 
#    0.000    3.077    0.000    0.000    0.000    0.000 
#
# Total GULP energy -966582.641446 kJ/mol
# GULP energy per Si atom -12392.085147 kJ/mol
# Density = 1.695017 g / cm^3
# Si number density = 16.988839 Si / 1000 Ang^3
#
#
#
# Elastic Constant Matrix: (Units=GPa)
#
#
# Indices 1 2 3 4 5 6 
#
# 1 97.5089 45.8004 34.8065 2.6594 0.0000 0.0000
# 2 45.8004 97.5089 34.8065 -2.6594 0.0000 0.0000
# 3 34.8065 34.8065 78.1609 0.0000 0.0000 0.0000
# 4 2.6594 -2.6594 0.0000 25.0390 0.0000 0.0000
# 5 0.0000 0.0000 0.0000 0.0000 25.0390 2.6594
# 6 0.0000 0.0000 0.0000 0.0000 2.6594 25.8543
#
#
#
# Elastic Compliance Matrix: (Units=1/GPa)
#
#
# Indices 1 2 3 4 5 6 
#
# 1 0.014228 -0.005324 -0.003965 -0.002077 0.000000 0.000000
# 2 -0.005324 0.014228 -0.003965 0.002077 0.000000 0.000000
# 3 -0.003965 -0.003965 0.016326 0.000000 0.000000 0.000000
# 4 -0.002077 0.002077 0.000000 0.040379 0.000000 0.000000
# 5 0.000000 0.000000 0.000000 0.000000 0.040379 -0.004153
# 6 0.000000 0.000000 0.000000 0.000000 -0.004153 0.039106
#
#
# Mechanical properties :
#
#
# Convention : Reuss Voigt Hill
#
# Bulk Modulus (GPa) = 54.72520 56.00062 55.36291
# Shear Modulus (GPa) = 25.34907 25.70414 25.52661
#
# Velocity S-wave (km/s) = 3.86696 3.89395 3.88048
# Velocity P-wave (km/s) = 7.22636 7.29739 7.26196
#
# Compressibility (1/GPa) = 0.01827312
#
# Stress axis : x y z
#
# Youngs Moduli (GPa) = 70.28204 70.28204 61.25351
#
# Poissons Ratio (x) = 0.37421 0.24288
# Poissons Ratio (y) = 0.37421 0.24288
# Poissons Ratio (z) = 0.27868 0.27868
#
# Static dielectric constant tensor:
#      x y z
#    x 3.277860 0.000000 0.000000 
#    y 0.000000 3.277860 0.000000 
#    z 0.000000 0.000000 3.029140 
# 
# 
# High freq. dielectric constant tensor:
#      x y z
#    x 1.657270 0.000000 0.000000 
#    y 0.000000 1.657270 0.000000 
#    z 0.000000 0.000000 1.626380 
# 
# From -- ./inp_files/4199.got.cif
#   From: 2010.03.12/outbox.cif.g09.slc.cpg/sg164_3_cif.got.tgz:4199.got - 2010.04.02 06:32:59.
