data_PCOD8323054
_publ_section_title
;
Structure prediction by ZEFSAII (Michael W. Deem and Ramdas Pophale) SiO2 
 PCOD8323054
Probable space group: P -3 1 M 
;
_chemical_formula_sum "Si O2"
_cell_formula_units_Z 76
_cell_length_a 16.513492
_cell_length_b 16.513492
_cell_length_c 18.205074
_cell_angle_alpha 90.000000
_cell_angle_beta 90.000000
_cell_angle_gamma 120.000000
_cell_volume 4299.331385
_symmetry_space_group_name_H-M "P -3 1 M "
_symmetry_group_IT_number 162
_symmetry_cell_setting 'hexagonal'
loop_
_space_group_symop_operation_xyz
x,y,z
-y,x-y,z
-x+y,-x,z
-y,-x,-z
-x+y,y,-z
x,x-y,-z
-x,-y,-z
y,-x+y,-z
x-y,x,-z
y,x,z
x-y,-y,z
-x,-x+y,z
loop_
_atom_site_type_symbol
_atom_site_label
_atom_site_fract_x
_atom_site_fract_y
_atom_site_fract_z
Si Si1 0.287031 0.394020 0.833274
Si Si2 0.558735 0.429641 0.587058
Si Si3 0.555433 0.444799 0.917802
Si Si4 0.898598 0.287510 0.663580
Si Si5 0.606811 0.893155 0.166022
Si Si6 0.099852 0.716250 0.663760
Si Si7 0.333334 0.666668 0.413196
O O1 0.317183 0.317183 0.855059
O O2 0.347864 0.491875 0.875475
O O3 0.177400 0.354153 0.853462
O O4 0.302442 0.418475 0.747392
O O5 0.558837 0.441164 0.500000
O O6 0.625103 0.531539 0.619268
O O7 0.453799 0.374451 0.616146
O O8 0.595352 0.362680 0.616841
O O9 0.499669 0.499669 0.920324
O O10 0.652789 0.509250 0.876408
O O11 0.576466 0.423535 0.000000
O O12 0.885121 0.303054 0.748321
O O13 0.814865 0.186734 0.635038
O O14 0.000000 0.294278 0.652653
O O15 0.684254 0.000000 0.144210
O O16 0.000000 0.714857 0.658052
O O17 0.333334 0.666667 0.500000
#
# Coordination Sequence:
#
# PCOD8323054 Si02
#       7
#    12  12  12  12  12  12   4
#     4   9  18  33  51  71  96 128 163 198 239 285
#     4  11  20  33  50  71  99 128 156 191 240 291
#     4   9  17  30  48  70  98 127 155 193 235 275
#     4  10  20  33  50  71  96 127 163 200 237 284
#     4   9  18  33  51  71  96 128 163 198 239 285
#     4  10  20  33  50  71  96 127 163 200 237 284
#     4   9  18  30  45  66  99 129 145 182 235 282
#
# _framework density 17.677168000000002
#
# number of rings (size 3 to 8) (size 9 to 14) (size 15 to 20)
#    0.000    2.368    1.579    1.421    0.000    4.421 
#    0.947    0.000    0.000    0.632    0.000    4.421 
#    0.000    0.000    0.000   10.737    0.000   11.368 
#
# Total GULP energy -941537.585051 kJ/mol
# GULP energy per Si atom -12388.652435 kJ/mol
# Density = 1.763693 g / cm^3
# Si number density = 17.677168 Si / 1000 Ang^3
#
#
#
# Elastic Constant Matrix: (Units=GPa)
#
#
# Indices 1 2 3 4 5 6 
#
# 1 107.6649 71.5716 36.8917 0.0000 -0.4591 -0.0002
# 2 71.5716 107.6642 36.8916 0.0002 0.4592 -0.0004
# 3 36.8917 36.8916 64.8509 -0.0001 0.0000 0.0001
# 4 0.0000 0.0002 -0.0001 13.2952 -0.0001 0.4594
# 5 -0.4591 0.4592 0.0000 -0.0001 13.2954 0.0001
# 6 -0.0002 -0.0004 0.0001 0.4594 0.0001 18.0462
#
#
#
# Elastic Compliance Matrix: (Units=1/GPa)
#
#
# Indices 1 2 3 4 5 6 
#
# 1 0.017508 -0.010223 -0.004144 0.000000 0.000958 0.000000
# 2 -0.010223 0.017508 -0.004144 0.000000 -0.000958 0.000000
# 3 -0.004144 -0.004144 0.020135 0.000000 0.000000 0.000000
# 4 0.000000 0.000000 0.000000 0.075281 0.000001 -0.001916
# 5 0.000958 -0.000958 0.000000 0.000001 0.075280 -0.000001
# 6 0.000000 0.000000 0.000000 -0.001916 -0.000001 0.055462
#
#
# Mechanical properties :
#
#
# Convention : Reuss Voigt Hill
#
# Bulk Modulus (GPa) = 55.16243 63.43220 59.29732
# Shear Modulus (GPa) = 16.43440 17.91571 17.17505
#
# Velocity S-wave (km/s) = 3.05240 3.18700 3.12042
# Velocity P-wave (km/s) = 6.61030 7.03592 6.82643
#
# Compressibility (1/GPa) = 0.01812828
#
# Stress axis : x y z
#
# Youngs Moduli (GPa) = 57.11722 57.11681 49.66425
#
# Poissons Ratio (x) = 0.58388 0.20583
# Poissons Ratio (y) = 0.58389 0.20583
# Poissons Ratio (z) = 0.23671 0.23671
#
# Static dielectric constant tensor:
#      x y z
#    x 3.428680 0.000000 0.000000 
#    y 0.000000 3.428690 -0.000010 
#    z 0.000000 -0.000010 3.294730 
# 
# 
# High freq. dielectric constant tensor:
#      x y z
#    x 1.672910 0.000000 0.000000 
#    y 0.000000 1.672910 0.000000 
#    z 0.000000 0.000000 1.678280 
# 
# From -- ./inp_files/3126.got.cif
#   From: 2010.03.12/outbox.cif.g09.slc.cpg/sg162_2_cif.got.tgz:3126.got - 2010.04.02 06:27:41.
