data_PCOD8323175
_publ_section_title
;
Structure prediction by ZEFSAII (Michael W. Deem and Ramdas Pophale) SiO2 
 PCOD8323175
Probable space group: P -3 1 M 
;
_chemical_formula_sum "Si O2"
_cell_formula_units_Z 72
_cell_length_a 22.784571
_cell_length_b 22.784571
_cell_length_c 9.612507
_cell_angle_alpha 90.000000
_cell_angle_beta 90.000000
_cell_angle_gamma 120.000000
_cell_volume 4321.644238
_symmetry_space_group_name_H-M "P -3 1 M "
_symmetry_group_IT_number 162
_symmetry_cell_setting 'hexagonal'
loop_
_space_group_symop_operation_xyz
x,y,z
-y,x-y,z
-x+y,-x,z
-y,-x,-z
-x+y,y,-z
x,x-y,-z
-x,-y,-z
y,-x+y,-z
x-y,x,-z
y,x,z
x-y,-y,z
-x,-x+y,z
loop_
_atom_site_type_symbol
_atom_site_label
_atom_site_fract_x
_atom_site_fract_y
_atom_site_fract_z
Si Si1 0.793791 0.075464 0.340543
Si Si2 0.333682 0.534953 0.165140
Si Si3 0.206209 0.281672 0.659457
Si Si4 0.604537 0.681372 0.837985
Si Si5 0.201271 0.666318 0.834860
Si Si6 0.681372 0.076835 0.837985
O O1 0.872657 0.127343 0.309239
O O2 0.775480 0.080806 0.500000
O O3 0.748738 0.094638 0.245072
O O4 0.779352 0.000000 0.306388
O O5 0.342113 0.471506 0.211563
O O6 0.397059 0.602941 0.227095
O O7 0.263788 0.527575 0.224095
O O8 0.333949 0.539547 0.000000
O O9 0.220648 0.220648 0.693612
O O10 0.251262 0.345900 0.754928
O O11 0.621411 0.621411 0.806834
O O12 0.614212 0.700712 0.000000
O O13 0.129393 0.657887 0.788437
O O14 0.621411 0.000000 0.806834
#
# Coordination Sequence:
#
# PCOD8323175 Si02
#       6
#    12  12  12  12  12  12
#     4   9  17  29  45  64  86 112 140 169 203 245
#     4   9  16  25  38  57  82 111 141 173 209 249
#     4   9  17  29  45  64  86 112 140 169 203 245
#     4   9  17  28  43  64  87 109 135 171 213 251
#     4   9  16  25  38  57  82 111 141 173 209 249
#     4   9  17  28  43  64  87 109 135 171 213 251
#
# _framework density 16.660325
#
# number of rings (size 3 to 8) (size 9 to 14) (size 15 to 20)
#    0.000    3.000    0.000    1.333    0.000    4.000 
#    0.000    3.333    0.000    1.333    0.000    7.000 
#    0.000    2.667    0.000    8.333    0.000    8.667 
#
# Total GULP energy -892536.525775 kJ/mol
# GULP energy per Si atom -12396.340636 kJ/mol
# Density = 1.662241 g / cm^3
# Si number density = 16.660325 Si / 1000 Ang^3
#
#
#
# Elastic Constant Matrix: (Units=GPa)
#
#
# Indices 1 2 3 4 5 6 
#
# 1 138.7201 88.2117 27.9994 0.0000 0.0000 0.0000
# 2 88.2117 138.7201 27.9994 0.0000 0.0000 0.0000
# 3 27.9994 27.9994 25.5513 0.0000 0.0000 0.0000
# 4 0.0000 0.0000 0.0000 14.8583 0.0000 0.0000
# 5 0.0000 0.0000 0.0000 0.0000 14.8583 0.0000
# 6 0.0000 0.0000 0.0000 0.0000 0.0000 25.2542
#
#
#
# Elastic Compliance Matrix: (Units=1/GPa)
#
#
# Indices 1 2 3 4 5 6 
#
# 1 0.012919 -0.006879 -0.006619 0.000000 0.000000 0.000000
# 2 -0.006879 0.012919 -0.006619 0.000000 0.000000 0.000000
# 3 -0.006619 -0.006619 0.053642 0.000000 0.000000 0.000000
# 4 0.000000 0.000000 0.000000 0.067302 0.000000 0.000000
# 5 0.000000 0.000000 0.000000 0.000000 0.067302 0.000000
# 6 0.000000 0.000000 0.000000 0.000000 0.000000 0.039597
#
#
# Mechanical properties :
#
#
# Convention : Reuss Voigt Hill
#
# Bulk Modulus (GPa) = 25.47910 65.71251 45.59580
# Shear Modulus (GPa) = 16.28672 21.57956 18.93314
#
# Velocity S-wave (km/s) = 3.13001 3.60289 3.37474
# Velocity P-wave (km/s) = 5.32814 7.53896 6.52782
#
# Compressibility (1/GPa) = 0.03924786
#
# Stress axis : x y z
#
# Youngs Moduli (GPa) = 77.40382 77.40382 18.64201
#
# Poissons Ratio (x) = 0.53249 0.12338
# Poissons Ratio (y) = 0.53249 0.12338
# Poissons Ratio (z) = 0.51230 0.51230
#
# Static dielectric constant tensor:
#      x y z
#    x 3.281810 0.000000 0.000000 
#    y 0.000000 3.281810 0.000000 
#    z 0.000000 0.000000 2.845230 
# 
# 
# High freq. dielectric constant tensor:
#      x y z
#    x 1.643100 0.000000 0.000000 
#    y 0.000000 1.643100 0.000000 
#    z 0.000000 0.000000 1.603950 
# 
# From -- ./inp_files/1701.got.cif
#   From: 2010.03.12/outbox.cif.g09.slc.cpg/sg162_1_cif.got.tgz:1701.got - 2010.04.02 06:27:41.
