data_PCOD8323724
_publ_section_title
;
Structure prediction by ZEFSAII (Michael W. Deem and Ramdas Pophale) SiO2 
 PCOD8323724
Probable space group: P -3 M 1
;
_chemical_formula_sum "Si O2"
_cell_formula_units_Z 48
_cell_length_a 12.507495
_cell_length_b 12.507495
_cell_length_c 20.400526
_cell_angle_alpha 90.000000
_cell_angle_beta 90.000000
_cell_angle_gamma 120.000000
_cell_volume 2763.838568
_symmetry_space_group_name_H-M "P -3 M 1"
_symmetry_group_IT_number 164
_symmetry_cell_setting 'hexagonal'
loop_
_space_group_symop_operation_xyz
x,y,z
-y,x-y,z
-x+y,-x,z
x-y,-y,-z
-x,-x+y,-z
y,x,-z
-x,-y,-z
y,-x+y,-z
x-y,x,-z
-x+y,y,z
x,x-y,z
-y,-x,z
loop_
_atom_site_type_symbol
_atom_site_label
_atom_site_fract_x
_atom_site_fract_y
_atom_site_fract_z
Si Si1 0.581007 0.666412 0.191946
Si Si2 0.334917 0.417982 0.685457
Si Si3 0.334777 0.917435 0.437635
Si Si4 0.754716 0.999870 0.074062
O O1 0.586741 0.793371 0.210347
O O2 0.439147 0.560854 0.189876
O O3 0.656802 0.639148 0.245901
O O4 0.640852 0.672082 0.121472
O O5 0.203374 0.406747 0.679606
O O6 0.438956 0.561045 0.679747
O O7 0.348937 0.339862 0.627504
O O8 0.439758 0.879515 0.436907
O O9 0.204656 0.795345 0.441293
O O10 0.347940 0.000000 0.500000
O O11 0.868657 0.131344 0.094093
O O12 0.798437 0.899219 0.080762
O O13 0.709643 0.000000 0.000000
#
# Coordination Sequence:
#
# PCOD8323724 Si02
#       4
#    12  12  12  12
#     4  10  20  33  50  71  97 129 163 201 243 290
#     4  10  20  34  53  75  99 127 160 201 246 292
#     4  10  20  34  54  78 104 134 167 204 243 286
#     4   9  17  30  49  72  97 126 161 201 244 290
#
# _framework density 17.367151
#
# number of rings (size 3 to 8) (size 9 to 14) (size 15 to 20)
#    0.000    2.250    0.000    3.250    0.000    1.500 
#    0.000    5.000    0.000   11.500    0.000    0.000 
#    0.000    0.000    0.000    0.000    0.000    0.000 
#
# Total GULP energy -595356.108971 kJ/mol
# GULP energy per Si atom -12403.252270 kJ/mol
# Density = 1.732762 g / cm^3
# Si number density = 17.367151 Si / 1000 Ang^3
#
#
#
# Elastic Constant Matrix: (Units=GPa)
#
#
# Indices 1 2 3 4 5 6 
#
# 1 108.9715 67.5314 50.6379 3.2593 0.0000 0.0000
# 2 67.5314 108.9715 50.6379 -3.2593 0.0000 0.0000
# 3 50.6379 50.6379 114.8344 0.0000 0.0000 0.0000
# 4 3.2593 -3.2593 0.0000 21.0392 0.0000 0.0000
# 5 0.0000 0.0000 0.0000 0.0000 21.0392 3.2593
# 6 0.0000 0.0000 0.0000 0.0000 3.2593 20.7201
#
#
#
# Elastic Compliance Matrix: (Units=1/GPa)
#
#
# Indices 1 2 3 4 5 6 
#
# 1 0.016159 -0.008575 -0.003345 -0.003832 0.000000 0.000000
# 2 -0.008575 0.016159 -0.003345 0.003832 0.000000 0.000000
# 3 -0.003345 -0.003345 0.011658 0.000000 0.000000 0.000000
# 4 -0.003832 0.003832 0.000000 0.048718 0.000000 0.000000
# 5 0.000000 0.000000 0.000000 0.000000 0.048718 -0.007663
# 6 0.000000 0.000000 0.000000 0.000000 -0.007663 0.049468
#
#
# Mechanical properties :
#
#
# Convention : Reuss Voigt Hill
#
# Bulk Modulus (GPa) = 74.35516 74.48795 74.42156
# Shear Modulus (GPa) = 22.13464 23.49103 22.81283
#
# Velocity S-wave (km/s) = 3.57390 3.68178 3.62824
# Velocity P-wave (km/s) = 7.74190 7.81391 7.77799
#
# Compressibility (1/GPa) = 0.01344897
#
# Stress axis : x y z
#
# Youngs Moduli (GPa) = 61.88373 61.88373 85.77885
#
# Poissons Ratio (x) = 0.53063 0.28690
# Poissons Ratio (y) = 0.53063 0.28690
# Poissons Ratio (z) = 0.20698 0.20698
#
# Static dielectric constant tensor:
#      x y z
#    x 3.109890 0.000000 0.000000 
#    y 0.000000 3.109890 0.000000 
#    z 0.000000 0.000000 3.473470 
# 
# 
# High freq. dielectric constant tensor:
#      x y z
#    x 1.667310 0.000000 0.000000 
#    y 0.000000 1.667310 0.000000 
#    z 0.000000 0.000000 1.688530 
# 
# From -- ./inp_files/4363.got.cif
#   From: 2010.03.12/outbox.cif.g09.slc.cpg/sg164_3_cif.got.tgz:4363.got - 2010.04.02 06:32:59.
