data_PCOD8323400
_publ_section_title
;
Structure prediction by ZEFSAII (Michael W. Deem and Ramdas Pophale) SiO2 
 PCOD8323400
Probable space group: P -3 M 1
;
_chemical_formula_sum "Si O2"
_cell_formula_units_Z 72
_cell_length_a 16.632127
_cell_length_b 16.632127
_cell_length_c 21.043346
_cell_angle_alpha 90.000000
_cell_angle_beta 90.000000
_cell_angle_gamma 120.000000
_cell_volume 5041.282244
_symmetry_space_group_name_H-M "P -3 M 1"
_symmetry_group_IT_number 164
_symmetry_cell_setting 'hexagonal'
loop_
_space_group_symop_operation_xyz
x,y,z
-y,x-y,z
-x+y,-x,z
x-y,-y,-z
-x,-x+y,-z
y,x,-z
-x,-y,-z
y,-x+y,-z
x-y,x,-z
-x+y,y,z
x,x-y,z
-y,-x,z
loop_
_atom_site_type_symbol
_atom_site_label
_atom_site_fract_x
_atom_site_fract_y
_atom_site_fract_z
Si Si1 0.044521 0.427348 0.154768
Si Si2 0.481630 0.150314 0.964900
Si Si3 0.522923 0.854991 0.533869
Si Si4 0.856631 0.332253 0.719064
Si Si5 0.382884 0.427203 0.406856
Si Si6 0.519785 0.851041 0.893277
O O1 0.059633 0.529816 0.153856
O O2 0.090298 0.410867 0.091454
O O3 0.091884 0.416298 0.218113
O O4 0.934996 0.352354 0.154294
O O5 0.567439 0.134878 0.959322
O O6 0.515658 0.257829 0.953926
O O7 0.437912 0.119228 0.035293
O O8 0.417879 0.835758 0.537575
O O9 0.523237 0.761619 0.552766
O O10 0.565671 0.887265 0.463463
O O11 0.591375 0.937659 0.581856
O O12 0.849336 0.424668 0.718528
O O13 0.753492 0.246509 0.715967
O O14 0.916461 0.329470 0.659498
O O15 0.478160 0.521841 0.405969
O O16 0.413225 0.826450 0.893340
O O17 0.523234 0.761617 0.868858
#
# Coordination Sequence:
#
# PCOD8323400 Si02
#       6
#    12  12  12  12  12  12
#     4   9  17  26  36  52  75 100 125 158 198 230
#     4   9  15  23  36  54  75  99 128 159 190 226
#     4   9  15  25  41  60  81 107 138 166 191 221
#     4  10  18  28  41  57  78 104 131 155 184 227
#     4   8  16  27  38  56  82 107 131 163 198 224
#     4   9  16  26  39  53  70  97 133 167 194 223
#
# _framework density 14.282080000000001
#
# number of rings (size 3 to 8) (size 9 to 14) (size 15 to 20)
#    0.000    3.000    0.000    3.167    0.000    3.333 
#    0.000    4.167    0.000    0.000    0.000    2.333 
#    0.000    0.000    0.000   64.000    0.000   31.333 
#
# Total GULP energy -892204.718354 kJ/mol
# GULP energy per Si atom -12391.732199 kJ/mol
# Density = 1.424957 g / cm^3
# Si number density = 14.282080 Si / 1000 Ang^3
#
#
#
# Elastic Constant Matrix: (Units=GPa)
#
#
# Indices 1 2 3 4 5 6 
#
# 1 58.3908 19.7610 33.1512 -0.3312 0.0000 0.0000
# 2 19.7610 58.3908 33.1512 0.3312 0.0000 0.0000
# 3 33.1512 33.1512 74.9471 0.0000 0.0000 0.0000
# 4 -0.3312 0.3312 0.0000 17.1521 0.0000 0.0000
# 5 0.0000 0.0000 0.0000 0.0000 17.1521 -0.3312
# 6 0.0000 0.0000 0.0000 0.0000 -0.3312 19.3149
#
#
#
# Elastic Compliance Matrix: (Units=1/GPa)
#
#
# Indices 1 2 3 4 5 6 
#
# 1 0.023188 -0.002707 -0.009060 0.000500 0.000000 0.000000
# 2 -0.002707 0.023188 -0.009060 -0.000500 0.000000 0.000000
# 3 -0.009060 -0.009060 0.021357 0.000000 0.000000 0.000000
# 4 0.000500 -0.000500 0.000000 0.058321 0.000000 0.000000
# 5 0.000000 0.000000 0.000000 0.000000 0.058321 0.001000
# 6 0.000000 0.000000 0.000000 0.000000 0.001000 0.051791
#
#
# Mechanical properties :
#
#
# Convention : Reuss Voigt Hill
#
# Bulk Modulus (GPa) = 38.34031 40.42839 39.38435
# Shear Modulus (GPa) = 17.45119 17.76817 17.60968
#
# Velocity S-wave (km/s) = 3.49935 3.53099 3.51521
# Velocity P-wave (km/s) = 6.57500 6.70764 6.64165
#
# Compressibility (1/GPa) = 0.02608221
#
# Stress axis : x y z
#
# Youngs Moduli (GPa) = 43.12491 43.12491 46.82233
#
# Poissons Ratio (x) = 0.11673 0.42419
# Poissons Ratio (y) = 0.11673 0.42419
# Poissons Ratio (z) = 0.39069 0.39069
#
# Static dielectric constant tensor:
#      x y z
#    x 2.605530 0.000000 0.000000 
#    y 0.000000 2.605530 0.000000 
#    z 0.000000 0.000000 3.161980 
# 
# 
# High freq. dielectric constant tensor:
#      x y z
#    x 1.515460 0.000000 0.000000 
#    y 0.000000 1.515460 0.000000 
#    z 0.000000 0.000000 1.548270 
# 
# From -- ./inp_files/4108.got.cif
#   From: 2010.03.12/outbox.cif.g09.slc.cpg/sg164_3_cif.got.tgz:4108.got - 2010.04.02 06:32:59.
