data_PCOD8323150
_publ_section_title
;
Structure prediction by ZEFSAII (Michael W. Deem and Ramdas Pophale) SiO2 
 PCOD8323150
Probable space group: P -3 1 M 
;
_chemical_formula_sum "Si O2"
_cell_formula_units_Z 60
_cell_length_a 17.222851
_cell_length_b 17.222851
_cell_length_c 12.501742
_cell_angle_alpha 90.000000
_cell_angle_beta 90.000000
_cell_angle_gamma 120.000000
_cell_volume 3211.524597
_symmetry_space_group_name_H-M "P -3 1 M "
_symmetry_group_IT_number 162
_symmetry_cell_setting 'hexagonal'
loop_
_space_group_symop_operation_xyz
x,y,z
-y,x-y,z
-x+y,-x,z
-y,-x,-z
-x+y,y,-z
x,x-y,-z
-x,-y,-z
y,-x+y,-z
x-y,x,-z
y,x,z
x-y,-y,z
-x,-x+y,z
loop_
_atom_site_type_symbol
_atom_site_label
_atom_site_fract_x
_atom_site_fract_y
_atom_site_fract_z
Si Si1 0.900026 0.682521 0.418526
Si Si2 0.230665 0.440582 0.736269
Si Si3 0.471893 0.368670 0.558687
Si Si4 0.342856 0.898861 0.082621
Si Si5 0.515489 0.618524 0.846890
O O1 0.865673 0.731346 0.500000
O O2 0.839087 0.655460 0.313461
O O3 0.888237 0.592232 0.472776
O O4 0.000000 0.751624 0.384177
O O5 0.318143 0.490010 0.657937
O O6 0.253690 0.418508 0.852420
O O7 0.174803 0.492732 0.756962
O O8 0.565753 0.434248 0.500000
O O9 0.425692 0.425692 0.601438
O O10 0.416921 0.875719 0.124721
O O11 0.372313 0.000000 0.111728
O O12 0.325977 0.883163 0.956233
O O13 0.577189 0.577189 0.805067
#
# Coordination Sequence:
#
# PCOD8323150 Si02
#       5
#    12  12  12  12  12
#     4   9  19  34  52  76 102 130 168 212 261 311
#     4  11  19  30  53  77  96 130 173 221 261 300
#     4   9  19  34  51  71  99 135 174 212 252 303
#     4   9  19  35  52  71  99 137 178 211 258 315
#     4   9  19  35  52  72 101 136 173 218 261 309
#
# _framework density 18.682715999999999
#
# number of rings (size 3 to 8) (size 9 to 14) (size 15 to 20)
#    0.000    2.600    0.000    3.000    2.800    0.800 
#    1.200    0.000    0.000    0.200    0.000    0.000 
#    0.000    0.000    0.000    0.000    0.000  119.400 
#
# Total GULP energy -743477.161694 kJ/mol
# GULP energy per Si atom -12391.286028 kJ/mol
# Density = 1.864019 g / cm^3
# Si number density = 18.682716 Si / 1000 Ang^3
#
#
#
# Elastic Constant Matrix: (Units=GPa)
#
#
# Indices 1 2 3 4 5 6 
#
# 1 79.7049 30.8438 33.4799 -0.0001 -6.2300 0.0000
# 2 30.8438 79.7049 33.4799 0.0001 6.2300 0.0000
# 3 33.4799 33.4799 66.3593 0.0000 0.0000 0.0000
# 4 -0.0001 0.0001 0.0000 32.5869 0.0000 6.2300
# 5 -6.2300 6.2300 0.0000 0.0000 32.5869 -0.0001
# 6 0.0000 0.0000 0.0000 6.2300 -0.0001 24.4306
#
#
#
# Elastic Compliance Matrix: (Units=1/GPa)
#
#
# Indices 1 2 3 4 5 6 
#
# 1 0.017271 -0.004244 -0.006572 0.000000 0.004113 0.000000
# 2 -0.004244 0.017271 -0.006572 0.000000 -0.004113 0.000000
# 3 -0.006572 -0.006572 0.021701 0.000000 0.000000 0.000000
# 4 0.000000 0.000000 0.000000 0.032260 0.000000 -0.008227
# 5 0.004113 -0.004113 0.000000 0.000000 0.032260 0.000000
# 6 0.000000 0.000000 0.000000 -0.008227 0.000000 0.043030
#
#
# Mechanical properties :
#
#
# Convention : Reuss Voigt Hill
#
# Bulk Modulus (GPa) = 46.58651 46.81960 46.70306
# Shear Modulus (GPa) = 24.30422 26.45191 25.37807
#
# Velocity S-wave (km/s) = 3.61070 3.76686 3.68961
# Velocity P-wave (km/s) = 6.50943 6.63579 6.57291
#
# Compressibility (1/GPa) = 0.02146544
#
# Stress axis : x y z
#
# Youngs Moduli (GPa) = 57.90100 57.90100 46.08040
#
# Poissons Ratio (x) = 0.24575 0.30285
# Poissons Ratio (y) = 0.24575 0.30285
# Poissons Ratio (z) = 0.38054 0.38054
#
# Static dielectric constant tensor:
#      x y z
#    x 3.347860 0.000000 0.000000 
#    y 0.000000 3.347860 0.000000 
#    z 0.000000 0.000000 3.657310 
# 
# 
# High freq. dielectric constant tensor:
#      x y z
#    x 1.701280 0.000000 0.000000 
#    y 0.000000 1.701280 0.000000 
#    z 0.000000 0.000000 1.737720 
# 
# From -- ./inp_files/2280.got.cif
#   From: 2010.03.12/outbox.cif.g09.slc.cpg/sg162_2_cif.got.tgz:2280.got - 2010.04.02 06:27:41.
