data_PCOD8323925
_publ_section_title
;
Structure prediction by ZEFSAII (Michael W. Deem and Ramdas Pophale) SiO2 
 PCOD8323925
Probable space group: P -3 C 1
;
_chemical_formula_sum "Si O2"
_cell_formula_units_Z 66
_cell_length_a 19.916807
_cell_length_b 19.916807
_cell_length_c 9.041803
_cell_angle_alpha 90.000000
_cell_angle_beta 90.000000
_cell_angle_gamma 120.000000
_cell_volume 3106.169150
_symmetry_space_group_name_H-M "P -3 C 1"
_symmetry_group_IT_number 165
_symmetry_cell_setting 'hexagonal'
loop_
_space_group_symop_operation_xyz
x,y,z
-y,x-y,z
-x+y,-x,z
x-y,-y,1/2-z
-x,-x+y,1/2-z
y,x,1/2-z
-x,-y,-z
y,-x+y,-z
x-y,x,-z
-x+y,y,1/2+z
x,x-y,1/2+z
-y,-x,1/2+z
loop_
_atom_site_type_symbol
_atom_site_label
_atom_site_fract_x
_atom_site_fract_y
_atom_site_fract_z
Si Si1 0.129842 0.485000 0.401956
Si Si2 0.687382 0.808637 0.090083
Si Si3 0.402030 0.906590 0.737044
Si Si4 0.660557 0.660557 0.250000
Si Si5 0.413008 0.231167 0.174698
Si Si6 0.135261 0.049899 0.398813
O O1 0.122400 0.503937 0.570217
O O2 0.135326 0.552912 0.298953
O O3 0.051434 0.408533 0.359028
O O4 0.204419 0.474346 0.375817
O O5 0.680848 0.729195 0.138285
O O6 0.619953 0.819860 0.163483
O O7 0.773603 0.873884 0.127647
O O8 0.666611 0.807325 0.919209
O O9 0.323543 0.871968 0.832733
O O10 0.451457 0.000000 0.750000
O O11 0.112242 0.113945 0.445727
O O12 0.092891 0.000000 0.250000
#
# Coordination Sequence:
#
# PCOD8323925 Si02
#       6
#    12  12  12   6  12  12
#     4  11  25  43  68 104 141 186 228 286 349 417
#     4  11  23  43  69  98 135 186 229 298 356 426
#     4  12  25  43  73 108 140 188 239 290 351 421
#     4  10  22  42  68  96 140 172 228 286 352 418
#     4  11  25  44  69 101 148 180 240 293 357 420
#     4  12  26  45  67  98 136 183 240 297 364 432
#
# _framework density 21.248038999999999
#
# number of rings (size 3 to 8) (size 9 to 14) (size 15 to 20)
#    0.000    0.727    3.636    3.455    7.636    1.455 
#    1.091    0.000    0.000    0.000    0.000    0.000 
#    0.000    0.000    0.000    0.000    0.000    0.000 
#
# Total GULP energy -818122.839815 kJ/mol
# GULP energy per Si atom -12395.800603 kJ/mol
# Density = 2.119968 g / cm^3
# Si number density = 21.248039 Si / 1000 Ang^3
#
#
#
# Elastic Constant Matrix: (Units=GPa)
#
#
# Indices 1 2 3 4 5 6 
#
# 1 381.3325 -237.3233 26.3454 -109.2125 0.0000 0.0000
# 2 -237.3233 381.3325 26.3454 109.2125 0.0000 0.0000
# 3 26.3454 26.3454 90.3086 0.0000 0.0000 0.0000
# 4 -109.2125 109.2125 0.0000 68.7480 0.0000 0.0000
# 5 0.0000 0.0000 0.0000 0.0000 68.7480 -109.2125
# 6 0.0000 0.0000 0.0000 0.0000 -109.2125 309.3279
#
#
#
# Elastic Compliance Matrix: (Units=1/GPa)
#
#
# Indices 1 2 3 4 5 6 
#
# 1 0.005727 0.002046 -0.002268 0.005848 0.000000 0.000000
# 2 0.002046 0.005727 -0.002268 -0.005848 0.000000 0.000000
# 3 -0.002268 -0.002268 0.012396 0.000000 0.000000 0.000000
# 4 0.005848 -0.005848 0.000000 0.033125 0.000000 0.000000
# 5 0.000000 0.000000 0.000000 0.000000 0.033125 0.011695
# 6 0.000000 0.000000 0.000000 0.000000 0.011695 0.007362
#
#
# Mechanical properties :
#
#
# Convention : Reuss Voigt Hill
#
# Bulk Modulus (GPa) = 52.98693 53.74539 53.36616
# Shear Modulus (GPa) = 45.98481 158.53852 102.26166
#
# Velocity S-wave (km/s) = 4.65713 8.64727 6.94493
# Velocity P-wave (km/s) = 7.34234 11.18255 9.45937
#
# Compressibility (1/GPa) = 0.01887258
#
# Stress axis : x y z
#
# Youngs Moduli (GPa) = 174.60030 174.60030 80.66915
#
# Poissons Ratio (x) = -0.35730 0.18294
# Poissons Ratio (y) = -0.35730 0.18294
# Poissons Ratio (z) = 0.39596 0.39596
#
# Static dielectric constant tensor:
#      x y z
#    x 3.998180 0.000000 0.000000 
#    y 0.000000 3.998180 0.000000 
#    z 0.000000 0.000000 3.948400 
# 
# 
# High freq. dielectric constant tensor:
#      x y z
#    x 1.834100 0.000000 0.000000 
#    y 0.000000 1.834100 0.000000 
#    z 0.000000 0.000000 1.850280 
# 
# From -- ./inp_files/694.got.cif
#   From: 2010.03.12/outbox.cif.g09.slc.cpg/sg165_1_cif.got.tgz:694.got - 2010.04.02 06:36:38.
