data_PCOD8323384
_publ_section_title
;
Structure prediction by ZEFSAII (Michael W. Deem and Ramdas Pophale) SiO2 
 PCOD8323384
Probable space group: P -3 M 1
;
_chemical_formula_sum "Si O2"
_cell_formula_units_Z 96
_cell_length_a 18.952227
_cell_length_b 18.952227
_cell_length_c 20.390844
_cell_angle_alpha 90.000000
_cell_angle_beta 90.000000
_cell_angle_gamma 120.000000
_cell_volume 6342.877629
_symmetry_space_group_name_H-M "P -3 M 1"
_symmetry_group_IT_number 164
_symmetry_cell_setting 'hexagonal'
loop_
_space_group_symop_operation_xyz
x,y,z
-y,x-y,z
-x+y,-x,z
x-y,-y,-z
-x,-x+y,-z
y,x,-z
-x,-y,-z
y,-x+y,-z
x-y,x,-z
-x+y,y,z
x,x-y,z
-y,-x,z
loop_
_atom_site_type_symbol
_atom_site_label
_atom_site_fract_x
_atom_site_fract_y
_atom_site_fract_z
Si Si1 0.073500 0.620847 0.378103
Si Si2 0.330484 0.827819 0.501046
Si Si3 0.667504 0.491964 0.012103
Si Si4 0.961958 0.398336 0.112597
Si Si5 0.668949 0.176397 0.742420
Si Si6 0.710325 0.576870 0.880332
Si Si7 0.668005 0.171148 0.222288
Si Si8 0.893560 0.362960 0.361805
O O1 0.073866 0.536933 0.376827
O O2 0.104588 0.662398 0.449205
O O3 0.130187 0.678793 0.319965
O O4 0.984277 0.607501 0.365429
O O5 0.411307 0.822613 0.500677
O O6 0.258223 0.741777 0.477428
O O7 0.311648 0.846723 0.573989
O O8 0.753410 0.506821 0.039983
O O9 0.600505 0.399496 0.028210
O O10 0.643523 0.552844 0.047569
O O11 0.671536 0.505170 0.934029
O O12 0.992518 0.496259 0.112861
O O13 0.906333 0.356322 0.176184
O O14 0.034847 0.376115 0.111682
O O15 0.577021 0.154042 0.750798
O O16 0.727359 0.272642 0.731538
O O17 0.693323 0.148098 0.807241
O O18 0.811227 0.622453 0.890140
O O19 0.597019 0.194037 0.221670
O O20 0.750794 0.249207 0.197132
O O21 0.684197 0.150184 0.295578
O O22 0.898336 0.449168 0.362528
#
# Coordination Sequence:
#
# PCOD8323384 Si02
#       8
#    12  12  12  12  12  12  12  12
#     4   9  17  28  40  53  71  98 131 164 200 245
#     4  10  18  27  39  55  75  97 125 164 209 250
#     4  10  19  30  45  65  89 116 147 182 218 255
#     4  10  19  31  46  62  84 115 147 179 219 263
#     4  10  18  27  39  55  75  97 125 164 209 250
#     4  10  20  31  44  61  80 108 146 185 219 253
#     4  10  19  30  45  65  89 116 147 182 218 255
#     4   9  17  28  41  55  73 101 135 170 206 245
#
# _framework density 15.135085999999999
#
# number of rings (size 3 to 8) (size 9 to 14) (size 15 to 20)
#    0.000    2.250    0.000    4.250    0.000    4.500 
#    0.000    5.000    0.000    0.250    0.000    0.000 
#    0.000    0.000    0.000    3.000    0.000   23.000 
#
# Total GULP energy -1189465.102213 kJ/mol
# GULP energy per Si atom -12390.261481 kJ/mol
# Density = 1.510064 g / cm^3
# Si number density = 15.135086 Si / 1000 Ang^3
#
#
#
# Elastic Constant Matrix: (Units=GPa)
#
#
# Indices 1 2 3 4 5 6 
#
# 1 65.0967 32.5724 23.5913 -0.4376 0.0000 0.0000
# 2 32.5724 65.0967 23.5913 0.4376 0.0000 0.0000
# 3 23.5913 23.5913 73.5030 0.0000 0.0000 0.0000
# 4 -0.4376 0.4376 0.0000 18.0607 0.0000 0.0000
# 5 0.0000 0.0000 0.0000 0.0000 18.0607 -0.4376
# 6 0.0000 0.0000 0.0000 0.0000 -0.4376 16.2621
#
#
#
# Elastic Compliance Matrix: (Units=1/GPa)
#
#
# Indices 1 2 3 4 5 6 
#
# 1 0.021442 -0.009324 -0.003889 0.000745 0.000000 0.000000
# 2 -0.009324 0.021442 -0.003889 -0.000745 0.000000 0.000000
# 3 -0.003889 -0.003889 0.016101 0.000000 0.000000 0.000000
# 4 0.000745 -0.000745 0.000000 0.055405 0.000000 0.000000
# 5 0.000000 0.000000 0.000000 0.000000 0.055405 0.001491
# 6 0.000000 0.000000 0.000000 0.000000 0.001491 0.061533
#
#
# Mechanical properties :
#
#
# Convention : Reuss Voigt Hill
#
# Bulk Modulus (GPa) = 40.35577 40.35626 40.35602
# Shear Modulus (GPa) = 18.26196 18.73947 18.50071
#
# Velocity S-wave (km/s) = 3.47738 3.52255 3.50004
# Velocity P-wave (km/s) = 6.54557 6.57772 6.56166
#
# Compressibility (1/GPa) = 0.02477960
#
# Stress axis : x y z
#
# Youngs Moduli (GPa) = 46.63767 46.63767 62.10641
#
# Poissons Ratio (x) = 0.43487 0.24154
# Poissons Ratio (y) = 0.43487 0.24154
# Poissons Ratio (z) = 0.18138 0.18138
#
# Static dielectric constant tensor:
#      x y z
#    x 2.819870 0.000000 0.000000 
#    y 0.000000 2.819870 0.000000 
#    z 0.000000 0.000000 3.245640 
# 
# 
# High freq. dielectric constant tensor:
#      x y z
#    x 1.543970 0.000000 0.000000 
#    y 0.000000 1.543970 0.000000 
#    z 0.000000 0.000000 1.608910 
# 
# From -- ./inp_files/4699.got.cif
#   From: 2010.03.12/outbox.cif.g09.slc.cpg/sg164_3_cif.got.tgz:4699.got - 2010.04.02 06:32:59.
