data_PCOD8323285
_publ_section_title
;
Structure prediction by ZEFSAII (Michael W. Deem and Ramdas Pophale) SiO2 
 PCOD8323285
Probable space group: P -3 1 C
;
_chemical_formula_sum "Si O2"
_cell_formula_units_Z 76
_cell_length_a 17.863478
_cell_length_b 17.863478
_cell_length_c 13.941125
_cell_angle_alpha 90.000000
_cell_angle_beta 90.000000
_cell_angle_gamma 120.000000
_cell_volume 3852.658296
_symmetry_space_group_name_H-M "P -3 1 C"
_symmetry_group_IT_number 163
_symmetry_cell_setting 'hexagonal'
loop_
_space_group_symop_operation_xyz
x,y,z
-y,x-y,z
-x+y,-x,z
-y,-x,1/2-z
-x+y,y,1/2-z
x,x-y,1/2-z
-x,-y,-z
y,-x+y,-z
x-y,x,-z
y,x,1/2+z
x-y,-y,1/2+z
-x,-x+y,1/2+z
loop_
_atom_site_type_symbol
_atom_site_label
_atom_site_fract_x
_atom_site_fract_y
_atom_site_fract_z
Si Si1 0.000000 0.000000 0.385732
Si Si2 0.752615 0.669978 0.246577
Si Si3 0.627045 0.662553 0.089197
Si Si4 0.730823 0.869743 0.458641
Si Si5 0.633945 0.961296 0.102501
Si Si6 0.173003 0.035224 0.139665
Si Si7 0.663955 0.159073 0.755363
O O1 0.096860 0.040612 0.343421
O O2 0.000000 0.000000 0.500000
O O3 0.812124 0.624247 0.250000
O O4 0.688328 0.642553 0.156190
O O5 0.698135 0.647993 0.343153
O O6 0.816217 0.774646 0.236913
O O7 0.670341 0.758404 0.046076
O O8 0.541739 0.645836 0.146201
O O9 0.614539 0.604121 0.994821
O O10 0.683740 0.775568 0.411792
O O11 0.754843 0.860384 0.567442
O O12 0.816650 0.937345 0.402023
O O13 0.549298 0.903042 0.164959
O O14 0.760934 0.239067 0.750000
O O15 0.597046 0.194092 0.750000
#
# Coordination Sequence:
#
# PCOD8323285 Si02
#       7
#     4  12  12  12  12  12  12
#     4  12  21  30  40  65 106 169 215 265 310 326
#     4  10  22  32  49  76 106 149 204 252 282 333
#     4  10  22  37  60  84 114 155 196 239 296 356
#     4  11  17  31  53  71 103 146 197 237 284 339
#     4  11  22  37  60  81 117 154 196 246 293 361
#     4  11  21  30  45  68 106 156 212 259 295 326
#     4  11  24  43  66  95 122 154 193 247 316 379
#
# _framework density 19.726638999999999
#
# number of rings (size 3 to 8) (size 9 to 14) (size 15 to 20)
#    0.000    1.263    6.316    1.105    2.211    0.632 
#    0.000    0.000    0.000    0.000    0.000    0.000 
#    0.000    0.000    0.000   17.211    0.000    0.000 
#
# Total GULP energy -941744.417089 kJ/mol
# GULP energy per Si atom -12391.373909 kJ/mol
# Density = 1.968174 g / cm^3
# Si number density = 19.726639 Si / 1000 Ang^3
#
#
#
# Elastic Constant Matrix: (Units=GPa)
#
#
# Indices 1 2 3 4 5 6 
#
# 1 64.0278 11.9949 26.7922 0.0000 0.1691 0.0000
# 2 11.9949 64.0278 26.7922 0.0000 -0.1691 0.0000
# 3 26.7922 26.7922 115.9123 0.0000 0.0000 0.0000
# 4 0.0000 0.0000 0.0000 15.8081 0.0000 -0.1691
# 5 0.1691 -0.1691 0.0000 0.0000 15.8081 0.0000
# 6 0.0000 0.0000 0.0000 -0.1691 0.0000 26.0165
#
#
#
# Elastic Compliance Matrix: (Units=1/GPa)
#
#
# Indices 1 2 3 4 5 6 
#
# 1 0.017467 -0.001753 -0.003632 0.000000 -0.000206 0.000000
# 2 -0.001753 0.017467 -0.003632 0.000000 0.000206 0.000000
# 3 -0.003632 -0.003632 0.010306 0.000000 0.000000 0.000000
# 4 0.000000 0.000000 0.000000 0.063263 0.000000 0.000411
# 5 -0.000206 0.000206 0.000000 0.000000 0.063263 0.000000
# 6 0.000000 0.000000 0.000000 0.000411 0.000000 0.038440
#
#
# Mechanical properties :
#
#
# Convention : Reuss Voigt Hill
#
# Bulk Modulus (GPa) = 36.75692 41.68071 39.21882
# Shear Modulus (GPa) = 21.06949 23.41909 22.24429
#
# Velocity S-wave (km/s) = 3.27168 3.44929 3.36166
# Velocity P-wave (km/s) = 5.73982 6.08592 5.91540
#
# Compressibility (1/GPa) = 0.02720576
#
# Stress axis : x y z
#
# Youngs Moduli (GPa) = 57.25078 57.25078 97.02790
#
# Poissons Ratio (x) = 0.10036 0.35242
# Poissons Ratio (y) = 0.10036 0.35242
# Poissons Ratio (z) = 0.20795 0.20795
#
# Static dielectric constant tensor:
#      x y z
#    x 3.345030 0.000000 0.000000 
#    y 0.000000 3.345030 0.000000 
#    z 0.000000 0.000000 3.835400 
# 
# 
# High freq. dielectric constant tensor:
#      x y z
#    x 1.737810 0.000000 0.000000 
#    y 0.000000 1.737810 0.000000 
#    z 0.000000 0.000000 1.785390 
# 
# From -- ./inp_files/2589.got.cif
#   From: 2010.03.12/outbox.cif.g09.slc.cpg/sg163_2_cif.got.tgz:2589.got - 2010.04.02 06:30:25.
