data_PCOD8323449
_publ_section_title
;
Structure prediction by ZEFSAII (Michael W. Deem and Ramdas Pophale) SiO2 
 PCOD8323449
Probable space group: P -3 M 1
;
_chemical_formula_sum "Si O2"
_cell_formula_units_Z 84
_cell_length_a 22.439477
_cell_length_b 22.439477
_cell_length_c 11.723663
_cell_angle_alpha 90.000000
_cell_angle_beta 90.000000
_cell_angle_gamma 120.000000
_cell_volume 5112.336346
_symmetry_space_group_name_H-M "P -3 M 1"
_symmetry_group_IT_number 164
_symmetry_cell_setting 'hexagonal'
loop_
_space_group_symop_operation_xyz
x,y,z
-y,x-y,z
-x+y,-x,z
x-y,-y,-z
-x,-x+y,-z
y,x,-z
-x,-y,-z
y,-x+y,-z
x-y,x,-z
-x+y,y,z
x,x-y,z
-y,-x,z
loop_
_atom_site_type_symbol
_atom_site_label
_atom_site_fract_x
_atom_site_fract_y
_atom_site_fract_z
Si Si1 0.745499 0.626881 0.291849
Si Si2 0.696735 0.034137 0.754544
Si Si3 0.208427 0.924911 0.040738
Si Si4 0.266159 0.398697 0.451187
Si Si5 0.477400 0.091246 0.870855
Si Si6 0.799480 0.465741 0.678911
Si Si7 0.429751 0.148610 0.063346
O O1 0.828194 0.656388 0.289729
O O2 0.726804 0.684675 0.257150
O O3 0.714664 0.602394 0.417523
O O4 0.708350 0.563337 0.201048
O O5 0.763865 0.075919 0.832494
O O6 0.711323 0.066853 0.628781
O O7 0.631364 0.035143 0.816083
O O8 0.126158 0.873843 0.040203
O O9 0.245687 0.897882 0.955830
O O10 0.224525 0.000000 0.000000
O O11 0.184682 0.369363 0.435201
O O12 0.308444 0.478299 0.419459
O O13 0.531205 0.062409 0.876490
O O14 0.507042 0.159123 0.795586
O O15 0.469049 0.115402 0.997260
O O16 0.721840 0.443680 0.709392
O O17 0.802794 0.401397 0.629208
O O18 0.455351 0.227676 0.024696
#
# Coordination Sequence:
#
# PCOD8323449 Si02
#       7
#    12  12  12  12  12  12  12
#     4  10  19  31  48  66  88 119 154 191 227 274
#     4  10  18  31  49  68  94 121 154 189 233 276
#     4  10  18  29  48  71  95 121 151 187 224 267
#     4   9  18  31  46  67  93 122 154 189 233 277
#     4   9  18  30  46  68  94 120 150 193 240 284
#     4   9  16  28  46  67  89 117 156 200 240 279
#     4   9  17  30  47  66  90 121 153 186 229 274
#
# _framework density 16.430841999999998
#
# number of rings (size 3 to 8) (size 9 to 14) (size 15 to 20)
#    0.000    2.571    1.429    1.429    0.000    3.429 
#    0.000    2.857    0.000    3.857    0.000    0.000 
#    0.000    0.000    0.000    0.429    0.000   19.571 
#
# Total GULP energy -1040954.171186 kJ/mol
# GULP energy per Si atom -12392.311562 kJ/mol
# Density = 1.639345 g / cm^3
# Si number density = 16.430842 Si / 1000 Ang^3
#
#
#
# Elastic Constant Matrix: (Units=GPa)
#
#
# Indices 1 2 3 4 5 6 
#
# 1 73.8126 42.5517 31.4016 0.1846 0.0000 0.0000
# 2 42.5517 73.8126 31.4016 -0.1846 0.0000 0.0000
# 3 31.4016 31.4016 112.6183 0.0000 0.0000 0.0000
# 4 0.1846 -0.1846 0.0000 18.0404 0.0000 0.0000
# 5 0.0000 0.0000 0.0000 0.0000 18.0404 0.1846
# 6 0.0000 0.0000 0.0000 0.0000 0.1846 15.6304
#
#
#
# Elastic Compliance Matrix: (Units=1/GPa)
#
#
# Indices 1 2 3 4 5 6 
#
# 1 0.021054 -0.010938 -0.002821 -0.000327 0.000000 0.000000
# 2 -0.010938 0.021054 -0.002821 0.000327 0.000000 0.000000
# 3 -0.002821 -0.002821 0.010453 0.000000 0.000000 0.000000
# 4 -0.000327 0.000327 0.000000 0.055438 0.000000 0.000000
# 5 0.000000 0.000000 0.000000 0.000000 0.055438 -0.000655
# 6 0.000000 0.000000 0.000000 0.000000 -0.000655 0.063985
#
#
# Mechanical properties :
#
#
# Convention : Reuss Voigt Hill
#
# Bulk Modulus (GPa) = 51.54126 52.32815 51.93470
# Shear Modulus (GPa) = 18.72315 20.66815 19.69565
#
# Velocity S-wave (km/s) = 3.37933 3.55052 3.46598
# Velocity P-wave (km/s) = 6.83105 6.98032 6.90609
#
# Compressibility (1/GPa) = 0.01940193
#
# Stress axis : x y z
#
# Youngs Moduli (GPa) = 47.49603 47.49603 95.67042
#
# Poissons Ratio (x) = 0.51953 0.26986
# Poissons Ratio (y) = 0.51953 0.26986
# Poissons Ratio (z) = 0.13397 0.13397
#
# Static dielectric constant tensor:
#      x y z
#    x 3.024630 0.000000 0.000000 
#    y 0.000000 3.024630 0.000000 
#    z 0.000000 0.000000 3.227950 
# 
# 
# High freq. dielectric constant tensor:
#      x y z
#    x 1.611800 0.000000 0.000000 
#    y 0.000000 1.611800 0.000000 
#    z 0.000000 0.000000 1.644020 
# 
# From -- ./inp_files/2930.got.cif
#   From: 2010.03.12/outbox.cif.g09.slc.cpg/sg164_2_cif.got.tgz:2930.got - 2010.04.02 06:32:59.
