data_PCOD8323714
_publ_section_title
;
Structure prediction by ZEFSAII (Michael W. Deem and Ramdas Pophale) SiO2 
 PCOD8323714
Probable space group: P -3 M 1
;
_chemical_formula_sum "Si O2"
_cell_formula_units_Z 40
_cell_length_a 17.579552
_cell_length_b 17.579552
_cell_length_c 9.570973
_cell_angle_alpha 90.000000
_cell_angle_beta 90.000000
_cell_angle_gamma 120.000000
_cell_volume 2561.547003
_symmetry_space_group_name_H-M "P -3 M 1"
_symmetry_group_IT_number 164
_symmetry_cell_setting 'hexagonal'
loop_
_space_group_symop_operation_xyz
x,y,z
-y,x-y,z
-x+y,-x,z
x-y,-y,-z
-x,-x+y,-z
y,x,-z
-x,-y,-z
y,-x+y,-z
x-y,x,-z
-x+y,y,z
x,x-y,z
-y,-x,z
loop_
_atom_site_type_symbol
_atom_site_label
_atom_site_fract_x
_atom_site_fract_y
_atom_site_fract_z
Si Si1 0.755903 0.244098 0.811626
Si Si2 0.666668 0.333334 0.977493
Si Si3 0.435674 0.385180 0.858460
Si Si4 0.618033 0.548098 0.383905
Si Si5 0.244792 0.489583 0.515652
Si Si6 0.666667 0.333334 0.317208
O O1 0.715648 0.284353 0.918423
O O2 0.708242 0.140107 0.844781
O O3 0.741046 0.258955 0.648048
O O4 0.666667 0.333334 0.146859
O O5 0.536422 0.463579 0.836396
O O6 0.370074 0.389914 0.746438
O O7 0.394458 0.394458 0.000000
O O8 0.566728 0.566728 0.500000
O O9 0.555764 0.444237 0.343167
O O10 0.711187 0.568682 0.446156
O O11 0.284764 0.569528 0.622348
#
# Coordination Sequence:
#
# PCOD8323714 Si02
#       6
#     6   2  12  12   6   2
#     4  12  22  38  56  72 100 146 182 218 262 317
#     4  12  28  32  46  78 106 131 190 228 262 296
#     4  10  22  35  52  74 104 136 173 220 265 303
#     4  10  20  33  49  74 101 130 176 218 255 302
#     4  12  22  36  56  72 104 142 182 223 261 306
#     4  12  28  32  46  84 100 134 184 231 262 290
#
# _framework density 15.615565
#
# number of rings (size 3 to 8) (size 9 to 14) (size 15 to 20)
#    0.000    1.200    6.000    0.900    4.200    0.000 
#    0.000    0.000    0.000    0.000    0.000    0.000 
#    0.000    0.000    0.000   18.000    0.000    0.000 
#
# Total GULP energy -495709.878496 kJ/mol
# GULP energy per Si atom -12392.746962 kJ/mol
# Density = 1.558002 g / cm^3
# Si number density = 15.615565 Si / 1000 Ang^3
#
#
#
# Elastic Constant Matrix: (Units=GPa)
#
#
# Indices 1 2 3 4 5 6 
#
# 1 86.5863 31.8543 37.6860 -3.8562 0.0000 0.0000
# 2 31.8543 86.5867 37.6861 3.8561 0.0000 0.0000
# 3 37.6860 37.6861 138.0564 -0.0001 0.0000 0.0000
# 4 -3.8562 3.8561 -0.0001 23.1223 0.0000 0.0000
# 5 0.0000 0.0000 0.0000 0.0000 23.1221 -3.8562
# 6 0.0000 0.0000 0.0000 0.0000 -3.8562 27.3661
#
#
#
# Elastic Compliance Matrix: (Units=1/GPa)
#
#
# Indices 1 2 3 4 5 6 
#
# 1 0.014464 -0.004246 -0.002789 0.003120 0.000000 0.000000
# 2 -0.004246 0.014464 -0.002789 -0.003120 0.000000 0.000000
# 3 -0.002789 -0.002789 0.008766 0.000000 0.000000 0.000000
# 4 0.003120 -0.003120 0.000000 0.044289 0.000000 0.000000
# 5 0.000000 0.000000 0.000000 0.000000 0.044289 0.006241
# 6 0.000000 0.000000 0.000000 0.000000 0.006241 0.037421
#
#
# Mechanical properties :
#
#
# Convention : Reuss Voigt Hill
#
# Bulk Modulus (GPa) = 55.41639 58.40915 56.91277
# Shear Modulus (GPa) = 26.40488 28.32229 27.36358
#
# Velocity S-wave (km/s) = 4.11656 4.26340 4.19062
# Velocity P-wave (km/s) = 7.62625 7.85628 7.74212
#
# Compressibility (1/GPa) = 0.01804520
#
# Stress axis : x y z
#
# Youngs Moduli (GPa) = 69.13579 69.13609 114.07407
#
# Poissons Ratio (x) = 0.29357 0.31818
# Poissons Ratio (y) = 0.29356 0.31819
# Poissons Ratio (z) = 0.19284 0.19284
#
# Static dielectric constant tensor:
#      x y z
#    x 2.867780 0.000000 0.000000 
#    y 0.000000 2.867770 0.000000 
#    z 0.000000 0.000000 3.017620 
# 
# 
# High freq. dielectric constant tensor:
#      x y z
#    x 1.570580 0.000000 0.000000 
#    y 0.000000 1.570580 0.000000 
#    z 0.000000 0.000000 1.622430 
# 
# From -- ./inp_files/1201.got.cif
#   From: 2010.03.12/outbox.cif.g09.slc.cpg/sg164_1_cif.got.tgz:1201.got - 2010.04.02 06:32:59.
