data_PCOD8323425
_publ_section_title
;
Structure prediction by ZEFSAII (Michael W. Deem and Ramdas Pophale) SiO2 
 PCOD8323425
Probable space group: P -3 M 1
;
_chemical_formula_sum "Si O2"
_cell_formula_units_Z 84
_cell_length_a 22.305274
_cell_length_b 22.305274
_cell_length_c 12.364920
_cell_angle_alpha 90.000000
_cell_angle_beta 90.000000
_cell_angle_gamma 120.000000
_cell_volume 5327.666947
_symmetry_space_group_name_H-M "P -3 M 1"
_symmetry_group_IT_number 164
_symmetry_cell_setting 'hexagonal'
loop_
_space_group_symop_operation_xyz
x,y,z
-y,x-y,z
-x+y,-x,z
x-y,-y,-z
-x,-x+y,-z
y,x,-z
-x,-y,-z
y,-x+y,-z
x-y,x,-z
-x+y,y,z
x,x-y,z
-y,-x,z
loop_
_atom_site_type_symbol
_atom_site_label
_atom_site_fract_x
_atom_site_fract_y
_atom_site_fract_z
Si Si1 0.965828 0.552285 0.180445
Si Si2 0.783458 0.706224 0.709495
Si Si3 0.533687 0.596575 0.579296
Si Si4 0.789985 0.076936 0.288721
Si Si5 0.877701 0.256179 0.498930
Si Si6 0.862435 0.590106 0.122391
Si Si7 0.057134 0.357393 0.079400
O O1 0.974483 0.487242 0.148097
O O2 0.972863 0.567927 0.307419
O O3 0.887391 0.535419 0.151721
O O4 0.024604 0.619740 0.117930
O O5 0.863974 0.727948 0.699996
O O6 0.776547 0.774924 0.710036
O O7 0.739111 0.656691 0.610223
O O8 0.751837 0.667894 0.821360
O O9 0.562172 0.562172 0.500000
O O10 0.449765 0.550236 0.586358
O O11 0.554850 0.672107 0.535393
O O12 0.871787 0.128214 0.270001
O O13 0.768180 0.090646 0.404838
O O14 0.747233 0.088023 0.192791
O O15 0.796608 0.203393 0.514516
O O16 0.781706 0.563411 0.149689
O O17 0.874303 0.602032 0.994009
O O18 0.000000 0.297589 0.000000
#
# Coordination Sequence:
#
# PCOD8323425 Si02
#       7
#    12  12  12  12  12  12  12
#     4  10  19  30  48  72  97 126 159 201 244 285
#     4  11  20  31  48  73  98 124 159 205 243 282
#     4  10  18  28  45  69  98 126 154 188 235 294
#     4  10  18  31  48  69  94 128 161 192 238 295
#     4  10  19  30  49  70  97 128 158 198 242 285
#     4  10  19  31  48  66  92 128 164 196 235 290
#     4  10  18  31  46  66  98 125 158 196 244 293
#
# _framework density 15.76675
#
# number of rings (size 3 to 8) (size 9 to 14) (size 15 to 20)
#    0.000    1.857    4.286    2.571    0.000    2.571 
#    0.000    0.000    0.000    0.857    0.000    0.000 
#    0.000    4.000    0.000    2.714    0.000    1.143 
#
# Total GULP energy -1040773.234362 kJ/mol
# GULP energy per Si atom -12390.157552 kJ/mol
# Density = 1.573086 g / cm^3
# Si number density = 15.766750 Si / 1000 Ang^3
#
#
#
# Elastic Constant Matrix: (Units=GPa)
#
#
# Indices 1 2 3 4 5 6 
#
# 1 73.8494 30.3355 23.3637 -0.4489 0.0000 0.0000
# 2 30.3355 73.8494 23.3637 0.4489 0.0000 0.0000
# 3 23.3637 23.3637 108.4019 0.0000 0.0000 0.0000
# 4 -0.4489 0.4489 0.0000 31.8181 0.0000 0.0000
# 5 0.0000 0.0000 0.0000 0.0000 31.8181 -0.4489
# 6 0.0000 0.0000 0.0000 0.0000 -0.4489 21.7570
#
#
#
# Elastic Compliance Matrix: (Units=1/GPa)
#
#
# Indices 1 2 3 4 5 6 
#
# 1 0.016807 -0.006181 -0.002290 0.000324 0.000000 0.000000
# 2 -0.006181 0.016807 -0.002290 -0.000324 0.000000 0.000000
# 3 -0.002290 -0.002290 0.010212 0.000000 0.000000 0.000000
# 4 0.000324 -0.000324 0.000000 0.031438 0.000000 0.000000
# 5 0.000000 0.000000 0.000000 0.000000 0.031438 0.000649
# 6 0.000000 0.000000 0.000000 0.000000 0.000649 0.045976
#
#
# Mechanical properties :
#
#
# Convention : Reuss Voigt Hill
#
# Bulk Modulus (GPa) = 44.83781 45.58075 45.20928
# Shear Modulus (GPa) = 27.52794 29.01448 28.27121
#
# Velocity S-wave (km/s) = 4.18299 4.29445 4.23908
# Velocity P-wave (km/s) = 7.19929 7.31860 7.25919
#
# Compressibility (1/GPa) = 0.02230260
#
# Stress axis : x y z
#
# Youngs Moduli (GPa) = 59.50030 59.50030 97.92316
#
# Poissons Ratio (x) = 0.36778 0.22425
# Poissons Ratio (y) = 0.36778 0.22425
# Poissons Ratio (z) = 0.13626 0.13626
#
# Static dielectric constant tensor:
#      x y z
#    x 2.935430 0.000000 0.000000 
#    y 0.000000 2.935430 0.000000 
#    z 0.000000 0.000000 3.370890 
# 
# 
# High freq. dielectric constant tensor:
#      x y z
#    x 1.579510 0.000000 0.000000 
#    y 0.000000 1.579510 0.000000 
#    z 0.000000 0.000000 1.635720 
# 
# From -- ./inp_files/3044.got.cif
#   From: 2010.03.12/outbox.cif.g09.slc.cpg/sg164_2_cif.got.tgz:3044.got - 2010.04.02 06:32:59.
