data_PCOD8323563
_publ_section_title
;
Structure prediction by ZEFSAII (Michael W. Deem and Ramdas Pophale) SiO2 
 PCOD8323563
Probable space group: P -3 M 1
;
_chemical_formula_sum "Si O2"
_cell_formula_units_Z 60
_cell_length_a 28.101006
_cell_length_b 28.101006
_cell_length_c 4.992085
_cell_angle_alpha 90.000000
_cell_angle_beta 90.000000
_cell_angle_gamma 120.000000
_cell_volume 3413.943572
_symmetry_space_group_name_H-M "P -3 M 1"
_symmetry_group_IT_number 164
_symmetry_cell_setting 'hexagonal'
loop_
_space_group_symop_operation_xyz
x,y,z
-y,x-y,z
-x+y,-x,z
x-y,-y,-z
-x,-x+y,-z
y,x,-z
-x,-y,-z
y,-x+y,-z
x-y,x,-z
-x+y,y,z
x,x-y,z
-y,-x,z
loop_
_atom_site_type_symbol
_atom_site_label
_atom_site_fract_x
_atom_site_fract_y
_atom_site_fract_z
Si Si1 0.199692 0.399384 0.061340
Si Si2 0.899659 0.594841 0.043468
Si Si3 0.223268 0.557796 0.564668
Si Si4 0.478573 0.850025 0.071834
Si Si5 0.331049 0.165524 0.437678
Si Si6 0.670154 0.938160 0.457929
O O1 0.171722 0.343443 0.878730
O O2 0.263496 0.430279 0.981979
O O3 0.193099 0.386198 0.377985
O O4 0.902352 0.539399 0.995089
O O5 0.932906 0.643498 0.832192
O O6 0.921652 0.620568 0.333203
O O7 0.273670 0.547339 0.527378
O O8 0.243501 0.621751 0.506953
O O9 0.174827 0.519679 0.359407
O O10 0.199196 0.541427 0.860591
O O11 0.437018 0.874036 0.073610
O O12 0.301662 0.201196 0.511949
O O13 0.718861 0.000000 0.500000
#
# Coordination Sequence:
#
# PCOD8323563 Si02
#       6
#     6  12  12  12   6  12
#     4   8  16  26  44  66  92 114 146 192 231 272
#     4  10  19  32  48  71  93 121 158 197 237 288
#     4  10  20  32  46  65  89 119 155 194 246 305
#     4  10  21  34  47  66  90 122 156 198 248 294
#     4   8  16  30  44  72 100 120 149 184 224 266
#     4  10  19  33  53  74  99 127 155 191 234 278
#
# _framework density 17.574983
#
# number of rings (size 3 to 8) (size 9 to 14) (size 15 to 20)
#    0.000    2.400    0.000    2.600    2.800    0.000 
#    3.600    2.000    0.000    3.600    0.000    0.000 
#    0.000    0.000    0.000    0.300    0.000    0.000 
#
# Total GULP energy -743477.615795 kJ/mol
# GULP energy per Si atom -12391.293597 kJ/mol
# Density = 1.753498 g / cm^3
# Si number density = 17.574983 Si / 1000 Ang^3
#
#
#
# Elastic Constant Matrix: (Units=GPa)
#
#
# Indices 1 2 3 4 5 6 
#
# 1 64.9266 38.3822 -0.6940 -1.8013 0.0000 0.0000
# 2 38.3822 64.9266 -0.6940 1.8013 0.0000 0.0000
# 3 -0.6940 -0.6940 63.8644 0.0000 0.0000 0.0000
# 4 -1.8013 1.8013 0.0000 15.8642 0.0000 0.0000
# 5 0.0000 0.0000 0.0000 0.0000 15.8642 -1.8013
# 6 0.0000 0.0000 0.0000 0.0000 -1.8013 13.2722
#
#
#
# Elastic Compliance Matrix: (Units=1/GPa)
#
#
# Indices 1 2 3 4 5 6 
#
# 1 0.023972 -0.014291 0.000105 0.004345 0.000000 0.000000
# 2 -0.014291 0.023972 0.000105 -0.004345 0.000000 0.000000
# 3 0.000105 0.000105 0.015660 0.000000 0.000000 0.000000
# 4 0.004345 -0.004345 0.000000 0.064022 0.000000 0.000000
# 5 0.000000 0.000000 0.000000 0.000000 0.064022 0.008689
# 6 0.000000 0.000000 0.000000 0.000000 0.008689 0.076525
#
#
# Mechanical properties :
#
#
# Convention : Reuss Voigt Hill
#
# Bulk Modulus (GPa) = 28.21391 29.74512 28.97952
# Shear Modulus (GPa) = 16.22603 19.44834 17.83719
#
# Velocity S-wave (km/s) = 3.04179 3.33016 3.18924
# Velocity P-wave (km/s) = 5.33151 5.63454 5.48512
#
# Compressibility (1/GPa) = 0.03544351
#
# Stress axis : x y z
#
# Youngs Moduli (GPa) = 41.71579 41.71579 63.85512
#
# Poissons Ratio (x) = 0.59614 -0.00672
# Poissons Ratio (y) = 0.59614 -0.00672
# Poissons Ratio (z) = -0.00439 -0.00439
#
# Static dielectric constant tensor:
#      x y z
#    x 3.080650 0.000000 0.000000 
#    y 0.000000 3.080650 0.000000 
#    z 0.000000 0.000000 3.448510 
# 
# 
# High freq. dielectric constant tensor:
#      x y z
#    x 1.640000 0.000000 0.000000 
#    y 0.000000 1.640000 0.000000 
#    z 0.000000 0.000000 1.706750 
# 
# From -- ./inp_files/708.got.cif
#   From: 2010.03.12/outbox.cif.g09.slc.cpg/sg164_1_cif.got.tgz:708.got - 2010.04.02 06:32:59.
