data_PCOD8323174
_publ_section_title
;
Structure prediction by ZEFSAII (Michael W. Deem and Ramdas Pophale) SiO2 
 PCOD8323174
Probable space group: P -3 1 M 
;
_chemical_formula_sum "Si O2"
_cell_formula_units_Z 84
_cell_length_a 15.888794
_cell_length_b 15.888794
_cell_length_c 23.715912
_cell_angle_alpha 90.000000
_cell_angle_beta 90.000000
_cell_angle_gamma 120.000000
_cell_volume 5185.042622
_symmetry_space_group_name_H-M "P -3 1 M "
_symmetry_group_IT_number 162
_symmetry_cell_setting 'hexagonal'
loop_
_space_group_symop_operation_xyz
x,y,z
-y,x-y,z
-x+y,-x,z
-y,-x,-z
-x+y,y,-z
x,x-y,-z
-x,-y,-z
y,-x+y,-z
x-y,x,-z
y,x,z
x-y,-y,z
-x,-x+y,z
loop_
_atom_site_type_symbol
_atom_site_label
_atom_site_fract_x
_atom_site_fract_y
_atom_site_fract_z
Si Si1 0.557985 0.115625 0.862157
Si Si2 0.442533 0.886959 0.562015
Si Si3 0.442875 0.887001 0.262929
Si Si4 0.399285 0.108147 0.064394
Si Si5 0.416745 0.302731 0.350735
Si Si6 0.108331 0.706768 0.063777
Si Si7 0.697119 0.583235 0.350213
O O1 0.580249 0.161309 0.799154
O O2 0.658167 0.149706 0.894518
O O3 0.496034 0.152885 0.896555
O O4 0.496724 0.000000 0.861084
O O5 0.418534 0.837067 0.500000
O O6 0.344857 0.848965 0.598771
O O7 0.523309 0.869784 0.592135
O O8 0.482129 0.000000 0.555483
O O9 0.523221 0.869186 0.293080
O O10 0.345148 0.849494 0.299584
O O11 0.483781 0.000000 0.256018
O O12 0.352715 0.177277 0.070574
O O13 0.316513 0.000000 0.081748
O O14 0.435417 0.109564 0.000572
O O15 0.332336 0.332336 0.356504
O O16 0.370569 0.185205 0.350536
O O17 0.000000 0.679175 0.082111
O O18 0.667773 0.667773 0.344371
#
# Coordination Sequence:
#
# PCOD8323174 Si02
#       7
#    12  12  12  12  12  12  12
#     4   9  16  28  46  64  82 108 143 179 219 263
#     4   8  15  29  47  65  87 115 148 187 225 260
#     4   8  16  30  45  61  84 112 142 181 221 262
#     4   9  17  29  45  64  87 115 146 180 218 261
#     4   9  17  30  47  66  91 122 152 183 221 263
#     4   9  17  29  45  64  87 115 146 180 218 261
#     4   9  17  30  47  66  91 122 152 183 221 263
#
# _framework density 16.200445999999999
#
# number of rings (size 3 to 8) (size 9 to 14) (size 15 to 20)
#    0.000    3.286    0.000    2.143    0.000    3.429 
#    7.714    0.000    0.000    0.571    0.000    2.000 
#    0.000    0.000    0.000   21.429    0.000    7.429 
#
# Total GULP energy -1040706.560043 kJ/mol
# GULP energy per Si atom -12389.363810 kJ/mol
# Density = 1.616357 g / cm^3
# Si number density = 16.200446 Si / 1000 Ang^3
#
#
#
# Elastic Constant Matrix: (Units=GPa)
#
#
# Indices 1 2 3 4 5 6 
#
# 1 81.5169 40.1488 28.8959 0.0000 -0.2496 0.0000
# 2 40.1488 81.5169 28.8959 0.0000 0.2496 0.0000
# 3 28.8959 28.8959 108.9362 0.0000 0.0000 0.0000
# 4 0.0000 0.0000 0.0000 11.3663 0.0000 0.2496
# 5 -0.2496 0.2496 0.0000 0.0000 11.3663 0.0000
# 6 0.0000 0.0000 0.0000 0.2496 0.0000 20.6840
#
#
#
# Elastic Compliance Matrix: (Units=1/GPa)
#
#
# Indices 1 2 3 4 5 6 
#
# 1 0.016792 -0.007388 -0.002494 0.000000 0.000531 0.000000
# 2 -0.007388 0.016792 -0.002494 0.000000 -0.000531 0.000000
# 3 -0.002494 -0.002494 0.010503 0.000000 0.000000 0.000000
# 4 0.000000 0.000000 0.000000 0.088003 0.000000 -0.001062
# 5 0.000531 -0.000531 0.000000 0.000000 0.088003 0.000000
# 6 0.000000 0.000000 0.000000 -0.001062 0.000000 0.048359
#
#
# Mechanical properties :
#
#
# Convention : Reuss Voigt Hill
#
# Bulk Modulus (GPa) = 51.72415 51.98347 51.85381
# Shear Modulus (GPa) = 16.68613 20.28526 18.48570
#
# Velocity S-wave (km/s) = 3.21281 3.54240 3.38162
# Velocity P-wave (km/s) = 6.76460 6.99205 6.87927
#
# Compressibility (1/GPa) = 0.01933333
#
# Stress axis : x y z
#
# Youngs Moduli (GPa) = 59.55256 59.55256 95.21046
#
# Poissons Ratio (x) = 0.43996 0.23750
# Poissons Ratio (y) = 0.43996 0.23750
# Poissons Ratio (z) = 0.14855 0.14855
#
# Static dielectric constant tensor:
#      x y z
#    x 2.810600 0.000000 0.000000 
#    y 0.000000 2.810600 0.000000 
#    z 0.000000 0.000000 3.645910 
# 
# 
# High freq. dielectric constant tensor:
#      x y z
#    x 1.593850 0.000000 0.000000 
#    y 0.000000 1.593850 0.000000 
#    z 0.000000 0.000000 1.633620 
# 
# From -- ./inp_files/3980.got.cif
#   From: 2010.03.12/outbox.cif.g09.slc.cpg/sg162_2_cif.got.tgz:3980.got - 2010.04.02 06:27:41.
