data_PCOD8323480
_publ_section_title
;
Structure prediction by ZEFSAII (Michael W. Deem and Ramdas Pophale) SiO2 
 PCOD8323480
Probable space group: P -3 M 1
;
_chemical_formula_sum "Si O2"
_cell_formula_units_Z 72
_cell_length_a 17.021059
_cell_length_b 17.021059
_cell_length_c 18.165846
_cell_angle_alpha 90.000000
_cell_angle_beta 90.000000
_cell_angle_gamma 120.000000
_cell_volume 4557.843553
_symmetry_space_group_name_H-M "P -3 M 1"
_symmetry_group_IT_number 164
_symmetry_cell_setting 'hexagonal'
loop_
_space_group_symop_operation_xyz
x,y,z
-y,x-y,z
-x+y,-x,z
x-y,-y,-z
-x,-x+y,-z
y,x,-z
-x,-y,-z
y,-x+y,-z
x-y,x,-z
-x+y,y,z
x,x-y,z
-y,-x,z
loop_
_atom_site_type_symbol
_atom_site_label
_atom_site_fract_x
_atom_site_fract_y
_atom_site_fract_z
Si Si1 0.819170 0.999870 0.917193
Si Si2 0.717066 0.100725 0.432591
Si Si3 0.846665 0.513815 0.282539
Si Si4 0.512719 0.844889 0.423207
Si Si5 0.064782 0.306343 0.355497
Si Si6 0.059102 0.760328 0.780702
O O1 0.850666 0.925333 0.910776
O O2 0.735923 0.977073 0.862677
O O3 0.903886 0.096115 0.895121
O O4 0.784892 0.000000 0.000000
O O5 0.818512 0.181489 0.441930
O O6 0.666649 0.114281 0.363055
O O7 0.659882 0.095380 0.504738
O O8 0.725868 0.011365 0.419387
O O9 0.739993 0.479985 0.279416
O O10 0.861783 0.430892 0.263079
O O11 0.902149 0.593239 0.222867
O O12 0.429052 0.858104 0.402885
O O13 0.477775 0.738888 0.438487
O O14 0.583238 0.882170 0.355101
O O15 0.136633 0.273265 0.375248
O O16 0.022921 0.268123 0.275931
O O17 0.139406 0.860595 0.758136
#
# Coordination Sequence:
#
# PCOD8323480 Si02
#       6
#    12  12  12  12  12  12
#     4   9  16  27  46  71  95 116 139 171 212 257
#     4   9  18  31  45  62  84 110 142 184 231 269
#     4   9  16  26  42  63  86 112 143 181 224 267
#     4  10  20  32  46  64  85 109 139 179 227 270
#     4  10  19  29  42  60  84 115 145 172 204 247
#     4   9  18  31  45  63  89 118 145 174 211 254
#
# _framework density 15.796944999999999
#
# number of rings (size 3 to 8) (size 9 to 14) (size 15 to 20)
#    0.000    2.667    0.000    3.500    0.000    4.667 
#    0.000    2.500    0.000    4.167    0.000    0.000 
#    0.000   16.000    0.000    0.667    0.000    0.000 
#
# Total GULP energy -892481.022195 kJ/mol
# GULP energy per Si atom -12395.569753 kJ/mol
# Density = 1.576099 g / cm^3
# Si number density = 15.796945 Si / 1000 Ang^3
#
#
#
# Elastic Constant Matrix: (Units=GPa)
#
#
# Indices 1 2 3 4 5 6 
#
# 1 91.8175 44.5584 39.8417 3.6433 0.0000 0.0000
# 2 44.5584 91.8175 39.8417 -3.6433 0.0000 0.0000
# 3 39.8417 39.8417 86.2090 0.0000 0.0000 0.0000
# 4 3.6433 -3.6433 0.0000 19.5653 0.0000 0.0000
# 5 0.0000 0.0000 0.0000 0.0000 19.5653 3.6433
# 6 0.0000 0.0000 0.0000 0.0000 3.6433 23.6296
#
#
#
# Elastic Compliance Matrix: (Units=1/GPa)
#
#
# Indices 1 2 3 4 5 6 
#
# 1 0.015915 -0.005870 -0.004642 -0.004057 0.000000 0.000000
# 2 -0.005870 0.015915 -0.004642 0.004057 0.000000 0.000000
# 3 -0.004642 -0.004642 0.015891 0.000000 0.000000 0.000000
# 4 -0.004057 0.004057 0.000000 0.052622 0.000000 0.000000
# 5 0.000000 0.000000 0.000000 0.000000 0.052622 -0.008113
# 6 0.000000 0.000000 0.000000 0.000000 -0.008113 0.043571
#
#
# Mechanical properties :
#
#
# Convention : Reuss Voigt Hill
#
# Bulk Modulus (GPa) = 57.43342 57.59197 57.51269
# Shear Modulus (GPa) = 21.49160 22.25887 21.87524
#
# Velocity S-wave (km/s) = 3.69248 3.75782 3.72530
# Velocity P-wave (km/s) = 7.39023 7.44077 7.41554
#
# Compressibility (1/GPa) = 0.01741147
#
# Stress axis : x y z
#
# Youngs Moduli (GPa) = 62.83259 62.83259 62.92986
#
# Poissons Ratio (x) = 0.36883 0.29215
# Poissons Ratio (y) = 0.36883 0.29215
# Poissons Ratio (z) = 0.29169 0.29169
#
# Static dielectric constant tensor:
#      x y z
#    x 3.014190 0.000000 0.000000 
#    y 0.000000 3.014190 0.000000 
#    z 0.000000 0.000000 2.932110 
# 
# 
# High freq. dielectric constant tensor:
#      x y z
#    x 1.603850 0.000000 0.000000 
#    y 0.000000 1.603850 0.000000 
#    z 0.000000 0.000000 1.579030 
# 
# From -- ./inp_files/4057.got.cif
#   From: 2010.03.12/outbox.cif.g09.slc.cpg/sg164_3_cif.got.tgz:4057.got - 2010.04.02 06:32:59.
