data_PCOD8323660
_publ_section_title
;
Structure prediction by ZEFSAII (Michael W. Deem and Ramdas Pophale) SiO2 
 PCOD8323660
Probable space group: P -3 M 1
;
_chemical_formula_sum "Si O2"
_cell_formula_units_Z 72
_cell_length_a 12.472248
_cell_length_b 12.472248
_cell_length_c 30.983913
_cell_angle_alpha 90.000000
_cell_angle_beta 90.000000
_cell_angle_gamma 120.000000
_cell_volume 4174.037744
_symmetry_space_group_name_H-M "P -3 M 1"
_symmetry_group_IT_number 164
_symmetry_cell_setting 'hexagonal'
loop_
_space_group_symop_operation_xyz
x,y,z
-y,x-y,z
-x+y,-x,z
x-y,-y,-z
-x,-x+y,-z
y,x,-z
-x,-y,-z
y,-x+y,-z
x-y,x,-z
-x+y,y,z
x,x-y,z
-y,-x,z
loop_
_atom_site_type_symbol
_atom_site_label
_atom_site_fract_x
_atom_site_fract_y
_atom_site_fract_z
Si Si1 0.251985 0.251985 0.000000
Si Si2 0.668079 0.083485 0.081539
Si Si3 0.916503 0.583096 0.754897
Si Si4 0.582302 0.665824 0.673316
Si Si5 0.753279 0.000000 0.500000
Si Si6 0.000001 0.249869 0.836451
Si Si7 0.998823 0.748149 0.406873
O O1 0.323401 0.329113 0.958011
O O2 0.235036 0.117518 0.995940
O O3 0.537534 0.075067 0.079695
O O4 0.773960 0.226041 0.078452
O O5 0.677055 0.022747 0.125741
O O6 0.776514 0.553028 0.751198
O O7 0.915129 0.457565 0.766236
O O8 0.984397 0.641267 0.710166
O O9 0.991079 0.681487 0.791979
O O10 0.588283 0.794142 0.683394
O O11 0.440055 0.559946 0.671601
O O12 0.645145 0.667314 0.627970
O O13 0.683597 0.988238 0.545615
O O14 0.886643 0.113358 0.508261
O O15 0.109853 0.219706 0.832750
O O16 0.876137 0.123864 0.847236
O O17 0.131223 0.868777 0.398510
O O18 0.893498 0.786995 0.403213
#
# Coordination Sequence:
#
# PCOD8323660 Si02
#       7
#     6  12  12  12   6  12  12
#     4  10  20  34  54  78 104 134 168 208 252 298
#     4  10  20  34  52  74 101 133 168 205 244 287
#     4  10  20  34  52  73  97 125 157 195 239 286
#     4  10  20  33  48  66  90 122 159 196 233 275
#     4   8  13  22  39  64  92 118 144 178 224 278
#     4  10  20  34  53  76 102 131 162 198 239 284
#     4   9  16  27  45  69  94 118 146 184 232 282
#
# _framework density 17.249485
#
# number of rings (size 3 to 8) (size 9 to 14) (size 15 to 20)
#    0.000    2.333    0.000    3.250    0.000    1.333 
#    0.000    2.083    0.000   15.667    0.000    0.000 
#    0.000    0.000    0.000    0.000    0.000    0.000 
#
# Total GULP energy -892636.282541 kJ/mol
# GULP energy per Si atom -12397.726146 kJ/mol
# Density = 1.721022 g / cm^3
# Si number density = 17.249485 Si / 1000 Ang^3
#
#
#
# Elastic Constant Matrix: (Units=GPa)
#
#
# Indices 1 2 3 4 5 6 
#
# 1 76.0044 36.6037 38.6008 1.5939 0.0000 0.0000
# 2 36.6037 76.0044 38.6008 -1.5939 0.0000 0.0000
# 3 38.6008 38.6008 108.8929 0.0000 0.0000 0.0000
# 4 1.5939 -1.5939 0.0000 23.7497 0.0000 0.0000
# 5 0.0000 0.0000 0.0000 0.0000 23.7497 1.5939
# 6 0.0000 0.0000 0.0000 0.0000 1.5939 19.7004
#
#
#
# Elastic Compliance Matrix: (Units=1/GPa)
#
#
# Indices 1 2 3 4 5 6 
#
# 1 0.018625 -0.006894 -0.004159 -0.001713 0.000000 0.000000
# 2 -0.006894 0.018625 -0.004159 0.001713 0.000000 0.000000
# 3 -0.004159 -0.004159 0.012132 0.000000 0.000000 0.000000
# 4 -0.001713 0.001713 0.000000 0.042336 0.000000 0.000000
# 5 0.000000 0.000000 0.000000 0.000000 0.042336 -0.003425
# 6 0.000000 0.000000 0.000000 0.000000 -0.003425 0.051038
#
#
# Mechanical properties :
#
#
# Convention : Reuss Voigt Hill
#
# Bulk Modulus (GPa) = 52.74245 54.27916 53.51081
# Shear Modulus (GPa) = 22.53951 23.24638 22.89295
#
# Velocity S-wave (km/s) = 3.61872 3.67503 3.64698
# Velocity P-wave (km/s) = 6.93562 7.03869 6.98735
#
# Compressibility (1/GPa) = 0.01896006
#
# Stress axis : x y z
#
# Youngs Moduli (GPa) = 53.69097 53.69097 82.42904
#
# Poissons Ratio (x) = 0.37013 0.34279
# Poissons Ratio (y) = 0.37013 0.34279
# Poissons Ratio (z) = 0.22328 0.22328
#
# Static dielectric constant tensor:
#      x y z
#    x 3.115220 0.000000 0.000000 
#    y 0.000000 3.115220 0.000000 
#    z 0.000000 0.000000 3.478390 
# 
# 
# High freq. dielectric constant tensor:
#      x y z
#    x 1.660550 0.000000 0.000000 
#    y 0.000000 1.660550 0.000000 
#    z 0.000000 0.000000 1.688530 
# 
# From -- ./inp_files/5610.got.cif
#   From: 2010.03.12/outbox.cif.g09.slc.cpg/sg164_3_cif.got.tgz:5610.got - 2010.04.02 06:32:59.
