data_PCOD8323056
_publ_section_title
;
Structure prediction by ZEFSAII (Michael W. Deem and Ramdas Pophale) SiO2 
 PCOD8323056
Probable space group: P -3 1 M 
;
_chemical_formula_sum "Si O2"
_cell_formula_units_Z 96
_cell_length_a 17.367896
_cell_length_b 17.367896
_cell_length_c 20.344636
_cell_angle_alpha 90.000000
_cell_angle_beta 90.000000
_cell_angle_gamma 120.000000
_cell_volume 5314.653750
_symmetry_space_group_name_H-M "P -3 1 M "
_symmetry_group_IT_number 162
_symmetry_cell_setting 'hexagonal'
loop_
_space_group_symop_operation_xyz
x,y,z
-y,x-y,z
-x+y,-x,z
-y,-x,-z
-x+y,y,-z
x,x-y,-z
-x,-y,-z
y,-x+y,-z
x-y,x,-z
y,x,z
x-y,-y,z
-x,-x+y,z
loop_
_atom_site_type_symbol
_atom_site_label
_atom_site_fract_x
_atom_site_fract_y
_atom_site_fract_z
Si Si1 0.728057 0.099774 0.868731
Si Si2 0.895446 0.532367 0.491920
Si Si3 0.627309 0.727336 0.881935
Si Si4 0.488215 0.331824 0.742560
Si Si5 0.489823 0.158241 0.007020
Si Si6 0.370905 0.271210 0.365680
Si Si7 0.490086 0.331611 0.243158
Si Si8 0.626249 0.897825 0.617652
O O1 0.833971 0.166474 0.876163
O O2 0.692680 0.106536 0.797671
O O3 0.675335 0.124132 0.921556
O O4 0.709442 0.000000 0.878960
O O5 0.851101 0.425551 0.500000
O O6 0.869286 0.553246 0.421259
O O7 0.862740 0.572655 0.549460
O O8 0.000000 0.575983 0.499546
O O9 0.707184 0.707184 0.870034
O O10 0.549438 0.677504 0.829148
O O11 0.585809 0.690973 0.953177
O O12 0.569083 0.429964 0.751742
O O13 0.524236 0.262431 0.745207
O O14 0.444256 0.330563 0.673114
O O15 0.568849 0.137698 0.000000
O O16 0.527157 0.263579 0.000000
O O17 0.290068 0.290068 0.379006
O O18 0.414711 0.313940 0.296200
O O19 0.331633 0.164857 0.365926
O O20 0.705538 0.000000 0.613777
#
# Coordination Sequence:
#
# PCOD8323056 Si02
#       8
#    12  12  12  12  12  12  12  12
#     4  10  21  35  51  72  97 127 162 201 244 286
#     4   9  17  30  49  72  96 122 154 191 231 280
#     4  10  21  35  51  72  97 127 162 201 244 286
#     4  10  20  33  50  73 101 131 161 194 234 281
#     4  10  20  33  50  73 102 134 165 196 232 277
#     4  10  20  33  50  72  97 127 163 203 245 286
#     4  10  20  33  50  73 101 131 161 194 234 281
#     4  10  20  33  50  72  97 127 163 203 245 286
#
# _framework density 18.063265999999999
#
# number of rings (size 3 to 8) (size 9 to 14) (size 15 to 20)
#    0.000    2.125    0.000    3.375    0.000    5.000 
#    0.000    2.500    0.000    4.000    0.000    0.000 
#    0.000   12.000    0.000    0.000    0.000    2.000 
#
# Total GULP energy -1190533.734399 kJ/mol
# GULP energy per Si atom -12401.393067 kJ/mol
# Density = 1.802215 g / cm^3
# Si number density = 18.063266 Si / 1000 Ang^3
#
#
#
# Elastic Constant Matrix: (Units=GPa)
#
#
# Indices 1 2 3 4 5 6 
#
# 1 82.9609 58.2654 -0.4234 0.0000 0.9515 0.0000
# 2 58.2654 82.9609 -0.4234 0.0000 -0.9515 0.0000
# 3 -0.4234 -0.4234 67.6643 0.0000 0.0000 0.0000
# 4 0.0000 0.0000 0.0000 18.9134 0.0000 -0.9515
# 5 0.9515 -0.9515 0.0000 0.0000 18.9134 0.0000
# 6 0.0000 0.0000 0.0000 -0.9515 0.0000 12.3478
#
#
#
# Elastic Compliance Matrix: (Units=1/GPa)
#
#
# Indices 1 2 3 4 5 6 
#
# 1 0.023866 -0.016785 0.000044 0.000000 -0.002045 0.000000
# 2 -0.016785 0.023866 0.000044 0.000000 0.002045 0.000000
# 3 0.000044 0.000044 0.014779 0.000000 0.000000 0.000000
# 4 0.000000 0.000000 0.000000 0.053078 0.000000 0.004090
# 5 -0.002045 0.002045 0.000000 0.000000 0.053078 0.000000
# 6 0.000000 0.000000 0.000000 0.004090 0.000000 0.081302
#
#
# Mechanical properties :
#
#
# Convention : Reuss Voigt Hill
#
# Bulk Modulus (GPa) = 34.34204 38.71370 36.52787
# Shear Modulus (GPa) = 17.06086 21.77940 19.42013
#
# Velocity S-wave (km/s) = 3.07662 3.47613 3.28246
# Velocity P-wave (km/s) = 5.62798 6.13108 5.88490
#
# Compressibility (1/GPa) = 0.02911883
#
# Stress axis : x y z
#
# Youngs Moduli (GPa) = 41.90072 41.90072 67.66181
#
# Poissons Ratio (x) = 0.70330 -0.00300
# Poissons Ratio (y) = 0.70330 -0.00300
# Poissons Ratio (z) = -0.00186 -0.00186
#
# Static dielectric constant tensor:
#      x y z
#    x 3.210290 0.000000 0.000000 
#    y 0.000000 3.210290 0.000000 
#    z 0.000000 0.000000 3.557880 
# 
# 
# High freq. dielectric constant tensor:
#      x y z
#    x 1.680420 0.000000 0.000000 
#    y 0.000000 1.680420 0.000000 
#    z 0.000000 0.000000 1.723790 
# 
# From -- ./inp_files/3912.got.cif
#   From: 2010.03.12/outbox.cif.g09.slc.cpg/sg162_2_cif.got.tgz:3912.got - 2010.04.02 06:27:41.
