data_PCOD8323120
_publ_section_title
;
Structure prediction by ZEFSAII (Michael W. Deem and Ramdas Pophale) SiO2 
 PCOD8323120
Probable space group: P -3 1 M 
;
_chemical_formula_sum "Si O2"
_cell_formula_units_Z 60
_cell_length_a 15.097290
_cell_length_b 15.097290
_cell_length_c 14.053906
_cell_angle_alpha 90.000000
_cell_angle_beta 90.000000
_cell_angle_gamma 120.000000
_cell_volume 2774.122731
_symmetry_space_group_name_H-M "P -3 1 M "
_symmetry_group_IT_number 162
_symmetry_cell_setting 'hexagonal'
loop_
_space_group_symop_operation_xyz
x,y,z
-y,x-y,z
-x+y,-x,z
-y,-x,-z
-x+y,y,-z
x,x-y,-z
-x,-y,-z
y,-x+y,-z
x-y,x,-z
y,x,z
x-y,-y,z
-x,-x+y,z
loop_
_atom_site_type_symbol
_atom_site_label
_atom_site_fract_x
_atom_site_fract_y
_atom_site_fract_z
Si Si1 0.736595 0.115059 0.077070
Si Si2 0.885869 0.767707 0.236083
Si Si3 0.217263 0.658537 0.211728
Si Si4 0.565648 0.448875 0.394146
Si Si5 0.351278 0.116751 0.409017
O O1 0.821595 0.118254 0.145535
O O2 0.657376 0.137546 0.135697
O O3 0.669562 0.000000 0.033554
O O4 0.796247 0.203754 0.000000
O O5 0.811339 0.811339 0.214874
O O6 0.851527 0.695906 0.328255
O O7 0.000000 0.860371 0.253665
O O8 0.236310 0.562109 0.196922
O O9 0.176542 0.645484 0.320731
O O10 0.582117 0.417883 0.500000
O O11 0.473189 0.473189 0.395355
O O12 0.671487 0.547640 0.363522
O O13 0.377988 0.188994 0.500000
O O14 0.271085 0.000000 0.438990
#
# Coordination Sequence:
#
# PCOD8323120 Si02
#       5
#    12  12  12  12  12
#     4  11  24  44  70  98 129 167 215 273 336 395
#     4  10  21  38  62  91 126 164 209 262 325 396
#     4  10  24  41  63  91 127 171 216 266 318 383
#     4  10  22  37  58  90 126 165 215 265 319 383
#     4  10  21  35  56  87 123 164 210 258 319 385
#
# _framework density 21.62846
#
# number of rings (size 3 to 8) (size 9 to 14) (size 15 to 20)
#    0.400    1.400    0.000    3.200    5.600    0.800 
#    0.000    4.000    0.000    6.400    0.000    0.000 
#    0.000    0.000    0.000    0.000    0.000    0.000 
#
# Total GULP energy -743819.923530 kJ/mol
# GULP energy per Si atom -12396.998725 kJ/mol
# Density = 2.157923 g / cm^3
# Si number density = 21.628460 Si / 1000 Ang^3
#
#
#
# Elastic Constant Matrix: (Units=GPa)
#
#
# Indices 1 2 3 4 5 6 
#
# 1 82.0021 27.7599 40.6359 -0.0001 0.6812 0.0000
# 2 27.7599 82.0021 40.6359 0.0001 -0.6812 0.0000
# 3 40.6359 40.6359 108.2850 0.0000 0.0000 0.0000
# 4 -0.0001 0.0001 0.0000 37.0726 0.0000 -0.6812
# 5 0.6812 -0.6812 0.0000 0.0000 37.0726 -0.0001
# 6 0.0000 0.0000 0.0000 -0.6812 -0.0001 27.1211
#
#
#
# Elastic Compliance Matrix: (Units=1/GPa)
#
#
# Indices 1 2 3 4 5 6 
#
# 1 0.015530 -0.002914 -0.004734 0.000000 -0.000339 0.000000
# 2 -0.002914 0.015530 -0.004734 0.000000 0.000339 0.000000
# 3 -0.004734 -0.004734 0.012788 0.000000 0.000000 0.000000
# 4 0.000000 0.000000 0.000000 0.026987 0.000000 0.000678
# 5 -0.000339 0.000339 0.000000 0.000000 0.026987 0.000000
# 6 0.000000 0.000000 0.000000 0.000678 0.000000 0.036889
#
#
# Mechanical properties :
#
#
# Convention : Reuss Voigt Hill
#
# Bulk Modulus (GPa) = 52.40314 54.48361 53.44337
# Shear Modulus (GPa) = 30.15002 31.13711 30.64357
#
# Velocity S-wave (km/s) = 3.73768 3.79837 3.76815
# Velocity P-wave (km/s) = 6.55045 6.66950 6.61024
#
# Compressibility (1/GPa) = 0.01908283
#
# Stress axis : x y z
#
# Youngs Moduli (GPa) = 64.39046 64.39046 78.19673
#
# Poissons Ratio (x) = 0.18764 0.37022
# Poissons Ratio (y) = 0.18764 0.37022
# Poissons Ratio (z) = 0.30485 0.30485
#
# Static dielectric constant tensor:
#      x y z
#    x 3.919320 0.000000 0.000000 
#    y 0.000000 3.919320 0.000000 
#    z 0.000000 0.000000 3.745810 
# 
# 
# High freq. dielectric constant tensor:
#      x y z
#    x 1.850850 0.000000 0.000000 
#    y 0.000000 1.850850 0.000000 
#    z 0.000000 0.000000 1.835450 
# 
# From -- ./inp_files/2942.got.cif
#   From: 2010.03.12/outbox.cif.g09.slc.cpg/sg162_2_cif.got.tgz:2942.got - 2010.04.02 06:27:41.
