data_PCOD8323476
_publ_section_title
;
Structure prediction by ZEFSAII (Michael W. Deem and Ramdas Pophale) SiO2 
 PCOD8323476
Probable space group: P -3 M 1
;
_chemical_formula_sum "Si O2"
_cell_formula_units_Z 90
_cell_length_a 26.757353
_cell_length_b 26.757353
_cell_length_c 8.881414
_cell_angle_alpha 90.000000
_cell_angle_beta 90.000000
_cell_angle_gamma 120.000000
_cell_volume 5506.796692
_symmetry_space_group_name_H-M "P -3 M 1"
_symmetry_group_IT_number 164
_symmetry_cell_setting 'hexagonal'
loop_
_space_group_symop_operation_xyz
x,y,z
-y,x-y,z
-x+y,-x,z
x-y,-y,-z
-x,-x+y,-z
y,x,-z
-x,-y,-z
y,-x+y,-z
x-y,x,-z
-x+y,y,z
x,x-y,z
-y,-x,z
loop_
_atom_site_type_symbol
_atom_site_label
_atom_site_fract_x
_atom_site_fract_y
_atom_site_fract_z
Si Si1 0.931952 0.523496 0.006631
Si Si2 0.439585 0.275817 0.509423
Si Si3 0.010451 0.270809 0.831491
Si Si4 0.588328 0.588328 0.500000
Si Si5 0.323446 0.400879 0.744702
Si Si6 0.497667 0.106788 0.675931
Si Si7 0.103925 0.785694 0.344130
Si Si8 0.223056 0.054733 0.411623
O O1 0.916394 0.458197 0.046962
O O2 0.908740 0.548556 0.135719
O O3 0.904168 0.525722 0.847290
O O4 0.000000 0.564606 0.000000
O O5 0.464086 0.232043 0.497102
O O6 0.422449 0.284743 0.341556
O O7 0.487632 0.334017 0.589393
O O8 0.384909 0.251352 0.617798
O O9 0.054304 0.339554 0.826318
O O10 0.036606 0.235411 0.749850
O O11 0.947472 0.252823 0.768085
O O12 0.000000 0.248524 0.000000
O O13 0.638658 0.608943 0.378234
O O14 0.577605 0.531087 0.584967
O O15 0.566029 0.132058 0.677111
O O16 0.152139 0.847861 0.274621
O O17 0.079141 0.796698 0.497206
O O18 0.202641 0.101321 0.390289
O O19 0.172402 0.000000 0.500000
#
# Coordination Sequence:
#
# PCOD8323476 Si02
#       8
#    12  12  12   6  12  12  12  12
#     4  10  20  33  47  72 109 139 163 199 248 306
#     4  10  21  36  52  70  97 132 172 214 253 293
#     4  11  21  28  46  72 101 134 172 206 246 293
#     4  10  19  28  48  72 100 132 168 200 247 296
#     4  11  20  30  47  69 101 136 173 203 247 298
#     4  10  20  33  52  75 101 131 166 207 254 305
#     4   9  18  34  48  65  93 133 171 207 248 290
#     4   9  18  34  54  72  97 132 171 210 248 293
#
# _framework density 16.343440000000001
#
# number of rings (size 3 to 8) (size 9 to 14) (size 15 to 20)
#    0.000    2.000    2.667    2.200    2.800    2.667 
#    0.000    0.667    0.000    0.400    0.000    0.000 
#    0.000    1.600    0.000    0.000    0.000    0.000 
#
# Total GULP energy -1115923.767468 kJ/mol
# GULP energy per Si atom -12399.152972 kJ/mol
# Density = 1.630624 g / cm^3
# Si number density = 16.343440 Si / 1000 Ang^3
#
#
#
# Elastic Constant Matrix: (Units=GPa)
#
#
# Indices 1 2 3 4 5 6 
#
# 1 81.6018 45.4703 44.4534 1.1398 0.0000 0.0000
# 2 45.4703 81.6018 44.4534 -1.1398 0.0000 0.0000
# 3 44.4534 44.4534 111.0371 0.0000 0.0000 0.0000
# 4 1.1398 -1.1398 0.0000 15.4841 0.0000 0.0000
# 5 0.0000 0.0000 0.0000 0.0000 15.4841 1.1398
# 6 0.0000 0.0000 0.0000 0.0000 1.1398 18.0658
#
#
#
# Elastic Compliance Matrix: (Units=1/GPa)
#
#
# Indices 1 2 3 4 5 6 
#
# 1 0.019369 -0.008437 -0.004376 -0.002047 0.000000 0.000000
# 2 -0.008437 0.019369 -0.004376 0.002047 0.000000 0.000000
# 3 -0.004376 -0.004376 0.012510 0.000000 0.000000 0.000000
# 4 -0.002047 0.002047 0.000000 0.064884 0.000000 0.000000
# 5 0.000000 0.000000 0.000000 0.000000 0.064884 -0.004094
# 6 0.000000 0.000000 0.000000 0.000000 -0.004094 0.055612
#
#
# Mechanical properties :
#
#
# Convention : Reuss Voigt Hill
#
# Bulk Modulus (GPa) = 59.28530 60.33279 59.80904
# Shear Modulus (GPa) = 18.07474 19.13102 18.60288
#
# Velocity S-wave (km/s) = 3.32916 3.42506 3.37745
# Velocity P-wave (km/s) = 7.15061 7.25514 7.20307
#
# Compressibility (1/GPa) = 0.01686759
#
# Stress axis : x y z
#
# Youngs Moduli (GPa) = 51.62981 51.62981 79.93493
#
# Poissons Ratio (x) = 0.43561 0.34983
# Poissons Ratio (y) = 0.43561 0.34983
# Poissons Ratio (z) = 0.22595 0.22595
#
# Static dielectric constant tensor:
#      x y z
#    x 3.023150 0.000000 0.000000 
#    y 0.000000 3.023150 0.000000 
#    z 0.000000 0.000000 3.141120 
# 
# 
# High freq. dielectric constant tensor:
#      x y z
#    x 1.609100 0.000000 0.000000 
#    y 0.000000 1.609100 0.000000 
#    z 0.000000 0.000000 1.631440 
# 
# From -- ./inp_files/2163.got.cif
#   From: 2010.03.12/outbox.cif.g09.slc.cpg/sg164_2_cif.got.tgz:2163.got - 2010.04.02 06:32:59.
