data_PCOD8323451
_publ_section_title
;
Structure prediction by ZEFSAII (Michael W. Deem and Ramdas Pophale) SiO2 
 PCOD8323451
Probable space group: P -3 M 1
;
_chemical_formula_sum "Si O2"
_cell_formula_units_Z 78
_cell_length_a 26.268988
_cell_length_b 26.268988
_cell_length_c 9.526889
_cell_angle_alpha 90.000000
_cell_angle_beta 90.000000
_cell_angle_gamma 120.000000
_cell_volume 5693.357055
_symmetry_space_group_name_H-M "P -3 M 1"
_symmetry_group_IT_number 164
_symmetry_cell_setting 'hexagonal'
loop_
_space_group_symop_operation_xyz
x,y,z
-y,x-y,z
-x+y,-x,z
x-y,-y,-z
-x,-x+y,-z
y,x,-z
-x,-y,-z
y,-x+y,-z
x-y,x,-z
-x+y,y,z
x,x-y,z
-y,-x,z
loop_
_atom_site_type_symbol
_atom_site_label
_atom_site_fract_x
_atom_site_fract_y
_atom_site_fract_z
Si Si1 0.531427 0.468574 0.668487
Si Si2 0.301119 0.488062 0.992271
Si Si3 0.531336 0.468665 0.195381
Si Si4 0.435814 0.274843 0.719341
Si Si5 0.332946 0.781028 0.461653
Si Si6 0.140266 0.660402 0.701622
Si Si7 0.064884 0.420165 0.461223
Si Si8 0.567396 0.432605 0.936043
O O1 0.502724 0.497277 0.765678
O O2 0.583993 0.518167 0.572944
O O3 0.559059 0.440941 0.773135
O O4 0.256699 0.513398 0.994874
O O5 0.298624 0.459761 0.839706
O O6 0.282403 0.438562 0.112482
O O7 0.365284 0.541356 0.022433
O O8 0.496862 0.404921 0.260393
O O9 0.537178 0.462823 0.027518
O O10 0.410643 0.205322 0.681794
O O11 0.500346 0.313290 0.651709
O O12 0.399245 0.305706 0.662578
O O13 0.396881 0.793761 0.415419
O O14 0.288360 0.711641 0.461837
O O15 0.335475 0.804058 0.620296
O O16 0.105936 0.679631 0.593676
O O17 0.000000 0.369007 0.500000
#
# Coordination Sequence:
#
# PCOD8323451 Si02
#       8
#     6  12   6  12  12  12  12   6
#     4  12  19  30  47  70  88 111 127 170 216 271
#     4  10  20  35  47  57  76 110 139 166 206 249
#     4  10  18  30  42  65  85 104 120 155 217 258
#     4   9  20  34  48  60  79 108 136 165 205 252
#     4  10  19  29  42  55  72  96 129 166 199 239
#     4  10  19  30  43  59  80 100 122 160 201 250
#     4  11  20  30  49  70  85 106 134 165 208 259
#     4  10  21  31  48  66  85 105 138 182 211 257
#
# _framework density 13.700177
#
# number of rings (size 3 to 8) (size 9 to 14) (size 15 to 20)
#    0.000    1.846    3.846    1.538    4.308    0.615 
#    0.462    0.769    0.000    0.000    0.000    0.000 
#    0.000    0.000    0.000    0.000    0.000    0.000 
#
# Total GULP energy -966467.068756 kJ/mol
# GULP energy per Si atom -12390.603446 kJ/mol
# Density = 1.366900 g / cm^3
# Si number density = 13.700177 Si / 1000 Ang^3
#
#
#
# Elastic Constant Matrix: (Units=GPa)
#
#
# Indices 1 2 3 4 5 6 
#
# 1 48.1716 21.8827 23.0870 -1.2659 0.0000 0.0000
# 2 21.8827 48.1716 23.0870 1.2659 0.0000 0.0000
# 3 23.0870 23.0870 83.8517 0.0000 0.0000 0.0000
# 4 -1.2659 1.2659 0.0000 17.0525 0.0000 0.0000
# 5 0.0000 0.0000 0.0000 0.0000 17.0525 -1.2659
# 6 0.0000 0.0000 0.0000 0.0000 -1.2659 13.1444
#
#
#
# Elastic Compliance Matrix: (Units=1/GPa)
#
#
# Indices 1 2 3 4 5 6 
#
# 1 0.027876 -0.010437 -0.004802 0.002844 0.000000 0.000000
# 2 -0.010437 0.027876 -0.004802 -0.002844 0.000000 0.000000
# 3 -0.004802 -0.004802 0.014570 0.000000 0.000000 0.000000
# 4 0.002844 -0.002844 0.000000 0.059065 0.000000 0.000000
# 5 0.000000 0.000000 0.000000 0.000000 0.059065 0.005688
# 6 0.000000 0.000000 0.000000 0.000000 0.005688 0.076626
#
#
# Mechanical properties :
#
#
# Convention : Reuss Voigt Hill
#
# Bulk Modulus (GPa) = 33.06625 35.14537 34.10581
# Shear Modulus (GPa) = 15.86104 16.92577 16.39341
#
# Velocity S-wave (km/s) = 3.40623 3.51870 3.46292
# Velocity P-wave (km/s) = 6.29745 6.49748 6.39825
#
# Compressibility (1/GPa) = 0.03024231
#
# Stress axis : x y z
#
# Youngs Moduli (GPa) = 35.87294 35.87294 68.63466
#
# Poissons Ratio (x) = 0.37439 0.32956
# Poissons Ratio (y) = 0.37439 0.32956
# Poissons Ratio (z) = 0.17225 0.17225
#
# Static dielectric constant tensor:
#      x y z
#    x 2.601550 0.000000 0.000000 
#    y 0.000000 2.601550 0.000000 
#    z 0.000000 0.000000 3.110130 
# 
# 
# High freq. dielectric constant tensor:
#      x y z
#    x 1.482320 0.000000 0.000000 
#    y 0.000000 1.482320 0.000000 
#    z 0.000000 0.000000 1.546820 
# 
# From -- ./inp_files/2149.got.cif
#   From: 2010.03.12/outbox.cif.g09.slc.cpg/sg164_2_cif.got.tgz:2149.got - 2010.04.02 06:32:59.
