data_PCOD8323705
_publ_section_title
;
Structure prediction by ZEFSAII (Michael W. Deem and Ramdas Pophale) SiO2 
 PCOD8323705
Probable space group: P -3 M 1
;
_chemical_formula_sum "Si O2"
_cell_formula_units_Z 60
_cell_length_a 12.787269
_cell_length_b 12.787269
_cell_length_c 25.403287
_cell_angle_alpha 90.000000
_cell_angle_beta 90.000000
_cell_angle_gamma 120.000000
_cell_volume 3597.295788
_symmetry_space_group_name_H-M "P -3 M 1"
_symmetry_group_IT_number 164
_symmetry_cell_setting 'hexagonal'
loop_
_space_group_symop_operation_xyz
x,y,z
-y,x-y,z
-x+y,-x,z
x-y,-y,-z
-x,-x+y,-z
y,x,-z
-x,-y,-z
y,-x+y,-z
x-y,x,-z
-x+y,y,z
x,x-y,z
-y,-x,z
loop_
_atom_site_type_symbol
_atom_site_label
_atom_site_fract_x
_atom_site_fract_y
_atom_site_fract_z
Si Si1 0.243203 0.245003 0.354984
Si Si2 0.908967 0.333754 0.855214
Si Si3 0.088641 0.666567 0.451588
Si Si4 0.999349 0.756172 0.058693
Si Si5 0.909176 0.576211 0.735995
O O1 0.257135 0.128568 0.362393
O O2 0.311877 0.338728 0.401408
O O3 0.307114 0.311411 0.300765
O O4 0.101767 0.203534 0.354517
O O5 0.897742 0.448871 0.866360
O O6 0.778771 0.221230 0.866080
O O7 0.952239 0.332858 0.795657
O O8 0.003777 0.335306 0.897129
O O9 0.107857 0.553929 0.440052
O O10 0.217662 0.782339 0.464414
O O11 0.000000 0.641747 0.500000
O O12 0.884652 0.769304 0.068131
O O13 0.112616 0.887385 0.067102
O O14 0.000000 0.706609 0.000000
O O15 0.769763 0.539525 0.727853
O O16 0.920346 0.460173 0.721120
#
# Coordination Sequence:
#
# PCOD8323705 Si02
#       5
#    12  12  12  12  12
#     4  10  20  33  49  70  97 127 158 193 234 278
#     4   9  17  29  46  68  92 118 149 187 231 276
#     4  10  20  34  53  76 101 129 161 197 235 275
#     4   9  17  29  45  65  89 118 152 189 228 270
#     4   9  17  30  49  71  93 118 150 190 234 278
#
# _framework density 16.679196000000001
#
# number of rings (size 3 to 8) (size 9 to 14) (size 15 to 20)
#    0.000    2.600    0.000    2.200    0.000    3.600 
#    0.000    2.000    0.000   10.400    0.000    0.000 
#    0.000    0.000    0.000    0.000    0.000    0.000 
#
# Total GULP energy -743944.593354 kJ/mol
# GULP energy per Si atom -12399.076556 kJ/mol
# Density = 1.664123 g / cm^3
# Si number density = 16.679196 Si / 1000 Ang^3
#
#
#
# Elastic Constant Matrix: (Units=GPa)
#
#
# Indices 1 2 3 4 5 6 
#
# 1 95.6941 44.6672 59.3448 -4.2000 0.0000 0.0000
# 2 44.6672 95.6941 59.3448 4.2000 0.0000 0.0000
# 3 59.3448 59.3448 115.6785 0.0000 0.0000 0.0000
# 4 -4.2000 4.2000 0.0000 33.2714 0.0000 0.0000
# 5 0.0000 0.0000 0.0000 0.0000 33.2714 -4.2000
# 6 0.0000 0.0000 0.0000 0.0000 -4.2000 25.5135
#
#
#
# Elastic Compliance Matrix: (Units=1/GPa)
#
#
# Indices 1 2 3 4 5 6 
#
# 1 0.016298 -0.003715 -0.006455 0.002526 0.000000 0.000000
# 2 -0.003715 0.016298 -0.006455 -0.002526 0.000000 0.000000
# 3 -0.006455 -0.006455 0.015268 0.000000 0.000000 0.000000
# 4 0.002526 -0.002526 0.000000 0.030694 0.000000 0.000000
# 5 0.000000 0.000000 0.000000 0.000000 0.030694 0.005053
# 6 0.000000 0.000000 0.000000 0.000000 0.005053 0.040027
#
#
# Mechanical properties :
#
#
# Convention : Reuss Voigt Hill
#
# Bulk Modulus (GPa) = 68.43260 70.42004 69.42632
# Shear Modulus (GPa) = 26.68074 27.99192 27.33633
#
# Velocity S-wave (km/s) = 4.00389 4.10109 4.05278
# Velocity P-wave (km/s) = 7.90523 8.04595 7.97590
#
# Compressibility (1/GPa) = 0.01461292
#
# Stress axis : x y z
#
# Youngs Moduli (GPa) = 61.35632 61.35632 65.49641
#
# Poissons Ratio (x) = 0.22795 0.42280
# Poissons Ratio (y) = 0.22795 0.42280
# Poissons Ratio (z) = 0.39608 0.39608
#
# Static dielectric constant tensor:
#      x y z
#    x 3.155200 0.000000 0.000000 
#    y 0.000000 3.155200 0.000000 
#    z 0.000000 0.000000 3.450720 
# 
# 
# High freq. dielectric constant tensor:
#      x y z
#    x 1.633720 0.000000 0.000000 
#    y 0.000000 1.633720 0.000000 
#    z 0.000000 0.000000 1.658690 
# 
# From -- ./inp_files/5161.got.cif
#   From: 2010.03.12/outbox.cif.g09.slc.cpg/sg164_3_cif.got.tgz:5161.got - 2010.04.02 06:32:59.
