data_PCOD8323926
_publ_section_title
;
Structure prediction by ZEFSAII (Michael W. Deem and Ramdas Pophale) SiO2 
 PCOD8323926
Probable space group: P -3 C 1
;
_chemical_formula_sum "Si O2"
_cell_formula_units_Z 52
_cell_length_a 11.092524
_cell_length_b 11.092524
_cell_length_c 22.312621
_cell_angle_alpha 90.000000
_cell_angle_beta 90.000000
_cell_angle_gamma 120.000000
_cell_volume 2377.617422
_symmetry_space_group_name_H-M "P -3 C 1"
_symmetry_group_IT_number 165
_symmetry_cell_setting 'hexagonal'
loop_
_space_group_symop_operation_xyz
x,y,z
-y,x-y,z
-x+y,-x,z
x-y,-y,1/2-z
-x,-x+y,1/2-z
y,x,1/2-z
-x,-y,-z
y,-x+y,-z
x-y,x,-z
-x+y,y,1/2+z
x,x-y,1/2+z
-y,-x,1/2+z
loop_
_atom_site_type_symbol
_atom_site_label
_atom_site_fract_x
_atom_site_fract_y
_atom_site_fract_z
Si Si1 0.417413 0.366246 0.316036
Si Si2 0.228115 0.738204 0.509959
Si Si3 0.000000 0.000000 0.571094
Si Si4 0.108778 0.705732 0.637096
Si Si5 0.832689 0.138808 0.106045
O O1 0.424004 0.424004 0.250000
O O2 0.565034 0.455896 0.348332
O O3 0.382164 0.205725 0.314611
O O4 0.300363 0.381441 0.351631
O O5 0.175472 0.572716 0.505172
O O6 0.177552 0.767876 0.572557
O O7 0.168769 0.792467 0.458663
O O8 0.145366 0.024374 0.596841
O O9 0.000000 0.000000 0.500000
O O10 0.952293 0.676593 0.638468
#
# Coordination Sequence:
#
# PCOD8323926 Si02
#       5
#    12  12   4  12  12
#     4  12  29  49  74 103 140 198 246 294 364 426
#     4  10  22  44  72 108 142 184 235 296 370 428
#     4  12  24  42  67 110 148 183 222 292 377 439
#     4  12  25  50  74 104 149 186 243 307 359 428
#     4  12  26  44  73 107 144 187 238 297 367 443
#
# _framework density 21.870635
#
# number of rings (size 3 to 8) (size 9 to 14) (size 15 to 20)
#    0.462    0.000    4.615    3.231    6.462    1.846 
#    1.385    0.000    0.000    0.000    0.000    0.000 
#    0.000    0.000    0.000    0.000    0.000    0.000 
#
# Total GULP energy -645090.615615 kJ/mol
# GULP energy per Si atom -12405.588762 kJ/mol
# Density = 2.182086 g / cm^3
# Si number density = 21.870635 Si / 1000 Ang^3
#
#
#
# Elastic Constant Matrix: (Units=GPa)
#
#
# Indices 1 2 3 4 5 6 
#
# 1 105.2556 19.8213 27.3027 -4.9903 0.0000 0.0000
# 2 19.8213 105.2556 27.3027 4.9903 0.0000 0.0000
# 3 27.3027 27.3027 87.9220 0.0000 0.0000 0.0000
# 4 -4.9903 4.9903 0.0000 26.6094 0.0000 0.0000
# 5 0.0000 0.0000 0.0000 0.0000 26.6094 -4.9903
# 6 0.0000 0.0000 0.0000 0.0000 -4.9903 42.7171
#
#
#
# Elastic Compliance Matrix: (Units=1/GPa)
#
#
# Indices 1 2 3 4 5 6 
#
# 1 0.010608 -0.001359 -0.002872 0.002244 0.000000 0.000000
# 2 -0.001359 0.010608 -0.002872 -0.002244 0.000000 0.000000
# 3 -0.002872 -0.002872 0.013157 0.000000 0.000000 0.000000
# 4 0.002244 -0.002244 0.000000 0.038422 0.000000 0.000000
# 5 0.000000 0.000000 0.000000 0.000000 0.038422 0.004489
# 6 0.000000 0.000000 0.000000 0.000000 0.004489 0.023934
#
#
# Mechanical properties :
#
#
# Convention : Reuss Voigt Hill
#
# Bulk Modulus (GPa) = 49.58599 49.69850 49.64225
# Shear Modulus (GPa) = 32.03454 34.12096 33.07775
#
# Velocity S-wave (km/s) = 3.83133 3.95413 3.89321
# Velocity P-wave (km/s) = 6.50336 6.60455 6.55415
#
# Compressibility (1/GPa) = 0.02016699
#
# Stress axis : x y z
#
# Youngs Moduli (GPa) = 94.26821 94.26821 76.00232
#
# Poissons Ratio (x) = 0.12812 0.21829
# Poissons Ratio (y) = 0.12812 0.21829
# Poissons Ratio (z) = 0.27075 0.27075
#
# Static dielectric constant tensor:
#      x y z
#    x 3.996530 0.000000 0.000000 
#    y 0.000000 3.996530 0.000000 
#    z 0.000000 0.000000 3.706780 
# 
# 
# High freq. dielectric constant tensor:
#      x y z
#    x 1.870950 0.000000 0.000000 
#    y 0.000000 1.870950 0.000000 
#    z 0.000000 0.000000 1.844900 
# 
# From -- ./inp_files/2587.got.cif
#   From: 2010.03.12/outbox.cif.g09.slc.cpg/sg165_2_cif.got.tgz:2587.got - 2010.04.02 06:36:38.
