data_PCOD8323939
_publ_section_title
;
Structure prediction by ZEFSAII (Michael W. Deem and Ramdas Pophale) SiO2 
 PCOD8323939
Probable space group: P -3 C 1
;
_chemical_formula_sum "Si O2"
_cell_formula_units_Z 46
_cell_length_a 10.917428
_cell_length_b 10.917428
_cell_length_c 17.485445
_cell_angle_alpha 90.000000
_cell_angle_beta 90.000000
_cell_angle_gamma 120.000000
_cell_volume 1804.878593
_symmetry_space_group_name_H-M "P -3 C 1"
_symmetry_group_IT_number 165
_symmetry_cell_setting 'hexagonal'
loop_
_space_group_symop_operation_xyz
x,y,z
-y,x-y,z
-x+y,-x,z
x-y,-y,1/2-z
-x,-x+y,1/2-z
y,x,1/2-z
-x,-y,-z
y,-x+y,-z
x-y,x,-z
-x+y,y,1/2+z
x,x-y,1/2+z
-y,-x,1/2+z
loop_
_atom_site_type_symbol
_atom_site_label
_atom_site_fract_x
_atom_site_fract_y
_atom_site_fract_z
Si Si1 0.356387 0.356387 0.250000
Si Si2 0.000000 0.000000 0.659893
Si Si3 0.162794 0.529244 0.611231
Si Si4 0.223098 0.296261 0.826120
Si Si5 0.308682 0.263712 0.512651
O O1 0.487116 0.390393 0.304352
O O2 0.326596 0.227981 0.194593
O O3 0.137115 0.147410 0.636602
O O4 0.000000 0.000000 0.750000
O O5 0.305091 0.514723 0.603566
O O6 0.058975 0.431061 0.544771
O O7 0.315257 0.315257 0.750000
O O8 0.315022 0.379654 0.900726
O O9 0.168692 0.271355 0.497515
#
# Coordination Sequence:
#
# PCOD8323939 Si02
#       5
#     6   4  12  12  12
#     4  12  20  48  72 100 142 204 254 310 384 424
#     4   9  15  30  52  98 160 172 212 304 378 424
#     4  10  27  54  71 104 155 198 261 311 363 472
#     4  11  19  34  66 110 151 184 234 306 380 448
#     4  12  23  42  72 114 155 195 243 318 395 447
#
# _framework density 25.48648
#
# number of rings (size 3 to 8) (size 9 to 14) (size 15 to 20)
#    0.522    0.522    6.522    3.391    0.000    1.043 
#    7.043    0.000    0.000    0.000    0.000    0.000 
#    0.000    0.000    0.000    0.000    0.000    0.000 
#
# Total GULP energy -570017.100303 kJ/mol
# GULP energy per Si atom -12391.676094 kJ/mol
# Density = 2.542847 g / cm^3
# Si number density = 25.486480 Si / 1000 Ang^3
#
#
#
# Elastic Constant Matrix: (Units=GPa)
#
#
# Indices 1 2 3 4 5 6 
#
# 1 56.6851 0.9286 30.5027 -6.9782 0.0000 0.0000
# 2 0.9286 56.6851 30.5027 6.9782 0.0000 0.0000
# 3 30.5027 30.5027 199.4082 0.0000 0.0000 0.0000
# 4 -6.9782 6.9782 0.0000 38.7774 0.0000 0.0000
# 5 0.0000 0.0000 0.0000 0.0000 38.7774 -6.9782
# 6 0.0000 0.0000 0.0000 0.0000 -6.9782 27.8783
#
#
#
# Elastic Compliance Matrix: (Units=1/GPa)
#
#
# Indices 1 2 3 4 5 6 
#
# 1 0.019746 0.000965 -0.003168 0.003380 0.000000 0.000000
# 2 0.000965 0.019746 -0.003168 -0.003380 0.000000 0.000000
# 3 -0.003168 -0.003168 0.005984 0.000000 0.000000 0.000000
# 4 0.003380 -0.003380 0.000000 0.027005 0.000000 0.000000
# 5 0.000000 0.000000 0.000000 0.000000 0.027005 0.006759
# 6 0.000000 0.000000 0.000000 0.000000 0.006759 0.037562
#
#
# Mechanical properties :
#
#
# Convention : Reuss Voigt Hill
#
# Bulk Modulus (GPa) = 28.78967 48.51626 38.65296
# Shear Modulus (GPa) = 31.37380 37.80959 34.59169
#
# Velocity S-wave (km/s) = 3.51236 3.85582 3.68809
# Velocity P-wave (km/s) = 5.26968 6.23703 5.77365
#
# Compressibility (1/GPa) = 0.03473468
#
# Stress axis : x y z
#
# Youngs Moduli (GPa) = 50.64220 50.64220 167.10985
#
# Poissons Ratio (x) = -0.04888 0.52943
# Poissons Ratio (y) = -0.04888 0.52943
# Poissons Ratio (z) = 0.16044 0.16044
#
# Static dielectric constant tensor:
#      x y z
#    x 3.009940 0.000000 0.000000 
#    y 0.000000 3.009940 0.000000 
#    z 0.000000 0.000000 5.117720 
# 
# 
# High freq. dielectric constant tensor:
#      x y z
#    x 2.002180 0.000000 0.000000 
#    y 0.000000 2.002180 0.000000 
#    z 0.000000 0.000000 2.040620 
# 
# From -- ./inp_files/2101.got.cif
#   From: 2010.03.12/outbox.cif.g09.slc.cpg/sg165_2_cif.got.tgz:2101.got - 2010.04.02 06:36:38.
