data_PCOD8323969
_publ_section_title
;
Structure prediction by ZEFSAII (Michael W. Deem and Ramdas Pophale) SiO2 
 PCOD8323969
Probable space group: P -3 C 1
;
_chemical_formula_sum "Si O2"
_cell_formula_units_Z 40
_cell_length_a 11.036318
_cell_length_b 11.036318
_cell_length_c 15.609047
_cell_angle_alpha 90.000000
_cell_angle_beta 90.000000
_cell_angle_gamma 120.000000
_cell_volume 1646.476102
_symmetry_space_group_name_H-M "P -3 C 1"
_symmetry_group_IT_number 165
_symmetry_cell_setting 'hexagonal'
loop_
_space_group_symop_operation_xyz
x,y,z
-y,x-y,z
-x+y,-x,z
x-y,-y,1/2-z
-x,-x+y,1/2-z
y,x,1/2-z
-x,-y,-z
y,-x+y,-z
x-y,x,-z
-x+y,y,1/2+z
x,x-y,1/2+z
-y,-x,1/2+z
loop_
_atom_site_type_symbol
_atom_site_label
_atom_site_fract_x
_atom_site_fract_y
_atom_site_fract_z
Si Si1 0.597820 0.048732 0.659329
Si Si2 0.000000 0.000000 0.646933
Si Si3 0.832209 0.125743 0.914028
Si Si4 0.115547 0.379158 0.897953
O O1 0.760216 0.171586 0.668928
O O2 0.518907 0.102675 0.596217
O O3 0.518760 0.000000 0.750000
O O4 0.592928 0.909747 0.622997
O O5 0.998421 0.862793 0.607266
O O6 0.000000 0.000000 0.750000
O O7 0.961221 0.259112 0.867934
O O8 0.826214 0.158389 0.013966
#
# Coordination Sequence:
#
# PCOD8323969 Si02
#       4
#    12   4  12  12
#     4  12  29  48  75 109 156 205 251 325 391 457
#     4  12  24  43  80 121 157 185 250 333 394 443
#     4  12  24  46  80 109 147 198 254 318 384 469
#     4  12  27  50  75 110 155 197 261 313 390 470
#
# _framework density 24.294308000000001
#
# number of rings (size 3 to 8) (size 9 to 14) (size 15 to 20)
#    0.000    0.000    6.000    2.400    4.200    1.200 
#    1.800    0.000    0.000    0.000    0.000    0.000 
#    0.000    0.000    0.000    0.000    0.000    0.000 
#
# Total GULP energy -495858.107376 kJ/mol
# GULP energy per Si atom -12396.452684 kJ/mol
# Density = 2.423901 g / cm^3
# Si number density = 24.294308 Si / 1000 Ang^3
#
#
#
# Elastic Constant Matrix: (Units=GPa)
#
#
# Indices 1 2 3 4 5 6 
#
# 1 129.0978 43.8437 34.1312 2.8779 0.0000 0.0000
# 2 43.8437 129.0978 34.1312 -2.8779 0.0000 0.0000
# 3 34.1312 34.1312 100.6923 0.0000 0.0000 0.0000
# 4 2.8779 -2.8779 0.0000 34.2726 0.0000 0.0000
# 5 0.0000 0.0000 0.0000 0.0000 34.2726 2.8779
# 6 0.0000 0.0000 0.0000 0.0000 2.8779 42.6270
#
#
#
# Elastic Compliance Matrix: (Units=1/GPa)
#
#
# Indices 1 2 3 4 5 6 
#
# 1 0.009236 -0.002561 -0.002263 -0.000991 0.000000 0.000000
# 2 -0.002561 0.009236 -0.002263 0.000991 0.000000 0.000000
# 3 -0.002263 -0.002263 0.011465 0.000000 0.000000 0.000000
# 4 -0.000991 0.000991 0.000000 0.029344 0.000000 0.000000
# 5 0.000000 0.000000 0.000000 0.000000 0.029344 -0.001981
# 6 0.000000 0.000000 0.000000 0.000000 -0.001981 0.023593
#
#
# Mechanical properties :
#
#
# Convention : Reuss Voigt Hill
#
# Bulk Modulus (GPa) = 63.43111 64.78890 64.11001
# Shear Modulus (GPa) = 37.98074 38.68657 38.33365
#
# Velocity S-wave (km/s) = 3.95822 3.99483 3.97657
# Velocity P-wave (km/s) = 6.85975 6.92853 6.89423
#
# Compressibility (1/GPa) = 0.01576513
#
# Stress axis : x y z
#
# Youngs Moduli (GPa) = 108.27220 108.27220 87.22022
#
# Poissons Ratio (x) = 0.27724 0.19736
# Poissons Ratio (y) = 0.27724 0.19736
# Poissons Ratio (z) = 0.24499 0.24499
#
# Static dielectric constant tensor:
#      x y z
#    x 4.428740 0.000000 0.000000 
#    y 0.000000 4.428740 0.000000 
#    z 0.000000 0.000000 3.944490 
# 
# 
# High freq. dielectric constant tensor:
#      x y z
#    x 1.975510 0.000000 0.000000 
#    y 0.000000 1.975510 0.000000 
#    z 0.000000 0.000000 1.936780 
# 
# From -- ./inp_files/2049.got.cif
#   From: 2010.03.12/outbox.cif.g09.slc.cpg/sg165_2_cif.got.tgz:2049.got - 2010.04.02 06:36:38.
