data_PCOD8323290
_publ_section_title
;
Structure prediction by ZEFSAII (Michael W. Deem and Ramdas Pophale) SiO2 
 PCOD8323290
Probable space group: P -3 1 C
;
_chemical_formula_sum "Si O2"
_cell_formula_units_Z 76
_cell_length_a 16.969468
_cell_length_b 16.969468
_cell_length_c 14.258773
_cell_angle_alpha 90.000000
_cell_angle_beta 90.000000
_cell_angle_gamma 120.000000
_cell_volume 3555.897561
_symmetry_space_group_name_H-M "P -3 1 C"
_symmetry_group_IT_number 163
_symmetry_cell_setting 'hexagonal'
loop_
_space_group_symop_operation_xyz
x,y,z
-y,x-y,z
-x+y,-x,z
-y,-x,1/2-z
-x+y,y,1/2-z
x,x-y,1/2-z
-x,-y,-z
y,-x+y,-z
x-y,x,-z
y,x,1/2+z
x-y,-y,1/2+z
-x,-x+y,1/2+z
loop_
_atom_site_type_symbol
_atom_site_label
_atom_site_fract_x
_atom_site_fract_y
_atom_site_fract_z
Si Si1 0.823759 0.736116 0.092756
Si Si2 0.232341 0.565118 0.995697
Si Si3 0.696096 0.720566 0.251502
Si Si4 0.665326 0.493929 0.702883
Si Si5 0.000000 0.000000 0.859961
Si Si6 0.575549 0.836097 0.659933
Si Si7 0.029485 0.183112 0.393540
O O1 0.751958 0.746785 0.155367
O O2 0.804624 0.633146 0.095073
O O3 0.923703 0.798718 0.134357
O O4 0.811714 0.763929 0.989775
O O5 0.334063 0.577268 0.992365
O O6 0.180494 0.516119 0.090720
O O7 0.175076 0.507510 0.904885
O O8 0.595553 0.694140 0.227274
O O9 0.697203 0.637557 0.306509
O O10 0.739652 0.813257 0.313949
O O11 0.567446 0.432555 0.750000
O O12 0.732031 0.464062 0.750000
O O13 0.940589 0.046079 0.896572
O O14 0.000000 0.000000 0.750000
O O15 0.538321 0.769161 0.750000
#
# Coordination Sequence:
#
# PCOD8323290 Si02
#       7
#    12  12  12  12   4  12  12
#     4  10  22  40  62  92 133 179 224 277 335 408
#     4  10  22  42  72 105 132 181 228 276 343 411
#     4  10  25  43  66  95 131 181 224 285 345 408
#     4  12  24  45  68  98 138 176 231 283 343 409
#     4  12  24  40  59  91 142 173 232 307 329 403
#     4   9  21  45  66  98 144 175 221 280 341 407
#     4  11  23  39  62  90 130 178 231 274 343 397
#
# _framework density 21.372944
#
# number of rings (size 3 to 8) (size 9 to 14) (size 15 to 20)
#    0.316    1.263    1.579    3.474    6.632    3.158 
#    5.684    2.368    0.000    0.000    0.000    0.000 
#    0.000    0.000    0.000    0.000    0.000    0.000 
#
# Total GULP energy -942309.730505 kJ/mol
# GULP energy per Si atom -12398.812243 kJ/mol
# Density = 2.132430 g / cm^3
# Si number density = 21.372944 Si / 1000 Ang^3
#
#
#
# Elastic Constant Matrix: (Units=GPa)
#
#
# Indices 1 2 3 4 5 6 
#
# 1 80.7530 22.2925 63.6876 -0.0001 0.9694 0.0000
# 2 22.2925 80.7530 63.6876 0.0001 -0.9694 0.0000
# 3 63.6876 63.6876 152.2936 0.0000 0.0000 0.0000
# 4 -0.0001 0.0001 0.0000 35.4564 0.0000 -0.9694
# 5 0.9694 -0.9694 0.0000 0.0000 35.4564 -0.0001
# 6 0.0000 0.0000 0.0000 -0.9694 -0.0001 29.2302
#
#
#
# Elastic Compliance Matrix: (Units=1/GPa)
#
#
# Indices 1 2 3 4 5 6 
#
# 1 0.018605 0.001484 -0.008401 0.000000 -0.000468 0.000000
# 2 0.001484 0.018605 -0.008401 0.000000 0.000468 0.000000
# 3 -0.008401 -0.008401 0.013593 0.000000 0.000000 0.000000
# 4 0.000000 0.000000 0.000000 0.028229 0.000000 0.000936
# 5 -0.000468 0.000468 0.000000 0.000000 0.028229 0.000000
# 6 0.000000 0.000000 0.000000 0.000936 0.000000 0.034242
#
#
# Mechanical properties :
#
#
# Convention : Reuss Voigt Hill
#
# Bulk Modulus (GPa) = 49.58678 68.12609 58.85644
# Shear Modulus (GPa) = 27.95452 30.97071 29.46262
#
# Velocity S-wave (km/s) = 3.62047 3.81078 3.71684
# Velocity P-wave (km/s) = 6.38186 7.16288 6.78362
#
# Compressibility (1/GPa) = 0.02016666
#
# Stress axis : x y z
#
# Youngs Moduli (GPa) = 53.74882 53.74882 73.56884
#
# Poissons Ratio (x) = -0.07976 0.61805
# Poissons Ratio (y) = -0.07976 0.61805
# Poissons Ratio (z) = 0.45155 0.45155
#
# Static dielectric constant tensor:
#      x y z
#    x 3.808500 0.000000 0.000000 
#    y 0.000000 3.808500 0.000000 
#    z 0.000000 0.000000 3.812300 
# 
# 
# High freq. dielectric constant tensor:
#      x y z
#    x 1.828580 0.000000 0.000000 
#    y 0.000000 1.828580 0.000000 
#    z 0.000000 0.000000 1.850910 
# 
# From -- ./inp_files/2615.got.cif
#   From: 2010.03.12/outbox.cif.g09.slc.cpg/sg163_2_cif.got.tgz:2615.got - 2010.04.02 06:30:25.
