data_PCOD8323276
_publ_section_title
;
Structure prediction by ZEFSAII (Michael W. Deem and Ramdas Pophale) SiO2 
 PCOD8323276
Probable space group: P -3 1 C
;
_chemical_formula_sum "Si O2"
_cell_formula_units_Z 64
_cell_length_a 14.920666
_cell_length_b 14.920666
_cell_length_c 16.872008
_cell_angle_alpha 90.000000
_cell_angle_beta 90.000000
_cell_angle_gamma 120.000000
_cell_volume 3252.923290
_symmetry_space_group_name_H-M "P -3 1 C"
_symmetry_group_IT_number 163
_symmetry_cell_setting 'hexagonal'
loop_
_space_group_symop_operation_xyz
x,y,z
-y,x-y,z
-x+y,-x,z
-y,-x,1/2-z
-x+y,y,1/2-z
x,x-y,1/2-z
-x,-y,-z
y,-x+y,-z
x-y,x,-z
y,x,1/2+z
x-y,-y,1/2+z
-x,-x+y,1/2+z
loop_
_atom_site_type_symbol
_atom_site_label
_atom_site_fract_x
_atom_site_fract_y
_atom_site_fract_z
Si Si1 0.223741 0.072867 0.882102
Si Si2 0.730951 0.037495 0.981203
Si Si3 0.136761 0.471475 0.899605
Si Si4 0.000000 0.000000 0.842800
Si Si5 0.946384 0.263417 0.265833
Si Si6 0.552424 0.879647 0.884006
O O1 0.296209 0.191488 0.910036
O O2 0.114634 0.066735 0.875769
O O3 0.254970 0.046373 0.795008
O O4 0.213129 0.988921 0.948010
O O5 0.633084 0.927066 0.956222
O O6 0.686344 0.109560 0.012661
O O7 0.060773 0.389681 0.837187
O O8 0.114617 0.564906 0.896961
O O9 0.250705 0.494098 0.874401
O O10 0.000000 0.000000 0.750000
O O11 0.852450 0.147551 0.250000
O O12 0.952019 0.329884 0.188937
#
# Coordination Sequence:
#
# PCOD8323276 Si02
#       6
#    12  12  12   4  12  12
#     4  11  23  39  55  88 127 167 208 240 301 363
#     4  11  22  38  59  84 124 162 203 249 305 368
#     4  10  21  38  59  88 115 155 198 256 312 366
#     4  12  27  34  62  88 126 178 212 247 279 373
#     4   9  21  37  58  86 121 155 201 249 295 363
#     4  11  21  38  61  87 117 155 203 259 313 368
#
# _framework density 19.674610999999999
#
# number of rings (size 3 to 8) (size 9 to 14) (size 15 to 20)
#    0.000    1.500    1.875    3.188    7.875    0.750 
#    0.000    1.875    0.000    0.000    0.000    0.000 
#    0.000    0.000    0.000    0.000    0.000    0.000 
#
# Total GULP energy -792854.303336 kJ/mol
# GULP energy per Si atom -12388.348490 kJ/mol
# Density = 1.962983 g / cm^3
# Si number density = 19.674611 Si / 1000 Ang^3
#
#
#
# Elastic Constant Matrix: (Units=GPa)
#
#
# Indices 1 2 3 4 5 6 
#
# 1 105.2209 38.8048 43.1835 0.0001 2.0417 0.0000
# 2 38.8048 105.2209 43.1835 -0.0001 -2.0417 0.0000
# 3 43.1835 43.1835 83.1941 0.0000 0.0000 0.0000
# 4 0.0001 -0.0001 0.0000 43.2229 0.0000 -2.0417
# 5 2.0417 -2.0417 0.0000 0.0000 43.2229 0.0001
# 6 0.0000 0.0000 0.0000 -2.0417 0.0001 33.2081
#
#
#
# Elastic Compliance Matrix: (Units=1/GPa)
#
#
# Indices 1 2 3 4 5 6 
#
# 1 0.012591 -0.002510 -0.005233 0.000000 -0.000713 0.000000
# 2 -0.002510 0.012591 -0.005233 0.000000 0.000713 0.000000
# 3 -0.005233 -0.005233 0.017452 0.000000 0.000000 0.000000
# 4 0.000000 0.000000 0.000000 0.023203 0.000000 0.001427
# 5 -0.000713 0.000713 0.000000 0.000000 0.023203 0.000000
# 6 0.000000 0.000000 0.000000 0.001427 0.000000 0.030201
#
#
# Mechanical properties :
#
#
# Convention : Reuss Voigt Hill
#
# Bulk Modulus (GPa) = 59.93943 60.44213 60.19078
# Shear Modulus (GPa) = 33.16681 35.16171 34.16426
#
# Velocity S-wave (km/s) = 4.11026 4.23207 4.17161
# Velocity P-wave (km/s) = 7.28404 7.39379 7.33912
#
# Compressibility (1/GPa) = 0.01668351
#
# Stress axis : x y z
#
# Youngs Moduli (GPa) = 79.42317 79.42317 57.29856
#
# Poissons Ratio (x) = 0.19932 0.29983
# Poissons Ratio (y) = 0.19932 0.29983
# Poissons Ratio (z) = 0.41561 0.41561
#
# Static dielectric constant tensor:
#      x y z
#    x 3.541810 0.000000 0.000000 
#    y 0.000000 3.541810 0.000000 
#    z 0.000000 0.000000 3.811380 
# 
# 
# High freq. dielectric constant tensor:
#      x y z
#    x 1.755840 0.000000 0.000000 
#    y 0.000000 1.755840 0.000000 
#    z 0.000000 0.000000 1.774350 
# 
# From -- ./inp_files/3077.got.cif
#   From: 2010.03.12/outbox.cif.g09.slc.cpg/sg163_2_cif.got.tgz:3077.got - 2010.04.02 06:30:25.
