data_PCOD8323998
_publ_section_title
;
Structure prediction by ZEFSAII (Michael W. Deem and Ramdas Pophale) SiO2 
 PCOD8323998
Probable space group: R -3 M
;
_chemical_formula_sum "Si O2"
_cell_formula_units_Z 162
_cell_length_a 24.852368
_cell_length_b 24.852368
_cell_length_c 19.536889
_cell_angle_alpha 90.000000
_cell_angle_beta 90.000000
_cell_angle_gamma 120.000000
_cell_volume 10450.127574
_symmetry_space_group_name_H-M "R -3 M"
_symmetry_group_IT_number 166
_symmetry_cell_setting 'hexagonal'
loop_
_space_group_symop_operation_xyz
x,y,z
-y,x-y,z
-x+y,-x,z
x-y,-y,-z
-x,-x+y,-z
y,x,-z
-x,-y,-z
y,-x+y,-z
x-y,x,-z
-x+y,y,z
x,x-y,z
-y,-x,z
2/3+x,1/3+y,1/3+z
2/3-y,1/3+x-y,1/3+z
2/3-x+y,1/3-x,1/3+z
2/3+x-y,1/3-y,1/3-z
2/3-x,1/3-x+y,1/3-z
2/3+y,1/3+x,1/3-z
2/3-x,1/3-y,1/3-z
2/3+y,1/3-x+y,1/3-z
2/3+x-y,1/3+x,1/3-z
2/3-x+y,1/3+y,1/3+z
2/3+x,1/3+x-y,1/3+z
2/3-y,1/3-x,1/3+z
1/3+x,2/3+y,2/3+z
1/3-y,2/3+x-y,2/3+z
1/3-x+y,2/3-x,2/3+z
1/3+x-y,2/3-y,2/3-z
1/3-x,2/3-x+y,2/3-z
1/3+y,2/3+x,2/3-z
1/3-x,2/3-y,2/3-z
1/3+y,2/3-x+y,2/3-z
1/3+x-y,2/3+x,2/3-z
1/3-x+y,2/3+y,2/3+z
1/3+x,2/3+x-y,2/3+z
1/3-y,2/3-x,2/3+z
loop_
_atom_site_type_symbol
_atom_site_label
_atom_site_fract_x
_atom_site_fract_y
_atom_site_fract_z
Si Si1 0.212105 0.545950 0.461039
Si Si2 0.821122 0.298563 0.265511
Si Si3 0.278540 0.992274 0.118129
Si Si4 0.000000 0.361104 0.000000
Si Si5 0.525696 0.926155 0.905705
O O1 0.284423 0.568845 0.450989
O O2 0.199083 0.599542 0.432122
O O3 0.196145 0.534393 0.540826
O O4 0.169487 0.481158 0.422851
O O5 0.774536 0.225465 0.273496
O O6 0.820863 0.333334 0.333334
O O7 0.887147 0.304211 0.252052
O O8 0.226367 0.937398 0.165938
O O9 0.333334 0.041317 0.166667
O O10 0.307875 0.968171 0.059240
O O11 0.050986 0.426094 0.967918
O O12 0.472209 0.944418 0.915016
#
# Coordination Sequence:
#
# PCOD8323998 Si02
#       5
#    36  36  36  18  36
#     4   9  17  29  44  63  88 116 147 183 220 260
#     4  10  18  28  42  61  86 115 148 180 213 254
#     4   9  18  31  45  63  88 114 147 187 222 265
#     4  10  17  32  48  66  90 120 151 192 230 268
#     4   9  18  31  49  68  90 119 153 187 229 277
#
# _framework density 15.502203
#
# number of rings (size 3 to 8) (size 9 to 14) (size 15 to 20)
#    0.000    2.667    1.111    1.222    0.000    1.333 
#    0.000    4.444    0.000    3.556    0.000    0.000 
#    0.000    0.000    0.000    0.000    0.000  124.667 
#
# Total GULP energy -669203.055162 kJ/mol
# GULP energy per Si atom -12392.649170 kJ/mol
# Density = 1.546692 g / cm^3
# Si number density = 15.502203 Si / 1000 Ang^3
#
#
#
# Elastic Constant Matrix: (Units=GPa)
#
#
# Indices 1 2 3 4 5 6 
#
# 1 95.9076 56.3034 44.0507 4.7765 -0.0004 0.0000
# 2 56.3034 95.9076 44.0507 -4.7765 0.0004 0.0000
# 3 44.0507 44.0507 70.1794 0.0000 0.0000 0.0000
# 4 4.7765 -4.7765 0.0000 12.6940 0.0000 0.0004
# 5 -0.0004 0.0004 0.0000 0.0000 12.6940 4.7765
# 6 0.0000 0.0000 0.0000 0.0004 4.7765 19.8021
#
#
#
# Elastic Compliance Matrix: (Units=1/GPa)
#
#
# Indices 1 2 3 4 5 6 
#
# 1 0.019045 -0.008726 -0.006477 -0.010449 0.000001 0.000000
# 2 -0.008726 0.019045 -0.006477 0.010449 -0.000001 0.000000
# 3 -0.006477 -0.006477 0.022380 0.000000 0.000000 0.000000
# 4 -0.010449 0.010449 0.000000 0.086641 0.000000 -0.000002
# 5 0.000001 -0.000001 0.000000 0.000000 0.086641 -0.020899
# 6 0.000000 0.000000 0.000000 -0.000002 -0.020899 0.055541
#
#
# Mechanical properties :
#
#
# Convention : Reuss Voigt Hill
#
# Bulk Modulus (GPa) = 58.44566 61.20046 59.82306
# Shear Modulus (GPa) = 14.77737 16.87734 15.82735
#
# Velocity S-wave (km/s) = 3.09081 3.30313 3.19874
# Velocity P-wave (km/s) = 7.10780 7.35608 7.23301
#
# Compressibility (1/GPa) = 0.01710991
#
# Stress axis : x y z
#
# Youngs Moduli (GPa) = 52.50835 52.50835 44.68234
#
# Poissons Ratio (x) = 0.45818 0.28941
# Poissons Ratio (y) = 0.45818 0.28941
# Poissons Ratio (z) = 0.34009 0.34009
#
# Static dielectric constant tensor:
#      x y z
#    x 3.016320 0.000000 0.000000 
#    y 0.000000 3.016320 0.000000 
#    z 0.000000 0.000000 2.946890 
# 
# 
# High freq. dielectric constant tensor:
#      x y z
#    x 1.591300 0.000000 0.000000 
#    y 0.000000 1.591300 0.000000 
#    z 0.000000 0.000000 1.582800 
# 
# From -- ./inp_files/7059.got.cif
#   From: 2010.03.12/outbox.cif.g09.slc.cpg/sg166_4_cif.got.tgz:7059.got - 2010.04.02 06:38:31.
