data_PCOD8323148
_publ_section_title
;
Structure prediction by ZEFSAII (Michael W. Deem and Ramdas Pophale) SiO2 
 PCOD8323148
Probable space group: P -3 1 M 
;
_chemical_formula_sum "Si O2"
_cell_formula_units_Z 42
_cell_length_a 14.086276
_cell_length_b 14.086276
_cell_length_c 11.897122
_cell_angle_alpha 90.000000
_cell_angle_beta 90.000000
_cell_angle_gamma 120.000000
_cell_volume 2044.395582
_symmetry_space_group_name_H-M "P -3 1 M "
_symmetry_group_IT_number 162
_symmetry_cell_setting 'hexagonal'
loop_
_space_group_symop_operation_xyz
x,y,z
-y,x-y,z
-x+y,-x,z
-y,-x,-z
-x+y,y,-z
x,x-y,-z
-x,-y,-z
y,-x+y,-z
x-y,x,-z
y,x,z
x-y,-y,z
-x,-x+y,z
loop_
_atom_site_type_symbol
_atom_site_label
_atom_site_fract_x
_atom_site_fract_y
_atom_site_fract_z
Si Si1 0.124386 0.702945 0.291894
Si Si2 0.877155 0.205730 0.124373
Si Si3 0.451779 0.575417 0.121039
Si Si4 0.262645 0.525290 0.500000
O O1 0.118999 0.796114 0.215790
O O2 0.175377 0.641180 0.217533
O O3 0.208810 0.762948 0.393700
O O4 0.000000 0.620334 0.334756
O O5 0.874646 0.315177 0.156551
O O6 0.000000 0.225913 0.136098
O O7 0.834410 0.165591 0.000000
O O8 0.474009 0.474009 0.107639
O O9 0.408207 0.591794 0.000000
O O10 0.395870 0.604131 0.500000
#
# Coordination Sequence:
#
# PCOD8323148 Si02
#       4
#    12  12  12   6
#     4  11  22  39  62  85 115 159 204 244 294 357
#     4  11  21  35  57  88 124 156 194 242 295 357
#     4   9  17  32  54  84 118 149 187 237 292 352
#     4  10  24  42  57  86 123 150 200 246 296 352
#
# _framework density 20.543970999999999
#
# number of rings (size 3 to 8) (size 9 to 14) (size 15 to 20)
#    0.286    1.429    2.857    2.571    0.000    1.714 
#    1.714    1.429    0.000    5.143    0.000    1.000 
#    0.000    0.000    0.000    0.000    0.000    0.000 
#
# Total GULP energy -520521.898206 kJ/mol
# GULP energy per Si atom -12393.378529 kJ/mol
# Density = 2.049721 g / cm^3
# Si number density = 20.543971 Si / 1000 Ang^3
#
#
#
# Elastic Constant Matrix: (Units=GPa)
#
#
# Indices 1 2 3 4 5 6 
#
# 1 69.5063 23.6774 35.6009 0.0002 3.4760 0.0000
# 2 23.6774 69.5063 35.6009 -0.0002 -3.4760 0.0000
# 3 35.6009 35.6009 148.4261 0.0000 0.0000 0.0000
# 4 0.0002 -0.0002 0.0000 21.0441 0.0000 -3.4760
# 5 3.4760 -3.4760 0.0000 0.0000 21.0441 0.0002
# 6 0.0000 0.0000 0.0000 -3.4760 0.0002 22.9144
#
#
#
# Elastic Compliance Matrix: (Units=1/GPa)
#
#
# Indices 1 2 3 4 5 6 
#
# 1 0.017760 -0.004621 -0.003152 0.000000 -0.003697 0.000000
# 2 -0.004621 0.017760 -0.003152 0.000000 0.003697 0.000000
# 3 -0.003152 -0.003152 0.008249 0.000000 0.000000 0.000000
# 4 0.000000 0.000000 0.000000 0.048741 0.000000 0.007394
# 5 -0.003697 0.003697 0.000000 0.000000 0.048741 0.000000
# 6 0.000000 0.000000 0.000000 0.007394 0.000000 0.044762
#
#
# Mechanical properties :
#
#
# Convention : Reuss Voigt Hill
#
# Bulk Modulus (GPa) = 45.61618 53.02189 49.31904
# Shear Modulus (GPa) = 23.23761 25.83782 24.53771
#
# Velocity S-wave (km/s) = 3.36685 3.55023 3.45976
# Velocity P-wave (km/s) = 6.11283 6.53227 6.32603
#
# Compressibility (1/GPa) = 0.02192204
#
# Stress axis : x y z
#
# Youngs Moduli (GPa) = 56.30513 56.30513 121.22340
#
# Poissons Ratio (x) = 0.26017 0.38205
# Poissons Ratio (y) = 0.26017 0.38205
# Poissons Ratio (z) = 0.17745 0.17745
#
# Static dielectric constant tensor:
#      x y z
#    x 3.624500 0.000000 0.000000 
#    y 0.000000 3.624500 0.000000 
#    z 0.000000 0.000000 3.621500 
# 
# 
# High freq. dielectric constant tensor:
#      x y z
#    x 1.781020 0.000000 0.000000 
#    y 0.000000 1.781020 0.000000 
#    z 0.000000 0.000000 1.796080 
# 
# From -- ./inp_files/1990.got.cif
#   From: 2010.03.12/outbox.cif.g09.slc.cpg/sg162_1_cif.got.tgz:1990.got - 2010.04.02 06:27:41.
