data_PCOD8323824
_publ_section_title
;
Structure prediction by ZEFSAII (Michael W. Deem and Ramdas Pophale) SiO2 
 PCOD8323824
Probable space group: P -3 M 1
;
_chemical_formula_sum "Si O2"
_cell_formula_units_Z 96
_cell_length_a 13.485111
_cell_length_b 13.485111
_cell_length_c 39.903242
_cell_angle_alpha 90.000000
_cell_angle_beta 90.000000
_cell_angle_gamma 120.000000
_cell_volume 6284.169130
_symmetry_space_group_name_H-M "P -3 M 1"
_symmetry_group_IT_number 164
_symmetry_cell_setting 'hexagonal'
loop_
_space_group_symop_operation_xyz
x,y,z
-y,x-y,z
-x+y,-x,z
x-y,-y,-z
-x,-x+y,-z
y,x,-z
-x,-y,-z
y,-x+y,-z
x-y,x,-z
-x+y,y,z
x,x-y,z
-y,-x,z
loop_
_atom_site_type_symbol
_atom_site_label
_atom_site_fract_x
_atom_site_fract_y
_atom_site_fract_z
Si Si1 0.333072 0.895023 0.599713
Si Si2 0.556450 0.888158 0.280718
Si Si3 0.438593 0.105001 0.083678
Si Si4 0.432861 0.102249 0.792089
Si Si5 0.895019 0.561983 0.160980
Si Si6 0.567214 0.897784 0.353529
Si Si7 0.771392 0.771734 0.038578
Si Si8 0.332901 0.438123 0.522257
O O1 0.433080 0.866159 0.607044
O O2 0.214507 0.785494 0.610481
O O3 0.332316 0.926164 0.560983
O O4 0.350376 0.002838 0.621217
O O5 0.461791 0.923581 0.280742
O O6 0.501022 0.750511 0.280712
O O7 0.624046 0.935305 0.245444
O O8 0.624069 0.935291 0.315990
O O9 0.547331 0.094662 0.073218
O O10 0.468715 0.234358 0.076537
O O11 0.405430 0.072726 0.122322
O O12 0.333185 0.015629 0.061245
O O13 0.561613 0.123226 0.792432
O O14 0.437910 0.218955 0.803725
O O15 0.350854 0.002554 0.817294
O O16 0.786053 0.572106 0.171714
O O17 0.864860 0.432430 0.167926
O O18 0.438632 0.877263 0.353965
O O19 0.561625 0.780813 0.365130
O O20 0.761677 0.880839 0.049027
O O21 0.900879 0.801758 0.045396
O O22 0.737910 0.737910 0.000000
O O23 0.347192 0.347192 0.500000
O O24 0.215345 0.430689 0.511570
O O25 0.433739 0.566262 0.514721
#
# Coordination Sequence:
#
# PCOD8323824 Si02
#       8
#    12  12  12  12  12  12  12  12
#     4   9  17  29  44  61  83 113 145 172 199 238
#     4   8  13  22  37  58  83 109 135 163 199 244
#     4   9  17  29  45  63  82 107 140 175 207 239
#     4   9  16  26  42  63  85 108 135 168 206 247
#     4   9  17  29  44  61  82 110 142 173 204 240
#     4   9  16  26  42  64  88 110 133 166 209 251
#     4   9  17  29  45  64  85 109 136 167 205 249
#     4   9  17  29  45  64  85 110 139 170 205 245
#
# _framework density 15.276482
#
# number of rings (size 3 to 8) (size 9 to 14) (size 15 to 20)
#    0.000    3.125    0.000    1.000    0.000    5.750 
#    0.000    0.625    0.000    2.375    0.000    1.750 
#    0.000    0.000    0.000    0.000    0.000    0.000 
#
# Total GULP energy -1189761.835187 kJ/mol
# GULP energy per Si atom -12393.352450 kJ/mol
# Density = 1.524171 g / cm^3
# Si number density = 15.276482 Si / 1000 Ang^3
#
#
#
# Elastic Constant Matrix: (Units=GPa)
#
#
# Indices 1 2 3 4 5 6 
#
# 1 95.6253 51.3181 61.1156 1.4265 0.0000 0.0000
# 2 51.3181 95.6253 61.1156 -1.4265 0.0000 0.0000
# 3 61.1156 61.1156 87.8703 0.0000 0.0000 0.0000
# 4 1.4265 -1.4265 0.0000 24.2852 0.0000 0.0000
# 5 0.0000 0.0000 0.0000 0.0000 24.2852 1.4265
# 6 0.0000 0.0000 0.0000 0.0000 1.4265 22.1536
#
#
#
# Elastic Compliance Matrix: (Units=1/GPa)
#
#
# Indices 1 2 3 4 5 6 
#
# 1 0.019401 -0.003254 -0.011231 -0.001331 0.000000 0.000000
# 2 -0.003254 0.019401 -0.011231 0.001331 0.000000 0.000000
# 3 -0.011231 -0.011231 0.027003 0.000000 0.000000 0.000000
# 4 -0.001331 0.001331 0.000000 0.041334 0.000000 0.000000
# 5 0.000000 0.000000 0.000000 0.000000 0.041334 -0.002662
# 6 0.000000 0.000000 0.000000 0.000000 -0.002662 0.045311
#
#
# Mechanical properties :
#
#
# Convention : Reuss Voigt Hill
#
# Bulk Modulus (GPa) = 69.56807 69.57992 69.57400
# Shear Modulus (GPa) = 19.99945 21.18292 20.59119
#
# Velocity S-wave (km/s) = 3.62217 3.72780 3.67536
# Velocity P-wave (km/s) = 7.94554 8.01090 7.97829
#
# Compressibility (1/GPa) = 0.01437441
#
# Stress axis : x y z
#
# Youngs Moduli (GPa) = 51.54260 51.54260 37.03291
#
# Poissons Ratio (x) = 0.16772 0.41591
# Poissons Ratio (y) = 0.16772 0.41591
# Poissons Ratio (z) = 0.57887 0.57887
#
# Static dielectric constant tensor:
#      x y z
#    x 2.774070 0.000000 0.000000 
#    y 0.000000 2.774070 0.000000 
#    z 0.000000 0.000000 3.150830 
# 
# 
# High freq. dielectric constant tensor:
#      x y z
#    x 1.565980 0.000000 0.000000 
#    y 0.000000 1.565980 0.000000 
#    z 0.000000 0.000000 1.594770 
# 
# From -- ./inp_files/5654.got.cif
#   From: 2010.03.12/outbox.cif.g09.slc.cpg/sg164_3_cif.got.tgz:5654.got - 2010.04.02 06:32:59.
