data_PCOD8323953
_publ_section_title
;
Structure prediction by ZEFSAII (Michael W. Deem and Ramdas Pophale) SiO2 
 PCOD8323953
Probable space group: P -3 C 1
;
_chemical_formula_sum "Si O2"
_cell_formula_units_Z 48
_cell_length_a 17.012406
_cell_length_b 17.012406
_cell_length_c 9.149094
_cell_angle_alpha 90.000000
_cell_angle_beta 90.000000
_cell_angle_gamma 120.000000
_cell_volume 2293.190841
_symmetry_space_group_name_H-M "P -3 C 1"
_symmetry_group_IT_number 165
_symmetry_cell_setting 'hexagonal'
loop_
_space_group_symop_operation_xyz
x,y,z
-y,x-y,z
-x+y,-x,z
x-y,-y,1/2-z
-x,-x+y,1/2-z
y,x,1/2-z
-x,-y,-z
y,-x+y,-z
x-y,x,-z
-x+y,y,1/2+z
x,x-y,1/2+z
-y,-x,1/2+z
loop_
_atom_site_type_symbol
_atom_site_label
_atom_site_fract_x
_atom_site_fract_y
_atom_site_fract_z
Si Si1 0.689479 0.945597 0.886764
Si Si2 0.496167 0.820498 0.245207
Si Si3 0.654051 0.482819 0.100430
Si Si4 0.074292 0.301627 0.854403
O O1 0.583827 0.902501 0.854189
O O2 0.717277 0.868905 0.917872
O O3 0.749233 0.000000 0.750000
O O4 0.711394 0.018232 0.011688
O O5 0.446878 0.865202 0.336334
O O6 0.457475 0.721290 0.315118
O O7 0.604327 0.881603 0.264359
O O8 0.472451 0.812468 0.073715
O O9 0.000000 0.221287 0.750000
#
# Coordination Sequence:
#
# PCOD8323953 Si02
#       4
#    12  12  12  12
#     4  11  25  41  70  94 128 167 211 264 324 388
#     4  11  24  40  65  92 137 175 223 262 309 370
#     4  11  24  41  63  95 133 179 220 263 311 366
#     4  11  23  45  66  97 127 165 213 262 325 387
#
# _framework density 20.931532000000001
#
# number of rings (size 3 to 8) (size 9 to 14) (size 15 to 20)
#    0.000    1.000    2.500    3.500   14.000    2.000 
#    0.000    0.000    0.000   10.000    0.000    0.000 
#    0.000    0.000    0.000    0.000    0.000    0.000 
#
# Total GULP energy -595144.511547 kJ/mol
# GULP energy per Si atom -12398.843991 kJ/mol
# Density = 2.088389 g / cm^3
# Si number density = 20.931532 Si / 1000 Ang^3
#
#
#
# Elastic Constant Matrix: (Units=GPa)
#
#
# Indices 1 2 3 4 5 6 
#
# 1 83.2578 37.6188 26.0885 4.7932 0.0000 0.0000
# 2 37.6188 83.2578 26.0885 -4.7932 0.0000 0.0000
# 3 26.0885 26.0885 117.0780 0.0000 0.0000 0.0000
# 4 4.7932 -4.7932 0.0000 40.0778 0.0000 0.0000
# 5 0.0000 0.0000 0.0000 0.0000 40.0778 4.7932
# 6 0.0000 0.0000 0.0000 0.0000 4.7932 22.8195
#
#
#
# Elastic Compliance Matrix: (Units=1/GPa)
#
#
# Indices 1 2 3 4 5 6 
#
# 1 0.015814 -0.006661 -0.002040 -0.002688 0.000000 0.000000
# 2 -0.006661 0.015814 -0.002040 0.002688 0.000000 0.000000
# 3 -0.002040 -0.002040 0.009450 0.000000 0.000000 0.000000
# 4 -0.002688 0.002688 0.000000 0.025594 0.000000 0.000000
# 5 0.000000 0.000000 0.000000 0.000000 0.025594 -0.005376
# 6 0.000000 0.000000 0.000000 0.000000 -0.005376 0.044951
#
#
# Mechanical properties :
#
#
# Convention : Reuss Voigt Hill
#
# Bulk Modulus (GPa) = 51.02459 51.46502 51.24480
# Shear Modulus (GPa) = 30.26026 33.51488 31.88757
#
# Velocity S-wave (km/s) = 3.80633 4.00580 3.90734
# Velocity P-wave (km/s) = 6.61418 6.78498 6.70012
#
# Compressibility (1/GPa) = 0.01959840
#
# Stress axis : x y z
#
# Youngs Moduli (GPa) = 63.23313 63.23313 105.81673
#
# Poissons Ratio (x) = 0.42121 0.21583
# Poissons Ratio (y) = 0.42121 0.21583
# Poissons Ratio (z) = 0.12897 0.12897
#
# Static dielectric constant tensor:
#      x y z
#    x 3.775970 0.000000 0.000000 
#    y 0.000000 3.775970 0.000000 
#    z 0.000000 0.000000 1.622730 
# 
# 
# High freq. dielectric constant tensor:
#      x y z
#    x 1.813030 0.000000 0.000000 
#    y 0.000000 1.813030 0.000000 
#    z 0.000000 0.000000 1.837670 
# 
# From -- ./inp_files/490.got.cif
#   From: 2010.03.12/outbox.cif.g09.slc.cpg/sg165_1_cif.got.tgz:490.got - 2010.04.02 06:36:38.
