data_PCOD8323761
_publ_section_title
;
Structure prediction by ZEFSAII (Michael W. Deem and Ramdas Pophale) SiO2 
 PCOD8323761
Probable space group: P -3 M 1
;
_chemical_formula_sum "Si O2"
_cell_formula_units_Z 48
_cell_length_a 18.325877
_cell_length_b 18.325877
_cell_length_c 9.103046
_cell_angle_alpha 90.000000
_cell_angle_beta 90.000000
_cell_angle_gamma 120.000000
_cell_volume 2647.566661
_symmetry_space_group_name_H-M "P -3 M 1"
_symmetry_group_IT_number 164
_symmetry_cell_setting 'hexagonal'
loop_
_space_group_symop_operation_xyz
x,y,z
-y,x-y,z
-x+y,-x,z
x-y,-y,-z
-x,-x+y,-z
y,x,-z
-x,-y,-z
y,-x+y,-z
x-y,x,-z
-x+y,y,z
x,x-y,z
-y,-x,z
loop_
_atom_site_type_symbol
_atom_site_label
_atom_site_fract_x
_atom_site_fract_y
_atom_site_fract_z
Si Si1 0.373451 0.469117 0.058390
Si Si2 0.253588 0.338706 0.573658
Si Si3 0.916746 0.673635 0.091504
Si Si4 0.162931 0.665447 0.376659
O O1 0.431744 0.568257 0.015811
O O2 0.283638 0.420890 0.977911
O O3 0.419255 0.419255 0.000000
O O4 0.358371 0.462166 0.233077
O O5 0.266880 0.266880 0.500000
O O6 0.156864 0.313727 0.549302
O O7 0.276402 0.338648 0.743220
O O8 0.315529 0.431059 0.506884
O O9 0.857602 0.715204 0.086094
O O10 0.000000 0.734449 0.000000
O O11 0.174161 0.587081 0.425690
O O12 0.254536 0.745464 0.343262
#
# Coordination Sequence:
#
# PCOD8323761 Si02
#       4
#    12  12  12  12
#     4   9  17  29  47  71  98 130 166 205 248 291
#     4  10  21  35  53  78 104 133 169 210 257 308
#     4  10  20  34  53  76 101 131 168 207 252 304
#     4  10  20  34  52  74 103 139 178 217 257 303
#
# _framework density 18.129854000000002
#
# number of rings (size 3 to 8) (size 9 to 14) (size 15 to 20)
#    0.000    2.250    0.000    4.000    0.000    4.500 
#    0.000    0.000    0.000    1.000    0.000    0.000 
#    0.000    0.000    0.000    0.000    0.000    0.000 
#
# Total GULP energy -594741.811162 kJ/mol
# GULP energy per Si atom -12390.454399 kJ/mol
# Density = 1.808859 g / cm^3
# Si number density = 18.129854 Si / 1000 Ang^3
#
#
#
# Elastic Constant Matrix: (Units=GPa)
#
#
# Indices 1 2 3 4 5 6 
#
# 1 91.3295 54.5053 59.3317 -4.1196 0.0000 0.0000
# 2 54.5053 91.3295 59.3317 4.1196 0.0000 0.0000
# 3 59.3317 59.3317 140.2744 0.0000 0.0000 0.0000
# 4 -4.1196 4.1196 0.0000 26.7848 0.0000 0.0000
# 5 0.0000 0.0000 0.0000 0.0000 26.7848 -4.1196
# 6 0.0000 0.0000 0.0000 0.0000 -4.1196 18.4121
#
#
#
# Elastic Compliance Matrix: (Units=1/GPa)
#
#
# Indices 1 2 3 4 5 6 
#
# 1 0.019290 -0.008834 -0.004422 0.004326 0.000000 0.000000
# 2 -0.008834 0.019290 -0.004422 -0.004326 0.000000 0.000000
# 3 -0.004422 -0.004422 0.010870 0.000000 0.000000 0.000000
# 4 0.004326 -0.004326 0.000000 0.038665 0.000000 0.000000
# 5 0.000000 0.000000 0.000000 0.000000 0.038665 0.008651
# 6 0.000000 0.000000 0.000000 0.000000 0.008651 0.056248
#
#
# Mechanical properties :
#
#
# Convention : Reuss Voigt Hill
#
# Bulk Modulus (GPa) = 70.96488 74.36344 72.66416
# Shear Modulus (GPa) = 22.41324 24.38064 23.39694
#
# Velocity S-wave (km/s) = 3.51987 3.67110 3.59628
# Velocity P-wave (km/s) = 7.46638 7.68606 7.57701
#
# Compressibility (1/GPa) = 0.01409148
#
# Stress axis : x y z
#
# Youngs Moduli (GPa) = 51.84123 51.84123 91.99719
#
# Poissons Ratio (x) = 0.45798 0.40684
# Poissons Ratio (y) = 0.45798 0.40684
# Poissons Ratio (z) = 0.22926 0.22926
#
# Static dielectric constant tensor:
#      x y z
#    x 3.441780 0.000000 0.000000 
#    y 0.000000 3.441780 0.000000 
#    z 0.000000 0.000000 3.400440 
# 
# 
# High freq. dielectric constant tensor:
#      x y z
#    x 1.695520 0.000000 0.000000 
#    y 0.000000 1.695520 0.000000 
#    z 0.000000 0.000000 1.710010 
# 
# From -- ./inp_files/1253.got.cif
#   From: 2010.03.12/outbox.cif.g09.slc.cpg/sg164_1_cif.got.tgz:1253.got - 2010.04.02 06:32:59.
