data_PCOD8323499
_publ_section_title
;
Structure prediction by ZEFSAII (Michael W. Deem and Ramdas Pophale) SiO2 
 PCOD8323499
Probable space group: P -3 M 1
;
_chemical_formula_sum "Si O2"
_cell_formula_units_Z 96
_cell_length_a 17.987870
_cell_length_b 17.987870
_cell_length_c 20.643461
_cell_angle_alpha 90.000000
_cell_angle_beta 90.000000
_cell_angle_gamma 120.000000
_cell_volume 5784.590543
_symmetry_space_group_name_H-M "P -3 M 1"
_symmetry_group_IT_number 164
_symmetry_cell_setting 'hexagonal'
loop_
_space_group_symop_operation_xyz
x,y,z
-y,x-y,z
-x+y,-x,z
x-y,-y,-z
-x,-x+y,-z
y,x,-z
-x,-y,-z
y,-x+y,-z
x-y,x,-z
-x+y,y,z
x,x-y,z
-y,-x,z
loop_
_atom_site_type_symbol
_atom_site_label
_atom_site_fract_x
_atom_site_fract_y
_atom_site_fract_z
Si Si1 0.159891 0.665177 0.640235
Si Si2 0.733342 0.637391 0.247546
Si Si3 0.364338 0.459646 0.999999
Si Si4 0.665589 0.166186 0.500000
Si Si5 0.164961 0.669048 0.863331
Si Si6 0.504087 0.669048 0.136668
Si Si7 0.159890 0.494714 0.359765
Si Si8 0.637391 0.904049 0.247546
O O1 0.157851 0.578926 0.664575
O O2 0.259014 0.740987 0.637931
O O3 0.105687 0.688556 0.688471
O O4 0.115403 0.649804 0.568311
O O5 0.834971 0.669942 0.246493
O O6 0.685643 0.579553 0.185496
O O7 0.719581 0.719581 0.246798
O O8 0.454915 0.545086 0.999999
O O9 0.313121 0.457737 0.064137
O O10 0.377449 0.377449 0.000000
O O11 0.313120 0.457736 0.935861
O O12 0.603798 0.207596 0.500000
O O13 0.763417 0.236583 0.500001
O O14 0.649803 0.115402 0.568311
O O15 0.145458 0.572729 0.853569
O O16 0.264975 0.735026 0.848789
O O17 0.470052 0.735026 0.151210
O O18 0.427272 0.572729 0.146430
O O19 0.579553 0.685643 0.185495
O O20 0.259013 0.518026 0.362068
O O21 0.157852 0.578926 0.335425
O O22 0.105686 0.417132 0.311529
O O23 0.669940 0.834970 0.246493
#
# Coordination Sequence:
#
# PCOD8323499 Si02
#       8
#    12  12  12  12  12  12  12  12
#     4   9  16  26  42  65  94 127 160 189 215 246
#     4  10  21  35  50  67  87 113 144 182 228 275
#     4   9  17  28  42  60  84 119 163 205 235 254
#     4   8  13  22  37  59  88 123 160 192 217 242
#     4  10  19  30  45  66  94 127 160 190 219 255
#     4  10  19  30  45  66  94 127 160 190 219 255
#     4   9  16  26  42  65  94 127 160 189 215 246
#     4  10  21  35  50  67  87 113 144 182 228 275
#
# _framework density 16.595815999999999
#
# number of rings (size 3 to 8) (size 9 to 14) (size 15 to 20)
#    0.000    2.625    0.000    2.500    0.000    5.000 
#    0.000    4.375    0.000    2.500    0.000    0.000 
#    0.000    0.000    0.000    0.000    0.000   40.750 
#
# Total GULP energy -1189586.786553 kJ/mol
# GULP energy per Si atom -12391.529027 kJ/mol
# Density = 1.655804 g / cm^3
# Si number density = 16.595816 Si / 1000 Ang^3
#
#
#
# Elastic Constant Matrix: (Units=GPa)
#
#
# Indices 1 2 3 4 5 6 
#
# 1 73.1059 47.0662 33.1320 -0.0001 0.0000 0.0000
# 2 47.0662 73.1059 33.1320 0.0001 0.0000 0.0000
# 3 33.1320 33.1320 120.7055 0.0000 0.0000 0.0000
# 4 -0.0001 0.0001 0.0000 11.2528 0.0000 0.0000
# 5 0.0000 0.0000 0.0000 0.0000 11.2528 -0.0001
# 6 0.0000 0.0000 0.0000 0.0000 -0.0001 13.0198
#
#
#
# Elastic Compliance Matrix: (Units=1/GPa)
#
#
# Indices 1 2 3 4 5 6 
#
# 1 0.024104 -0.014299 -0.002691 0.000000 0.000000 0.000000
# 2 -0.014299 0.024104 -0.002691 0.000000 0.000000 0.000000
# 3 -0.002691 -0.002691 0.009762 0.000000 0.000000 0.000000
# 4 0.000000 0.000000 0.000000 0.088867 0.000000 0.000000
# 5 0.000000 0.000000 0.000000 0.000000 0.088867 0.000001
# 6 0.000000 0.000000 0.000000 0.000000 0.000001 0.076806
#
#
# Mechanical properties :
#
#
# Convention : Reuss Voigt Hill
#
# Bulk Modulus (GPa) = 53.74243 54.84198 54.29221
# Shear Modulus (GPa) = 13.96349 17.34419 15.65384
#
# Velocity S-wave (km/s) = 2.90381 3.23630 3.07455
# Velocity P-wave (km/s) = 6.61031 6.86165 6.73715
#
# Compressibility (1/GPa) = 0.01860727
#
# Stress axis : x y z
#
# Youngs Moduli (GPa) = 41.48647 41.48647 102.43615
#
# Poissons Ratio (x) = 0.59320 0.27570
# Poissons Ratio (y) = 0.59320 0.27570
# Poissons Ratio (z) = 0.11166 0.11166
#
# Static dielectric constant tensor:
#      x y z
#    x 2.801180 0.000000 0.000000 
#    y 0.000000 2.801180 0.000000 
#    z 0.000000 0.000000 3.632180 
# 
# 
# High freq. dielectric constant tensor:
#      x y z
#    x 1.601610 0.000000 0.000000 
#    y 0.000000 1.601610 0.000000 
#    z 0.000000 0.000000 1.668650 
# 
# From -- ./inp_files/4762.got.cif
#   From: 2010.03.12/outbox.cif.g09.slc.cpg/sg164_3_cif.got.tgz:4762.got - 2010.04.02 06:32:59.
