data_PCOD8323028
_publ_section_title
;
Structure prediction by ZEFSAII (Michael W. Deem and Ramdas Pophale) SiO2 
 PCOD8323028
Probable space group: P -3 1 M 
;
_chemical_formula_sum "Si O2"
_cell_formula_units_Z 72
_cell_length_a 14.714132
_cell_length_b 14.714132
_cell_length_c 19.529025
_cell_angle_alpha 90.000000
_cell_angle_beta 90.000000
_cell_angle_gamma 120.000000
_cell_volume 3661.680849
_symmetry_space_group_name_H-M "P -3 1 M "
_symmetry_group_IT_number 162
_symmetry_cell_setting 'hexagonal'
loop_
_space_group_symop_operation_xyz
x,y,z
-y,x-y,z
-x+y,-x,z
-y,-x,-z
-x+y,y,-z
x,x-y,-z
-x,-y,-z
y,-x+y,-z
x-y,x,-z
y,x,z
x-y,-y,z
-x,-x+y,z
loop_
_atom_site_type_symbol
_atom_site_label
_atom_site_fract_x
_atom_site_fract_y
_atom_site_fract_z
Si Si1 0.878547 0.236856 0.833455
Si Si2 0.470839 0.591294 0.294633
Si Si3 0.243837 0.421805 0.320765
Si Si4 0.882154 0.762853 0.422289
Si Si5 0.561683 0.439782 0.145022
Si Si6 0.878686 0.270692 0.058683
O O1 0.847811 0.217899 0.754395
O O2 0.853703 0.322290 0.869486
O O3 0.804245 0.131925 0.876757
O O4 0.000000 0.270647 0.841758
O O5 0.561709 0.561709 0.294977
O O6 0.368025 0.497159 0.329926
O O7 0.511602 0.698204 0.336168
O O8 0.443094 0.614903 0.218135
O O9 0.203064 0.329898 0.375371
O O10 0.860360 0.720720 0.500000
O O11 0.802178 0.802178 0.398804
O O12 0.000000 0.860722 0.416669
O O13 0.512879 0.512879 0.157778
O O14 0.644821 0.488639 0.082901
O O15 0.000000 0.330191 0.033524
O O16 0.801063 0.198938 0.000000
#
# Coordination Sequence:
#
# PCOD8323028 Si02
#       6
#    12  12  12  12  12  12
#     4  10  20  36  59  83 111 146 189 238 287 339
#     4  10  19  33  54  84 116 148 187 234 288 343
#     4  11  20  35  59  86 117 154 195 237 289 349
#     4  10  21  38  60  87 119 156 199 247 296 342
#     4   8  17  34  53  77 107 139 178 228 280 335
#     4  11  22  37  56  80 112 149 188 231 286 345
#
# _framework density 19.663101000000001
#
# number of rings (size 3 to 8) (size 9 to 14) (size 15 to 20)
#    0.000    2.000    1.667    4.000    0.000    2.000 
#    1.000    3.333    0.000    6.000    0.000    0.000 
#    0.000    0.000    0.000    0.000    0.000    0.000 
#
# Total GULP energy -892523.827133 kJ/mol
# GULP energy per Si atom -12396.164266 kJ/mol
# Density = 1.961835 g / cm^3
# Si number density = 19.663101 Si / 1000 Ang^3
#
#
#
# Elastic Constant Matrix: (Units=GPa)
#
#
# Indices 1 2 3 4 5 6 
#
# 1 79.4556 22.7270 39.1118 0.0000 5.1613 0.0000
# 2 22.7270 79.4556 39.1118 0.0000 -5.1613 0.0000
# 3 39.1118 39.1118 88.0382 0.0000 0.0000 0.0000
# 4 0.0000 0.0000 0.0000 28.2393 0.0000 -5.1613
# 5 5.1613 -5.1613 0.0000 0.0000 28.2393 0.0000
# 6 0.0000 0.0000 0.0000 -5.1613 0.0000 28.3643
#
#
#
# Elastic Compliance Matrix: (Units=1/GPa)
#
#
# Indices 1 2 3 4 5 6 
#
# 1 0.016532 -0.001702 -0.006588 0.000000 -0.003333 0.000000
# 2 -0.001702 0.016532 -0.006588 0.000000 0.003333 0.000000
# 3 -0.006588 -0.006588 0.017213 0.000000 0.000000 0.000000
# 4 0.000000 0.000000 0.000000 0.036630 0.000000 0.006665
# 5 -0.003333 0.003333 0.000000 0.000000 0.036630 0.000000
# 6 0.000000 0.000000 0.000000 0.006665 0.000000 0.036468
#
#
# Mechanical properties :
#
#
# Convention : Reuss Voigt Hill
#
# Bulk Modulus (GPa) = 48.73505 49.87227 49.30366
# Shear Modulus (GPa) = 25.43206 26.70184 26.06695
#
# Velocity S-wave (km/s) = 3.60028 3.68906 3.64494
# Velocity P-wave (km/s) = 6.49011 6.60030 6.54544
#
# Compressibility (1/GPa) = 0.02051911
#
# Stress axis : x y z
#
# Youngs Moduli (GPa) = 60.48838 60.48838 58.09709
#
# Poissons Ratio (x) = 0.10296 0.38276
# Poissons Ratio (y) = 0.10296 0.38276
# Poissons Ratio (z) = 0.39852 0.39852
#
# Static dielectric constant tensor:
#      x y z
#    x 3.626680 0.000000 0.000000 
#    y 0.000000 3.626680 0.000000 
#    z 0.000000 0.000000 3.542570 
# 
# 
# High freq. dielectric constant tensor:
#      x y z
#    x 1.763500 0.000000 0.000000 
#    y 0.000000 1.763500 0.000000 
#    z 0.000000 0.000000 1.744740 
# 
# From -- ./inp_files/3500.got.cif
#   From: 2010.03.12/outbox.cif.g09.slc.cpg/sg162_2_cif.got.tgz:3500.got - 2010.04.02 06:27:41.
