data_PCOD8323517
_publ_section_title
;
Structure prediction by ZEFSAII (Michael W. Deem and Ramdas Pophale) SiO2 
 PCOD8323517
Probable space group: P -3 M 1
;
_chemical_formula_sum "Si O2"
_cell_formula_units_Z 46
_cell_length_a 16.452888
_cell_length_b 16.452888
_cell_length_c 11.908315
_cell_angle_alpha 90.000000
_cell_angle_beta 90.000000
_cell_angle_gamma 120.000000
_cell_volume 2791.677386
_symmetry_space_group_name_H-M "P -3 M 1"
_symmetry_group_IT_number 164
_symmetry_cell_setting 'hexagonal'
loop_
_space_group_symop_operation_xyz
x,y,z
-y,x-y,z
-x+y,-x,z
x-y,-y,-z
-x,-x+y,-z
y,x,-z
-x,-y,-z
y,-x+y,-z
x-y,x,-z
-x+y,y,z
x,x-y,z
-y,-x,z
loop_
_atom_site_type_symbol
_atom_site_label
_atom_site_fract_x
_atom_site_fract_y
_atom_site_fract_z
Si Si1 0.363755 0.086365 0.777863
Si Si2 0.333334 0.666668 0.227136
Si Si3 0.563465 0.436536 0.038905
Si Si4 0.666668 0.333335 0.043144
Si Si5 0.186532 0.999937 0.630203
Si Si6 0.436734 0.563267 0.226656
Si Si7 0.000000 0.638652 0.000000
O O1 0.388553 0.194277 0.767660
O O2 0.453275 0.076147 0.738538
O O3 0.277252 0.017855 0.699846
O O4 0.334826 0.054652 0.907963
O O5 0.333334 0.666667 0.091413
O O6 0.385091 0.614910 0.279061
O O7 0.614482 0.385519 0.094803
O O8 0.568697 0.431304 0.905945
O O9 0.454051 0.383543 0.072923
O O10 0.099126 0.900875 0.667611
O O11 0.210623 0.000000 0.500000
O O12 0.159978 0.079989 0.655330
#
# Coordination Sequence:
#
# PCOD8323517 Si02
#       7
#    12   2   6   2  12   6   6
#     4  10  19  30  48  71  97 123 154 189 228 279
#     4   9  12  21  42  66  93 124 152 187 234 249
#     4   8  16  27  40  62  90 126 164 197 215 259
#     4   9  15  24  45  60  78 124 179 199 216 246
#     4   9  18  34  54  73  90 114 152 196 235 272
#     4   9  15  26  44  69  96 124 155 190 223 265
#     4   9  18  28  40  66 103 124 146 186 237 274
#
# _framework density 16.477550000000001
#
# number of rings (size 3 to 8) (size 9 to 14) (size 15 to 20)
#    0.000    2.870    1.304    1.043    5.478    2.087 
#    0.000    0.652    0.000    0.000    0.000    4.565 
#    0.000    0.000    0.000    0.000    0.000    0.000 
#
# Total GULP energy -570035.363781 kJ/mol
# GULP energy per Si atom -12392.073126 kJ/mol
# Density = 1.644005 g / cm^3
# Si number density = 16.477550 Si / 1000 Ang^3
#
#
#
# Elastic Constant Matrix: (Units=GPa)
#
#
# Indices 1 2 3 4 5 6 
#
# 1 106.7048 58.5945 35.6780 4.4145 0.0000 0.0000
# 2 58.5945 106.7045 35.6780 -4.4144 0.0000 0.0000
# 3 35.6780 35.6780 43.6848 0.0000 0.0000 0.0000
# 4 4.4145 -4.4144 0.0000 16.7001 0.0000 0.0000
# 5 0.0000 0.0000 0.0000 0.0000 16.7001 4.4146
# 6 0.0000 0.0000 0.0000 0.0000 4.4146 24.0551
#
#
#
# Elastic Compliance Matrix: (Units=1/GPa)
#
#
# Indices 1 2 3 4 5 6 
#
# 1 0.015595 -0.006251 -0.007631 -0.005775 0.000000 0.000000
# 2 -0.006251 0.015595 -0.007631 0.005774 0.000000 0.000000
# 3 -0.007631 -0.007631 0.035356 0.000000 0.000000 0.000000
# 4 -0.005775 0.005774 0.000000 0.062933 0.000000 0.000000
# 5 0.000000 0.000000 0.000000 0.000000 0.062933 -0.011549
# 6 0.000000 0.000000 0.000000 0.000000 -0.011549 0.043691
#
#
# Mechanical properties :
#
#
# Convention : Reuss Voigt Hill
#
# Bulk Modulus (GPa) = 42.51873 57.44390 49.98132
# Shear Modulus (GPa) = 17.42354 19.96731 18.69542
#
# Velocity S-wave (km/s) = 3.25531 3.48485 3.37204
# Velocity P-wave (km/s) = 6.32372 7.15051 6.74979
#
# Compressibility (1/GPa) = 0.02351904
#
# Stress axis : x y z
#
# Youngs Moduli (GPa) = 64.12478 64.12456 28.28342
#
# Poissons Ratio (x) = 0.40083 0.21584
# Poissons Ratio (y) = 0.40083 0.21584
# Poissons Ratio (z) = 0.48935 0.48936
#
# Static dielectric constant tensor:
#      x y z
#    x 3.302450 0.000000 0.000000 
#    y 0.000000 3.302460 0.000000 
#    z 0.000000 0.000000 2.667220 
# 
# 
# High freq. dielectric constant tensor:
#      x y z
#    x 1.639280 0.000000 0.000000 
#    y 0.000000 1.639280 0.000000 
#    z 0.000000 0.000000 1.575260 
# 
# From -- ./inp_files/3291.got.cif
#   From: 2010.03.12/outbox.cif.g09.slc.cpg/sg164_2_cif.got.tgz:3291.got - 2010.04.02 06:32:59.
