data_PCOD8323932
_publ_section_title
;
Structure prediction by ZEFSAII (Michael W. Deem and Ramdas Pophale) SiO2 
 PCOD8323932
Probable space group: P -3 C 1
;
_chemical_formula_sum "Si O2"
_cell_formula_units_Z 66
_cell_length_a 19.446010
_cell_length_b 19.446010
_cell_length_c 8.531202
_cell_angle_alpha 90.000000
_cell_angle_beta 90.000000
_cell_angle_gamma 120.000000
_cell_volume 2793.842158
_symmetry_space_group_name_H-M "P -3 C 1"
_symmetry_group_IT_number 165
_symmetry_cell_setting 'hexagonal'
loop_
_space_group_symop_operation_xyz
x,y,z
-y,x-y,z
-x+y,-x,z
x-y,-y,1/2-z
-x,-x+y,1/2-z
y,x,1/2-z
-x,-y,-z
y,-x+y,-z
x-y,x,-z
-x+y,y,1/2+z
x,x-y,1/2+z
-y,-x,1/2+z
loop_
_atom_site_type_symbol
_atom_site_label
_atom_site_fract_x
_atom_site_fract_y
_atom_site_fract_z
Si Si1 0.116933 0.465364 0.337536
Si Si2 0.687700 0.813911 0.031174
Si Si3 0.419828 0.916664 0.669713
Si Si4 0.706957 0.706957 0.250000
Si Si5 0.427742 0.247973 0.224707
Si Si6 0.145862 0.055524 0.592051
O O1 0.087575 0.495810 0.483699
O O2 0.102453 0.509098 0.192222
O O3 0.064280 0.371091 0.338243
O O4 0.205877 0.479067 0.324665
O O5 0.732058 0.776919 0.127184
O O6 0.638610 0.843586 0.137911
O O7 0.620635 0.747030 0.922391
O O8 0.759147 0.878298 0.922092
O O9 0.337305 0.845367 0.734203
O O10 0.440187 0.000000 0.750000
O O11 0.108913 0.112960 0.571675
O O12 0.122974 0.000000 0.750000
#
# Coordination Sequence:
#
# PCOD8323932 Si02
#       6
#    12  12  12   6  12  12
#     4  11  25  43  69 105 143 188 230 292 351 424
#     4  11  25  44  72 100 143 188 238 302 362 436
#     4  12  25  43  75 108 143 190 239 293 356 426
#     4  10  24  42  70 100 142 178 236 296 350 426
#     4  11  25  46  70 105 149 187 243 298 364 425
#     4  12  28  46  71 101 140 190 244 305 370 442
#
# _framework density 23.623383
#
# number of rings (size 3 to 8) (size 9 to 14) (size 15 to 20)
#    0.000    0.727    2.727    3.455   12.727    3.636 
#    1.091    0.000    0.000    0.000    0.000    0.000 
#    0.000    0.000    0.000    0.000    0.000    0.000 
#
# Total GULP energy -817648.325977 kJ/mol
# GULP energy per Si atom -12388.611000 kJ/mol
# Density = 2.356962 g / cm^3
# Si number density = 23.623383 Si / 1000 Ang^3
#
#
#
# Elastic Constant Matrix: (Units=GPa)
#
#
# Indices 1 2 3 4 5 6 
#
# 1 76.6253 15.0187 2.5104 -10.2833 0.0000 0.0000
# 2 15.0187 76.6253 2.5104 10.2833 0.0000 0.0000
# 3 2.5104 2.5104 76.3013 0.0000 0.0000 0.0000
# 4 -10.2833 10.2833 0.0000 34.7377 0.0000 0.0000
# 5 0.0000 0.0000 0.0000 0.0000 34.7377 -10.2833
# 6 0.0000 0.0000 0.0000 0.0000 -10.2833 30.8033
#
#
#
# Elastic Compliance Matrix: (Units=1/GPa)
#
#
# Indices 1 2 3 4 5 6 
#
# 1 0.014472 -0.003540 -0.000360 0.005332 0.000000 0.000000
# 2 -0.003540 0.014472 -0.000360 -0.005332 0.000000 0.000000
# 3 -0.000360 -0.000360 0.013130 0.000000 0.000000 0.000000
# 4 0.005332 -0.005332 0.000000 0.031944 0.000000 0.000000
# 5 0.000000 0.000000 0.000000 0.000000 0.031944 0.010664
# 6 0.000000 0.000000 0.000000 0.000000 0.010664 0.036024
#
#
# Mechanical properties :
#
#
# Convention : Reuss Voigt Hill
#
# Bulk Modulus (GPa) = 29.80273 29.95898 29.88085
# Shear Modulus (GPa) = 30.92357 34.02326 32.47342
#
# Velocity S-wave (km/s) = 3.62197 3.79916 3.71162
# Velocity P-wave (km/s) = 5.48951 5.65281 5.57176
#
# Compressibility (1/GPa) = 0.03355397
#
# Stress axis : x y z
#
# Youngs Moduli (GPa) = 69.10008 69.10008 76.16374
#
# Poissons Ratio (x) = 0.24463 0.02739
# Poissons Ratio (y) = 0.24463 0.02739
# Poissons Ratio (z) = 0.02485 0.02485
#
# Static dielectric constant tensor:
#      x y z
#    x 4.266630 0.000000 0.000000 
#    y 0.000000 4.266630 0.000000 
#    z 0.000000 0.000000 4.594760 
# 
# 
# High freq. dielectric constant tensor:
#      x y z
#    x 1.933050 0.000000 0.000000 
#    y 0.000000 1.933050 0.000000 
#    z 0.000000 0.000000 1.950250 
# 
# From -- ./inp_files/693.got.cif
#   From: 2010.03.12/outbox.cif.g09.slc.cpg/sg165_1_cif.got.tgz:693.got - 2010.04.02 06:36:38.
