data_PCOD8323380
_publ_section_title
;
Structure prediction by ZEFSAII (Michael W. Deem and Ramdas Pophale) SiO2 
 PCOD8323380
Probable space group: P -3 M 1
;
_chemical_formula_sum "Si O2"
_cell_formula_units_Z 96
_cell_length_a 21.081842
_cell_length_b 21.081842
_cell_length_c 20.350577
_cell_angle_alpha 90.000000
_cell_angle_beta 90.000000
_cell_angle_gamma 120.000000
_cell_volume 7832.934001
_symmetry_space_group_name_H-M "P -3 M 1"
_symmetry_group_IT_number 164
_symmetry_cell_setting 'hexagonal'
loop_
_space_group_symop_operation_xyz
x,y,z
-y,x-y,z
-x+y,-x,z
x-y,-y,-z
-x,-x+y,-z
y,x,-z
-x,-y,-z
y,-x+y,-z
x-y,x,-z
-x+y,y,z
x,x-y,z
-y,-x,z
loop_
_atom_site_type_symbol
_atom_site_label
_atom_site_fract_x
_atom_site_fract_y
_atom_site_fract_z
Si Si1 0.999725 0.851216 0.073243
Si Si2 0.041770 0.232393 0.197093
Si Si3 0.851224 0.850385 0.325920
Si Si4 0.523734 0.333964 0.692446
Si Si5 0.020452 0.284693 0.399794
Si Si6 0.365153 0.256564 0.722424
Si Si7 0.111649 0.743383 0.520457
Si Si8 0.333921 0.521227 0.460872
O O1 0.927810 0.855620 0.087057
O O2 0.001883 0.794738 0.126339
O O3 0.067172 0.932829 0.081441
O O4 0.000000 0.821361 0.000000
O O5 0.111895 0.223790 0.193303
O O6 0.066493 0.317340 0.212963
O O7 0.991047 0.180363 0.255796
O O8 0.929517 0.859033 0.338803
O O9 0.796783 0.800469 0.383276
O O10 0.859315 0.929658 0.327913
O O11 0.549414 0.274707 0.703787
O O12 0.587961 0.412040 0.717503
O O13 0.450908 0.312842 0.734919
O O14 0.505724 0.336238 0.616152
O O15 0.052766 0.338069 0.337871
O O16 0.078722 0.314306 0.458549
O O17 0.946139 0.284453 0.420006
O O18 0.352324 0.176162 0.703739
O O19 0.185165 0.814836 0.543728
O O20 0.129096 0.679333 0.500842
O O21 0.269693 0.539385 0.475036
O O22 0.410195 0.589806 0.484553
#
# Coordination Sequence:
#
# PCOD8323380 Si02
#       8
#    12  12  12  12  12  12  12  12
#     4   9  15  22  32  48  71  96 120 146 177 208
#     4   8  15  24  35  49  65  89 116 140 167 202
#     4  10  18  27  38  50  64  81 111 151 187 212
#     4   9  15  23  37  55  73  89 106 129 160 200
#     4  10  18  27  38  49  61  85 112 139 170 208
#     4   9  15  26  39  49  66  90 114 139 169 201
#     4  10  18  28  39  49  63  82 108 136 167 204
#     4   9  16  26  40  56  71  85 102 127 161 203
#
# _framework density 12.255944
#
# number of rings (size 3 to 8) (size 9 to 14) (size 15 to 20)
#    0.000    2.750    1.250    3.125    0.000    1.500 
#    0.000    3.125    0.000    0.000    0.000    4.375 
#    0.000    0.500    0.000    0.000    0.000    0.000 
#
# Total GULP energy -1189887.033012 kJ/mol
# GULP energy per Si atom -12394.656594 kJ/mol
# Density = 1.222805 g / cm^3
# Si number density = 12.255944 Si / 1000 Ang^3
#
#
#
# Elastic Constant Matrix: (Units=GPa)
#
#
# Indices 1 2 3 4 5 6 
#
# 1 76.2231 39.5395 33.6494 -2.5132 0.0000 0.0000
# 2 39.5395 76.2231 33.6494 2.5132 0.0000 0.0000
# 3 33.6494 33.6494 62.9596 0.0000 0.0000 0.0000
# 4 -2.5132 2.5132 0.0000 12.2955 0.0000 0.0000
# 5 0.0000 0.0000 0.0000 0.0000 12.2955 -2.5132
# 6 0.0000 0.0000 0.0000 0.0000 -2.5132 18.3418
#
#
#
# Elastic Compliance Matrix: (Units=1/GPa)
#
#
# Indices 1 2 3 4 5 6 
#
# 1 0.020289 -0.007757 -0.006698 0.005733 0.000000 0.000000
# 2 -0.007757 0.020289 -0.006698 -0.005733 0.000000 0.000000
# 3 -0.006698 -0.006698 0.023043 0.000000 0.000000 0.000000
# 4 0.005733 -0.005733 0.000000 0.083674 0.000000 0.000000
# 5 0.000000 0.000000 0.000000 0.000000 0.083674 0.011465
# 6 0.000000 0.000000 0.000000 0.000000 0.011465 0.056091
#
#
# Mechanical properties :
#
#
# Convention : Reuss Voigt Hill
#
# Bulk Modulus (GPa) = 46.91452 47.67582 47.29517
# Shear Modulus (GPa) = 14.86014 15.82440 15.34227
#
# Velocity S-wave (km/s) = 3.48585 3.59717 3.54195
# Velocity P-wave (km/s) = 7.38672 7.49916 7.44316
#
# Compressibility (1/GPa) = 0.02131536
#
# Stress axis : x y z
#
# Youngs Moduli (GPa) = 49.28793 49.28793 43.39747
#
# Poissons Ratio (x) = 0.38231 0.29068
# Poissons Ratio (y) = 0.38231 0.29068
# Poissons Ratio (z) = 0.33013 0.33013
#
# Static dielectric constant tensor:
#      x y z
#    x 2.491210 0.000000 0.000000 
#    y 0.000000 2.491210 0.000000 
#    z 0.000000 0.000000 2.517620 
# 
# 
# High freq. dielectric constant tensor:
#      x y z
#    x 1.454510 0.000000 0.000000 
#    y 0.000000 1.454510 0.000000 
#    z 0.000000 0.000000 1.433610 
# 
# From -- ./inp_files/4324.got.cif
#   From: 2010.03.12/outbox.cif.g09.slc.cpg/sg164_3_cif.got.tgz:4324.got - 2010.04.02 06:32:59.
