data_PCOD8323992
_publ_section_title
;
Structure prediction by ZEFSAII (Michael W. Deem and Ramdas Pophale) SiO2 
 PCOD8323992
Probable space group: R -3 M
;
_chemical_formula_sum "Si O2"
_cell_formula_units_Z 216
_cell_length_a 27.314402
_cell_length_b 27.314402
_cell_length_c 20.872606
_cell_angle_alpha 90.000000
_cell_angle_beta 90.000000
_cell_angle_gamma 120.000000
_cell_volume 13486.234305
_symmetry_space_group_name_H-M "R -3 M"
_symmetry_group_IT_number 166
_symmetry_cell_setting 'hexagonal'
loop_
_space_group_symop_operation_xyz
x,y,z
-y,x-y,z
-x+y,-x,z
x-y,-y,-z
-x,-x+y,-z
y,x,-z
-x,-y,-z
y,-x+y,-z
x-y,x,-z
-x+y,y,z
x,x-y,z
-y,-x,z
2/3+x,1/3+y,1/3+z
2/3-y,1/3+x-y,1/3+z
2/3-x+y,1/3-x,1/3+z
2/3+x-y,1/3-y,1/3-z
2/3-x,1/3-x+y,1/3-z
2/3+y,1/3+x,1/3-z
2/3-x,1/3-y,1/3-z
2/3+y,1/3-x+y,1/3-z
2/3+x-y,1/3+x,1/3-z
2/3-x+y,1/3+y,1/3+z
2/3+x,1/3+x-y,1/3+z
2/3-y,1/3-x,1/3+z
1/3+x,2/3+y,2/3+z
1/3-y,2/3+x-y,2/3+z
1/3-x+y,2/3-x,2/3+z
1/3+x-y,2/3-y,2/3-z
1/3-x,2/3-x+y,2/3-z
1/3+y,2/3+x,2/3-z
1/3-x,2/3-y,2/3-z
1/3+y,2/3-x+y,2/3-z
1/3+x-y,2/3+x,2/3-z
1/3-x+y,2/3+y,2/3+z
1/3+x,2/3+x-y,2/3+z
1/3-y,2/3-x,2/3+z
loop_
_atom_site_type_symbol
_atom_site_label
_atom_site_fract_x
_atom_site_fract_y
_atom_site_fract_z
Si Si1 0.772733 0.656931 0.813120
Si Si2 0.896029 0.607201 0.693919
Si Si3 0.267871 0.423043 0.860755
Si Si4 0.499883 0.612621 0.908876
Si Si5 0.090417 0.360019 0.743928
Si Si6 0.727781 0.063988 0.390169
O O1 0.821636 0.643272 0.802641
O O2 0.721793 0.608706 0.770489
O O3 0.791243 0.720100 0.791475
O O4 0.757249 0.650064 0.887823
O O5 0.906469 0.666667 0.666667
O O6 0.843649 0.559204 0.652796
O O7 0.949043 0.598464 0.684253
O O8 0.217278 0.434556 0.877415
O O9 0.325825 0.481034 0.878742
O O10 0.264988 0.407420 0.785330
O O11 0.261051 0.369711 0.900584
O O12 0.433791 0.566210 0.895138
O O13 0.108064 0.369583 0.668117
O O14 0.037180 0.369658 0.754638
#
# Coordination Sequence:
#
# PCOD8323992 Si02
#       6
#    36  36  36  36  36  36
#     4  10  20  29  44  68  95 128 165 201 234 281
#     4  10  17  29  45  68  91 129 165 197 229 279
#     4  11  21  34  51  71  97 127 169 209 249 301
#     4  10  19  34  50  66  94 126 166 208 247 286
#     4  10  19  31  46  71  97 137 160 191 239 290
#     4  11  18  29  49  66 102 132 166 197 229 292
#
# _framework density 16.016331000000001
#
# number of rings (size 3 to 8) (size 9 to 14) (size 15 to 20)
#    0.000    1.667    5.000    3.000    2.333    3.333 
#    0.000    0.000    0.000    0.333    0.000    0.000 
#    0.000    0.000    0.000    3.000    0.000    6.167 
#
# Total GULP energy -892243.016493 kJ/mol
# GULP energy per Si atom -12392.264118 kJ/mol
# Density = 1.597988 g / cm^3
# Si number density = 16.016331 Si / 1000 Ang^3
#
#
#
# Elastic Constant Matrix: (Units=GPa)
#
#
# Indices 1 2 3 4 5 6 
#
# 1 61.9799 35.4681 23.7139 4.2347 0.0000 0.0000
# 2 35.4681 61.9799 23.7139 -4.2347 0.0000 0.0000
# 3 23.7139 23.7139 112.2958 0.0000 0.0000 0.0000
# 4 4.2347 -4.2347 0.0000 15.8879 0.0000 0.0000
# 5 0.0000 0.0000 0.0000 0.0000 15.8879 4.2347
# 6 0.0000 0.0000 0.0000 0.0000 4.2347 13.2559
#
#
#
# Elastic Compliance Matrix: (Units=1/GPa)
#
#
# Indices 1 2 3 4 5 6 
#
# 1 0.026334 -0.014896 -0.002415 -0.010989 0.000000 0.000000
# 2 -0.014896 0.026334 -0.002415 0.010989 0.000000 0.000000
# 3 -0.002415 -0.002415 0.009925 0.000000 0.000000 0.000000
# 4 -0.010989 0.010989 0.000000 0.068799 0.000000 0.000000
# 5 0.000000 0.000000 0.000000 0.000000 0.068799 -0.021979
# 6 0.000000 0.000000 0.000000 0.000000 -0.021979 0.082459
#
#
# Mechanical properties :
#
#
# Convention : Reuss Voigt Hill
#
# Bulk Modulus (GPa) = 43.21741 44.67194 43.94467
# Shear Modulus (GPa) = 15.15997 19.23031 17.19514
#
# Velocity S-wave (km/s) = 3.07991 3.46883 3.28014
# Velocity P-wave (km/s) = 6.29998 6.63293 6.46860
#
# Compressibility (1/GPa) = 0.02313883
#
# Stress axis : x y z
#
# Youngs Moduli (GPa) = 37.97438 37.97438 100.75420
#
# Poissons Ratio (x) = 0.56567 0.24335
# Poissons Ratio (y) = 0.56567 0.24335
# Poissons Ratio (z) = 0.09172 0.09172
#
# Static dielectric constant tensor:
#      x y z
#    x 2.749630 0.000000 0.000000 
#    y 0.000000 2.749630 0.000000 
#    z 0.000000 0.000000 3.322490 
# 
# 
# High freq. dielectric constant tensor:
#      x y z
#    x 1.575990 0.000000 0.000000 
#    y 0.000000 1.575990 0.000000 
#    z 0.000000 0.000000 1.634630 
# 
# From -- ./inp_files/7145.got.cif
#   From: 2010.03.12/outbox.cif.g09.slc.cpg/sg166_4_cif.got.tgz:7145.got - 2010.04.02 06:38:31.
