data_PCOD8323554
_publ_section_title
;
Structure prediction by ZEFSAII (Michael W. Deem and Ramdas Pophale) SiO2 
 PCOD8323554
Probable space group: P -3 M 1
;
_chemical_formula_sum "Si O2"
_cell_formula_units_Z 48
_cell_length_a 18.005926
_cell_length_b 18.005926
_cell_length_c 9.089366
_cell_angle_alpha 90.000000
_cell_angle_beta 90.000000
_cell_angle_gamma 120.000000
_cell_volume 2552.085059
_symmetry_space_group_name_H-M "P -3 M 1"
_symmetry_group_IT_number 164
_symmetry_cell_setting 'hexagonal'
loop_
_space_group_symop_operation_xyz
x,y,z
-y,x-y,z
-x+y,-x,z
x-y,-y,-z
-x,-x+y,-z
y,x,-z
-x,-y,-z
y,-x+y,-z
x-y,x,-z
-x+y,y,z
x,x-y,z
-y,-x,z
loop_
_atom_site_type_symbol
_atom_site_label
_atom_site_fract_x
_atom_site_fract_y
_atom_site_fract_z
Si Si1 0.500875 0.666595 0.675287
Si Si2 0.000000 0.171840 0.170883
Si Si3 1.000000 0.328333 0.674881
Si Si4 0.834280 0.500875 0.675288
O O1 0.498338 0.749169 0.736193
O O2 0.418676 0.581325 0.737138
O O3 0.586595 0.669940 0.733974
O O4 0.499455 0.665699 0.499999
O O5 0.082499 0.164998 0.213585
O O6 0.000002 0.245821 0.265233
O O7 0.917499 0.082501 0.213588
O O8 0.000000 0.193233 0.000000
O O9 0.916657 0.330064 0.733975
O O10 0.000000 0.324421 0.500000
O O11 0.749170 0.498340 0.736194
O O12 0.837348 0.418674 0.737140
#
# Coordination Sequence:
#
# PCOD8323554 Si02
#       4
#    12  12  12  12
#     4   9  16  26  42  66  97 132 167 201 238 283
#     4  10  21  37  55  73  95 126 162 196 232 282
#     4  10  19  31  49  75 103 126 154 200 252 290
#     4   9  16  26  42  66  97 132 167 201 238 283
#
# _framework density 18.808150999999999
#
# number of rings (size 3 to 8) (size 9 to 14) (size 15 to 20)
#    0.000    2.500    0.000    3.000    0.000    9.000 
#    0.000    0.000    0.000    4.500    0.000    0.000 
#    0.000    4.000    0.000    0.000    0.000    0.000 
#
# Total GULP energy -595255.107572 kJ/mol
# GULP energy per Si atom -12401.148074 kJ/mol
# Density = 1.876534 g / cm^3
# Si number density = 18.808151 Si / 1000 Ang^3
#
#
#
# Elastic Constant Matrix: (Units=GPa)
#
#
# Indices 1 2 3 4 5 6 
#
# 1 190.4958 96.5789 22.4934 -0.0004 0.0000 0.0000
# 2 96.5789 190.4958 22.4934 0.0004 0.0000 0.0000
# 3 22.4934 22.4934 11.2674 0.0000 0.0000 0.0000
# 4 -0.0004 0.0004 0.0000 14.5205 0.0000 0.0000
# 5 0.0000 0.0000 0.0000 0.0000 14.5205 -0.0004
# 6 0.0000 0.0000 0.0000 0.0000 -0.0004 46.9584
#
#
#
# Elastic Compliance Matrix: (Units=1/GPa)
#
#
# Indices 1 2 3 4 5 6 
#
# 1 0.007858 -0.002789 -0.010120 0.000000 0.000000 0.000000
# 2 -0.002789 0.007858 -0.010120 0.000000 0.000000 0.000000
# 3 -0.010120 -0.010120 0.129157 0.000000 0.000000 0.000000
# 4 0.000000 0.000000 0.000000 0.068868 0.000000 0.000000
# 5 0.000000 0.000000 0.000000 0.000000 0.068868 0.000001
# 6 0.000000 0.000000 0.000000 0.000000 0.000001 0.021295
#
#
# Mechanical properties :
#
#
# Convention : Reuss Voigt Hill
#
# Bulk Modulus (GPa) = 10.11986 75.04336 42.58161
# Shear Modulus (GPa) = 13.05818 31.91279 22.48549
#
# Velocity S-wave (km/s) = 2.63778 4.12364 3.46138
# Velocity P-wave (km/s) = 3.83007 7.91571 6.21804
#
# Compressibility (1/GPa) = 0.09881564
#
# Stress axis : x y z
#
# Youngs Moduli (GPa) = 127.25078 127.25078 7.74253
#
# Poissons Ratio (x) = 0.35493 0.07835
# Poissons Ratio (y) = 0.35493 0.07835
# Poissons Ratio (z) = 1.28777 1.28777
#
# Static dielectric constant tensor:
#      x y z
#    x 3.700810 0.000000 0.000000 
#    y 0.000000 3.700810 0.000000 
#    z 0.000000 0.000000 2.810470 
# 
# 
# High freq. dielectric constant tensor:
#      x y z
#    x 1.752330 0.000000 0.000000 
#    y 0.000000 1.752330 0.000000 
#    z 0.000000 0.000000 1.660530 
# 
# From -- ./inp_files/1246.got.cif
#   From: 2010.03.12/outbox.cif.g09.slc.cpg/sg164_1_cif.got.tgz:1246.got - 2010.04.02 06:32:59.
