data_PCOD8323779
_publ_section_title
;
Structure prediction by ZEFSAII (Michael W. Deem and Ramdas Pophale) SiO2 
 PCOD8323779
Probable space group: P -3 M 1
;
_chemical_formula_sum "Si O2"
_cell_formula_units_Z 66
_cell_length_a 22.192801
_cell_length_b 22.192801
_cell_length_c 7.938204
_cell_angle_alpha 90.000000
_cell_angle_beta 90.000000
_cell_angle_gamma 120.000000
_cell_volume 3385.923370
_symmetry_space_group_name_H-M "P -3 M 1"
_symmetry_group_IT_number 164
_symmetry_cell_setting 'hexagonal'
loop_
_space_group_symop_operation_xyz
x,y,z
-y,x-y,z
-x+y,-x,z
x-y,-y,-z
-x,-x+y,-z
y,x,-z
-x,-y,-z
y,-x+y,-z
x-y,x,-z
-x+y,y,z
x,x-y,z
-y,-x,z
loop_
_atom_site_type_symbol
_atom_site_label
_atom_site_fract_x
_atom_site_fract_y
_atom_site_fract_z
Si Si1 0.468666 0.802502 0.467919
Si Si2 0.666573 0.196175 0.132662
Si Si3 0.253201 0.253201 0.500000
Si Si4 0.077673 0.694749 0.986282
Si Si5 0.877838 0.615653 0.646945
Si Si6 0.806616 0.052149 0.154113
O O1 0.405613 0.811226 0.398675
O O2 0.456994 0.728497 0.404440
O O3 0.472128 0.805797 0.667864
O O4 0.539042 0.865902 0.391858
O O5 0.598030 0.196059 0.064464
O O6 0.734586 0.265415 0.065067
O O7 0.666994 0.128796 0.064255
O O8 0.329496 0.264091 0.522172
O O9 0.218272 0.205231 0.334503
O O10 0.079497 0.751143 0.854956
O O11 0.099075 0.735408 0.162210
O O12 0.000000 0.628453 0.000000
O O13 0.807847 0.615694 0.606244
O O14 0.884897 0.115104 0.144356
O O15 0.794483 0.000000 0.000000
#
# Coordination Sequence:
#
# PCOD8323779 Si02
#       6
#    12  12   6  12  12  12
#     4   9  19  35  57  83 112 152 201 256 311 365
#     4  10  20  36  58  83 114 155 206 258 311 369
#     4  12  22  38  61  92 125 164 206 250 306 370
#     4  11  22  39  59  85 122 160 200 253 312 364
#     4  11  22  37  59  86 118 155 199 249 305 366
#     4  11  23  40  65  96 129 164 205 253 305 362
#
# _framework density 19.492467000000001
#
# number of rings (size 3 to 8) (size 9 to 14) (size 15 to 20)
#    0.000    1.455    3.636    3.636    0.000    4.727 
#    0.000    0.455    0.000    2.364    0.000    0.636 
#    0.000    0.000    0.000    0.000    0.000    0.000 
#
# Total GULP energy -818526.175251 kJ/mol
# GULP energy per Si atom -12401.911746 kJ/mol
# Density = 1.944810 g / cm^3
# Si number density = 19.492467 Si / 1000 Ang^3
#
#
#
# Elastic Constant Matrix: (Units=GPa)
#
#
# Indices 1 2 3 4 5 6 
#
# 1 119.2826 75.4755 37.8967 -3.2886 0.0000 0.0000
# 2 75.4755 119.2826 37.8967 3.2886 0.0000 0.0000
# 3 37.8967 37.8967 91.3003 0.0000 0.0000 0.0000
# 4 -3.2886 3.2886 0.0000 22.8108 0.0000 0.0000
# 5 0.0000 0.0000 0.0000 0.0000 22.8108 -3.2886
# 6 0.0000 0.0000 0.0000 0.0000 -3.2886 21.9035
#
#
#
# Elastic Compliance Matrix: (Units=1/GPa)
#
#
# Indices 1 2 3 4 5 6 
#
# 1 0.014728 -0.008604 -0.002542 0.003364 0.000000 0.000000
# 2 -0.008604 0.014728 -0.002542 -0.003364 0.000000 0.000000
# 3 -0.002542 -0.002542 0.013063 0.000000 0.000000 0.000000
# 4 0.003364 -0.003364 0.000000 0.044809 0.000000 0.000000
# 5 0.000000 0.000000 0.000000 0.000000 0.044809 0.006728
# 6 0.000000 0.000000 0.000000 0.000000 0.006728 0.046665
#
#
# Mechanical properties :
#
#
# Convention : Reuss Voigt Hill
#
# Bulk Modulus (GPa) = 66.03633 70.26702 68.15168
# Shear Modulus (GPa) = 23.67143 25.41148 24.54145
#
# Velocity S-wave (km/s) = 3.48859 3.61454 3.55212
# Velocity P-wave (km/s) = 7.08367 7.31754 7.20155
#
# Compressibility (1/GPa) = 0.01514318
#
# Stress axis : x y z
#
# Youngs Moduli (GPa) = 67.89746 67.89746 76.55214
#
# Poissons Ratio (x) = 0.58421 0.19458
# Poissons Ratio (y) = 0.58421 0.19458
# Poissons Ratio (z) = 0.17258 0.17258
#
# Static dielectric constant tensor:
#      x y z
#    x 3.689040 0.000000 0.000000 
#    y 0.000000 3.689040 0.000000 
#    z 0.000000 0.000000 3.796120 
# 
# 
# High freq. dielectric constant tensor:
#      x y z
#    x 1.751000 0.000000 0.000000 
#    y 0.000000 1.751000 0.000000 
#    z 0.000000 0.000000 1.766950 
# 
# From -- ./inp_files/1679.got.cif
#   From: 2010.03.12/outbox.cif.g09.slc.cpg/sg164_1_cif.got.tgz:1679.got - 2010.04.02 06:32:59.
