data_PCOD8323340
_publ_section_title
;
Structure prediction by ZEFSAII (Michael W. Deem and Ramdas Pophale) SiO2 
 PCOD8323340
Probable space group: P -3 1 C
;
_chemical_formula_sum "Si O2"
_cell_formula_units_Z 52
_cell_length_a 13.442923
_cell_length_b 13.442923
_cell_length_c 15.062208
_cell_angle_alpha 90.000000
_cell_angle_beta 90.000000
_cell_angle_gamma 120.000000
_cell_volume 2357.255699
_symmetry_space_group_name_H-M "P -3 1 C"
_symmetry_group_IT_number 163
_symmetry_cell_setting 'hexagonal'
loop_
_space_group_symop_operation_xyz
x,y,z
-y,x-y,z
-x+y,-x,z
-y,-x,1/2-z
-x+y,y,1/2-z
x,x-y,1/2-z
-x,-y,-z
y,-x+y,-z
x-y,x,-z
y,x,1/2+z
x-y,-y,1/2+z
-x,-x+y,1/2+z
loop_
_atom_site_type_symbol
_atom_site_label
_atom_site_fract_x
_atom_site_fract_y
_atom_site_fract_z
Si Si1 0.909551 0.415957 0.149421
Si Si2 0.873987 0.126013 0.250000
Si Si3 0.421128 0.253595 0.095303
Si Si4 0.666668 0.333335 0.855530
Si Si5 0.141805 0.723265 0.398590
Si Si6 0.134084 0.865917 0.250000
O O1 0.910516 0.455258 0.250000
O O2 0.793410 0.298761 0.125082
O O3 0.906882 0.514348 0.091431
O O4 0.015451 0.395259 0.128624
O O5 0.796469 0.117138 0.166744
O O6 0.004315 0.183106 0.221134
O O7 0.372275 0.221654 0.995553
O O8 0.666668 0.333334 0.750000
O O9 0.670657 0.224864 0.893484
O O10 0.186718 0.833500 0.334068
#
# Coordination Sequence:
#
# PCOD8323340 Si02
#       6
#    12   6  12   4  12   6
#     4  12  23  46  71 110 149 190 239 304 370 454
#     4  12  27  48  74 102 140 189 248 306 366 432
#     4  12  25  44  72 107 141 189 238 300 373 442
#     4  12  24  42  66 106 149 199 234 303 363 445
#     4  12  27  44  73 104 150 191 246 303 375 442
#     4  12  27  50  72 104 140 191 250 310 366 444
#
# _framework density 22.059550000000002
#
# number of rings (size 3 to 8) (size 9 to 14) (size 15 to 20)
#    0.000    0.000    5.769    3.462    6.462    0.000 
#    0.000    0.000    0.000    2.769    0.000    0.000 
#    0.000    0.000    0.000    0.000    0.000    0.000 
#
# Total GULP energy -644615.702262 kJ/mol
# GULP energy per Si atom -12396.455813 kJ/mol
# Density = 2.200934 g / cm^3
# Si number density = 22.059550 Si / 1000 Ang^3
#
#
#
# Elastic Constant Matrix: (Units=GPa)
#
#
# Indices 1 2 3 4 5 6 
#
# 1 237.6303 -122.2394 18.1618 0.2892 80.3978 -0.4711
# 2 -122.2394 237.6385 18.1561 -0.2939 -80.4001 0.4794
# 3 18.1618 18.1561 156.7900 0.0047 0.0018 -0.0075
# 4 0.2892 -0.2939 0.0047 74.0102 0.1803 -80.7610
# 5 80.3978 -80.4001 0.0018 0.1803 73.7867 -0.2935
# 6 -0.4711 0.4794 -0.0075 -80.7610 -0.2935 180.5240
#
#
#
# Elastic Compliance Matrix: (Units=1/GPa)
#
#
# Indices 1 2 3 4 5 6 
#
# 1 0.007205 0.001789 -0.001042 -0.000004 -0.005900 0.000003
# 2 0.001789 0.007204 -0.001042 0.000004 0.005901 -0.000003
# 3 -0.001042 -0.001042 0.006619 0.000000 0.000000 0.000000
# 4 -0.000004 0.000004 0.000000 0.026399 -0.000010 0.011810
# 5 -0.005900 0.005901 0.000000 -0.000010 0.026411 0.000008
# 6 0.000003 -0.000003 0.000000 0.011810 0.000008 0.010823
#
#
# Mechanical properties :
#
#
# Convention : Reuss Voigt Hill
#
# Bulk Modulus (GPa) = 48.92329 51.13508 50.02919
# Shear Modulus (GPa) = 54.31092 113.52954 83.92023
#
# Velocity S-wave (km/s) = 4.96725 7.18170 6.17456
# Velocity P-wave (km/s) = 7.42456 9.59165 8.57683
#
# Compressibility (1/GPa) = 0.02044016
#
# Stress axis : x y z
#
# Youngs Moduli (GPa) = 138.80141 138.80484 151.07491
#
# Poissons Ratio (x) = -0.24836 0.15737
# Poissons Ratio (y) = -0.24835 0.15736
# Poissons Ratio (z) = 0.14458 0.14458
#
# Static dielectric constant tensor:
#      x y z
#    x 3.955970 0.000010 -0.000020 
#    y 0.000010 3.955980 -0.000020 
#    z -0.000020 -0.000020 4.184030 
# 
# 
# High freq. dielectric constant tensor:
#      x y z
#    x 1.869520 0.000000 0.000000 
#    y 0.000000 1.869520 0.000000 
#    z 0.000000 0.000000 1.881080 
# 
# From -- ./inp_files/2351.got.cif
#   From: 2010.03.12/outbox.cif.g09.slc.cpg/sg163_2_cif.got.tgz:2351.got - 2010.04.02 06:30:25.
