data_PCOD8323283
_publ_section_title
;
Structure prediction by ZEFSAII (Michael W. Deem and Ramdas Pophale) SiO2 
 PCOD8323283
Probable space group: P -3 1 C
;
_chemical_formula_sum "Si O2"
_cell_formula_units_Z 84
_cell_length_a 17.186889
_cell_length_b 17.186889
_cell_length_c 16.595671
_cell_angle_alpha 90.000000
_cell_angle_beta 90.000000
_cell_angle_gamma 120.000000
_cell_volume 4245.413460
_symmetry_space_group_name_H-M "P -3 1 C"
_symmetry_group_IT_number 163
_symmetry_cell_setting 'hexagonal'
loop_
_space_group_symop_operation_xyz
x,y,z
-y,x-y,z
-x+y,-x,z
-y,-x,1/2-z
-x+y,y,1/2-z
x,x-y,1/2-z
-x,-y,-z
y,-x+y,-z
x-y,x,-z
y,x,1/2+z
x-y,-y,1/2+z
-x,-x+y,1/2+z
loop_
_atom_site_type_symbol
_atom_site_label
_atom_site_fract_x
_atom_site_fract_y
_atom_site_fract_z
Si Si1 0.457261 0.228631 0.750000
Si Si2 0.443777 0.860149 0.929627
Si Si3 0.505417 0.743552 0.840883
Si Si4 0.085465 0.754319 0.121867
Si Si5 0.908139 0.116391 0.008946
Si Si6 0.941160 0.426328 0.911287
Si Si7 0.572637 0.427364 0.750000
Si Si8 0.710675 0.812435 0.829143
O O1 0.395015 0.169629 0.822927
O O2 0.526351 0.326912 0.785152
O O3 0.507275 0.826918 0.888007
O O4 0.345322 0.793998 0.894625
O O5 0.485790 0.966088 0.915038
O O6 0.446733 0.861152 0.027658
O O7 0.464655 0.732328 0.750000
O O8 0.603422 0.756538 0.831688
O O9 0.046022 0.659672 0.074089
O O10 0.004840 0.749475 0.174983
O O11 0.118977 0.833057 0.056747
O O12 0.877143 0.131185 0.094949
O O13 0.013106 0.153546 0.014944
O O14 0.914257 0.422681 0.819983
O O15 0.746765 0.873383 0.750000
#
# Coordination Sequence:
#
# PCOD8323283 Si02
#       8
#     6  12  12  12  12  12   6  12
#     4  10  23  40  66  92 126 162 218 266 325 386
#     4  11  23  40  61  92 127 169 219 262 325 389
#     4  11  23  38  63  91 128 168 211 268 321 383
#     4  10  21  42  62  93 123 164 216 261 317 397
#     4  10  22  40  63  90 125 163 208 262 328 388
#     4  10  23  41  62  89 128 170 214 269 326 387
#     4  10  23  40  62  92 122 168 210 278 327 392
#     4  10  22  38  60  90 128 162 211 263 318 380
#
# _framework density 19.786058000000001
#
# number of rings (size 3 to 8) (size 9 to 14) (size 15 to 20)
#    0.000    1.714    1.429    1.857    4.000    4.571 
#    2.571    0.000    0.000    0.000    0.000    0.000 
#    0.000    0.000    0.000    0.000    0.000    0.000 
#
# Total GULP energy -1041287.227364 kJ/mol
# GULP energy per Si atom -12396.276516 kJ/mol
# Density = 1.974102 g / cm^3
# Si number density = 19.786058 Si / 1000 Ang^3
#
#
#
# Elastic Constant Matrix: (Units=GPa)
#
#
# Indices 1 2 3 4 5 6 
#
# 1 98.6942 39.3540 52.6888 0.0000 6.4197 0.0000
# 2 39.3540 98.6942 52.6888 0.0000 -6.4197 0.0000
# 3 52.6888 52.6888 125.0826 0.0000 0.0000 0.0000
# 4 0.0000 0.0000 0.0000 25.7092 0.0000 -6.4197
# 5 6.4197 -6.4197 0.0000 0.0000 25.7092 0.0000
# 6 0.0000 0.0000 0.0000 -6.4197 0.0000 29.6701
#
#
#
# Elastic Compliance Matrix: (Units=1/GPa)
#
#
# Indices 1 2 3 4 5 6 
#
# 1 0.014246 -0.003569 -0.004497 0.000000 -0.004448 0.000000
# 2 -0.003569 0.014246 -0.004497 0.000000 0.004448 0.000000
# 3 -0.004497 -0.004497 0.011784 0.000000 0.000000 0.000000
# 4 0.000000 0.000000 0.000000 0.041118 0.000000 0.008897
# 5 -0.004448 0.004448 0.000000 0.000000 0.041118 0.000000
# 6 0.000000 0.000000 0.000000 0.008897 0.000000 0.035629
#
#
# Mechanical properties :
#
#
# Convention : Reuss Voigt Hill
#
# Bulk Modulus (GPa) = 66.01669 67.99267 67.00468
# Shear Modulus (GPa) = 26.55099 28.06700 27.30900
#
# Velocity S-wave (km/s) = 3.66718 3.77042 3.71915
# Velocity P-wave (km/s) = 7.16719 7.30707 7.23747
#
# Compressibility (1/GPa) = 0.01514768
#
# Stress axis : x y z
#
# Youngs Moduli (GPa) = 70.19656 70.19656 84.86313
#
# Poissons Ratio (x) = 0.25051 0.38167
# Poissons Ratio (y) = 0.25051 0.38167
# Poissons Ratio (z) = 0.31571 0.31571
#
# Static dielectric constant tensor:
#      x y z
#    x 3.697740 0.000000 0.000000 
#    y 0.000000 3.697740 0.000000 
#    z 0.000000 0.000000 3.761310 
# 
# 
# High freq. dielectric constant tensor:
#      x y z
#    x 1.776530 0.000000 0.000000 
#    y 0.000000 1.776530 0.000000 
#    z 0.000000 0.000000 1.776600 
# 
# From -- ./inp_files/2699.got.cif
#   From: 2010.03.12/outbox.cif.g09.slc.cpg/sg163_2_cif.got.tgz:2699.got - 2010.04.02 06:30:25.
