data_PCOD8323821
_publ_section_title
;
Structure prediction by ZEFSAII (Michael W. Deem and Ramdas Pophale) SiO2 
 PCOD8323821
Probable space group: P -3 M 1
;
_chemical_formula_sum "Si O2"
_cell_formula_units_Z 60
_cell_length_a 13.453547
_cell_length_b 13.453547
_cell_length_c 25.334308
_cell_angle_alpha 90.000000
_cell_angle_beta 90.000000
_cell_angle_gamma 120.000000
_cell_volume 3971.122447
_symmetry_space_group_name_H-M "P -3 M 1"
_symmetry_group_IT_number 164
_symmetry_cell_setting 'hexagonal'
loop_
_space_group_symop_operation_xyz
x,y,z
-y,x-y,z
-x+y,-x,z
x-y,-y,-z
-x,-x+y,-z
y,x,-z
-x,-y,-z
y,-x+y,-z
x-y,x,-z
-x+y,y,z
x,x-y,z
-y,-x,z
loop_
_atom_site_type_symbol
_atom_site_label
_atom_site_fract_x
_atom_site_fract_y
_atom_site_fract_z
Si Si1 0.229589 0.999036 0.444364
Si Si2 0.562681 0.666431 0.254180
Si Si3 0.999616 0.770664 0.060675
Si Si4 0.666239 0.104422 0.867776
Si Si5 0.766770 0.001601 0.670200
O O1 0.231475 0.115737 0.436134
O O2 0.294580 0.000000 0.500000
O O3 0.277803 0.982945 0.388272
O O4 0.099013 0.900988 0.452137
O O5 0.534762 0.767381 0.266046
O O6 0.452389 0.547612 0.270921
O O7 0.593733 0.665643 0.193153
O O8 0.671409 0.683561 0.287730
O O9 0.881150 0.762299 0.076911
O O10 0.014119 0.681379 0.096983
O O11 0.099775 0.900225 0.071308
O O12 0.000000 0.736374 0.000000
O O13 0.548100 0.096199 0.884588
O O14 0.766794 0.233207 0.879304
O O15 0.898621 0.101379 0.678738
O O16 0.758831 0.879416 0.678328
#
# Coordination Sequence:
#
# PCOD8323821 Si02
#       5
#    12  12  12  12  12
#     4   8  12  18  30  50  77 107 134 158 189 235
#     4   9  17  29  44  60  78 103 136 172 207 242
#     4   9  17  29  45  65  89 116 142 165 192 233
#     4   9  17  29  45  63  81 103 134 173 212 244
#     4   9  16  25  39  61  87 110 131 161 204 250
#
# _framework density 15.109078
#
# number of rings (size 3 to 8) (size 9 to 14) (size 15 to 20)
#    0.000    3.200    0.000    1.000    0.000    6.000 
#    0.000    0.000    0.000    3.800    0.000    0.000 
#    0.000    0.000    0.000    0.000    0.000    0.000 
#
# Total GULP energy -743312.725537 kJ/mol
# GULP energy per Si atom -12388.545426 kJ/mol
# Density = 1.507469 g / cm^3
# Si number density = 15.109078 Si / 1000 Ang^3
#
#
#
# Elastic Constant Matrix: (Units=GPa)
#
#
# Indices 1 2 3 4 5 6 
#
# 1 82.3631 43.9455 58.9320 0.4983 0.0000 0.0000
# 2 43.9455 82.3631 58.9320 -0.4983 0.0000 0.0000
# 3 58.9320 58.9320 96.2527 0.0000 0.0000 0.0000
# 4 0.4983 -0.4983 0.0000 20.2928 0.0000 0.0000
# 5 0.0000 0.0000 0.0000 0.0000 20.2928 0.4983
# 6 0.0000 0.0000 0.0000 0.0000 0.4983 19.2088
#
#
#
# Elastic Compliance Matrix: (Units=1/GPa)
#
#
# Indices 1 2 3 4 5 6 
#
# 1 0.022258 -0.003789 -0.011308 -0.000640 0.000000 0.000000
# 2 -0.003789 0.022258 -0.011308 0.000640 0.000000 0.000000
# 3 -0.011308 -0.011308 0.024236 0.000000 0.000000 0.000000
# 4 -0.000640 0.000640 0.000000 0.049310 0.000000 0.000000
# 5 0.000000 0.000000 0.000000 0.000000 0.049310 -0.001279
# 6 0.000000 0.000000 0.000000 0.000000 -0.001279 0.052093
#
#
# Mechanical properties :
#
#
# Convention : Reuss Voigt Hill
#
# Bulk Modulus (GPa) = 62.72513 64.95533 63.84023
# Shear Modulus (GPa) = 18.01235 18.57017 18.29126
#
# Velocity S-wave (km/s) = 3.45650 3.50962 3.48316
# Velocity P-wave (km/s) = 7.58518 7.71411 7.64991
#
# Compressibility (1/GPa) = 0.01594257
#
# Stress axis : x y z
#
# Youngs Moduli (GPa) = 44.92830 44.92830 41.26063
#
# Poissons Ratio (x) = 0.17022 0.46657
# Poissons Ratio (y) = 0.17022 0.46657
# Poissons Ratio (z) = 0.50805 0.50805
#
# Static dielectric constant tensor:
#      x y z
#    x 2.700340 0.000000 0.000000 
#    y 0.000000 2.700340 0.000000 
#    z 0.000000 0.000000 3.292800 
# 
# 
# High freq. dielectric constant tensor:
#      x y z
#    x 1.551240 0.000000 0.000000 
#    y 0.000000 1.551240 0.000000 
#    z 0.000000 0.000000 1.597290 
# 
# From -- ./inp_files/4463.got.cif
#   From: 2010.03.12/outbox.cif.g09.slc.cpg/sg164_3_cif.got.tgz:4463.got - 2010.04.02 06:32:59.
