data_PCOD8323615
_publ_section_title
;
Structure prediction by ZEFSAII (Michael W. Deem and Ramdas Pophale) SiO2 
 PCOD8323615
Probable space group: P -3 M 1
;
_chemical_formula_sum "Si O2"
_cell_formula_units_Z 66
_cell_length_a 12.976263
_cell_length_b 12.976263
_cell_length_c 27.689682
_cell_angle_alpha 90.000000
_cell_angle_beta 90.000000
_cell_angle_gamma 120.000000
_cell_volume 4037.828584
_symmetry_space_group_name_H-M "P -3 M 1"
_symmetry_group_IT_number 164
_symmetry_cell_setting 'hexagonal'
loop_
_space_group_symop_operation_xyz
x,y,z
-y,x-y,z
-x+y,-x,z
x-y,-y,-z
-x,-x+y,-z
y,x,-z
-x,-y,-z
y,-x+y,-z
x-y,x,-z
-x+y,y,z
x,x-y,z
-y,-x,z
loop_
_atom_site_type_symbol
_atom_site_label
_atom_site_fract_x
_atom_site_fract_y
_atom_site_fract_z
Si Si1 0.000000 0.758448 0.000000
Si Si2 0.571334 0.666725 0.809669
Si Si3 0.570943 0.666240 0.919030
Si Si4 0.335269 0.910579 0.543266
Si Si5 0.094385 0.428081 0.375570
Si Si6 0.667277 0.571279 0.734519
O O1 0.012067 0.693053 0.953028
O O2 0.886782 0.773564 0.991947
O O3 0.572596 0.786298 0.798571
O O4 0.438775 0.561226 0.800098
O O5 0.611276 0.661459 0.864367
O O6 0.662592 0.663237 0.771698
O O7 0.533710 0.766855 0.924015
O O8 0.458112 0.541889 0.934560
O O9 0.436597 0.873194 0.541912
O O10 0.207267 0.792734 0.539321
O O11 0.353159 0.000000 0.500000
O O12 0.342059 0.980052 0.592453
O O13 0.207968 0.415936 0.390372
O O14 0.131026 0.565513 0.383645
O O15 0.055769 0.388089 0.320461
O O16 0.784062 0.568123 0.747201
O O17 0.559460 0.440541 0.744024
#
# Coordination Sequence:
#
# PCOD8323615 Si02
#       6
#     6  12  12  12  12  12
#     4  10  20  32  46  64  88 118 150 184 222 266
#     4   9  17  29  46  68  92 118 148 183 225 271
#     4   9  17  30  48  68  89 114 146 185 227 270
#     4  10  20  33  50  72  97 123 151 186 228 272
#     4   9  17  30  49  71  93 119 152 189 227 266
#     4   9  17  29  46  68  93 121 152 186 223 263
#
# _framework density 16.345417999999999
#
# number of rings (size 3 to 8) (size 9 to 14) (size 15 to 20)
#    0.000    2.727    0.000    1.818    0.000    4.364 
#    0.000    1.818    0.000    6.182    0.000    0.000 
#    0.000    0.000    0.000    0.000    0.000    0.000 
#
# Total GULP energy -818370.528710 kJ/mol
# GULP energy per Si atom -12399.553465 kJ/mol
# Density = 1.630822 g / cm^3
# Si number density = 16.345418 Si / 1000 Ang^3
#
#
#
# Elastic Constant Matrix: (Units=GPa)
#
#
# Indices 1 2 3 4 5 6 
#
# 1 99.3874 57.9533 65.5200 0.9145 0.0000 0.0000
# 2 57.9533 99.3874 65.5200 -0.9145 0.0000 0.0000
# 3 65.5200 65.5200 110.1881 0.0000 0.0000 0.0000
# 4 0.9145 -0.9145 0.0000 27.0136 0.0000 0.0000
# 5 0.0000 0.0000 0.0000 0.0000 27.0136 0.9145
# 6 0.0000 0.0000 0.0000 0.0000 0.9145 20.7170
#
#
#
# Elastic Compliance Matrix: (Units=1/GPa)
#
#
# Indices 1 2 3 4 5 6 
#
# 1 0.018381 -0.005790 -0.007487 -0.000818 0.000000 0.000000
# 2 -0.005790 0.018381 -0.007487 0.000818 0.000000 0.000000
# 3 -0.007487 -0.007487 0.017979 0.000000 0.000000 0.000000
# 4 -0.000818 0.000818 0.000000 0.037074 0.000000 0.000000
# 5 0.000000 0.000000 0.000000 0.000000 0.037074 -0.001637
# 6 0.000000 0.000000 0.000000 0.000000 -0.001637 0.048342
#
#
# Mechanical properties :
#
#
# Convention : Reuss Voigt Hill
#
# Bulk Modulus (GPa) = 75.67941 76.32772 76.00356
# Shear Modulus (GPa) = 22.40524 22.94681 22.67602
#
# Velocity S-wave (km/s) = 3.70636 3.75089 3.72869
# Velocity P-wave (km/s) = 8.04467 8.09673 8.07074
#
# Compressibility (1/GPa) = 0.01321363
#
# Stress axis : x y z
#
# Youngs Moduli (GPa) = 54.40419 54.40419 55.62030
#
# Poissons Ratio (x) = 0.31500 0.41642
# Poissons Ratio (y) = 0.31500 0.41642
# Poissons Ratio (z) = 0.40732 0.40732
#
# Static dielectric constant tensor:
#      x y z
#    x 2.983270 0.000000 0.000000 
#    y 0.000000 2.983270 0.000000 
#    z 0.000000 0.000000 3.323290 
# 
# 
# High freq. dielectric constant tensor:
#      x y z
#    x 1.618660 0.000000 0.000000 
#    y 0.000000 1.618660 0.000000 
#    z 0.000000 0.000000 1.641750 
# 
# From -- ./inp_files/5395.got.cif
#   From: 2010.03.12/outbox.cif.g09.slc.cpg/sg164_3_cif.got.tgz:5395.got - 2010.04.02 06:32:59.
