data_PCOD8323950
_publ_section_title
;
Structure prediction by ZEFSAII (Michael W. Deem and Ramdas Pophale) SiO2 
 PCOD8323950
Probable space group: P -3 C 1
;
_chemical_formula_sum "Si O2"
_cell_formula_units_Z 72
_cell_length_a 13.339573
_cell_length_b 13.339573
_cell_length_c 17.818600
_cell_angle_alpha 90.000000
_cell_angle_beta 90.000000
_cell_angle_gamma 120.000000
_cell_volume 2745.921177
_symmetry_space_group_name_H-M "P -3 C 1"
_symmetry_group_IT_number 165
_symmetry_cell_setting 'hexagonal'
loop_
_space_group_symop_operation_xyz
x,y,z
-y,x-y,z
-x+y,-x,z
x-y,-y,1/2-z
-x,-x+y,1/2-z
y,x,1/2-z
-x,-y,-z
y,-x+y,-z
x-y,x,-z
-x+y,y,1/2+z
x,x-y,1/2+z
-y,-x,1/2+z
loop_
_atom_site_type_symbol
_atom_site_label
_atom_site_fract_x
_atom_site_fract_y
_atom_site_fract_z
Si Si1 0.511463 0.347753 0.868425
Si Si2 0.553595 0.721516 0.368209
Si Si3 0.143516 0.478055 0.533889
Si Si4 0.216678 0.050120 0.957853
Si Si5 0.122333 0.519471 0.774118
Si Si6 0.027322 0.244485 0.166175
O O1 0.532563 0.446093 0.934045
O O2 0.530902 0.253788 0.911066
O O3 0.601828 0.410781 0.799997
O O4 0.383089 0.280399 0.834417
O O5 0.495456 0.688738 0.449851
O O6 0.509734 0.601041 0.324101
O O7 0.516211 0.800316 0.322424
O O8 0.693272 0.787462 0.373845
O O9 0.058423 0.341178 0.544889
O O10 0.191115 0.096626 0.879918
O O11 0.208356 0.125154 0.026899
O O12 0.000000 0.407655 0.750000
O O13 0.000000 0.192528 0.250000
#
# Coordination Sequence:
#
# PCOD8323950 Si02
#       6
#    12  12  12  12  12  12
#     4  11  22  43  68 104 147 193 238 293 370 440
#     4  12  23  46  64 103 150 183 245 304 358 442
#     4  11  25  41  72 109 146 194 243 297 367 452
#     4  11  25  49  76 106 142 193 252 318 382 431
#     4  12  25  43  71 102 144 203 242 298 378 438
#     4  11  23  48  72 105 148 189 245 313 370 439
#
# _framework density 26.22071
#
# number of rings (size 3 to 8) (size 9 to 14) (size 15 to 20)
#    0.000    0.667    5.000    2.833    2.333    2.000 
#    0.000    0.833    0.000    0.000    0.000    0.000 
#    0.000    0.000    0.000    0.000    0.000    0.000 
#
# Total GULP energy -892267.236900 kJ/mol
# GULP energy per Si atom -12392.600512 kJ/mol
# Density = 2.616103 g / cm^3
# Si number density = 26.220710 Si / 1000 Ang^3
#
#
#
# Elastic Constant Matrix: (Units=GPa)
#
#
# Indices 1 2 3 4 5 6 
#
# 1 42.5730 -14.5690 11.6257 2.1712 0.0000 0.0000
# 2 -14.5690 42.5730 11.6257 -2.1712 0.0000 0.0000
# 3 11.6257 11.6257 180.2582 0.0000 0.0000 0.0000
# 4 2.1712 -2.1712 0.0000 40.8335 0.0000 0.0000
# 5 0.0000 0.0000 0.0000 0.0000 40.8335 2.1712
# 6 0.0000 0.0000 0.0000 0.0000 2.1712 28.5710
#
#
#
# Elastic Compliance Matrix: (Units=1/GPa)
#
#
# Indices 1 2 3 4 5 6 
#
# 1 0.027650 0.010079 -0.002433 -0.000934 0.000000 0.000000
# 2 0.010079 0.027650 -0.002433 0.000934 0.000000 0.000000
# 3 -0.002433 -0.002433 0.005861 0.000000 0.000000 0.000000
# 4 -0.000934 0.000934 0.000000 0.024589 0.000000 0.000000
# 5 0.000000 0.000000 0.000000 0.000000 0.024589 -0.001869
# 6 0.000000 0.000000 0.000000 0.000000 -0.001869 0.035142
#
#
# Mechanical properties :
#
#
# Convention : Reuss Voigt Hill
#
# Bulk Modulus (GPa) = 13.96897 31.41880 22.69388
# Shear Modulus (GPa) = 31.46230 39.16242 35.31236
#
# Velocity S-wave (km/s) = 3.46772 3.86886 3.67377
# Velocity P-wave (km/s) = 4.62304 5.65384 5.16422
#
# Compressibility (1/GPa) = 0.07158723
#
# Stress axis : x y z
#
# Youngs Moduli (GPa) = 36.16581 36.16581 170.60549
#
# Poissons Ratio (x) = -0.36452 0.41515
# Poissons Ratio (y) = -0.36452 0.41515
# Poissons Ratio (z) = 0.08800 0.08800
#
# Static dielectric constant tensor:
#      x y z
#    x 4.567970 0.000000 0.000000 
#    y 0.000000 4.567970 0.000000 
#    z 0.000000 0.000000 5.080430 
# 
# 
# High freq. dielectric constant tensor:
#      x y z
#    x 2.039680 0.000000 0.000000 
#    y 0.000000 2.039680 0.000000 
#    z 0.000000 0.000000 2.075760 
# 
# From -- ./inp_files/2270.got.cif
#   From: 2010.03.12/outbox.cif.g09.slc.cpg/sg165_2_cif.got.tgz:2270.got - 2010.04.02 06:36:38.
