data_PCOD8323489
_publ_section_title
;
Structure prediction by ZEFSAII (Michael W. Deem and Ramdas Pophale) SiO2 
 PCOD8323489
Probable space group: P -3 M 1
;
_chemical_formula_sum "Si O2"
_cell_formula_units_Z 60
_cell_length_a 17.309771
_cell_length_b 17.309771
_cell_length_c 13.037099
_cell_angle_alpha 90.000000
_cell_angle_beta 90.000000
_cell_angle_gamma 120.000000
_cell_volume 3382.939570
_symmetry_space_group_name_H-M "P -3 M 1"
_symmetry_group_IT_number 164
_symmetry_cell_setting 'hexagonal'
loop_
_space_group_symop_operation_xyz
x,y,z
-y,x-y,z
-x+y,-x,z
x-y,-y,-z
-x,-x+y,-z
y,x,-z
-x,-y,-z
y,-x+y,-z
x-y,x,-z
-x+y,y,z
x,x-y,z
-y,-x,z
loop_
_atom_site_type_symbol
_atom_site_label
_atom_site_fract_x
_atom_site_fract_y
_atom_site_fract_z
Si Si1 0.080698 0.331419 0.856529
Si Si2 0.161261 0.667396 0.241691
Si Si3 0.179576 0.000000 0.500000
Si Si4 0.832833 0.000000 0.000000
Si Si5 0.760588 0.066537 0.693583
Si Si6 0.153497 0.666607 0.007291
O O1 0.180766 0.361532 0.817538
O O2 0.042131 0.238260 0.911997
O O3 0.084557 0.406941 0.933169
O O4 0.015421 0.309105 0.761965
O O5 0.138396 0.569198 0.275646
O O6 0.268181 0.731820 0.241109
O O7 0.117438 0.704497 0.323416
O O8 0.125272 0.666785 0.125805
O O9 0.166718 0.083359 0.468581
O O10 0.249554 0.026773 0.591527
O O11 0.924314 0.075687 0.948929
O O12 0.858311 0.141690 0.740154
O O13 0.148949 0.574475 0.978456
O O14 0.253344 0.746657 0.988069
#
# Coordination Sequence:
#
# PCOD8323489 Si02
#       6
#    12  12   6   6  12  12
#     4  10  19  30  45  66  94 126 157 193 238 285
#     4   9  17  30  49  73 101 133 167 200 234 275
#     4  10  21  38  59  78  94 116 152 200 251 300
#     4  10  19  30  43  60  86 120 154 184 219 272
#     4  10  20  34  51  71  95 122 155 199 249 295
#     4   9  17  29  47  72 102 136 171 203 233 270
#
# _framework density 17.736053999999999
#
# number of rings (size 3 to 8) (size 9 to 14) (size 15 to 20)
#    0.000    2.400    0.000    3.000    0.000    5.600 
#    0.000    3.000    0.000    6.400    0.000    0.000 
#    0.000    3.200    0.000    0.000    0.000    1.600 
#
# Total GULP energy -743309.934045 kJ/mol
# GULP energy per Si atom -12388.498901 kJ/mol
# Density = 1.769569 g / cm^3
# Si number density = 17.736054 Si / 1000 Ang^3
#
#
#
# Elastic Constant Matrix: (Units=GPa)
#
#
# Indices 1 2 3 4 5 6 
#
# 1 113.0243 54.2915 46.0688 4.0908 0.0000 0.0000
# 2 54.2915 113.0243 46.0688 -4.0908 0.0000 0.0000
# 3 46.0688 46.0688 51.9079 0.0000 0.0000 0.0000
# 4 4.0908 -4.0908 0.0000 21.9054 0.0000 0.0000
# 5 0.0000 0.0000 0.0000 0.0000 21.9054 4.0908
# 6 0.0000 0.0000 0.0000 0.0000 4.0908 29.3664
#
#
#
# Elastic Compliance Matrix: (Units=1/GPa)
#
#
# Indices 1 2 3 4 5 6 
#
# 1 0.014586 -0.002895 -0.010375 -0.003265 0.000000 0.000000
# 2 -0.002895 0.014586 -0.010375 0.003265 0.000000 0.000000
# 3 -0.010375 -0.010375 0.037681 0.000000 0.000000 0.000000
# 4 -0.003265 0.003265 0.000000 0.046870 0.000000 0.000000
# 5 0.000000 0.000000 0.000000 0.000000 0.046870 -0.006529
# 6 0.000000 0.000000 0.000000 0.000000 -0.006529 0.034962
#
#
# Mechanical properties :
#
#
# Convention : Reuss Voigt Hill
#
# Bulk Modulus (GPa) = 51.12278 63.42385 57.27332
# Shear Modulus (GPa) = 20.05088 23.40393 21.72740
#
# Velocity S-wave (km/s) = 3.36596 3.63653 3.50386
# Velocity P-wave (km/s) = 6.63273 7.31231 6.98079
#
# Compressibility (1/GPa) = 0.01956075
#
# Stress axis : x y z
#
# Youngs Moduli (GPa) = 68.56103 68.56103 26.53871
#
# Poissons Ratio (x) = 0.19852 0.27534
# Poissons Ratio (y) = 0.19852 0.27534
# Poissons Ratio (z) = 0.71132 0.71132
#
# Static dielectric constant tensor:
#      x y z
#    x 3.543200 0.000000 0.000000 
#    y 0.000000 3.543200 0.000000 
#    z 0.000000 0.000000 2.889990 
# 
# 
# High freq. dielectric constant tensor:
#      x y z
#    x 1.697750 0.000000 0.000000 
#    y 0.000000 1.697750 0.000000 
#    z 0.000000 0.000000 1.632030 
# 
# From -- ./inp_files/2743.got.cif
#   From: 2010.03.12/outbox.cif.g09.slc.cpg/sg164_2_cif.got.tgz:2743.got - 2010.04.02 06:32:59.
