data_PCOD8323920
_publ_section_title
;
Structure prediction by ZEFSAII (Michael W. Deem and Ramdas Pophale) SiO2 
 PCOD8323920
Probable space group: P -3 C 1
;
_chemical_formula_sum "Si O2"
_cell_formula_units_Z 78
_cell_length_a 22.140081
_cell_length_b 22.140081
_cell_length_c 9.302502
_cell_angle_alpha 90.000000
_cell_angle_beta 90.000000
_cell_angle_gamma 120.000000
_cell_volume 3949.015284
_symmetry_space_group_name_H-M "P -3 C 1"
_symmetry_group_IT_number 165
_symmetry_cell_setting 'hexagonal'
loop_
_space_group_symop_operation_xyz
x,y,z
-y,x-y,z
-x+y,-x,z
x-y,-y,1/2-z
-x,-x+y,1/2-z
y,x,1/2-z
-x,-y,-z
y,-x+y,-z
x-y,x,-z
-x+y,y,1/2+z
x,x-y,1/2+z
-y,-x,1/2+z
loop_
_atom_site_type_symbol
_atom_site_label
_atom_site_fract_x
_atom_site_fract_y
_atom_site_fract_z
Si Si1 0.517072 0.738220 0.628207
Si Si2 0.648208 0.765140 0.039480
Si Si3 0.122546 0.106655 0.407345
Si Si4 0.271653 0.692056 0.867592
Si Si5 0.694753 0.618708 0.766433
Si Si6 0.730211 0.730211 0.250000
Si Si7 0.805294 0.076050 0.473786
O O1 0.579509 0.813370 0.585985
O O2 0.467768 0.754380 0.727373
O O3 0.470761 0.697691 0.493912
O O4 0.543680 0.687545 0.696168
O O5 0.664125 0.719362 0.153844
O O6 0.711443 0.844124 0.029871
O O7 0.642109 0.735229 0.882142
O O8 0.086376 0.086376 0.250000
O O9 0.084109 0.127407 0.524940
O O10 0.200353 0.170586 0.385484
O O11 0.256104 0.612324 0.871120
O O12 0.622775 0.622775 0.750000
O O13 0.736218 0.669658 0.898200
O O14 0.743753 0.791938 0.361082
#
# Coordination Sequence:
#
# PCOD8323920 Si02
#       7
#    12  12  12  12  12   6  12
#     4  11  21  40  65 100 138 176 220 283 335 389
#     4  11  24  39  63  94 128 168 217 276 341 394
#     4  12  28  44  61  77 105 147 201 267 338 412
#     4  10  22  39  69 107 136 176 224 277 327 370
#     4  11  22  40  60  92 134 176 212 271 332 404
#     4  12  24  38  62  90 122 166 226 274 330 428
#     4  11  24  39  62  85 117 155 213 276 339 391
#
# _framework density 19.751760000000001
#
# number of rings (size 3 to 8) (size 9 to 14) (size 15 to 20)
#    0.308    0.615    3.077    4.769    8.615    0.000 
#    0.000    0.000    0.000    0.923    4.000    0.000 
#    0.000    0.000    0.000    0.000    0.000    0.000 
#
# Total GULP energy -966423.436938 kJ/mol
# GULP energy per Si atom -12390.044063 kJ/mol
# Density = 1.970680 g / cm^3
# Si number density = 19.751760 Si / 1000 Ang^3
#
#
#
# Elastic Constant Matrix: (Units=GPa)
#
#
# Indices 1 2 3 4 5 6 
#
# 1 64.7409 28.9316 28.0067 -0.2404 0.0000 0.0000
# 2 28.9316 64.7409 28.0067 0.2404 0.0000 0.0000
# 3 28.0067 28.0067 133.3340 0.0000 0.0000 0.0000
# 4 -0.2404 0.2404 0.0000 35.5515 0.0000 0.0000
# 5 0.0000 0.0000 0.0000 0.0000 35.5515 -0.2404
# 6 0.0000 0.0000 0.0000 0.0000 -0.2404 17.9046
#
#
#
# Elastic Compliance Matrix: (Units=1/GPa)
#
#
# Indices 1 2 3 4 5 6 
#
# 1 0.020069 -0.007860 -0.002564 0.000189 0.000000 0.000000
# 2 -0.007860 0.020069 -0.002564 -0.000189 0.000000 0.000000
# 3 -0.002564 -0.002564 0.008577 0.000000 0.000000 0.000000
# 4 0.000189 -0.000189 0.000000 0.028131 0.000000 0.000000
# 5 0.000000 0.000000 0.000000 0.000000 0.028131 0.000378
# 6 0.000000 0.000000 0.000000 0.000000 0.000378 0.055857
#
#
# Mechanical properties :
#
#
# Convention : Reuss Voigt Hill
#
# Bulk Modulus (GPa) = 43.98058 48.07842 46.02950
# Shear Modulus (GPa) = 25.72164 29.65958 27.69061
#
# Velocity S-wave (km/s) = 3.61258 3.87927 3.74830
# Velocity P-wave (km/s) = 6.30206 6.66777 6.48749
#
# Compressibility (1/GPa) = 0.02273731
#
# Stress axis : x y z
#
# Youngs Moduli (GPa) = 49.82906 49.82906 116.58691
#
# Poissons Ratio (x) = 0.39164 0.29898
# Poissons Ratio (y) = 0.39164 0.29898
# Poissons Ratio (z) = 0.12779 0.12779
#
# Static dielectric constant tensor:
#      x y z
#    x 3.634660 0.000000 0.000000 
#    y 0.000000 3.634660 0.000000 
#    z 0.000000 0.000000 3.466260 
# 
# 
# High freq. dielectric constant tensor:
#      x y z
#    x 1.751220 0.000000 0.000000 
#    y 0.000000 1.751220 0.000000 
#    z 0.000000 0.000000 1.793550 
# 
# From -- ./inp_files/811.got.cif
#   From: 2010.03.12/outbox.cif.g09.slc.cpg/sg165_1_cif.got.tgz:811.got - 2010.04.02 06:36:38.
