data_PCOD8323239
_publ_section_title
;
Structure prediction by ZEFSAII (Michael W. Deem and Ramdas Pophale) SiO2 
 PCOD8323239
Probable space group: P -3 1 C
;
_chemical_formula_sum "Si O2"
_cell_formula_units_Z 60
_cell_length_a 12.192275
_cell_length_b 12.192275
_cell_length_c 27.873233
_cell_angle_alpha 90.000000
_cell_angle_beta 90.000000
_cell_angle_gamma 120.000000
_cell_volume 3588.289517
_symmetry_space_group_name_H-M "P -3 1 C"
_symmetry_group_IT_number 163
_symmetry_cell_setting 'hexagonal'
loop_
_space_group_symop_operation_xyz
x,y,z
-y,x-y,z
-x+y,-x,z
-y,-x,1/2-z
-x+y,y,1/2-z
x,x-y,1/2-z
-x,-y,-z
y,-x+y,-z
x-y,x,-z
y,x,1/2+z
x-y,-y,1/2+z
-x,-x+y,1/2+z
loop_
_atom_site_type_symbol
_atom_site_label
_atom_site_fract_x
_atom_site_fract_y
_atom_site_fract_z
Si Si1 0.666667 0.333334 0.959166
Si Si2 0.380088 0.928747 0.934799
Si Si3 0.666667 0.333334 0.073348
Si Si4 0.740008 0.912378 0.098650
Si Si5 0.837600 0.921824 0.197617
Si Si6 0.577228 0.665665 0.044673
Si Si7 0.000000 0.000000 0.557249
O O1 0.538525 0.317440 0.938628
O O2 0.666668 0.333334 0.016161
O O3 0.324555 0.790025 0.910076
O O4 0.345681 0.021097 0.905682
O O5 0.530108 0.978829 0.937070
O O6 0.323558 0.920945 0.987641
O O7 0.736329 0.877980 0.154867
O O8 0.696671 0.783269 0.069026
O O9 0.880607 0.007102 0.078769
O O10 0.769072 0.884536 0.250000
O O11 0.925391 0.856566 0.193587
O O12 0.000000 0.000000 0.500000
#
# Coordination Sequence:
#
# PCOD8323239 Si02
#       7
#     4  12   4  12  12  12   4
#     4   9  15  36  45  66  91 148 199 205 222 288
#     4  10  22  33  49  71 103 151 181 208 241 310
#     4   9  21  33  48  63 105 146 188 204 231 303
#     4  12  20  33  53  78 103 135 172 222 266 309
#     4   8  16  34  53  74 102 131 166 211 269 331
#     4  10  20  33  49  70 103 146 186 207 244 306
#     4  12  24  30  43  83 121 129 147 222 286 308
#
# _framework density 16.721060000000001
#
# number of rings (size 3 to 8) (size 9 to 14) (size 15 to 20)
#    0.400    1.600    4.000    1.200    5.600    0.000 
#    0.000    0.000    0.000    1.200    0.000    0.000 
#    0.000    0.400    0.000    0.000    0.000    0.000 
#
# Total GULP energy -743486.345879 kJ/mol
# GULP energy per Si atom -12391.439098 kJ/mol
# Density = 1.668300 g / cm^3
# Si number density = 16.721060 Si / 1000 Ang^3
#
#
#
# Elastic Constant Matrix: (Units=GPa)
#
#
# Indices 1 2 3 4 5 6 
#
# 1 65.2977 20.9419 30.9672 -0.0001 -0.7405 0.0000
# 2 20.9419 65.2981 30.9671 -0.0001 0.7404 0.0003
# 3 30.9672 30.9671 100.6287 0.0000 0.0000 0.0000
# 4 -0.0001 -0.0001 0.0000 14.0572 -0.0001 0.7404
# 5 -0.7405 0.7404 0.0000 -0.0001 14.0573 0.0000
# 6 0.0000 0.0003 0.0000 0.7404 0.0000 22.1782
#
#
#
# Elastic Compliance Matrix: (Units=1/GPa)
#
#
# Indices 1 2 3 4 5 6 
#
# 1 0.018735 -0.003850 -0.004581 0.000000 0.001190 0.000000
# 2 -0.003850 0.018735 -0.004581 0.000000 -0.001190 0.000000
# 3 -0.004581 -0.004581 0.012757 0.000000 0.000000 0.000000
# 4 0.000000 0.000000 0.000000 0.071263 0.000000 -0.002379
# 5 0.001190 -0.001190 0.000000 0.000000 0.071263 0.000000
# 6 0.000000 0.000000 0.000000 -0.002379 0.000000 0.045169
#
#
# Mechanical properties :
#
#
# Convention : Reuss Voigt Hill
#
# Bulk Modulus (GPa) = 41.31471 44.10853 42.71162
# Shear Modulus (GPa) = 18.38157 19.94845 19.16501
#
# Velocity S-wave (km/s) = 3.31918 3.45775 3.38917
# Velocity P-wave (km/s) = 6.28101 6.50981 6.39643
#
# Compressibility (1/GPa) = 0.02420445
#
# Stress axis : x y z
#
# Youngs Moduli (GPa) = 53.37605 53.37641 78.38921
#
# Poissons Ratio (x) = 0.20548 0.35908
# Poissons Ratio (y) = 0.20548 0.35908
# Poissons Ratio (z) = 0.24450 0.24450
#
# Static dielectric constant tensor:
#      x y z
#    x 3.101390 0.000000 0.000000 
#    y 0.000000 3.101390 0.000000 
#    z 0.000000 0.000000 2.864040 
# 
# 
# High freq. dielectric constant tensor:
#      x y z
#    x 1.638090 0.000000 0.000000 
#    y 0.000000 1.638090 0.000000 
#    z 0.000000 0.000000 1.599580 
# 
# From -- ./inp_files/4323.got.cif
#   From: 2010.03.12/outbox.cif.g09.slc.cpg/sg163_3_cif.got.tgz:4323.got - 2010.04.02 06:30:25.
