data_PCOD8323149
_publ_section_title
;
Structure prediction by ZEFSAII (Michael W. Deem and Ramdas Pophale) SiO2 
 PCOD8323149
Probable space group: P -3 1 M 
;
_chemical_formula_sum "Si O2"
_cell_formula_units_Z 60
_cell_length_a 17.301057
_cell_length_b 17.301057
_cell_length_c 10.452832
_cell_angle_alpha 90.000000
_cell_angle_beta 90.000000
_cell_angle_gamma 120.000000
_cell_volume 2709.629276
_symmetry_space_group_name_H-M "P -3 1 M "
_symmetry_group_IT_number 162
_symmetry_cell_setting 'hexagonal'
loop_
_space_group_symop_operation_xyz
x,y,z
-y,x-y,z
-x+y,-x,z
-y,-x,-z
-x+y,y,-z
x,x-y,-z
-x,-y,-z
y,-x+y,-z
x-y,x,-z
y,x,z
x-y,-y,z
-x,-x+y,z
loop_
_atom_site_type_symbol
_atom_site_label
_atom_site_fract_x
_atom_site_fract_y
_atom_site_fract_z
Si Si1 0.167426 0.000000 0.946137
Si Si2 0.334366 0.836425 0.038214
Si Si3 0.336830 0.336830 0.087089
Si Si4 0.457587 0.312888 0.456633
Si Si5 0.000000 0.899040 0.334851
Si Si6 0.000000 0.272108 0.625682
Si Si7 0.900214 0.474849 0.700502
O O1 0.256808 0.000000 0.992221
O O2 0.142935 0.000000 0.799827
O O3 0.088036 0.911965 0.000000
O O4 0.349230 0.854952 0.190478
O O5 0.235668 0.764333 0.000000
O O6 0.401083 0.802166 0.000000
O O7 0.350978 0.918444 0.949504
O O8 0.300594 0.300594 0.227970
O O9 0.490321 0.245161 0.500000
O O10 0.352372 0.261328 0.430830
O O11 0.472587 0.378926 0.572443
O O12 0.517312 0.368646 0.332925
O O13 0.000000 0.819539 0.416653
O O14 0.913181 0.913181 0.356734
O O15 0.000000 0.503023 0.746488
#
# Coordination Sequence:
#
# PCOD8323149 Si02
#       7
#     6  12   6  12   6   6  12
#     4  11  18  35  63  94 137 181 235 281 334 406
#     4  12  27  46  69 106 145 185 226 287 360 433
#     4  11  25  41  69 103 139 187 231 289 349 429
#     4  11  24  45  72 103 132 177 241 294 339 410
#     4   9  19  38  59  95 137 188 224 275 345 405
#     4  11  22  42  72  98 141 183 236 287 343 411
#     4  11  23  48  75  97 136 188 228 284 356 425
#
# _framework density 22.143250999999999
#
# number of rings (size 3 to 8) (size 9 to 14) (size 15 to 20)
#    0.200    0.800    4.000    3.000    5.600    0.000 
#    6.600    0.000    0.000    0.600    0.000    0.000 
#    0.000    0.000    0.000    0.000    0.000    0.000 
#
# Total GULP energy -743300.862686 kJ/mol
# GULP energy per Si atom -12388.347711 kJ/mol
# Density = 2.209285 g / cm^3
# Si number density = 22.143251 Si / 1000 Ang^3
#
#
#
# Elastic Constant Matrix: (Units=GPa)
#
#
# Indices 1 2 3 4 5 6 
#
# 1 112.5255 57.1204 33.5989 -0.0016 -13.1069 0.0000
# 2 57.1204 112.5255 33.5989 0.0016 13.1069 0.0000
# 3 33.5989 33.5989 84.2993 0.0000 0.0000 0.0000
# 4 -0.0016 0.0016 0.0000 36.0223 0.0000 13.1069
# 5 -13.1069 13.1069 0.0000 0.0000 36.0223 -0.0016
# 6 0.0000 0.0000 0.0000 13.1069 -0.0016 27.7026
#
#
#
# Elastic Compliance Matrix: (Units=1/GPa)
#
#
# Indices 1 2 3 4 5 6 
#
# 1 0.014401 -0.007401 -0.002790 0.000001 0.007933 0.000000
# 2 -0.007401 0.014401 -0.002790 -0.000001 -0.007933 0.000000
# 3 -0.002790 -0.002790 0.014086 0.000000 0.000000 0.000000
# 4 0.000001 -0.000001 0.000000 0.033533 0.000000 -0.015866
# 5 0.007933 -0.007933 0.000000 0.000000 0.033533 0.000002
# 6 0.000000 0.000000 0.000000 -0.015866 0.000002 0.043604
#
#
# Mechanical properties :
#
#
# Convention : Reuss Voigt Hill
#
# Bulk Modulus (GPa) = 59.07936 61.99855 60.53895
# Shear Modulus (GPa) = 27.00321 32.28493 29.64407
#
# Velocity S-wave (km/s) = 3.49589 3.82252 3.66285
# Velocity P-wave (km/s) = 6.55999 6.89506 6.72961
#
# Compressibility (1/GPa) = 0.01692638
#
# Stress axis : x y z
#
# Youngs Moduli (GPa) = 69.44001 69.44001 70.99053
#
# Poissons Ratio (x) = 0.51394 0.19805
# Poissons Ratio (y) = 0.51394 0.19805
# Poissons Ratio (z) = 0.19373 0.19373
#
# Static dielectric constant tensor:
#      x y z
#    x 4.108630 0.000000 0.000000 
#    y 0.000000 4.108630 0.000000 
#    z 0.000000 0.000000 4.113600 
# 
# 
# High freq. dielectric constant tensor:
#      x y z
#    x 1.874490 0.000000 0.000000 
#    y 0.000000 1.874490 0.000000 
#    z 0.000000 0.000000 1.876720 
# 
# From -- ./inp_files/2406.got.cif
#   From: 2010.03.12/outbox.cif.g09.slc.cpg/sg162_2_cif.got.tgz:2406.got - 2010.04.02 06:27:41.
