data_PCOD8323322
_publ_section_title
;
Structure prediction by ZEFSAII (Michael W. Deem and Ramdas Pophale) SiO2 
 PCOD8323322
Probable space group: P -3 1 C
;
_chemical_formula_sum "Si O2"
_cell_formula_units_Z 56
_cell_length_a 13.640164
_cell_length_b 13.640164
_cell_length_c 16.613510
_cell_angle_alpha 90.000000
_cell_angle_beta 90.000000
_cell_angle_gamma 120.000000
_cell_volume 2676.894238
_symmetry_space_group_name_H-M "P -3 1 C"
_symmetry_group_IT_number 163
_symmetry_cell_setting 'hexagonal'
loop_
_space_group_symop_operation_xyz
x,y,z
-y,x-y,z
-x+y,-x,z
-y,-x,1/2-z
-x+y,y,1/2-z
x,x-y,1/2-z
-x,-y,-z
y,-x+y,-z
x-y,x,-z
y,x,1/2+z
x-y,-y,1/2+z
-x,-x+y,1/2+z
loop_
_atom_site_type_symbol
_atom_site_label
_atom_site_fract_x
_atom_site_fract_y
_atom_site_fract_z
Si Si1 0.740339 0.904129 0.514678
Si Si2 0.574102 0.743973 0.126109
Si Si3 0.666668 0.333334 0.578705
Si Si4 0.582959 0.749159 0.834035
Si Si5 0.333333 0.666666 0.888643
Si Si6 0.935225 0.363393 0.779946
O O1 0.799289 0.834808 0.483320
O O2 0.642288 0.887967 0.454044
O O3 0.681241 0.861043 0.601281
O O4 0.440913 0.657512 0.109430
O O5 0.583314 0.861992 0.149840
O O6 0.628297 0.704479 0.196965
O O7 0.666668 0.333334 0.483318
O O8 0.627749 0.813875 0.750000
O O9 0.462269 0.734516 0.857674
O O10 0.565840 0.625102 0.817898
O O11 0.889001 0.444501 0.750000
#
# Coordination Sequence:
#
# PCOD8323322 Si02
#       6
#    12  12   4  12   4  12
#     4  12  26  48  70  96 135 181 235 293 345 404
#     4  11  23  41  67  99 135 176 224 282 341 403
#     4  12  21  41  68 111 139 176 223 279 341 413
#     4  12  25  44  66 100 138 182 227 276 342 418
#     4  12  25  43  70 100 154 179 217 271 349 433
#     4  11  22  39  67  97 135 176 224 278 337 399
#
# _framework density 20.919765999999999
#
# number of rings (size 3 to 8) (size 9 to 14) (size 15 to 20)
#    0.000    0.429    6.429    3.429    0.000    0.000 
#    0.000    4.286    0.000    0.000    0.000    0.000 
#    0.000    0.000    0.000    0.000    0.000    0.000 
#
# Total GULP energy -694279.136542 kJ/mol
# GULP energy per Si atom -12397.841724 kJ/mol
# Density = 2.087215 g / cm^3
# Si number density = 20.919766 Si / 1000 Ang^3
#
#
#
# Elastic Constant Matrix: (Units=GPa)
#
#
# Indices 1 2 3 4 5 6 
#
# 1 79.8132 20.4578 23.6720 -0.0001 2.0995 -0.0002
# 2 20.4578 79.8128 23.6720 0.0001 -2.0995 -0.0001
# 3 23.6720 23.6720 125.4725 -0.0001 0.0000 0.0000
# 4 -0.0001 0.0001 -0.0001 29.1738 0.0000 -2.0993
# 5 2.0995 -2.0995 0.0000 0.0000 29.1738 0.0003
# 6 -0.0002 -0.0001 0.0000 -2.0993 0.0003 29.6776
#
#
#
# Elastic Compliance Matrix: (Units=1/GPa)
#
#
# Indices 1 2 3 4 5 6 
#
# 1 0.013941 -0.002993 -0.002066 0.000000 -0.001219 0.000000
# 2 -0.002993 0.013941 -0.002066 0.000000 0.001219 0.000000
# 3 -0.002066 -0.002066 0.008749 0.000000 0.000000 0.000000
# 4 0.000000 0.000000 0.000000 0.034453 0.000000 0.002437
# 5 -0.001219 0.001219 0.000000 0.000000 0.034453 0.000000
# 6 0.000000 0.000000 0.000000 0.002437 0.000000 0.033868
#
#
# Mechanical properties :
#
#
# Convention : Reuss Voigt Hill
#
# Bulk Modulus (GPa) = 44.67550 46.74470 45.71010
# Shear Modulus (GPa) = 31.03399 32.09150 31.56274
#
# Velocity S-wave (km/s) = 3.85577 3.92092 3.88848
# Velocity P-wave (km/s) = 6.42064 6.54915 6.48521
#
# Compressibility (1/GPa) = 0.02238363
#
# Stress axis : x y z
#
# Youngs Moduli (GPa) = 71.73055 71.73021 114.29552
#
# Poissons Ratio (x) = 0.21468 0.23608
# Poissons Ratio (y) = 0.21468 0.23608
# Poissons Ratio (z) = 0.14816 0.14816
#
# Static dielectric constant tensor:
#      x y z
#    x 3.667570 0.000000 0.000000 
#    y 0.000000 3.667580 0.000000 
#    z 0.000000 0.000000 3.957240 
# 
# 
# High freq. dielectric constant tensor:
#      x y z
#    x 1.813530 0.000000 0.000000 
#    y 0.000000 1.813530 0.000000 
#    z 0.000000 0.000000 1.838540 
# 
# From -- ./inp_files/3049.got.cif
#   From: 2010.03.12/outbox.cif.g09.slc.cpg/sg163_2_cif.got.tgz:3049.got - 2010.04.02 06:30:25.
