data_PCOD8323202
_publ_section_title
;
Structure prediction by ZEFSAII (Michael W. Deem and Ramdas Pophale) SiO2 
 PCOD8323202
Probable space group: P -3 1 C
;
_chemical_formula_sum "Si O2"
_cell_formula_units_Z 36
_cell_length_a 13.501173
_cell_length_b 13.501173
_cell_length_c 13.599233
_cell_angle_alpha 90.000000
_cell_angle_beta 90.000000
_cell_angle_gamma 120.000000
_cell_volume 2146.782522
_symmetry_space_group_name_H-M "P -3 1 C"
_symmetry_group_IT_number 163
_symmetry_cell_setting 'hexagonal'
loop_
_space_group_symop_operation_xyz
x,y,z
-y,x-y,z
-x+y,-x,z
-y,-x,1/2-z
-x+y,y,1/2-z
x,x-y,1/2-z
-x,-y,-z
y,-x+y,-z
x-y,x,-z
y,x,1/2+z
x-y,-y,1/2+z
-x,-x+y,1/2+z
loop_
_atom_site_type_symbol
_atom_site_label
_atom_site_fract_x
_atom_site_fract_y
_atom_site_fract_z
Si Si1 0.667272 0.125959 0.210139
Si Si2 0.334359 0.795477 1.000000
Si Si3 0.458688 0.332729 0.789861
O O1 0.794671 0.205330 0.250000
O O2 0.586792 0.173584 0.250000
O O3 0.625663 0.000000 0.250000
O O4 0.664840 0.130001 0.092199
O O5 0.221417 0.667615 1.000000
O O6 0.335161 0.869999 0.092199
O O7 0.586793 0.413208 0.750000
O O8 0.410659 0.205330 0.750000
#
# Coordination Sequence:
#
# PCOD8323202 Si02
#       3
#    12  12  12
#     4  11  21  34  54  79 111 144 184 229 275 331
#     4  10  18  33  59  73 114 146 187 219 278 336
#     4  11  21  34  54  79 111 144 184 229 275 331
#
# _framework density 16.769283000000001
#
# number of rings (size 3 to 8) (size 9 to 14) (size 15 to 20)
#    0.667    0.667    6.667    0.667    0.000    8.000 
#    0.000    0.000    0.000    0.667    0.000    0.000 
#    0.000    5.333    0.000    0.000    0.000    0.000 
#
# Total GULP energy -446335.914538 kJ/mol
# GULP energy per Si atom -12398.219848 kJ/mol
# Density = 1.673112 g / cm^3
# Si number density = 16.769283 Si / 1000 Ang^3
#
#
#
# Elastic Constant Matrix: (Units=GPa)
#
#
# Indices 1 2 3 4 5 6 
#
# 1 93.1372 53.5373 56.0801 0.0001 -0.0002 0.0000
# 2 53.5373 93.1372 56.0801 -0.0001 0.0002 0.0000
# 3 56.0801 56.0801 190.5977 0.0000 0.0000 0.0000
# 4 0.0001 -0.0001 0.0000 16.0406 0.0000 0.0002
# 5 -0.0002 0.0002 0.0000 0.0000 16.0406 0.0001
# 6 0.0000 0.0000 0.0000 0.0002 0.0001 19.8000
#
#
#
# Elastic Compliance Matrix: (Units=1/GPa)
#
#
# Indices 1 2 3 4 5 6 
#
# 1 0.017025 -0.008228 -0.002588 0.000000 0.000000 0.000000
# 2 -0.008228 0.017025 -0.002588 0.000000 0.000000 0.000000
# 3 -0.002588 -0.002588 0.006770 0.000000 0.000000 0.000000
# 4 0.000000 0.000000 0.000000 0.062342 0.000000 0.000000
# 5 0.000000 0.000000 0.000000 0.000000 0.062342 0.000000
# 6 0.000000 0.000000 0.000000 0.000000 0.000000 0.050505
#
#
# Mechanical properties :
#
#
# Convention : Reuss Voigt Hill
#
# Bulk Modulus (GPa) = 71.37510 78.69637 75.03573
# Shear Modulus (GPa) = 20.20303 24.45454 22.32878
#
# Velocity S-wave (km/s) = 3.47474 3.82290 3.65297
# Velocity P-wave (km/s) = 7.66510 8.15579 7.91425
#
# Compressibility (1/GPa) = 0.01401049
#
# Stress axis : x y z
#
# Youngs Moduli (GPa) = 58.73763 58.73763 147.71392
#
# Poissons Ratio (x) = 0.48328 0.38234
# Poissons Ratio (y) = 0.48328 0.38234
# Poissons Ratio (z) = 0.15204 0.15204
#
# Static dielectric constant tensor:
#      x y z
#    x 2.827460 0.000000 0.000000 
#    y 0.000000 2.827460 0.000000 
#    z 0.000000 0.000000 3.270420 
# 
# 
# High freq. dielectric constant tensor:
#      x y z
#    x 1.613870 0.000000 0.000000 
#    y 0.000000 1.613870 0.000000 
#    z 0.000000 0.000000 1.672010 
# 
# From -- ./inp_files/2137.got.cif
#   From: 2010.03.12/outbox.cif.g09.slc.cpg/sg163_2_cif.got.tgz:2137.got - 2010.04.02 06:30:25.
