data_PCOD8323256
_publ_section_title
;
Structure prediction by ZEFSAII (Michael W. Deem and Ramdas Pophale) SiO2 
 PCOD8323256
Probable space group: P -3 1 C
;
_chemical_formula_sum "Si O2"
_cell_formula_units_Z 84
_cell_length_a 16.890519
_cell_length_b 16.890519
_cell_length_c 14.107032
_cell_angle_alpha 90.000000
_cell_angle_beta 90.000000
_cell_angle_gamma 120.000000
_cell_volume 3485.397153
_symmetry_space_group_name_H-M "P -3 1 C"
_symmetry_group_IT_number 163
_symmetry_cell_setting 'hexagonal'
loop_
_space_group_symop_operation_xyz
x,y,z
-y,x-y,z
-x+y,-x,z
-y,-x,1/2-z
-x+y,y,1/2-z
x,x-y,1/2-z
-x,-y,-z
y,-x+y,-z
x-y,x,-z
y,x,1/2+z
x-y,-y,1/2+z
-x,-x+y,1/2+z
loop_
_atom_site_type_symbol
_atom_site_label
_atom_site_fract_x
_atom_site_fract_y
_atom_site_fract_z
Si Si1 0.127569 0.928086 0.521626
Si Si2 0.451195 0.548806 0.250000
Si Si3 0.712454 0.231982 0.072883
Si Si4 0.161328 0.604547 0.048597
Si Si5 0.665694 0.881911 0.640177
Si Si6 0.597386 0.647462 0.698055
Si Si7 0.350412 0.031933 0.990270
Si Si8 0.597886 0.195772 0.250000
O O1 0.107843 0.872794 0.621917
O O2 0.207788 0.916875 0.471281
O O3 0.033695 0.877049 0.460294
O O4 0.417484 0.582490 0.159139
O O5 0.403974 0.438053 0.249118
O O6 0.796682 0.216840 0.106862
O O7 0.676726 0.254550 0.171684
O O8 0.746206 0.311387 0.994634
O O9 0.626951 0.145847 0.018034
O O10 0.081605 0.628099 0.043239
O O11 0.656557 0.910496 0.747104
O O12 0.640953 0.941071 0.570325
O O13 0.651789 0.661586 0.601242
O O14 0.492907 0.625101 0.687300
#
# Coordination Sequence:
#
# PCOD8323256 Si02
#       8
#    12   6  12  12  12  12  12   6
#     4  10  22  42  72 106 143 192 240 302 378 460
#     4  11  24  40  66 100 138 184 248 310 362 450
#     4  11  23  40  60  95 134 188 236 295 366 436
#     4  12  24  41  63  92 139 193 242 294 369 442
#     4  10  21  39  68 100 139 174 239 295 368 444
#     4  10  20  37  66 103 132 175 236 309 375 426
#     4  11  21  40  68  98 136 188 237 303 368 444
#     4   9  20  36  60  94 136 178 232 306 364 430
#
# _framework density 24.100553000000001
#
# number of rings (size 3 to 8) (size 9 to 14) (size 15 to 20)
#    0.000    1.429    4.286    1.286    0.000    2.857 
#    0.000    0.000    0.000   21.429    0.000    0.000 
#    0.000    0.000    0.000    0.000    0.000    0.000 
#
# Total GULP energy -1040677.223015 kJ/mol
# GULP energy per Si atom -12389.014560 kJ/mol
# Density = 2.404570 g / cm^3
# Si number density = 24.100553 Si / 1000 Ang^3
#
#
#
# Elastic Constant Matrix: (Units=GPa)
#
#
# Indices 1 2 3 4 5 6 
#
# 1 65.0254 9.7741 10.5391 0.0000 -1.2611 0.0000
# 2 9.7741 65.0254 10.5391 0.0000 1.2611 0.0000
# 3 10.5391 10.5391 116.7719 0.0000 0.0000 0.0000
# 4 0.0000 0.0000 0.0000 30.5917 0.0000 1.2611
# 5 -1.2611 1.2611 0.0000 0.0000 30.5917 0.0000
# 6 0.0000 0.0000 0.0000 1.2611 0.0000 27.6256
#
#
#
# Elastic Compliance Matrix: (Units=1/GPa)
#
#
# Indices 1 2 3 4 5 6 
#
# 1 0.015926 -0.002208 -0.001238 0.000000 0.000748 0.000000
# 2 -0.002208 0.015926 -0.001238 0.000000 -0.000748 0.000000
# 3 -0.001238 -0.001238 0.008787 0.000000 0.000000 0.000000
# 4 0.000000 0.000000 0.000000 0.032750 0.000000 -0.001495
# 5 0.000748 -0.000748 0.000000 0.000000 0.032750 0.000000
# 6 0.000000 0.000000 0.000000 -0.001495 0.000000 0.036267
#
#
# Mechanical properties :
#
#
# Convention : Reuss Voigt Hill
#
# Bulk Modulus (GPa) = 31.97882 34.28084 33.12983
# Shear Modulus (GPa) = 30.82677 32.15983 31.49330
#
# Velocity S-wave (km/s) = 3.58032 3.65691 3.61882
# Velocity P-wave (km/s) = 5.51265 5.66442 5.58905
#
# Compressibility (1/GPa) = 0.03127070
#
# Stress axis : x y z
#
# Youngs Moduli (GPa) = 62.79197 62.79197 113.80202
#
# Poissons Ratio (x) = 0.13862 0.14090
# Poissons Ratio (y) = 0.13862 0.14090
# Poissons Ratio (z) = 0.07774 0.07774
#
# Static dielectric constant tensor:
#      x y z
#    x 4.474790 0.000000 0.000000 
#    y 0.000000 4.474790 0.000000 
#    z 0.000000 0.000000 4.362800 
# 
# 
# High freq. dielectric constant tensor:
#      x y z
#    x 1.961290 0.000000 0.000000 
#    y 0.000000 1.961290 0.000000 
#    z 0.000000 0.000000 1.945980 
# 
# From -- ./inp_files/2704.got.cif
#   From: 2010.03.12/outbox.cif.g09.slc.cpg/sg163_2_cif.got.tgz:2704.got - 2010.04.02 06:30:25.
