data_PCOD8323552
_publ_section_title
;
Structure prediction by ZEFSAII (Michael W. Deem and Ramdas Pophale) SiO2 
 PCOD8323552
Probable space group: P -3 M 1
;
_chemical_formula_sum "Si O2"
_cell_formula_units_Z 60
_cell_length_a 17.866332
_cell_length_b 17.866332
_cell_length_c 12.180205
_cell_angle_alpha 90.000000
_cell_angle_beta 90.000000
_cell_angle_gamma 120.000000
_cell_volume 3367.100114
_symmetry_space_group_name_H-M "P -3 M 1"
_symmetry_group_IT_number 164
_symmetry_cell_setting 'hexagonal'
loop_
_space_group_symop_operation_xyz
x,y,z
-y,x-y,z
-x+y,-x,z
x-y,-y,-z
-x,-x+y,-z
y,x,-z
-x,-y,-z
y,-x+y,-z
x-y,x,-z
-x+y,y,z
x,x-y,z
-y,-x,z
loop_
_atom_site_type_symbol
_atom_site_label
_atom_site_fract_x
_atom_site_fract_y
_atom_site_fract_z
Si Si1 0.374837 0.918552 0.574635
Si Si2 0.500344 0.333054 0.641171
Si Si3 0.631765 0.730586 0.789431
Si Si4 0.101634 0.633904 0.993504
Si Si5 0.359225 0.263431 0.809606
O O1 0.464880 0.929760 0.622209
O O2 0.330038 0.838054 0.490836
O O3 0.309155 0.903195 0.671438
O O4 0.393401 0.000000 0.500000
O O5 0.527832 0.263916 0.677679
O O6 0.572476 0.427525 0.682222
O O7 0.410350 0.310740 0.698636
O O8 0.666313 0.833157 0.787410
O O9 0.555395 0.684745 0.878333
O O10 0.712282 0.716370 0.822634
O O11 0.144245 0.572123 0.002650
O O12 0.131373 0.702509 0.091972
O O13 0.000000 0.573906 0.000000
O O14 0.318588 0.159294 0.802477
#
# Coordination Sequence:
#
# PCOD8323552 Si02
#       5
#    12  12  12  12  12
#     4  10  19  32  51  73  99 132 170 210 255 312
#     4  10  19  31  49  73 101 131 165 206 252 303
#     4  11  21  34  53  78 104 134 176 222 267 312
#     4   9  18  32  53  78 104 134 167 203 246 301
#     4  10  20  34  52  75 103 136 175 217 261 307
#
# _framework density 17.819488
#
# number of rings (size 3 to 8) (size 9 to 14) (size 15 to 20)
#    0.000    2.000    2.000    2.600    0.000    1.600 
#    0.000    0.000    0.000   10.000    0.000    0.000 
#    0.000    5.600    0.000    0.000    0.000    0.000 
#
# Total GULP energy -743716.821123 kJ/mol
# GULP energy per Si atom -12395.280352 kJ/mol
# Density = 1.777893 g / cm^3
# Si number density = 17.819488 Si / 1000 Ang^3
#
#
#
# Elastic Constant Matrix: (Units=GPa)
#
#
# Indices 1 2 3 4 5 6 
#
# 1 91.4883 56.1530 28.0952 -1.6632 0.0000 0.0000
# 2 56.1530 91.4883 28.0952 1.6632 0.0000 0.0000
# 3 28.0952 28.0952 88.9498 0.0000 0.0000 0.0000
# 4 -1.6632 1.6632 0.0000 19.3973 0.0000 0.0000
# 5 0.0000 0.0000 0.0000 0.0000 19.3973 -1.6632
# 6 0.0000 0.0000 0.0000 0.0000 -1.6632 17.6676
#
#
#
# Elastic Compliance Matrix: (Units=1/GPa)
#
#
# Indices 1 2 3 4 5 6 
#
# 1 0.018115 -0.010416 -0.002432 0.002446 0.000000 0.000000
# 2 -0.010416 0.018115 -0.002432 -0.002446 0.000000 0.000000
# 3 -0.002432 -0.002432 0.012778 0.000000 0.000000 0.000000
# 4 0.002446 -0.002446 0.000000 0.051973 0.000000 0.000000
# 5 0.000000 0.000000 0.000000 0.000000 0.051973 0.004893
# 6 0.000000 0.000000 0.000000 0.000000 0.004893 0.057061
#
#
# Mechanical properties :
#
#
# Convention : Reuss Voigt Hill
#
# Bulk Modulus (GPa) = 54.20333 55.17926 54.69130
# Shear Modulus (GPa) = 20.26561 21.93131 21.09846
#
# Velocity S-wave (km/s) = 3.37601 3.51201 3.44468
# Velocity P-wave (km/s) = 6.75874 6.89047 6.82492
#
# Compressibility (1/GPa) = 0.01844905
#
# Stress axis : x y z
#
# Youngs Moduli (GPa) = 55.20402 55.20402 78.25713
#
# Poissons Ratio (x) = 0.57500 0.19029
# Poissons Ratio (y) = 0.57500 0.19029
# Poissons Ratio (z) = 0.13424 0.13424
#
# Static dielectric constant tensor:
#      x y z
#    x 3.164450 0.000000 0.000000 
#    y 0.000000 3.164450 0.000000 
#    z 0.000000 0.000000 3.476310 
# 
# 
# High freq. dielectric constant tensor:
#      x y z
#    x 1.666050 0.000000 0.000000 
#    y 0.000000 1.666050 0.000000 
#    z 0.000000 0.000000 1.703050 
# 
# From -- ./inp_files/2671.got.cif
#   From: 2010.03.12/outbox.cif.g09.slc.cpg/sg164_2_cif.got.tgz:2671.got - 2010.04.02 06:32:59.
