data_PCOD8323016
_publ_section_title
;
Structure prediction by ZEFSAII (Michael W. Deem and Ramdas Pophale) SiO2 
 PCOD8323016
Probable space group: P -3 1 M 
;
_chemical_formula_sum "Si O2"
_cell_formula_units_Z 90
_cell_length_a 17.343416
_cell_length_b 17.343416
_cell_length_c 18.557430
_cell_angle_alpha 90.000000
_cell_angle_beta 90.000000
_cell_angle_gamma 120.000000
_cell_volume 4834.123542
_symmetry_space_group_name_H-M "P -3 1 M "
_symmetry_group_IT_number 162
_symmetry_cell_setting 'hexagonal'
loop_
_space_group_symop_operation_xyz
x,y,z
-y,x-y,z
-x+y,-x,z
-y,-x,-z
-x+y,y,-z
x,x-y,-z
-x,-y,-z
y,-x+y,-z
x-y,x,-z
y,x,z
x-y,-y,z
-x,-x+y,z
loop_
_atom_site_type_symbol
_atom_site_label
_atom_site_fract_x
_atom_site_fract_y
_atom_site_fract_z
Si Si1 0.455198 0.812520 0.070970
Si Si2 0.504269 0.602106 0.406770
Si Si3 0.834641 0.318107 0.546005
Si Si4 0.618385 0.724596 0.283681
Si Si5 0.898715 0.101286 0.500000
Si Si6 0.731037 0.097713 0.991168
Si Si7 0.790811 0.103138 0.364524
Si Si8 0.684111 0.169561 0.861665
O O1 0.419944 0.857882 0.129337
O O2 0.461852 0.733271 0.109811
O O3 0.390527 0.781054 0.000000
O O4 0.554672 0.883795 0.046670
O O5 0.522087 0.522087 0.384466
O O6 0.398835 0.568833 0.413138
O O7 0.550322 0.639245 0.484733
O O8 0.551565 0.682061 0.350468
O O9 0.745505 0.254496 0.500000
O O10 0.864384 0.275502 0.608257
O O11 0.679483 0.679483 0.270627
O O12 0.681119 0.830655 0.299619
O O13 0.552270 0.709686 0.218069
O O14 0.853564 0.115587 0.431035
O O15 0.000000 0.141042 0.478670
O O16 0.704089 0.105381 0.910116
O O17 0.715117 0.000000 0.005385
O O18 0.835552 0.164449 0.000000
O O19 0.737975 0.000000 0.337429
#
# Coordination Sequence:
#
# PCOD8323016 Si02
#       8
#    12  12  12  12   6  12  12  12
#     4   9  18  33  56  84 114 146 185 230 282 332
#     4  10  21  37  54  75 107 146 185 234 293 349
#     4  11  19  35  56  79  99 134 189 241 288 336
#     4  11  23  39  55  78 115 156 195 229 281 352
#     4  10  19  32  54  82 108 136 182 250 319 370
#     4   9  18  33  55  84 113 146 189 236 285 331
#     4  11  21  36  57  80 108 144 189 243 300 355
#     4  10  20  34  56  84 116 155 186 224 274 334
#
# _framework density 18.617647000000002
#
# number of rings (size 3 to 8) (size 9 to 14) (size 15 to 20)
#    0.000    1.867    2.000    3.933    0.000    7.733 
#    3.200    2.667    0.000    0.400    0.000    0.000 
#    0.000    1.067    0.000    0.000    0.000    0.400 
#
# Total GULP energy -1115112.094836 kJ/mol
# GULP energy per Si atom -12390.134387 kJ/mol
# Density = 1.857527 g / cm^3
# Si number density = 18.617647 Si / 1000 Ang^3
#
#
#
# Elastic Constant Matrix: (Units=GPa)
#
#
# Indices 1 2 3 4 5 6 
#
# 1 103.4104 63.2701 34.2594 0.0000 -1.2308 0.0000
# 2 63.2701 103.4104 34.2594 0.0000 1.2308 0.0000
# 3 34.2594 34.2594 73.4821 0.0000 0.0000 0.0000
# 4 0.0000 0.0000 0.0000 23.9708 0.0000 1.2308
# 5 -1.2308 1.2308 0.0000 0.0000 23.9708 0.0000
# 6 0.0000 0.0000 0.0000 1.2308 0.0000 20.0701
#
#
#
# Elastic Compliance Matrix: (Units=1/GPa)
#
#
# Indices 1 2 3 4 5 6 
#
# 1 0.016207 -0.008785 -0.003460 0.000000 0.001283 0.000000
# 2 -0.008785 0.016207 -0.003460 0.000000 -0.001283 0.000000
# 3 -0.003460 -0.003460 0.016835 0.000000 0.000000 0.000000
# 4 0.000000 0.000000 0.000000 0.041849 0.000000 -0.002566
# 5 0.001283 -0.001283 0.000000 0.000000 0.041849 0.000000
# 6 0.000000 0.000000 0.000000 -0.002566 0.000000 0.049983
#
#
# Mechanical properties :
#
#
# Convention : Reuss Voigt Hill
#
# Bulk Modulus (GPa) = 56.06013 60.43118 58.24566
# Shear Modulus (GPa) = 22.69773 23.50329 23.10051
#
# Velocity S-wave (km/s) = 3.49542 3.55691 3.52630
# Velocity P-wave (km/s) = 6.81669 7.02840 6.92335
#
# Compressibility (1/GPa) = 0.01783799
#
# Stress axis : x y z
#
# Youngs Moduli (GPa) = 61.70308 61.70308 59.39883
#
# Poissons Ratio (x) = 0.54204 0.20554
# Poissons Ratio (y) = 0.54204 0.20554
# Poissons Ratio (z) = 0.21351 0.21351
#
# Static dielectric constant tensor:
#      x y z
#    x 3.479270 0.000000 0.000000 
#    y 0.000000 3.479270 0.000000 
#    z 0.000000 0.000000 3.306660 
# 
# 
# High freq. dielectric constant tensor:
#      x y z
#    x 1.717890 0.000000 0.000000 
#    y 0.000000 1.717890 0.000000 
#    z 0.000000 0.000000 1.697980 
# 
# From -- ./inp_files/3664.got.cif
#   From: 2010.03.12/outbox.cif.g09.slc.cpg/sg162_2_cif.got.tgz:3664.got - 2010.04.02 06:27:41.
