data_PCOD8323229
_publ_section_title
;
Structure prediction by ZEFSAII (Michael W. Deem and Ramdas Pophale) SiO2 
 PCOD8323229
Probable space group: P -3 1 C
;
_chemical_formula_sum "Si O2"
_cell_formula_units_Z 72
_cell_length_a 14.833169
_cell_length_b 14.833169
_cell_length_c 19.675568
_cell_angle_alpha 90.000000
_cell_angle_beta 90.000000
_cell_angle_gamma 120.000000
_cell_volume 3749.089428
_symmetry_space_group_name_H-M "P -3 1 C"
_symmetry_group_IT_number 163
_symmetry_cell_setting 'hexagonal'
loop_
_space_group_symop_operation_xyz
x,y,z
-y,x-y,z
-x+y,-x,z
-y,-x,1/2-z
-x+y,y,1/2-z
x,x-y,1/2-z
-x,-y,-z
y,-x+y,-z
x-y,x,-z
y,x,1/2+z
x-y,-y,1/2+z
-x,-x+y,1/2+z
loop_
_atom_site_type_symbol
_atom_site_label
_atom_site_fract_x
_atom_site_fract_y
_atom_site_fract_z
Si Si1 0.221217 0.853243 0.321730
Si Si2 0.405963 0.902325 0.411343
Si Si3 0.966174 0.335966 0.630542
Si Si4 0.070345 0.729022 0.731904
Si Si5 0.682034 0.158824 0.444540
Si Si6 0.352826 0.867492 0.890417
O O1 0.204152 0.795849 0.250000
O O2 0.316180 0.847959 0.355717
O O3 0.116203 0.788584 0.367593
O O4 0.248877 0.972981 0.310006
O O5 0.506108 0.900664 0.381911
O O6 0.365040 0.841200 0.481926
O O7 0.431075 0.019598 0.425510
O O8 0.028183 0.371537 0.701833
O O9 0.052143 0.367960 0.571022
O O10 0.150738 0.849263 0.750000
O O11 0.128535 0.683485 0.686016
O O12 0.797992 0.254438 0.438423
O O13 0.609198 0.174177 0.389243
#
# Coordination Sequence:
#
# PCOD8323229 Si02
#       6
#    12  12  12  12  12  12
#     4   9  21  37  60  85 113 149 199 239 292 353
#     4  10  23  36  59  82 121 156 197 239 289 352
#     4  10  20  39  59  83 113 158 193 242 294 353
#     4  10  19  38  60  84 113 150 192 246 294 348
#     4  11  22  35  58  83 123 152 199 238 290 355
#     4  10  21  37  53  87 113 156 192 238 291 348
#
# _framework density 19.204663
#
# number of rings (size 3 to 8) (size 9 to 14) (size 15 to 20)
#    0.000    2.000    1.667    2.333    4.667   10.667 
#    1.000    0.000    0.000    9.000    0.000    0.000 
#    0.000    8.333    0.000    0.000    0.000    0.000 
#
# Total GULP energy -892441.491283 kJ/mol
# GULP energy per Si atom -12395.020712 kJ/mol
# Density = 1.916095 g / cm^3
# Si number density = 19.204663 Si / 1000 Ang^3
#
#
#
# Elastic Constant Matrix: (Units=GPa)
#
#
# Indices 1 2 3 4 5 6 
#
# 1 89.4887 41.7440 36.8016 0.0001 1.3786 0.0000
# 2 41.7440 89.4887 36.8016 -0.0001 -1.3786 0.0000
# 3 36.8016 36.8016 79.4716 0.0000 0.0000 0.0000
# 4 0.0001 -0.0001 0.0000 29.5575 0.0000 -1.3786
# 5 1.3786 -1.3786 0.0000 0.0000 29.5575 0.0001
# 6 0.0000 0.0000 0.0000 -1.3786 0.0001 23.8723
#
#
#
# Elastic Compliance Matrix: (Units=1/GPa)
#
#
# Indices 1 2 3 4 5 6 
#
# 1 0.015647 -0.005354 -0.004767 0.000000 -0.000980 0.000000
# 2 -0.005354 0.015647 -0.004767 0.000000 0.000980 0.000000
# 3 -0.004767 -0.004767 0.016998 0.000000 0.000000 0.000000
# 4 0.000000 0.000000 0.000000 0.033924 0.000000 0.001959
# 5 -0.000980 0.000980 0.000000 0.000000 0.033924 0.000000
# 6 0.000000 0.000000 0.000000 0.001959 0.000000 0.042003
#
#
# Mechanical properties :
#
#
# Convention : Reuss Voigt Hill
#
# Bulk Modulus (GPa) = 54.00145 54.34929 54.17537
# Shear Modulus (GPa) = 25.76125 26.13760 25.94942
#
# Velocity S-wave (km/s) = 3.66649 3.69318 3.67986
# Velocity P-wave (km/s) = 6.79001 6.82258 6.80631
#
# Compressibility (1/GPa) = 0.01851802
#
# Stress axis : x y z
#
# Youngs Moduli (GPa) = 63.90835 63.90835 58.83105
#
# Poissons Ratio (x) = 0.34216 0.28043
# Poissons Ratio (y) = 0.34216 0.28043
# Poissons Ratio (z) = 0.30463 0.30463
#
# Static dielectric constant tensor:
#      x y z
#    x 3.574830 0.000000 0.000000 
#    y 0.000000 3.574830 0.000000 
#    z 0.000000 0.000000 3.527530 
# 
# 
# High freq. dielectric constant tensor:
#      x y z
#    x 1.734000 0.000000 0.000000 
#    y 0.000000 1.734000 0.000000 
#    z 0.000000 0.000000 1.748650 
# 
# From -- ./inp_files/3154.got.cif
#   From: 2010.03.12/outbox.cif.g09.slc.cpg/sg163_2_cif.got.tgz:3154.got - 2010.04.02 06:30:25.
