data_PCOD8323985
_publ_section_title
;
Structure prediction by ZEFSAII (Michael W. Deem and Ramdas Pophale) SiO2 
 PCOD8323985
Probable space group: R -3 M
;
_chemical_formula_sum "Si O2"
_cell_formula_units_Z 144
_cell_length_a 23.169244
_cell_length_b 23.169244
_cell_length_c 19.006307
_cell_angle_alpha 90.000000
_cell_angle_beta 90.000000
_cell_angle_gamma 120.000000
_cell_volume 8835.926571
_symmetry_space_group_name_H-M "R -3 M"
_symmetry_group_IT_number 166
_symmetry_cell_setting 'hexagonal'
loop_
_space_group_symop_operation_xyz
x,y,z
-y,x-y,z
-x+y,-x,z
x-y,-y,-z
-x,-x+y,-z
y,x,-z
-x,-y,-z
y,-x+y,-z
x-y,x,-z
-x+y,y,z
x,x-y,z
-y,-x,z
2/3+x,1/3+y,1/3+z
2/3-y,1/3+x-y,1/3+z
2/3-x+y,1/3-x,1/3+z
2/3+x-y,1/3-y,1/3-z
2/3-x,1/3-x+y,1/3-z
2/3+y,1/3+x,1/3-z
2/3-x,1/3-y,1/3-z
2/3+y,1/3-x+y,1/3-z
2/3+x-y,1/3+x,1/3-z
2/3-x+y,1/3+y,1/3+z
2/3+x,1/3+x-y,1/3+z
2/3-y,1/3-x,1/3+z
1/3+x,2/3+y,2/3+z
1/3-y,2/3+x-y,2/3+z
1/3-x+y,2/3-x,2/3+z
1/3+x-y,2/3-y,2/3-z
1/3-x,2/3-x+y,2/3-z
1/3+y,2/3+x,2/3-z
1/3-x,2/3-y,2/3-z
1/3+y,2/3-x+y,2/3-z
1/3+x-y,2/3+x,2/3-z
1/3-x+y,2/3+y,2/3+z
1/3+x,2/3+x-y,2/3+z
1/3-y,2/3-x,2/3+z
loop_
_atom_site_type_symbol
_atom_site_label
_atom_site_fract_x
_atom_site_fract_y
_atom_site_fract_z
Si Si1 0.726853 0.797148 0.024730
Si Si2 0.081614 0.294144 0.187073
Si Si3 0.955371 0.175856 0.562379
Si Si4 0.258179 0.264883 0.687589
O O1 0.745503 0.872752 0.011322
O O2 0.660031 0.748503 0.980598
O O3 0.788525 0.788525 0.000000
O O4 0.715903 0.777015 0.106037
O O5 0.135843 0.271685 0.204068
O O6 0.112370 0.371796 0.200712
O O7 0.015472 0.249117 0.234093
O O8 0.897971 0.102030 0.582081
O O9 0.999205 0.208356 0.632612
O O10 0.000000 0.171295 0.500000
O O11 0.333334 0.287525 0.666667
#
# Coordination Sequence:
#
# PCOD8323985 Si02
#       4
#    36  36  36  36
#     4  10  20  33  50  70  98 128 158 198 248 298
#     4   9  17  30  45  64  93 129 161 195 240 290
#     4  10  17  26  42  65  91 123 162 202 239 284
#     4   9  17  27  45  66  91 120 160 199 241 286
#
# _framework density 16.297103
#
# number of rings (size 3 to 8) (size 9 to 14) (size 15 to 20)
#    0.000    2.500    2.500    0.750    0.000    3.000 
#    0.000    2.500    0.000    0.500    0.000    0.000 
#    0.000    0.000    0.000    0.000    0.000    0.000 
#
# Total GULP energy -595063.876619 kJ/mol
# GULP energy per Si atom -12397.164096 kJ/mol
# Density = 1.626001 g / cm^3
# Si number density = 16.297103 Si / 1000 Ang^3
#
#
#
# Elastic Constant Matrix: (Units=GPa)
#
#
# Indices 1 2 3 4 5 6 
#
# 1 70.9116 32.4059 32.7669 -3.3150 0.0001 0.0000
# 2 32.4059 70.9116 32.7669 3.3150 -0.0001 0.0000
# 3 32.7669 32.7669 70.8839 0.0000 0.0000 0.0000
# 4 -3.3150 3.3150 0.0000 22.1096 0.0000 -0.0001
# 5 0.0001 -0.0001 0.0000 0.0000 22.1096 -3.3150
# 6 0.0000 0.0000 0.0000 -0.0001 -3.3150 19.2529
#
#
#
# Elastic Compliance Matrix: (Units=1/GPa)
#
#
# Indices 1 2 3 4 5 6 
#
# 1 0.020176 -0.006482 -0.006330 0.003997 0.000000 0.000000
# 2 -0.006482 0.020176 -0.006330 -0.003997 0.000000 0.000000
# 3 -0.006330 -0.006330 0.019960 0.000000 0.000000 0.000000
# 4 0.003997 -0.003997 0.000000 0.046428 0.000000 0.000000
# 5 0.000000 0.000000 0.000000 0.000000 0.046428 0.007994
# 6 0.000000 0.000000 0.000000 0.000000 0.007994 0.053317
#
#
# Mechanical properties :
#
#
# Convention : Reuss Voigt Hill
#
# Bulk Modulus (GPa) = 45.39827 45.39849 45.39838
# Shear Modulus (GPa) = 19.83237 20.34556 20.08897
#
# Velocity S-wave (km/s) = 3.49223 3.53713 3.51475
# Velocity P-wave (km/s) = 6.64666 6.67824 6.66247
#
# Compressibility (1/GPa) = 0.02202727
#
# Stress axis : x y z
#
# Youngs Moduli (GPa) = 49.56311 49.56311 50.09999
#
# Poissons Ratio (x) = 0.32127 0.31715
# Poissons Ratio (y) = 0.32127 0.31715
# Poissons Ratio (z) = 0.31375 0.31375
#
# Static dielectric constant tensor:
#      x y z
#    x 2.846730 0.000000 0.000000 
#    y 0.000000 2.846730 0.000000 
#    z 0.000000 0.000000 3.263400 
# 
# 
# High freq. dielectric constant tensor:
#      x y z
#    x 1.592190 0.000000 0.000000 
#    y 0.000000 1.592190 0.000000 
#    z 0.000000 0.000000 1.635680 
# 
# From -- ./inp_files/5220.got.cif
#   From: 2010.03.12/outbox.cif.g09.slc.cpg/sg166_3_cif.got.tgz:5220.got - 2010.04.02 06:38:31.
