data_PCOD8323940
_publ_section_title
;
Structure prediction by ZEFSAII (Michael W. Deem and Ramdas Pophale) SiO2 
 PCOD8323940
Probable space group: P -3 C 1
;
_chemical_formula_sum "Si O2"
_cell_formula_units_Z 38
_cell_length_a 10.833700
_cell_length_b 10.833700
_cell_length_c 16.287223
_cell_angle_alpha 90.000000
_cell_angle_beta 90.000000
_cell_angle_gamma 120.000000
_cell_volume 1655.508004
_symmetry_space_group_name_H-M "P -3 C 1"
_symmetry_group_IT_number 165
_symmetry_cell_setting 'hexagonal'
loop_
_space_group_symop_operation_xyz
x,y,z
-y,x-y,z
-x+y,-x,z
x-y,-y,1/2-z
-x,-x+y,1/2-z
y,x,1/2-z
-x,-y,-z
y,-x+y,-z
x-y,x,-z
-x+y,y,1/2+z
x,x-y,1/2+z
-y,-x,1/2+z
loop_
_atom_site_type_symbol
_atom_site_label
_atom_site_fract_x
_atom_site_fract_y
_atom_site_fract_z
Si Si1 0.157654 0.157654 0.250000
Si Si2 0.333335 0.666668 0.631459
Si Si3 0.333335 0.666668 0.825250
Si Si4 0.841260 0.638267 0.111753
Si Si5 0.646544 0.062342 0.950804
O O1 0.253171 0.227302 0.169139
O O2 0.000000 0.140712 0.250000
O O3 0.333334 0.666667 0.728369
O O4 0.478056 0.800324 0.600820
O O5 0.202478 0.520225 0.858883
O O6 0.701531 0.655586 0.113640
O O7 0.894179 0.663914 0.018310
O O8 0.500000 0.000000 0.000000
#
# Coordination Sequence:
#
# PCOD8323940 Si02
#       5
#     6   4   4  12  12
#     4  10  30  50  68 106 152 188 240 300 372 458
#     4  12  28  44  73 114 142 203 250 312 385 440
#     4  12  28  44  76 114 148 188 247 312 382 431
#     4  12  27  48  75 110 148 197 247 312 375 448
#     4  12  25  48  75 106 148 192 255 308 363 453
#
# _framework density 22.953679000000001
#
# number of rings (size 3 to 8) (size 9 to 14) (size 15 to 20)
#    0.316    0.000    6.316    0.000   13.263    0.000 
#    0.000    1.579    0.000    0.000    0.000    0.000 
#    0.000    0.000    0.000    0.000    0.000    0.000 
#
# Total GULP energy -471173.020065 kJ/mol
# GULP energy per Si atom -12399.290002 kJ/mol
# Density = 2.290144 g / cm^3
# Si number density = 22.953679 Si / 1000 Ang^3
#
#
#
# Elastic Constant Matrix: (Units=GPa)
#
#
# Indices 1 2 3 4 5 6 
#
# 1 86.6872 30.3310 32.6532 -7.6564 0.0000 0.0000
# 2 30.3310 86.6886 32.6535 7.6555 0.0000 0.0000
# 3 32.6532 32.6535 128.8528 -0.0003 0.0000 0.0000
# 4 -7.6564 7.6555 -0.0003 44.4003 0.0000 0.0000
# 5 0.0000 0.0000 0.0000 0.0000 44.4004 -7.6569
# 6 0.0000 0.0000 0.0000 0.0000 -7.6569 28.1756
#
#
#
# Elastic Compliance Matrix: (Units=1/GPa)
#
#
# Indices 1 2 3 4 5 6 
#
# 1 0.014285 -0.004331 -0.002522 0.003210 0.000000 0.000000
# 2 -0.004331 0.014285 -0.002522 -0.003210 0.000000 0.000000
# 3 -0.002522 -0.002522 0.009039 0.000000 0.000000 0.000000
# 4 0.003210 -0.003210 0.000000 0.023629 0.000000 0.000000
# 5 0.000000 0.000000 0.000000 0.000000 0.023630 0.006422
# 6 0.000000 0.000000 0.000000 0.000000 0.006422 0.037237
#
#
# Mechanical properties :
#
#
# Convention : Reuss Voigt Hill
#
# Bulk Modulus (GPa) = 53.03212 54.83378 53.93295
# Shear Modulus (GPa) = 33.98072 37.16799 35.57435
#
# Velocity S-wave (km/s) = 3.85178 4.02837 3.94106
# Velocity P-wave (km/s) = 6.55253 6.75113 6.65257
#
# Compressibility (1/GPa) = 0.01885650
#
# Stress axis : x y z
#
# Youngs Moduli (GPa) = 70.00408 70.00543 110.62945
#
# Poissons Ratio (x) = 0.30322 0.27904
# Poissons Ratio (y) = 0.30322 0.27904
# Poissons Ratio (z) = 0.17657 0.17658
#
# Static dielectric constant tensor:
#      x y z
#    x 3.611780 0.000000 0.000000 
#    y 0.000000 3.612290 0.000080 
#    z 0.000000 0.000080 3.997770 
# 
# 
# High freq. dielectric constant tensor:
#      x y z
#    x 1.909490 0.000000 0.000000 
#    y 0.000000 1.909490 0.000000 
#    z 0.000000 0.000000 1.906650 
# 
# From -- ./inp_files/2013.got.cif
#   From: 2010.03.12/outbox.cif.g09.slc.cpg/sg165_2_cif.got.tgz:2013.got - 2010.04.02 06:36:38.
