data_PCOD8323333
_publ_section_title
;
Structure prediction by ZEFSAII (Michael W. Deem and Ramdas Pophale) SiO2 
 PCOD8323333
Probable space group: P -3 1 C
;
_chemical_formula_sum "Si O2"
_cell_formula_units_Z 46
_cell_length_a 13.694526
_cell_length_b 13.694526
_cell_length_c 12.933758
_cell_angle_alpha 90.000000
_cell_angle_beta 90.000000
_cell_angle_gamma 120.000000
_cell_volume 2100.629074
_symmetry_space_group_name_H-M "P -3 1 C"
_symmetry_group_IT_number 163
_symmetry_cell_setting 'hexagonal'
loop_
_space_group_symop_operation_xyz
x,y,z
-y,x-y,z
-x+y,-x,z
-y,-x,1/2-z
-x+y,y,1/2-z
x,x-y,1/2-z
-x,-y,-z
y,-x+y,-z
x-y,x,-z
y,x,1/2+z
x-y,-y,1/2+z
-x,-x+y,1/2+z
loop_
_atom_site_type_symbol
_atom_site_label
_atom_site_fract_x
_atom_site_fract_y
_atom_site_fract_z
Si Si1 0.666668 0.333334 0.629982
Si Si2 0.822348 0.064309 0.044388
Si Si3 0.646397 0.512694 0.532692
Si Si4 0.676653 0.838327 0.750000
Si Si5 0.516032 0.602120 0.648793
O O1 0.666668 0.333334 0.750000
O O2 0.714300 0.460699 0.589303
O O3 0.822796 0.063792 0.170137
O O4 0.728498 0.096094 0.015935
O O5 0.941155 0.153026 0.994931
O O6 0.575991 0.530141 0.623110
O O7 0.567072 0.419381 0.447484
O O8 0.603760 0.733221 0.672572
O O9 0.442353 0.557648 0.750000
#
# Coordination Sequence:
#
# PCOD8323333 Si02
#       5
#     4  12  12   6  12
#     4  12  27  42  67 104 145 186 228 288 382 440
#     4  12  27  49  73 103 142 188 252 309 365 424
#     4  11  25  44  70 107 147 185 239 303 355 449
#     4  12  24  46  72 110 138 200 234 302 364 440
#     4  11  23  43  72 105 146 187 240 287 366 431
#
# _framework density 21.898201
#
# number of rings (size 3 to 8) (size 9 to 14) (size 15 to 20)
#    0.000    0.522    5.217    2.609    3.652    3.130 
#    0.783    0.000    0.000    0.000    0.000    0.000 
#    0.000    0.000    0.000    0.000    0.000    0.000 
#
# Total GULP energy -570200.576128 kJ/mol
# GULP energy per Si atom -12395.664698 kJ/mol
# Density = 2.184836 g / cm^3
# Si number density = 21.898201 Si / 1000 Ang^3
#
#
#
# Elastic Constant Matrix: (Units=GPa)
#
#
# Indices 1 2 3 4 5 6 
#
# 1 83.1476 29.2809 41.5905 -0.0005 -18.4171 -0.0001
# 2 29.2809 83.1476 41.5911 0.0007 18.4166 -0.0005
# 3 41.5905 41.5911 114.5171 -0.0007 -0.0007 0.0002
# 4 -0.0005 0.0007 -0.0007 -5.2570 0.0002 18.4164
# 5 -18.4171 18.4166 -0.0007 0.0002 -5.2587 -0.0008
# 6 -0.0001 -0.0005 0.0002 18.4164 -0.0008 26.9331
#
#
#
# Elastic Compliance Matrix: (Units=1/GPa)
#
#
# Indices 1 2 3 4 5 6 
#
# 1 0.008816 0.003347 -0.004417 -0.000001 -0.019152 0.000000
# 2 0.003347 0.008816 -0.004417 0.000002 0.019152 0.000000
# 3 -0.004417 -0.004417 0.011941 -0.000001 0.000000 0.000000
# 4 -0.000001 0.000002 -0.000001 -0.056023 -0.000001 0.038307
# 5 -0.019152 0.019152 0.000000 -0.000001 -0.056016 -0.000001
# 6 0.000000 0.000000 0.000000 0.038307 -0.000001 0.010935
#
#
# Mechanical properties :
#
#
# Convention : Reuss Voigt Hill
#
# Bulk Modulus (GPa) = 53.77169 56.19303 54.98236
# Shear Modulus (GPa) = -91.98361 14.50680 -38.73841
#
# Velocity S-wave (km/s) = -6.48817 2.57663 -4.21054
# Velocity P-wave (km/s) = 5.61425 5.87952 1.23471
#
# Compressibility (1/GPa) = 0.01859715
#
# Stress axis : x y z
#
# Youngs Moduli (GPa) = 113.43511 113.43473 83.74560
#
# Poissons Ratio (x) = -0.37968 0.36994
# Poissons Ratio (y) = -0.37968 0.36992
# Poissons Ratio (z) = 0.50109 0.50107
#
# Static dielectric constant tensor:
#      x y z
#    x 4.091940 0.000010 -0.000010 
#    y 0.000010 4.091950 -0.000010 
#    z -0.000010 -0.000010 4.853070 
# 
# 
# High freq. dielectric constant tensor:
#      x y z
#    x 1.861530 0.000000 0.000000 
#    y 0.000000 1.861530 0.000000 
#    z 0.000000 0.000000 1.879860 
# 
# From -- ./inp_files/1579.got.cif
#   From: 2010.03.12/outbox.cif.g09.slc.cpg/sg163_1_cif.got.tgz:1579.got - 2010.04.02 06:30:25.
