data_PCOD8323363
_publ_section_title
;
Structure prediction by ZEFSAII (Michael W. Deem and Ramdas Pophale) SiO2 
 PCOD8323363
Probable space group: P -3 M 1
;
_chemical_formula_sum "Si O2"
_cell_formula_units_Z 84
_cell_length_a 21.926923
_cell_length_b 21.926923
_cell_length_c 12.782891
_cell_angle_alpha 90.000000
_cell_angle_beta 90.000000
_cell_angle_gamma 120.000000
_cell_volume 5322.493018
_symmetry_space_group_name_H-M "P -3 M 1"
_symmetry_group_IT_number 164
_symmetry_cell_setting 'hexagonal'
loop_
_space_group_symop_operation_xyz
x,y,z
-y,x-y,z
-x+y,-x,z
x-y,-y,-z
-x,-x+y,-z
y,x,-z
-x,-y,-z
y,-x+y,-z
x-y,x,-z
-x+y,y,z
x,x-y,z
-y,-x,z
loop_
_atom_site_type_symbol
_atom_site_label
_atom_site_fract_x
_atom_site_fract_y
_atom_site_fract_z
Si Si1 0.926820 0.716268 0.456118
Si Si2 0.118913 0.739803 0.937700
Si Si3 0.700063 0.718436 0.757687
Si Si4 0.380300 0.259257 0.648155
Si Si5 0.666441 0.473837 0.959833
Si Si6 0.333729 0.803077 0.281862
Si Si7 0.244776 0.191471 0.919447
O O1 0.872319 0.744638 0.455997
O O2 0.933363 0.692743 0.340417
O O3 0.900974 0.648648 0.530984
O O4 0.000000 0.779618 0.500000
O O5 0.188661 0.811340 0.901652
O O6 0.066361 0.704374 0.839132
O O7 0.138150 0.681892 0.977408
O O8 0.081260 0.758766 0.030630
O O9 0.701674 0.648685 0.722595
O O10 0.774971 0.765818 0.814163
O O11 0.362839 0.181420 0.691101
O O12 0.463822 0.310307 0.643681
O O13 0.727511 0.455021 0.981651
O O14 0.592204 0.407797 0.996782
O O15 0.663994 0.490278 0.838042
O O16 0.409573 0.819146 0.321209
O O17 0.280053 0.719948 0.292142
O O18 0.229674 0.114837 0.890676
O O19 0.185692 0.185692 0.000000
#
# Coordination Sequence:
#
# PCOD8323363 Si02
#       7
#    12  12  12  12  12  12  12
#     4   9  18  31  48  69  88 108 138 176 216 256
#     4   9  17  28  42  62  88 116 145 179 216 251
#     4  10  17  27  45  65  88 115 146 177 211 255
#     4   9  17  29  45  65  88 112 139 177 223 262
#     4   9  16  26  41  62  88 117 148 180 214 252
#     4   9  16  27  45  67  89 113 143 179 217 256
#     4   9  17  28  44  66  89 114 144 178 215 252
#
# _framework density 15.782078
#
# number of rings (size 3 to 8) (size 9 to 14) (size 15 to 20)
#    0.000    2.857    0.000    2.000    0.000    4.571 
#    0.000    0.714    0.000   10.571    0.000    1.000 
#    0.000    2.286    0.000    0.000    0.000    0.000 
#
# Total GULP energy -1041144.768024 kJ/mol
# GULP energy per Si atom -12394.580572 kJ/mol
# Density = 1.574616 g / cm^3
# Si number density = 15.782078 Si / 1000 Ang^3
#
#
#
# Elastic Constant Matrix: (Units=GPa)
#
#
# Indices 1 2 3 4 5 6 
#
# 1 95.4722 49.5567 40.6275 -1.4771 0.0000 0.0000
# 2 49.5567 95.4722 40.6275 1.4771 0.0000 0.0000
# 3 40.6275 40.6275 73.8394 0.0000 0.0000 0.0000
# 4 -1.4771 1.4771 0.0000 19.3757 0.0000 0.0000
# 5 0.0000 0.0000 0.0000 0.0000 19.3757 -1.4771
# 6 0.0000 0.0000 0.0000 0.0000 -1.4771 22.9578
#
#
#
# Elastic Compliance Matrix: (Units=1/GPa)
#
#
# Indices 1 2 3 4 5 6 
#
# 1 0.015927 -0.005959 -0.005485 0.001668 0.000000 0.000000
# 2 -0.005959 0.015927 -0.005485 -0.001668 0.000000 0.000000
# 3 -0.005485 -0.005485 0.019578 0.000000 0.000000 0.000000
# 4 0.001668 -0.001668 0.000000 0.051865 0.000000 0.000000
# 5 0.000000 0.000000 0.000000 0.000000 0.051865 0.003337
# 6 0.000000 0.000000 0.000000 0.000000 0.003337 0.043773
#
#
# Mechanical properties :
#
#
# Convention : Reuss Voigt Hill
#
# Bulk Modulus (GPa) = 56.89546 58.48968 57.69257
# Shear Modulus (GPa) = 20.95105 21.27332 21.11218
#
# Velocity S-wave (km/s) = 3.64747 3.67542 3.66147
# Velocity P-wave (km/s) = 7.33946 7.42650 7.38311
#
# Compressibility (1/GPa) = 0.01757609
#
# Stress axis : x y z
#
# Youngs Moduli (GPa) = 62.78558 62.78558 51.07722
#
# Poissons Ratio (x) = 0.37416 0.28013
# Poissons Ratio (y) = 0.37416 0.28013
# Poissons Ratio (z) = 0.34435 0.34435
#
# Static dielectric constant tensor:
#      x y z
#    x 2.982680 0.000000 0.000000 
#    y 0.000000 2.982680 0.000000 
#    z 0.000000 0.000000 2.954600 
# 
# 
# High freq. dielectric constant tensor:
#      x y z
#    x 1.595860 0.000000 0.000000 
#    y 0.000000 1.595860 0.000000 
#    z 0.000000 0.000000 1.594870 
# 
# From -- ./inp_files/3078.got.cif
#   From: 2010.03.12/outbox.cif.g09.slc.cpg/sg164_2_cif.got.tgz:3078.got - 2010.04.02 06:32:59.
