data_PCOD8323560
_publ_section_title
;
Structure prediction by ZEFSAII (Michael W. Deem and Ramdas Pophale) SiO2 
 PCOD8323560
Probable space group: P -3 M 1
;
_chemical_formula_sum "Si O2"
_cell_formula_units_Z 96
_cell_length_a 17.725510
_cell_length_b 17.725510
_cell_length_c 21.337989
_cell_angle_alpha 90.000000
_cell_angle_beta 90.000000
_cell_angle_gamma 120.000000
_cell_volume 5806.061046
_symmetry_space_group_name_H-M "P -3 M 1"
_symmetry_group_IT_number 164
_symmetry_cell_setting 'hexagonal'
loop_
_space_group_symop_operation_xyz
x,y,z
-y,x-y,z
-x+y,-x,z
x-y,-y,-z
-x,-x+y,-z
y,x,-z
-x,-y,-z
y,-x+y,-z
x-y,x,-z
-x+y,y,z
x,x-y,z
-y,-x,z
loop_
_atom_site_type_symbol
_atom_site_label
_atom_site_fract_x
_atom_site_fract_y
_atom_site_fract_z
Si Si1 0.668196 0.497642 0.224299
Si Si2 0.025933 0.425126 0.254862
Si Si3 0.823438 0.821287 0.801373
Si Si4 0.526740 0.886701 0.911694
Si Si5 0.829557 0.331088 0.950194
Si Si6 0.765000 0.060153 0.682898
Si Si7 0.956642 0.306446 0.870561
Si Si8 0.826288 0.826288 0.428738
O O1 0.762127 0.524254 0.253274
O O2 0.601283 0.398718 0.243149
O O3 0.636901 0.559564 0.253654
O O4 0.678509 0.504786 0.149121
O O5 0.053275 0.526638 0.265913
O O6 0.059366 0.385933 0.309665
O O7 0.063044 0.412335 0.189649
O O8 0.926159 0.852318 0.802138
O O9 0.779712 0.777248 0.735132
O O10 0.775223 0.745154 0.853720
O O11 0.811946 0.905973 0.813118
O O12 0.465522 0.931044 0.909976
O O13 0.626804 0.959219 0.908923
O O14 0.511747 0.834317 0.975149
O O15 0.862609 0.431305 0.929981
O O16 0.727853 0.272148 0.932959
O O17 0.877585 0.285085 0.916869
O O18 0.840003 0.159998 0.688855
O O19 0.765049 0.020172 0.615316
O O20 0.796629 0.796629 0.500000
O O21 0.908136 0.816272 0.409704
O O22 0.854457 0.927229 0.419436
#
# Coordination Sequence:
#
# PCOD8323560 Si02
#       8
#    12  12  12  12  12  12  12  12
#     4   9  16  26  41  62  87 113 140 170 209 259
#     4   9  18  31  46  63  86 117 149 183 223 260
#     4  10  20  33  49  69  93 119 147 180 217 257
#     4   9  18  30  44  63  85 109 137 175 223 270
#     4  11  21  32  46  64  87 112 140 177 224 277
#     4   9  18  30  46  69  94 121 152 186 222 259
#     4  10  19  32  48  65  85 111 147 183 218 262
#     4   9  16  26  42  67 100 134 162 186 217 262
#
# _framework density 16.534445000000002
#
# number of rings (size 3 to 8) (size 9 to 14) (size 15 to 20)
#    0.000    2.500    0.000    3.875    0.000    7.500 
#    0.000    2.500    0.000    0.625    0.000    0.000 
#    0.000    5.000    0.000    0.250    0.000    0.000 
#
# Total GULP energy -1189473.844591 kJ/mol
# GULP energy per Si atom -12390.352548 kJ/mol
# Density = 1.649681 g / cm^3
# Si number density = 16.534445 Si / 1000 Ang^3
#
#
#
# Elastic Constant Matrix: (Units=GPa)
#
#
# Indices 1 2 3 4 5 6 
#
# 1 95.0966 22.5727 31.9520 -5.1426 0.0000 0.0000
# 2 22.5727 95.0966 31.9520 5.1426 0.0000 0.0000
# 3 31.9520 31.9520 47.6973 0.0000 0.0000 0.0000
# 4 -5.1426 5.1426 0.0000 20.1209 0.0000 0.0000
# 5 0.0000 0.0000 0.0000 0.0000 20.1209 -5.1426
# 6 0.0000 0.0000 0.0000 0.0000 -5.1426 36.2619
#
#
#
# Elastic Compliance Matrix: (Units=1/GPa)
#
#
# Indices 1 2 3 4 5 6 
#
# 1 0.013833 -0.000475 -0.008948 0.003657 0.000000 0.000000
# 2 -0.000475 0.013833 -0.008948 -0.003657 0.000000 0.000000
# 3 -0.008948 -0.008948 0.032955 0.000000 0.000000 0.000000
# 4 0.003657 -0.003657 0.000000 0.051569 0.000000 0.000000
# 5 0.000000 0.000000 0.000000 0.000000 0.051569 0.007313
# 6 0.000000 0.000000 0.000000 0.000000 0.007313 0.028614
#
#
# Mechanical properties :
#
#
# Convention : Reuss Voigt Hill
#
# Bulk Modulus (GPa) = 41.88153 45.64932 43.76542
# Shear Modulus (GPa) = 21.09050 25.39501 23.24275
#
# Velocity S-wave (km/s) = 3.57536 3.92329 3.75336
# Velocity P-wave (km/s) = 6.51376 6.94201 6.73129
#
# Compressibility (1/GPa) = 0.02387687
#
# Stress axis : x y z
#
# Youngs Moduli (GPa) = 72.29274 72.29274 30.34483
#
# Poissons Ratio (x) = 0.03430 0.27154
# Poissons Ratio (y) = 0.03430 0.27154
# Poissons Ratio (z) = 0.64691 0.64691
#
# Static dielectric constant tensor:
#      x y z
#    x 3.073690 0.000000 0.000000 
#    y 0.000000 3.073690 0.000000 
#    z 0.000000 0.000000 2.935340 
# 
# 
# High freq. dielectric constant tensor:
#      x y z
#    x 1.632380 0.000000 0.000000 
#    y 0.000000 1.632380 0.000000 
#    z 0.000000 0.000000 1.600380 
# 
# From -- ./inp_files/5075.got.cif
#   From: 2010.03.12/outbox.cif.g09.slc.cpg/sg164_3_cif.got.tgz:5075.got - 2010.04.02 06:32:59.
