data_PCOD8323547
_publ_section_title
;
Structure prediction by ZEFSAII (Michael W. Deem and Ramdas Pophale) SiO2 
 PCOD8323547
Probable space group: P -3 M 1
;
_chemical_formula_sum "Si O2"
_cell_formula_units_Z 96
_cell_length_a 24.060637
_cell_length_b 24.060637
_cell_length_c 10.688669
_cell_angle_alpha 90.000000
_cell_angle_beta 90.000000
_cell_angle_gamma 120.000000
_cell_volume 5358.811763
_symmetry_space_group_name_H-M "P -3 M 1"
_symmetry_group_IT_number 164
_symmetry_cell_setting 'hexagonal'
loop_
_space_group_symop_operation_xyz
x,y,z
-y,x-y,z
-x+y,-x,z
x-y,-y,-z
-x,-x+y,-z
y,x,-z
-x,-y,-z
y,-x+y,-z
x-y,x,-z
-x+y,y,z
x,x-y,z
-y,-x,z
loop_
_atom_site_type_symbol
_atom_site_label
_atom_site_fract_x
_atom_site_fract_y
_atom_site_fract_z
Si Si1 0.066574 0.596162 0.834431
Si Si2 0.276659 0.427071 0.682959
Si Si3 0.654287 0.722213 0.471904
Si Si4 0.130737 0.130712 0.141683
Si Si5 0.039371 0.830857 0.382976
Si Si6 0.543811 0.332135 0.501968
Si Si7 0.548992 0.837119 0.285979
Si Si8 0.924111 0.523683 0.871240
O O1 0.085786 0.542893 0.786370
O O2 0.110855 0.668894 0.785695
O O3 0.991990 0.571330 0.802880
O O4 0.071185 0.599207 0.981804
O O5 0.212046 0.424092 0.739665
O O6 0.254730 0.361521 0.604102
O O7 0.311687 0.484311 0.586766
O O8 0.657765 0.657765 0.500000
O O9 0.721068 0.772667 0.409312
O O10 0.600727 0.708221 0.372027
O O11 0.058568 0.117136 0.155616
O O12 0.176810 0.181104 0.248256
O O13 0.129321 0.064661 0.166485
O O14 0.156572 0.156572 0.000000
O O15 0.106500 0.893501 0.376075
O O16 0.000000 0.836808 0.500000
O O17 0.575390 0.287695 0.476690
O O18 0.594582 0.405419 0.475633
O O19 0.519269 0.321920 0.644214
O O20 0.570512 0.785256 0.250412
O O21 0.541658 0.870135 0.162727
O O22 0.902871 0.451436 0.828025
#
# Coordination Sequence:
#
# PCOD8323547 Si02
#       8
#    12  12  12  12  12  12  12  12
#     4   9  18  33  53  75 100 132 171 215 260 308
#     4  10  19  31  49  74 102 129 165 207 257 314
#     4  10  20  34  52  70  95 131 170 213 255 301
#     4   9  17  30  50  75 102 130 162 204 255 310
#     4  10  19  31  49  70  95 130 167 206 254 306
#     4   9  17  28  44  68  97 129 157 189 231 287
#     4  10  19  31  49  73 100 129 165 207 257 310
#     4   9  18  33  53  75  99 131 172 216 258 307
#
# _framework density 17.914421000000001
#
# number of rings (size 3 to 8) (size 9 to 14) (size 15 to 20)
#    0.000    2.500    0.000    4.750    0.000    1.000 
#    0.000    0.000    8.250    8.500    0.000    0.000 
#    0.000    0.000    0.000    0.000    0.000    0.000 
#
# Total GULP energy -1189343.534993 kJ/mol
# GULP energy per Si atom -12388.995156 kJ/mol
# Density = 1.787365 g / cm^3
# Si number density = 17.914421 Si / 1000 Ang^3
#
#
#
# Elastic Constant Matrix: (Units=GPa)
#
#
# Indices 1 2 3 4 5 6 
#
# 1 108.7441 39.5120 40.2497 -1.8847 0.0000 0.0000
# 2 39.5120 108.7441 40.2497 1.8847 0.0000 0.0000
# 3 40.2497 40.2497 78.5283 0.0000 0.0000 0.0000
# 4 -1.8847 1.8847 0.0000 27.4010 0.0000 0.0000
# 5 0.0000 0.0000 0.0000 0.0000 27.4010 -1.8847
# 6 0.0000 0.0000 0.0000 0.0000 -1.8847 34.6160
#
#
#
# Elastic Compliance Matrix: (Units=1/GPa)
#
#
# Indices 1 2 3 4 5 6 
#
# 1 0.011922 -0.002576 -0.004790 0.000997 0.000000 0.000000
# 2 -0.002576 0.011922 -0.004790 -0.000997 0.000000 0.000000
# 3 -0.004790 -0.004790 0.017645 0.000000 0.000000 0.000000
# 4 0.000997 -0.000997 0.000000 0.036632 0.000000 0.000000
# 5 0.000000 0.000000 0.000000 0.000000 0.036632 0.001994
# 6 0.000000 0.000000 0.000000 0.000000 0.001994 0.028997
#
#
# Mechanical properties :
#
#
# Convention : Reuss Voigt Hill
#
# Bulk Modulus (GPa) = 58.22184 59.55989 58.89086
# Shear Modulus (GPa) = 28.77038 29.61728 29.19383
#
# Velocity S-wave (km/s) = 4.01183 4.07045 4.04124
# Velocity P-wave (km/s) = 7.35053 7.44382 7.39732
#
# Compressibility (1/GPa) = 0.01717569
#
# Stress axis : x y z
#
# Youngs Moduli (GPa) = 83.87644 83.87644 56.67377
#
# Poissons Ratio (x) = 0.21608 0.27149
# Poissons Ratio (y) = 0.21608 0.27149
# Poissons Ratio (z) = 0.40180 0.40180
#
# Static dielectric constant tensor:
#      x y z
#    x 3.504720 0.000000 0.000000 
#    y 0.000000 3.504720 0.000000 
#    z 0.000000 0.000000 3.363550 
# 
# 
# High freq. dielectric constant tensor:
#      x y z
#    x 1.692890 0.000000 0.000000 
#    y 0.000000 1.692890 0.000000 
#    z 0.000000 0.000000 1.679340 
# 
# From -- ./inp_files/3159.got.cif
#   From: 2010.03.12/outbox.cif.g09.slc.cpg/sg164_2_cif.got.tgz:3159.got - 2010.04.02 06:32:59.
