data_PCOD8323677
_publ_section_title
;
Structure prediction by ZEFSAII (Michael W. Deem and Ramdas Pophale) SiO2 
 PCOD8323677
Probable space group: P -3 M 1
;
_chemical_formula_sum "Si O2"
_cell_formula_units_Z 66
_cell_length_a 12.439370
_cell_length_b 12.439370
_cell_length_c 28.566077
_cell_angle_alpha 90.000000
_cell_angle_beta 90.000000
_cell_angle_gamma 120.000000
_cell_volume 3828.053562
_symmetry_space_group_name_H-M "P -3 M 1"
_symmetry_group_IT_number 164
_symmetry_cell_setting 'hexagonal'
loop_
_space_group_symop_operation_xyz
x,y,z
-y,x-y,z
-x+y,-x,z
x-y,-y,-z
-x,-x+y,-z
y,x,-z
-x,-y,-z
y,-x+y,-z
x-y,x,-z
-x+y,y,z
x,x-y,z
-y,-x,z
loop_
_atom_site_type_symbol
_atom_site_label
_atom_site_fract_x
_atom_site_fract_y
_atom_site_fract_z
Si Si1 0.583319 0.918089 0.777064
Si Si2 0.416315 0.081610 0.865922
Si Si3 0.665359 0.584190 0.044546
Si Si4 0.247412 0.000000 0.500000
Si Si5 0.001167 0.748620 0.399000
Si Si6 0.416719 0.082619 0.688395
O O1 0.439212 0.878423 0.780194
O O2 0.594839 0.797420 0.782666
O O3 0.660754 0.012995 0.818031
O O4 0.642307 0.982471 0.727990
O O5 0.560183 0.120366 0.867060
O O6 0.407328 0.203664 0.870225
O O7 0.342557 0.992818 0.908747
O O8 0.795061 0.590121 0.043656
O O9 0.558798 0.441203 0.043016
O O10 0.657556 0.657556 0.000000
O O11 0.317301 0.011774 0.549473
O O12 0.113680 0.886321 0.508925
O O13 0.868392 0.736783 0.390003
O O14 0.022148 0.666257 0.361195
O O15 0.106872 0.893129 0.395039
O O16 0.559434 0.118867 0.687904
O O17 0.410918 0.205459 0.699123
#
# Coordination Sequence:
#
# PCOD8323677 Si02
#       6
#    12  12  12   6  12  12
#     4  10  20  34  53  75  98 124 155 195 241 287
#     4  10  20  34  54  78 104 134 167 204 242 283
#     4  10  20  34  54  78 104 134 168 209 253 296
#     4   8  13  22  39  64  92 120 150 186 230 280
#     4   9  16  27  45  69  95 121 151 190 237 286
#     4  10  20  33  49  68  92 124 160 197 235 278
#
# _framework density 17.241137999999999
#
# number of rings (size 3 to 8) (size 9 to 14) (size 15 to 20)
#    0.000    2.364    0.000    3.182    0.000    1.455 
#    0.000    5.909    0.000   12.000    0.000    0.000 
#    0.000    0.000    0.000    0.000    0.000    0.000 
#
# Total GULP energy -818203.528540 kJ/mol
# GULP energy per Si atom -12397.023160 kJ/mol
# Density = 1.720190 g / cm^3
# Si number density = 17.241138 Si / 1000 Ang^3
#
#
#
# Elastic Constant Matrix: (Units=GPa)
#
#
# Indices 1 2 3 4 5 6 
#
# 1 90.4885 56.2438 42.6866 -2.1921 0.0000 0.0000
# 2 56.2438 90.4885 42.6866 2.1921 0.0000 0.0000
# 3 42.6866 42.6866 130.8667 0.0000 0.0000 0.0000
# 4 -2.1921 2.1921 0.0000 18.7354 0.0000 0.0000
# 5 0.0000 0.0000 0.0000 0.0000 18.7354 -2.1921
# 6 0.0000 0.0000 0.0000 0.0000 -2.1921 17.1224
#
#
#
# Elastic Compliance Matrix: (Units=1/GPa)
#
#
# Indices 1 2 3 4 5 6 
#
# 1 0.019029 -0.010617 -0.002744 0.003469 0.000000 0.000000
# 2 -0.010617 0.019029 -0.002744 -0.003469 0.000000 0.000000
# 3 -0.002744 -0.002744 0.009431 0.000000 0.000000 0.000000
# 4 0.003469 -0.003469 0.000000 0.054187 0.000000 0.000000
# 5 0.000000 0.000000 0.000000 0.000000 0.054187 0.006937
# 6 0.000000 0.000000 0.000000 0.000000 0.006937 0.059291
#
#
# Mechanical properties :
#
#
# Convention : Reuss Voigt Hill
#
# Bulk Modulus (GPa) = 65.44729 66.11976 65.78353
# Shear Modulus (GPa) = 19.80552 22.26710 21.03631
#
# Velocity S-wave (km/s) = 3.39298 3.59766 3.49682
# Velocity P-wave (km/s) = 7.30699 7.46262 7.38522
#
# Compressibility (1/GPa) = 0.01527947
#
# Stress axis : x y z
#
# Youngs Moduli (GPa) = 52.55255 52.55255 106.03034
#
# Poissons Ratio (x) = 0.55795 0.29092
# Poissons Ratio (y) = 0.55795 0.29092
# Poissons Ratio (z) = 0.14419 0.14419
#
# Static dielectric constant tensor:
#      x y z
#    x 3.024760 0.000000 0.000000 
#    y 0.000000 3.024760 0.000000 
#    z 0.000000 0.000000 3.585170 
# 
# 
# High freq. dielectric constant tensor:
#      x y z
#    x 1.652560 0.000000 0.000000 
#    y 0.000000 1.652560 0.000000 
#    z 0.000000 0.000000 1.693580 
# 
# From -- ./inp_files/5417.got.cif
#   From: 2010.03.12/outbox.cif.g09.slc.cpg/sg164_3_cif.got.tgz:5417.got - 2010.04.02 06:32:59.
