data_PCOD8323182
_publ_section_title
;
Structure prediction by ZEFSAII (Michael W. Deem and Ramdas Pophale) SiO2 
 PCOD8323182
Probable space group: P -3 1 C
;
_chemical_formula_sum "Si O2"
_cell_formula_units_Z 42
_cell_length_a 23.408096
_cell_length_b 23.408096
_cell_length_c 5.330802
_cell_angle_alpha 90.000000
_cell_angle_beta 90.000000
_cell_angle_gamma 120.000000
_cell_volume 2529.620450
_symmetry_space_group_name_H-M "P -3 1 C"
_symmetry_group_IT_number 163
_symmetry_cell_setting 'hexagonal'
loop_
_space_group_symop_operation_xyz
x,y,z
-y,x-y,z
-x+y,-x,z
-y,-x,1/2-z
-x+y,y,1/2-z
x,x-y,1/2-z
-x,-y,-z
y,-x+y,-z
x-y,x,-z
y,x,1/2+z
x-y,-y,1/2+z
-x,-x+y,1/2+z
loop_
_atom_site_type_symbol
_atom_site_label
_atom_site_fract_x
_atom_site_fract_y
_atom_site_fract_z
Si Si1 0.070097 0.363268 0.249995
Si Si2 0.414297 0.077188 0.249995
Si Si3 0.959350 0.175077 0.749993
Si Si4 0.478490 0.956980 0.750000
O O1 0.109647 0.402584 0.500272
O O2 0.061703 0.291791 0.249997
O O3 0.000436 0.361084 0.249994
O O4 0.109647 0.402583 0.999716
O O5 0.488124 0.088749 0.249998
O O6 0.896015 0.103986 0.750000
O O7 0.999998 0.181207 0.499988
O O8 0.500000 0.000000 0.500000
#
# Coordination Sequence:
#
# PCOD8323182 Si02
#       4
#    12  12  12   6
#     4  10  16  29  44  61  87 119 141 186 214 252
#     4  10  16  25  41  60  96 119 153 178 197 235
#     4  12  23  38  57  76  92 111 148 197 253 311
#     4  12  16  20  34  62  86 130 152 176 190 220
#
# _framework density 16.603280999999999
#
# number of rings (size 3 to 8) (size 9 to 14) (size 15 to 20)
#    0.000    1.143   11.429    0.857    0.000    0.000 
#    0.000    0.000    0.000    5.714    0.000    0.000 
#    0.000    0.000    0.000    0.000    0.000    0.000 
#
# Total GULP energy -520491.226590 kJ/mol
# GULP energy per Si atom -12392.648252 kJ/mol
# Density = 1.656549 g / cm^3
# Si number density = 16.603281 Si / 1000 Ang^3
#
#
#
# Elastic Constant Matrix: (Units=GPa)
#
#
# Indices 1 2 3 4 5 6 
#
# 1 54.9268 68.5102 43.8655 0.0000 -0.0126 0.0000
# 2 68.5102 54.9268 43.8655 0.0000 0.0126 0.0000
# 3 43.8655 43.8655 199.5841 0.0000 0.0000 0.0000
# 4 0.0000 0.0000 0.0000 -13.6404 0.0000 0.0126
# 5 -0.0126 0.0126 0.0000 0.0000 -13.6404 0.0000
# 6 0.0000 0.0000 0.0000 0.0126 0.0000 -6.7917
#
#
#
# Elastic Compliance Matrix: (Units=1/GPa)
#
#
# Indices 1 2 3 4 5 6 
#
# 1 -0.032009 0.041610 -0.002110 0.000000 0.000068 0.000000
# 2 0.041610 -0.032009 -0.002110 0.000000 -0.000068 0.000000
# 3 -0.002110 -0.002110 0.005938 0.000000 0.000000 0.000000
# 4 0.000000 0.000000 0.000000 -0.073312 0.000000 -0.000136
# 5 0.000068 -0.000068 0.000000 0.000000 -0.073312 0.000000
# 6 0.000000 0.000000 0.000000 -0.000136 0.000000 -0.147239
#
#
# Mechanical properties :
#
#
# Convention : Reuss Voigt Hill
#
# Bulk Modulus (GPa) = 59.88219 69.10222 64.49221
# Shear Modulus (GPa) = -11.87207 3.39861 -4.23673
#
# Velocity S-wave (km/s) = -2.67693 1.43227 -1.59915
# Velocity P-wave (km/s) = 5.15656 6.66672 5.95967
#
# Compressibility (1/GPa) = 0.01669946
#
# Stress axis : x y z
#
# Youngs Moduli (GPa) = -31.24098 -31.24098 168.40739
#
# Poissons Ratio (x) = 1.29995 0.35537
# Poissons Ratio (y) = 1.29995 0.35537
# Poissons Ratio (z) = -0.06592 -0.06592
#
# Static dielectric constant tensor:
#      x y z
#    x 2.856520 0.000000 0.000000 
#    y 0.000000 2.856520 0.000000 
#    z 0.000000 0.000000 5.308710 
# 
# 
# High freq. dielectric constant tensor:
#      x y z
#    x 1.588780 0.000000 0.000000 
#    y 0.000000 1.588780 0.000000 
#    z 0.000000 0.000000 1.688770 
# 
# From -- ./inp_files/213.got.cif
#   From: 2010.03.12/outbox.cif.g09.slc.cpg/sg163_1_cif.got.tgz:213.got - 2010.04.02 06:30:25.
