data_PCOD8323064
_publ_section_title
;
Structure prediction by ZEFSAII (Michael W. Deem and Ramdas Pophale) SiO2 
 PCOD8323064
Probable space group: P -3 1 M 
;
_chemical_formula_sum "Si O2"
_cell_formula_units_Z 96
_cell_length_a 17.197460
_cell_length_b 17.197460
_cell_length_c 19.891980
_cell_angle_alpha 90.000000
_cell_angle_beta 90.000000
_cell_angle_gamma 120.000000
_cell_volume 5094.918738
_symmetry_space_group_name_H-M "P -3 1 M "
_symmetry_group_IT_number 162
_symmetry_cell_setting 'hexagonal'
loop_
_space_group_symop_operation_xyz
x,y,z
-y,x-y,z
-x+y,-x,z
-y,-x,-z
-x+y,y,-z
x,x-y,-z
-x,-y,-z
y,-x+y,-z
x-y,x,-z
y,x,z
x-y,-y,z
-x,-x+y,z
loop_
_atom_site_type_symbol
_atom_site_label
_atom_site_fract_x
_atom_site_fract_y
_atom_site_fract_z
Si Si1 0.102438 0.462547 0.236494
Si Si2 0.632410 0.732261 0.108553
Si Si3 0.469545 0.366298 0.533050
Si Si4 0.786008 0.685226 0.553756
Si Si5 0.234388 0.795851 0.351960
Si Si6 0.161348 0.493096 0.986381
Si Si7 0.725271 0.102235 0.139520
Si Si8 0.103663 0.634197 0.274903
O O1 0.118858 0.448810 0.159122
O O2 0.156213 0.428860 0.281795
O O3 0.135266 0.566762 0.247278
O O4 0.000000 0.403181 0.257817
O O5 0.716430 0.716430 0.118208
O O6 0.667849 0.836442 0.124707
O O7 0.593766 0.702914 0.033946
O O8 0.564816 0.435185 0.500000
O O9 0.419925 0.419925 0.560193
O O10 0.407103 0.294013 0.477658
O O11 0.489370 0.315923 0.594319
O O12 0.866581 0.733162 0.500000
O O13 0.753782 0.753782 0.575737
O O14 0.824735 0.660179 0.618854
O O15 0.172285 0.688929 0.335863
O O16 0.134297 0.461914 0.909849
O O17 0.267745 0.535490 0.000000
O O18 0.131476 0.565738 0.000000
O O19 0.701415 0.113153 0.215487
O O20 0.697986 0.000000 0.124844
O O21 0.000000 0.581007 0.301280
#
# Coordination Sequence:
#
# PCOD8323064 Si02
#       8
#    12  12  12  12  12  12  12  12
#     4  10  21  36  53  74 106 145 184 221 265 322
#     4  10  20  36  55  79 107 140 187 237 282 331
#     4   9  19  35  56  78 103 136 175 220 263 309
#     4   9  19  35  56  80 103 130 170 215 261 314
#     4  11  20  34  54  79 105 139 182 217 263 315
#     4  10  20  33  54  81 112 151 193 239 283 325
#     4  10  20  36  55  79 108 143 187 232 283 336
#     4  10  21  36  53  75 109 149 186 226 272 324
#
# _framework density 18.842302
#
# number of rings (size 3 to 8) (size 9 to 14) (size 15 to 20)
#    0.000    2.125    1.250    2.000    1.750    2.500 
#    0.750    0.000    0.000    0.375    0.000    0.000 
#    0.000    4.000    0.000    0.000    0.000    0.000 
#
# Total GULP energy -1190033.579921 kJ/mol
# GULP energy per Si atom -12396.183124 kJ/mol
# Density = 1.879942 g / cm^3
# Si number density = 18.842302 Si / 1000 Ang^3
#
#
#
# Elastic Constant Matrix: (Units=GPa)
#
#
# Indices 1 2 3 4 5 6 
#
# 1 91.9383 46.1960 23.3525 0.0000 -2.7968 0.0000
# 2 46.1960 91.9383 23.3525 0.0000 2.7968 0.0000
# 3 23.3525 23.3525 61.9703 0.0000 0.0000 0.0000
# 4 0.0000 0.0000 0.0000 25.6648 0.0000 2.7968
# 5 -2.7968 2.7968 0.0000 0.0000 25.6648 0.0000
# 6 0.0000 0.0000 0.0000 2.7968 0.0000 22.8711
#
#
#
# Elastic Compliance Matrix: (Units=1/GPa)
#
#
# Indices 1 2 3 4 5 6 
#
# 1 0.015227 -0.006930 -0.003126 0.000000 0.002415 0.000000
# 2 -0.006930 0.015227 -0.003126 0.000000 -0.002415 0.000000
# 3 -0.003126 -0.003126 0.018493 0.000000 0.000000 0.000000
# 4 0.000000 0.000000 0.000000 0.039490 0.000000 -0.004829
# 5 0.002415 -0.002415 0.000000 0.000000 0.039490 0.000000
# 6 0.000000 0.000000 0.000000 -0.004829 0.000000 0.044314
#
#
# Mechanical properties :
#
#
# Convention : Reuss Voigt Hill
#
# Bulk Modulus (GPa) = 44.28631 47.96100 46.12366
# Shear Modulus (GPa) = 24.25616 25.03651 24.64633
#
# Velocity S-wave (km/s) = 3.59182 3.64914 3.62060
# Velocity P-wave (km/s) = 6.38406 6.57755 6.48153
#
# Compressibility (1/GPa) = 0.02258034
#
# Stress axis : x y z
#
# Youngs Moduli (GPa) = 65.67434 65.67434 54.07445
#
# Poissons Ratio (x) = 0.45514 0.16906
# Poissons Ratio (y) = 0.45514 0.16906
# Poissons Ratio (z) = 0.20532 0.20532
#
# Static dielectric constant tensor:
#      x y z
#    x 3.418120 0.000000 0.000000 
#    y 0.000000 3.418120 0.000000 
#    z 0.000000 0.000000 3.559920 
# 
# 
# High freq. dielectric constant tensor:
#      x y z
#    x 1.713910 0.000000 0.000000 
#    y 0.000000 1.713910 0.000000 
#    z 0.000000 0.000000 1.743910 
# 
# From -- ./inp_files/3885.got.cif
#   From: 2010.03.12/outbox.cif.g09.slc.cpg/sg162_2_cif.got.tgz:3885.got - 2010.04.02 06:27:41.
