data_PCOD8323620
_publ_section_title
;
Structure prediction by ZEFSAII (Michael W. Deem and Ramdas Pophale) SiO2 
 PCOD8323620
Probable space group: P -3 M 1
;
_chemical_formula_sum "Si O2"
_cell_formula_units_Z 66
_cell_length_a 12.626918
_cell_length_b 12.626918
_cell_length_c 27.949044
_cell_angle_alpha 90.000000
_cell_angle_beta 90.000000
_cell_angle_gamma 120.000000
_cell_volume 3859.155776
_symmetry_space_group_name_H-M "P -3 M 1"
_symmetry_group_IT_number 164
_symmetry_cell_setting 'hexagonal'
loop_
_space_group_symop_operation_xyz
x,y,z
-y,x-y,z
-x+y,-x,z
x-y,-y,-z
-x,-x+y,-z
y,x,-z
-x,-y,-z
y,-x+y,-z
x-y,x,-z
-x+y,y,z
x,x-y,z
-y,-x,z
loop_
_atom_site_type_symbol
_atom_site_label
_atom_site_fract_x
_atom_site_fract_y
_atom_site_fract_z
Si Si1 0.753776 0.751824 0.134589
Si Si2 0.000000 0.752704 0.500000
Si Si3 0.910951 0.577743 0.583993
Si Si4 0.333324 0.419766 0.777154
Si Si5 0.333093 0.423083 0.307887
Si Si6 0.914715 0.581229 0.044976
O O1 0.896596 0.793192 0.133660
O O2 0.690864 0.680735 0.183046
O O3 0.683046 0.663168 0.090853
O O4 0.739829 0.869915 0.130863
O O5 0.884424 0.768848 0.497473
O O6 0.000526 0.682334 0.547771
O O7 0.771225 0.542450 0.576230
O O8 0.920850 0.460425 0.571834
O O9 0.952877 0.624264 0.638156
O O10 0.225723 0.451446 0.775029
O O11 0.457326 0.542675 0.790104
O O12 0.341272 0.365192 0.726259
O O13 0.204106 0.408211 0.292348
O O14 0.434050 0.565951 0.303973
O O15 0.783459 0.566918 0.035377
O O16 0.896007 0.448004 0.054038
O O17 0.000000 0.647455 0.000000
#
# Coordination Sequence:
#
# PCOD8323620 Si02
#       6
#    12   6  12  12  12  12
#     4  10  20  34  52  73  97 125 159 200 244 288
#     4  10  20  32  46  64  90 124 158 192 230 278
#     4   9  17  30  49  71  93 118 151 193 239 284
#     4  10  20  33  50  71  97 129 162 196 233 278
#     4   9  17  30  49  72  96 122 153 192 238 285
#     4  10  20  34  53  76 103 135 169 205 244 288
#
# _framework density 17.102184999999999
#
# number of rings (size 3 to 8) (size 9 to 14) (size 15 to 20)
#    0.000    2.364    0.000    2.909    0.000    2.182 
#    0.000    1.818    0.000    8.727    0.000    0.000 
#    0.000    0.000    0.000    0.000    0.000    0.000 
#
# Total GULP energy -818543.627097 kJ/mol
# GULP energy per Si atom -12402.176168 kJ/mol
# Density = 1.706326 g / cm^3
# Si number density = 17.102185 Si / 1000 Ang^3
#
#
#
# Elastic Constant Matrix: (Units=GPa)
#
#
# Indices 1 2 3 4 5 6 
#
# 1 99.4436 59.2239 61.0513 0.3080 0.0000 0.0000
# 2 59.2239 99.4436 61.0513 -0.3080 0.0000 0.0000
# 3 61.0513 61.0513 120.9120 0.0000 0.0000 0.0000
# 4 0.3080 -0.3080 0.0000 26.1211 0.0000 0.0000
# 5 0.0000 0.0000 0.0000 0.0000 26.1211 0.3080
# 6 0.0000 0.0000 0.0000 0.0000 0.3080 20.1098
#
#
#
# Elastic Compliance Matrix: (Units=1/GPa)
#
#
# Indices 1 2 3 4 5 6 
#
# 1 0.017588 -0.007280 -0.005205 -0.000293 0.000000 0.000000
# 2 -0.007280 0.017588 -0.005205 0.000293 0.000000 0.000000
# 3 -0.005205 -0.005205 0.013526 0.000000 0.000000 0.000000
# 4 -0.000293 0.000293 0.000000 0.038290 0.000000 0.000000
# 5 0.000000 0.000000 0.000000 0.000000 0.038290 -0.000587
# 6 0.000000 0.000000 0.000000 0.000000 -0.000587 0.049736
#
#
# Mechanical properties :
#
#
# Convention : Reuss Voigt Hill
#
# Bulk Modulus (GPa) = 75.05635 75.82800 75.44218
# Shear Modulus (GPa) = 23.27335 23.70190 23.48763
#
# Velocity S-wave (km/s) = 3.69296 3.72681 3.70992
# Velocity P-wave (km/s) = 7.88455 7.93431 7.90947
#
# Compressibility (1/GPa) = 0.01332332
#
# Stress axis : x y z
#
# Youngs Moduli (GPa) = 56.85753 56.85753 73.93001
#
# Poissons Ratio (x) = 0.41393 0.38477
# Poissons Ratio (y) = 0.41393 0.38477
# Poissons Ratio (z) = 0.29592 0.29592
#
# Static dielectric constant tensor:
#      x y z
#    x 3.125900 0.000000 0.000000 
#    y 0.000000 3.125900 0.000000 
#    z 0.000000 0.000000 3.391480 
# 
# 
# High freq. dielectric constant tensor:
#      x y z
#    x 1.660180 0.000000 0.000000 
#    y 0.000000 1.660180 0.000000 
#    z 0.000000 0.000000 1.673840 
# 
# From -- ./inp_files/5420.got.cif
#   From: 2010.03.12/outbox.cif.g09.slc.cpg/sg164_3_cif.got.tgz:5420.got - 2010.04.02 06:32:59.
