data_PCOD8323958
_publ_section_title
;
Structure prediction by ZEFSAII (Michael W. Deem and Ramdas Pophale) SiO2 
 PCOD8323958
Probable space group: P -3 C 1
;
_chemical_formula_sum "Si O2"
_cell_formula_units_Z 48
_cell_length_a 11.842823
_cell_length_b 11.842823
_cell_length_c 18.191160
_cell_angle_alpha 90.000000
_cell_angle_beta 90.000000
_cell_angle_gamma 120.000000
_cell_volume 2209.538139
_symmetry_space_group_name_H-M "P -3 C 1"
_symmetry_group_IT_number 165
_symmetry_cell_setting 'hexagonal'
loop_
_space_group_symop_operation_xyz
x,y,z
-y,x-y,z
-x+y,-x,z
x-y,-y,1/2-z
-x,-x+y,1/2-z
y,x,1/2-z
-x,-y,-z
y,-x+y,-z
x-y,x,-z
-x+y,y,1/2+z
x,x-y,1/2+z
-y,-x,1/2+z
loop_
_atom_site_type_symbol
_atom_site_label
_atom_site_fract_x
_atom_site_fract_y
_atom_site_fract_z
Si Si1 0.000000 0.000000 0.663102
Si Si2 0.507899 0.938527 0.924807
Si Si3 0.580631 0.923492 0.177669
Si Si4 0.333334 0.666668 0.476486
Si Si5 0.333333 0.666666 0.653609
Si Si6 0.729273 0.958983 0.665212
O O1 0.878177 0.016443 0.637491
O O2 0.000000 0.000000 0.750000
O O3 0.459114 0.789061 0.942229
O O4 0.411610 0.963290 0.873874
O O5 0.648907 0.992583 0.888880
O O6 0.500000 0.000000 0.000000
O O7 0.428467 0.811346 0.185086
O O8 0.660112 0.855244 0.150979
O O9 0.650281 0.000000 0.250000
O O10 0.333334 0.666667 0.564958
O O11 0.723048 0.000000 0.750000
#
# Coordination Sequence:
#
# PCOD8323958 Si02
#       6
#     4  12  12   4   4  12
#     4   9  21  42  72 100 140 181 223 299 361 432
#     4  12  27  46  72 102 143 195 234 295 353 428
#     4  12  25  43  73 102 145 185 236 297 365 426
#     4  12  27  46  74 106 147 193 251 286 363 433
#     4  12  24  49  65 109 153 184 236 310 354 418
#     4  11  24  47  71 104 142 182 238 293 366 422
#
# _framework density 21.723998000000002
#
# number of rings (size 3 to 8) (size 9 to 14) (size 15 to 20)
#    0.000    0.500    5.000    3.000    7.000    0.000 
#    0.000    0.000    0.000    1.500    0.000    0.000 
#    0.000    0.000    0.000    0.000    0.000    0.000 
#
# Total GULP energy -594966.114616 kJ/mol
# GULP energy per Si atom -12395.127388 kJ/mol
# Density = 2.167455 g / cm^3
# Si number density = 21.723998 Si / 1000 Ang^3
#
#
#
# Elastic Constant Matrix: (Units=GPa)
#
#
# Indices 1 2 3 4 5 6 
#
# 1 130.7908 56.5394 56.1432 -3.0743 0.0000 0.0000
# 2 56.5394 130.7908 56.1432 3.0735 0.0000 0.0000
# 3 56.1432 56.1432 79.9918 -0.0002 0.0000 0.0000
# 4 -3.0743 3.0735 -0.0002 34.5599 0.0000 0.0000
# 5 0.0000 0.0000 0.0000 0.0000 34.5606 -3.0737
# 6 0.0000 0.0000 0.0000 0.0000 -3.0737 37.1248
#
#
#
# Elastic Compliance Matrix: (Units=1/GPa)
#
#
# Indices 1 2 3 4 5 6 
#
# 1 0.011391 -0.002176 -0.006468 0.001207 0.000000 0.000000
# 2 -0.002176 0.011391 -0.006468 -0.001207 0.000000 0.000000
# 3 -0.006468 -0.006468 0.021580 0.000000 0.000000 0.000000
# 4 0.001207 -0.001207 0.000000 0.029150 0.000000 0.000000
# 5 0.000000 0.000000 0.000000 0.000000 0.029149 0.002413
# 6 0.000000 0.000000 0.000000 0.000000 0.002413 0.027136
#
#
# Mechanical properties :
#
#
# Convention : Reuss Voigt Hill
#
# Bulk Modulus (GPa) = 70.72423 75.46945 73.09684
# Shear Modulus (GPa) = 30.35199 32.76557 31.55878
#
# Velocity S-wave (km/s) = 3.74192 3.88785 3.81558
# Velocity P-wave (km/s) = 7.16211 7.41414 7.28921
#
# Compressibility (1/GPa) = 0.01413943
#
# Stress axis : x y z
#
# Youngs Moduli (GPa) = 87.78649 87.78666 46.33934
#
# Poissons Ratio (x) = 0.19106 0.29970
# Poissons Ratio (y) = 0.19106 0.29970
# Poissons Ratio (z) = 0.56776 0.56776
#
# Static dielectric constant tensor:
#      x y z
#    x 4.097340 0.000000 0.000000 
#    y 0.000000 4.097370 -0.000010 
#    z 0.000000 -0.000010 3.763630 
# 
# 
# High freq. dielectric constant tensor:
#      x y z
#    x 1.871150 0.000000 0.000000 
#    y 0.000000 1.871150 0.000000 
#    z 0.000000 0.000000 1.834780 
# 
# From -- ./inp_files/2562.got.cif
#   From: 2010.03.12/outbox.cif.g09.slc.cpg/sg165_2_cif.got.tgz:2562.got - 2010.04.02 06:36:38.
