data_PCOD8323157
_publ_section_title
;
Structure prediction by ZEFSAII (Michael W. Deem and Ramdas Pophale) SiO2 
 PCOD8323157
Probable space group: P -3 1 M 
;
_chemical_formula_sum "Si O2"
_cell_formula_units_Z 48
_cell_length_a 24.459744
_cell_length_b 24.459744
_cell_length_c 4.936879
_cell_angle_alpha 90.000000
_cell_angle_beta 90.000000
_cell_angle_gamma 120.000000
_cell_volume 2557.919834
_symmetry_space_group_name_H-M "P -3 1 M "
_symmetry_group_IT_number 162
_symmetry_cell_setting 'hexagonal'
loop_
_space_group_symop_operation_xyz
x,y,z
-y,x-y,z
-x+y,-x,z
-y,-x,-z
-x+y,y,-z
x,x-y,-z
-x,-y,-z
y,-x+y,-z
x-y,x,-z
y,x,z
x-y,-y,z
-x,-x+y,z
loop_
_atom_site_type_symbol
_atom_site_label
_atom_site_fract_x
_atom_site_fract_y
_atom_site_fract_z
Si Si1 0.499301 0.429126 0.238090
Si Si2 0.659492 0.766797 0.019576
Si Si3 0.000000 0.873890 0.426403
Si Si4 0.390547 0.317328 0.476496
Si Si5 0.200487 0.200487 0.909375
O O1 0.532582 0.467419 0.500000
O O2 0.449037 0.449037 0.126851
O O3 0.460328 0.355696 0.335136
O O4 0.552489 0.447512 0.000000
O O5 0.611686 0.715090 0.236158
O O6 0.732533 0.795916 0.085787
O O7 0.640706 0.820353 0.000000
O O8 0.653915 0.737166 0.726487
O O9 0.059874 0.940127 0.500000
O O10 0.000000 0.820393 0.605713
O O11 0.000000 0.850764 0.118246
O O12 0.365785 0.365785 0.533808
#
# Coordination Sequence:
#
# PCOD8323157 Si02
#       5
#    12  12   6  12   6
#     4   9  17  29  49  77 104 136 169 202 241 296
#     4  12  23  37  54  76 103 142 187 230 281 332
#     4  12  25  42  60  78  96 119 158 228 311 378
#     4  11  20  36  54  75 108 140 178 221 268 321
#     4  12  24  42  57  78  98 135 178 230 275 356
#
# _framework density 18.765246999999999
#
# number of rings (size 3 to 8) (size 9 to 14) (size 15 to 20)
#    0.000    1.000    2.500    6.125    0.000    4.000 
#    0.000    1.250    0.000    0.000    0.000    0.000 
#    0.000    0.000    0.000   63.000    0.000    0.000 
#
# Total GULP energy -594903.164850 kJ/mol
# GULP energy per Si atom -12393.815934 kJ/mol
# Density = 1.872254 g / cm^3
# Si number density = 18.765247 Si / 1000 Ang^3
#
#
#
# Elastic Constant Matrix: (Units=GPa)
#
#
# Indices 1 2 3 4 5 6 
#
# 1 101.8434 4.1456 18.2553 0.0021 16.4300 0.0000
# 2 4.1456 101.8434 18.2553 -0.0021 -16.4300 0.0000
# 3 18.2553 18.2553 88.9417 0.0000 0.0000 0.0000
# 4 0.0021 -0.0021 0.0000 32.5236 0.0000 -16.4300
# 5 16.4300 -16.4300 0.0000 0.0000 32.5236 0.0021
# 6 0.0000 0.0000 0.0000 -16.4300 0.0021 48.8489
#
#
#
# Elastic Compliance Matrix: (Units=1/GPa)
#
#
# Indices 1 2 3 4 5 6 
#
# 1 0.011242 -0.001089 -0.002084 -0.000001 -0.006229 0.000000
# 2 -0.001089 0.011242 -0.002084 0.000001 0.006229 0.000000
# 3 -0.002084 -0.002084 0.012099 0.000000 0.000000 0.000000
# 4 -0.000001 0.000001 0.000000 0.037040 0.000000 0.012458
# 5 -0.006229 0.006229 0.000000 0.000000 0.037040 -0.000002
# 6 0.000000 0.000000 0.000000 0.012458 -0.000002 0.024662
#
#
# Mechanical properties :
#
#
# Convention : Reuss Voigt Hill
#
# Bulk Modulus (GPa) = 41.54745 41.54899 41.54822
# Shear Modulus (GPa) = 32.92485 39.57740 36.25112
#
# Velocity S-wave (km/s) = 4.19330 4.59745 4.40002
# Velocity P-wave (km/s) = 6.75527 7.09730 6.92840
#
# Compressibility (1/GPa) = 0.02406886
#
# Stress axis : x y z
#
# Youngs Moduli (GPa) = 88.95399 88.95399 82.65328
#
# Poissons Ratio (x) = 0.09687 0.17224
# Poissons Ratio (y) = 0.09687 0.17224
# Poissons Ratio (z) = 0.18537 0.18537
#
# Static dielectric constant tensor:
#      x y z
#    x 3.281050 0.000000 0.000000 
#    y 0.000000 3.281050 0.000000 
#    z 0.000000 0.000000 3.718140 
# 
# 
# High freq. dielectric constant tensor:
#      x y z
#    x 1.701060 0.000000 0.000000 
#    y 0.000000 1.701060 0.000000 
#    z 0.000000 0.000000 1.756610 
# 
# From -- ./inp_files/514.got.cif
#   From: 2010.03.12/outbox.cif.g09.slc.cpg/sg162_1_cif.got.tgz:514.got - 2010.04.02 06:27:41.
