data_PCOD8323936
_publ_section_title
;
Structure prediction by ZEFSAII (Michael W. Deem and Ramdas Pophale) SiO2 
 PCOD8323936
Probable space group: P -3 C 1
;
_chemical_formula_sum "Si O2"
_cell_formula_units_Z 30
_cell_length_a 11.200177
_cell_length_b 11.200177
_cell_length_c 12.313368
_cell_angle_alpha 90.000000
_cell_angle_beta 90.000000
_cell_angle_gamma 120.000000
_cell_volume 1337.695490
_symmetry_space_group_name_H-M "P -3 C 1"
_symmetry_group_IT_number 165
_symmetry_cell_setting 'hexagonal'
loop_
_space_group_symop_operation_xyz
x,y,z
-y,x-y,z
-x+y,-x,z
x-y,-y,1/2-z
-x,-x+y,1/2-z
y,x,1/2-z
-x,-y,-z
y,-x+y,-z
x-y,x,-z
-x+y,y,1/2+z
x,x-y,1/2+z
-y,-x,1/2+z
loop_
_atom_site_type_symbol
_atom_site_label
_atom_site_fract_x
_atom_site_fract_y
_atom_site_fract_z
Si Si1 0.705096 0.088820 0.583461
Si Si2 0.414623 0.369957 0.131901
Si Si3 0.846845 0.846845 0.250000
O O1 0.800224 0.251056 0.605269
O O2 0.553289 0.036798 0.629146
O O3 0.696533 0.060052 0.454753
O O4 0.766558 0.002619 0.642582
O O5 0.347044 0.347044 0.250000
O O6 0.863860 0.000000 0.250000
#
# Coordination Sequence:
#
# PCOD8323936 Si02
#       3
#    12  12   6
#     4  11  25  45  69 107 133 190 231 288 356 409
#     4  11  26  45  72 100 145 180 239 291 345 422
#     4  10  24  44  74 102 144 184 232 292 348 424
#
# _framework density 22.426628999999998
#
# number of rings (size 3 to 8) (size 9 to 14) (size 15 to 20)
#    0.400    0.800    2.000    2.000   11.200    0.000 
#    0.000    2.000    0.000    0.000    0.000    0.000 
#    0.000    0.000    0.000    0.000    0.000    0.000 
#
# Total GULP energy -372078.757665 kJ/mol
# GULP energy per Si atom -12402.625256 kJ/mol
# Density = 2.237558 g / cm^3
# Si number density = 22.426629 Si / 1000 Ang^3
#
#
#
# Elastic Constant Matrix: (Units=GPa)
#
#
# Indices 1 2 3 4 5 6 
#
# 1 128.6168 52.6135 75.5258 0.4049 0.0000 0.0000
# 2 52.6135 128.6168 75.5258 -0.4049 0.0000 0.0000
# 3 75.5258 75.5258 218.1434 0.0000 0.0000 0.0000
# 4 0.4049 -0.4049 0.0000 35.5588 0.0000 0.0000
# 5 0.0000 0.0000 0.0000 0.0000 35.5588 0.4049
# 6 0.0000 0.0000 0.0000 0.0000 0.4049 38.0017
#
#
#
# Elastic Compliance Matrix: (Units=1/GPa)
#
#
# Indices 1 2 3 4 5 6 
#
# 1 0.010457 -0.002701 -0.002685 -0.000150 0.000000 0.000000
# 2 -0.002701 0.010457 -0.002685 0.000150 0.000000 0.000000
# 3 -0.002685 -0.002685 0.006444 0.000000 0.000000 0.000000
# 4 -0.000150 0.000150 0.000000 0.028126 0.000000 0.000000
# 5 0.000000 0.000000 0.000000 0.000000 0.028126 -0.000300
# 6 0.000000 0.000000 0.000000 0.000000 -0.000300 0.026318
#
#
# Mechanical properties :
#
#
# Convention : Reuss Voigt Hill
#
# Bulk Modulus (GPa) = 89.17141 98.07857 93.62499
# Shear Modulus (GPa) = 38.51782 39.93800 39.22791
#
# Velocity S-wave (km/s) = 4.14877 4.22457 4.18684
# Velocity P-wave (km/s) = 7.92449 8.22338 8.07532
#
# Compressibility (1/GPa) = 0.01121436
#
# Stress axis : x y z
#
# Youngs Moduli (GPa) = 95.62572 95.62572 155.19427
#
# Poissons Ratio (x) = 0.25833 0.41674
# Poissons Ratio (y) = 0.25833 0.41674
# Poissons Ratio (z) = 0.25678 0.25678
#
# Static dielectric constant tensor:
#      x y z
#    x 3.916290 0.000000 0.000000 
#    y 0.000000 3.916290 0.000000 
#    z 0.000000 0.000000 4.239330 
# 
# 
# High freq. dielectric constant tensor:
#      x y z
#    x 1.888660 0.000000 0.000000 
#    y 0.000000 1.888660 0.000000 
#    z 0.000000 0.000000 1.890600 
# 
# From -- ./inp_files/1335.got.cif
#   From: 2010.03.12/outbox.cif.g09.slc.cpg/sg165_1_cif.got.tgz:1335.got - 2010.04.02 06:36:38.
