data_PCOD8323964
_publ_section_title
;
Structure prediction by ZEFSAII (Michael W. Deem and Ramdas Pophale) SiO2 
 PCOD8323964
Probable space group: P -3 C 1
;
_chemical_formula_sum "Si O2"
_cell_formula_units_Z 56
_cell_length_a 11.395346
_cell_length_b 11.395346
_cell_length_c 23.633975
_cell_angle_alpha 90.000000
_cell_angle_beta 90.000000
_cell_angle_gamma 120.000000
_cell_volume 2657.800851
_symmetry_space_group_name_H-M "P -3 C 1"
_symmetry_group_IT_number 165
_symmetry_cell_setting 'hexagonal'
loop_
_space_group_symop_operation_xyz
x,y,z
-y,x-y,z
-x+y,-x,z
x-y,-y,1/2-z
-x,-x+y,1/2-z
y,x,1/2-z
-x,-y,-z
y,-x+y,-z
x-y,x,-z
-x+y,y,1/2+z
x,x-y,1/2+z
-y,-x,1/2+z
loop_
_atom_site_type_symbol
_atom_site_label
_atom_site_fract_x
_atom_site_fract_y
_atom_site_fract_z
Si Si1 0.930138 0.340005 0.999065
Si Si2 0.280031 0.259034 0.617993
Si Si3 0.964132 0.473771 0.685493
Si Si4 0.666668 0.333335 0.521751
Si Si5 0.333334 0.666668 0.343379
Si Si6 0.741138 0.718739 0.878886
O O1 0.974602 0.291172 0.944423
O O2 0.976550 0.283840 0.051372
O O3 0.767857 0.282103 0.999972
O O4 0.000000 0.500000 0.000000
O O5 0.394921 0.387163 0.650901
O O6 0.136638 0.243109 0.634344
O O7 0.277022 0.122642 0.636896
O O8 0.808441 0.357894 0.679882
O O9 0.000000 0.513272 0.750000
O O10 0.051549 0.410788 0.659362
O O11 0.666668 0.333334 0.589200
#
# Coordination Sequence:
#
# PCOD8323964 Si02
#       6
#    12  12  12   4   4  12
#     4  12  22  40  66 106 140 179 224 274 344 417
#     4  12  25  46  69 102 139 182 225 279 349 413
#     4  12  27  46  72 100 134 180 236 287 342 408
#     4  12  21  39  73 101 145 183 225 280 344 436
#     4  12  21  51  76  95 136 192 228 277 353 421
#     4  12  26  45  71 103 140 181 227 283 344 416
#
# _framework density 21.070049999999998
#
# number of rings (size 3 to 8) (size 9 to 14) (size 15 to 20)
#    0.000    0.000    6.429    4.286    3.000    0.000 
#    1.286    2.143    0.000    2.571    0.000    0.000 
#    0.000    0.000    0.000    0.000    0.000    0.000 
#
# Total GULP energy -694788.018575 kJ/mol
# GULP energy per Si atom -12406.928903 kJ/mol
# Density = 2.102209 g / cm^3
# Si number density = 21.070050 Si / 1000 Ang^3
#
#
#
# Elastic Constant Matrix: (Units=GPa)
#
#
# Indices 1 2 3 4 5 6 
#
# 1 120.8733 35.7936 26.5867 -4.4333 0.0000 0.0000
# 2 35.7936 120.8743 26.5866 4.4329 0.0000 0.0000
# 3 26.5867 26.5866 103.3889 -0.0001 0.0000 0.0000
# 4 -4.4333 4.4329 -0.0001 -15.0209 0.0000 0.0000
# 5 0.0000 0.0000 0.0000 0.0000 -15.0067 -4.4298
# 6 0.0000 0.0000 0.0000 0.0000 -4.4298 42.5406
#
#
#
# Elastic Compliance Matrix: (Units=1/GPa)
#
#
# Indices 1 2 3 4 5 6 
#
# 1 0.009198 -0.002205 -0.001798 -0.003365 0.000000 0.000000
# 2 -0.002205 0.009198 -0.001798 0.003365 0.000000 0.000000
# 3 -0.001798 -0.001798 0.010597 0.000000 0.000000 0.000000
# 4 -0.003365 0.003365 0.000000 -0.064588 0.000000 0.000000
# 5 0.000000 0.000000 0.000000 0.000000 -0.064649 -0.006732
# 6 0.000000 0.000000 0.000000 0.000000 -0.006732 0.022806
#
#
# Mechanical properties :
#
#
# Convention : Reuss Voigt Hill
#
# Bulk Modulus (GPa) = 57.50313 58.11893 57.81103
# Shear Modulus (GPa) = -83.28068 19.58056 -31.85006
#
# Velocity S-wave (km/s) = -6.29376 3.05176 -3.89218
# Velocity P-wave (km/s) = 5.04624 6.32939 2.70154
#
# Compressibility (1/GPa) = 0.01739036
#
# Stress axis : x y z
#
# Youngs Moduli (GPa) = 108.71747 108.71830 94.36531
#
# Poissons Ratio (x) = 0.23970 0.16970
# Poissons Ratio (y) = 0.23970 0.16970
# Poissons Ratio (z) = 0.19551 0.19551
#
# Static dielectric constant tensor:
#      x y z
#    x 4.034670 0.000000 0.000000 
#    y 0.000000 4.034670 0.000030 
#    z 0.000000 0.000030 3.603230 
# 
# 
# High freq. dielectric constant tensor:
#      x y z
#    x 1.838820 0.000000 0.000000 
#    y 0.000000 1.838810 0.000000 
#    z 0.000000 0.000000 1.811570 
# 
# From -- ./inp_files/2891.got.cif
#   From: 2010.03.12/outbox.cif.g09.slc.cpg/sg165_2_cif.got.tgz:2891.got - 2010.04.02 06:36:38.
