data_PCOD8323302
_publ_section_title
;
Structure prediction by ZEFSAII (Michael W. Deem and Ramdas Pophale) SiO2 
 PCOD8323302
Probable space group: P -3 1 C
;
_chemical_formula_sum "Si O2"
_cell_formula_units_Z 42
_cell_length_a 13.091329
_cell_length_b 13.091329
_cell_length_c 12.495369
_cell_angle_alpha 90.000000
_cell_angle_beta 90.000000
_cell_angle_gamma 120.000000
_cell_volume 1854.586918
_symmetry_space_group_name_H-M "P -3 1 C"
_symmetry_group_IT_number 163
_symmetry_cell_setting 'hexagonal'
loop_
_space_group_symop_operation_xyz
x,y,z
-y,x-y,z
-x+y,-x,z
-y,-x,1/2-z
-x+y,y,1/2-z
x,x-y,1/2-z
-x,-y,-z
y,-x+y,-z
x-y,x,-z
y,x,1/2+z
x-y,-y,1/2+z
-x,-x+y,1/2+z
loop_
_atom_site_type_symbol
_atom_site_label
_atom_site_fract_x
_atom_site_fract_y
_atom_site_fract_z
Si Si1 0.914851 0.240185 0.661966
Si Si2 0.247718 0.123859 0.250000
Si Si3 0.151149 0.410233 0.934992
Si Si4 0.593511 0.491878 0.137425
O O1 0.809902 0.190099 0.750000
O O2 0.863823 0.200619 0.543157
O O3 0.999133 0.182352 0.686918
O O4 0.985266 0.382553 0.660543
O O5 0.323339 0.226777 0.165308
O O6 0.289946 0.493845 0.917886
O O7 0.082874 0.485309 0.940228
O O8 0.574831 0.425170 0.250000
#
# Coordination Sequence:
#
# PCOD8323302 Si02
#       4
#    12   6  12  12
#     4  11  26  42  67 101 143 181 238 295 360 418
#     4  10  24  44  68  96 132 188 238 296 342 424
#     4  11  22  42  70 105 137 188 240 282 353 424
#     4  11  21  42  73 104 144 185 239 289 353 435
#
# _framework density 22.646553000000001
#
# number of rings (size 3 to 8) (size 9 to 14) (size 15 to 20)
#    0.000    1.143    5.714    1.429    8.000    2.286 
#    0.857    0.000    0.000    7.429    0.000    0.000 
#    0.000    0.000    0.000    0.000    0.000    0.000 
#
# Total GULP energy -520349.528115 kJ/mol
# GULP energy per Si atom -12389.274479 kJ/mol
# Density = 2.259501 g / cm^3
# Si number density = 22.646553 Si / 1000 Ang^3
#
#
#
# Elastic Constant Matrix: (Units=GPa)
#
#
# Indices 1 2 3 4 5 6 
#
# 1 88.2591 46.5112 49.9928 0.0000 9.7048 0.0000
# 2 46.5112 88.2591 49.9928 0.0000 -9.7048 0.0000
# 3 49.9928 49.9928 167.4084 0.0000 0.0000 0.0000
# 4 0.0000 0.0000 0.0000 30.8886 0.0000 -9.7048
# 5 9.7048 -9.7048 0.0000 0.0000 30.8886 0.0000
# 6 0.0000 0.0000 0.0000 -9.7048 0.0000 20.8739
#
#
#
# Elastic Compliance Matrix: (Units=1/GPa)
#
#
# Indices 1 2 3 4 5 6 
#
# 1 0.018791 -0.009260 -0.002846 0.000000 -0.008813 0.000000
# 2 -0.009260 0.018791 -0.002846 0.000000 0.008813 0.000000
# 3 -0.002846 -0.002846 0.007673 0.000000 0.000000 0.000000
# 4 0.000000 0.000000 0.000000 0.037913 0.000000 0.017627
# 5 -0.008813 0.008813 0.000000 0.000000 0.037913 0.000000
# 6 0.000000 0.000000 0.000000 0.017627 0.000000 0.056102
#
#
# Mechanical properties :
#
#
# Convention : Reuss Voigt Hill
#
# Bulk Modulus (GPa) = 65.14126 70.76889 67.95507
# Shear Modulus (GPa) = 23.56215 29.69220 26.62717
#
# Velocity S-wave (km/s) = 3.22907 3.62486 3.43267
# Velocity P-wave (km/s) = 6.53676 6.98832 6.76631
#
# Compressibility (1/GPa) = 0.01535125
#
# Stress axis : x y z
#
# Youngs Moduli (GPa) = 53.21606 53.21606 130.31893
#
# Poissons Ratio (x) = 0.49275 0.37095
# Poissons Ratio (y) = 0.49275 0.37095
# Poissons Ratio (z) = 0.15148 0.15148
#
# Static dielectric constant tensor:
#      x y z
#    x 3.978910 0.000000 0.000000 
#    y 0.000000 3.978910 0.000000 
#    z 0.000000 0.000000 4.272720 
# 
# 
# High freq. dielectric constant tensor:
#      x y z
#    x 1.875710 0.000000 0.000000 
#    y 0.000000 1.875710 0.000000 
#    z 0.000000 0.000000 1.910060 
# 
# From -- ./inp_files/1510.got.cif
#   From: 2010.03.12/outbox.cif.g09.slc.cpg/sg163_1_cif.got.tgz:1510.got - 2010.04.02 06:30:25.
