data_PCOD8323670
_publ_section_title
;
Structure prediction by ZEFSAII (Michael W. Deem and Ramdas Pophale) SiO2 
 PCOD8323670
Probable space group: P -3 M 1
;
_chemical_formula_sum "Si O2"
_cell_formula_units_Z 66
_cell_length_a 12.751784
_cell_length_b 12.751784
_cell_length_c 28.381994
_cell_angle_alpha 90.000000
_cell_angle_beta 90.000000
_cell_angle_gamma 120.000000
_cell_volume 3996.827740
_symmetry_space_group_name_H-M "P -3 M 1"
_symmetry_group_IT_number 164
_symmetry_cell_setting 'hexagonal'
loop_
_space_group_symop_operation_xyz
x,y,z
-y,x-y,z
-x+y,-x,z
x-y,-y,-z
-x,-x+y,-z
y,x,-z
-x,-y,-z
y,-x+y,-z
x-y,x,-z
-x+y,y,z
x,x-y,z
-y,-x,z
loop_
_atom_site_type_symbol
_atom_site_label
_atom_site_fract_x
_atom_site_fract_y
_atom_site_fract_z
Si Si1 0.246245 0.998864 0.898092
Si Si2 0.576417 0.909938 0.644889
Si Si3 0.244425 0.998518 0.727282
Si Si4 0.000000 0.240986 0.000000
Si Si5 0.423993 0.333075 0.461315
Si Si6 0.668018 0.088021 0.186179
O O1 0.106035 0.893966 0.892415
O O2 0.329929 0.981058 0.860857
O O3 0.255185 0.127593 0.889143
O O4 0.297243 0.988073 0.950244
O O5 0.459769 0.919538 0.659157
O O6 0.539617 0.769809 0.650254
O O7 0.687654 0.994429 0.678607
O O8 0.619696 0.956952 0.591735
O O9 0.103591 0.896410 0.728353
O O10 0.316153 0.980240 0.769615
O O11 0.255455 0.127728 0.732495
O O12 0.110539 0.221077 0.009052
O O13 0.331720 0.331720 0.500000
O O14 0.430653 0.215327 0.470675
O O15 0.556707 0.443294 0.470327
O O16 0.540235 0.080469 0.190177
O O17 0.772027 0.227974 0.185120
#
# Coordination Sequence:
#
# PCOD8323670 Si02
#       6
#    12  12  12   6  12  12
#     4   9  16  27  46  71  97 122 149 185 228 272
#     4   9  17  30  49  71  93 119 153 192 229 264
#     4  10  20  33  50  71  94 118 144 179 225 276
#     4   8  13  22  39  66  96 122 148 180 222 268
#     4   9  17  29  46  68  93 122 156 193 230 266
#     4  10  20  33  49  68  90 118 153 192 229 264
#
# _framework density 16.513096000000001
#
# number of rings (size 3 to 8) (size 9 to 14) (size 15 to 20)
#    0.000    2.727    0.000    2.091    0.000    3.636 
#    0.000    4.091    0.000    6.727    0.000    0.000 
#    0.000    0.000    0.000    0.000    0.000    0.000 
#
# Total GULP energy -818013.573895 kJ/mol
# GULP energy per Si atom -12394.145059 kJ/mol
# Density = 1.647551 g / cm^3
# Si number density = 16.513096 Si / 1000 Ang^3
#
#
#
# Elastic Constant Matrix: (Units=GPa)
#
#
# Indices 1 2 3 4 5 6 
#
# 1 88.4315 45.9824 60.1483 3.3291 0.0000 0.0000
# 2 45.9824 88.4315 60.1483 -3.3291 0.0000 0.0000
# 3 60.1483 60.1483 141.3629 0.0000 0.0000 0.0000
# 4 3.3291 -3.3291 0.0000 25.2496 0.0000 0.0000
# 5 0.0000 0.0000 0.0000 0.0000 25.2496 3.3291
# 6 0.0000 0.0000 0.0000 0.0000 3.3291 21.2246
#
#
#
# Elastic Compliance Matrix: (Units=1/GPa)
#
#
# Indices 1 2 3 4 5 6 
#
# 1 0.018035 -0.006020 -0.005112 -0.003172 0.000000 0.000000
# 2 -0.006020 0.018035 -0.005112 0.003172 0.000000 0.000000
# 3 -0.005112 -0.005112 0.011424 0.000000 0.000000 0.000000
# 4 -0.003172 0.003172 0.000000 0.040441 0.000000 0.000000
# 5 0.000000 0.000000 0.000000 0.000000 0.040441 -0.006343
# 6 0.000000 0.000000 0.000000 0.000000 -0.006343 0.048110
#
#
# Mechanical properties :
#
#
# Convention : Reuss Voigt Hill
#
# Bulk Modulus (GPa) = 66.64254 72.30934 69.47594
# Shear Modulus (GPa) = 23.36696 24.47456 23.92076
#
# Velocity S-wave (km/s) = 3.76580 3.85402 3.81017
# Velocity P-wave (km/s) = 7.70411 7.98053 7.84354
#
# Compressibility (1/GPa) = 0.01500543
#
# Stress axis : x y z
#
# Youngs Moduli (GPa) = 55.44756 55.44756 87.53184
#
# Poissons Ratio (x) = 0.33380 0.44749
# Poissons Ratio (y) = 0.33380 0.44749
# Poissons Ratio (z) = 0.28346 0.28346
#
# Static dielectric constant tensor:
#      x y z
#    x 2.885630 0.000000 0.000000 
#    y 0.000000 2.885630 0.000000 
#    z 0.000000 0.000000 3.513840 
# 
# 
# High freq. dielectric constant tensor:
#      x y z
#    x 1.614210 0.000000 0.000000 
#    y 0.000000 1.614210 0.000000 
#    z 0.000000 0.000000 1.661810 
# 
# From -- ./inp_files/5496.got.cif
#   From: 2010.03.12/outbox.cif.g09.slc.cpg/sg164_3_cif.got.tgz:5496.got - 2010.04.02 06:32:59.
