data_PCOD8323444
_publ_section_title
;
Structure prediction by ZEFSAII (Michael W. Deem and Ramdas Pophale) SiO2 
 PCOD8323444
Probable space group: P -3 M 1
;
_chemical_formula_sum "Si O2"
_cell_formula_units_Z 96
_cell_length_a 17.310707
_cell_length_b 17.310707
_cell_length_c 20.682198
_cell_angle_alpha 90.000000
_cell_angle_beta 90.000000
_cell_angle_gamma 120.000000
_cell_volume 5367.313149
_symmetry_space_group_name_H-M "P -3 M 1"
_symmetry_group_IT_number 164
_symmetry_cell_setting 'hexagonal'
loop_
_space_group_symop_operation_xyz
x,y,z
-y,x-y,z
-x+y,-x,z
x-y,-y,-z
-x,-x+y,-z
y,x,-z
-x,-y,-z
y,-x+y,-z
x-y,x,-z
-x+y,y,z
x,x-y,z
-y,-x,z
loop_
_atom_site_type_symbol
_atom_site_label
_atom_site_fract_x
_atom_site_fract_y
_atom_site_fract_z
Si Si1 0.949600 0.720561 0.431027
Si Si2 0.666759 0.500075 0.589185
Si Si3 0.512308 0.666495 0.861826
Si Si4 0.406253 0.418290 0.223289
Si Si5 0.910391 0.373019 0.459060
Si Si6 0.625354 0.725603 0.989492
Si Si7 0.076984 0.331783 0.329156
Si Si8 0.333106 0.842734 0.114013
O O1 0.872885 0.745769 0.433123
O O2 0.908796 0.614170 0.416402
O O3 0.000000 0.749122 0.500000
O O4 0.010594 0.770084 0.367808
O O5 0.734528 0.469055 0.615202
O O6 0.569128 0.430873 0.616395
O O7 0.671073 0.502093 0.511477
O O8 0.695532 0.597258 0.614309
O O9 0.502316 0.751158 0.843554
O O10 0.415880 0.584121 0.880242
O O11 0.553040 0.642543 0.800114
O O12 0.578555 0.686989 0.921412
O O13 0.487252 0.512749 0.251505
O O14 0.326463 0.358758 0.272414
O O15 0.361399 0.438468 0.163240
O O16 0.901091 0.450546 0.419367
O O17 0.000000 0.422342 0.500000
O O18 0.664687 0.832344 0.992895
O O19 0.707032 0.707032 0.000000
O O20 0.550693 0.675343 0.043521
O O21 0.164046 0.328091 0.304247
O O22 0.405860 0.811720 0.110049
O O23 0.240654 0.759346 0.138067
#
# Coordination Sequence:
#
# PCOD8323444 Si02
#       8
#    12  12  12  12  12  12  12  12
#     4  11  21  36  58  82 104 130 165 209 265 325
#     4  10  18  29  46  71 102 133 164 198 238 289
#     4  10  20  34  54  80 111 146 184 225 269 315
#     4  10  21  35  53  75 105 146 186 223 257 301
#     4   9  16  27  47  74 101 129 160 196 237 287
#     4  10  19  32  53  81 113 146 183 230 279 325
#     4  11  22  36  54  76 103 133 171 214 261 316
#     4  10  19  31  49  75 110 148 185 224 270 319
#
# _framework density 17.886043999999998
#
# number of rings (size 3 to 8) (size 9 to 14) (size 15 to 20)
#    0.000    1.875    3.750    2.250    0.000    1.500 
#    0.000    1.250    0.000    6.625    0.000    0.875 
#    0.000    1.000    0.000    0.000    0.000    0.000 
#
# Total GULP energy -1189537.726927 kJ/mol
# GULP energy per Si atom -12391.017989 kJ/mol
# Density = 1.784533 g / cm^3
# Si number density = 17.886044 Si / 1000 Ang^3
#
#
#
# Elastic Constant Matrix: (Units=GPa)
#
#
# Indices 1 2 3 4 5 6 
#
# 1 88.3984 64.4197 29.9935 -7.7684 0.0000 0.0000
# 2 64.4197 88.3984 29.9935 7.7684 0.0000 0.0000
# 3 29.9935 29.9935 65.5709 0.0000 0.0000 0.0000
# 4 -7.7684 7.7684 0.0000 17.8473 0.0000 0.0000
# 5 0.0000 0.0000 0.0000 0.0000 17.8473 -7.7684
# 6 0.0000 0.0000 0.0000 0.0000 -7.7684 11.9893
#
#
#
# Elastic Compliance Matrix: (Units=1/GPa)
#
#
# Indices 1 2 3 4 5 6 
#
# 1 0.033031 -0.025055 -0.003648 0.025283 0.000000 0.000000
# 2 -0.025055 0.033031 -0.003648 -0.025283 0.000000 0.000000
# 3 -0.003648 -0.003648 0.018588 0.000000 0.000000 0.000000
# 4 0.025283 -0.025283 0.000000 0.078040 0.000000 0.000000
# 5 0.000000 0.000000 0.000000 0.000000 0.078040 0.050565
# 6 0.000000 0.000000 0.000000 0.000000 0.050565 0.116170
#
#
# Mechanical properties :
#
#
# Convention : Reuss Voigt Hill
#
# Bulk Modulus (GPa) = 50.13355 54.57564 52.35460
# Shear Modulus (GPa) = 11.67539 17.40088 14.53813
#
# Velocity S-wave (km/s) = 2.55770 3.12248 2.85409
# Velocity P-wave (km/s) = 6.06735 6.60144 6.34002
#
# Compressibility (1/GPa) = 0.01994672
#
# Stress axis : x y z
#
# Youngs Moduli (GPa) = 30.27504 30.27504 53.79734
#
# Poissons Ratio (x) = 0.75853 0.19627
# Poissons Ratio (y) = 0.75853 0.19627
# Poissons Ratio (z) = 0.11045 0.11045
#
# Static dielectric constant tensor:
#      x y z
#    x 3.400310 0.000000 0.000000 
#    y 0.000000 3.400310 0.000000 
#    z 0.000000 0.000000 3.095250 
# 
# 
# High freq. dielectric constant tensor:
#      x y z
#    x 1.687810 0.000000 0.000000 
#    y 0.000000 1.687810 0.000000 
#    z 0.000000 0.000000 1.666460 
# 
# From -- ./inp_files/4802.got.cif
#   From: 2010.03.12/outbox.cif.g09.slc.cpg/sg164_3_cif.got.tgz:4802.got - 2010.04.02 06:32:59.
