data_PCOD8323026
_publ_section_title
;
Structure prediction by ZEFSAII (Michael W. Deem and Ramdas Pophale) SiO2 
 PCOD8323026
Probable space group: P -3 1 M 
;
_chemical_formula_sum "Si O2"
_cell_formula_units_Z 84
_cell_length_a 17.909116
_cell_length_b 17.909116
_cell_length_c 16.992907
_cell_angle_alpha 90.000000
_cell_angle_beta 90.000000
_cell_angle_gamma 120.000000
_cell_volume 4720.050130
_symmetry_space_group_name_H-M "P -3 1 M "
_symmetry_group_IT_number 162
_symmetry_cell_setting 'hexagonal'
loop_
_space_group_symop_operation_xyz
x,y,z
-y,x-y,z
-x+y,-x,z
-y,-x,-z
-x+y,y,-z
x,x-y,-z
-x,-y,-z
y,-x+y,-z
x-y,x,-z
y,x,z
x-y,-y,z
-x,-x+y,z
loop_
_atom_site_type_symbol
_atom_site_label
_atom_site_fract_x
_atom_site_fract_y
_atom_site_fract_z
Si Si1 0.464889 0.100957 0.810290
Si Si2 0.363628 0.267094 0.500001
Si Si3 0.195007 0.097503 0.093688
Si Si4 0.162634 0.668197 0.638439
Si Si5 0.195605 0.804399 0.093231
Si Si6 0.100957 0.636064 0.810291
Si Si7 0.837367 0.331805 0.638437
O O1 0.439965 0.147011 0.876850
O O2 0.563725 0.127454 0.824602
O O3 0.454080 0.131401 0.724432
O O4 0.402259 0.000000 0.818316
O O5 0.329592 0.164796 0.500000
O O6 0.281649 0.281649 0.500001
O O7 0.420289 0.312731 0.576510
O O8 0.420291 0.312733 0.423494
O O9 0.146579 0.146579 0.126614
O O10 0.292941 0.146467 0.124632
O O11 0.146573 0.000000 0.126614
O O12 0.193210 0.096605 0.000000
O O13 0.131406 0.677322 0.724435
O O14 0.263921 0.736080 0.628766
O O15 0.146008 0.573004 0.622800
O O16 0.292959 0.852992 0.123147
O O17 0.197103 0.802898 0.000000
O O18 0.000000 0.597736 0.818312
#
# Coordination Sequence:
#
# PCOD8323026 Si02
#       7
#    12  12  12  12  12  12  12
#     4  10  21  37  56  77 105 142 183 227 274 325
#     4  10  21  35  55  84 115 147 184 224 267 317
#     4   9  17  30  51  78 105 131 161 207 271 341
#     4  10  19  33  54  82 115 149 180 214 255 311
#     4  11  22  37  54  76 103 137 182 233 281 332
#     4  10  21  37  56  77 105 142 183 227 274 325
#     4  10  19  33  54  82 115 149 180 214 255 311
#
# _framework density 17.796420000000001
#
# number of rings (size 3 to 8) (size 9 to 14) (size 15 to 20)
#    0.000    2.000    1.429    2.571    0.000    5.143 
#    0.857    2.857    0.000    0.143    0.000    0.000 
#    0.000    0.000    0.000    0.000    0.000    0.000 
#
# Total GULP energy -1041879.851906 kJ/mol
# GULP energy per Si atom -12403.331570 kJ/mol
# Density = 1.775591 g / cm^3
# Si number density = 17.796420 Si / 1000 Ang^3
#
#
#
# Elastic Constant Matrix: (Units=GPa)
#
#
# Indices 1 2 3 4 5 6 
#
# 1 106.6638 65.0306 48.0342 0.0000 -0.0062 0.0000
# 2 65.0306 106.6638 48.0342 0.0000 0.0062 0.0000
# 3 48.0342 48.0342 85.7878 0.0000 0.0000 0.0000
# 4 0.0000 0.0000 0.0000 16.9712 0.0000 0.0062
# 5 -0.0062 0.0062 0.0000 0.0000 16.9712 0.0000
# 6 0.0000 0.0000 0.0000 0.0062 0.0000 20.8166
#
#
#
# Elastic Compliance Matrix: (Units=1/GPa)
#
#
# Indices 1 2 3 4 5 6 
#
# 1 0.016250 -0.007769 -0.004749 0.000000 0.000009 0.000000
# 2 -0.007769 0.016250 -0.004749 0.000000 -0.000009 0.000000
# 3 -0.004749 -0.004749 0.016975 0.000000 0.000000 0.000000
# 4 0.000000 0.000000 0.000000 0.058923 0.000000 -0.000018
# 5 0.000009 -0.000009 0.000000 0.000000 0.058923 0.000000
# 6 0.000000 0.000000 0.000000 -0.000018 0.000000 0.048039
#
#
# Mechanical properties :
#
#
# Convention : Reuss Voigt Hill
#
# Bulk Modulus (GPa) = 66.92586 69.03484 67.98035
# Shear Modulus (GPa) = 19.61744 20.15287 19.88515
#
# Velocity S-wave (km/s) = 3.32373 3.36878 3.34633
# Velocity P-wave (km/s) = 7.24000 7.34896 7.29468
#
# Compressibility (1/GPa) = 0.01494191
#
# Stress axis : x y z
#
# Youngs Moduli (GPa) = 61.53693 61.53693 58.91116
#
# Poissons Ratio (x) = 0.47808 0.27977
# Poissons Ratio (y) = 0.47808 0.27977
# Poissons Ratio (z) = 0.29224 0.29224
#
# Static dielectric constant tensor:
#      x y z
#    x 3.347540 0.000000 0.000000 
#    y 0.000000 3.347540 0.000000 
#    z 0.000000 0.000000 3.213790 
# 
# 
# High freq. dielectric constant tensor:
#      x y z
#    x 1.690500 0.000000 0.000000 
#    y 0.000000 1.690500 0.000000 
#    z 0.000000 0.000000 1.679200 
# 
# From -- ./inp_files/3180.got.cif
#   From: 2010.03.12/outbox.cif.g09.slc.cpg/sg162_2_cif.got.tgz:3180.got - 2010.04.02 06:27:41.
