data_PCOD8323420
_publ_section_title
;
Structure prediction by ZEFSAII (Michael W. Deem and Ramdas Pophale) SiO2 
 PCOD8323420
Probable space group: P -3 M 1
;
_chemical_formula_sum "Si O2"
_cell_formula_units_Z 60
_cell_length_a 18.051136
_cell_length_b 18.051136
_cell_length_c 10.337199
_cell_angle_alpha 90.000000
_cell_angle_beta 90.000000
_cell_angle_gamma 120.000000
_cell_volume 2917.041348
_symmetry_space_group_name_H-M "P -3 M 1"
_symmetry_group_IT_number 164
_symmetry_cell_setting 'hexagonal'
loop_
_space_group_symop_operation_xyz
x,y,z
-y,x-y,z
-x+y,-x,z
x-y,-y,-z
-x,-x+y,-z
y,x,-z
-x,-y,-z
y,-x+y,-z
x-y,x,-z
-x+y,y,z
x,x-y,z
-y,-x,z
loop_
_atom_site_type_symbol
_atom_site_label
_atom_site_fract_x
_atom_site_fract_y
_atom_site_fract_z
Si Si1 0.702114 0.135307 0.329062
Si Si2 0.168444 0.665427 0.398082
Si Si3 0.938154 0.231251 0.888495
Si Si4 0.570574 0.595692 0.197918
Si Si5 0.200727 0.237875 0.637548
O O1 0.775224 0.224777 0.264251
O O2 0.658586 0.155318 0.448220
O O3 0.746436 0.085010 0.387624
O O4 0.630732 0.076422 0.224642
O O5 0.203076 0.601538 0.359679
O O6 0.238418 0.761583 0.354074
O O7 0.077658 0.634582 0.330425
O O8 0.841935 0.158066 0.918468
O O9 0.942255 0.323427 0.897654
O O10 0.966399 0.213317 0.749214
O O11 0.000000 0.230094 0.000000
O O12 0.479774 0.520227 0.140663
O O13 0.193380 0.193380 0.500000
O O14 0.104483 0.208966 0.683950
#
# Coordination Sequence:
#
# PCOD8323420 Si02
#       5
#    12  12  12  12  12
#     4   9  17  28  46  75 109 147 190 235 280 329
#     4  10  18  28  44  71 110 152 192 234 283 336
#     4  11  23  40  62  86 114 150 192 235 280 334
#     4  10  20  34  54  79 107 141 185 236 284 334
#     4  10  19  33  56  85 116 150 191 237 282 330
#
# _framework density 20.568787
#
# number of rings (size 3 to 8) (size 9 to 14) (size 15 to 20)
#    0.000    2.000    0.000    5.600    0.000    4.400 
#    0.000    0.000    0.000    8.800    0.000    1.400 
#    0.000    0.000    0.000    0.000    0.000    0.200 
#
# Total GULP energy -743675.409499 kJ/mol
# GULP energy per Si atom -12394.590158 kJ/mol
# Density = 2.052197 g / cm^3
# Si number density = 20.568787 Si / 1000 Ang^3
#
#
#
# Elastic Constant Matrix: (Units=GPa)
#
#
# Indices 1 2 3 4 5 6 
#
# 1 105.4494 53.0051 28.1734 3.1659 0.0000 0.0000
# 2 53.0051 105.4494 28.1734 -3.1659 0.0000 0.0000
# 3 28.1734 28.1734 74.2190 0.0000 0.0000 0.0000
# 4 3.1659 -3.1659 0.0000 22.6605 0.0000 0.0000
# 5 0.0000 0.0000 0.0000 0.0000 22.6605 3.1659
# 6 0.0000 0.0000 0.0000 0.0000 3.1659 26.2222
#
#
#
# Elastic Compliance Matrix: (Units=1/GPa)
#
#
# Indices 1 2 3 4 5 6 
#
# 1 0.013345 -0.006050 -0.002769 -0.002710 0.000000 0.000000
# 2 -0.006050 0.013345 -0.002769 0.002710 0.000000 0.000000
# 3 -0.002769 -0.002769 0.015576 0.000000 0.000000 0.000000
# 4 -0.002710 0.002710 0.000000 0.044887 0.000000 0.000000
# 5 0.000000 0.000000 0.000000 0.000000 0.044887 -0.005419
# 6 0.000000 0.000000 0.000000 0.000000 -0.005419 0.038790
#
#
# Mechanical properties :
#
#
# Convention : Reuss Voigt Hill
#
# Bulk Modulus (GPa) = 52.38369 55.98018 54.18194
# Shear Modulus (GPa) = 24.95372 26.02637 25.49005
#
# Velocity S-wave (km/s) = 3.48686 3.56101 3.52413
# Velocity P-wave (km/s) = 6.46017 6.64702 6.55426
#
# Compressibility (1/GPa) = 0.01908991
#
# Stress axis : x y z
#
# Youngs Moduli (GPa) = 74.93221 74.93221 64.20045
#
# Poissons Ratio (x) = 0.45331 0.17780
# Poissons Ratio (y) = 0.45331 0.17780
# Poissons Ratio (z) = 0.20752 0.20752
#
# Static dielectric constant tensor:
#      x y z
#    x 3.812260 0.000000 0.000000 
#    y 0.000000 3.812260 0.000000 
#    z 0.000000 0.000000 3.326810 
# 
# 
# High freq. dielectric constant tensor:
#      x y z
#    x 1.801790 0.000000 0.000000 
#    y 0.000000 1.801790 0.000000 
#    z 0.000000 0.000000 1.771190 
# 
# From -- ./inp_files/2721.got.cif
#   From: 2010.03.12/outbox.cif.g09.slc.cpg/sg164_2_cif.got.tgz:2721.got - 2010.04.02 06:32:59.
