data_PCOD8323848
_publ_section_title
;
Structure prediction by ZEFSAII (Michael W. Deem and Ramdas Pophale) SiO2 
 PCOD8323848
Probable space group: P -3 C 1
;
_chemical_formula_sum "Si O2"
_cell_formula_units_Z 38
_cell_length_a 11.736385
_cell_length_b 11.736385
_cell_length_c 18.526974
_cell_angle_alpha 90.000000
_cell_angle_beta 90.000000
_cell_angle_gamma 120.000000
_cell_volume 2210.058752
_symmetry_space_group_name_H-M "P -3 C 1"
_symmetry_group_IT_number 165
_symmetry_cell_setting 'hexagonal'
loop_
_space_group_symop_operation_xyz
x,y,z
-y,x-y,z
-x+y,-x,z
x-y,-y,1/2-z
-x,-x+y,1/2-z
y,x,1/2-z
-x,-y,-z
y,-x+y,-z
x-y,x,-z
-x+y,y,1/2+z
x,x-y,1/2+z
-y,-x,1/2+z
loop_
_atom_site_type_symbol
_atom_site_label
_atom_site_fract_x
_atom_site_fract_y
_atom_site_fract_z
Si Si1 0.000000 0.664621 0.250000
Si Si2 0.509434 0.101573 0.330542
Si Si3 0.666668 0.333335 0.099732
Si Si4 0.734890 0.163694 0.690504
Si Si5 0.333333 0.666666 0.570605
O O1 0.955714 0.562707 0.317263
O O2 0.881304 0.682665 0.217326
O O3 0.521984 0.187468 0.259887
O O4 0.552220 0.191421 0.401504
O O5 0.355481 0.986251 0.337765
O O6 0.516616 0.263118 0.127451
O O7 0.666668 0.333334 0.014311
#
# Coordination Sequence:
#
# PCOD8323848 Si02
#       5
#     6  12   4  12   4
#     4  10  16  30  60  70 102 126 188 228 262 310
#     4  10  19  32  54  73 106 138 179 220 276 305
#     4  12  19  29  49  78 121 146 169 210 280 329
#     4  10  18  33  52  76  97 146 176 225 271 317
#     4  12  22  32  46  84 118 143 178 216 259 344
#
# _framework density 17.194113000000002
#
# number of rings (size 3 to 8) (size 9 to 14) (size 15 to 20)
#    0.000    1.895    9.474    0.000    0.000    1.263 
#    0.000    0.000    0.000    5.053    0.000    0.000 
#    0.000   10.105    0.000    0.000    0.000    0.000 
#
# Total GULP energy -470810.757703 kJ/mol
# GULP energy per Si atom -12389.756782 kJ/mol
# Density = 1.715498 g / cm^3
# Si number density = 17.194113 Si / 1000 Ang^3
#
#
#
# Elastic Constant Matrix: (Units=GPa)
#
#
# Indices 1 2 3 4 5 6 
#
# 1 97.7571 46.2534 37.1748 0.5129 0.0000 0.0000
# 2 46.2534 97.7574 37.1751 -0.5128 0.0000 0.0000
# 3 37.1748 37.1751 116.7622 0.0002 0.0000 0.0000
# 4 0.5129 -0.5128 0.0002 16.5003 0.0000 0.0000
# 5 0.0000 0.0000 0.0000 0.0000 16.5000 0.5128
# 6 0.0000 0.0000 0.0000 0.0000 0.5128 25.7521
#
#
#
# Elastic Compliance Matrix: (Units=1/GPa)
#
#
# Indices 1 2 3 4 5 6 
#
# 1 0.013869 -0.005559 -0.002646 -0.000604 0.000000 0.000000
# 2 -0.005559 0.013869 -0.002646 0.000604 0.000000 0.000000
# 3 -0.002646 -0.002646 0.010249 0.000000 0.000000 0.000000
# 4 -0.000604 0.000604 0.000000 0.060642 0.000000 0.000000
# 5 0.000000 0.000000 0.000000 0.000000 0.060644 -0.001208
# 6 0.000000 0.000000 0.000000 0.000000 -0.001208 0.038856
#
#
# Mechanical properties :
#
#
# Convention : Reuss Voigt Hill
#
# Bulk Modulus (GPa) = 61.40247 61.49816 61.45032
# Shear Modulus (GPa) = 22.19671 24.52871 23.36271
#
# Velocity S-wave (km/s) = 3.59687 3.78110 3.69014
# Velocity P-wave (km/s) = 7.28278 7.40992 7.34663
#
# Compressibility (1/GPa) = 0.01628599
#
# Stress axis : x y z
#
# Youngs Moduli (GPa) = 72.10346 72.10355 97.56956
#
# Poissons Ratio (x) = 0.40083 0.25814
# Poissons Ratio (y) = 0.40083 0.25814
# Poissons Ratio (z) = 0.19076 0.19077
#
# Static dielectric constant tensor:
#      x y z
#    x 3.260310 0.000000 0.000000 
#    y 0.000000 3.260310 0.000000 
#    z 0.000000 0.000000 2.852160 
# 
# 
# High freq. dielectric constant tensor:
#      x y z
#    x 1.649540 0.000000 0.000000 
#    y 0.000000 1.649540 0.000000 
#    z 0.000000 0.000000 1.624970 
# 
# From -- ./inp_files/2008.got.cif
#   From: 2010.03.12/outbox.cif.g09.slc.cpg/sg165_2_cif.got.tgz:2008.got - 2010.04.02 06:36:38.
