data_PCOD8323176
_publ_section_title
;
Structure prediction by ZEFSAII (Michael W. Deem and Ramdas Pophale) SiO2 
 PCOD8323176
Probable space group: P -3 1 M 
;
_chemical_formula_sum "Si O2"
_cell_formula_units_Z 72
_cell_length_a 23.170409
_cell_length_b 23.170409
_cell_length_c 9.312486
_cell_angle_alpha 90.000000
_cell_angle_beta 90.000000
_cell_angle_gamma 120.000000
_cell_volume 4329.758410
_symmetry_space_group_name_H-M "P -3 1 M "
_symmetry_group_IT_number 162
_symmetry_cell_setting 'hexagonal'
loop_
_space_group_symop_operation_xyz
x,y,z
-y,x-y,z
-x+y,-x,z
-y,-x,-z
-x+y,y,-z
x,x-y,-z
-x,-y,-z
y,-x+y,-z
x-y,x,-z
y,x,z
x-y,-y,z
-x,-x+y,z
loop_
_atom_site_type_symbol
_atom_site_label
_atom_site_fract_x
_atom_site_fract_y
_atom_site_fract_z
Si Si1 0.721947 0.796040 0.834330
Si Si2 0.466267 0.800029 0.166889
Si Si3 0.721947 0.925907 0.834330
Si Si4 0.271785 0.865266 0.661587
Si Si5 0.666238 0.199971 0.833111
Si Si6 0.728215 0.593480 0.338413
O O1 0.784446 0.784446 0.807520
O O2 0.743299 0.871650 0.788054
O O3 0.659945 0.741253 0.742900
O O4 0.699746 0.784249 1.000000
O O5 0.528356 0.856284 0.256583
O O6 0.401338 0.802676 0.214653
O O7 0.452875 0.726437 0.201753
O O8 0.482528 0.816852 1.000000
O O9 0.659945 0.918692 0.742900
O O10 0.784446 0.000000 0.807520
O O11 0.204431 0.795569 0.662417
O O12 0.296044 0.890399 0.500000
O O13 0.672072 0.143716 0.743417
#
# Coordination Sequence:
#
# PCOD8323176 Si02
#       6
#    12  12  12  12  12  12
#     4   9  17  30  49  71  93 117 145 176 210 251
#     4   9  16  26  41  61  86 117 153 191 230 272
#     4   9  17  30  49  71  93 117 145 176 210 251
#     4   9  17  28  42  62  88 117 149 185 224 263
#     4   9  16  26  41  61  86 117 153 191 230 272
#     4   9  17  28  42  62  88 117 149 185 224 263
#
# _framework density 16.629103000000001
#
# number of rings (size 3 to 8) (size 9 to 14) (size 15 to 20)
#    0.000    3.000    0.000    1.333    0.000    6.667 
#    0.000    0.000    0.000    3.333    0.000    9.333 
#    0.000    0.000    0.000    8.333    0.000    8.667 
#
# Total GULP energy -892613.160923 kJ/mol
# GULP energy per Si atom -12397.405013 kJ/mol
# Density = 1.659125 g / cm^3
# Si number density = 16.629103 Si / 1000 Ang^3
#
#
#
# Elastic Constant Matrix: (Units=GPa)
#
#
# Indices 1 2 3 4 5 6 
#
# 1 94.1240 52.3207 45.0259 0.0000 0.0000 0.0000
# 2 52.3207 94.1240 45.0259 0.0000 0.0000 0.0000
# 3 45.0259 45.0259 79.9897 0.0000 0.0000 0.0000
# 4 0.0000 0.0000 0.0000 15.2444 0.0000 0.0000
# 5 0.0000 0.0000 0.0000 0.0000 15.2444 0.0000
# 6 0.0000 0.0000 0.0000 0.0000 0.0000 20.9017
#
#
#
# Elastic Compliance Matrix: (Units=1/GPa)
#
#
# Indices 1 2 3 4 5 6 
#
# 1 0.017182 -0.006739 -0.005879 0.000000 0.000000 0.000000
# 2 -0.006739 0.017182 -0.005879 0.000000 0.000000 0.000000
# 3 -0.005879 -0.005879 0.019120 0.000000 0.000000 0.000000
# 4 0.000000 0.000000 0.000000 0.065598 0.000000 0.000000
# 5 0.000000 0.000000 0.000000 0.000000 0.065598 0.000000
# 6 0.000000 0.000000 0.000000 0.000000 0.000000 0.047843
#
#
# Mechanical properties :
#
#
# Convention : Reuss Voigt Hill
#
# Bulk Modulus (GPa) = 60.63471 61.44254 61.03862
# Shear Modulus (GPa) = 18.18098 18.66912 18.42505
#
# Velocity S-wave (km/s) = 3.31013 3.35427 3.33228
# Velocity P-wave (km/s) = 7.15202 7.21322 7.18269
#
# Compressibility (1/GPa) = 0.01649220
#
# Stress axis : x y z
#
# Youngs Moduli (GPa) = 58.19896 58.19896 52.30237
#
# Poissons Ratio (x) = 0.39221 0.30746
# Poissons Ratio (y) = 0.39221 0.30746
# Poissons Ratio (z) = 0.34212 0.34212
#
# Static dielectric constant tensor:
#      x y z
#    x 2.998810 0.000000 0.000000 
#    y 0.000000 2.998810 0.000000 
#    z 0.000000 0.000000 3.257570 
# 
# 
# High freq. dielectric constant tensor:
#      x y z
#    x 1.617890 0.000000 0.000000 
#    y 0.000000 1.617890 0.000000 
#    z 0.000000 0.000000 1.643200 
# 
# From -- ./inp_files/1688.got.cif
#   From: 2010.03.12/outbox.cif.g09.slc.cpg/sg162_1_cif.got.tgz:1688.got - 2010.04.02 06:27:41.
