data_PCOD8323889
_publ_section_title
;
Structure prediction by ZEFSAII (Michael W. Deem and Ramdas Pophale) SiO2 
 PCOD8323889
Probable space group: P -3 C 1
;
_chemical_formula_sum "Si O2"
_cell_formula_units_Z 54
_cell_length_a 24.755081
_cell_length_b 24.755081
_cell_length_c 5.365291
_cell_angle_alpha 90.000000
_cell_angle_beta 90.000000
_cell_angle_gamma 120.000000
_cell_volume 2847.427120
_symmetry_space_group_name_H-M "P -3 C 1"
_symmetry_group_IT_number 165
_symmetry_cell_setting 'hexagonal'
loop_
_space_group_symop_operation_xyz
x,y,z
-y,x-y,z
-x+y,-x,z
x-y,-y,1/2-z
-x,-x+y,1/2-z
y,x,1/2-z
-x,-y,-z
y,-x+y,-z
x-y,x,-z
-x+y,y,1/2+z
x,x-y,1/2+z
-y,-x,1/2+z
loop_
_atom_site_type_symbol
_atom_site_label
_atom_site_fract_x
_atom_site_fract_y
_atom_site_fract_z
Si Si1 0.774094 0.175316 0.716497
Si Si2 0.277906 0.000000 0.750000
Si Si3 0.930188 0.488561 0.301990
Si Si4 0.658605 0.603283 0.075104
Si Si5 0.112458 0.849966 0.333956
O O1 0.783029 0.215283 0.464322
O O2 0.703538 0.117287 0.731820
O O3 0.824797 0.152936 0.718910
O O4 0.268255 0.051909 0.612372
O O5 0.296310 0.965928 0.544596
O O6 0.897478 0.439587 0.534446
O O7 0.929250 0.552015 0.360013
O O8 0.000000 0.501728 0.250000
O O9 0.607662 0.607662 0.250000
O O10 0.121246 0.894680 0.570572
#
# Coordination Sequence:
#
# PCOD8323889 Si02
#       5
#    12   6  12  12  12
#     4  10  20  35  46  67 102 123 162 217 246 280
#     4  12  22  30  54  72  94 142 180 198 246 312
#     4  10  21  35  46  67  99 128 168 217 242 274
#     4  12  22  31  53  72  94 139 184 197 244 311
#     4  10  20  35  45  67 102 123 165 214 241 281
#
# _framework density 18.964487999999999
#
# number of rings (size 3 to 8) (size 9 to 14) (size 15 to 20)
#    0.000    1.333    5.556    4.667    0.000    0.000 
#    0.000    0.000    0.000    0.000    0.000    0.000 
#    0.000    0.000    0.000   20.000    1.333    3.556 
#
# Total GULP energy -669134.395035 kJ/mol
# GULP energy per Si atom -12391.377686 kJ/mol
# Density = 1.892132 g / cm^3
# Si number density = 18.964488 Si / 1000 Ang^3
#
#
#
# Elastic Constant Matrix: (Units=GPa)
#
#
# Indices 1 2 3 4 5 6 
#
# 1 53.8342 39.0351 26.2448 6.4676 0.0000 0.0000
# 2 39.0351 53.8342 26.2448 -6.4676 0.0000 0.0000
# 3 26.2448 26.2448 161.7590 0.0000 0.0000 0.0000
# 4 6.4676 -6.4676 0.0000 19.3777 0.0000 0.0000
# 5 0.0000 0.0000 0.0000 0.0000 19.3777 6.4676
# 6 0.0000 0.0000 0.0000 0.0000 6.4676 7.3996
#
#
#
# Elastic Compliance Matrix: (Units=1/GPa)
#
#
# Indices 1 2 3 4 5 6 
#
# 1 0.053629 -0.041774 -0.001923 -0.031842 0.000000 0.000000
# 2 -0.041774 0.053629 -0.001923 0.031842 0.000000 0.000000
# 3 -0.001923 -0.001923 0.006806 0.000000 0.000000 0.000000
# 4 -0.031842 0.031842 0.000000 0.072861 0.000000 0.000000
# 5 0.000000 0.000000 0.000000 0.000000 0.072861 -0.063684
# 6 0.000000 0.000000 0.000000 0.000000 -0.063684 0.190806
#
#
# Mechanical properties :
#
#
# Convention : Reuss Voigt Hill
#
# Bulk Modulus (GPa) = 43.81668 50.27520 47.04594
# Shear Modulus (GPa) = 9.10014 21.09117 15.09565
#
# Velocity S-wave (km/s) = 2.19293 3.33849 2.82440
# Velocity P-wave (km/s) = 5.43752 6.43649 5.95798
#
# Compressibility (1/GPa) = 0.02282236
#
# Stress axis : x y z
#
# Youngs Moduli (GPa) = 18.64663 18.64663 146.92545
#
# Poissons Ratio (x) = 0.77895 0.28260
# Poissons Ratio (y) = 0.77895 0.28260
# Poissons Ratio (z) = 0.03587 0.03587
#
# Static dielectric constant tensor:
#      x y z
#    x 3.115940 0.000000 0.000000 
#    y 0.000000 3.115940 0.000000 
#    z 0.000000 0.000000 4.754620 
# 
# 
# High freq. dielectric constant tensor:
#      x y z
#    x 1.680040 0.000000 0.000000 
#    y 0.000000 1.680040 0.000000 
#    z 0.000000 0.000000 1.775700 
# 
# From -- ./inp_files/154.got.cif
#   From: 2010.03.12/outbox.cif.g09.slc.cpg/sg165_1_cif.got.tgz:154.got - 2010.04.02 06:36:38.
