data_PCOD8323204
_publ_section_title
;
Structure prediction by ZEFSAII (Michael W. Deem and Ramdas Pophale) SiO2 
 PCOD8323204
Probable space group: P -3 1 C
;
_chemical_formula_sum "Si O2"
_cell_formula_units_Z 90
_cell_length_a 18.037365
_cell_length_b 18.037365
_cell_length_c 17.122658
_cell_angle_alpha 90.000000
_cell_angle_beta 90.000000
_cell_angle_gamma 120.000000
_cell_volume 4824.452128
_symmetry_space_group_name_H-M "P -3 1 C"
_symmetry_group_IT_number 163
_symmetry_cell_setting 'hexagonal'
loop_
_space_group_symop_operation_xyz
x,y,z
-y,x-y,z
-x+y,-x,z
-y,-x,1/2-z
-x+y,y,1/2-z
x,x-y,1/2-z
-x,-y,-z
y,-x+y,-z
x-y,x,-z
y,x,1/2+z
x-y,-y,1/2+z
-x,-x+y,1/2+z
loop_
_atom_site_type_symbol
_atom_site_label
_atom_site_fract_x
_atom_site_fract_y
_atom_site_fract_z
Si Si1 0.027700 0.241094 0.157008
Si Si2 0.537068 0.995905 0.327123
Si Si3 0.407444 0.031958 0.907040
Si Si4 0.879965 0.226412 0.394802
Si Si5 0.609534 0.699673 0.576667
Si Si6 0.067524 0.873940 0.488959
Si Si7 0.125781 0.251562 0.750000
Si Si8 0.121636 0.407147 0.252428
O O1 0.091624 0.227120 0.100797
O O2 0.083615 0.312334 0.219038
O O3 0.973361 0.265126 0.097392
O O4 0.961629 0.154235 0.202852
O O5 0.517136 0.034272 0.250000
O O6 0.464256 0.968727 0.392939
O O7 0.541089 0.911080 0.301534
O O8 0.625505 0.071783 0.361248
O O9 0.399019 0.090525 0.841136
O O10 0.329170 0.933781 0.903336
O O11 0.411876 0.074965 0.989612
O O12 0.778888 0.187706 0.415257
O O13 0.920971 0.188459 0.453581
O O14 0.889963 0.203719 0.306284
O O15 0.969454 0.847752 0.483588
O O16 0.225624 0.451248 0.250000
#
# Coordination Sequence:
#
# PCOD8323204 Si02
#       8
#    12  12  12  12  12  12   6  12
#     4  10  20  33  54  77 112 150 202 245 285 341
#     4   9  21  39  56  86 119 146 188 243 300 355
#     4  11  20  36  60  88 119 154 191 247 300 348
#     4  11  21  35  60  86 115 153 203 239 295 344
#     4  10  20  35  57  85 115 151 193 241 289 349
#     4  12  23  37  53  76 119 165 205 256 297 346
#     4  10  18  36  52  80 116 150 194 248 288 342
#     4  10  22  34  56  86 115 150 193 240 294 357
#
# _framework density 18.654968
#
# number of rings (size 3 to 8) (size 9 to 14) (size 15 to 20)
#    0.000    1.600    5.333    0.533    5.600    0.000 
#    0.000    0.000    0.000    7.733    0.000    3.733 
#    0.000    0.000    0.000    0.000    0.000    0.000 
#
# Total GULP energy -1115709.948226 kJ/mol
# GULP energy per Si atom -12396.777203 kJ/mol
# Density = 1.861251 g / cm^3
# Si number density = 18.654968 Si / 1000 Ang^3
#
#
#
# Elastic Constant Matrix: (Units=GPa)
#
#
# Indices 1 2 3 4 5 6 
#
# 1 79.1239 47.9661 36.3265 0.0000 2.0292 0.0000
# 2 47.9661 79.1239 36.3265 0.0000 -2.0292 0.0000
# 3 36.3265 36.3265 114.2696 0.0000 0.0000 0.0000
# 4 0.0000 0.0000 0.0000 25.6408 0.0000 -2.0292
# 5 2.0292 -2.0292 0.0000 0.0000 25.6408 0.0000
# 6 0.0000 0.0000 0.0000 -2.0292 0.0000 15.5789
#
#
#
# Elastic Compliance Matrix: (Units=1/GPa)
#
#
# Indices 1 2 3 4 5 6 
#
# 1 0.021023 -0.011407 -0.003057 0.000000 -0.002566 0.000000
# 2 -0.011407 0.021023 -0.003057 0.000000 0.002566 0.000000
# 3 -0.003057 -0.003057 0.010695 0.000000 0.000000 0.000000
# 4 0.000000 0.000000 0.000000 0.039407 0.000000 0.005133
# 5 -0.002566 0.002566 0.000000 0.000000 0.039407 0.000000
# 6 0.000000 0.000000 0.000000 0.005133 0.000000 0.064858
#
#
# Mechanical properties :
#
#
# Convention : Reuss Voigt Hill
#
# Bulk Modulus (GPa) = 56.50017 57.08397 56.79207
# Shear Modulus (GPa) = 21.06580 23.49865 22.28222
#
# Velocity S-wave (km/s) = 3.36405 3.55300 3.45982
# Velocity P-wave (km/s) = 6.74105 6.89188 6.81688
#
# Compressibility (1/GPa) = 0.01769906
#
# Stress axis : x y z
#
# Youngs Moduli (GPa) = 47.56803 47.56803 93.50298
#
# Poissons Ratio (x) = 0.54259 0.28583
# Poissons Ratio (y) = 0.54259 0.28583
# Poissons Ratio (z) = 0.14541 0.14541
#
# Static dielectric constant tensor:
#      x y z
#    x 3.422140 0.000000 0.000000 
#    y 0.000000 3.422140 0.000000 
#    z 0.000000 0.000000 2.522450 
# 
# 
# High freq. dielectric constant tensor:
#      x y z
#    x 1.701800 0.000000 0.000000 
#    y 0.000000 1.701800 0.000000 
#    z 0.000000 0.000000 1.749780 
# 
# From -- ./inp_files/3287.got.cif
#   From: 2010.03.12/outbox.cif.g09.slc.cpg/sg163_2_cif.got.tgz:3287.got - 2010.04.02 06:30:25.
