data_PCOD8323047
_publ_section_title
;
Structure prediction by ZEFSAII (Michael W. Deem and Ramdas Pophale) SiO2 
 PCOD8323047
Probable space group: P -3 1 M 
;
_chemical_formula_sum "Si O2"
_cell_formula_units_Z 90
_cell_length_a 17.703639
_cell_length_b 17.703639
_cell_length_c 17.682178
_cell_angle_alpha 90.000000
_cell_angle_beta 90.000000
_cell_angle_gamma 120.000000
_cell_volume 4799.450095
_symmetry_space_group_name_H-M "P -3 1 M "
_symmetry_group_IT_number 162
_symmetry_cell_setting 'hexagonal'
loop_
_space_group_symop_operation_xyz
x,y,z
-y,x-y,z
-x+y,-x,z
-y,-x,-z
-x+y,y,-z
x,x-y,-z
-x,-y,-z
y,-x+y,-z
x-y,x,-z
y,x,z
x-y,-y,z
-x,-x+y,z
loop_
_atom_site_type_symbol
_atom_site_label
_atom_site_fract_x
_atom_site_fract_y
_atom_site_fract_z
Si Si1 0.493174 0.391256 0.200910
Si Si2 0.333828 0.435174 0.774554
Si Si3 0.526428 0.896333 0.033795
Si Si4 0.902019 0.635290 0.485442
Si Si5 0.834344 0.502128 0.616889
Si Si6 0.832264 0.329663 0.641327
Si Si7 0.796207 0.898104 0.000000
Si Si8 0.751296 0.649438 0.083336
O O1 0.427538 0.427538 0.216101
O O2 0.592318 0.470055 0.197713
O O3 0.475767 0.341625 0.120620
O O4 0.480590 0.324410 0.268404
O O5 0.370168 0.370168 0.766648
O O6 0.298582 0.438707 0.692109
O O7 0.255181 0.397191 0.836366
O O8 0.572508 0.000000 0.033577
O O9 0.428950 0.857899 0.000000
O O10 0.580027 0.860583 0.986106
O O11 0.835897 0.671793 0.500000
O O12 0.883909 0.560094 0.545244
O O13 0.891051 0.593492 0.402310
O O14 0.000000 0.715546 0.493893
O O15 0.861921 0.428943 0.620409
O O16 0.730011 0.462452 0.612892
O O17 0.731816 0.883284 0.929343
O O18 0.856667 0.856667 0.979397
O O19 0.681651 0.681651 0.085264
#
# Coordination Sequence:
#
# PCOD8323047 Si02
#       8
#    12  12  12  12  12  12   6  12
#     4   9  16  26  44  70  99 132 166 208 265 320
#     4   9  16  28  46  69  95 126 169 215 262 316
#     4   9  14  24  44  70 100 127 158 207 270 330
#     4  10  21  37  57  81 107 135 170 215 268 319
#     4  10  20  32  49  72 105 146 184 218 257 302
#     4  10  20  32  47  71 104 143 183 220 255 302
#     4  10  21  36  52  70  96 134 184 244 305 350
#     4   9  17  29  47  70  94 124 167 220 271 328
#
# _framework density 18.752148999999999
#
# number of rings (size 3 to 8) (size 9 to 14) (size 15 to 20)
#    0.000    2.533    1.333    1.533    0.000    3.200 
#    0.000    1.333    0.000    3.333    0.000    0.000 
#    0.667    0.000    0.000    0.000    0.000    0.000 
#
# Total GULP energy -1115554.708332 kJ/mol
# GULP energy per Si atom -12395.052315 kJ/mol
# Density = 1.870947 g / cm^3
# Si number density = 18.752149 Si / 1000 Ang^3
#
#
#
# Elastic Constant Matrix: (Units=GPa)
#
#
# Indices 1 2 3 4 5 6 
#
# 1 72.8676 34.6334 34.0111 0.0000 0.1805 0.0000
# 2 34.6334 72.8676 34.0111 0.0000 -0.1805 0.0000
# 3 34.0111 34.0111 110.3060 0.0000 0.0000 0.0000
# 4 0.0000 0.0000 0.0000 18.6821 0.0000 -0.1805
# 5 0.1805 -0.1805 0.0000 0.0000 18.6821 0.0000
# 6 0.0000 0.0000 0.0000 -0.1805 0.0000 19.1171
#
#
#
# Elastic Compliance Matrix: (Units=1/GPa)
#
#
# Indices 1 2 3 4 5 6 
#
# 1 0.018857 -0.007300 -0.003563 0.000000 -0.000253 0.000000
# 2 -0.007300 0.018857 -0.003563 0.000000 0.000253 0.000000
# 3 -0.003563 -0.003563 0.011263 0.000000 0.000000 0.000000
# 4 0.000000 0.000000 0.000000 0.053532 0.000000 0.000506
# 5 -0.000253 0.000253 0.000000 0.000000 0.053532 0.000000
# 6 0.000000 0.000000 0.000000 0.000506 0.000000 0.052314
#
#
# Mechanical properties :
#
#
# Convention : Reuss Voigt Hill
#
# Bulk Modulus (GPa) = 49.69316 51.26137 50.47726
# Shear Modulus (GPa) = 20.49881 21.52198 21.01040
#
# Velocity S-wave (km/s) = 3.30986 3.39146 3.35091
# Velocity P-wave (km/s) = 6.41595 6.53694 6.47673
#
# Compressibility (1/GPa) = 0.02012350
#
# Stress axis : x y z
#
# Youngs Moduli (GPa) = 53.03077 53.03077 88.78523
#
# Poissons Ratio (x) = 0.38712 0.31638
# Poissons Ratio (y) = 0.38712 0.31638
# Poissons Ratio (z) = 0.18897 0.18897
#
# Static dielectric constant tensor:
#      x y z
#    x 3.206590 0.000000 0.000000 
#    y 0.000000 3.206590 0.000000 
#    z 0.000000 0.000000 3.712390 
# 
# 
# High freq. dielectric constant tensor:
#      x y z
#    x 1.703610 0.000000 0.000000 
#    y 0.000000 1.703610 0.000000 
#    z 0.000000 0.000000 1.739140 
# 
# From -- ./inp_files/3670.got.cif
#   From: 2010.03.12/outbox.cif.g09.slc.cpg/sg162_2_cif.got.tgz:3670.got - 2010.04.02 06:27:41.
