data_PCOD8323901
_publ_section_title
;
Structure prediction by ZEFSAII (Michael W. Deem and Ramdas Pophale) SiO2 
 PCOD8323901
Probable space group: P -3 C 1
;
_chemical_formula_sum "Si O2"
_cell_formula_units_Z 60
_cell_length_a 14.615942
_cell_length_b 14.615942
_cell_length_c 18.597242
_cell_angle_alpha 90.000000
_cell_angle_beta 90.000000
_cell_angle_gamma 120.000000
_cell_volume 3440.588996
_symmetry_space_group_name_H-M "P -3 C 1"
_symmetry_group_IT_number 165
_symmetry_cell_setting 'hexagonal'
loop_
_space_group_symop_operation_xyz
x,y,z
-y,x-y,z
-x+y,-x,z
x-y,-y,1/2-z
-x,-x+y,1/2-z
y,x,1/2-z
-x,-y,-z
y,-x+y,-z
x-y,x,-z
-x+y,y,1/2+z
x,x-y,1/2+z
-y,-x,1/2+z
loop_
_atom_site_type_symbol
_atom_site_label
_atom_site_fract_x
_atom_site_fract_y
_atom_site_fract_z
Si Si1 0.226415 0.684384 0.731510
Si Si2 0.238549 0.064334 0.493634
Si Si3 0.094474 0.415971 0.100175
Si Si4 0.280581 0.457784 0.452113
Si Si5 0.869820 0.487181 0.617508
O O1 0.222237 0.571097 0.724594
O O2 0.163417 0.708323 0.671670
O O3 0.175834 0.681427 0.808593
O O4 0.193512 0.143674 0.485812
O O5 0.294428 0.063174 0.417751
O O6 0.329672 0.104239 0.555687
O O7 0.993285 0.427889 0.112672
O O8 0.159551 0.490218 0.032411
O O9 0.191026 0.490586 0.446226
O O10 0.369492 0.518124 0.391576
#
# Coordination Sequence:
#
# PCOD8323901 Si02
#       5
#    12  12  12  12  12
#     4  10  22  36  53  82 120 158 193 221 295 356
#     4  10  21  39  60  89 115 148 199 253 299 337
#     4  10  22  33  58  84 113 149 195 247 275 347
#     4  10  21  34  59  86 116 151 198 229 296 350
#     4  12  19  39  55  84 121 159 184 238 297 353
#
# _framework density 17.438874999999999
#
# number of rings (size 3 to 8) (size 9 to 14) (size 15 to 20)
#    1.600    0.000    4.000    1.800    2.800    1.600 
#    0.000    0.000    0.000    0.000    0.000    0.000 
#    0.000    0.000    0.000    0.000    0.000    0.000 
#
# Total GULP energy -743433.506487 kJ/mol
# GULP energy per Si atom -12390.558441 kJ/mol
# Density = 1.739918 g / cm^3
# Si number density = 17.438875 Si / 1000 Ang^3
#
#
#
# Elastic Constant Matrix: (Units=GPa)
#
#
# Indices 1 2 3 4 5 6 
#
# 1 85.1857 28.9421 18.3539 4.4317 0.0000 0.0000
# 2 28.9421 85.1857 18.3539 -4.4317 0.0000 0.0000
# 3 18.3539 18.3539 74.3705 0.0000 0.0000 0.0000
# 4 4.4317 -4.4317 0.0000 14.3339 0.0000 0.0000
# 5 0.0000 0.0000 0.0000 0.0000 14.3339 4.4317
# 6 0.0000 0.0000 0.0000 0.0000 4.4317 28.1218
#
#
#
# Elastic Compliance Matrix: (Units=1/GPa)
#
#
# Indices 1 2 3 4 5 6 
#
# 1 0.014104 -0.004586 -0.002349 -0.005779 0.000000 0.000000
# 2 -0.004586 0.014104 -0.002349 0.005779 0.000000 0.000000
# 3 -0.002349 -0.002349 0.014606 0.000000 0.000000 0.000000
# 4 -0.005779 0.005779 0.000000 0.073338 0.000000 0.000000
# 5 0.000000 0.000000 0.000000 0.000000 0.073338 -0.011557
# 6 0.000000 0.000000 0.000000 0.000000 -0.011557 0.037381
#
#
# Mechanical properties :
#
#
# Convention : Reuss Voigt Hill
#
# Bulk Modulus (GPa) = 41.24505 41.78240 41.51372
# Shear Modulus (GPa) = 19.72227 23.29738 21.50983
#
# Velocity S-wave (km/s) = 3.36659 3.65902 3.51585
# Velocity P-wave (km/s) = 6.23012 6.47013 6.35126
#
# Compressibility (1/GPa) = 0.02424533
#
# Stress axis : x y z
#
# Youngs Moduli (GPa) = 70.90180 70.90180 68.46721
#
# Poissons Ratio (x) = 0.32519 0.16082
# Poissons Ratio (y) = 0.32519 0.16082
# Poissons Ratio (z) = 0.16654 0.16654
#
# Static dielectric constant tensor:
#      x y z
#    x 3.140080 0.000000 0.000000 
#    y 0.000000 3.140080 0.000000 
#    z 0.000000 0.000000 3.004520 
# 
# 
# High freq. dielectric constant tensor:
#      x y z
#    x 1.669680 0.000000 0.000000 
#    y 0.000000 1.669680 0.000000 
#    z 0.000000 0.000000 1.653560 
# 
# From -- ./inp_files/2621.got.cif
#   From: 2010.03.12/outbox.cif.g09.slc.cpg/sg165_2_cif.got.tgz:2621.got - 2010.04.02 06:36:38.
