data_PCOD8323525
_publ_section_title
;
Structure prediction by ZEFSAII (Michael W. Deem and Ramdas Pophale) SiO2 
 PCOD8323525
Probable space group: P -3 M 1
;
_chemical_formula_sum "Si O2"
_cell_formula_units_Z 84
_cell_length_a 17.405399
_cell_length_b 17.405399
_cell_length_c 20.570848
_cell_angle_alpha 90.000000
_cell_angle_beta 90.000000
_cell_angle_gamma 120.000000
_cell_volume 5396.979815
_symmetry_space_group_name_H-M "P -3 M 1"
_symmetry_group_IT_number 164
_symmetry_cell_setting 'hexagonal'
loop_
_space_group_symop_operation_xyz
x,y,z
-y,x-y,z
-x+y,-x,z
x-y,-y,-z
-x,-x+y,-z
y,x,-z
-x,-y,-z
y,-x+y,-z
x-y,x,-z
-x+y,y,z
x,x-y,z
-y,-x,z
loop_
_atom_site_type_symbol
_atom_site_label
_atom_site_fract_x
_atom_site_fract_y
_atom_site_fract_z
Si Si1 0.901498 0.270141 0.649363
Si Si2 0.762902 0.699556 0.188662
Si Si3 0.665335 0.155984 0.387684
Si Si4 0.176164 0.177452 0.690492
Si Si5 0.599596 0.575941 0.268949
Si Si6 0.365744 0.096653 0.504593
Si Si7 0.177642 0.000045 0.925789
O O1 0.809165 0.190835 0.676914
O O2 0.973796 0.236426 0.645702
O O3 0.888914 0.297030 0.576741
O O4 0.930681 0.351826 0.698596
O O5 0.831025 0.662049 0.187025
O O6 0.798017 0.782295 0.237519
O O7 0.666142 0.618489 0.208142
O O8 0.757375 0.737932 0.118506
O O9 0.591967 0.183933 0.398562
O O10 0.758069 0.241931 0.374921
O O11 0.646285 0.096455 0.324582
O O12 0.666671 0.104812 0.452414
O O13 0.149760 0.074880 0.692286
O O14 0.092249 0.184497 0.663702
O O15 0.508437 0.491564 0.244367
O O16 0.333504 0.166752 0.490488
O O17 0.279606 0.000000 0.500000
O O18 0.075584 0.924416 0.914626
O O19 0.187145 0.093573 0.906394
O O20 0.206393 0.000000 0.000000
#
# Coordination Sequence:
#
# PCOD8323525 Si02
#       7
#    12  12  12  12  12  12  12
#     4   9  18  31  43  61  86 111 142 183 227 268
#     4   9  17  28  42  63  93 121 147 181 218 260
#     4  10  20  32  48  68  89 110 135 175 227 280
#     4   9  16  25  40  61  87 118 150 182 214 250
#     4  10  19  31  49  67  84 111 146 184 225 273
#     4  10  19  31  46  64  85 113 147 184 225 273
#     4   9  16  26  43  70 104 139 167 186 205 235
#
# _framework density 15.564261
#
# number of rings (size 3 to 8) (size 9 to 14) (size 15 to 20)
#    0.000    2.571    1.429    1.286    0.000    3.143 
#    0.000    1.429    0.000    1.143    0.000    0.000 
#    0.000    0.000    0.000    0.286    0.000    0.000 
#
# Total GULP energy -1041344.978664 kJ/mol
# GULP energy per Si atom -12396.964032 kJ/mol
# Density = 1.552884 g / cm^3
# Si number density = 15.564261 Si / 1000 Ang^3
#
#
#
# Elastic Constant Matrix: (Units=GPa)
#
#
# Indices 1 2 3 4 5 6 
#
# 1 83.7604 40.7236 37.1767 2.0789 0.0000 0.0000
# 2 40.7236 83.7604 37.1767 -2.0789 0.0000 0.0000
# 3 37.1767 37.1767 78.6175 0.0000 0.0000 0.0000
# 4 2.0789 -2.0789 0.0000 19.2162 0.0000 0.0000
# 5 0.0000 0.0000 0.0000 0.0000 19.2162 2.0789
# 6 0.0000 0.0000 0.0000 0.0000 2.0789 21.5184
#
#
#
# Elastic Compliance Matrix: (Units=1/GPa)
#
#
# Indices 1 2 3 4 5 6 
#
# 1 0.017338 -0.006143 -0.005294 -0.002540 0.000000 0.000000
# 2 -0.006143 0.017338 -0.005294 0.002540 0.000000 0.000000
# 3 -0.005294 -0.005294 0.017727 0.000000 0.000000 0.000000
# 4 -0.002540 0.002540 0.000000 0.052589 0.000000 0.000000
# 5 0.000000 0.000000 0.000000 0.000000 0.052589 -0.005081
# 6 0.000000 0.000000 0.000000 0.000000 -0.005081 0.046963
#
#
# Mechanical properties :
#
#
# Convention : Reuss Voigt Hill
#
# Bulk Modulus (GPa) = 52.79522 52.92138 52.85830
# Shear Modulus (GPa) = 20.46495 20.72756 20.59625
#
# Velocity S-wave (km/s) = 3.63004 3.65326 3.64167
# Velocity P-wave (km/s) = 7.18081 7.20214 7.19148
#
# Compressibility (1/GPa) = 0.01894111
#
# Stress axis : x y z
#
# Youngs Moduli (GPa) = 57.67574 57.67574 56.41208
#
# Poissons Ratio (x) = 0.35431 0.29865
# Poissons Ratio (y) = 0.35431 0.29865
# Poissons Ratio (z) = 0.30534 0.30534
#
# Static dielectric constant tensor:
#      x y z
#    x 2.925910 0.000000 0.000000 
#    y 0.000000 2.925910 0.000000 
#    z 0.000000 0.000000 2.922630 
# 
# 
# High freq. dielectric constant tensor:
#      x y z
#    x 1.585100 0.000000 0.000000 
#    y 0.000000 1.585100 0.000000 
#    z 0.000000 0.000000 1.579510 
# 
# From -- ./inp_files/4628.got.cif
#   From: 2010.03.12/outbox.cif.g09.slc.cpg/sg164_3_cif.got.tgz:4628.got - 2010.04.02 06:32:59.
