data_PCOD8323178
_publ_section_title
;
Structure prediction by ZEFSAII (Michael W. Deem and Ramdas Pophale) SiO2 
 PCOD8323178
Probable space group: P -3 1 M 
;
_chemical_formula_sum "Si O2"
_cell_formula_units_Z 36
_cell_length_a 18.143501
_cell_length_b 18.143501
_cell_length_c 7.576017
_cell_angle_alpha 90.000000
_cell_angle_beta 90.000000
_cell_angle_gamma 120.000000
_cell_volume 2159.801101
_symmetry_space_group_name_H-M "P -3 1 M "
_symmetry_group_IT_number 162
_symmetry_cell_setting 'hexagonal'
loop_
_space_group_symop_operation_xyz
x,y,z
-y,x-y,z
-x+y,-x,z
-y,-x,-z
-x+y,y,-z
x,x-y,-z
-x,-y,-z
y,-x+y,-z
x-y,x,-z
y,x,z
x-y,-y,z
-x,-x+y,z
loop_
_atom_site_type_symbol
_atom_site_label
_atom_site_fract_x
_atom_site_fract_y
_atom_site_fract_z
Si Si1 0.531211 0.899878 0.000000
Si Si2 0.903865 0.643584 0.299238
Si Si3 0.739718 0.096135 0.700762
O O1 0.561222 0.871924 0.175181
O O2 0.571560 0.000000 0.000001
O O3 0.428407 0.856813 0.000000
O O4 0.561222 0.871924 0.824818
O O5 0.899742 0.612483 0.500000
O O6 0.840973 0.681946 0.272303
O O7 0.000000 0.717078 0.250096
O O8 0.717078 0.000000 0.749904
#
# Coordination Sequence:
#
# PCOD8323178 Si02
#       3
#    12  12  12
#     4   9  17  28  43  64  86 108 140 183 227 268
#     4   9  17  29  46  68  93 121 153 188 224 262
#     4   9  17  29  46  68  93 121 153 188 224 262
#
# _framework density 16.668201
#
# number of rings (size 3 to 8) (size 9 to 14) (size 15 to 20)
#    0.000    3.000    0.000    1.000    0.000    1.333 
#    0.000    6.667    0.000    6.000    0.000    4.667 
#    0.000    8.000    0.000    0.667    0.000    0.000 
#
# Total GULP energy -446121.544602 kJ/mol
# GULP energy per Si atom -12392.265128 kJ/mol
# Density = 1.663026 g / cm^3
# Si number density = 16.668201 Si / 1000 Ang^3
#
#
#
# Elastic Constant Matrix: (Units=GPa)
#
#
# Indices 1 2 3 4 5 6 
#
# 1 94.1154 55.9747 49.5828 0.0000 0.0000 0.0000
# 2 55.9747 94.1154 49.5828 0.0000 0.0000 0.0000
# 3 49.5828 49.5828 106.7806 0.0000 0.0000 0.0000
# 4 0.0000 0.0000 0.0000 21.3761 0.0000 0.0000
# 5 0.0000 0.0000 0.0000 0.0000 21.3761 0.0000
# 6 0.0000 0.0000 0.0000 0.0000 0.0000 19.0704
#
#
#
# Elastic Compliance Matrix: (Units=1/GPa)
#
#
# Indices 1 2 3 4 5 6 
#
# 1 0.017915 -0.008304 -0.004463 0.000000 0.000000 0.000000
# 2 -0.008304 0.017915 -0.004463 0.000000 0.000000 0.000000
# 3 -0.004463 -0.004463 0.013510 0.000000 0.000000 0.000000
# 4 0.000000 0.000000 0.000000 0.046781 0.000000 0.000000
# 5 0.000000 0.000000 0.000000 0.000000 0.046781 0.000000
# 6 0.000000 0.000000 0.000000 0.000000 0.000000 0.052437
#
#
# Mechanical properties :
#
#
# Convention : Reuss Voigt Hill
#
# Bulk Modulus (GPa) = 67.20176 67.25465 67.22821
# Shear Modulus (GPa) = 21.29845 21.68927 21.49386
#
# Velocity S-wave (km/s) = 3.57850 3.61118 3.59487
# Velocity P-wave (km/s) = 7.58149 7.60422 7.59286
#
# Compressibility (1/GPa) = 0.01488056
#
# Stress axis : x y z
#
# Youngs Moduli (GPa) = 55.81904 55.81904 74.02093
#
# Poissons Ratio (x) = 0.46350 0.33035
# Poissons Ratio (y) = 0.46350 0.33035
# Poissons Ratio (z) = 0.24912 0.24912
#
# Static dielectric constant tensor:
#      x y z
#    x 3.136740 0.000000 0.000000 
#    y 0.000000 3.136740 0.000000 
#    z 0.000000 0.000000 3.367750 
# 
# 
# High freq. dielectric constant tensor:
#      x y z
#    x 1.616790 0.000000 0.000000 
#    y 0.000000 1.616790 0.000000 
#    z 0.000000 0.000000 1.662030 
# 
# From -- ./inp_files/1040.got.cif
#   From: 2010.03.12/outbox.cif.g09.slc.cpg/sg162_1_cif.got.tgz:1040.got - 2010.04.02 06:27:41.
