data_PCOD8323986
_publ_section_title
;
Structure prediction by ZEFSAII (Michael W. Deem and Ramdas Pophale) SiO2 
 PCOD8323986
Probable space group: R -3 M
;
_chemical_formula_sum "Si O2"
_cell_formula_units_Z 162
_cell_length_a 21.281771
_cell_length_b 21.281771
_cell_length_c 23.843256
_cell_angle_alpha 90.000000
_cell_angle_beta 90.000000
_cell_angle_gamma 120.000000
_cell_volume 9352.155619
_symmetry_space_group_name_H-M "R -3 M"
_symmetry_group_IT_number 166
_symmetry_cell_setting 'hexagonal'
loop_
_space_group_symop_operation_xyz
x,y,z
-y,x-y,z
-x+y,-x,z
x-y,-y,-z
-x,-x+y,-z
y,x,-z
-x,-y,-z
y,-x+y,-z
x-y,x,-z
-x+y,y,z
x,x-y,z
-y,-x,z
2/3+x,1/3+y,1/3+z
2/3-y,1/3+x-y,1/3+z
2/3-x+y,1/3-x,1/3+z
2/3+x-y,1/3-y,1/3-z
2/3-x,1/3-x+y,1/3-z
2/3+y,1/3+x,1/3-z
2/3-x,1/3-y,1/3-z
2/3+y,1/3-x+y,1/3-z
2/3+x-y,1/3+x,1/3-z
2/3-x+y,1/3+y,1/3+z
2/3+x,1/3+x-y,1/3+z
2/3-y,1/3-x,1/3+z
1/3+x,2/3+y,2/3+z
1/3-y,2/3+x-y,2/3+z
1/3-x+y,2/3-x,2/3+z
1/3+x-y,2/3-y,2/3-z
1/3-x,2/3-x+y,2/3-z
1/3+y,2/3+x,2/3-z
1/3-x,2/3-y,2/3-z
1/3+y,2/3-x+y,2/3-z
1/3+x-y,2/3+x,2/3-z
1/3-x+y,2/3+y,2/3+z
1/3+x,2/3+x-y,2/3+z
1/3-y,2/3-x,2/3+z
loop_
_atom_site_type_symbol
_atom_site_label
_atom_site_fract_x
_atom_site_fract_y
_atom_site_fract_z
Si Si1 0.593079 0.045648 0.049171
Si Si2 0.369049 0.887058 0.780813
Si Si3 0.967369 0.413755 0.833545
Si Si4 0.517811 0.333334 0.333334
Si Si5 0.814830 0.335336 0.560342
O O1 0.530811 0.061622 0.027275
O O2 0.662336 0.124519 0.063554
O O3 0.566869 0.998374 0.104521
O O4 0.606298 0.000000 0.000000
O O5 0.444502 0.889004 0.781505
O O6 0.328989 0.858091 0.721338
O O7 0.320035 0.833701 0.830602
O O8 0.387765 0.969822 0.791949
O O9 0.942000 0.471000 0.815276
O O10 0.898181 0.333334 0.833334
O O11 0.527654 0.263827 0.335677
O O12 0.809139 0.404570 0.578448
O O13 0.735817 0.264184 0.563147
#
# Coordination Sequence:
#
# PCOD8323986 Si02
#       5
#    36  36  36  18  36
#     4   8  15  29  47  64  84 117 153 184 225 278
#     4   8  16  28  42  63  93 131 164 192 226 268
#     4   9  17  32  52  71  90 116 152 191 234 284
#     4  10  17  26  42  66  99 136 172 202 232 268
#     4   9  15  24  41  65  93 121 154 195 238 277
#
# _framework density 17.322209999999998
#
# number of rings (size 3 to 8) (size 9 to 14) (size 15 to 20)
#    0.000    3.333    0.000    3.667    0.000    0.000 
#    2.000    3.333    0.000   16.889    0.000    0.000 
#    0.000    0.000    0.000    0.000    0.000    0.000 
#
# Total GULP energy -669011.822172 kJ/mol
# GULP energy per Si atom -12389.107818 kJ/mol
# Density = 1.728278 g / cm^3
# Si number density = 17.322210 Si / 1000 Ang^3
#
#
#
# Elastic Constant Matrix: (Units=GPa)
#
#
# Indices 1 2 3 4 5 6 
#
# 1 84.5107 43.4714 36.9684 -5.4078 0.0003 0.0000
# 2 43.4714 84.5107 36.9684 5.4078 -0.0003 0.0000
# 3 36.9684 36.9684 110.1169 0.0000 0.0000 0.0000
# 4 -5.4078 5.4078 0.0000 21.2418 0.0000 -0.0003
# 5 0.0003 -0.0003 0.0000 0.0000 21.2418 -5.4078
# 6 0.0000 0.0000 0.0000 -0.0003 -5.4078 20.5197
#
#
#
# Elastic Compliance Matrix: (Units=1/GPa)
#
#
# Indices 1 2 3 4 5 6 
#
# 1 0.017906 -0.008213 -0.003254 0.006649 0.000000 0.000000
# 2 -0.008213 0.017906 -0.003254 -0.006649 0.000000 0.000000
# 3 -0.003254 -0.003254 0.011266 0.000000 0.000000 0.000000
# 4 0.006649 -0.006649 0.000000 0.050463 0.000000 0.000001
# 5 0.000000 0.000000 0.000000 0.000000 0.050463 0.013299
# 6 0.000000 0.000000 0.000000 0.000001 0.013299 0.052239
#
#
# Mechanical properties :
#
#
# Convention : Reuss Voigt Hill
#
# Bulk Modulus (GPa) = 56.70128 57.10607 56.90368
# Shear Modulus (GPa) = 21.22558 23.38269 22.30413
#
# Velocity S-wave (km/s) = 3.50428 3.67804 3.59221
# Velocity P-wave (km/s) = 7.01268 7.14674 7.08003
#
# Compressibility (1/GPa) = 0.01763628
#
# Stress axis : x y z
#
# Youngs Moduli (GPa) = 55.84571 55.84571 88.75988
#
# Poissons Ratio (x) = 0.45865 0.28886
# Poissons Ratio (y) = 0.45865 0.28886
# Poissons Ratio (z) = 0.18174 0.18174
#
# Static dielectric constant tensor:
#      x y z
#    x 3.134710 0.000000 0.000000 
#    y 0.000000 3.134710 0.000000 
#    z 0.000000 0.000000 3.471790 
# 
# 
# High freq. dielectric constant tensor:
#      x y z
#    x 1.644460 0.000000 0.000000 
#    y 0.000000 1.644460 0.000000 
#    z 0.000000 0.000000 1.665080 
# 
# From -- ./inp_files/8142.got.cif
#   From: 2010.03.12/outbox.cif.g09.slc.cpg/sg166_5_cif.got.tgz:8142.got - 2010.04.02 06:38:31.
