data_PCOD8323605
_publ_section_title
;
Structure prediction by ZEFSAII (Michael W. Deem and Ramdas Pophale) SiO2 
 PCOD8323605
Probable space group: P -3 M 1
;
_chemical_formula_sum "Si O2"
_cell_formula_units_Z 60
_cell_length_a 12.687198
_cell_length_b 12.687198
_cell_length_c 26.057705
_cell_angle_alpha 90.000000
_cell_angle_beta 90.000000
_cell_angle_gamma 120.000000
_cell_volume 3632.438165
_symmetry_space_group_name_H-M "P -3 M 1"
_symmetry_group_IT_number 164
_symmetry_cell_setting 'hexagonal'
loop_
_space_group_symop_operation_xyz
x,y,z
-y,x-y,z
-x+y,-x,z
x-y,-y,-z
-x,-x+y,-z
y,x,-z
-x,-y,-z
y,-x+y,-z
x-y,x,-z
-x+y,y,z
x,x-y,z
-y,-x,z
loop_
_atom_site_type_symbol
_atom_site_label
_atom_site_fract_x
_atom_site_fract_y
_atom_site_fract_z
Si Si1 0.912137 0.579526 0.094790
Si Si2 0.669455 0.581641 0.591321
Si Si3 0.246015 0.246015 0.000000
Si Si4 0.668607 0.096335 0.702506
Si Si5 0.088019 0.419401 0.186319
Si Si6 0.000000 0.751775 0.500000
O O1 0.774027 0.548053 0.099828
O O2 0.913114 0.456557 0.083340
O O3 0.981854 0.671329 0.048962
O O4 0.980594 0.642366 0.147345
O O5 0.773645 0.547290 0.579983
O O6 0.540134 0.459867 0.586825
O O7 0.690459 0.644512 0.648487
O O8 0.676946 0.679010 0.550277
O O9 0.114945 0.229889 0.010550
O O10 0.532190 0.064380 0.699896
O O11 0.758207 0.241794 0.704269
O O12 0.686001 0.043197 0.756699
O O13 0.209936 0.419871 0.168948
O O14 0.117084 0.558542 0.187178
O O15 0.883771 0.767541 0.498546
#
# Coordination Sequence:
#
# PCOD8323605 Si02
#       6
#    12  12   6  12  12   6
#     4  10  20  33  48  66  90 121 154 184 213 249
#     4   9  16  27  45  68  90 110 135 173 222 269
#     4  10  20  34  52  72  92 114 142 180 226 270
#     4   8  13  22  39  64  91 114 136 167 212 263
#     4   9  16  27  45  69  94 117 142 175 216 260
#     4  10  20  32  44  58  80 114 152 184 212 248
#
# _framework density 16.517831000000001
#
# number of rings (size 3 to 8) (size 9 to 14) (size 15 to 20)
#    0.000    2.800    0.000    2.200    0.000    3.200 
#    0.000    1.000    0.000    7.200    0.000    0.000 
#    0.000    0.000    0.000    0.000    0.000    0.000 
#
# Total GULP energy -743333.939403 kJ/mol
# GULP energy per Si atom -12388.898990 kJ/mol
# Density = 1.648024 g / cm^3
# Si number density = 16.517831 Si / 1000 Ang^3
#
#
#
# Elastic Constant Matrix: (Units=GPa)
#
#
# Indices 1 2 3 4 5 6 
#
# 1 69.9249 40.6502 57.6630 0.1299 0.0000 0.0000
# 2 40.6502 69.9249 57.6630 -0.1299 0.0000 0.0000
# 3 57.6630 57.6630 149.9772 0.0000 0.0000 0.0000
# 4 0.1299 -0.1299 0.0000 23.9894 0.0000 0.0000
# 5 0.0000 0.0000 0.0000 0.0000 23.9894 0.1299
# 6 0.0000 0.0000 0.0000 0.0000 0.1299 14.6373
#
#
#
# Elastic Compliance Matrix: (Units=1/GPa)
#
#
# Indices 1 2 3 4 5 6 
#
# 1 0.024629 -0.009532 -0.005805 -0.000185 0.000000 0.000000
# 2 -0.009532 0.024629 -0.005805 0.000185 0.000000 0.000000
# 3 -0.005805 -0.005805 0.011131 0.000000 0.000000 0.000000
# 4 -0.000185 0.000185 0.000000 0.041687 0.000000 0.000000
# 5 0.000000 0.000000 0.000000 0.000000 0.041687 -0.000370
# 6 0.000000 0.000000 0.000000 0.000000 -0.000370 0.068322
#
#
# Mechanical properties :
#
#
# Convention : Reuss Voigt Hill
#
# Bulk Modulus (GPa) = 55.22479 66.86435 61.04457
# Shear Modulus (GPa) = 19.20092 21.44660 20.32376
#
# Velocity S-wave (km/s) = 3.41315 3.60723 3.51153
# Velocity P-wave (km/s) = 7.00277 7.61035 7.31287
#
# Compressibility (1/GPa) = 0.01810781
#
# Stress axis : x y z
#
# Youngs Moduli (GPa) = 40.60197 40.60197 89.83669
#
# Poissons Ratio (x) = 0.38700 0.52148
# Poissons Ratio (y) = 0.38700 0.52148
# Poissons Ratio (z) = 0.23569 0.23569
#
# Static dielectric constant tensor:
#      x y z
#    x 2.884840 0.000000 0.000000 
#    y 0.000000 2.884840 0.000000 
#    z 0.000000 0.000000 3.682870 
# 
# 
# High freq. dielectric constant tensor:
#      x y z
#    x 1.613100 0.000000 0.000000 
#    y 0.000000 1.613100 0.000000 
#    z 0.000000 0.000000 1.662630 
# 
# From -- ./inp_files/5230.got.cif
#   From: 2010.03.12/outbox.cif.g09.slc.cpg/sg164_3_cif.got.tgz:5230.got - 2010.04.02 06:32:59.
