data_PCOD8323193
_publ_section_title
;
Structure prediction by ZEFSAII (Michael W. Deem and Ramdas Pophale) SiO2 
 PCOD8323193
Probable space group: P -3 1 C
;
_chemical_formula_sum "Si O2"
_cell_formula_units_Z 96
_cell_length_a 17.727577
_cell_length_b 17.727577
_cell_length_c 22.637688
_cell_angle_alpha 90.000000
_cell_angle_beta 90.000000
_cell_angle_gamma 120.000000
_cell_volume 6161.145464
_symmetry_space_group_name_H-M "P -3 1 C"
_symmetry_group_IT_number 163
_symmetry_cell_setting 'hexagonal'
loop_
_space_group_symop_operation_xyz
x,y,z
-y,x-y,z
-x+y,-x,z
-y,-x,1/2-z
-x+y,y,1/2-z
x,x-y,1/2-z
-x,-y,-z
y,-x+y,-z
x-y,x,-z
y,x,1/2+z
x-y,-y,1/2+z
-x,-x+y,1/2+z
loop_
_atom_site_type_symbol
_atom_site_label
_atom_site_fract_x
_atom_site_fract_y
_atom_site_fract_z
Si Si1 0.160469 0.491205 0.622446
Si Si2 0.168814 0.165680 0.875895
Si Si3 0.571143 0.875031 0.749735
Si Si4 0.502698 0.659790 0.876074
Si Si5 0.758040 0.672996 0.039609
Si Si6 0.999753 0.165567 0.867804
Si Si7 0.236618 0.208016 0.252431
Si Si8 0.929182 0.672683 0.049877
O O1 0.120796 0.471872 0.688626
O O2 0.260079 0.514899 0.622765
O O3 0.155994 0.574390 0.599045
O O4 0.104953 0.410716 0.578515
O O5 0.209451 0.241606 0.922251
O O6 0.181855 0.087479 0.900739
O O7 0.217386 0.196938 0.813435
O O8 0.066497 0.129251 0.866815
O O9 0.577331 0.788666 0.750000
O O10 0.519219 0.876883 0.691785
O O11 0.667356 0.958861 0.746089
O O12 0.581351 0.677417 0.919767
O O13 0.842944 0.666438 0.017444
O O14 0.701777 0.685723 0.988669
O O15 0.972339 0.176047 0.801658
O O16 0.045892 0.258786 0.897960
O O17 0.245306 0.122653 0.250000
#
# Coordination Sequence:
#
# PCOD8323193 Si02
#       8
#    12  12  12  12  12  12  12  12
#     4  10  19  31  49  70  92 115 142 178 220 270
#     4  10  18  28  43  63  88 118 154 191 223 256
#     4   9  15  28  46  67  92 116 141 170 213 269
#     4  10  19  31  49  70  92 115 142 178 220 270
#     4  10  20  33  47  63  87 120 155 188 222 260
#     4  10  18  28  43  63  88 118 154 191 223 256
#     4   9  15  26  42  61  86 116 147 178 219 265
#     4  10  20  33  47  63  87 120 155 188 222 260
#
# _framework density 15.581519
#
# number of rings (size 3 to 8) (size 9 to 14) (size 15 to 20)
#    0.000    2.250    2.500    2.000    0.000    0.500 
#    0.000    2.500    0.000    4.000    0.000    0.000 
#    0.000    0.000    0.000    0.000    0.000    4.250 
#
# Total GULP energy -1189643.585440 kJ/mol
# GULP energy per Si atom -12392.120682 kJ/mol
# Density = 1.554605 g / cm^3
# Si number density = 15.581519 Si / 1000 Ang^3
#
#
#
# Elastic Constant Matrix: (Units=GPa)
#
#
# Indices 1 2 3 4 5 6 
#
# 1 58.2447 16.8761 2.2918 0.0001 1.3019 0.0000
# 2 16.8761 58.2447 2.2918 -0.0001 -1.3019 0.0000
# 3 2.2918 2.2918 39.5571 0.0000 0.0000 0.0000
# 4 0.0001 -0.0001 0.0000 17.9375 0.0000 -1.3019
# 5 1.3019 -1.3019 0.0000 0.0000 17.9375 0.0001
# 6 0.0000 0.0000 0.0000 -1.3019 0.0001 20.6843
#
#
#
# Elastic Compliance Matrix: (Units=1/GPa)
#
#
# Indices 1 2 3 4 5 6 
#
# 1 0.018822 -0.005462 -0.000774 0.000000 -0.001762 0.000000
# 2 -0.005462 0.018822 -0.000774 0.000000 0.001762 0.000000
# 3 -0.000774 -0.000774 0.025370 0.000000 0.000000 0.000000
# 4 0.000000 0.000000 0.000000 0.056005 0.000000 0.003525
# 5 -0.001762 0.001762 0.000000 0.000000 0.056005 0.000000
# 6 0.000000 0.000000 0.000000 0.003525 0.000000 0.048568
#
#
# Mechanical properties :
#
#
# Convention : Reuss Voigt Hill
#
# Bulk Modulus (GPa) = 20.41156 22.10733 21.25944
# Shear Modulus (GPa) = 19.68957 20.28430 19.98694
#
# Velocity S-wave (km/s) = 3.55864 3.61199 3.58541
# Velocity P-wave (km/s) = 5.47846 5.62265 5.55102
#
# Compressibility (1/GPa) = 0.04899186
#
# Stress axis : x y z
#
# Youngs Moduli (GPa) = 53.13073 53.13073 39.41729
#
# Poissons Ratio (x) = 0.29022 0.03051
# Poissons Ratio (y) = 0.29022 0.03051
# Poissons Ratio (z) = 0.04112 0.04112
#
# Static dielectric constant tensor:
#      x y z
#    x 2.860620 0.000000 0.000000 
#    y 0.000000 2.860620 0.000000 
#    z 0.000000 0.000000 2.965950 
# 
# 
# High freq. dielectric constant tensor:
#      x y z
#    x 1.581560 0.000000 0.000000 
#    y 0.000000 1.581560 0.000000 
#    z 0.000000 0.000000 1.592050 
# 
# From -- ./inp_files/3702.got.cif
#   From: 2010.03.12/outbox.cif.g09.slc.cpg/sg163_2_cif.got.tgz:3702.got - 2010.04.02 06:30:25.
