data_PCOD8323003
_publ_section_title
;
Structure prediction by ZEFSAII (Michael W. Deem and Ramdas Pophale) SiO2 
 PCOD8323003
Probable space group: P -3 1 M 
;
_chemical_formula_sum "Si O2"
_cell_formula_units_Z 96
_cell_length_a 14.832371
_cell_length_b 14.832371
_cell_length_c 26.871328
_cell_angle_alpha 90.000000
_cell_angle_beta 90.000000
_cell_angle_gamma 120.000000
_cell_volume 5119.657659
_symmetry_space_group_name_H-M "P -3 1 M "
_symmetry_group_IT_number 162
_symmetry_cell_setting 'hexagonal'
loop_
_space_group_symop_operation_xyz
x,y,z
-y,x-y,z
-x+y,-x,z
-y,-x,-z
-x+y,y,-z
x,x-y,-z
-x,-y,-z
y,-x+y,-z
x-y,x,-z
y,x,z
x-y,-y,z
-x,-x+y,z
loop_
_atom_site_type_symbol
_atom_site_label
_atom_site_fract_x
_atom_site_fract_y
_atom_site_fract_z
Si Si1 0.120933 0.543707 0.113314
Si Si2 0.882618 0.764901 0.811529
Si Si3 0.448133 0.568317 0.773026
Si Si4 0.464113 0.214529 0.945307
Si Si5 0.115987 0.884361 0.070966
Si Si6 0.125205 0.877350 0.660845
Si Si7 0.880461 0.120931 0.552484
Si Si8 0.422447 0.201992 0.256325
O O1 0.157816 0.582092 0.169577
O O2 0.139747 0.637316 0.077233
O O3 0.186203 0.492849 0.093244
O O4 0.000000 0.456412 0.112126
O O5 0.824332 0.824332 0.791249
O O6 0.881136 0.759562 0.870128
O O7 0.823654 0.646704 0.793213
O O8 0.000000 0.825646 0.790332
O O9 0.535074 0.535074 0.770937
O O10 0.492539 0.676255 0.743550
O O11 0.345274 0.482892 0.744684
O O12 0.341176 0.146767 0.952960
O O13 0.514087 0.257044 0.000000
O O14 0.000000 0.851372 0.053891
O O15 0.192856 0.000000 0.050774
O O16 0.164067 0.864908 0.605245
O O17 0.169455 0.821997 0.696266
O O18 0.000000 0.822440 0.666042
O O19 0.175893 0.000000 0.673915
O O20 0.846057 0.153944 0.500000
O O21 0.000000 0.153260 0.545630
O O22 0.815549 0.000000 0.559870
#
# Coordination Sequence:
#
# PCOD8323003 Si02
#       8
#    12  12  12  12  12  12  12  12
#     4  11  24  42  62  81 102 130 165 206 255 312
#     4  10  19  33  54  80 109 138 168 203 248 308
#     4  11  23  39  58  77  99 132 172 213 258 309
#     4  12  25  40  60  84 107 130 160 205 260 309
#     4  10  21  37  57  81 110 144 176 202 233 287
#     4  10  19  31  50  80 118 154 183 214 257 310
#     4   8  13  22  39  67 106 151 191 219 246 291
#     4  12  23  36  53  76 104 135 175 222 270 315
#
# _framework density 18.751253999999999
#
# number of rings (size 3 to 8) (size 9 to 14) (size 15 to 20)
#    0.000    1.500    0.000    6.625    0.000    9.000 
#    0.000    1.250    0.000    0.750    0.000    0.875 
#    0.000    5.000    0.000    0.000    0.000    0.000 
#
# Total GULP energy -1189994.085480 kJ/mol
# GULP energy per Si atom -12395.771724 kJ/mol
# Density = 1.870858 g / cm^3
# Si number density = 18.751254 Si / 1000 Ang^3
#
#
#
# Elastic Constant Matrix: (Units=GPa)
#
#
# Indices 1 2 3 4 5 6 
#
# 1 82.5338 12.5664 25.4061 0.0000 -2.6958 0.0000
# 2 12.5664 82.5338 25.4061 0.0000 2.6958 0.0000
# 3 25.4061 25.4061 117.0893 0.0000 0.0000 0.0000
# 4 0.0000 0.0000 0.0000 18.3259 0.0000 2.6958
# 5 -2.6958 2.6958 0.0000 0.0000 18.3259 0.0000
# 6 0.0000 0.0000 0.0000 2.6958 0.0000 34.9837
#
#
#
# Elastic Compliance Matrix: (Units=1/GPa)
#
#
# Indices 1 2 3 4 5 6 
#
# 1 0.013175 -0.001281 -0.002581 0.000000 0.002127 0.000000
# 2 -0.001281 0.013175 -0.002581 0.000000 -0.002127 0.000000
# 3 -0.002581 -0.002581 0.009660 0.000000 0.000000 0.000000
# 4 0.000000 0.000000 0.000000 0.055193 0.000000 -0.004253
# 5 0.002127 -0.002127 0.000000 0.000000 0.055193 0.000000
# 6 0.000000 0.000000 0.000000 -0.004253 0.000000 0.028912
#
#
# Mechanical properties :
#
#
# Convention : Reuss Voigt Hill
#
# Bulk Modulus (GPa) = 43.24217 45.43488 44.33852
# Shear Modulus (GPa) = 25.52272 28.91230 27.21751
#
# Velocity S-wave (km/s) = 3.69334 3.93095 3.81399
# Velocity P-wave (km/s) = 6.42641 6.69970 6.56448
#
# Compressibility (1/GPa) = 0.02312557
#
# Stress axis : x y z
#
# Youngs Moduli (GPa) = 75.90020 75.90020 103.51477
#
# Poissons Ratio (x) = 0.09723 0.26715
# Poissons Ratio (y) = 0.09723 0.26715
# Poissons Ratio (z) = 0.19588 0.19588
#
# Static dielectric constant tensor:
#      x y z
#    x 3.428210 0.000000 0.000000 
#    y 0.000000 3.428210 0.000000 
#    z 0.000000 0.000000 3.777590 
# 
# 
# High freq. dielectric constant tensor:
#      x y z
#    x 1.720190 0.000000 0.000000 
#    y 0.000000 1.720190 0.000000 
#    z 0.000000 0.000000 1.724800 
# 
# From -- ./inp_files/4118.got.cif
#   From: 2010.03.12/outbox.cif.g09.slc.cpg/sg162_3_cif.got.tgz:4118.got - 2010.04.02 06:27:41.
