data_PCOD8323990
_publ_section_title
;
Structure prediction by ZEFSAII (Michael W. Deem and Ramdas Pophale) SiO2 
 PCOD8323990
Probable space group: R -3 M
;
_chemical_formula_sum "Si O2"
_cell_formula_units_Z 216
_cell_length_a 25.959359
_cell_length_b 25.959359
_cell_length_c 25.780484
_cell_angle_alpha 90.000000
_cell_angle_beta 90.000000
_cell_angle_gamma 120.000000
_cell_volume 15045.604004
_symmetry_space_group_name_H-M "R -3 M"
_symmetry_group_IT_number 166
_symmetry_cell_setting 'hexagonal'
loop_
_space_group_symop_operation_xyz
x,y,z
-y,x-y,z
-x+y,-x,z
x-y,-y,-z
-x,-x+y,-z
y,x,-z
-x,-y,-z
y,-x+y,-z
x-y,x,-z
-x+y,y,z
x,x-y,z
-y,-x,z
2/3+x,1/3+y,1/3+z
2/3-y,1/3+x-y,1/3+z
2/3-x+y,1/3-x,1/3+z
2/3+x-y,1/3-y,1/3-z
2/3-x,1/3-x+y,1/3-z
2/3+y,1/3+x,1/3-z
2/3-x,1/3-y,1/3-z
2/3+y,1/3-x+y,1/3-z
2/3+x-y,1/3+x,1/3-z
2/3-x+y,1/3+y,1/3+z
2/3+x,1/3+x-y,1/3+z
2/3-y,1/3-x,1/3+z
1/3+x,2/3+y,2/3+z
1/3-y,2/3+x-y,2/3+z
1/3-x+y,2/3-x,2/3+z
1/3+x-y,2/3-y,2/3-z
1/3-x,2/3-x+y,2/3-z
1/3+y,2/3+x,2/3-z
1/3-x,2/3-y,2/3-z
1/3+y,2/3-x+y,2/3-z
1/3+x-y,2/3+x,2/3-z
1/3-x+y,2/3+y,2/3+z
1/3+x,2/3+x-y,2/3+z
1/3-y,2/3-x,2/3+z
loop_
_atom_site_type_symbol
_atom_site_label
_atom_site_fract_x
_atom_site_fract_y
_atom_site_fract_z
Si Si1 0.692306 0.503143 0.437178
Si Si2 0.625411 0.625411 0.500000
Si Si3 0.149705 0.731722 0.902476
Si Si4 0.881462 0.882199 0.786716
Si Si5 0.333334 0.783385 0.666667
Si Si6 0.233831 0.346438 0.683031
Si Si7 0.590671 0.942987 0.745207
O O1 0.757092 0.514185 0.427394
O O2 0.660963 0.459329 0.485157
O O3 0.653505 0.477533 0.384395
O O4 0.701950 0.568370 0.446293
O O5 0.563623 0.616109 0.477000
O O6 0.649266 0.674183 0.546201
O O7 0.208122 0.791879 0.884891
O O8 0.167417 0.680089 0.908996
O O9 0.126136 0.740505 0.958161
O O10 0.935641 0.871281 0.770872
O O11 0.899216 0.949608 0.772269
O O12 0.386961 0.773921 0.681175
O O13 0.182682 0.365363 0.680977
O O14 0.290315 0.392440 0.716506
O O15 0.259774 0.347152 0.625665
#
# Coordination Sequence:
#
# PCOD8323990 Si02
#       7
#    36  18  36  36  18  36  36
#     4  10  19  28  38  54  77 108 138 169 204 241
#     4  10  17  28  42  62  82 110 138 172 215 254
#     4   9  17  29  44  61  82 109 144 178 215 253
#     4  10  19  30  43  60  82 110 143 177 212 251
#     4  10  19  28  36  48  70 104 140 168 195 228
#     4   9  18  29  43  62  83 108 138 179 220 253
#     4  10  18  28  42  61  83 108 139 173 212 252
#
# _framework density 14.356353
#
# number of rings (size 3 to 8) (size 9 to 14) (size 15 to 20)
#    0.000    2.333    1.667    2.500    0.000    3.333 
#    0.000    1.667    0.000    0.000    0.000   11.667 
#    0.000    0.000    0.000    0.000    0.000    0.000 
#
# Total GULP energy -892059.773339 kJ/mol
# GULP energy per Si atom -12389.719074 kJ/mol
# Density = 1.432368 g / cm^3
# Si number density = 14.356353 Si / 1000 Ang^3
#
#
#
# Elastic Constant Matrix: (Units=GPa)
#
#
# Indices 1 2 3 4 5 6 
#
# 1 70.5400 38.5924 31.4534 0.1485 -0.0001 0.0000
# 2 38.5924 70.5400 31.4534 -0.1485 0.0001 0.0000
# 3 31.4534 31.4534 59.1252 0.0000 0.0000 0.0000
# 4 0.1485 -0.1485 0.0000 19.5777 0.0000 0.0001
# 5 -0.0001 0.0001 0.0000 0.0000 19.5777 0.1485
# 6 0.0000 0.0000 0.0000 0.0001 0.1485 15.9738
#
#
#
# Elastic Compliance Matrix: (Units=1/GPa)
#
#
# Indices 1 2 3 4 5 6 
#
# 1 0.022260 -0.009044 -0.007031 -0.000238 0.000000 0.000000
# 2 -0.009044 0.022260 -0.007031 0.000238 0.000000 0.000000
# 3 -0.007031 -0.007031 0.024393 0.000000 0.000000 0.000000
# 4 -0.000238 0.000238 0.000000 0.051082 0.000000 0.000000
# 5 0.000000 0.000000 0.000000 0.000000 0.051082 -0.000475
# 6 0.000000 0.000000 0.000000 0.000000 -0.000475 0.062607
#
#
# Mechanical properties :
#
#
# Convention : Reuss Voigt Hill
#
# Bulk Modulus (GPa) = 44.04723 44.80039 44.42381
# Shear Modulus (GPa) = 17.39364 17.60623 17.49994
#
# Velocity S-wave (km/s) = 3.48453 3.50576 3.49516
# Velocity P-wave (km/s) = 6.85107 6.90368 6.87743
#
# Compressibility (1/GPa) = 0.02270290
#
# Stress axis : x y z
#
# Youngs Moduli (GPa) = 44.92439 44.92439 40.99458
#
# Poissons Ratio (x) = 0.40629 0.28821
# Poissons Ratio (y) = 0.40629 0.28821
# Poissons Ratio (z) = 0.31584 0.31584
#
# Static dielectric constant tensor:
#      x y z
#    x 2.767540 0.000000 0.000000 
#    y 0.000000 2.767540 0.000000 
#    z 0.000000 0.000000 2.833030 
# 
# 
# High freq. dielectric constant tensor:
#      x y z
#    x 1.534920 0.000000 0.000000 
#    y 0.000000 1.534920 0.000000 
#    z 0.000000 0.000000 1.524400 
# 
# From -- ./inp_files/8673.got.cif
#   From: 2010.03.12/outbox.cif.g09.slc.cpg/sg166_5_cif.got.tgz:8673.got - 2010.04.02 06:38:31.
