data_PCOD8323151
_publ_section_title
;
Structure prediction by ZEFSAII (Michael W. Deem and Ramdas Pophale) SiO2 
 PCOD8323151
Probable space group: P -3 1 M 
;
_chemical_formula_sum "Si O2"
_cell_formula_units_Z 60
_cell_length_a 29.631146
_cell_length_b 29.631146
_cell_length_c 5.072896
_cell_angle_alpha 90.000000
_cell_angle_beta 90.000000
_cell_angle_gamma 120.000000
_cell_volume 3857.300622
_symmetry_space_group_name_H-M "P -3 1 M "
_symmetry_group_IT_number 162
_symmetry_cell_setting 'hexagonal'
loop_
_space_group_symop_operation_xyz
x,y,z
-y,x-y,z
-x+y,-x,z
-y,-x,-z
-x+y,y,-z
x,x-y,-z
-x,-y,-z
y,-x+y,-z
x-y,x,-z
y,x,z
x-y,-y,z
-x,-x+y,z
loop_
_atom_site_type_symbol
_atom_site_label
_atom_site_fract_x
_atom_site_fract_y
_atom_site_fract_z
Si Si1 0.175642 0.059116 0.762650
Si Si2 0.939180 0.676214 0.574200
Si Si3 0.519751 0.581936 0.986170
Si Si4 0.061917 0.426570 0.483974
Si Si5 0.290157 0.194318 0.083307
O O1 0.188054 0.094027 0.500000
O O2 0.227857 0.064440 0.889172
O O3 0.136501 0.000000 0.678621
O O4 0.149395 0.074698 0.000000
O O5 0.918665 0.614844 0.549945
O O6 0.904947 0.686933 0.367478
O O7 0.000000 0.710304 0.499683
O O8 0.931249 0.691343 0.867734
O O9 0.549687 0.549687 0.973533
O O10 0.537238 0.621723 0.741235
O O11 0.457896 0.542105 0.000000
O O12 0.534184 0.617801 0.241146
O O13 0.000000 0.396044 0.488606
O O14 0.310822 0.155411 0.000000
#
# Coordination Sequence:
#
# PCOD8323151 Si02
#       5
#    12  12  12  12  12
#     4  11  22  37  56  75  93 111 134 164 204 262
#     4  11  20  32  48  64  87 112 138 176 219 262
#     4   9  15  24  37  54  79 108 139 174 207 237
#     4   9  17  26  38  58  79 106 140 170 209 249
#     4  11  22  34  48  68  88 110 139 172 215 262
#
# _framework density 15.554918000000001
#
# number of rings (size 3 to 8) (size 9 to 14) (size 15 to 20)
#    0.000    1.800    0.000    7.200    0.000    5.600 
#    0.000    0.000    0.000    4.000    0.000    0.000 
#    0.000    0.000    0.000    0.000    0.000    0.000 
#
# Total GULP energy -743951.969340 kJ/mol
# GULP energy per Si atom -12399.199489 kJ/mol
# Density = 1.551951 g / cm^3
# Si number density = 15.554918 Si / 1000 Ang^3
#
#
#
# Elastic Constant Matrix: (Units=GPa)
#
#
# Indices 1 2 3 4 5 6 
#
# 1 57.7822 24.6447 15.0476 0.0004 2.5779 0.0000
# 2 24.6447 57.7822 15.0476 -0.0004 -2.5779 0.0000
# 3 15.0476 15.0476 88.1132 0.0000 0.0000 0.0000
# 4 0.0004 -0.0004 0.0000 25.5321 0.0000 -2.5779
# 5 2.5779 -2.5779 0.0000 0.0000 25.5321 0.0004
# 6 0.0000 0.0000 0.0000 -2.5779 0.0004 16.5687
#
#
#
# Elastic Compliance Matrix: (Units=1/GPa)
#
#
# Indices 1 2 3 4 5 6 
#
# 1 0.021799 -0.008860 -0.002210 -0.000001 -0.003096 0.000000
# 2 -0.008860 0.021799 -0.002210 0.000001 0.003096 0.000000
# 3 -0.002210 -0.002210 0.012104 0.000000 0.000000 0.000000
# 4 -0.000001 0.000001 0.000000 0.039792 0.000000 0.006191
# 5 -0.003096 0.003096 0.000000 0.000000 0.039792 -0.000001
# 6 0.000000 0.000000 0.000000 0.006191 -0.000001 0.061318
#
#
# Mechanical properties :
#
#
# Convention : Reuss Voigt Hill
#
# Bulk Modulus (GPa) = 34.31389 34.79525 34.55457
# Shear Modulus (GPa) = 21.47071 23.45575 22.46323
#
# Velocity S-wave (km/s) = 3.71929 3.88742 3.80429
# Velocity P-wave (km/s) = 6.36804 6.52436 6.44667
#
# Compressibility (1/GPa) = 0.02914271
#
# Stress axis : x y z
#
# Youngs Moduli (GPa) = 45.87398 45.87398 82.61917
#
# Poissons Ratio (x) = 0.40645 0.18256
# Poissons Ratio (y) = 0.40645 0.18256
# Poissons Ratio (z) = 0.10136 0.10136
#
# Static dielectric constant tensor:
#      x y z
#    x 2.843810 0.000000 0.000000 
#    y 0.000000 2.843810 0.000000 
#    z 0.000000 0.000000 3.175690 
# 
# 
# High freq. dielectric constant tensor:
#      x y z
#    x 1.562050 0.000000 0.000000 
#    y 0.000000 1.562050 0.000000 
#    z 0.000000 0.000000 1.623930 
# 
# From -- ./inp_files/661.got.cif
#   From: 2010.03.12/outbox.cif.g09.slc.cpg/sg162_1_cif.got.tgz:661.got - 2010.04.02 06:27:41.
