data_PCOD8323020
_publ_section_title
;
Structure prediction by ZEFSAII (Michael W. Deem and Ramdas Pophale) SiO2 
 PCOD8323020
Probable space group: P -3 1 M 
;
_chemical_formula_sum "Si O2"
_cell_formula_units_Z 52
_cell_length_a 17.818389
_cell_length_b 17.818389
_cell_length_c 12.127631
_cell_angle_alpha 90.000000
_cell_angle_beta 90.000000
_cell_angle_gamma 120.000000
_cell_volume 3334.597944
_symmetry_space_group_name_H-M "P -3 1 M "
_symmetry_group_IT_number 162
_symmetry_cell_setting 'hexagonal'
loop_
_space_group_symop_operation_xyz
x,y,z
-y,x-y,z
-x+y,-x,z
-y,-x,-z
-x+y,y,-z
x,x-y,-z
-x,-y,-z
y,-x+y,-z
x-y,x,-z
y,x,z
x-y,-y,z
-x,-x+y,z
loop_
_atom_site_type_symbol
_atom_site_label
_atom_site_fract_x
_atom_site_fract_y
_atom_site_fract_z
Si Si1 0.333334 0.666667 0.129987
Si Si2 0.899886 0.364194 0.280249
Si Si3 0.899562 0.627150 0.500001
Si Si4 0.464307 0.364194 0.280251
Si Si5 0.235556 0.764447 0.869728
O O1 0.284746 0.715242 0.171852
O O2 0.333334 0.666667 0.000000
O O3 0.880539 0.315842 0.396468
O O4 0.864665 0.432333 0.282060
O O5 0.858869 0.292071 0.183806
O O6 0.000000 0.414859 0.252089
O O7 0.831837 0.663673 0.500000
O O8 0.880541 0.564697 0.396472
O O9 0.000000 0.706877 0.500002
O O10 0.414859 0.414859 0.252089
O O11 0.433197 0.292068 0.183810
O O12 0.227610 0.772391 0.000000
#
# Coordination Sequence:
#
# PCOD8323020 Si02
#       5
#     4  12  12  12  12
#     4   9  18  30  42  61  89 124 165 198 226 269
#     4  10  20  33  49  69  95 125 159 198 236 276
#     4  10  19  33  53  74  95 121 152 190 239 289
#     4  10  20  33  49  69  95 125 159 198 236 276
#     4  11  20  31  47  66  93 128 162 197 236 273
#
# _framework density 15.594084000000001
#
# number of rings (size 3 to 8) (size 9 to 14) (size 15 to 20)
#    0.000    1.846    4.615    0.692    0.000    3.692 
#    0.000    2.308    0.000    0.231    0.000    0.000 
#    0.000    0.000    0.000    0.000    0.000   21.000 
#
# Total GULP energy -644482.269030 kJ/mol
# GULP energy per Si atom -12393.889789 kJ/mol
# Density = 1.555859 g / cm^3
# Si number density = 15.594084 Si / 1000 Ang^3
#
#
#
# Elastic Constant Matrix: (Units=GPa)
#
#
# Indices 1 2 3 4 5 6 
#
# 1 78.6190 35.4100 44.4854 0.0004 0.0012 0.0006
# 2 35.4100 78.6180 44.4870 -0.0004 -0.0012 0.0000
# 3 44.4854 44.4870 126.0324 0.0000 0.0000 -0.0007
# 4 0.0004 -0.0004 0.0000 20.1046 -0.0001 -0.0016
# 5 0.0012 -0.0012 0.0000 -0.0001 20.1046 -0.0004
# 6 0.0006 0.0000 -0.0007 -0.0016 -0.0004 21.6023
#
#
#
# Elastic Compliance Matrix: (Units=1/GPa)
#
#
# Indices 1 2 3 4 5 6 
#
# 1 0.017623 -0.005520 -0.004272 0.000000 -0.000001 -0.000001
# 2 -0.005520 0.017624 -0.004272 0.000000 0.000001 0.000000
# 3 -0.004272 -0.004272 0.010950 0.000000 0.000000 0.000000
# 4 0.000000 0.000000 0.000000 0.049740 0.000000 0.000004
# 5 -0.000001 0.000001 0.000000 0.000000 0.049740 0.000001
# 6 -0.000001 0.000000 0.000000 0.000004 0.000001 0.046291
#
#
# Mechanical properties :
#
#
# Convention : Reuss Voigt Hill
#
# Bulk Modulus (GPa) = 55.34585 59.11490 57.23037
# Shear Modulus (GPa) = 22.11220 22.95478 22.53349
#
# Velocity S-wave (km/s) = 3.76970 3.84085 3.80544
# Velocity P-wave (km/s) = 7.38350 7.59344 7.48921
#
# Compressibility (1/GPa) = 0.01806820
#
# Stress axis : x y z
#
# Youngs Moduli (GPa) = 56.74393 56.74201 91.32139
#
# Poissons Ratio (x) = 0.31323 0.39011
# Poissons Ratio (y) = 0.31324 0.39015
# Poissons Ratio (z) = 0.24240 0.24242
#
# Static dielectric constant tensor:
#      x y z
#    x 5.098190 -0.000410 0.000080 
#    y -0.000410 5.087870 0.000130 
#    z 0.000080 0.000130 2.892320 
# 
# 
# High freq. dielectric constant tensor:
#      x y z
#    x 1.585740 0.000000 0.000000 
#    y 0.000000 1.585740 0.000000 
#    z 0.000000 0.000000 1.604980 
# 
# From -- ./inp_files/2880.got.cif
#   From: 2010.03.12/outbox.cif.g09.slc.cpg/sg162_2_cif.got.tgz:2880.got - 2010.04.02 06:27:41.
