data_PCOD8323634
_publ_section_title
;
Structure prediction by ZEFSAII (Michael W. Deem and Ramdas Pophale) SiO2 
 PCOD8323634
Probable space group: P -3 M 1
;
_chemical_formula_sum "Si O2"
_cell_formula_units_Z 72
_cell_length_a 12.654350
_cell_length_b 12.654350
_cell_length_c 30.322765
_cell_angle_alpha 90.000000
_cell_angle_beta 90.000000
_cell_angle_gamma 120.000000
_cell_volume 4205.126997
_symmetry_space_group_name_H-M "P -3 M 1"
_symmetry_group_IT_number 164
_symmetry_cell_setting 'hexagonal'
loop_
_space_group_symop_operation_xyz
x,y,z
-y,x-y,z
-x+y,-x,z
x-y,-y,-z
-x,-x+y,-z
y,x,-z
-x,-y,-z
y,-x+y,-z
x-y,x,-z
-x+y,y,z
x,x-y,z
-y,-x,z
loop_
_atom_site_type_symbol
_atom_site_label
_atom_site_fract_x
_atom_site_fract_y
_atom_site_fract_z
Si Si1 0.911070 0.577569 0.076754
Si Si2 0.000000 0.752769 0.000000
Si Si3 0.909430 0.332936 0.176792
Si Si4 0.912733 0.579450 0.664136
Si Si5 0.246095 0.000000 0.500000
Si Si6 0.666642 0.087194 0.417838
Si Si7 0.245171 0.245665 0.254464
O O1 0.773558 0.547116 0.069134
O O2 0.915373 0.457686 0.064892
O O3 0.953768 0.620018 0.126895
O O4 0.002541 0.682897 0.043954
O O5 0.884482 0.768965 0.998597
O O6 0.924904 0.462452 0.190045
O O7 0.767304 0.232697 0.182180
O O8 0.992648 0.302954 0.208175
O O9 0.786335 0.572670 0.652143
O O10 0.887125 0.443563 0.671534
O O11 0.971770 0.655206 0.708160
O O12 0.006371 0.647067 0.624926
O O13 0.309063 0.977802 0.541650
O O14 0.114744 0.885257 0.489698
O O15 0.549471 0.098943 0.429063
O O16 0.779112 0.220889 0.408800
O O17 0.105652 0.211303 0.250596
O O18 0.248606 0.124303 0.266524
#
# Coordination Sequence:
#
# PCOD8323634 Si02
#       7
#    12   6  12  12   6  12  12
#     4   9  17  30  49  71  93 118 151 193 239 283
#     4  10  20  32  46  66  94 128 162 194 230 276
#     4   9  17  30  49  72  95 119 150 191 238 284
#     4  10  20  34  52  73  97 126 161 201 244 289
#     4  10  20  34  52  74 100 130 164 200 238 282
#     4  10  20  34  52  74 100 129 161 198 241 288
#     4  10  20  33  49  70  97 129 163 197 233 276
#
# _framework density 17.121956999999998
#
# number of rings (size 3 to 8) (size 9 to 14) (size 15 to 20)
#    0.000    2.333    0.000    3.000    0.000    2.000 
#    0.000    0.000    0.000   18.667    0.000    0.000 
#    0.000    0.000    0.000    0.000    0.000    0.000 
#
# Total GULP energy -892970.224597 kJ/mol
# GULP energy per Si atom -12402.364231 kJ/mol
# Density = 1.708299 g / cm^3
# Si number density = 17.121957 Si / 1000 Ang^3
#
#
#
# Elastic Constant Matrix: (Units=GPa)
#
#
# Indices 1 2 3 4 5 6 
#
# 1 102.7531 59.2743 62.2811 2.7468 0.0000 0.0000
# 2 59.2743 102.7531 62.2811 -2.7468 0.0000 0.0000
# 3 62.2811 62.2811 102.7377 0.0000 0.0000 0.0000
# 4 2.7468 -2.7468 0.0000 27.8414 0.0000 0.0000
# 5 0.0000 0.0000 0.0000 0.0000 27.8414 2.7468
# 6 0.0000 0.0000 0.0000 0.0000 2.7468 21.7394
#
#
#
# Elastic Compliance Matrix: (Units=1/GPa)
#
#
# Indices 1 2 3 4 5 6 
#
# 1 0.017424 -0.005866 -0.007007 -0.002298 0.000000 0.000000
# 2 -0.005866 0.017424 -0.007007 0.002298 0.000000 0.000000
# 3 -0.007007 -0.007007 0.018229 0.000000 0.000000 0.000000
# 4 -0.002298 0.002298 0.000000 0.036371 0.000000 0.000000
# 5 0.000000 0.000000 0.000000 0.000000 0.036371 -0.004596
# 6 0.000000 0.000000 0.000000 0.000000 -0.004596 0.046580
#
#
# Mechanical properties :
#
#
# Convention : Reuss Voigt Hill
#
# Bulk Modulus (GPa) = 75.08509 75.10189 75.09349
# Shear Modulus (GPa) = 23.08417 23.77827 23.43122
#
# Velocity S-wave (km/s) = 3.67579 3.73065 3.70332
# Velocity P-wave (km/s) = 7.87170 7.90665 7.88919
#
# Compressibility (1/GPa) = 0.01331822
#
# Stress axis : x y z
#
# Youngs Moduli (GPa) = 57.39107 57.39107 54.85775
#
# Poissons Ratio (x) = 0.33664 0.38439
# Poissons Ratio (y) = 0.33664 0.38439
# Poissons Ratio (z) = 0.40214 0.40214
#
# Static dielectric constant tensor:
#      x y z
#    x 3.205600 0.000000 0.000000 
#    y 0.000000 3.205600 0.000000 
#    z 0.000000 0.000000 3.357250 
# 
# 
# High freq. dielectric constant tensor:
#      x y z
#    x 1.664800 0.000000 0.000000 
#    y 0.000000 1.664800 0.000000 
#    z 0.000000 0.000000 1.671390 
# 
# From -- ./inp_files/5570.got.cif
#   From: 2010.03.12/outbox.cif.g09.slc.cpg/sg164_3_cif.got.tgz:5570.got - 2010.04.02 06:32:59.
