data_PCOD8323813
_publ_section_title
;
Structure prediction by ZEFSAII (Michael W. Deem and Ramdas Pophale) SiO2 
 PCOD8323813
Probable space group: P -3 M 1
;
_chemical_formula_sum "Si O2"
_cell_formula_units_Z 60
_cell_length_a 20.001196
_cell_length_b 20.001196
_cell_length_c 9.190206
_cell_angle_alpha 90.000000
_cell_angle_beta 90.000000
_cell_angle_gamma 120.000000
_cell_volume 3183.961512
_symmetry_space_group_name_H-M "P -3 M 1"
_symmetry_group_IT_number 164
_symmetry_cell_setting 'hexagonal'
loop_
_space_group_symop_operation_xyz
x,y,z
-y,x-y,z
-x+y,-x,z
x-y,-y,-z
-x,-x+y,-z
y,x,-z
-x,-y,-z
y,-x+y,-z
x-y,x,-z
-x+y,y,z
x,x-y,z
-y,-x,z
loop_
_atom_site_type_symbol
_atom_site_label
_atom_site_fract_x
_atom_site_fract_y
_atom_site_fract_z
Si Si1 0.295463 0.440795 0.772803
Si Si2 0.923370 0.461685 0.709431
Si Si3 0.449817 0.899633 0.619411
Si Si4 0.921320 0.339724 0.921935
Si Si5 0.218050 0.938786 0.623054
Si Si6 0.048415 0.253888 0.141958
O O1 0.228807 0.457613 0.731516
O O2 0.366575 0.506239 0.688512
O O3 0.274052 0.356834 0.711991
O O4 0.305524 0.446001 0.947507
O O5 0.881248 0.440624 0.553236
O O6 0.899239 0.383900 0.801260
O O7 0.012409 0.506205 0.668679
O O8 0.926856 0.270884 0.842616
O O9 0.000000 0.401599 0.000000
O O10 0.137826 0.862175 0.571597
O O11 0.269890 0.000000 0.500000
O O12 0.200438 0.991373 0.730676
O O13 0.122867 0.245733 0.143627
O O14 0.000000 0.217016 0.000000
#
# Coordination Sequence:
#
# PCOD8323813 Si02
#       6
#    12   6   6  12  12  12
#     4  11  23  40  62  89 121 161 204 244 293 357
#     4  11  22  35  62  93 128 151 190 247 312 353
#     4  11  23  38  59  92 125 162 193 242 295 362
#     4  11  19  35  58  89 123 151 193 245 300 355
#     4  11  23  39  59  87 121 157 202 253 306 362
#     4  11  21  36  60  88 121 159 199 250 303 354
#
# _framework density 18.844448
#
# number of rings (size 3 to 8) (size 9 to 14) (size 15 to 20)
#    0.000    1.000    6.000    2.700    5.600    0.000 
#    0.600    1.000    0.000    8.000    0.000    0.000 
#    0.000    0.000    0.000    0.000    0.000    0.000 
#
# Total GULP energy -743683.675510 kJ/mol
# GULP energy per Si atom -12394.727925 kJ/mol
# Density = 1.880156 g / cm^3
# Si number density = 18.844448 Si / 1000 Ang^3
#
#
#
# Elastic Constant Matrix: (Units=GPa)
#
#
# Indices 1 2 3 4 5 6 
#
# 1 94.5828 54.9124 39.2794 6.5897 0.0000 0.0000
# 2 54.9124 94.5828 39.2794 -6.5897 0.0000 0.0000
# 3 39.2794 39.2794 108.4277 0.0000 0.0000 0.0000
# 4 6.5897 -6.5897 0.0000 21.4348 0.0000 0.0000
# 5 0.0000 0.0000 0.0000 0.0000 21.4348 6.5897
# 6 0.0000 0.0000 0.0000 0.0000 6.5897 19.8352
#
#
#
# Elastic Compliance Matrix: (Units=1/GPa)
#
#
# Indices 1 2 3 4 5 6 
#
# 1 0.018169 -0.009907 -0.002993 -0.008631 0.000000 0.000000
# 2 -0.009907 0.018169 -0.002993 0.008631 0.000000 0.000000
# 3 -0.002993 -0.002993 0.011391 0.000000 0.000000 0.000000
# 4 -0.008631 0.008631 0.000000 0.051960 0.000000 0.000000
# 5 0.000000 0.000000 0.000000 0.000000 0.051960 -0.017262
# 6 0.000000 0.000000 0.000000 0.000000 -0.017262 0.056150
#
#
# Mechanical properties :
#
#
# Convention : Reuss Voigt Hill
#
# Bulk Modulus (GPa) = 62.72277 62.72617 62.72447
# Shear Modulus (GPa) = 20.41662 23.48244 21.94953
#
# Velocity S-wave (km/s) = 3.29512 3.53387 3.41658
# Velocity P-wave (km/s) = 6.91620 7.07174 6.99440
#
# Compressibility (1/GPa) = 0.01594317
#
# Stress axis : x y z
#
# Youngs Moduli (GPa) = 55.04002 55.04002 87.78668
#
# Poissons Ratio (x) = 0.54526 0.26275
# Poissons Ratio (y) = 0.54526 0.26275
# Poissons Ratio (z) = 0.16474 0.16474
#
# Static dielectric constant tensor:
#      x y z
#    x 3.423640 0.000000 0.000000 
#    y 0.000000 3.423640 0.000000 
#    z 0.000000 0.000000 3.708810 
# 
# 
# High freq. dielectric constant tensor:
#      x y z
#    x 1.718600 0.000000 0.000000 
#    y 0.000000 1.718600 0.000000 
#    z 0.000000 0.000000 1.746620 
# 
# From -- ./inp_files/1647.got.cif
#   From: 2010.03.12/outbox.cif.g09.slc.cpg/sg164_1_cif.got.tgz:1647.got - 2010.04.02 06:32:59.
