data_PCOD8323452
_publ_section_title
;
Structure prediction by ZEFSAII (Michael W. Deem and Ramdas Pophale) SiO2 
 PCOD8323452
Probable space group: P -3 M 1
;
_chemical_formula_sum "Si O2"
_cell_formula_units_Z 96
_cell_length_a 17.431802
_cell_length_b 17.431802
_cell_length_c 23.182909
_cell_angle_alpha 90.000000
_cell_angle_beta 90.000000
_cell_angle_gamma 120.000000
_cell_volume 6100.748626
_symmetry_space_group_name_H-M "P -3 M 1"
_symmetry_group_IT_number 164
_symmetry_cell_setting 'hexagonal'
loop_
_space_group_symop_operation_xyz
x,y,z
-y,x-y,z
-x+y,-x,z
x-y,-y,-z
-x,-x+y,-z
y,x,-z
-x,-y,-z
y,-x+y,-z
x-y,x,-z
-x+y,y,z
x,x-y,z
-y,-x,z
loop_
_atom_site_type_symbol
_atom_site_label
_atom_site_fract_x
_atom_site_fract_y
_atom_site_fract_z
Si Si1 0.270716 0.362933 0.660860
Si Si2 0.293542 0.057551 0.169806
Si Si3 0.401512 0.982669 0.565662
Si Si4 0.180844 0.001394 0.282113
Si Si5 0.667407 0.166075 0.618031
Si Si6 0.667155 0.500890 0.754334
Si Si7 0.821249 0.999775 0.065122
Si Si8 0.607060 0.571840 0.231971
O O1 0.191095 0.382190 0.671543
O O2 0.310231 0.398860 0.596658
O O3 0.233776 0.257344 0.669816
O O4 0.348359 0.421825 0.706243
O O5 0.310784 0.155392 0.168036
O O6 0.223662 0.002143 0.220315
O O7 0.391346 0.071273 0.181200
O O8 0.254821 0.009291 0.108730
O O9 0.478004 0.956008 0.570642
O O10 0.422944 0.069827 0.600836
O O11 0.386353 0.000000 0.500000
O O12 0.150666 0.075333 0.283990
O O13 0.095393 0.904608 0.293753
O O14 0.591882 0.183764 0.591789
O O15 0.761080 0.238921 0.591341
O O16 0.668540 0.172551 0.685985
O O17 0.763613 0.527225 0.779731
O O18 0.595554 0.404447 0.778422
O O19 0.640821 0.572059 0.772553
O O20 0.820442 0.910221 0.079857
O O21 0.921315 0.078686 0.074347
O O22 0.788825 0.000000 0.000000
O O23 0.529308 0.470693 0.221667
#
# Coordination Sequence:
#
# PCOD8323452 Si02
#       8
#    12  12  12  12  12  12  12  12
#     4  10  20  33  47  65  89 115 143 180 223 261
#     4   9  18  30  43  64  92 121 151 189 232 262
#     4  10  20  34  50  65  83 108 138 173 216 266
#     4   9  17  28  44  66  93 123 151 179 210 250
#     4   9  16  27  43  65  87 106 128 157 199 250
#     4   9  16  25  40  63  89 113 135 163 203 254
#     4   9  16  26  42  66  98 134 166 190 214 252
#     4  10  18  30  48  65  86 117 150 185 227 272
#
# _framework density 15.735773
#
# number of rings (size 3 to 8) (size 9 to 14) (size 15 to 20)
#    0.000    2.625    1.250    2.375    0.000    5.000 
#    0.000    1.250    0.000    4.875    0.000    0.000 
#    0.000    2.500    0.000    0.250    0.000    0.000 
#
# Total GULP energy -1189655.768682 kJ/mol
# GULP energy per Si atom -12392.247590 kJ/mol
# Density = 1.569996 g / cm^3
# Si number density = 15.735773 Si / 1000 Ang^3
#
#
#
# Elastic Constant Matrix: (Units=GPa)
#
#
# Indices 1 2 3 4 5 6 
#
# 1 69.4034 32.1062 31.1877 -2.5293 0.0000 0.0000
# 2 32.1062 69.4034 31.1877 2.5293 0.0000 0.0000
# 3 31.1877 31.1877 78.1411 0.0000 0.0000 0.0000
# 4 -2.5293 2.5293 0.0000 20.4114 0.0000 0.0000
# 5 0.0000 0.0000 0.0000 0.0000 20.4114 -2.5293
# 6 0.0000 0.0000 0.0000 0.0000 -2.5293 18.6486
#
#
#
# Elastic Compliance Matrix: (Units=1/GPa)
#
#
# Indices 1 2 3 4 5 6 
#
# 1 0.020161 -0.007109 -0.005209 0.003379 0.000000 0.000000
# 2 -0.007109 0.020161 -0.005209 -0.003379 0.000000 0.000000
# 3 -0.005209 -0.005209 0.016956 0.000000 0.000000 0.000000
# 4 0.003379 -0.003379 0.000000 0.049830 0.000000 0.000000
# 5 0.000000 0.000000 0.000000 0.000000 0.049830 0.006758
# 6 0.000000 0.000000 0.000000 0.000000 0.006758 0.054540
#
#
# Mechanical properties :
#
#
# Convention : Reuss Voigt Hill
#
# Bulk Modulus (GPa) = 44.99912 45.10124 45.05018
# Shear Modulus (GPa) = 19.68967 20.05871 19.87419
#
# Velocity S-wave (km/s) = 3.54116 3.57420 3.55772
# Velocity P-wave (km/s) = 6.73636 6.76439 6.75039
#
# Compressibility (1/GPa) = 0.02222266
#
# Stress axis : x y z
#
# Youngs Moduli (GPa) = 49.60034 49.60034 58.97696
#
# Poissons Ratio (x) = 0.35260 0.30724
# Poissons Ratio (y) = 0.35260 0.30724
# Poissons Ratio (z) = 0.25839 0.25839
#
# Static dielectric constant tensor:
#      x y z
#    x 3.035560 0.000000 0.000000 
#    y 0.000000 3.035560 0.000000 
#    z 0.000000 0.000000 2.152770 
# 
# 
# High freq. dielectric constant tensor:
#      x y z
#    x 1.599780 0.000000 0.000000 
#    y 0.000000 1.599780 0.000000 
#    z 0.000000 0.000000 1.570000 
# 
# From -- ./inp_files/4730.got.cif
#   From: 2010.03.12/outbox.cif.g09.slc.cpg/sg164_3_cif.got.tgz:4730.got - 2010.04.02 06:32:59.
