data_PCOD8323679
_publ_section_title
;
Structure prediction by ZEFSAII (Michael W. Deem and Ramdas Pophale) SiO2 
 PCOD8323679
Probable space group: P -3 M 1
;
_chemical_formula_sum "Si O2"
_cell_formula_units_Z 54
_cell_length_a 12.476109
_cell_length_b 12.476109
_cell_length_c 23.402838
_cell_angle_alpha 90.000000
_cell_angle_beta 90.000000
_cell_angle_gamma 120.000000
_cell_volume 3154.695736
_symmetry_space_group_name_H-M "P -3 M 1"
_symmetry_group_IT_number 164
_symmetry_cell_setting 'hexagonal'
loop_
_space_group_symop_operation_xyz
x,y,z
-y,x-y,z
-x+y,-x,z
x-y,-y,-z
-x,-x+y,-z
y,x,-z
-x,-y,-z
y,-x+y,-z
x-y,x,-z
-x+y,y,z
x,x-y,z
-y,-x,z
loop_
_atom_site_type_symbol
_atom_site_label
_atom_site_fract_x
_atom_site_fract_y
_atom_site_fract_z
Si Si1 0.251229 0.998867 0.376569
Si Si2 0.000000 0.753477 0.500000
Si Si3 0.414672 0.081755 0.946123
Si Si4 0.249296 0.998459 0.162477
Si Si5 0.332544 0.916066 0.270638
O O1 0.261291 0.130646 0.365949
O O2 0.304097 0.987768 0.439638
O O3 0.334971 0.979495 0.330751
O O4 0.107590 0.892410 0.370264
O O5 0.886843 0.773685 0.489069
O O6 0.548325 0.096649 0.941259
O O7 0.432664 0.216332 0.953761
O O8 0.340207 0.015329 0.889302
O O9 0.339037 0.000000 0.000000
O O10 0.105780 0.894221 0.159716
O O11 0.310359 0.991212 0.221294
O O12 0.260162 0.130081 0.158062
O O13 0.462715 0.925430 0.260450
O O14 0.227403 0.772598 0.269639
#
# Coordination Sequence:
#
# PCOD8323679 Si02
#       5
#    12   6  12  12  12
#     4   9  16  27  46  71  97 122 150 189 237 286
#     4   8  13  22  39  66  96 122 148 182 230 284
#     4  10  20  34  53  76 103 135 169 203 237 276
#     4  10  20  34  53  76 100 124 153 194 244 293
#     4  10  20  33  49  68  92 124 161 199 236 277
#
# _framework density 17.117339999999999
#
# number of rings (size 3 to 8) (size 9 to 14) (size 15 to 20)
#    0.000    2.444    0.000    3.000    0.000    1.778 
#    0.000    5.000    0.000   12.889    0.000    0.000 
#    0.000    0.000    0.000    0.000    0.000    0.000 
#
# Total GULP energy -669355.147627 kJ/mol
# GULP energy per Si atom -12395.465697 kJ/mol
# Density = 1.707838 g / cm^3
# Si number density = 17.117340 Si / 1000 Ang^3
#
#
#
# Elastic Constant Matrix: (Units=GPa)
#
#
# Indices 1 2 3 4 5 6 
#
# 1 64.3852 36.0838 38.2285 1.7959 0.0000 0.0000
# 2 36.0838 64.3852 38.2285 -1.7959 0.0000 0.0000
# 3 38.2285 38.2285 139.5054 0.0000 0.0000 0.0000
# 4 1.7959 -1.7959 0.0000 20.9753 0.0000 0.0000
# 5 0.0000 0.0000 0.0000 0.0000 20.9753 1.7959
# 6 0.0000 0.0000 0.0000 0.0000 1.7959 14.1507
#
#
#
# Elastic Compliance Matrix: (Units=1/GPa)
#
#
# Indices 1 2 3 4 5 6 
#
# 1 0.024149 -0.011573 -0.003446 -0.003059 0.000000 0.000000
# 2 -0.011573 0.024149 -0.003446 0.003059 0.000000 0.000000
# 3 -0.003446 -0.003446 0.009057 0.000000 0.000000 0.000000
# 4 -0.003059 0.003059 0.000000 0.048199 0.000000 0.000000
# 5 0.000000 0.000000 0.000000 0.000000 0.048199 -0.006117
# 6 0.000000 0.000000 0.000000 0.000000 -0.006117 0.071444
#
#
# Mechanical properties :
#
#
# Convention : Reuss Voigt Hill
#
# Bulk Modulus (GPa) = 48.96209 54.81750 51.88980
# Shear Modulus (GPa) = 18.59181 21.60259 20.09720
#
# Velocity S-wave (km/s) = 3.29924 3.55636 3.43021
# Velocity P-wave (km/s) = 6.57109 6.99697 6.78737
#
# Compressibility (1/GPa) = 0.02042396
#
# Stress axis : x y z
#
# Youngs Moduli (GPa) = 41.40968 41.40968 110.41355
#
# Poissons Ratio (x) = 0.47924 0.38050
# Poissons Ratio (y) = 0.47924 0.38050
# Poissons Ratio (z) = 0.14270 0.14270
#
# Static dielectric constant tensor:
#      x y z
#    x 2.986900 0.000000 0.000000 
#    y 0.000000 2.986900 0.000000 
#    z 0.000000 0.000000 3.582150 
# 
# 
# High freq. dielectric constant tensor:
#      x y z
#    x 1.644250 0.000000 0.000000 
#    y 0.000000 1.644250 0.000000 
#    z 0.000000 0.000000 1.689590 
# 
# From -- ./inp_files/4848.got.cif
#   From: 2010.03.12/outbox.cif.g09.slc.cpg/sg164_3_cif.got.tgz:4848.got - 2010.04.02 06:32:59.
