data_PCOD8323831
_publ_section_title
;
Structure prediction by ZEFSAII (Michael W. Deem and Ramdas Pophale) SiO2 
 PCOD8323831
Probable space group: P -3 M 1
;
_chemical_formula_sum "Si O2"
_cell_formula_units_Z 60
_cell_length_a 17.462891
_cell_length_b 17.462891
_cell_length_c 16.734651
_cell_angle_alpha 90.000000
_cell_angle_beta 90.000000
_cell_angle_gamma 120.000000
_cell_volume 4419.565531
_symmetry_space_group_name_H-M "P -3 M 1"
_symmetry_group_IT_number 164
_symmetry_cell_setting 'hexagonal'
loop_
_space_group_symop_operation_xyz
x,y,z
-y,x-y,z
-x+y,-x,z
x-y,-y,-z
-x,-x+y,-z
y,x,-z
-x,-y,-z
y,-x+y,-z
x-y,x,-z
-x+y,y,z
x,x-y,z
-y,-x,z
loop_
_atom_site_type_symbol
_atom_site_label
_atom_site_fract_x
_atom_site_fract_y
_atom_site_fract_z
Si Si1 0.488892 0.156216 0.090520
Si Si2 1.000000 0.409456 0.378804
Si Si3 0.999999 0.591372 0.799952
Si Si4 0.483790 0.334053 0.500000
Si Si5 0.488892 0.156216 0.909479
O O1 0.586227 0.172453 0.103572
O O2 0.492544 0.246272 0.111202
O O3 0.420449 0.084849 0.152371
O O4 0.456639 0.124324 1.000000
O O5 0.000000 0.500000 0.375657
O O6 0.000000 0.374511 0.289613
O O7 0.090337 0.429625 0.423487
O O8 0.909662 0.339288 0.423487
O O9 0.999998 0.499999 0.799419
O O10 0.915151 0.579554 0.847630
O O11 0.483109 0.241555 0.500000
O O12 0.585220 0.414781 0.500000
O O13 0.586225 0.172449 0.896426
O O14 0.492549 0.246275 0.888799
#
# Coordination Sequence:
#
# PCOD8323831 Si02
#       5
#    12  12  12  12  12
#     4   9  16  25  37  53  73  98 129 163 193 219
#     4   8  16  28  38  52  75  97 118 152 192 222
#     4   9  16  26  38  51  71  99 126 151 186 229
#     4   9  16  27  42  57  73  95 124 155 188 225
#     4   9  16  25  37  53  73  98 129 163 193 219
#
# _framework density 13.575995000000001
#
# number of rings (size 3 to 8) (size 9 to 14) (size 15 to 20)
#    0.000    3.200    0.000    2.400    0.000    5.600 
#    0.000    0.000    0.000    4.800    0.000    0.000 
#    0.000    0.000    0.000   19.800    0.000   31.000 
#
# Total GULP energy -743574.199606 kJ/mol
# GULP energy per Si atom -12392.903327 kJ/mol
# Density = 1.354510 g / cm^3
# Si number density = 13.575995 Si / 1000 Ang^3
#
#
#
# Elastic Constant Matrix: (Units=GPa)
#
#
# Indices 1 2 3 4 5 6 
#
# 1 70.9315 33.4046 49.8741 -0.0002 0.0000 0.0000
# 2 33.4046 70.9315 49.8741 0.0002 0.0000 0.0000
# 3 49.8741 49.8741 127.4771 0.0000 0.0000 0.0000
# 4 -0.0002 0.0002 0.0000 13.4628 0.0000 0.0000
# 5 0.0000 0.0000 0.0000 0.0000 13.4628 -0.0002
# 6 0.0000 0.0000 0.0000 0.0000 -0.0002 18.7634
#
#
#
# Elastic Compliance Matrix: (Units=1/GPa)
#
#
# Indices 1 2 3 4 5 6 
#
# 1 0.020980 -0.005668 -0.005990 0.000000 0.000000 0.000000
# 2 -0.005668 0.020980 -0.005990 0.000000 0.000000 0.000000
# 3 -0.005990 -0.005990 0.012532 0.000000 0.000000 0.000000
# 4 0.000000 0.000000 0.000000 0.074279 0.000000 0.000000
# 5 0.000000 0.000000 0.000000 0.000000 0.074279 0.000001
# 6 0.000000 0.000000 0.000000 0.000000 0.000001 0.053295
#
#
# Mechanical properties :
#
#
# Convention : Reuss Voigt Hill
#
# Bulk Modulus (GPa) = 52.10218 59.51617 55.80917
# Shear Modulus (GPa) = 16.77628 18.21693 17.49661
#
# Velocity S-wave (km/s) = 3.51911 3.66710 3.59387
# Velocity P-wave (km/s) = 7.41442 7.86541 7.64324
#
# Compressibility (1/GPa) = 0.01919306
#
# Stress axis : x y z
#
# Youngs Moduli (GPa) = 47.66555 47.66555 79.79611
#
# Poissons Ratio (x) = 0.27017 0.47801
# Poissons Ratio (y) = 0.27017 0.47801
# Poissons Ratio (z) = 0.28554 0.28554
#
# Static dielectric constant tensor:
#      x y z
#    x 2.500220 0.000000 0.000000 
#    y 0.000000 2.500220 0.000000 
#    z 0.000000 0.000000 3.137510 
# 
# 
# High freq. dielectric constant tensor:
#      x y z
#    x 1.487820 0.000000 0.000000 
#    y 0.000000 1.487820 0.000000 
#    z 0.000000 0.000000 1.529940 
# 
# From -- ./inp_files/3369.got.cif
#   From: 2010.03.12/outbox.cif.g09.slc.cpg/sg164_2_cif.got.tgz:3369.got - 2010.04.02 06:32:59.
