data_PCOD8323415
_publ_section_title
;
Structure prediction by ZEFSAII (Michael W. Deem and Ramdas Pophale) SiO2 
 PCOD8323415
Probable space group: P -3 M 1
;
_chemical_formula_sum "Si O2"
_cell_formula_units_Z 96
_cell_length_a 16.881574
_cell_length_b 16.881574
_cell_length_c 24.762844
_cell_angle_alpha 90.000000
_cell_angle_beta 90.000000
_cell_angle_gamma 120.000000
_cell_volume 6111.629620
_symmetry_space_group_name_H-M "P -3 M 1"
_symmetry_group_IT_number 164
_symmetry_cell_setting 'hexagonal'
loop_
_space_group_symop_operation_xyz
x,y,z
-y,x-y,z
-x+y,-x,z
x-y,-y,-z
-x,-x+y,-z
y,x,-z
-x,-y,-z
y,-x+y,-z
x-y,x,-z
-x+y,y,z
x,x-y,z
-y,-x,z
loop_
_atom_site_type_symbol
_atom_site_label
_atom_site_fract_x
_atom_site_fract_y
_atom_site_fract_z
Si Si1 0.609388 0.574142 0.916803
Si Si2 0.059073 0.296772 0.661095
Si Si3 0.370774 0.276511 0.809038
Si Si4 0.390161 0.430115 0.297120
Si Si5 0.707272 0.945829 0.444966
Si Si6 0.000518 0.177369 0.762429
Si Si7 0.666027 0.518664 0.022855
Si Si8 0.153896 0.487608 0.401318
O O1 0.521059 0.478942 0.902185
O O2 0.673539 0.608948 0.865554
O O3 0.577999 0.647092 0.933211
O O4 0.665340 0.559365 0.964378
O O5 0.167478 0.334955 0.659585
O O6 0.006828 0.211424 0.701236
O O7 0.045095 0.379268 0.682723
O O8 0.017623 0.260346 0.602586
O O9 0.402608 0.201304 0.809384
O O10 0.424597 0.347500 0.761372
O O11 0.262405 0.229923 0.801740
O O12 0.497819 0.502182 0.294952
O O13 0.337786 0.460188 0.339491
O O14 0.733584 0.866792 0.441407
O O15 0.597994 0.902654 0.440893
O O16 0.743113 0.000000 0.500000
O O17 0.097897 0.195794 0.784141
O O18 0.930291 0.069710 0.762602
O O19 0.763891 0.527782 0.034381
O O20 0.587443 0.412558 0.026246
O O21 0.260974 0.521948 0.403746
O O22 0.137428 0.568714 0.421519
#
# Coordination Sequence:
#
# PCOD8323415 Si02
#       8
#    12  12  12  12  12  12  12  12
#     4   9  18  30  44  64  89 116 144 176 217 259
#     4   9  17  30  47  65  85 112 146 179 212 254
#     4  10  18  28  44  65  89 116 143 171 208 256
#     4   9  17  29  46  67  90 116 144 175 212 253
#     4  10  19  30  45  64  86 113 143 176 217 261
#     4   9  17  28  43  63  86 112 142 176 212 250
#     4   9  17  30  47  65  85 112 147 184 219 254
#     4   9  17  29  45  65  88 114 144 177 213 253
#
# _framework density 15.707758
#
# number of rings (size 3 to 8) (size 9 to 14) (size 15 to 20)
#    0.000    2.750    0.000    3.000    0.000    3.750 
#    0.000    0.000    0.000    6.750    0.000    0.000 
#    0.000    0.000    0.000   15.500    0.000    0.000 
#
# Total GULP energy -1190268.442772 kJ/mol
# GULP energy per Si atom -12398.629612 kJ/mol
# Density = 1.567201 g / cm^3
# Si number density = 15.707758 Si / 1000 Ang^3
#
#
#
# Elastic Constant Matrix: (Units=GPa)
#
#
# Indices 1 2 3 4 5 6 
#
# 1 99.4299 55.0534 44.0742 -1.9210 0.0000 0.0000
# 2 55.0534 99.4299 44.0742 1.9210 0.0000 0.0000
# 3 44.0742 44.0742 96.7415 0.0000 0.0000 0.0000
# 4 -1.9210 1.9210 0.0000 19.5415 0.0000 0.0000
# 5 0.0000 0.0000 0.0000 0.0000 19.5415 -1.9210
# 6 0.0000 0.0000 0.0000 0.0000 -1.9210 22.1883
#
#
#
# Elastic Compliance Matrix: (Units=1/GPa)
#
#
# Indices 1 2 3 4 5 6 
#
# 1 0.015737 -0.006990 -0.003985 0.002234 0.000000 0.000000
# 2 -0.006990 0.015737 -0.003985 -0.002234 0.000000 0.000000
# 3 -0.003985 -0.003985 0.013968 0.000000 0.000000 0.000000
# 4 0.002234 -0.002234 0.000000 0.051612 0.000000 0.000000
# 5 0.000000 0.000000 0.000000 0.000000 0.051612 0.004468
# 6 0.000000 0.000000 0.000000 0.000000 0.004468 0.045456
#
#
# Mechanical properties :
#
#
# Convention : Reuss Voigt Hill
#
# Bulk Modulus (GPa) = 64.42542 64.66723 64.54632
# Shear Modulus (GPa) = 21.81326 22.41422 22.11374
#
# Velocity S-wave (km/s) = 3.73056 3.78160 3.75617
# Velocity P-wave (km/s) = 7.72400 7.76696 7.74551
#
# Compressibility (1/GPa) = 0.01552182
#
# Stress axis : x y z
#
# Youngs Moduli (GPa) = 63.54264 63.54264 71.59269
#
# Poissons Ratio (x) = 0.44419 0.28530
# Poissons Ratio (y) = 0.44419 0.28530
# Poissons Ratio (z) = 0.25322 0.25322
#
# Static dielectric constant tensor:
#      x y z
#    x 3.004410 0.000000 0.000000 
#    y 0.000000 3.004410 0.000000 
#    z 0.000000 0.000000 2.865380 
# 
# 
# High freq. dielectric constant tensor:
#      x y z
#    x 1.601150 0.000000 0.000000 
#    y 0.000000 1.601150 0.000000 
#    z 0.000000 0.000000 1.596520 
# 
# From -- ./inp_files/5100.got.cif
#   From: 2010.03.12/outbox.cif.g09.slc.cpg/sg164_3_cif.got.tgz:5100.got - 2010.04.02 06:32:59.
