data_PCOD8323046
_publ_section_title
;
Structure prediction by ZEFSAII (Michael W. Deem and Ramdas Pophale) SiO2 
 PCOD8323046
Probable space group: P -3 1 M 
;
_chemical_formula_sum "Si O2"
_cell_formula_units_Z 80
_cell_length_a 18.350046
_cell_length_b 18.350046
_cell_length_c 17.007532
_cell_angle_alpha 90.000000
_cell_angle_beta 90.000000
_cell_angle_gamma 120.000000
_cell_volume 4959.595337
_symmetry_space_group_name_H-M "P -3 1 M "
_symmetry_group_IT_number 162
_symmetry_cell_setting 'hexagonal'
loop_
_space_group_symop_operation_xyz
x,y,z
-y,x-y,z
-x+y,-x,z
-y,-x,-z
-x+y,y,-z
x,x-y,-z
-x,-y,-z
y,-x+y,-z
x-y,x,-z
y,x,z
x-y,-y,z
-x,-x+y,z
loop_
_atom_site_type_symbol
_atom_site_label
_atom_site_fract_x
_atom_site_fract_y
_atom_site_fract_z
Si Si1 0.524038 0.760562 0.410684
Si Si2 0.524598 0.617020 0.679117
Si Si3 0.666667 0.333334 0.186272
Si Si4 0.276514 0.475027 0.845359
Si Si5 0.691268 0.599184 0.838150
Si Si6 0.642983 0.097468 0.693573
Si Si7 0.533481 0.628366 0.010412
Si Si8 0.666668 0.333334 0.625844
O O1 0.556027 0.778014 0.500000
O O2 0.547542 0.846627 0.367258
O O3 0.573465 0.721148 0.365238
O O4 0.425072 0.696173 0.407342
O O5 0.588846 0.588846 0.646381
O O6 0.533484 0.629214 0.773303
O O7 0.429840 0.544776 0.662776
O O8 0.710126 0.430325 0.156902
O O9 0.666668 0.333334 0.280234
O O10 0.179688 0.400904 0.827249
O O11 0.335027 0.465220 0.782151
O O12 0.298414 0.454961 0.931041
O O13 0.686659 0.686659 0.828227
O O14 0.663756 0.566829 0.925171
O O15 0.615579 0.000000 0.691276
O O16 0.581049 0.581049 0.044754
O O17 0.435038 0.564963 0.000000
#
# Coordination Sequence:
#
# PCOD8323046 Si02
#       8
#    12  12   4  12  12  12  12   4
#     4  12  22  34  52  72  96 127 167 216 257 297
#     4  10  20  36  52  69  95 134 169 204 252 305
#     4  12  21  31  53  70  94 134 178 219 251 302
#     4  12  20  33  50  72  99 131 172 213 258 294
#     4  10  20  34  50  67  91 129 171 210 252 301
#     4  11  22  34  51  73 100 128 165 209 255 301
#     4  10  20  32  47  70 101 134 168 207 251 295
#     4  12  19  34  48  73  92 131 172 208 256 298
#
# _framework density 16.130348999999999
#
# number of rings (size 3 to 8) (size 9 to 14) (size 15 to 20)
#    0.000    1.050    4.500    4.050    0.000    3.000 
#    0.000    3.000    0.000    0.000    0.000    0.000 
#    0.000    0.000    0.000    8.100    0.000   32.850 
#
# Total GULP energy -991489.118927 kJ/mol
# GULP energy per Si atom -12393.613987 kJ/mol
# Density = 1.609364 g / cm^3
# Si number density = 16.130349 Si / 1000 Ang^3
#
#
#
# Elastic Constant Matrix: (Units=GPa)
#
#
# Indices 1 2 3 4 5 6 
#
# 1 85.3286 46.3414 32.9072 -0.0007 10.0045 -0.0001
# 2 46.3414 85.3284 32.9075 -0.0004 -10.0051 -0.0001
# 3 32.9072 32.9075 100.0010 0.0013 0.0007 0.0003
# 4 -0.0007 -0.0004 0.0013 -28.4478 -0.0023 -10.0052
# 5 10.0045 -10.0051 0.0007 -0.0023 -28.4451 -0.0009
# 6 -0.0001 -0.0001 0.0003 -10.0052 -0.0009 19.4935
#
#
#
# Elastic Compliance Matrix: (Units=1/GPa)
#
#
# Indices 1 2 3 4 5 6 
#
# 1 0.015409 -0.006319 -0.002991 -0.000001 0.007642 0.000000
# 2 -0.006319 0.015409 -0.002991 0.000000 -0.007642 0.000000
# 3 -0.002991 -0.002991 0.011969 0.000001 0.000000 0.000000
# 4 -0.000001 0.000000 0.000001 -0.029777 0.000002 -0.015283
# 5 0.007642 -0.007642 0.000000 0.000002 -0.029780 0.000000
# 6 0.000000 0.000000 0.000000 -0.015283 0.000000 0.043455
#
#
# Mechanical properties :
#
#
# Convention : Reuss Voigt Hill
#
# Bulk Modulus (GPa) = 54.99499 54.99669 54.99584
# Shear Modulus (GPa) = 87.18757 3.08690 45.13723
#
# Velocity S-wave (km/s) = 7.35997 1.38487 5.29562
# Velocity P-wave (km/s) = 10.31473 6.06023 8.45932
#
# Compressibility (1/GPa) = 0.01818348
#
# Stress axis : x y z
#
# Youngs Moduli (GPa) = 64.89851 64.89883 83.55238
#
# Poissons Ratio (x) = 0.41008 0.24993
# Poissons Ratio (y) = 0.41008 0.24992
# Poissons Ratio (z) = 0.19413 0.19412
#
# Static dielectric constant tensor:
#      x y z
#    x 3.116170 0.000000 0.000000 
#    y 0.000000 3.116170 0.000000 
#    z 0.000000 0.000000 2.965560 
# 
# 
# High freq. dielectric constant tensor:
#      x y z
#    x 1.595180 0.000000 0.000000 
#    y 0.000000 1.595180 0.000000 
#    z 0.000000 0.000000 1.634310 
# 
# From -- ./inp_files/3642.got.cif
#   From: 2010.03.12/outbox.cif.g09.slc.cpg/sg162_2_cif.got.tgz:3642.got - 2010.04.02 06:27:41.
