data_PCOD8323161
_publ_section_title
;
Structure prediction by ZEFSAII (Michael W. Deem and Ramdas Pophale) SiO2 
 PCOD8323161
Probable space group: P -3 1 M 
;
_chemical_formula_sum "Si O2"
_cell_formula_units_Z 46
_cell_length_a 15.612181
_cell_length_b 15.612181
_cell_length_c 10.374103
_cell_angle_alpha 90.000000
_cell_angle_beta 90.000000
_cell_angle_gamma 120.000000
_cell_volume 2189.819620
_symmetry_space_group_name_H-M "P -3 1 M "
_symmetry_group_IT_number 162
_symmetry_cell_setting 'hexagonal'
loop_
_space_group_symop_operation_xyz
x,y,z
-y,x-y,z
-x+y,-x,z
-y,-x,-z
-x+y,y,-z
x,x-y,-z
-x,-y,-z
y,-x+y,-z
x-y,x,-z
y,x,z
x-y,-y,z
-x,-x+y,z
loop_
_atom_site_type_symbol
_atom_site_label
_atom_site_fract_x
_atom_site_fract_y
_atom_site_fract_z
Si Si1 0.468598 0.000000 0.855789
Si Si2 0.333335 0.666668 0.652933
Si Si3 0.482516 0.334285 0.735943
Si Si4 0.398592 0.000000 0.476884
Si Si5 0.707575 0.000000 0.260579
Si Si6 0.886034 0.707162 0.856723
O O1 0.455794 0.903138 0.783374
O O2 0.365246 0.000000 0.851387
O O3 0.500000 0.000000 0.000000
O O4 0.333334 0.666667 0.500000
O O5 0.294703 0.557161 0.706703
O O6 0.423089 0.325793 0.604845
O O7 0.405290 0.268978 0.846670
O O8 0.500000 0.000000 0.500000
O O9 0.341751 0.000000 0.604365
O O10 0.720538 0.904613 0.245639
O O11 0.000000 0.784400 0.822501
O O12 0.863980 0.727959 0.000000
#
# Coordination Sequence:
#
# PCOD8323161 Si02
#       6
#     6   4  12   6   6  12
#     4  11  21  42  68 104 137 185 233 296 360 425
#     4  12  27  39  64 104 145 189 228 274 332 418
#     4  11  24  43  66 103 148 180 238 283 343 430
#     4  11  22  44  68 106 139 188 236 282 354 421
#     4  12  25  41  77  99 141 194 231 297 372 424
#     4  12  25  49  71 105 138 182 242 298 365 429
#
# _framework density 21.006295000000001
#
# number of rings (size 3 to 8) (size 9 to 14) (size 15 to 20)
#    0.000    0.522    6.522    3.913    3.652    0.000 
#    0.783    1.957    0.000    0.000    0.000    1.826 
#    0.000    0.000    0.000    0.000    0.000    0.000 
#
# Total GULP energy -570556.505415 kJ/mol
# GULP energy per Si atom -12403.402292 kJ/mol
# Density = 2.095848 g / cm^3
# Si number density = 21.006295 Si / 1000 Ang^3
#
#
#
# Elastic Constant Matrix: (Units=GPa)
#
#
# Indices 1 2 3 4 5 6 
#
# 1 130.0702 60.4348 38.7211 0.0002 -2.1953 0.0000
# 2 60.4348 130.0705 38.7212 0.0003 2.1954 0.0004
# 3 38.7211 38.7212 112.8229 0.0001 0.0000 0.0001
# 4 0.0002 0.0003 0.0001 31.2321 0.0000 2.1955
# 5 -2.1953 2.1954 0.0000 0.0000 31.2321 0.0000
# 6 0.0000 0.0004 0.0001 2.1955 0.0000 34.8180
#
#
#
# Elastic Compliance Matrix: (Units=1/GPa)
#
#
# Indices 1 2 3 4 5 6 
#
# 1 0.010262 -0.004162 -0.002094 0.000000 0.001014 0.000000
# 2 -0.004162 0.010262 -0.002094 0.000000 -0.001014 0.000000
# 3 -0.002094 -0.002094 0.010301 0.000000 0.000000 0.000000
# 4 0.000000 0.000000 0.000000 0.032161 0.000000 -0.002028
# 5 0.001014 -0.001014 0.000000 0.000000 0.032161 0.000000
# 6 0.000000 0.000000 0.000000 -0.002028 0.000000 0.028849
#
#
# Mechanical properties :
#
#
# Convention : Reuss Voigt Hill
#
# Bulk Modulus (GPa) = 70.78862 72.07975 71.43419
# Shear Modulus (GPa) = 34.38714 35.12887 34.75801
#
# Velocity S-wave (km/s) = 4.05037 4.09382 4.07215
# Velocity P-wave (km/s) = 7.45962 7.53218 7.49598
#
# Compressibility (1/GPa) = 0.01412656
#
# Stress axis : x y z
#
# Youngs Moduli (GPa) = 97.44349 97.44369 97.08235
#
# Poissons Ratio (x) = 0.40557 0.20325
# Poissons Ratio (y) = 0.40557 0.20326
# Poissons Ratio (z) = 0.20401 0.20401
#
# Static dielectric constant tensor:
#      x y z
#    x 4.781870 0.000320 -0.000030 
#    y 0.000320 4.781850 -0.000050 
#    z -0.000030 -0.000050 3.849490 
# 
# 
# High freq. dielectric constant tensor:
#      x y z
#    x 1.821060 0.000000 0.000000 
#    y 0.000000 1.821060 0.000000 
#    z 0.000000 0.000000 1.823440 
# 
# From -- ./inp_files/2118.got.cif
#   From: 2010.03.12/outbox.cif.g09.slc.cpg/sg162_2_cif.got.tgz:2118.got - 2010.04.02 06:27:41.
