data_PCOD8323558
_publ_section_title
;
Structure prediction by ZEFSAII (Michael W. Deem and Ramdas Pophale) SiO2 
 PCOD8323558
Probable space group: P -3 M 1
;
_chemical_formula_sum "Si O2"
_cell_formula_units_Z 48
_cell_length_a 18.352869
_cell_length_b 18.352869
_cell_length_c 8.884763
_cell_angle_alpha 90.000000
_cell_angle_beta 90.000000
_cell_angle_gamma 120.000000
_cell_volume 2591.698090
_symmetry_space_group_name_H-M "P -3 M 1"
_symmetry_group_IT_number 164
_symmetry_cell_setting 'hexagonal'
loop_
_space_group_symop_operation_xyz
x,y,z
-y,x-y,z
-x+y,-x,z
x-y,-y,-z
-x,-x+y,-z
y,x,-z
-x,-y,-z
y,-x+y,-z
x-y,x,-z
-x+y,y,z
x,x-y,z
-y,-x,z
loop_
_atom_site_type_symbol
_atom_site_label
_atom_site_fract_x
_atom_site_fract_y
_atom_site_fract_z
Si Si1 0.665138 0.677527 0.176873
Si Si2 0.668910 0.166723 0.689368
Si Si3 0.836700 0.000240 0.821030
Si Si4 0.379196 0.461011 0.603581
O O1 0.581080 0.679400 0.215870
O O2 0.746549 0.762194 0.234697
O O3 0.669884 0.601155 0.258939
O O4 0.666590 0.666590 0.000000
O O5 0.577636 0.155271 0.724584
O O6 0.741013 0.258988 0.739589
O O7 0.680016 0.157233 0.509868
O O8 0.823462 0.911731 0.758202
O O9 0.924375 0.075626 0.757426
O O10 0.838901 0.000000 0.000000
O O11 0.421530 0.421530 0.500000
O O12 0.451046 0.548955 0.674070
#
# Coordination Sequence:
#
# PCOD8323558 Si02
#       4
#    12  12  12  12
#     4  10  19  31  52  80 108 133 167 216 269 321
#     4  10  20  35  54  75 102 138 180 221 262 313
#     4   9  17  29  45  67  97 132 167 202 244 297
#     4   8  16  31  49  70  96 128 166 206 249 298
#
# _framework density 18.520678
#
# number of rings (size 3 to 8) (size 9 to 14) (size 15 to 20)
#    0.000    2.750    0.000    3.500    0.000    5.000 
#    0.000    0.000    0.000    0.000    0.000    3.500 
#    0.000   20.000    0.000    0.000    0.000    0.000 
#
# Total GULP energy -594926.035386 kJ/mol
# GULP energy per Si atom -12394.292404 kJ/mol
# Density = 1.847852 g / cm^3
# Si number density = 18.520678 Si / 1000 Ang^3
#
#
#
# Elastic Constant Matrix: (Units=GPa)
#
#
# Indices 1 2 3 4 5 6 
#
# 1 130.0797 78.7204 33.5475 -2.5698 0.0000 0.0000
# 2 78.7204 130.0797 33.5475 2.5698 0.0000 0.0000
# 3 33.5475 33.5475 56.4709 0.0000 0.0000 0.0000
# 4 -2.5698 2.5698 0.0000 20.8540 0.0000 0.0000
# 5 0.0000 0.0000 0.0000 0.0000 20.8540 -2.5698
# 6 0.0000 0.0000 0.0000 0.0000 -2.5698 25.6796
#
#
#
# Elastic Compliance Matrix: (Units=1/GPa)
#
#
# Indices 1 2 3 4 5 6 
#
# 1 0.012817 -0.006897 -0.003516 0.002429 0.000000 0.000000
# 2 -0.006897 0.012817 -0.003516 -0.002429 0.000000 0.000000
# 3 -0.003516 -0.003516 0.021886 0.000000 0.000000 0.000000
# 4 0.002429 -0.002429 0.000000 0.048551 0.000000 0.000000
# 5 0.000000 0.000000 0.000000 0.000000 0.048551 0.004859
# 6 0.000000 0.000000 0.000000 0.000000 0.004859 0.039428
#
#
# Mechanical properties :
#
#
# Convention : Reuss Voigt Hill
#
# Bulk Modulus (GPa) = 50.86733 67.58458 59.22596
# Shear Modulus (GPa) = 22.88726 24.86520 23.87623
#
# Velocity S-wave (km/s) = 3.51916 3.66808 3.59439
# Velocity P-wave (km/s) = 6.63607 7.38311 7.01954
#
# Compressibility (1/GPa) = 0.01965898
#
# Stress axis : x y z
#
# Youngs Moduli (GPa) = 78.02440 78.02440 45.69091
#
# Poissons Ratio (x) = 0.53816 0.16067
# Poissons Ratio (y) = 0.53816 0.16067
# Poissons Ratio (z) = 0.27437 0.27437
#
# Static dielectric constant tensor:
#      x y z
#    x 3.587120 0.000000 0.000000 
#    y 0.000000 3.587120 0.000000 
#    z 0.000000 0.000000 3.183600 
# 
# 
# High freq. dielectric constant tensor:
#      x y z
#    x 1.720990 0.000000 0.000000 
#    y 0.000000 1.720990 0.000000 
#    z 0.000000 0.000000 1.682670 
# 
# From -- ./inp_files/1240.got.cif
#   From: 2010.03.12/outbox.cif.g09.slc.cpg/sg164_1_cif.got.tgz:1240.got - 2010.04.02 06:32:59.
