data_PCOD8323273
_publ_section_title
;
Structure prediction by ZEFSAII (Michael W. Deem and Ramdas Pophale) SiO2 
 PCOD8323273
Probable space group: P -3 1 C
;
_chemical_formula_sum "Si O2"
_cell_formula_units_Z 84
_cell_length_a 17.553146
_cell_length_b 17.553146
_cell_length_c 15.461184
_cell_angle_alpha 90.000000
_cell_angle_beta 90.000000
_cell_angle_gamma 120.000000
_cell_volume 4125.563828
_symmetry_space_group_name_H-M "P -3 1 C"
_symmetry_group_IT_number 163
_symmetry_cell_setting 'hexagonal'
loop_
_space_group_symop_operation_xyz
x,y,z
-y,x-y,z
-x+y,-x,z
-y,-x,1/2-z
-x+y,y,1/2-z
x,x-y,1/2-z
-x,-y,-z
y,-x+y,-z
x-y,x,-z
y,x,1/2+z
x-y,-y,1/2+z
-x,-x+y,1/2+z
loop_
_atom_site_type_symbol
_atom_site_label
_atom_site_fract_x
_atom_site_fract_y
_atom_site_fract_z
Si Si1 0.314513 0.465062 0.255682
Si Si2 0.495450 0.238255 0.152770
Si Si3 0.092944 0.204482 0.001740
Si Si4 0.551916 0.129325 0.423373
Si Si5 0.185685 0.274333 0.325828
Si Si6 0.293614 0.179125 0.339464
Si Si7 0.449127 0.521423 0.118985
O O1 0.257981 0.515961 0.250000
O O2 0.247362 0.372067 0.295140
O O3 0.352204 0.457921 0.160978
O O4 0.393323 0.510559 0.322057
O O5 0.533470 0.266735 0.250000
O O6 0.549506 0.199013 0.106682
O O7 0.497157 0.318267 0.098227
O O8 0.397491 0.157517 0.159818
O O9 0.110107 0.265466 0.918004
O O10 0.137990 0.146689 0.986666
O O11 0.133502 0.267003 0.085718
O O12 0.556303 0.110254 0.523926
O O13 0.506416 0.034292 0.375729
O O14 0.112244 0.224487 0.250000
O O15 0.250252 0.238831 0.349210
O O16 0.257623 0.128812 0.250000
#
# Coordination Sequence:
#
# PCOD8323273 Si02
#       7
#    12  12  12  12  12  12  12
#     4  10  23  42  67  93 125 168 213 269 338 386
#     4  11  25  40  67  93 130 171 216 272 327 401
#     4  10  21  38  59  89 126 168 212 264 322 392
#     4  11  25  45  68  99 132 178 224 275 337 404
#     4  10  21  37  62  90 125 163 210 267 319 391
#     4  10  22  37  58  93 121 166 210 264 322 379
#     4  10  25  44  68  96 132 174 220 282 340 400
#
# _framework density 20.360854
#
# number of rings (size 3 to 8) (size 9 to 14) (size 15 to 20)
#    0.000    1.714    0.000    2.571   12.000    1.143 
#    6.000    0.000    0.000    4.571    0.000    0.000 
#    0.000    0.000    0.000    0.000    0.000    0.000 
#
# Total GULP energy -1040991.439506 kJ/mol
# GULP energy per Si atom -12392.755232 kJ/mol
# Density = 2.031451 g / cm^3
# Si number density = 20.360854 Si / 1000 Ang^3
#
#
#
# Elastic Constant Matrix: (Units=GPa)
#
#
# Indices 1 2 3 4 5 6 
#
# 1 102.3629 44.9472 48.5591 0.0001 3.3003 0.0000
# 2 44.9472 102.3629 48.5591 -0.0001 -3.3003 0.0000
# 3 48.5591 48.5591 161.7417 0.0000 0.0000 0.0000
# 4 0.0001 -0.0001 0.0000 29.3870 0.0000 -3.3003
# 5 3.3003 -3.3003 0.0000 0.0000 29.3870 0.0001
# 6 0.0000 0.0000 0.0000 -3.3003 0.0001 28.7078
#
#
#
# Elastic Compliance Matrix: (Units=1/GPa)
#
#
# Indices 1 2 3 4 5 6 
#
# 1 0.013054 -0.004591 -0.002541 0.000000 -0.001982 0.000000
# 2 -0.004591 0.013054 -0.002541 0.000000 0.001982 0.000000
# 3 -0.002541 -0.002541 0.007708 0.000000 0.000000 0.000000
# 4 0.000000 0.000000 0.000000 0.034474 0.000000 0.003963
# 5 -0.001982 0.001982 0.000000 0.000000 0.034474 0.000000
# 6 0.000000 0.000000 0.000000 0.003963 0.000000 0.035289
#
#
# Mechanical properties :
#
#
# Convention : Reuss Voigt Hill
#
# Bulk Modulus (GPa) = 69.10042 72.28869 70.69455
# Shear Modulus (GPa) = 30.82187 32.45650 31.63918
#
# Velocity S-wave (km/s) = 3.89495 3.99690 3.94626
# Velocity P-wave (km/s) = 7.36472 7.54196 7.45387
#
# Compressibility (1/GPa) = 0.01447169
#
# Stress axis : x y z
#
# Youngs Moduli (GPa) = 76.60401 76.60401 129.72780
#
# Poissons Ratio (x) = 0.35165 0.32964
# Poissons Ratio (y) = 0.35165 0.32964
# Poissons Ratio (z) = 0.19465 0.19465
#
# Static dielectric constant tensor:
#      x y z
#    x 4.291940 0.000000 0.000000 
#    y 0.000000 4.291940 0.000000 
#    z 0.000000 0.000000 4.564880 
# 
# 
# High freq. dielectric constant tensor:
#      x y z
#    x 1.797920 0.000000 0.000000 
#    y 0.000000 1.797920 0.000000 
#    z 0.000000 0.000000 1.813820 
# 
# From -- ./inp_files/2671.got.cif
#   From: 2010.03.12/outbox.cif.g09.slc.cpg/sg163_2_cif.got.tgz:2671.got - 2010.04.02 06:30:25.
