data_PCOD8323278
_publ_section_title
;
Structure prediction by ZEFSAII (Michael W. Deem and Ramdas Pophale) SiO2 
 PCOD8323278
Probable space group: P -3 1 C
;
_chemical_formula_sum "Si O2"
_cell_formula_units_Z 44
_cell_length_a 12.551642
_cell_length_b 12.551642
_cell_length_c 14.900247
_cell_angle_alpha 90.000000
_cell_angle_beta 90.000000
_cell_angle_gamma 120.000000
_cell_volume 2032.942929
_symmetry_space_group_name_H-M "P -3 1 C"
_symmetry_group_IT_number 163
_symmetry_cell_setting 'hexagonal'
loop_
_space_group_symop_operation_xyz
x,y,z
-y,x-y,z
-x+y,-x,z
-y,-x,1/2-z
-x+y,y,1/2-z
x,x-y,1/2-z
-x,-y,-z
y,-x+y,-z
x-y,x,-z
y,x,1/2+z
x-y,-y,1/2+z
-x,-x+y,1/2+z
loop_
_atom_site_type_symbol
_atom_site_label
_atom_site_fract_x
_atom_site_fract_y
_atom_site_fract_z
Si Si1 0.333334 0.666666 0.404178
Si Si2 0.435973 0.083475 0.909251
Si Si3 0.556001 0.638284 0.608642
Si Si4 0.333334 0.666668 0.882184
Si Si5 0.751888 0.753830 0.254783
O O1 0.214937 0.541397 0.369534
O O2 0.333334 0.666667 0.510987
O O3 0.315077 0.024148 0.849415
O O4 0.481458 0.986682 0.908093
O O5 0.397883 0.099229 0.010600
O O6 0.460672 0.676455 0.652284
O O7 0.670437 0.667709 0.672749
O O8 0.789560 0.894780 0.250000
O O9 0.871782 0.743564 0.250000
#
# Coordination Sequence:
#
# PCOD8323278 Si02
#       5
#     4  12  12   4  12
#     4   9  18  36  64  95 125 158 202 258 316 374
#     4  10  21  39  64  94 126 159 198 249 310 374
#     4  10  21  39  64  94 126 159 198 249 310 374
#     4   9  18  36  64  95 125 158 202 258 316 374
#     4  12  26  42  60  84 118 162 210 258 310 370
#
# _framework density 21.643498000000001
#
# number of rings (size 3 to 8) (size 9 to 14) (size 15 to 20)
#    0.000    1.636    0.000    4.364    0.000    6.545 
#    0.000    5.455    0.000    3.273    0.000    0.000 
#    0.000    0.000    0.000    0.000    0.000    0.000 
#
# Total GULP energy -545527.482668 kJ/mol
# GULP energy per Si atom -12398.351879 kJ/mol
# Density = 2.159424 g / cm^3
# Si number density = 21.643498 Si / 1000 Ang^3
#
#
#
# Elastic Constant Matrix: (Units=GPa)
#
#
# Indices 1 2 3 4 5 6 
#
# 1 94.6602 6.5176 24.2848 0.0003 -0.5916 0.0000
# 2 6.5176 94.6611 24.2848 -0.0003 0.5916 0.0007
# 3 24.2848 24.2848 84.1984 0.0000 0.0000 0.0000
# 4 0.0003 -0.0003 0.0000 27.5812 0.0000 0.5915
# 5 -0.5916 0.5916 0.0000 0.0000 27.5812 0.0002
# 6 0.0000 0.0007 0.0000 0.5915 0.0002 44.0719
#
#
#
# Elastic Compliance Matrix: (Units=1/GPa)
#
#
# Indices 1 2 3 4 5 6 
#
# 1 0.011410 0.000062 -0.003309 0.000000 0.000243 0.000000
# 2 0.000062 0.011410 -0.003309 0.000000 -0.000243 0.000000
# 3 -0.003309 -0.003309 0.013785 0.000000 0.000000 0.000000
# 4 0.000000 0.000000 0.000000 0.036267 0.000000 -0.000487
# 5 0.000243 -0.000243 0.000000 0.000000 0.036267 0.000000
# 6 0.000000 0.000000 0.000000 -0.000487 0.000000 0.022697
#
#
# Mechanical properties :
#
#
# Convention : Reuss Voigt Hill
#
# Bulk Modulus (GPa) = 42.56391 42.63268 42.59829
# Shear Modulus (GPa) = 32.72690 34.40902 33.56796
#
# Velocity S-wave (km/s) = 3.89278 3.99157 3.94248
# Velocity P-wave (km/s) = 6.31772 6.40187 6.35993
#
# Compressibility (1/GPa) = 0.02349408
#
# Stress axis : x y z
#
# Youngs Moduli (GPa) = 87.64067 87.64150 72.54075
#
# Poissons Ratio (x) = -0.00541 0.24002
# Poissons Ratio (y) = -0.00541 0.24002
# Poissons Ratio (z) = 0.28998 0.28998
#
# Static dielectric constant tensor:
#      x y z
#    x 4.009290 -0.000010 0.000000 
#    y -0.000010 4.009280 0.000000 
#    z 0.000000 0.000000 4.311010 
# 
# 
# High freq. dielectric constant tensor:
#      x y z
#    x 1.849580 0.000000 0.000000 
#    y 0.000000 1.849580 0.000000 
#    z 0.000000 0.000000 1.847770 
# 
# From -- ./inp_files/2969.got.cif
#   From: 2010.03.12/outbox.cif.g09.slc.cpg/sg163_2_cif.got.tgz:2969.got - 2010.04.02 06:30:25.
