data_PCOD8323097
_publ_section_title
;
Structure prediction by ZEFSAII (Michael W. Deem and Ramdas Pophale) SiO2 
 PCOD8323097
Probable space group: P -3 1 M 
;
_chemical_formula_sum "Si O2"
_cell_formula_units_Z 96
_cell_length_a 14.217058
_cell_length_b 14.217058
_cell_length_c 26.971899
_cell_angle_alpha 90.000000
_cell_angle_beta 90.000000
_cell_angle_gamma 120.000000
_cell_volume 4721.300322
_symmetry_space_group_name_H-M "P -3 1 M "
_symmetry_group_IT_number 162
_symmetry_cell_setting 'hexagonal'
loop_
_space_group_symop_operation_xyz
x,y,z
-y,x-y,z
-x+y,-x,z
-y,-x,-z
-x+y,y,-z
x,x-y,-z
-x,-y,-z
y,-x+y,-z
x-y,x,-z
y,x,z
x-y,-y,z
-x,-x+y,z
loop_
_atom_site_type_symbol
_atom_site_label
_atom_site_fract_x
_atom_site_fract_y
_atom_site_fract_z
Si Si1 0.170395 0.727790 0.131841
Si Si2 0.332557 0.875383 0.980825
Si Si3 0.126710 0.696531 0.634772
Si Si4 0.641203 0.768503 0.707707
Si Si5 0.438057 0.871699 0.720842
Si Si6 0.121589 0.608486 0.825746
Si Si7 0.540049 0.668187 0.478241
Si Si8 0.244400 0.123165 0.195195
O O1 0.130725 0.677835 0.077999
O O2 0.301480 0.797890 0.135306
O O3 0.121319 0.624629 0.167432
O O4 0.123121 0.802995 0.150418
O O5 0.370275 0.000000 0.997627
O O6 0.212440 0.787561 0.000000
O O7 0.422848 0.845696 0.000000
O O8 0.175374 0.819358 0.655031
O O9 0.170284 0.636611 0.671007
O O10 0.159202 0.684097 0.579522
O O11 0.000000 0.644889 0.638950
O O12 0.706439 0.706439 0.698303
O O13 0.515585 0.690047 0.722065
O O14 0.692574 0.853896 0.752686
O O15 0.481177 0.836612 0.769303
O O16 0.495062 0.000000 0.721613
O O17 0.000000 0.588142 0.833522
O O18 0.424740 0.575261 0.500000
O O19 0.575750 0.787875 0.500000
O O20 0.631739 0.631739 0.487344
O O21 0.144580 0.144580 0.200923
O O22 0.200752 0.000000 0.180140
#
# Coordination Sequence:
#
# PCOD8323097 Si02
#       8
#    12  12  12  12  12  12  12  12
#     4  12  23  39  63  90 118 157 201 247 303 362
#     4  11  25  45  69  96 126 162 209 265 323 381
#     4  10  21  37  57  85 118 154 202 252 305 369
#     4  10  20  36  58  85 122 166 206 245 296 356
#     4   9  19  35  53  80 120 161 196 236 287 354
#     4  11  22  38  58  87 125 159 194 238 291 354
#     4  10  23  42  64  90 121 160 210 269 330 392
#     4  11  22  38  60  90 128 170 210 248 292 352
#
# _framework density 20.333382
#
# number of rings (size 3 to 8) (size 9 to 14) (size 15 to 20)
#    0.000    1.500    1.250    4.000    1.750    3.500 
#    0.750    0.000    0.000    0.500    0.000    0.000 
#    0.000    0.000    0.000    0.000    0.000    0.000 
#
# Total GULP energy -1189779.155090 kJ/mol
# GULP energy per Si atom -12393.532866 kJ/mol
# Density = 2.028710 g / cm^3
# Si number density = 20.333382 Si / 1000 Ang^3
#
#
#
# Elastic Constant Matrix: (Units=GPa)
#
#
# Indices 1 2 3 4 5 6 
#
# 1 102.5141 45.1586 45.7209 0.0001 1.8056 0.0000
# 2 45.1586 102.5141 45.7209 -0.0001 -1.8056 0.0000
# 3 45.7209 45.7209 124.5123 0.0000 0.0000 0.0000
# 4 0.0001 -0.0001 0.0000 31.2161 0.0000 -1.8056
# 5 1.8056 -1.8056 0.0000 0.0000 31.2161 0.0001
# 6 0.0000 0.0000 0.0000 -1.8056 0.0001 28.6777
#
#
#
# Elastic Compliance Matrix: (Units=1/GPa)
#
#
# Indices 1 2 3 4 5 6 
#
# 1 0.013132 -0.004367 -0.003218 0.000000 -0.001012 0.000000
# 2 -0.004367 0.013132 -0.003218 0.000000 0.001012 0.000000
# 3 -0.003218 -0.003218 0.010395 0.000000 0.000000 0.000000
# 4 0.000000 0.000000 0.000000 0.032152 0.000000 0.002024
# 5 -0.001012 0.001012 0.000000 0.000000 0.032152 0.000000
# 6 0.000000 0.000000 0.000000 0.002024 0.000000 0.034998
#
#
# Mechanical properties :
#
#
# Convention : Reuss Voigt Hill
#
# Bulk Modulus (GPa) = 66.44225 66.97124 66.70674
# Shear Modulus (GPa) = 30.75327 31.08465 30.91896
#
# Velocity S-wave (km/s) = 3.89324 3.91416 3.90372
# Velocity P-wave (km/s) = 7.27717 7.30997 7.29359
#
# Compressibility (1/GPa) = 0.01505066
#
# Stress axis : x y z
#
# Youngs Moduli (GPa) = 76.15143 76.15143 96.20098
#
# Poissons Ratio (x) = 0.33256 0.30961
# Poissons Ratio (y) = 0.33256 0.30961
# Poissons Ratio (z) = 0.24508 0.24508
#
# Static dielectric constant tensor:
#      x y z
#    x 3.773050 0.000000 0.000000 
#    y 0.000000 3.773050 0.000000 
#    z 0.000000 0.000000 3.874900 
# 
# 
# High freq. dielectric constant tensor:
#      x y z
#    x 1.797150 0.000000 0.000000 
#    y 0.000000 1.797150 0.000000 
#    z 0.000000 0.000000 1.787800 
# 
# From -- ./inp_files/4067.got.cif
#   From: 2010.03.12/outbox.cif.g09.slc.cpg/sg162_3_cif.got.tgz:4067.got - 2010.04.02 06:27:41.
