data_PCOD8323421
_publ_section_title
;
Structure prediction by ZEFSAII (Michael W. Deem and Ramdas Pophale) SiO2 
 PCOD8323421
Probable space group: P -3 M 1
;
_chemical_formula_sum "Si O2"
_cell_formula_units_Z 72
_cell_length_a 22.680802
_cell_length_b 22.680802
_cell_length_c 10.207011
_cell_angle_alpha 90.000000
_cell_angle_beta 90.000000
_cell_angle_gamma 120.000000
_cell_volume 4547.220656
_symmetry_space_group_name_H-M "P -3 M 1"
_symmetry_group_IT_number 164
_symmetry_cell_setting 'hexagonal'
loop_
_space_group_symop_operation_xyz
x,y,z
-y,x-y,z
-x+y,-x,z
x-y,-y,-z
-x,-x+y,-z
y,x,-z
-x,-y,-z
y,-x+y,-z
x-y,x,-z
-x+y,y,z
x,x-y,z
-y,-x,z
loop_
_atom_site_type_symbol
_atom_site_label
_atom_site_fract_x
_atom_site_fract_y
_atom_site_fract_z
Si Si1 0.254643 0.878869 0.765820
Si Si2 0.075573 0.284914 0.017479
Si Si3 0.605655 0.080069 0.848353
Si Si4 0.288183 0.211982 0.484847
Si Si5 0.623087 0.878821 0.263424
Si Si6 0.080393 0.605643 0.853451
O O1 0.200162 0.799839 0.748738
O O2 0.245498 0.921920 0.651838
O O3 0.328239 0.884461 0.760583
O O4 0.247366 0.908051 0.903782
O O5 0.128429 0.256857 0.015208
O O6 0.078113 0.321163 0.153505
O O7 0.000000 0.220604 0.000000
O O8 0.549839 0.099677 0.798349
O O9 0.671009 0.115177 0.754022
O O10 0.574386 0.999765 0.844106
O O11 0.626586 0.105504 0.997287
O O12 0.223548 0.223548 0.500000
O O13 0.261922 0.130961 0.489442
O O14 0.343769 0.251866 0.596453
O O15 0.599097 0.799549 0.250830
O O16 0.100737 0.550369 0.803779
#
# Coordination Sequence:
#
# PCOD8323421 Si02
#       6
#    12  12  12  12  12  12
#     4  10  19  30  46  67  91 120 151 188 232 273
#     4  10  18  28  45  66  87 113 147 187 227 273
#     4   9  16  26  43  66  90 116 144 178 220 264
#     4  10  20  32  47  68  95 125 153 189 237 283
#     4  10  19  30  46  67  91 120 151 188 232 273
#     4   9  16  26  43  66  90 116 144 178 220 264
#
# _framework density 15.833848
#
# number of rings (size 3 to 8) (size 9 to 14) (size 15 to 20)
#    0.000    2.333    1.667    4.000    0.000    0.000 
#    0.000    0.833    0.000    4.000    0.000    0.000 
#    0.000    8.000    0.000    0.000    0.000    1.333 
#
# Total GULP energy -892706.002786 kJ/mol
# GULP energy per Si atom -12398.694483 kJ/mol
# Density = 1.579781 g / cm^3
# Si number density = 15.833848 Si / 1000 Ang^3
#
#
#
# Elastic Constant Matrix: (Units=GPa)
#
#
# Indices 1 2 3 4 5 6 
#
# 1 96.7222 44.9129 12.2530 2.2004 0.0000 0.0000
# 2 44.9129 96.7222 12.2530 -2.2004 0.0000 0.0000
# 3 12.2530 12.2530 46.0730 0.0000 0.0000 0.0000
# 4 2.2004 -2.2004 0.0000 17.5777 0.0000 0.0000
# 5 0.0000 0.0000 0.0000 0.0000 17.5777 2.2004
# 6 0.0000 0.0000 0.0000 0.0000 2.2004 25.9046
#
#
#
# Elastic Compliance Matrix: (Units=1/GPa)
#
#
# Indices 1 2 3 4 5 6 
#
# 1 0.013455 -0.006054 -0.001968 -0.002442 0.000000 0.000000
# 2 -0.006054 0.013455 -0.001968 0.002442 0.000000 0.000000
# 3 -0.001968 -0.001968 0.022752 0.000000 0.000000 0.000000
# 4 -0.002442 0.002442 0.000000 0.057502 0.000000 0.000000
# 5 0.000000 0.000000 0.000000 0.000000 0.057502 -0.004884
# 6 0.000000 0.000000 0.000000 0.000000 -0.004884 0.039018
#
#
# Mechanical properties :
#
#
# Convention : Reuss Voigt Hill
#
# Bulk Modulus (GPa) = 33.69222 42.03946 37.86584
# Shear Modulus (GPa) = 21.40799 23.55190 22.47995
#
# Velocity S-wave (km/s) = 3.68100 3.86092 3.77203
# Velocity P-wave (km/s) = 6.27624 6.81789 6.55266
#
# Compressibility (1/GPa) = 0.02968044
#
# Stress axis : x y z
#
# Youngs Moduli (GPa) = 74.32194 74.32194 43.95299
#
# Poissons Ratio (x) = 0.44995 0.08651
# Poissons Ratio (y) = 0.44995 0.08651
# Poissons Ratio (z) = 0.14628 0.14628
#
# Static dielectric constant tensor:
#      x y z
#    x 2.998470 0.000000 0.000000 
#    y 0.000000 2.998470 0.000000 
#    z 0.000000 0.000000 3.036640 
# 
# 
# High freq. dielectric constant tensor:
#      x y z
#    x 1.593230 0.000000 0.000000 
#    y 0.000000 1.593230 0.000000 
#    z 0.000000 0.000000 1.605370 
# 
# From -- ./inp_files/1960.got.cif
#   From: 2010.03.12/outbox.cif.g09.slc.cpg/sg164_1_cif.got.tgz:1960.got - 2010.04.02 06:32:59.
