data_PCOD8323342
_publ_section_title
;
Structure prediction by ZEFSAII (Michael W. Deem and Ramdas Pophale) SiO2 
 PCOD8323342
Probable space group: P -3 1 C
;
_chemical_formula_sum "Si O2"
_cell_formula_units_Z 28
_cell_length_a 12.646316
_cell_length_b 12.646316
_cell_length_c 8.568472
_cell_angle_alpha 90.000000
_cell_angle_beta 90.000000
_cell_angle_gamma 120.000000
_cell_volume 1186.757740
_symmetry_space_group_name_H-M "P -3 1 C"
_symmetry_group_IT_number 163
_symmetry_cell_setting 'hexagonal'
loop_
_space_group_symop_operation_xyz
x,y,z
-y,x-y,z
-x+y,-x,z
-y,-x,1/2-z
-x+y,y,1/2-z
x,x-y,1/2-z
-x,-y,-z
y,-x+y,-z
x-y,x,-z
y,x,1/2+z
x-y,-y,1/2+z
-x,-x+y,1/2+z
loop_
_atom_site_type_symbol
_atom_site_label
_atom_site_fract_x
_atom_site_fract_y
_atom_site_fract_z
Si Si1 0.386502 0.898962 0.906116
Si Si2 0.781341 0.827652 0.903174
Si Si3 0.666668 0.333335 0.932707
O O1 0.433828 0.867655 0.750000
O O2 0.290024 0.941431 0.866150
O O3 0.316063 0.777335 0.008577
O O4 0.500000 0.000000 0.000000
O O5 0.826319 0.913160 0.750000
O O6 0.873348 0.778726 0.947646
O O7 0.666668 0.333334 0.750000
#
# Coordination Sequence:
#
# PCOD8323342 Si02
#       3
#    12  12   4
#     4  12  25  45  71 101 139 185 240 305 374 450
#     4  12  26  46  72 105 145 192 243 302 371 447
#     4  12  25  41  64  96 133 179 232 291 361 437
#
# _framework density 23.593693999999999
#
# number of rings (size 3 to 8) (size 9 to 14) (size 15 to 20)
#    0.000    0.000    0.000   12.000    0.000    3.429 
#    0.000    0.000    0.000    0.000    0.000    0.000 
#    0.000    0.000    0.000    0.000    0.000    0.000 
#
# Total GULP energy -347404.735455 kJ/mol
# GULP energy per Si atom -12407.311981 kJ/mol
# Density = 2.353999 g / cm^3
# Si number density = 23.593694 Si / 1000 Ang^3
#
#
#
# Elastic Constant Matrix: (Units=GPa)
#
#
# Indices 1 2 3 4 5 6 
#
# 1 110.2349 18.4515 25.0303 -0.0001 -6.2787 0.0000
# 2 18.4515 110.2359 25.0305 0.0004 6.2790 0.0005
# 3 25.0303 25.0305 143.1168 -0.0004 -0.0001 0.0000
# 4 -0.0001 0.0004 -0.0004 40.6029 0.0003 6.2790
# 5 -6.2787 6.2790 -0.0001 0.0003 40.6025 0.0001
# 6 0.0000 0.0005 0.0000 6.2790 0.0001 45.8922
#
#
#
# Elastic Compliance Matrix: (Units=1/GPa)
#
#
# Indices 1 2 3 4 5 6 
#
# 1 0.009734 -0.001396 -0.001458 0.000000 0.001721 0.000000
# 2 -0.001396 0.009734 -0.001458 0.000000 -0.001721 0.000000
# 3 -0.001458 -0.001458 0.007497 0.000000 0.000000 0.000000
# 4 0.000000 0.000000 0.000000 0.025161 0.000000 -0.003443
# 5 0.001721 -0.001721 0.000000 0.000000 0.025161 0.000000
# 6 0.000000 0.000000 0.000000 -0.003443 0.000000 0.022261
#
#
# Mechanical properties :
#
#
# Convention : Reuss Voigt Hill
#
# Bulk Modulus (GPa) = 54.52437 55.62357 55.07397
# Shear Modulus (GPa) = 43.74869 45.09119 44.41994
#
# Velocity S-wave (km/s) = 4.31078 4.37642 4.34372
# Velocity P-wave (km/s) = 6.92365 7.01172 6.96782
#
# Compressibility (1/GPa) = 0.01834042
#
# Stress axis : x y z
#
# Youngs Moduli (GPa) = 102.72831 102.72914 133.37968
#
# Poissons Ratio (x) = 0.14344 0.19451
# Poissons Ratio (y) = 0.14344 0.19451
# Poissons Ratio (z) = 0.14981 0.14981
#
# Static dielectric constant tensor:
#      x y z
#    x 4.309270 -0.000010 -0.000010 
#    y -0.000010 4.309260 -0.000010 
#    z -0.000010 -0.000010 4.054840 
# 
# 
# High freq. dielectric constant tensor:
#      x y z
#    x 1.944750 0.000000 0.000000 
#    y 0.000000 1.944750 0.000000 
#    z 0.000000 0.000000 1.947700 
# 
# From -- ./inp_files/651.got.cif
#   From: 2010.03.12/outbox.cif.g09.slc.cpg/sg163_1_cif.got.tgz:651.got - 2010.04.02 06:30:25.
