data_PCOD8323001
_publ_section_title
;
Structure prediction by ZEFSAII (Michael W. Deem and Ramdas Pophale) SiO2 
 PCOD8323001
Probable space group: P -3 1 M 
;
_chemical_formula_sum "Si O2"
_cell_formula_units_Z 46
_cell_length_a 14.758349
_cell_length_b 14.758349
_cell_length_c 13.077745
_cell_angle_alpha 90.000000
_cell_angle_beta 90.000000
_cell_angle_gamma 120.000000
_cell_volume 2466.829020
_symmetry_space_group_name_H-M "P -3 1 M "
_symmetry_group_IT_number 162
_symmetry_cell_setting 'hexagonal'
loop_
_space_group_symop_operation_xyz
x,y,z
-y,x-y,z
-x+y,-x,z
-y,-x,-z
-x+y,y,-z
x,x-y,-z
-x,-y,-z
y,-x+y,-z
x-y,x,-z
y,x,z
x-y,-y,z
-x,-x+y,z
loop_
_atom_site_type_symbol
_atom_site_label
_atom_site_fract_x
_atom_site_fract_y
_atom_site_fract_z
Si Si1 0.526702 0.746551 0.742060
Si Si2 0.875425 0.753602 0.722590
Si Si3 0.333335 0.666668 0.879361
Si Si4 0.117844 0.882157 0.500000
Si Si5 0.453526 0.880100 0.616664
O O1 0.645696 0.815223 0.786334
O O2 0.451796 0.713581 0.840319
O O3 0.498851 0.811553 0.663226
O O4 0.511392 0.644759 0.681949
O O5 0.833830 0.833830 0.748578
O O6 0.836780 0.704155 0.606726
O O7 0.000000 0.812837 0.743054
O O8 0.333334 0.666667 0.000000
O O9 0.000000 0.839259 0.530413
O O10 0.421984 0.843968 0.500000
O O11 0.544976 0.000000 0.620822
#
# Coordination Sequence:
#
# PCOD8323001 Si02
#       5
#    12  12   4   6  12
#     4  10  20  34  53  77 105 133 179 225 267 323
#     4  10  19  31  49  75 111 150 186 216 249 296
#     4   9  21  42  64  80  97 126 168 234 295 341
#     4   8  15  24  38  62  98 146 190 216 231 262
#     4  10  20  31  47  73 107 144 178 212 260 316
#
# _framework density 18.64742
#
# number of rings (size 3 to 8) (size 9 to 14) (size 15 to 20)
#    0.000    2.348    0.000    3.261    3.652    2.087 
#    0.000    0.000    0.000   28.174    0.000    0.000 
#    0.000    2.087    0.000    0.000    0.000    0.000 
#
# Total GULP energy -569954.501593 kJ/mol
# GULP energy per Si atom -12390.315252 kJ/mol
# Density = 1.860498 g / cm^3
# Si number density = 18.647420 Si / 1000 Ang^3
#
#
#
# Elastic Constant Matrix: (Units=GPa)
#
#
# Indices 1 2 3 4 5 6 
#
# 1 100.1181 30.8715 28.2058 -0.0001 1.6710 -0.0004
# 2 30.8715 100.1174 28.2058 0.0000 -1.6711 -0.0003
# 3 28.2058 28.2058 89.6836 -0.0006 -0.0003 -0.0003
# 4 -0.0001 0.0000 -0.0006 10.7692 0.0000 -1.6710
# 5 1.6710 -1.6711 -0.0003 0.0000 10.7693 0.0000
# 6 -0.0004 -0.0003 -0.0003 -1.6710 0.0000 34.6232
#
#
#
# Elastic Compliance Matrix: (Units=1/GPa)
#
#
# Indices 1 2 3 4 5 6 
#
# 1 0.011690 -0.002860 -0.002777 0.000000 -0.002258 0.000000
# 2 -0.002860 0.011690 -0.002777 0.000000 0.002258 0.000000
# 3 -0.002777 -0.002777 0.012897 0.000001 0.000000 0.000000
# 4 0.000000 0.000000 0.000001 0.093558 0.000000 0.004515
# 5 -0.002258 0.002258 0.000000 0.000000 0.093557 0.000000
# 6 0.000000 0.000000 0.000000 0.004515 0.000000 0.029100
#
#
# Mechanical properties :
#
#
# Convention : Reuss Voigt Hill
#
# Bulk Modulus (GPa) = 51.41641 51.60946 51.51294
# Shear Modulus (GPa) = 18.12881 24.74141 21.43511
#
# Velocity S-wave (km/s) = 3.12138 3.64648 3.39410
# Velocity P-wave (km/s) = 6.37365 6.74282 6.56083
#
# Compressibility (1/GPa) = 0.01944904
#
# Stress axis : x y z
#
# Youngs Moduli (GPa) = 85.54207 85.54154 77.53655
#
# Poissons Ratio (x) = 0.24465 0.21533
# Poissons Ratio (y) = 0.24465 0.21533
# Poissons Ratio (z) = 0.23756 0.23756
#
# Static dielectric constant tensor:
#      x y z
#    x 3.487480 0.000000 0.000000 
#    y 0.000000 3.487480 0.000010 
#    z 0.000000 0.000010 2.877200 
# 
# 
# High freq. dielectric constant tensor:
#      x y z
#    x 1.735680 0.000000 0.000000 
#    y 0.000000 1.735680 0.000000 
#    z 0.000000 0.000000 1.660530 
# 
# From -- ./inp_files/2080.got.cif
#   From: 2010.03.12/outbox.cif.g09.slc.cpg/sg162_2_cif.got.tgz:2080.got - 2010.04.02 06:27:41.
