data_PCOD8323075
_publ_section_title
;
Structure prediction by ZEFSAII (Michael W. Deem and Ramdas Pophale) SiO2 
 PCOD8323075
Probable space group: P -3 1 M 
;
_chemical_formula_sum "Si O2"
_cell_formula_units_Z 46
_cell_length_a 13.354731
_cell_length_b 13.354731
_cell_length_c 14.812866
_cell_angle_alpha 90.000000
_cell_angle_beta 90.000000
_cell_angle_gamma 120.000000
_cell_volume 2287.915682
_symmetry_space_group_name_H-M "P -3 1 M "
_symmetry_group_IT_number 162
_symmetry_cell_setting 'hexagonal'
loop_
_space_group_symop_operation_xyz
x,y,z
-y,x-y,z
-x+y,-x,z
-y,-x,-z
-x+y,y,-z
x,x-y,-z
-x,-y,-z
y,-x+y,-z
x-y,x,-z
y,x,z
x-y,-y,z
-x,-x+y,z
loop_
_atom_site_type_symbol
_atom_site_label
_atom_site_fract_x
_atom_site_fract_y
_atom_site_fract_z
Si Si1 0.333334 0.666668 0.888756
Si Si2 0.401827 0.000000 0.645885
Si Si3 0.441702 0.236485 0.228046
Si Si4 0.237290 0.237290 0.509436
Si Si5 0.127211 0.252752 0.096740
Si Si6 0.376109 0.000000 0.324496
O O1 0.458539 0.708061 0.846798
O O2 0.333334 0.666667 0.000000
O O3 0.448968 0.122737 0.696825
O O4 0.328523 0.000000 0.560832
O O5 0.519322 0.000000 0.619756
O O6 0.328663 0.212161 0.174362
O O7 0.431145 0.118313 0.266402
O O8 0.224305 0.112153 0.500000
O O9 0.282326 0.282326 0.609004
O O10 0.139237 0.139237 0.084698
O O11 0.000000 0.219040 0.128281
O O12 0.159343 0.318686 0.000000
#
# Coordination Sequence:
#
# PCOD8323075 Si02
#       6
#     4   6  12   6  12   6
#     4  12  27  45  66 100 137 175 243 306 339 402
#     4  12  25  45  71  98 134 181 230 281 339 415
#     4  12  23  42  67  93 132 176 226 283 344 410
#     4  12  26  46  74 110 146 176 220 284 346 412
#     4  10  20  34  55  87 123 165 216 270 336 409
#     4  12  25  45  71  98 134 181 230 281 339 415
#
# _framework density 20.105636000000001
#
# number of rings (size 3 to 8) (size 9 to 14) (size 15 to 20)
#    0.000    0.522    7.826    1.565    0.000    1.043 
#    0.000    1.304    0.000    0.000    0.000    0.000 
#    0.000    0.000    0.000    0.000    0.000    0.000 
#
# Total GULP energy -569904.913528 kJ/mol
# GULP energy per Si atom -12389.237251 kJ/mol
# Density = 2.005987 g / cm^3
# Si number density = 20.105636 Si / 1000 Ang^3
#
#
#
# Elastic Constant Matrix: (Units=GPa)
#
#
# Indices 1 2 3 4 5 6 
#
# 1 87.4786 35.9321 24.1098 -0.0003 -3.9039 -0.0002
# 2 35.9321 87.4776 24.1093 -0.0001 3.9037 -0.0006
# 3 24.1098 24.1093 78.9682 -0.0001 -0.0001 -0.0003
# 4 -0.0003 -0.0001 -0.0001 34.0215 -0.0002 3.9038
# 5 -3.9039 3.9037 -0.0001 -0.0002 34.0217 0.0001
# 6 -0.0002 -0.0006 -0.0003 3.9038 0.0001 25.7730
#
#
#
# Elastic Compliance Matrix: (Units=1/GPa)
#
#
# Indices 1 2 3 4 5 6 
#
# 1 0.014472 -0.005271 -0.002809 0.000000 0.002265 0.000000
# 2 -0.005271 0.014472 -0.002809 0.000000 -0.002265 0.000000
# 3 -0.002809 -0.002809 0.014379 0.000000 0.000000 0.000000
# 4 0.000000 0.000000 0.000000 0.029913 0.000000 -0.004531
# 5 0.002265 -0.002265 0.000000 0.000000 0.029913 0.000000
# 6 0.000000 0.000000 0.000000 -0.004531 0.000000 0.039487
#
#
# Mechanical properties :
#
#
# Convention : Reuss Voigt Hill
#
# Bulk Modulus (GPa) = 46.41726 46.91410 46.66568
# Shear Modulus (GPa) = 29.13839 30.08146 29.60992
#
# Velocity S-wave (km/s) = 3.81105 3.87223 3.84176
# Velocity P-wave (km/s) = 6.51938 6.58610 6.55282
#
# Compressibility (1/GPa) = 0.02154371
#
# Stress axis : x y z
#
# Youngs Moduli (GPa) = 69.09951 69.09887 69.54802
#
# Poissons Ratio (x) = 0.36424 0.19536
# Poissons Ratio (y) = 0.36425 0.19536
# Poissons Ratio (z) = 0.19410 0.19410
#
# Static dielectric constant tensor:
#      x y z
#    x 3.629590 0.000010 0.000000 
#    y 0.000010 3.629600 0.000010 
#    z 0.000000 0.000010 3.670010 
# 
# 
# High freq. dielectric constant tensor:
#      x y z
#    x 1.794650 0.000000 0.000000 
#    y 0.000000 1.794650 0.000000 
#    z 0.000000 0.000000 1.785540 
# 
# From -- ./inp_files/2109.got.cif
#   From: 2010.03.12/outbox.cif.g09.slc.cpg/sg162_2_cif.got.tgz:2109.got - 2010.04.02 06:27:41.
