data_PCOD8323971
_publ_section_title
;
Structure prediction by ZEFSAII (Michael W. Deem and Ramdas Pophale) SiO2 
 PCOD8323971
Probable space group: P -3 C 1
;
_chemical_formula_sum "Si O2"
_cell_formula_units_Z 44
_cell_length_a 9.122457
_cell_length_b 9.122457
_cell_length_c 23.925909
_cell_angle_alpha 90.000000
_cell_angle_beta 90.000000
_cell_angle_gamma 120.000000
_cell_volume 1724.339307
_symmetry_space_group_name_H-M "P -3 C 1"
_symmetry_group_IT_number 165
_symmetry_cell_setting 'hexagonal'
loop_
_space_group_symop_operation_xyz
x,y,z
-y,x-y,z
-x+y,-x,z
x-y,-y,1/2-z
-x,-x+y,1/2-z
y,x,1/2-z
-x,-y,-z
y,-x+y,-z
x-y,x,-z
-x+y,y,1/2+z
x,x-y,1/2+z
-y,-x,1/2+z
loop_
_atom_site_type_symbol
_atom_site_label
_atom_site_fract_x
_atom_site_fract_y
_atom_site_fract_z
Si Si1 0.666668 0.333334 0.325598
Si Si2 0.333334 0.666668 0.305928
Si Si3 0.656270 0.709773 0.851508
Si Si4 0.663319 0.946384 0.686442
Si Si5 0.997410 0.332108 0.979625
O O1 0.666668 0.333334 0.259148
O O2 0.525721 0.141635 0.343593
O O3 0.142792 0.604131 0.328498
O O4 0.788147 0.696835 0.810194
O O5 0.673932 0.655974 0.913118
O O6 0.705679 0.906742 0.852178
O O7 0.659714 0.000000 0.750000
O O8 0.167585 0.334014 0.997133
O O9 0.000000 0.500000 0.000000
#
# Coordination Sequence:
#
# PCOD8323971 Si02
#       5
#     4   4  12  12  12
#     4  12  27  45  72 103 158 196 252 303 369 463
#     4  12  24  45  72 106 152 199 252 303 387 451
#     4  12  26  46  75 107 147 198 254 315 392 475
#     4  12  26  45  70 107 149 202 248 311 377 471
#     4  12  27  52  83 116 158 207 274 352 420 491
#
# _framework density 25.517018
#
# number of rings (size 3 to 8) (size 9 to 14) (size 15 to 20)
#    0.000    0.000    2.727    7.091    0.000    2.182 
#    0.000    0.000    0.000    0.000    0.000    0.000 
#    0.000    0.000    0.000    0.000    0.000    0.000 
#
# Total GULP energy -545645.489928 kJ/mol
# GULP energy per Si atom -12401.033862 kJ/mol
# Density = 2.545894 g / cm^3
# Si number density = 25.517018 Si / 1000 Ang^3
#
#
#
# Elastic Constant Matrix: (Units=GPa)
#
#
# Indices 1 2 3 4 5 6 
#
# 1 116.4629 26.1850 16.2328 11.8073 0.0000 0.0000
# 2 26.1850 116.4622 16.2329 -11.8071 0.0000 0.0000
# 3 16.2328 16.2329 86.8605 -0.0001 0.0000 0.0000
# 4 11.8073 -11.8071 -0.0001 39.2468 0.0000 0.0000
# 5 0.0000 0.0000 0.0000 0.0000 39.2467 11.8078
# 6 0.0000 0.0000 0.0000 0.0000 11.8078 45.1384
#
#
#
# Elastic Compliance Matrix: (Units=1/GPa)
#
#
# Indices 1 2 3 4 5 6 
#
# 1 0.009672 -0.002351 -0.001368 -0.003617 0.000000 0.000000
# 2 -0.002351 0.009672 -0.001368 0.003617 0.000000 0.000000
# 3 -0.001368 -0.001368 0.012024 0.000000 0.000000 0.000000
# 4 -0.003617 0.003617 0.000000 0.027656 0.000000 0.000000
# 5 0.000000 0.000000 0.000000 0.000000 0.027656 -0.007235
# 6 0.000000 0.000000 0.000000 0.000000 -0.007235 0.024047
#
#
# Mechanical properties :
#
#
# Convention : Reuss Voigt Hill
#
# Bulk Modulus (GPa) = 47.18249 48.56523 47.87386
# Shear Modulus (GPa) = 39.07238 42.13537 40.60388
#
# Velocity S-wave (km/s) = 3.91734 4.06798 3.99337
# Velocity P-wave (km/s) = 6.24431 6.41393 6.32969
#
# Compressibility (1/GPa) = 0.02119430
#
# Stress axis : x y z
#
# Youngs Moduli (GPa) = 103.38719 103.38668 83.16604
#
# Poissons Ratio (x) = 0.24303 0.11380
# Poissons Ratio (y) = 0.24303 0.11380
# Poissons Ratio (z) = 0.14147 0.14147
#
# Static dielectric constant tensor:
#      x y z
#    x 5.442640 0.000000 0.000000 
#    y 0.000000 5.442570 -0.000010 
#    z 0.000000 -0.000010 4.218230 
# 
# 
# High freq. dielectric constant tensor:
#      x y z
#    x 2.064480 0.000000 0.000000 
#    y 0.000000 2.064480 0.000000 
#    z 0.000000 0.000000 1.994430 
# 
# From -- ./inp_files/3263.got.cif
#   From: 2010.03.12/outbox.cif.g09.slc.cpg/sg165_2_cif.got.tgz:3263.got - 2010.04.02 06:36:38.
