data_PCOD8323887
_publ_section_title
;
Structure prediction by ZEFSAII (Michael W. Deem and Ramdas Pophale) SiO2 
 PCOD8323887
Probable space group: P -3 C 1
;
_chemical_formula_sum "Si O2"
_cell_formula_units_Z 36
_cell_length_a 14.351408
_cell_length_b 14.351408
_cell_length_c 9.074038
_cell_angle_alpha 90.000000
_cell_angle_beta 90.000000
_cell_angle_gamma 120.000000
_cell_volume 1618.528115
_symmetry_space_group_name_H-M "P -3 C 1"
_symmetry_group_IT_number 165
_symmetry_cell_setting 'hexagonal'
loop_
_space_group_symop_operation_xyz
x,y,z
-y,x-y,z
-x+y,-x,z
x-y,-y,1/2-z
-x,-x+y,1/2-z
y,x,1/2-z
-x,-y,-z
y,-x+y,-z
x-y,x,-z
-x+y,y,1/2+z
x,x-y,1/2+z
-y,-x,1/2+z
loop_
_atom_site_type_symbol
_atom_site_label
_atom_site_fract_x
_atom_site_fract_y
_atom_site_fract_z
Si Si1 0.315113 0.776174 0.500000
Si Si2 0.825341 0.752388 0.500000
Si Si3 0.196862 0.393724 0.250000
O O1 0.218999 0.648716 0.500000
O O2 0.299624 0.831323 0.354167
O O3 0.299624 0.831323 0.645833
O O4 0.800993 0.848144 0.500000
O O5 0.774838 0.680101 0.354106
O O6 0.774837 0.680100 0.645894
#
# Coordination Sequence:
#
# PCOD8323887 Si02
#       3
#    12  12  12
#     4   9  18  34  63  90 110 158 197 218 270 355
#     4  11  23  40  61  82 112 154 197 242 293 347
#     4  10  20  34  59  90 118 140 199 240 286 324
#
# _framework density 22.242429999999999
#
# number of rings (size 3 to 8) (size 9 to 14) (size 15 to 20)
#    0.667    1.333    0.000    4.333    0.000    0.000 
#    0.000    3.333    0.000  140.000    0.000    0.000 
#    0.000    0.000    0.000    0.000    0.000    0.000 
#
# Total GULP energy -446116.156547 kJ/mol
# GULP energy per Si atom -12392.115460 kJ/mol
# Density = 2.219181 g / cm^3
# Si number density = 22.242430 Si / 1000 Ang^3
#
#
#
# Elastic Constant Matrix: (Units=GPa)
#
#
# Indices 1 2 3 4 5 6 
#
# 1 89.0125 53.4099 47.8467 0.0000 0.0000 0.0000
# 2 53.4099 89.0125 47.8467 0.0000 0.0000 0.0000
# 3 47.8467 47.8467 186.5473 0.0000 0.0000 0.0000
# 4 0.0000 0.0000 0.0000 25.1794 0.0000 0.0000
# 5 0.0000 0.0000 0.0000 0.0000 25.1794 0.0000
# 6 0.0000 0.0000 0.0000 0.0000 0.0000 17.8013
#
#
#
# Elastic Compliance Matrix: (Units=1/GPa)
#
#
# Indices 1 2 3 4 5 6 
#
# 1 0.018286 -0.009802 -0.002176 0.000000 0.000000 0.000000
# 2 -0.009802 0.018286 -0.002176 0.000000 0.000000 0.000000
# 3 -0.002176 -0.002176 0.006477 0.000000 0.000000 0.000000
# 4 0.000000 0.000000 0.000000 0.039715 0.000000 0.000000
# 5 0.000000 0.000000 0.000000 0.000000 0.039715 0.000000
# 6 0.000000 0.000000 0.000000 0.000000 0.000000 0.056176
#
#
# Mechanical properties :
#
#
# Convention : Reuss Voigt Hill
#
# Bulk Modulus (GPa) = 67.84282 73.64212 70.74247
# Shear Modulus (GPa) = 23.59885 27.99663 25.79774
#
# Velocity S-wave (km/s) = 3.26081 3.55167 3.40934
# Velocity P-wave (km/s) = 6.68916 7.07106 6.88276
#
# Compressibility (1/GPa) = 0.01473995
#
# Stress axis : x y z
#
# Youngs Moduli (GPa) = 54.68792 54.68792 154.39919
#
# Poissons Ratio (x) = 0.53607 0.33595
# Poissons Ratio (y) = 0.53607 0.33595
# Poissons Ratio (z) = 0.11899 0.11899
#
# Static dielectric constant tensor:
#      x y z
#    x 3.693740 0.000000 0.000000 
#    y 0.000000 3.693740 0.000000 
#    z 0.000000 0.000000 4.393600 
# 
# 
# High freq. dielectric constant tensor:
#      x y z
#    x 1.846760 0.000000 0.000000 
#    y 0.000000 1.846760 0.000000 
#    z 0.000000 0.000000 1.906530 
# 
# From -- ./inp_files/385.got.cif
#   From: 2010.03.12/outbox.cif.g09.slc.cpg/sg165_1_cif.got.tgz:385.got - 2010.04.02 06:36:38.
