data_PCOD8323721
_publ_section_title
;
Structure prediction by ZEFSAII (Michael W. Deem and Ramdas Pophale) SiO2 
 PCOD8323721
Probable space group: P -3 M 1
;
_chemical_formula_sum "Si O2"
_cell_formula_units_Z 54
_cell_length_a 12.621672
_cell_length_b 12.621672
_cell_length_c 23.015539
_cell_angle_alpha 90.000000
_cell_angle_beta 90.000000
_cell_angle_gamma 120.000000
_cell_volume 3175.305837
_symmetry_space_group_name_H-M "P -3 M 1"
_symmetry_group_IT_number 164
_symmetry_cell_setting 'hexagonal'
loop_
_space_group_symop_operation_xyz
x,y,z
-y,x-y,z
-x+y,-x,z
x-y,-y,-z
-x,-x+y,-z
y,x,-z
-x,-y,-z
y,-x+y,-z
x-y,x,-z
-x+y,y,z
x,x-y,z
-y,-x,z
loop_
_atom_site_type_symbol
_atom_site_label
_atom_site_fract_x
_atom_site_fract_y
_atom_site_fract_z
Si Si1 0.086544 0.668536 0.609171
Si Si2 0.667469 0.579071 0.048642
Si Si3 0.666964 0.579221 0.179188
Si Si4 0.001197 0.248161 0.716816
Si Si5 0.248330 0.000000 0.500000
O O1 0.074335 0.537168 0.605099
O O2 0.229125 0.770876 0.609194
O O3 0.016737 0.685535 0.555351
O O4 0.021144 0.675595 0.667408
O O5 0.781610 0.563219 0.037943
O O6 0.552046 0.447955 0.037991
O O7 0.665929 0.625905 0.113860
O O8 0.673319 0.673319 0.000000
O O9 0.770223 0.540445 0.185917
O O10 0.538228 0.461773 0.195556
O O11 0.694610 0.690889 0.221471
O O12 0.871171 0.128829 0.708172
O O13 0.104928 0.209856 0.713152
O O14 0.231483 0.115742 0.510876
#
# Coordination Sequence:
#
# PCOD8323721 Si02
#       5
#    12  12  12  12   6
#     4  10  20  34  53  76 101 129 162 201 242 282
#     4   9  17  29  46  68  93 122 156 194 235 279
#     4   9  17  30  49  71  93 119 154 197 241 282
#     4  10  20  33  50  71  96 126 158 194 236 284
#     4  10  20  34  54  78 104 134 166 200 236 278
#
# _framework density 17.006235
#
# number of rings (size 3 to 8) (size 9 to 14) (size 15 to 20)
#    0.000    2.444    0.000    2.667    0.000    2.667 
#    0.000    4.444    0.000    9.556    0.000    0.000 
#    0.000    0.000    0.000    0.000    0.000    0.000 
#
# Total GULP energy -669617.842939 kJ/mol
# GULP energy per Si atom -12400.330425 kJ/mol
# Density = 1.696753 g / cm^3
# Si number density = 17.006235 Si / 1000 Ang^3
#
#
#
# Elastic Constant Matrix: (Units=GPa)
#
#
# Indices 1 2 3 4 5 6 
#
# 1 97.8239 54.6340 59.5636 -1.3825 0.0000 0.0000
# 2 54.6340 97.8239 59.5636 1.3825 0.0000 0.0000
# 3 59.5636 59.5636 127.6653 0.0000 0.0000 0.0000
# 4 -1.3825 1.3825 0.0000 25.8393 0.0000 0.0000
# 5 0.0000 0.0000 0.0000 0.0000 25.8393 -1.3825
# 6 0.0000 0.0000 0.0000 0.0000 -1.3825 21.5950
#
#
#
# Elastic Compliance Matrix: (Units=1/GPa)
#
#
# Indices 1 2 3 4 5 6 
#
# 1 0.016778 -0.006455 -0.004816 0.001243 0.000000 0.000000
# 2 -0.006455 0.016778 -0.004816 -0.001243 0.000000 0.000000
# 3 -0.004816 -0.004816 0.012327 0.000000 0.000000 0.000000
# 4 0.001243 -0.001243 0.000000 0.038834 0.000000 0.000000
# 5 0.000000 0.000000 0.000000 0.000000 0.038834 0.002486
# 6 0.000000 0.000000 0.000000 0.000000 0.002486 0.046466
#
#
# Mechanical properties :
#
#
# Convention : Reuss Voigt Hill
#
# Bulk Modulus (GPa) = 72.95249 74.53725 73.74487
# Shear Modulus (GPa) = 24.18264 24.62484 24.40374
#
# Velocity S-wave (km/s) = 3.77501 3.80937 3.79223
# Velocity P-wave (km/s) = 7.87347 7.95443 7.91406
#
# Compressibility (1/GPa) = 0.01370755
#
# Stress axis : x y z
#
# Youngs Moduli (GPa) = 59.60297 59.60297 81.12366
#
# Poissons Ratio (x) = 0.38476 0.39069
# Poissons Ratio (y) = 0.38476 0.39069
# Poissons Ratio (z) = 0.28705 0.28705
#
# Static dielectric constant tensor:
#      x y z
#    x 3.059150 0.000000 0.000000 
#    y 0.000000 3.059150 0.000000 
#    z 0.000000 0.000000 3.515970 
# 
# 
# High freq. dielectric constant tensor:
#      x y z
#    x 1.646800 0.000000 0.000000 
#    y 0.000000 1.646800 0.000000 
#    z 0.000000 0.000000 1.676110 
# 
# From -- ./inp_files/4842.got.cif
#   From: 2010.03.12/outbox.cif.g09.slc.cpg/sg164_3_cif.got.tgz:4842.got - 2010.04.02 06:32:59.
