data_PCOD8323442
_publ_section_title
;
Structure prediction by ZEFSAII (Michael W. Deem and Ramdas Pophale) SiO2 
 PCOD8323442
Probable space group: P -3 M 1
;
_chemical_formula_sum "Si O2"
_cell_formula_units_Z 84
_cell_length_a 17.634068
_cell_length_b 17.634068
_cell_length_c 19.303222
_cell_angle_alpha 90.000000
_cell_angle_beta 90.000000
_cell_angle_gamma 120.000000
_cell_volume 5198.349313
_symmetry_space_group_name_H-M "P -3 M 1"
_symmetry_group_IT_number 164
_symmetry_cell_setting 'hexagonal'
loop_
_space_group_symop_operation_xyz
x,y,z
-y,x-y,z
-x+y,-x,z
x-y,-y,-z
-x,-x+y,-z
y,x,-z
-x,-y,-z
y,-x+y,-z
x-y,x,-z
-x+y,y,z
x,x-y,z
-y,-x,z
loop_
_atom_site_type_symbol
_atom_site_label
_atom_site_fract_x
_atom_site_fract_y
_atom_site_fract_z
Si Si1 0.003368 0.827751 0.681797
Si Si2 0.030351 0.311219 0.577429
Si Si3 0.240778 0.303244 0.198240
Si Si4 0.334716 0.499995 0.537256
Si Si5 0.824140 0.000006 0.079518
Si Si6 0.839759 0.334943 0.765447
Si Si7 0.863667 0.306987 0.613552
O O1 0.910112 0.820224 0.666269
O O2 0.998026 0.761904 0.741832
O O3 0.043659 0.806569 0.614034
O O4 0.072909 0.927092 0.704092
O O5 0.115575 0.407373 0.576475
O O6 0.000000 0.279217 0.500000
O O7 0.958713 0.319000 0.622838
O O8 0.156406 0.312812 0.204883
O O9 0.243044 0.259911 0.124949
O O10 0.322548 0.402328 0.206593
O O11 0.268369 0.536738 0.544288
O O12 0.428132 0.571869 0.570150
O O13 0.354845 0.494192 0.456229
O O14 0.908394 0.091606 0.100473
O O15 0.847980 0.923990 0.093428
O O16 0.797818 0.000000 0.000000
O O17 0.850055 0.425028 0.796302
O O18 0.746138 0.253863 0.788764
O O19 0.842429 0.344243 0.681942
O O20 0.796551 0.203450 0.606192
#
# Coordination Sequence:
#
# PCOD8323442 Si02
#       7
#    12  12  12  12  12  12  12
#     4  11  21  34  49  66  89 120 157 193 228 270
#     4  10  20  33  48  63  86 115 151 190 235 277
#     4   9  18  31  46  66  94 125 151 182 225 271
#     4  10  20  32  46  64  86 112 145 188 240 291
#     4   9  16  27  46  73 102 129 157 189 226 270
#     4  10  18  29  46  68  93 120 151 188 232 278
#     4   9  17  30  47  66  87 111 140 184 237 286
#
# _framework density 16.158975999999999
#
# number of rings (size 3 to 8) (size 9 to 14) (size 15 to 20)
#    0.000    2.286    1.429    2.286    0.000    5.429 
#    0.000    2.857    0.000    1.286    0.000    0.000 
#    0.000    0.000    0.000    0.571    0.000    0.286 
#
# Total GULP energy -1041083.142717 kJ/mol
# GULP energy per Si atom -12393.846937 kJ/mol
# Density = 1.612220 g / cm^3
# Si number density = 16.158976 Si / 1000 Ang^3
#
#
#
# Elastic Constant Matrix: (Units=GPa)
#
#
# Indices 1 2 3 4 5 6 
#
# 1 88.6274 47.0457 32.0612 -0.3225 0.0000 0.0000
# 2 47.0457 88.6274 32.0612 0.3225 0.0000 0.0000
# 3 32.0612 32.0612 57.3533 0.0000 0.0000 0.0000
# 4 -0.3225 0.3225 0.0000 14.5510 0.0000 0.0000
# 5 0.0000 0.0000 0.0000 0.0000 14.5510 -0.3225
# 6 0.0000 0.0000 0.0000 0.0000 -0.3225 20.7909
#
#
#
# Elastic Compliance Matrix: (Units=1/GPa)
#
#
# Indices 1 2 3 4 5 6 
#
# 1 0.017037 -0.007020 -0.005600 0.000533 0.000000 0.000000
# 2 -0.007020 0.017037 -0.005600 -0.000533 0.000000 0.000000
# 3 -0.005600 -0.005600 0.023696 0.000000 0.000000 0.000000
# 4 0.000533 -0.000533 0.000000 0.068748 0.000000 0.000000
# 5 0.000000 0.000000 0.000000 0.000000 0.068748 0.001066
# 6 0.000000 0.000000 0.000000 0.000000 0.001066 0.048115
#
#
# Mechanical properties :
#
#
# Convention : Reuss Voigt Hill
#
# Bulk Modulus (GPa) = 46.87815 50.77159 48.82487
# Shear Modulus (GPa) = 17.42581 18.20789 17.81685
#
# Velocity S-wave (km/s) = 3.28746 3.36042 3.32414
# Velocity P-wave (km/s) = 6.59420 6.82238 6.70926
#
# Compressibility (1/GPa) = 0.02133190
#
# Stress axis : x y z
#
# Youngs Moduli (GPa) = 58.69483 58.69483 42.20033
#
# Poissons Ratio (x) = 0.41204 0.23631
# Poissons Ratio (y) = 0.41204 0.23631
# Poissons Ratio (z) = 0.32868 0.32868
#
# Static dielectric constant tensor:
#      x y z
#    x 3.014340 0.000000 0.000000 
#    y 0.000000 3.014340 0.000000 
#    z 0.000000 0.000000 2.890890 
# 
# 
# High freq. dielectric constant tensor:
#      x y z
#    x 1.613360 0.000000 0.000000 
#    y 0.000000 1.613360 0.000000 
#    z 0.000000 0.000000 1.587570 
# 
# From -- ./inp_files/4646.got.cif
#   From: 2010.03.12/outbox.cif.g09.slc.cpg/sg164_3_cif.got.tgz:4646.got - 2010.04.02 06:32:59.
