data_PCOD8323295
_publ_section_title
;
Structure prediction by ZEFSAII (Michael W. Deem and Ramdas Pophale) SiO2 
 PCOD8323295
Probable space group: P -3 1 C
;
_chemical_formula_sum "Si O2"
_cell_formula_units_Z 30
_cell_length_a 8.552372
_cell_length_b 8.552372
_cell_length_c 20.810893
_cell_angle_alpha 90.000000
_cell_angle_beta 90.000000
_cell_angle_gamma 120.000000
_cell_volume 1318.240086
_symmetry_space_group_name_H-M "P -3 1 C"
_symmetry_group_IT_number 163
_symmetry_cell_setting 'hexagonal'
loop_
_space_group_symop_operation_xyz
x,y,z
-y,x-y,z
-x+y,-x,z
-y,-x,1/2-z
-x+y,y,1/2-z
x,x-y,1/2-z
-x,-y,-z
y,-x+y,-z
x-y,x,-z
y,x,1/2+z
x-y,-y,1/2+z
-x,-x+y,1/2+z
loop_
_atom_site_type_symbol
_atom_site_label
_atom_site_fract_x
_atom_site_fract_y
_atom_site_fract_z
Si Si1 0.313350 0.975991 0.623261
Si Si2 0.000000 0.000000 0.926180
Si Si3 0.666668 0.333335 0.607157
Si Si4 0.436143 0.218072 0.250000
Si Si5 0.333335 0.666668 0.547619
O O1 0.191895 0.869925 0.686042
O O2 0.320640 0.836047 0.573851
O O3 0.203843 0.065591 0.594569
O O4 0.514950 0.140542 0.635527
O O5 0.000000 0.000000 0.000000
O O6 0.666668 0.333334 0.529429
O O7 0.563824 0.127648 0.250000
#
# Coordination Sequence:
#
# PCOD8323295 Si02
#       5
#    12   4   4   6   4
#     4  12  24  45  72 107 143 193 235 294 359 420
#     4  12  27  46  71 109 150 186 244 296 358 429
#     4  12  27  42  74 110 141 186 247 284 358 435
#     4  10  22  46  72  92 142 176 232 290 354 420
#     4  12  21  46  73 103 151 189 229 302 355 417
#
# _framework density 22.757618000000001
#
# number of rings (size 3 to 8) (size 9 to 14) (size 15 to 20)
#    0.400    0.000    4.000    6.000    0.000    1.600 
#    0.000    0.000    0.000    0.000    0.000    0.000 
#    0.000    0.000    0.000    0.000    0.000    0.000 
#
# Total GULP energy -371787.007740 kJ/mol
# GULP energy per Si atom -12392.900258 kJ/mol
# Density = 2.270582 g / cm^3
# Si number density = 22.757618 Si / 1000 Ang^3
#
#
#
# Elastic Constant Matrix: (Units=GPa)
#
#
# Indices 1 2 3 4 5 6 
#
# 1 108.0192 37.9198 41.2386 0.0000 5.2306 -0.0001
# 2 37.9198 108.0182 41.2390 0.0001 -5.2305 -0.0007
# 3 41.2386 41.2390 153.3548 0.0002 0.0001 0.0003
# 4 0.0000 0.0001 0.0002 28.6128 -0.0003 -5.2305
# 5 5.2306 -5.2305 0.0001 -0.0003 28.6131 0.0000
# 6 -0.0001 -0.0007 0.0003 -5.2305 0.0000 35.0491
#
#
#
# Elastic Compliance Matrix: (Units=1/GPa)
#
#
# Indices 1 2 3 4 5 6 
#
# 1 0.011373 -0.003293 -0.002173 0.000000 -0.002681 0.000000
# 2 -0.003293 0.011373 -0.002173 0.000000 0.002681 0.000000
# 3 -0.002173 -0.002173 0.007689 0.000000 0.000000 0.000000
# 4 0.000000 0.000000 0.000000 0.035930 0.000000 0.005362
# 5 -0.002681 0.002681 0.000000 0.000000 0.035929 0.000000
# 6 0.000000 0.000000 0.000000 0.005362 0.000000 0.029332
#
#
# Mechanical properties :
#
#
# Convention : Reuss Voigt Hill
#
# Bulk Modulus (GPa) = 65.96998 67.79856 66.88427
# Shear Modulus (GPa) = 32.90444 35.05467 33.97956
#
# Velocity S-wave (km/s) = 3.80658 3.92899 3.86827
# Velocity P-wave (km/s) = 6.95493 7.10203 7.02887
#
# Compressibility (1/GPa) = 0.01515841
#
# Stress axis : x y z
#
# Youngs Moduli (GPa) = 87.92870 87.92765 130.04859
#
# Poissons Ratio (x) = 0.28952 0.28257
# Poissons Ratio (y) = 0.28952 0.28258
# Poissons Ratio (z) = 0.19105 0.19106
#
# Static dielectric constant tensor:
#      x y z
#    x 3.943060 0.000030 -0.000010 
#    y 0.000030 3.943090 -0.000020 
#    z -0.000010 -0.000020 4.240960 
# 
# 
# High freq. dielectric constant tensor:
#      x y z
#    x 1.902120 0.000000 0.000000 
#    y 0.000000 1.902120 0.000000 
#    z 0.000000 0.000000 1.896740 
# 
# From -- ./inp_files/3768.got.cif
#   From: 2010.03.12/outbox.cif.g09.slc.cpg/sg163_2_cif.got.tgz:3768.got - 2010.04.02 06:30:25.
