data_PCOD8323379
_publ_section_title
;
Structure prediction by ZEFSAII (Michael W. Deem and Ramdas Pophale) SiO2 
 PCOD8323379
Probable space group: P -3 M 1
;
_chemical_formula_sum "Si O2"
_cell_formula_units_Z 96
_cell_length_a 17.563062
_cell_length_b 17.563062
_cell_length_c 22.605567
_cell_angle_alpha 90.000000
_cell_angle_beta 90.000000
_cell_angle_gamma 120.000000
_cell_volume 6038.742418
_symmetry_space_group_name_H-M "P -3 M 1"
_symmetry_group_IT_number 164
_symmetry_cell_setting 'hexagonal'
loop_
_space_group_symop_operation_xyz
x,y,z
-y,x-y,z
-x+y,-x,z
x-y,-y,-z
-x,-x+y,-z
y,x,-z
-x,-y,-z
y,-x+y,-z
x-y,x,-z
-x+y,y,z
x,x-y,z
-y,-x,z
loop_
_atom_site_type_symbol
_atom_site_label
_atom_site_fract_x
_atom_site_fract_y
_atom_site_fract_z
Si Si1 0.845623 0.332377 0.650954
Si Si2 0.270311 0.371811 0.235623
Si Si3 0.845623 0.332377 0.349047
Si Si4 0.836691 0.331149 0.000000
Si Si5 0.409786 1.000000 0.433983
Si Si6 0.729689 0.628190 0.235625
Si Si7 0.897644 0.533350 0.123691
Si Si8 0.635704 0.102351 0.876311
O O1 0.834851 0.417426 0.653157
O O2 0.751671 0.248330 0.637496
O O3 0.886453 0.325693 0.712733
O O4 0.912245 0.338570 0.599659
O O5 0.165299 0.330598 0.246248
O O6 0.293583 0.293583 0.232254
O O7 0.293277 0.428942 0.175717
O O8 0.834852 0.417426 0.346842
O O9 0.751671 0.248330 0.362504
O O10 0.886454 0.325692 0.287268
O O11 0.912244 0.338571 0.400342
O O12 0.864441 0.432221 0.000003
O O13 0.732013 0.267988 0.999996
O O14 0.876139 0.314502 0.060116
O O15 0.876147 0.314507 0.939886
O O16 0.500000 0.999999 0.436710
O O17 0.374646 0.000000 0.500000
O O18 0.834702 0.669403 0.246249
O O19 0.706724 0.571056 0.175719
O O20 0.853191 0.426596 0.128191
O O21 0.999998 0.574420 0.131308
O O22 0.573403 0.146805 0.871811
#
# Coordination Sequence:
#
# PCOD8323379 Si02
#       8
#    12  12  12  12  12  12  12  12
#     4  10  19  31  48  70  96 125 158 194 231 271
#     4  10  19  31  48  69  91 117 149 188 231 276
#     4  10  19  31  48  70  96 125 158 194 231 271
#     4  10  18  27  37  53  80 115 151 185 219 258
#     4   9  18  32  48  66  92 125 156 188 228 271
#     4  10  19  31  48  69  91 117 149 188 231 276
#     4   9  17  28  43  61  83 113 149 186 226 270
#     4   9  17  28  43  61  83 113 149 186 226 270
#
# _framework density 15.897351
#
# number of rings (size 3 to 8) (size 9 to 14) (size 15 to 20)
#    0.000    2.375    1.250    2.250    0.000    3.000 
#    0.000    0.000    0.000    9.750    0.000    0.000 
#    0.000    0.000    0.000    0.000    0.000   37.375 
#
# Total GULP energy -1189861.510506 kJ/mol
# GULP energy per Si atom -12394.390734 kJ/mol
# Density = 1.586117 g / cm^3
# Si number density = 15.897351 Si / 1000 Ang^3
#
#
#
# Elastic Constant Matrix: (Units=GPa)
#
#
# Indices 1 2 3 4 5 6 
#
# 1 72.2545 40.3009 38.0502 0.0000 0.0000 0.0000
# 2 40.3009 72.2545 38.0502 0.0000 0.0000 0.0000
# 3 38.0502 38.0502 138.6861 0.0000 0.0000 0.0000
# 4 0.0000 0.0000 0.0000 11.3990 0.0000 0.0000
# 5 0.0000 0.0000 0.0000 0.0000 11.3990 0.0000
# 6 0.0000 0.0000 0.0000 0.0000 0.0000 15.9768
#
#
#
# Elastic Compliance Matrix: (Units=1/GPa)
#
#
# Indices 1 2 3 4 5 6 
#
# 1 0.021102 -0.010194 -0.002993 0.000000 0.000000 0.000000
# 2 -0.010194 0.021102 -0.002993 0.000000 0.000000 0.000000
# 3 -0.002993 -0.002993 0.008853 0.000000 0.000000 0.000000
# 4 0.000000 0.000000 0.000000 0.087727 0.000000 0.000000
# 5 0.000000 0.000000 0.000000 0.000000 0.087727 0.000000
# 6 0.000000 0.000000 0.000000 0.000000 0.000000 0.062591
#
#
# Mechanical properties :
#
#
# Convention : Reuss Voigt Hill
#
# Bulk Modulus (GPa) = 53.48257 57.33311 55.40784
# Shear Modulus (GPa) = 15.25825 18.87455 17.06640
#
# Velocity S-wave (km/s) = 3.10142 3.44943 3.28004
# Velocity P-wave (km/s) = 6.82207 7.21163 7.01955
#
# Compressibility (1/GPa) = 0.01869768
#
# Stress axis : x y z
#
# Youngs Moduli (GPa) = 47.38969 47.38969 112.95972
#
# Poissons Ratio (x) = 0.48308 0.33806
# Poissons Ratio (y) = 0.48308 0.33806
# Poissons Ratio (z) = 0.14182 0.14182
#
# Static dielectric constant tensor:
#      x y z
#    x 2.866170 0.000000 0.000000 
#    y 0.000000 2.866170 0.000000 
#    z 0.000000 0.000000 3.355710 
# 
# 
# High freq. dielectric constant tensor:
#      x y z
#    x 1.586850 0.000000 0.000000 
#    y 0.000000 1.586850 0.000000 
#    z 0.000000 0.000000 1.628350 
# 
# From -- ./inp_files/4754.got.cif
#   From: 2010.03.12/outbox.cif.g09.slc.cpg/sg164_3_cif.got.tgz:4754.got - 2010.04.02 06:32:59.
