data_PCOD8323351
_publ_section_title
;
Structure prediction by ZEFSAII (Michael W. Deem and Ramdas Pophale) SiO2 
 PCOD8323351
Probable space group: P -3 1 C
;
_chemical_formula_sum "Si O2"
_cell_formula_units_Z 96
_cell_length_a 17.585424
_cell_length_b 17.585424
_cell_length_c 27.522666
_cell_angle_alpha 90.000000
_cell_angle_beta 90.000000
_cell_angle_gamma 120.000000
_cell_volume 7371.006930
_symmetry_space_group_name_H-M "P -3 1 C"
_symmetry_group_IT_number 163
_symmetry_cell_setting 'hexagonal'
loop_
_space_group_symop_operation_xyz
x,y,z
-y,x-y,z
-x+y,-x,z
-y,-x,1/2-z
-x+y,y,1/2-z
x,x-y,1/2-z
-x,-y,-z
y,-x+y,-z
x-y,x,-z
y,x,1/2+z
x-y,-y,1/2+z
-x,-x+y,1/2+z
loop_
_atom_site_type_symbol
_atom_site_label
_atom_site_fract_x
_atom_site_fract_y
_atom_site_fract_z
Si Si1 0.510178 0.666824 0.194532
Si Si2 0.490855 0.158084 0.418438
Si Si3 0.508390 0.667081 0.468862
Si Si4 0.510178 0.843354 0.194532
Si Si5 0.972632 0.576260 0.888216
Si Si6 0.027368 0.423740 0.388216
Si Si7 0.332771 0.490855 0.918438
Si Si8 0.508390 0.667081 0.031138
O O1 0.513109 0.756555 0.180618
O O2 0.411339 0.588661 0.185419
O O3 0.539109 0.667562 0.250000
O O4 0.578735 0.655310 0.160723
O O5 0.483814 0.241907 0.402111
O O6 0.589454 0.178909 0.407379
O O7 0.468235 0.135455 0.474983
O O8 0.417042 0.073268 0.388976
O O9 0.579573 0.658671 0.435897
O O10 0.531765 0.667219 0.525017
O O11 0.411112 0.588888 0.457235
O O12 0.511327 0.755664 0.453400
O O13 0.578735 0.923425 0.160723
O O14 0.978181 0.489090 0.890699
O O15 0.920902 0.579573 0.935897
O O16 0.073268 0.656226 0.888976
#
# Coordination Sequence:
#
# PCOD8323351 Si02
#       8
#    12  12  12  12  12  12  12  12
#     4   9  16  25  37  53  73  96 119 140 163 197
#     4   9  16  25  36  49  66  91 123 155 182 206
#     4   9  15  22  33  50  72  96 120 144 170 203
#     4   9  16  25  37  53  73  96 119 140 163 197
#     4   9  16  24  34  49  69  92 118 148 178 205
#     4   9  16  24  34  49  69  92 118 148 178 205
#     4   9  16  25  36  49  66  91 123 155 182 206
#     4   9  15  22  33  50  72  96 120 144 170 203
#
# _framework density 13.024001
#
# number of rings (size 3 to 8) (size 9 to 14) (size 15 to 20)
#    0.000    3.000    0.000    2.250    0.000    6.000 
#    0.000    2.500    0.000    0.750    0.000    0.000 
#    0.000    2.000    0.000    6.000    0.000   48.500 
#
# Total GULP energy -1189940.771640 kJ/mol
# GULP energy per Si atom -12395.216371 kJ/mol
# Density = 1.299436 g / cm^3
# Si number density = 13.024001 Si / 1000 Ang^3
#
#
#
# Elastic Constant Matrix: (Units=GPa)
#
#
# Indices 1 2 3 4 5 6 
#
# 1 78.4191 44.3424 40.5287 0.0000 0.0000 0.0000
# 2 44.3424 78.4191 40.5287 0.0000 0.0000 0.0000
# 3 40.5287 40.5287 58.7841 0.0000 0.0000 0.0000
# 4 0.0000 0.0000 0.0000 16.1130 0.0000 0.0000
# 5 0.0000 0.0000 0.0000 0.0000 16.1130 0.0000
# 6 0.0000 0.0000 0.0000 0.0000 0.0000 17.0383
#
#
#
# Elastic Compliance Matrix: (Units=1/GPa)
#
#
# Indices 1 2 3 4 5 6 
#
# 1 0.022149 -0.007196 -0.010309 0.000000 0.000000 0.000000
# 2 -0.007196 0.022149 -0.010309 0.000000 0.000000 0.000000
# 3 -0.010309 -0.010309 0.031227 0.000000 0.000000 0.000000
# 4 0.000000 0.000000 0.000000 0.062062 0.000000 0.000000
# 5 0.000000 0.000000 0.000000 0.000000 0.062062 0.000000
# 6 0.000000 0.000000 0.000000 0.000000 0.000000 0.058691
#
#
# Mechanical properties :
#
#
# Convention : Reuss Voigt Hill
#
# Bulk Modulus (GPa) = 50.26244 51.82465 51.04355
# Shear Modulus (GPa) = 15.59567 15.86769 15.73168
#
# Velocity S-wave (km/s) = 3.46418 3.49426 3.47925
# Velocity P-wave (km/s) = 7.39437 7.49386 7.44428
#
# Compressibility (1/GPa) = 0.01989557
#
# Stress axis : x y z
#
# Youngs Moduli (GPa) = 45.14827 45.14827 32.02369
#
# Poissons Ratio (x) = 0.32490 0.33014
# Poissons Ratio (y) = 0.32490 0.33014
# Poissons Ratio (z) = 0.46545 0.46545
#
# Static dielectric constant tensor:
#      x y z
#    x 2.546390 0.000000 0.000000 
#    y 0.000000 2.546390 0.000000 
#    z 0.000000 0.000000 2.656170 
# 
# 
# High freq. dielectric constant tensor:
#      x y z
#    x 1.469290 0.000000 0.000000 
#    y 0.000000 1.469290 0.000000 
#    z 0.000000 0.000000 1.490510 
# 
# From -- ./inp_files/3952.got.cif
#   From: 2010.03.12/outbox.cif.g09.slc.cpg/sg163_2_cif.got.tgz:3952.got - 2010.04.02 06:30:25.
