data_PCOD8323648
_publ_section_title
;
Structure prediction by ZEFSAII (Michael W. Deem and Ramdas Pophale) SiO2 
 PCOD8323648
Probable space group: P -3 M 1
;
_chemical_formula_sum "Si O2"
_cell_formula_units_Z 60
_cell_length_a 12.720747
_cell_length_b 12.720747
_cell_length_c 25.987537
_cell_angle_alpha 90.000000
_cell_angle_beta 90.000000
_cell_angle_gamma 120.000000
_cell_volume 3641.841014
_symmetry_space_group_name_H-M "P -3 M 1"
_symmetry_group_IT_number 164
_symmetry_cell_setting 'hexagonal'
loop_
_space_group_symop_operation_xyz
x,y,z
-y,x-y,z
-x+y,-x,z
x-y,-y,-z
-x,-x+y,-z
y,x,-z
-x,-y,-z
y,-x+y,-z
x-y,x,-z
-x+y,y,z
x,x-y,z
-y,-x,z
loop_
_atom_site_type_symbol
_atom_site_label
_atom_site_fract_x
_atom_site_fract_y
_atom_site_fract_z
Si Si1 0.578238 0.666482 0.852054
Si Si2 0.247718 0.001728 0.665640
Si Si3 0.756674 0.755682 0.554251
Si Si4 0.000096 0.241177 0.941548
Si Si5 0.913512 0.334267 0.757698
O O1 0.575978 0.787989 0.839424
O O2 0.441637 0.558364 0.857060
O O3 0.645586 0.675102 0.905442
O O4 0.650253 0.645578 0.806734
O O5 0.127718 0.872283 0.673401
O O6 0.312295 0.016822 0.608952
O O7 0.211499 0.105750 0.672637
O O8 0.346480 0.015876 0.707136
O O9 0.688009 0.688009 0.500000
O O10 0.756228 0.878114 0.561775
O O11 0.894386 0.788772 0.547051
O O12 0.099633 0.199265 0.935025
O O13 0.870983 0.129018 0.925555
O O14 0.000000 0.283171 0.000000
O O15 0.887539 0.443770 0.751457
O O16 0.787191 0.212810 0.765322
#
# Coordination Sequence:
#
# PCOD8323648 Si02
#       5
#    12  12  12  12  12
#     4  10  20  33  49  68  91 118 147 180 218 261
#     4   9  16  26  42  65  91 115 139 171 214 262
#     4   8  12  18  31  54  84 114 139 164 200 250
#     4   9  17  30  49  72  96 121 149 181 216 253
#     4  10  20  33  48  64  84 112 147 185 221 258
#
# _framework density 16.475183000000001
#
# number of rings (size 3 to 8) (size 9 to 14) (size 15 to 20)
#    0.000    2.800    0.000    2.200    0.000    3.600 
#    0.000    0.000    0.000    7.800    0.000    0.000 
#    0.000    0.000    0.000    0.000    0.000    0.000 
#
# Total GULP energy -743371.652344 kJ/mol
# GULP energy per Si atom -12389.527539 kJ/mol
# Density = 1.643768 g / cm^3
# Si number density = 16.475183 Si / 1000 Ang^3
#
#
#
# Elastic Constant Matrix: (Units=GPa)
#
#
# Indices 1 2 3 4 5 6 
#
# 1 74.0864 45.2563 58.3019 1.5119 0.0000 0.0000
# 2 45.2563 74.0864 58.3019 -1.5119 0.0000 0.0000
# 3 58.3019 58.3019 143.1251 0.0000 0.0000 0.0000
# 4 1.5119 -1.5119 0.0000 19.7053 0.0000 0.0000
# 5 0.0000 0.0000 0.0000 0.0000 19.7053 1.5119
# 6 0.0000 0.0000 0.0000 0.0000 1.5119 14.4151
#
#
#
# Elastic Compliance Matrix: (Units=1/GPa)
#
#
# Indices 1 2 3 4 5 6 
#
# 1 0.024443 -0.010524 -0.005670 -0.002683 0.000000 0.000000
# 2 -0.010524 0.024443 -0.005670 0.002683 0.000000 0.000000
# 3 -0.005670 -0.005670 0.011606 0.000000 0.000000 0.000000
# 4 -0.002683 0.002683 0.000000 0.051159 0.000000 0.000000
# 5 0.000000 0.000000 0.000000 0.000000 0.051159 -0.005366
# 6 0.000000 0.000000 0.000000 0.000000 -0.005366 0.069935
#
#
# Mechanical properties :
#
#
# Convention : Reuss Voigt Hill
#
# Bulk Modulus (GPa) = 59.64961 68.33536 63.99249
# Shear Modulus (GPa) = 17.72660 19.39433 18.56046
#
# Velocity S-wave (km/s) = 3.28374 3.43473 3.36008
# Velocity P-wave (km/s) = 7.11769 7.56952 7.34708
#
# Compressibility (1/GPa) = 0.01676457
#
# Stress axis : x y z
#
# Youngs Moduli (GPa) = 40.91123 40.91123 86.16115
#
# Poissons Ratio (x) = 0.43056 0.48853
# Poissons Ratio (y) = 0.43056 0.48853
# Poissons Ratio (z) = 0.23196 0.23196
#
# Static dielectric constant tensor:
#      x y z
#    x 2.879230 0.000000 0.000000 
#    y 0.000000 2.879230 0.000000 
#    z 0.000000 0.000000 3.617970 
# 
# 
# High freq. dielectric constant tensor:
#      x y z
#    x 1.611740 0.000000 0.000000 
#    y 0.000000 1.611740 0.000000 
#    z 0.000000 0.000000 1.661610 
# 
# From -- ./inp_files/5174.got.cif
#   From: 2010.03.12/outbox.cif.g09.slc.cpg/sg164_3_cif.got.tgz:5174.got - 2010.04.02 06:32:59.
