data_PCOD8323762
_publ_section_title
;
Structure prediction by ZEFSAII (Michael W. Deem and Ramdas Pophale) SiO2 
 PCOD8323762
Probable space group: P -3 M 1
;
_chemical_formula_sum "Si O2"
_cell_formula_units_Z 84
_cell_length_a 21.274319
_cell_length_b 21.274319
_cell_length_c 12.054931
_cell_angle_alpha 90.000000
_cell_angle_beta 90.000000
_cell_angle_gamma 120.000000
_cell_volume 4725.053113
_symmetry_space_group_name_H-M "P -3 M 1"
_symmetry_group_IT_number 164
_symmetry_cell_setting 'hexagonal'
loop_
_space_group_symop_operation_xyz
x,y,z
-y,x-y,z
-x+y,-x,z
x-y,-y,-z
-x,-x+y,-z
y,x,-z
-x,-y,-z
y,-x+y,-z
x-y,x,-z
-x+y,y,z
x,x-y,z
-y,-x,z
loop_
_atom_site_type_symbol
_atom_site_label
_atom_site_fract_x
_atom_site_fract_y
_atom_site_fract_z
Si Si1 0.861799 0.578738 0.840324
Si Si2 0.000064 0.858820 0.132175
Si Si3 0.994371 0.280185 0.131692
Si Si4 0.188934 0.520980 0.958233
Si Si5 0.465562 0.391355 0.442600
Si Si6 0.666026 0.475971 0.634453
Si Si7 0.862651 0.282122 0.242465
O O1 0.802171 0.604341 0.846132
O O2 0.940155 0.647196 0.816708
O O3 0.846828 0.523550 0.741800
O O4 0.862885 0.540634 0.954954
O O5 0.929060 0.858120 0.179162
O O6 0.001001 0.788323 0.176414
O O7 0.070495 0.929506 0.179454
O O8 0.000000 0.860007 0.000000
O O9 0.917228 0.267421 0.170743
O O10 0.000000 0.285196 0.000000
O O11 0.272434 0.544867 0.983346
O O12 0.177935 0.588968 0.972582
O O13 0.167405 0.490542 0.834154
O O14 0.405368 0.405368 0.500000
O O15 0.532483 0.467518 0.397522
O O16 0.494054 0.356752 0.531393
O O17 0.428282 0.333738 0.344664
O O18 0.738209 0.476417 0.598700
O O19 0.605275 0.394726 0.664852
O O20 0.795148 0.204853 0.282139
#
# Coordination Sequence:
#
# PCOD8323762 Si02
#       7
#    12  12  12  12  12  12  12
#     4  10  20  34  52  76 107 141 179 220 266 323
#     4   9  17  28  46  70  99 133 171 211 251 295
#     4  11  20  33  50  73 105 144 179 213 256 315
#     4  10  20  34  52  75 105 141 181 226 276 329
#     4  10  21  38  58  78 105 139 178 227 281 333
#     4  10  20  35  56  79 103 133 175 225 277 326
#     4  11  22  36  55  79 109 142 182 225 271 326
#
# _framework density 17.777577000000001
#
# number of rings (size 3 to 8) (size 9 to 14) (size 15 to 20)
#    0.000    1.857    1.429    3.429    0.000    1.714 
#    0.000    4.286    0.000    4.571    0.000    0.000 
#    0.000    0.000    0.000    0.000    0.000   26.286 
#
# Total GULP energy -1041816.281426 kJ/mol
# GULP energy per Si atom -12402.574779 kJ/mol
# Density = 1.773711 g / cm^3
# Si number density = 17.777577 Si / 1000 Ang^3
#
#
#
# Elastic Constant Matrix: (Units=GPa)
#
#
# Indices 1 2 3 4 5 6 
#
# 1 108.5041 59.4425 32.7354 1.6988 0.0000 0.0000
# 2 59.4425 108.5041 32.7354 -1.6988 0.0000 0.0000
# 3 32.7354 32.7354 58.0114 0.0000 0.0000 0.0000
# 4 1.6988 -1.6988 0.0000 21.4738 0.0000 0.0000
# 5 0.0000 0.0000 0.0000 0.0000 21.4738 1.6988
# 6 0.0000 0.0000 0.0000 0.0000 1.6988 24.5308
#
#
#
# Elastic Compliance Matrix: (Units=1/GPa)
#
#
# Indices 1 2 3 4 5 6 
#
# 1 0.014064 -0.006431 -0.004308 -0.001621 0.000000 0.000000
# 2 -0.006431 0.014064 -0.004308 0.001621 0.000000 0.000000
# 3 -0.004308 -0.004308 0.022099 0.000000 0.000000 0.000000
# 4 -0.001621 0.001621 0.000000 0.046825 0.000000 0.000000
# 5 0.000000 0.000000 0.000000 0.000000 0.046825 -0.003243
# 6 0.000000 0.000000 0.000000 0.000000 -0.003243 0.040990
#
#
# Mechanical properties :
#
#
# Convention : Reuss Voigt Hill
#
# Bulk Modulus (GPa) = 49.66159 58.31625 53.98892
# Shear Modulus (GPa) = 22.55597 23.50276 23.02937
#
# Velocity S-wave (km/s) = 3.56587 3.63994 3.60309
# Velocity P-wave (km/s) = 6.70444 7.10915 6.90976
#
# Compressibility (1/GPa) = 0.02013629
#
# Stress axis : x y z
#
# Youngs Moduli (GPa) = 71.10277 71.10277 45.25006
#
# Poissons Ratio (x) = 0.45724 0.19492
# Poissons Ratio (y) = 0.45724 0.19492
# Poissons Ratio (z) = 0.30628 0.30628
#
# Static dielectric constant tensor:
#      x y z
#    x 3.420080 0.000000 0.000000 
#    y 0.000000 3.420080 0.000000 
#    z 0.000000 0.000000 2.905270 
# 
# 
# High freq. dielectric constant tensor:
#      x y z
#    x 1.698340 0.000000 0.000000 
#    y 0.000000 1.698340 0.000000 
#    z 0.000000 0.000000 1.661010 
# 
# From -- ./inp_files/2923.got.cif
#   From: 2010.03.12/outbox.cif.g09.slc.cpg/sg164_2_cif.got.tgz:2923.got - 2010.04.02 06:32:59.
