data_PCOD8323324
_publ_section_title
;
Structure prediction by ZEFSAII (Michael W. Deem and Ramdas Pophale) SiO2 
 PCOD8323324
Probable space group: P -3 1 C
;
_chemical_formula_sum "Si O2"
_cell_formula_units_Z 40
_cell_length_a 15.243361
_cell_length_b 15.243361
_cell_length_c 9.846213
_cell_angle_alpha 90.000000
_cell_angle_beta 90.000000
_cell_angle_gamma 120.000000
_cell_volume 1981.350587
_symmetry_space_group_name_H-M "P -3 1 C"
_symmetry_group_IT_number 163
_symmetry_cell_setting 'hexagonal'
loop_
_space_group_symop_operation_xyz
x,y,z
-y,x-y,z
-x+y,-x,z
-y,-x,1/2-z
-x+y,y,1/2-z
x,x-y,1/2-z
-x,-y,-z
y,-x+y,-z
x-y,x,-z
y,x,1/2+z
x-y,-y,1/2+z
-x,-x+y,1/2+z
loop_
_atom_site_type_symbol
_atom_site_label
_atom_site_fract_x
_atom_site_fract_y
_atom_site_fract_z
Si Si1 0.212450 0.774510 0.088388
Si Si2 0.817037 0.814872 0.210489
Si Si3 0.012057 0.716204 0.539744
Si Si4 0.333335 0.666668 0.088908
O O1 0.216211 0.783790 0.250000
O O2 0.267806 0.715363 0.033957
O O3 0.278890 0.889283 0.028010
O O4 0.094795 0.705009 0.040311
O O5 0.935207 0.870414 0.250000
O O6 0.802846 0.788268 0.052211
O O7 0.758496 0.715880 0.307206
O O8 0.769927 0.884964 0.250000
O O9 0.333334 0.666667 0.250000
#
# Coordination Sequence:
#
# PCOD8323324 Si02
#       4
#    12  12  12   4
#     4  11  22  41  64  93 122 164 207 249 310 369
#     4  12  21  34  52  89 124 172 208 241 292 371
#     4  12  20  35  63  86 126 156 206 251 300 365
#     4   9  24  45  66  88 119 154 216 271 302 373
#
# _framework density 20.188248999999999
#
# number of rings (size 3 to 8) (size 9 to 14) (size 15 to 20)
#    0.000    0.600    9.000    0.300    0.000    1.200 
#    0.000    3.000    0.000    5.400    0.000    0.000 
#    0.000    0.000    0.000    0.000    0.000    0.000 
#
# Total GULP energy -495561.522693 kJ/mol
# GULP energy per Si atom -12389.038067 kJ/mol
# Density = 2.014230 g / cm^3
# Si number density = 20.188249 Si / 1000 Ang^3
#
#
#
# Elastic Constant Matrix: (Units=GPa)
#
#
# Indices 1 2 3 4 5 6 
#
# 1 124.1388 59.4503 17.5986 -0.0003 3.1470 0.0009
# 2 59.4503 124.1406 17.5988 -0.0003 -3.1474 0.0006
# 3 17.5986 17.5988 62.6871 -0.0001 -0.0001 0.0002
# 4 -0.0003 -0.0003 -0.0001 24.0064 -0.0001 -3.1472
# 5 3.1470 -3.1474 -0.0001 -0.0001 24.0064 0.0000
# 6 0.0009 0.0006 0.0002 -3.1472 0.0000 32.3446
#
#
#
# Elastic Compliance Matrix: (Units=1/GPa)
#
#
# Indices 1 2 3 4 5 6 
#
# 1 0.010708 -0.004951 -0.001616 0.000000 -0.002053 0.000000
# 2 -0.004951 0.010707 -0.001616 0.000000 0.002053 0.000000
# 3 -0.001616 -0.001616 0.016860 0.000000 0.000000 0.000000
# 4 0.000000 0.000000 0.000000 0.042194 0.000000 0.004105
# 5 -0.002053 0.002053 0.000000 0.000000 0.042194 0.000000
# 6 0.000000 0.000000 0.000000 0.004105 0.000000 0.031317
#
#
# Mechanical properties :
#
#
# Convention : Reuss Voigt Hill
#
# Bulk Modulus (GPa) = 45.64411 55.58463 50.61437
# Shear Modulus (GPa) = 28.14560 30.49274 29.31917
#
# Velocity S-wave (km/s) = 3.73789 3.89063 3.81503
# Velocity P-wave (km/s) = 6.42553 6.91199 6.67319
#
# Compressibility (1/GPa) = 0.02190863
#
# Stress axis : x y z
#
# Youngs Moduli (GPa) = 93.39192 93.39314 59.31309
#
# Poissons Ratio (x) = 0.46236 0.09586
# Poissons Ratio (y) = 0.46236 0.09586
# Poissons Ratio (z) = 0.15093 0.15094
#
# Static dielectric constant tensor:
#      x y z
#    x 3.707260 0.000000 0.000000 
#    y 0.000000 3.707240 0.000000 
#    z 0.000000 0.000000 3.654010 
# 
# 
# High freq. dielectric constant tensor:
#      x y z
#    x 1.773860 0.000000 0.000000 
#    y 0.000000 1.773860 0.000000 
#    z 0.000000 0.000000 1.788660 
# 
# From -- ./inp_files/795.got.cif
#   From: 2010.03.12/outbox.cif.g09.slc.cpg/sg163_1_cif.got.tgz:795.got - 2010.04.02 06:30:25.
