data_PCOD8323332
_publ_section_title
;
Structure prediction by ZEFSAII (Michael W. Deem and Ramdas Pophale) SiO2 
 PCOD8323332
Probable space group: P -3 1 C
;
_chemical_formula_sum "Si O2"
_cell_formula_units_Z 66
_cell_length_a 19.742861
_cell_length_b 19.742861
_cell_length_c 9.025503
_cell_angle_alpha 90.000000
_cell_angle_beta 90.000000
_cell_angle_gamma 120.000000
_cell_volume 3046.647595
_symmetry_space_group_name_H-M "P -3 1 C"
_symmetry_group_IT_number 163
_symmetry_cell_setting 'hexagonal'
loop_
_space_group_symop_operation_xyz
x,y,z
-y,x-y,z
-x+y,-x,z
-y,-x,1/2-z
-x+y,y,1/2-z
x,x-y,1/2-z
-x,-y,-z
y,-x+y,-z
x-y,x,-z
y,x,1/2+z
x-y,-y,1/2+z
-x,-x+y,1/2+z
loop_
_atom_site_type_symbol
_atom_site_label
_atom_site_fract_x
_atom_site_fract_y
_atom_site_fract_z
Si Si1 0.088486 0.338680 0.744992
Si Si2 0.067600 0.763852 0.081294
Si Si3 0.945212 0.539917 0.159031
Si Si4 0.213591 0.427181 0.250000
Si Si5 0.153748 0.089066 0.586163
Si Si6 0.619647 0.516908 0.677266
O O1 0.163489 0.326978 0.750000
O O2 0.052816 0.324597 0.581566
O O3 0.112079 0.426192 0.798596
O O4 0.016891 0.275260 0.842237
O O5 0.138031 0.756712 0.148676
O O6 0.103585 0.856968 0.085517
O O7 0.921800 0.460900 0.250000
O O8 0.032891 0.609073 0.209002
O O9 0.938094 0.523491 0.982541
O O10 0.294393 0.474846 0.343222
O O11 0.119908 0.059954 0.750000
O O12 0.115923 0.137667 0.526090
O O13 0.568031 0.431970 0.750000
#
# Coordination Sequence:
#
# PCOD8323332 Si02
#       6
#    12  12  12   6  12  12
#     4  12  26  43  70 101 141 180 232 290 350 406
#     4  12  26  44  65  99 134 182 232 288 351 409
#     4  11  23  43  71 105 136 177 229 281 341 411
#     4  12  26  44  72 100 148 178 228 282 342 420
#     4  12  25  43  62  87 124 175 239 298 358 415
#     4  11  24  44  72 103 140 183 226 282 343 413
#
# _framework density 21.663153999999999
#
# number of rings (size 3 to 8) (size 9 to 14) (size 15 to 20)
#    0.000    0.364    2.727    7.273    5.091    0.000 
#    0.545    0.000    0.000    0.364    0.000    0.000 
#    0.000    0.000    0.000    0.000    0.000    0.000 
#
# Total GULP energy -817892.634866 kJ/mol
# GULP energy per Si atom -12392.312649 kJ/mol
# Density = 2.161385 g / cm^3
# Si number density = 21.663154 Si / 1000 Ang^3
#
#
#
# Elastic Constant Matrix: (Units=GPa)
#
#
# Indices 1 2 3 4 5 6 
#
# 1 87.4759 53.2601 44.2690 0.0002 -22.0153 0.0000
# 2 53.2601 87.4759 44.2690 -0.0002 22.0153 0.0000
# 3 44.2690 44.2690 164.6789 0.0000 0.0000 0.0000
# 4 0.0002 -0.0002 0.0000 0.5158 0.0000 22.0153
# 5 -22.0153 22.0153 0.0000 0.0000 0.5158 0.0002
# 6 0.0000 0.0000 0.0000 22.0153 0.0002 17.1079
#
#
#
# Elastic Compliance Matrix: (Units=1/GPa)
#
#
# Indices 1 2 3 4 5 6 
#
# 1 0.004005 0.004547 -0.002299 0.000000 -0.023133 0.000000
# 2 0.004547 0.004005 -0.002299 0.000000 0.023133 0.000000
# 3 -0.002299 -0.002299 0.007308 0.000000 0.000000 0.000000
# 4 0.000000 0.000000 0.000000 -0.035952 0.000000 0.046265
# 5 -0.023133 0.023133 0.000000 0.000000 -0.035952 0.000001
# 6 0.000000 0.000000 0.000000 0.046265 0.000001 -0.001084
#
#
# Mechanical properties :
#
#
# Convention : Reuss Voigt Hill
#
# Bulk Modulus (GPa) = 65.71874 69.24743 67.48309
# Shear Modulus (GPa) = -95.24507 16.81673 -39.21417
#
# Velocity S-wave (km/s) = -6.63791 2.78921 -4.25923
# Velocity P-wave (km/s) = 5.32415 6.51213 2.65153
#
# Compressibility (1/GPa) = 0.01521636
#
# Stress axis : x y z
#
# Youngs Moduli (GPa) = 249.69380 249.69379 136.82890
#
# Poissons Ratio (x) = -1.13532 0.31455
# Poissons Ratio (y) = -1.13532 0.31455
# Poissons Ratio (z) = 0.57402 0.57402
#
# Static dielectric constant tensor:
#      x y z
#    x 3.730220 0.000000 0.000000 
#    y 0.000000 3.730220 0.000000 
#    z 0.000000 0.000000 4.077050 
# 
# 
# High freq. dielectric constant tensor:
#      x y z
#    x 1.845740 0.000000 0.000000 
#    y 0.000000 1.845740 0.000000 
#    z 0.000000 0.000000 1.866340 
# 
# From -- ./inp_files/1165.got.cif
#   From: 2010.03.12/outbox.cif.g09.slc.cpg/sg163_1_cif.got.tgz:1165.got - 2010.04.02 06:30:25.
