data_PCOD8323062
_publ_section_title
;
Structure prediction by ZEFSAII (Michael W. Deem and Ramdas Pophale) SiO2 
 PCOD8323062
Probable space group: P -3 1 M 
;
_chemical_formula_sum "Si O2"
_cell_formula_units_Z 76
_cell_length_a 17.978958
_cell_length_b 17.978958
_cell_length_c 15.123653
_cell_angle_alpha 90.000000
_cell_angle_beta 90.000000
_cell_angle_gamma 120.000000
_cell_volume 4233.663844
_symmetry_space_group_name_H-M "P -3 1 M "
_symmetry_group_IT_number 162
_symmetry_cell_setting 'hexagonal'
loop_
_space_group_symop_operation_xyz
x,y,z
-y,x-y,z
-x+y,-x,z
-y,-x,-z
-x+y,y,-z
x,x-y,-z
-x,-y,-z
y,-x+y,-z
x-y,x,-z
y,x,z
x-y,-y,z
-x,-x+y,z
loop_
_atom_site_type_symbol
_atom_site_label
_atom_site_fract_x
_atom_site_fract_y
_atom_site_fract_z
Si Si1 0.100536 0.362703 0.003363
Si Si2 0.901253 0.639723 0.499292
Si Si3 0.333334 0.666667 0.103990
Si Si4 0.826508 0.494025 0.850151
Si Si5 0.535585 0.633955 0.335064
Si Si6 0.100985 0.630850 0.349639
Si Si7 0.527770 0.628640 0.847115
O O1 0.128520 0.423413 0.088119
O O2 0.000000 0.291588 0.007456
O O3 0.157956 0.315911 0.000000
O O4 0.126343 0.421031 0.915562
O O5 0.842060 0.684119 0.500000
O O6 0.891055 0.592653 0.591717
O O7 0.861345 0.567245 0.422415
O O8 0.000000 0.713078 0.483259
O O9 0.277057 0.567193 0.137832
O O10 0.333334 0.666667 0.000000
O O11 0.844525 0.527319 0.749755
O O12 0.863612 0.432738 0.878028
O O13 0.578503 0.578503 0.302671
O O14 0.440530 0.568310 0.372895
O O15 0.134096 0.668001 0.251039
O O16 0.000000 0.589349 0.357888
O O17 0.567926 0.567926 0.843722
#
# Coordination Sequence:
#
# PCOD8323062 Si02
#       7
#    12  12   4  12  12  12  12
#     4  11  22  35  52  73  97 125 161 206 251 296
#     4  10  20  33  51  73  97 127 165 210 255 300
#     4  12  24  33  45  69 106 149 184 207 234 279
#     4  11  20  33  49  71 105 139 169 202 239 277
#     4   9  18  32  51  74  97 126 166 205 246 297
#     4   8  15  30  50  71  95 124 158 197 240 285
#     4   9  17  30  51  75  98 130 169 201 236 288
#
# _framework density 17.951353999999998
#
# number of rings (size 3 to 8) (size 9 to 14) (size 15 to 20)
#    0.000    2.211    0.000    5.684    0.000    6.947 
#    0.000    0.000    0.000    2.842    0.000    0.000 
#    0.000    0.000    0.000   11.526    0.000    0.000 
#
# Total GULP energy -942111.365816 kJ/mol
# GULP energy per Si atom -12396.202182 kJ/mol
# Density = 1.791050 g / cm^3
# Si number density = 17.951354 Si / 1000 Ang^3
#
#
#
# Elastic Constant Matrix: (Units=GPa)
#
#
# Indices 1 2 3 4 5 6 
#
# 1 76.6226 40.7557 32.7085 -0.0001 0.5360 0.0000
# 2 40.7557 76.6227 32.7084 0.0000 -0.5361 0.0001
# 3 32.7085 32.7084 91.0876 0.0000 0.0001 0.0000
# 4 -0.0001 0.0000 0.0000 8.1587 0.0001 -0.5361
# 5 0.5360 -0.5361 0.0001 0.0001 8.1587 0.0001
# 6 0.0000 0.0001 0.0000 -0.5361 0.0001 17.9336
#
#
#
# Elastic Compliance Matrix: (Units=1/GPa)
#
#
# Indices 1 2 3 4 5 6 
#
# 1 0.019293 -0.008642 -0.003825 0.000000 -0.001835 0.000000
# 2 -0.008642 0.019293 -0.003825 0.000000 0.001836 0.000000
# 3 -0.003825 -0.003825 0.013725 0.000000 0.000000 0.000000
# 4 0.000000 0.000000 0.000000 0.122810 -0.000002 0.003671
# 5 -0.001835 0.001836 0.000000 -0.000002 0.122809 -0.000001
# 6 0.000000 0.000000 0.000000 0.003671 -0.000001 0.055871
#
#
# Mechanical properties :
#
#
# Convention : Reuss Voigt Hill
#
# Bulk Modulus (GPa) = 50.68776 50.74201 50.71488
# Shear Modulus (GPa) = 12.72390 16.06089 14.39240
#
# Velocity S-wave (km/s) = 2.66522 2.99438 2.83458
# Velocity P-wave (km/s) = 6.14562 6.34688 6.24706
#
# Compressibility (1/GPa) = 0.01972863
#
# Stress axis : x y z
#
# Youngs Moduli (GPa) = 51.83130 51.83140 72.85867
#
# Poissons Ratio (x) = 0.44794 0.27866
# Poissons Ratio (y) = 0.44794 0.27866
# Poissons Ratio (z) = 0.19824 0.19824
#
# Static dielectric constant tensor:
#      x y z
#    x 3.227550 0.000000 0.000000 
#    y 0.000000 3.227550 0.000000 
#    z 0.000000 0.000000 3.653990 
# 
# 
# High freq. dielectric constant tensor:
#      x y z
#    x 1.672730 0.000000 0.000000 
#    y 0.000000 1.672730 0.000000 
#    z 0.000000 0.000000 1.708870 
# 
# From -- ./inp_files/3123.got.cif
#   From: 2010.03.12/outbox.cif.g09.slc.cpg/sg162_2_cif.got.tgz:3123.got - 2010.04.02 06:27:41.
