data_PCOD8323572
_publ_section_title
;
Structure prediction by ZEFSAII (Michael W. Deem and Ramdas Pophale) SiO2 
 PCOD8323572
Probable space group: P -3 M 1
;
_chemical_formula_sum "Si O2"
_cell_formula_units_Z 96
_cell_length_a 17.656321
_cell_length_b 17.656321
_cell_length_c 20.058122
_cell_angle_alpha 90.000000
_cell_angle_beta 90.000000
_cell_angle_gamma 120.000000
_cell_volume 5415.285175
_symmetry_space_group_name_H-M "P -3 M 1"
_symmetry_group_IT_number 164
_symmetry_cell_setting 'hexagonal'
loop_
_space_group_symop_operation_xyz
x,y,z
-y,x-y,z
-x+y,-x,z
x-y,-y,-z
-x,-x+y,-z
y,x,-z
-x,-y,-z
y,-x+y,-z
x-y,x,-z
-x+y,y,z
x,x-y,z
-y,-x,z
loop_
_atom_site_type_symbol
_atom_site_label
_atom_site_fract_x
_atom_site_fract_y
_atom_site_fract_z
Si Si1 0.335393 0.495004 0.835460
Si Si2 0.996139 0.658840 0.796402
Si Si3 0.399322 0.973694 0.336706
Si Si4 0.666011 0.508932 0.545552
Si Si5 0.827562 0.827106 0.756882
Si Si6 0.635991 0.905354 0.575243
Si Si7 0.171030 0.170832 0.601232
Si Si8 0.409747 0.420088 0.927186
O O1 0.255240 0.510480 0.842354
O O2 0.417475 0.582526 0.805870
O O3 0.314963 0.413311 0.787217
O O4 0.359540 0.473186 0.908549
O O5 0.959452 0.610206 0.867963
O O6 0.945214 0.595742 0.734324
O O7 0.986219 0.743732 0.797690
O O8 0.499246 0.998492 0.327906
O O9 0.399326 0.058677 0.366123
O O10 0.346693 0.889935 0.383919
O O11 0.744207 0.488414 0.551619
O O12 0.579000 0.421001 0.523060
O O13 0.685832 0.584329 0.492210
O O14 0.818786 0.909393 0.778450
O O15 0.809873 0.806488 0.678889
O O16 0.923753 0.847506 0.776573
O O17 0.621287 0.810644 0.597348
O O18 0.739382 0.972083 0.562295
O O19 0.190135 0.095068 0.575270
O O20 0.068911 0.137822 0.589004
O O21 0.514300 0.485701 0.929557
O O22 0.376120 0.376120 0.000000
#
# Coordination Sequence:
#
# PCOD8323572 Si02
#       8
#    12  12  12  12  12  12  12  12
#     4   9  17  29  50  79 110 144 181 218 260 314
#     4  10  19  32  53  80 107 141 177 218 270 321
#     4  11  21  35  54  78 107 134 171 218 268 321
#     4  10  22  39  59  78 101 135 177 222 268 322
#     4  10  19  32  51  76 107 144 182 224 267 316
#     4  10  20  34  52  78 106 139 177 217 266 313
#     4   9  17  30  50  76 106 141 180 222 269 319
#     4   8  16  32  52  77 109 146 183 219 263 316
#
# _framework density 17.727599000000001
#
# number of rings (size 3 to 8) (size 9 to 14) (size 15 to 20)
#    0.750    1.625    1.250    2.375    0.000    3.500 
#    0.000    1.250    0.000    0.250    0.000    0.000 
#    0.000   17.000    0.000    0.000    0.000    0.000 
#
# Total GULP energy -1189880.323280 kJ/mol
# GULP energy per Si atom -12394.586701 kJ/mol
# Density = 1.768725 g / cm^3
# Si number density = 17.727599 Si / 1000 Ang^3
#
#
#
# Elastic Constant Matrix: (Units=GPa)
#
#
# Indices 1 2 3 4 5 6 
#
# 1 93.3118 36.6294 35.1157 -0.3388 0.0000 0.0000
# 2 36.6294 93.3118 35.1157 0.3388 0.0000 0.0000
# 3 35.1157 35.1157 105.0123 0.0000 0.0000 0.0000
# 4 -0.3388 0.3388 0.0000 15.8140 0.0000 0.0000
# 5 0.0000 0.0000 0.0000 0.0000 15.8140 -0.3388
# 6 0.0000 0.0000 0.0000 0.0000 -0.3388 28.3412
#
#
#
# Elastic Compliance Matrix: (Units=1/GPa)
#
#
# Indices 1 2 3 4 5 6 
#
# 1 0.013520 -0.004127 -0.003141 0.000378 0.000000 0.000000
# 2 -0.004127 0.013520 -0.003141 -0.000378 0.000000 0.000000
# 3 -0.003141 -0.003141 0.011623 0.000000 0.000000 0.000000
# 4 0.000378 -0.000378 0.000000 0.063251 0.000000 0.000000
# 5 0.000000 0.000000 0.000000 0.000000 0.063251 0.000756
# 6 0.000000 0.000000 0.000000 0.000000 0.000756 0.035293
#
#
# Mechanical properties :
#
#
# Convention : Reuss Voigt Hill
#
# Bulk Modulus (GPa) = 56.03525 56.15084 56.09305
# Shear Modulus (GPa) = 22.00449 24.31217 23.15833
#
# Velocity S-wave (km/s) = 3.52697 3.70730 3.61826
# Velocity P-wave (km/s) = 6.94721 7.07591 7.01185
#
# Compressibility (1/GPa) = 0.01784591
#
# Stress axis : x y z
#
# Youngs Moduli (GPa) = 73.96392 73.96392 86.03273
#
# Poissons Ratio (x) = 0.30522 0.27024
# Poissons Ratio (y) = 0.30522 0.27024
# Poissons Ratio (z) = 0.23233 0.23233
#
# Static dielectric constant tensor:
#      x y z
#    x 3.239010 0.000000 0.000000 
#    y 0.000000 3.239010 0.000000 
#    z 0.000000 0.000000 3.130720 
# 
# 
# High freq. dielectric constant tensor:
#      x y z
#    x 1.681620 0.000000 0.000000 
#    y 0.000000 1.681620 0.000000 
#    z 0.000000 0.000000 1.662880 
# 
# From -- ./inp_files/4689.got.cif
#   From: 2010.03.12/outbox.cif.g09.slc.cpg/sg164_3_cif.got.tgz:4689.got - 2010.04.02 06:32:59.
