data_PCOD8323491
_publ_section_title
;
Structure prediction by ZEFSAII (Michael W. Deem and Ramdas Pophale) SiO2 
 PCOD8323491
Probable space group: P -3 M 1
;
_chemical_formula_sum "Si O2"
_cell_formula_units_Z 96
_cell_length_a 18.022591
_cell_length_b 18.022591
_cell_length_c 19.779263
_cell_angle_alpha 90.000000
_cell_angle_beta 90.000000
_cell_angle_gamma 120.000000
_cell_volume 5563.847156
_symmetry_space_group_name_H-M "P -3 M 1"
_symmetry_group_IT_number 164
_symmetry_cell_setting 'hexagonal'
loop_
_space_group_symop_operation_xyz
x,y,z
-y,x-y,z
-x+y,-x,z
x-y,-y,-z
-x,-x+y,-z
y,x,-z
-x,-y,-z
y,-x+y,-z
x-y,x,-z
-x+y,y,z
x,x-y,z
-y,-x,z
loop_
_atom_site_type_symbol
_atom_site_label
_atom_site_fract_x
_atom_site_fract_y
_atom_site_fract_z
Si Si1 0.833024 0.502164 0.997874
Si Si2 0.931665 0.690392 0.313082
Si Si3 0.000174 0.170705 0.577758
Si Si4 0.357259 0.478533 0.858706
Si Si5 0.078066 0.457438 0.136128
Si Si6 0.171666 0.000203 0.922916
Si Si7 0.670512 0.503611 0.287153
Si Si8 0.764951 0.067477 0.805784
O O1 0.750550 0.501100 0.966784
O O2 0.811952 0.405976 0.008374
O O3 0.908642 0.550361 0.943756
O O4 0.855562 0.550904 0.070745
O O5 0.850245 0.700490 0.294154
O O6 0.979251 0.745307 0.379403
O O7 0.900097 0.589744 0.327837
O O8 0.997898 0.725319 0.252168
O O9 0.071616 0.143231 0.590053
O O10 0.000000 0.195693 0.500000
O O11 0.908927 0.091074 0.599820
O O12 0.420143 0.579858 0.864232
O O13 0.409642 0.430710 0.848807
O O14 0.303322 0.464692 0.790761
O O15 0.117783 0.558892 0.156305
O O16 0.112622 0.405395 0.180053
O O17 0.090845 0.909156 0.902551
O O18 0.143722 0.071861 0.914880
O O19 0.251177 0.020560 0.874160
O O20 0.201320 0.000000 0.000000
O O21 0.735760 0.471519 0.311584
O O22 0.572102 0.427899 0.297330
O O23 0.858623 0.141378 0.783058
#
# Coordination Sequence:
#
# PCOD8323491 Si02
#       8
#    12  12  12  12  12  12  12  12
#     4  10  19  30  44  61  81 107 145 198 256 308
#     4  10  20  33  50  74 104 135 162 194 241 288
#     4   9  17  31  53  81 111 141 170 198 230 274
#     4   9  17  30  46  62  82 111 148 194 248 301
#     4  10  20  34  47  60  83 116 156 198 246 301
#     4   9  18  32  48  65  87 119 157 196 235 277
#     4  10  19  32  50  73  98 128 164 203 246 294
#     4  11  21  33  48  69  94 121 159 201 241 286
#
# _framework density 17.254248
#
# number of rings (size 3 to 8) (size 9 to 14) (size 15 to 20)
#    0.000    2.250    1.250    2.375    0.000    3.500 
#    0.000    2.500    0.000    4.625    0.000    0.000 
#    0.000    0.000    0.000    0.000    0.000    0.625 
#
# Total GULP energy -1189509.267591 kJ/mol
# GULP energy per Si atom -12390.721537 kJ/mol
# Density = 1.721498 g / cm^3
# Si number density = 17.254248 Si / 1000 Ang^3
#
#
#
# Elastic Constant Matrix: (Units=GPa)
#
#
# Indices 1 2 3 4 5 6 
#
# 1 83.9713 41.4171 38.1548 -3.6845 0.0000 0.0000
# 2 41.4171 83.9713 38.1548 3.6845 0.0000 0.0000
# 3 38.1548 38.1548 64.8853 0.0000 0.0000 0.0000
# 4 -3.6845 3.6845 0.0000 20.3295 0.0000 0.0000
# 5 0.0000 0.0000 0.0000 0.0000 20.3295 -3.6845
# 6 0.0000 0.0000 0.0000 0.0000 -3.6845 21.2771
#
#
#
# Elastic Compliance Matrix: (Units=1/GPa)
#
#
# Indices 1 2 3 4 5 6 
#
# 1 0.018340 -0.005920 -0.007303 0.004397 0.000000 0.000000
# 2 -0.005920 0.018340 -0.007303 -0.004397 0.000000 0.000000
# 3 -0.007303 -0.007303 0.024001 0.000000 0.000000 0.000000
# 4 0.004397 -0.004397 0.000000 0.050784 0.000000 0.000000
# 5 0.000000 0.000000 0.000000 0.000000 0.050784 0.008794
# 6 0.000000 0.000000 0.000000 0.000000 0.008794 0.048522
#
#
# Mechanical properties :
#
#
# Convention : Reuss Voigt Hill
#
# Bulk Modulus (GPa) = 50.94886 52.03125 51.49006
# Shear Modulus (GPa) = 19.35226 20.06061 19.70644
#
# Velocity S-wave (km/s) = 3.35265 3.41346 3.38319
# Velocity P-wave (km/s) = 6.67678 6.76437 6.72072
#
# Compressibility (1/GPa) = 0.01962752
#
# Stress axis : x y z
#
# Youngs Moduli (GPa) = 54.52435 54.52435 41.66484
#
# Poissons Ratio (x) = 0.32281 0.30429
# Poissons Ratio (y) = 0.32281 0.30429
# Poissons Ratio (z) = 0.39821 0.39821
#
# Static dielectric constant tensor:
#      x y z
#    x 3.339970 0.000000 0.000000 
#    y 0.000000 3.339970 0.000000 
#    z 0.000000 0.000000 3.055100 
# 
# 
# High freq. dielectric constant tensor:
#      x y z
#    x 1.664710 0.000000 0.000000 
#    y 0.000000 1.664710 0.000000 
#    z 0.000000 0.000000 1.626030 
# 
# From -- ./inp_files/4806.got.cif
#   From: 2010.03.12/outbox.cif.g09.slc.cpg/sg164_3_cif.got.tgz:4806.got - 2010.04.02 06:32:59.
