data_PCOD8323672
_publ_section_title
;
Structure prediction by ZEFSAII (Michael W. Deem and Ramdas Pophale) SiO2 
 PCOD8323672
Probable space group: P -3 M 1
;
_chemical_formula_sum "Si O2"
_cell_formula_units_Z 60
_cell_length_a 12.654790
_cell_length_b 12.654790
_cell_length_c 25.333760
_cell_angle_alpha 90.000000
_cell_angle_beta 90.000000
_cell_angle_gamma 120.000000
_cell_volume 3513.501707
_symmetry_space_group_name_H-M "P -3 M 1"
_symmetry_group_IT_number 164
_symmetry_cell_setting 'hexagonal'
loop_
_space_group_symop_operation_xyz
x,y,z
-y,x-y,z
-x+y,-x,z
x-y,-y,-z
-x,-x+y,-z
y,x,-z
-x,-y,-z
y,-x+y,-z
x-y,x,-z
-x+y,y,z
x,x-y,z
-y,-x,z
loop_
_atom_site_type_symbol
_atom_site_label
_atom_site_fract_x
_atom_site_fract_y
_atom_site_fract_z
Si Si1 0.333491 0.912496 0.353634
Si Si2 0.913301 0.579853 0.048220
Si Si3 0.242849 0.242710 0.141030
Si Si4 0.242318 0.242310 0.260669
Si Si5 0.664833 0.084820 0.451366
O O1 0.439772 0.879544 0.349796
O O2 0.209598 0.790403 0.368495
O O3 0.324370 0.967659 0.297884
O O4 0.360374 0.012593 0.397878
O O5 0.786844 0.573688 0.037806
O O6 0.888368 0.444184 0.051978
O O7 0.974699 0.646310 0.102922
O O8 0.000000 0.653647 0.000000
O O9 0.202354 0.101177 0.133806
O O10 0.286912 0.284796 0.200911
O O11 0.129129 0.258257 0.125659
O O12 0.259519 0.129760 0.277571
O O13 0.099607 0.199214 0.266034
O O14 0.561378 0.122756 0.455713
O O15 0.794973 0.205028 0.452368
O O16 0.655814 0.000000 0.500000
#
# Coordination Sequence:
#
# PCOD8323672 Si02
#       5
#    12  12  12  12  12
#     4  10  20  33  50  71  97 129 163 199 236 277
#     4  10  20  33  49  68  92 122 155 192 233 280
#     4   9  17  30  49  72  96 122 154 193 236 280
#     4   9  17  30  49  72  97 125 157 194 236 281
#     4  10  20  34  53  75  99 127 159 196 236 280
#
# _framework density 17.076979999999999
#
# number of rings (size 3 to 8) (size 9 to 14) (size 15 to 20)
#    0.000    2.400    0.000    2.800    0.000    2.400 
#    0.000    2.000    0.000    8.800    0.000    0.000 
#    0.000    0.000    0.000    0.000    0.000    0.000 
#
# Total GULP energy -744152.558476 kJ/mol
# GULP energy per Si atom -12402.542641 kJ/mol
# Density = 1.703811 g / cm^3
# Si number density = 17.076980 Si / 1000 Ang^3
#
#
#
# Elastic Constant Matrix: (Units=GPa)
#
#
# Indices 1 2 3 4 5 6 
#
# 1 104.1393 67.2524 62.0702 2.5780 0.0000 0.0000
# 2 67.2524 104.1393 62.0702 -2.5780 0.0000 0.0000
# 3 62.0702 62.0702 116.1462 0.0000 0.0000 0.0000
# 4 2.5780 -2.5780 0.0000 25.7672 0.0000 0.0000
# 5 0.0000 0.0000 0.0000 0.0000 25.7672 2.5780
# 6 0.0000 0.0000 0.0000 0.0000 2.5780 18.4435
#
#
#
# Elastic Compliance Matrix: (Units=1/GPa)
#
#
# Indices 1 2 3 4 5 6 
#
# 1 0.018507 -0.008988 -0.005087 -0.002751 0.000000 0.000000
# 2 -0.008988 0.018507 -0.005087 0.002751 0.000000 0.000000
# 3 -0.005087 -0.005087 0.014047 0.000000 0.000000 0.000000
# 4 -0.002751 0.002751 0.000000 0.039359 0.000000 0.000000
# 5 0.000000 0.000000 0.000000 0.000000 0.039359 -0.005502
# 6 0.000000 0.000000 0.000000 0.000000 -0.005502 0.054989
#
#
# Mechanical properties :
#
#
# Convention : Reuss Voigt Hill
#
# Bulk Modulus (GPa) = 78.51232 78.57892 78.54562
# Shear Modulus (GPa) = 21.99366 22.86440 22.42903
#
# Velocity S-wave (km/s) = 3.59264 3.66307 3.62803
# Velocity P-wave (km/s) = 7.95517 8.00032 7.97778
#
# Compressibility (1/GPa) = 0.01273685
#
# Stress axis : x y z
#
# Youngs Moduli (GPa) = 54.03403 54.03403 71.18831
#
# Poissons Ratio (x) = 0.48563 0.36215
# Poissons Ratio (y) = 0.48563 0.36215
# Poissons Ratio (z) = 0.27489 0.27489
#
# Static dielectric constant tensor:
#      x y z
#    x 3.096770 0.000000 0.000000 
#    y 0.000000 3.096770 0.000000 
#    z 0.000000 0.000000 3.382180 
# 
# 
# High freq. dielectric constant tensor:
#      x y z
#    x 1.657270 0.000000 0.000000 
#    y 0.000000 1.657270 0.000000 
#    z 0.000000 0.000000 1.671940 
# 
# From -- ./inp_files/5180.got.cif
#   From: 2010.03.12/outbox.cif.g09.slc.cpg/sg164_3_cif.got.tgz:5180.got - 2010.04.02 06:32:59.
