data_PCOD8323982
_publ_section_title
;
Structure prediction by ZEFSAII (Michael W. Deem and Ramdas Pophale) SiO2 
 PCOD8323982
Probable space group: R -3 M
;
_chemical_formula_sum "Si O2"
_cell_formula_units_Z 144
_cell_length_a 23.288688
_cell_length_b 23.288688
_cell_length_c 19.372550
_cell_angle_alpha 90.000000
_cell_angle_beta 90.000000
_cell_angle_gamma 120.000000
_cell_volume 9099.289183
_symmetry_space_group_name_H-M "R -3 M"
_symmetry_group_IT_number 166
_symmetry_cell_setting 'hexagonal'
loop_
_space_group_symop_operation_xyz
x,y,z
-y,x-y,z
-x+y,-x,z
x-y,-y,-z
-x,-x+y,-z
y,x,-z
-x,-y,-z
y,-x+y,-z
x-y,x,-z
-x+y,y,z
x,x-y,z
-y,-x,z
2/3+x,1/3+y,1/3+z
2/3-y,1/3+x-y,1/3+z
2/3-x+y,1/3-x,1/3+z
2/3+x-y,1/3-y,1/3-z
2/3-x,1/3-x+y,1/3-z
2/3+y,1/3+x,1/3-z
2/3-x,1/3-y,1/3-z
2/3+y,1/3-x+y,1/3-z
2/3+x-y,1/3+x,1/3-z
2/3-x+y,1/3+y,1/3+z
2/3+x,1/3+x-y,1/3+z
2/3-y,1/3-x,1/3+z
1/3+x,2/3+y,2/3+z
1/3-y,2/3+x-y,2/3+z
1/3-x+y,2/3-x,2/3+z
1/3+x-y,2/3-y,2/3-z
1/3-x,2/3-x+y,2/3-z
1/3+y,2/3+x,2/3-z
1/3-x,2/3-y,2/3-z
1/3+y,2/3-x+y,2/3-z
1/3+x-y,2/3+x,2/3-z
1/3-x+y,2/3+y,2/3+z
1/3+x,2/3+x-y,2/3+z
1/3-y,2/3-x,2/3+z
loop_
_atom_site_type_symbol
_atom_site_label
_atom_site_fract_x
_atom_site_fract_y
_atom_site_fract_z
Si Si1 0.256374 0.954031 0.681777
Si Si2 0.069156 0.799912 0.532498
Si Si3 0.345643 0.935024 0.848488
Si Si4 0.715909 0.561018 0.273078
O O1 0.213155 0.942722 0.614133
O O2 0.239114 0.993522 0.740189
O O3 0.244215 0.883149 0.707643
O O4 0.333334 0.999937 0.666667
O O5 0.123762 0.876239 0.519873
O O6 0.096146 0.755026 0.496359
O O7 0.000000 0.786185 0.500000
O O8 0.300654 0.967321 0.833334
O O9 0.327596 0.874979 0.796163
O O10 0.768495 0.536991 0.259998
O O11 0.666667 0.516826 0.333334
#
# Coordination Sequence:
#
# PCOD8323982 Si02
#       4
#    36  36  36  36
#     4  10  16  29  47  68 100 128 164 201 257 302
#     4  11  20  33  51  73 102 138 171 212 259 313
#     4   9  17  29  43  66  96 124 159 205 250 302
#     4  10  18  27  43  67  94 127 167 207 249 298
#
# _framework density 15.825412
#
# number of rings (size 3 to 8) (size 9 to 14) (size 15 to 20)
#    0.000    2.000   10.000    0.750    0.000    5.500 
#    0.000    2.500    0.000    0.500    0.000    0.000 
#    0.000    0.000    0.000    0.000    0.000    0.000 
#
# Total GULP energy -594935.737608 kJ/mol
# GULP energy per Si atom -12394.494534 kJ/mol
# Density = 1.578939 g / cm^3
# Si number density = 15.825412 Si / 1000 Ang^3
#
#
#
# Elastic Constant Matrix: (Units=GPa)
#
#
# Indices 1 2 3 4 5 6 
#
# 1 71.0731 44.7973 33.1547 0.7581 0.0000 0.0000
# 2 44.7973 71.0731 33.1547 -0.7581 0.0000 0.0000
# 3 33.1547 33.1547 84.9946 0.0000 0.0000 0.0000
# 4 0.7581 -0.7581 0.0000 10.3019 0.0000 0.0000
# 5 0.0000 0.0000 0.0000 0.0000 10.3019 0.7581
# 6 0.0000 0.0000 0.0000 0.0000 0.7581 13.1379
#
#
#
# Elastic Compliance Matrix: (Units=1/GPa)
#
#
# Indices 1 2 3 4 5 6 
#
# 1 0.024665 -0.013555 -0.004334 -0.002813 0.000000 0.000000
# 2 -0.013555 0.024665 -0.004334 0.002813 0.000000 0.000000
# 3 -0.004334 -0.004334 0.015147 0.000000 0.000000 0.000000
# 4 -0.002813 0.002813 0.000000 0.097483 0.000000 0.000000
# 5 0.000000 0.000000 0.000000 0.000000 0.097483 -0.005625
# 6 0.000000 0.000000 0.000000 0.000000 -0.005625 0.076440
#
#
# Mechanical properties :
#
#
# Convention : Reuss Voigt Hill
#
# Bulk Modulus (GPa) = 49.92074 49.92827 49.92450
# Shear Modulus (GPa) = 12.91967 14.48395 13.70181
#
# Velocity S-wave (km/s) = 2.86035 3.02857 2.94566
# Velocity P-wave (km/s) = 6.52089 6.62175 6.57151
#
# Compressibility (1/GPa) = 0.02003176
#
# Stress axis : x y z
#
# Youngs Moduli (GPa) = 40.54267 40.54267 66.02104
#
# Poissons Ratio (x) = 0.54955 0.28614
# Poissons Ratio (y) = 0.54955 0.28614
# Poissons Ratio (z) = 0.17571 0.17571
#
# Static dielectric constant tensor:
#      x y z
#    x 2.682660 0.000000 0.000000 
#    y 0.000000 2.682660 0.000000 
#    z 0.000000 0.000000 5.117050 
# 
# 
# High freq. dielectric constant tensor:
#      x y z
#    x 1.563090 0.000000 0.000000 
#    y 0.000000 1.563090 0.000000 
#    z 0.000000 0.000000 1.626050 
# 
# From -- ./inp_files/6618.got.cif
#   From: 2010.03.12/outbox.cif.g09.slc.cpg/sg166_4_cif.got.tgz:6618.got - 2010.04.02 06:38:31.
