data_PCOD8323479
_publ_section_title
;
Structure prediction by ZEFSAII (Michael W. Deem and Ramdas Pophale) SiO2 
 PCOD8323479
Probable space group: P -3 M 1
;
_chemical_formula_sum "Si O2"
_cell_formula_units_Z 72
_cell_length_a 27.607891
_cell_length_b 27.607891
_cell_length_c 7.567638
_cell_angle_alpha 90.000000
_cell_angle_beta 90.000000
_cell_angle_gamma 120.000000
_cell_volume 4995.252482
_symmetry_space_group_name_H-M "P -3 M 1"
_symmetry_group_IT_number 164
_symmetry_cell_setting 'hexagonal'
loop_
_space_group_symop_operation_xyz
x,y,z
-y,x-y,z
-x+y,-x,z
x-y,-y,-z
-x,-x+y,-z
y,x,-z
-x,-y,-z
y,-x+y,-z
x-y,x,-z
-x+y,y,z
x,x-y,z
-y,-x,z
loop_
_atom_site_type_symbol
_atom_site_label
_atom_site_fract_x
_atom_site_fract_y
_atom_site_fract_z
Si Si1 0.235100 0.062438 0.500008
Si Si2 0.066325 0.479312 0.499999
Si Si3 0.893275 0.216882 0.798569
Si Si4 0.216883 0.323609 0.798550
Si Si5 0.658151 0.592938 0.200890
Si Si6 0.341848 0.407060 0.200890
O O1 0.212717 0.106359 0.500006
O O2 0.271332 0.069554 0.673832
O O3 0.271337 0.069557 0.326195
O O4 0.181943 0.000000 0.500000
O O5 0.092886 0.546443 0.499995
O O6 0.086653 0.461089 0.674577
O O7 0.086653 0.461087 0.325427
O O8 0.000000 0.450234 0.500000
O O9 0.827932 0.172069 0.772534
O O10 0.901178 0.276758 0.747322
O O11 0.912989 0.217498 0.000011
O O12 0.172071 0.344141 0.772520
O O13 0.276760 0.375584 0.747313
O O14 0.636587 0.636586 0.231987
O O15 0.648160 0.571103 0.999999
#
# Coordination Sequence:
#
# PCOD8323479 Si02
#       6
#    12  12  12  12  12  12
#     4  10  19  29  42  59  79 103 131 165 203 243
#     4   9  17  27  37  50  70  98 132 164 187 208
#     4   9  17  28  42  61  83 105 129 158 195 239
#     4   9  17  28  42  61  83 105 129 158 195 239
#     4   9  16  25  38  55  75 101 130 157 186 221
#     4   9  16  25  38  55  75 101 130 157 186 221
#
# _framework density 14.413686
#
# number of rings (size 3 to 8) (size 9 to 14) (size 15 to 20)
#    0.000    2.833    0.000    2.000    0.000    4.000 
#    0.000    3.333    0.000    0.167    0.000    0.000 
#    0.000    0.000    0.000   12.333    0.000   26.000 
#
# Total GULP energy -892707.589700 kJ/mol
# GULP energy per Si atom -12398.716524 kJ/mol
# Density = 1.438088 g / cm^3
# Si number density = 14.413686 Si / 1000 Ang^3
#
#
#
# Elastic Constant Matrix: (Units=GPa)
#
#
# Indices 1 2 3 4 5 6 
#
# 1 87.9538 44.1095 46.6246 -0.0003 0.0000 0.0000
# 2 44.1095 87.9538 46.6246 0.0003 0.0000 0.0000
# 3 46.6246 46.6246 89.5667 0.0000 0.0000 0.0000
# 4 -0.0003 0.0003 0.0000 14.9720 0.0000 0.0000
# 5 0.0000 0.0000 0.0000 0.0000 14.9720 -0.0003
# 6 0.0000 0.0000 0.0000 0.0000 -0.0003 21.9222
#
#
#
# Elastic Compliance Matrix: (Units=1/GPa)
#
#
# Indices 1 2 3 4 5 6 
#
# 1 0.017390 -0.005418 -0.006233 0.000001 0.000000 0.000000
# 2 -0.005418 0.017390 -0.006233 -0.000001 0.000000 0.000000
# 3 -0.006233 -0.006233 0.017654 0.000000 0.000000 0.000000
# 4 0.000001 -0.000001 0.000000 0.066791 0.000000 0.000000
# 5 0.000000 0.000000 0.000000 0.000000 0.066791 0.000001
# 6 0.000000 0.000000 0.000000 0.000000 0.000001 0.045616
#
#
# Mechanical properties :
#
#
# Convention : Reuss Voigt Hill
#
# Bulk Modulus (GPa) = 59.99093 60.02129 60.00611
# Shear Modulus (GPa) = 18.31804 18.91428 18.61616
#
# Velocity S-wave (km/s) = 3.56881 3.62642 3.59773
# Velocity P-wave (km/s) = 7.66114 7.69850 7.67984
#
# Compressibility (1/GPa) = 0.01666919
#
# Stress axis : x y z
#
# Youngs Moduli (GPa) = 57.50287 57.50287 56.64542
#
# Poissons Ratio (x) = 0.31152 0.35305
# Poissons Ratio (y) = 0.31152 0.35305
# Poissons Ratio (z) = 0.35839 0.35839
#
# Static dielectric constant tensor:
#      x y z
#    x 2.689430 0.000000 0.000000 
#    y 0.000000 2.689430 0.000000 
#    z 0.000000 0.000000 3.061960 
# 
# 
# High freq. dielectric constant tensor:
#      x y z
#    x 1.521130 0.000000 0.000000 
#    y 0.000000 1.521130 0.000000 
#    z 0.000000 0.000000 1.573020 
# 
# From -- ./inp_files/1903.got.cif
#   From: 2010.03.12/outbox.cif.g09.slc.cpg/sg164_1_cif.got.tgz:1903.got - 2010.04.02 06:32:59.
