data_PCOD8323689
_publ_section_title
;
Structure prediction by ZEFSAII (Michael W. Deem and Ramdas Pophale) SiO2 
 PCOD8323689
Probable space group: P -3 M 1
;
_chemical_formula_sum "Si O2"
_cell_formula_units_Z 72
_cell_length_a 17.704707
_cell_length_b 17.704707
_cell_length_c 15.231724
_cell_angle_alpha 90.000000
_cell_angle_beta 90.000000
_cell_angle_gamma 120.000000
_cell_volume 4134.825454
_symmetry_space_group_name_H-M "P -3 M 1"
_symmetry_group_IT_number 164
_symmetry_cell_setting 'hexagonal'
loop_
_space_group_symop_operation_xyz
x,y,z
-y,x-y,z
-x+y,-x,z
x-y,-y,-z
-x,-x+y,-z
y,x,-z
-x,-y,-z
y,-x+y,-z
x-y,x,-z
-x+y,y,z
x,x-y,z
-y,-x,z
loop_
_atom_site_type_symbol
_atom_site_label
_atom_site_fract_x
_atom_site_fract_y
_atom_site_fract_z
Si Si1 0.000535 0.822921 0.740735
Si Si2 0.938336 0.698625 0.581141
Si Si3 0.410573 0.984975 0.898864
Si Si4 0.332898 0.833606 0.180393
Si Si5 0.836809 0.333321 0.611626
Si Si6 0.288315 0.230856 0.087329
O O1 0.920740 0.841479 0.741176
O O2 0.985922 0.748756 0.670359
O O3 0.007996 0.789387 0.836284
O O4 0.088017 0.911984 0.715740
O O5 0.850974 0.701948 0.567983
O O6 0.915725 0.598023 0.583078
O O7 0.000000 0.747059 0.500000
O O8 0.476836 0.953672 0.858498
O O9 0.307381 0.921253 0.883352
O O10 0.426207 0.074128 0.855055
O O11 0.432391 0.000000 0.000000
O O12 0.406229 0.812457 0.145430
O O13 0.239574 0.760427 0.143275
O O14 0.332241 0.833787 0.284367
O O15 0.852822 0.426411 0.575247
O O16 0.744106 0.255895 0.575297
O O17 0.296583 0.148292 0.063899
O O18 0.258808 0.258808 0.000000
#
# Coordination Sequence:
#
# PCOD8323689 Si02
#       6
#    12  12  12  12  12  12
#     4  10  20  34  51  71  96 126 161 201 244 288
#     4  10  20  33  49  69  94 126 163 201 238 277
#     4   9  18  30  43  62  90 123 155 187 224 269
#     4   9  16  27  45  69  95 121 150 186 230 281
#     4   9  17  29  47  71  97 123 150 185 233 287
#     4  10  20  33  51  74  98 125 157 195 241 291
#
# _framework density 17.413067999999999
#
# number of rings (size 3 to 8) (size 9 to 14) (size 15 to 20)
#    0.000    2.500    0.000    2.500    0.000    6.333 
#    0.000    0.000    0.000    5.667    0.000    0.000 
#    0.000    0.000    0.000    0.000    0.000    3.167 
#
# Total GULP energy -892272.408500 kJ/mol
# GULP energy per Si atom -12392.672340 kJ/mol
# Density = 1.737344 g / cm^3
# Si number density = 17.413068 Si / 1000 Ang^3
#
#
#
# Elastic Constant Matrix: (Units=GPa)
#
#
# Indices 1 2 3 4 5 6 
#
# 1 97.4865 62.8783 33.1073 -2.6013 0.0000 0.0000
# 2 62.8783 97.4865 33.1073 2.6013 0.0000 0.0000
# 3 33.1073 33.1073 49.4821 0.0000 0.0000 0.0000
# 4 -2.6013 2.6013 0.0000 20.1284 0.0000 0.0000
# 5 0.0000 0.0000 0.0000 0.0000 20.1284 -2.6013
# 6 0.0000 0.0000 0.0000 0.0000 -2.6013 17.3041
#
#
#
# Elastic Compliance Matrix: (Units=1/GPa)
#
#
# Indices 1 2 3 4 5 6 
#
# 1 0.019042 -0.010426 -0.005765 0.003808 0.000000 0.000000
# 2 -0.010426 0.019042 -0.005765 -0.003808 0.000000 0.000000
# 3 -0.005765 -0.005765 0.027924 0.000000 0.000000 0.000000
# 4 0.003808 -0.003808 0.000000 0.050665 0.000000 0.000000
# 5 0.000000 0.000000 0.000000 0.000000 0.050665 0.007617
# 6 0.000000 0.000000 0.000000 0.000000 0.007617 0.058935
#
#
# Mechanical properties :
#
#
# Convention : Reuss Voigt Hill
#
# Bulk Modulus (GPa) = 45.25618 55.84899 50.55259
# Shear Modulus (GPa) = 18.01489 19.20302 18.60896
#
# Velocity S-wave (km/s) = 3.21995 3.32444 3.27261
# Velocity P-wave (km/s) = 6.31429 6.84679 6.58592
#
# Compressibility (1/GPa) = 0.02209643
#
# Stress axis : x y z
#
# Youngs Moduli (GPa) = 52.51633 52.51633 35.81208
#
# Poissons Ratio (x) = 0.54752 0.20645
# Poissons Ratio (y) = 0.54752 0.20645
# Poissons Ratio (z) = 0.30275 0.30275
#
# Static dielectric constant tensor:
#      x y z
#    x 3.457140 0.000000 0.000000 
#    y 0.000000 3.457140 0.000000 
#    z 0.000000 0.000000 3.013820 
# 
# 
# High freq. dielectric constant tensor:
#      x y z
#    x 1.675480 0.000000 0.000000 
#    y 0.000000 1.675480 0.000000 
#    z 0.000000 0.000000 1.649590 
# 
# From -- ./inp_files/4102.got.cif
#   From: 2010.03.12/outbox.cif.g09.slc.cpg/sg164_3_cif.got.tgz:4102.got - 2010.04.02 06:32:59.
