data_PCOD8323899
_publ_section_title
;
Structure prediction by ZEFSAII (Michael W. Deem and Ramdas Pophale) SiO2 
 PCOD8323899
Probable space group: P -3 C 1
;
_chemical_formula_sum "Si O2"
_cell_formula_units_Z 96
_cell_length_a 15.661381
_cell_length_b 15.661381
_cell_length_c 22.847081
_cell_angle_alpha 90.000000
_cell_angle_beta 90.000000
_cell_angle_gamma 120.000000
_cell_volume 4853.124838
_symmetry_space_group_name_H-M "P -3 C 1"
_symmetry_group_IT_number 165
_symmetry_cell_setting 'hexagonal'
loop_
_space_group_symop_operation_xyz
x,y,z
-y,x-y,z
-x+y,-x,z
x-y,-y,1/2-z
-x,-x+y,1/2-z
y,x,1/2-z
-x,-y,-z
y,-x+y,-z
x-y,x,-z
-x+y,y,1/2+z
x,x-y,1/2+z
-y,-x,1/2+z
loop_
_atom_site_type_symbol
_atom_site_label
_atom_site_fract_x
_atom_site_fract_y
_atom_site_fract_z
Si Si1 0.156987 0.482917 0.658217
Si Si2 0.771822 0.657639 0.749251
Si Si3 0.157534 0.305426 0.875375
Si Si4 0.687195 0.016226 0.427415
Si Si5 0.160427 0.442754 0.474977
Si Si6 0.129108 0.506601 0.992704
Si Si7 0.482624 0.142266 0.376692
Si Si8 0.760857 0.040860 0.811696
O O1 0.170956 0.452357 0.723382
O O2 0.062222 0.386369 0.632274
O O3 0.140274 0.574850 0.663599
O O4 0.252144 0.507965 0.618446
O O5 0.699496 0.699496 0.750000
O O6 0.794899 0.641132 0.683492
O O7 0.865239 0.729870 0.791588
O O8 0.247968 0.385809 0.913596
O O9 0.186056 0.223653 0.851687
O O10 0.053519 0.264276 0.911764
O O11 0.746933 0.103785 0.475080
O O12 0.579594 0.949737 0.453117
O O13 0.277008 0.509351 0.486028
O O14 0.125317 0.522608 0.472962
O O15 0.098879 0.486769 0.060552
O O16 0.376380 0.072489 0.349841
O O17 0.704926 0.000000 0.750000
#
# Coordination Sequence:
#
# PCOD8323899 Si02
#       8
#    12  12  12  12  12  12  12  12
#     4  11  22  35  57  91 118 162 208 255 305 350
#     4  10  20  40  65  91 119 155 210 256 308 378
#     4  10  22  40  60  88 122 158 200 258 312 369
#     4  11  21  34  56  88 113 159 206 251 302 366
#     4  11  22  37  54  87 124 157 209 250 314 364
#     4  11  21  33  55  82 118 161 202 246 304 368
#     4  11  20  36  57  84 126 161 205 256 296 368
#     4   9  21  38  58  87 115 158 199 254 315 361
#
# _framework density 19.781068000000001
#
# number of rings (size 3 to 8) (size 9 to 14) (size 15 to 20)
#    0.000    1.500    3.750    1.625    1.750    0.500 
#    0.000    3.750    0.000    6.750    0.000    0.875 
#    0.000    0.000    0.000    0.000    0.000    0.000 
#
# Total GULP energy -1189381.183863 kJ/mol
# GULP energy per Si atom -12389.387332 kJ/mol
# Density = 1.973605 g / cm^3
# Si number density = 19.781068 Si / 1000 Ang^3
#
#
#
# Elastic Constant Matrix: (Units=GPa)
#
#
# Indices 1 2 3 4 5 6 
#
# 1 64.9178 19.9953 24.6470 -0.2424 0.0000 0.0000
# 2 19.9953 64.9178 24.6470 0.2424 0.0000 0.0000
# 3 24.6470 24.6470 96.8218 0.0000 0.0000 0.0000
# 4 -0.2424 0.2424 0.0000 28.5415 0.0000 0.0000
# 5 0.0000 0.0000 0.0000 0.0000 28.5415 -0.2424
# 6 0.0000 0.0000 0.0000 0.0000 -0.2424 22.4612
#
#
#
# Elastic Compliance Matrix: (Units=1/GPa)
#
#
# Indices 1 2 3 4 5 6 
#
# 1 0.018041 -0.004222 -0.003518 0.000189 0.000000 0.000000
# 2 -0.004222 0.018041 -0.003518 -0.000189 0.000000 0.000000
# 3 -0.003518 -0.003518 0.012119 0.000000 0.000000 0.000000
# 4 0.000189 -0.000189 0.000000 0.035040 0.000000 0.000000
# 5 0.000000 0.000000 0.000000 0.000000 0.035040 0.000378
# 6 0.000000 0.000000 0.000000 0.000000 0.000378 0.044525
#
#
# Mechanical properties :
#
#
# Convention : Reuss Voigt Hill
#
# Bulk Modulus (GPa) = 38.93171 40.58177 39.75674
# Shear Modulus (GPa) = 25.78882 26.40005 26.09443
#
# Velocity S-wave (km/s) = 3.61461 3.65720 3.63597
# Velocity P-wave (km/s) = 6.09464 6.19625 6.14565
#
# Compressibility (1/GPa) = 0.02568600
#
# Stress axis : x y z
#
# Youngs Moduli (GPa) = 55.43008 55.43008 82.51371
#
# Poissons Ratio (x) = 0.23402 0.29026
# Poissons Ratio (y) = 0.23402 0.29026
# Poissons Ratio (z) = 0.19499 0.19499
#
# Static dielectric constant tensor:
#      x y z
#    x 3.717800 0.000000 0.000000 
#    y 0.000000 3.717800 0.000000 
#    z 0.000000 0.000000 3.799210 
# 
# 
# High freq. dielectric constant tensor:
#      x y z
#    x 1.760740 0.000000 0.000000 
#    y 0.000000 1.760740 0.000000 
#    z 0.000000 0.000000 1.781710 
# 
# From -- ./inp_files/3190.got.cif
#   From: 2010.03.12/outbox.cif.g09.slc.cpg/sg165_2_cif.got.tgz:3190.got - 2010.04.02 06:36:38.
