data_PCOD8323894
_publ_section_title
;
Structure prediction by ZEFSAII (Michael W. Deem and Ramdas Pophale) SiO2 
 PCOD8323894
Probable space group: P -3 C 1
;
_chemical_formula_sum "Si O2"
_cell_formula_units_Z 68
_cell_length_a 11.557321
_cell_length_b 11.557321
_cell_length_c 28.474697
_cell_angle_alpha 90.000000
_cell_angle_beta 90.000000
_cell_angle_gamma 120.000000
_cell_volume 3293.852101
_symmetry_space_group_name_H-M "P -3 C 1"
_symmetry_group_IT_number 165
_symmetry_cell_setting 'hexagonal'
loop_
_space_group_symop_operation_xyz
x,y,z
-y,x-y,z
-x+y,-x,z
x-y,-y,1/2-z
-x,-x+y,1/2-z
y,x,1/2-z
-x,-y,-z
y,-x+y,-z
x-y,x,-z
-x+y,y,1/2+z
x,x-y,1/2+z
-y,-x,1/2+z
loop_
_atom_site_type_symbol
_atom_site_label
_atom_site_fract_x
_atom_site_fract_y
_atom_site_fract_z
Si Si1 0.687991 0.555436 0.018366
Si Si2 0.666667 0.333334 0.848295
Si Si3 0.657826 0.593447 0.557009
Si Si4 0.641132 0.046050 0.161704
Si Si5 0.598325 0.776977 0.202518
Si Si6 0.699583 0.587585 0.192663
Si Si7 0.666668 0.333334 0.958498
O O1 0.688356 0.670919 0.986819
O O2 0.725709 0.481013 0.978471
O O3 0.802080 0.605154 0.058170
O O4 0.552886 0.465145 0.046284
O O5 0.528457 0.316157 0.829754
O O6 0.666668 0.333334 0.903402
O O7 0.621158 0.628349 0.607879
O O8 0.526955 0.077252 0.178956
O O9 0.780433 0.185580 0.159445
O O10 0.649559 0.934207 0.193800
O O11 0.707729 0.732280 0.190612
O O12 0.555334 0.737488 0.256310
#
# Coordination Sequence:
#
# PCOD8323894 Si02
#       7
#    12   4  12  12  12  12   4
#     4   9  19  36  57  83 128 154 203 252 323 370
#     4  12  18  36  63  94 128 166 216 270 312 393
#     4  10  20  37  59  91 116 166 199 261 312 377
#     4  12  23  43  67  97 130 169 223 268 316 396
#     4  11  24  40  63  96 133 170 214 266 328 379
#     4  11  25  41  65  97 128 176 211 271 324 381
#     4   9  18  30  54  91 116 160 201 252 315 369
#
# _framework density 20.644521000000001
#
# number of rings (size 3 to 8) (size 9 to 14) (size 15 to 20)
#    0.000    1.412    1.765    4.412    2.471    0.000 
#   10.588    0.000    0.000    0.353    0.000    0.000 
#    0.000    0.000    0.000    0.000    0.000    0.000 
#
# Total GULP energy -842565.239233 kJ/mol
# GULP energy per Si atom -12390.665283 kJ/mol
# Density = 2.059753 g / cm^3
# Si number density = 20.644521 Si / 1000 Ang^3
#
#
#
# Elastic Constant Matrix: (Units=GPa)
#
#
# Indices 1 2 3 4 5 6 
#
# 1 88.5660 38.2694 26.6765 -1.2422 0.0000 0.0000
# 2 38.2694 88.5661 26.6763 1.2422 0.0000 0.0000
# 3 26.6765 26.6763 118.1069 -0.0001 0.0000 0.0000
# 4 -1.2422 1.2422 -0.0001 21.9004 0.0000 0.0000
# 5 0.0000 0.0000 0.0000 0.0000 21.9002 -1.2423
# 6 0.0000 0.0000 0.0000 0.0000 -1.2423 25.1479
#
#
#
# Elastic Compliance Matrix: (Units=1/GPa)
#
#
# Indices 1 2 3 4 5 6 
#
# 1 0.014325 -0.005613 -0.001968 0.001131 0.000000 0.000000
# 2 -0.005613 0.014325 -0.001968 -0.001131 0.000000 0.000000
# 3 -0.001968 -0.001968 0.009356 0.000000 0.000000 0.000000
# 4 0.001131 -0.001131 0.000000 0.045790 0.000000 0.000000
# 5 0.000000 0.000000 0.000000 0.000000 0.045790 0.002262
# 6 0.000000 0.000000 0.000000 0.000000 0.002262 0.039877
#
#
# Mechanical properties :
#
#
# Convention : Reuss Voigt Hill
#
# Bulk Modulus (GPa) = 52.88559 53.16483 53.02521
# Shear Modulus (GPa) = 25.65924 27.36415 26.51169
#
# Velocity S-wave (km/s) = 3.52931 3.64468 3.58746
# Velocity P-wave (km/s) = 6.50238 6.59697 6.54985
#
# Compressibility (1/GPa) = 0.01890874
#
# Stress axis : x y z
#
# Youngs Moduli (GPa) = 69.80830 69.80841 106.88560
#
# Poissons Ratio (x) = 0.39183 0.21033
# Poissons Ratio (y) = 0.39183 0.21032
# Poissons Ratio (z) = 0.13737 0.13736
#
# Static dielectric constant tensor:
#      x y z
#    x 3.816510 0.000000 0.000000 
#    y 0.000000 3.816490 0.000000 
#    z 0.000000 0.000000 3.776670 
# 
# 
# High freq. dielectric constant tensor:
#      x y z
#    x 1.793570 0.000000 0.000000 
#    y 0.000000 1.793570 0.000000 
#    z 0.000000 0.000000 1.820700 
# 
# From -- ./inp_files/3323.got.cif
#   From: 2010.03.12/outbox.cif.g09.slc.cpg/sg165_2_cif.got.tgz:3323.got - 2010.04.02 06:36:38.
