data_PCOD8323770
_publ_section_title
;
Structure prediction by ZEFSAII (Michael W. Deem and Ramdas Pophale) SiO2 
 PCOD8323770
Probable space group: P -3 M 1
;
_chemical_formula_sum "Si O2"
_cell_formula_units_Z 54
_cell_length_a 17.340432
_cell_length_b 17.340432
_cell_length_c 12.621236
_cell_angle_alpha 90.000000
_cell_angle_beta 90.000000
_cell_angle_gamma 120.000000
_cell_volume 3286.641576
_symmetry_space_group_name_H-M "P -3 M 1"
_symmetry_group_IT_number 164
_symmetry_cell_setting 'hexagonal'
loop_
_space_group_symop_operation_xyz
x,y,z
-y,x-y,z
-x+y,-x,z
x-y,-y,-z
-x,-x+y,-z
y,x,-z
-x,-y,-z
y,-x+y,-z
x-y,x,-z
-x+y,y,z
x,x-y,z
-y,-x,z
loop_
_atom_site_type_symbol
_atom_site_label
_atom_site_fract_x
_atom_site_fract_y
_atom_site_fract_z
Si Si1 0.842830 0.333716 0.995863
Si Si2 0.297560 0.237200 0.294605
Si Si3 0.757864 0.061693 0.905349
Si Si4 0.333364 0.491473 0.758230
Si Si5 0.819122 0.000000 0.500000
O O1 0.855663 0.427832 0.959722
O O2 0.740855 0.259146 0.975794
O O3 0.909370 0.316102 0.925556
O O4 0.867772 0.334285 0.118860
O O5 0.284524 0.142262 0.258000
O O6 0.257953 0.272703 0.206564
O O7 0.403019 0.306700 0.310246
O O8 0.246106 0.228596 0.402315
O O9 0.854665 0.145336 0.904117
O O10 0.756828 0.000000 0.000000
O O11 0.262069 0.524138 0.741041
O O12 0.429423 0.570578 0.721144
O O13 0.915644 0.084357 0.523839
#
# Coordination Sequence:
#
# PCOD8323770 Si02
#       5
#    12  12  12  12   6
#     4   9  17  28  45  70 101 135 168 199 230 271
#     4  10  20  35  52  72  97 125 158 200 248 290
#     4  11  20  31  47  69  98 129 157 191 241 297
#     4   9  16  28  47  73 103 134 165 196 231 275
#     4  10  21  38  59  76  90 116 160 212 255 292
#
# _framework density 16.430146000000001
#
# number of rings (size 3 to 8) (size 9 to 14) (size 15 to 20)
#    0.000    2.222    2.222    1.889    0.000    3.111 
#    0.000    0.556    0.000    5.333    0.000    0.000 
#    0.000    3.556    0.000    0.000    0.000    0.000 
#
# Total GULP energy -669631.965729 kJ/mol
# GULP energy per Si atom -12400.591958 kJ/mol
# Density = 1.639275 g / cm^3
# Si number density = 16.430146 Si / 1000 Ang^3
#
#
#
# Elastic Constant Matrix: (Units=GPa)
#
#
# Indices 1 2 3 4 5 6 
#
# 1 122.8681 74.4083 62.5681 -3.8201 0.0000 0.0000
# 2 74.4083 122.8681 62.5681 3.8201 0.0000 0.0000
# 3 62.5681 62.5681 79.2771 0.0000 0.0000 0.0000
# 4 -3.8201 3.8201 0.0000 24.5792 0.0000 0.0000
# 5 0.0000 0.0000 0.0000 0.0000 24.5792 -3.8201
# 6 0.0000 0.0000 0.0000 0.0000 -3.8201 24.2299
#
#
#
# Elastic Compliance Matrix: (Units=1/GPa)
#
#
# Indices 1 2 3 4 5 6 
#
# 1 0.015652 -0.005502 -0.008011 0.003288 0.000000 0.000000
# 2 -0.005502 0.015652 -0.008011 -0.003288 0.000000 0.000000
# 3 -0.008011 -0.008011 0.025260 0.000000 0.000000 0.000000
# 4 0.003288 -0.003288 0.000000 0.041707 0.000000 0.000000
# 5 0.000000 0.000000 0.000000 0.000000 0.041707 0.006576
# 6 0.000000 0.000000 0.000000 0.000000 0.006576 0.042308
#
#
# Mechanical properties :
#
#
# Convention : Reuss Voigt Hill
#
# Bulk Modulus (GPa) = 73.98727 80.45578 77.22153
# Shear Modulus (GPa) = 21.75427 23.04223 22.39825
#
# Velocity S-wave (km/s) = 3.64269 3.74897 3.69622
# Velocity P-wave (km/s) = 7.92600 8.23495 8.08195
#
# Compressibility (1/GPa) = 0.01351584
#
# Stress axis : x y z
#
# Youngs Moduli (GPa) = 63.88801 63.88801 39.58892
#
# Poissons Ratio (x) = 0.35149 0.31716
# Poissons Ratio (y) = 0.35149 0.31716
# Poissons Ratio (z) = 0.51183 0.51183
#
# Static dielectric constant tensor:
#      x y z
#    x 3.186600 0.000000 0.000000 
#    y 0.000000 3.186600 0.000000 
#    z 0.000000 0.000000 2.818740 
# 
# 
# High freq. dielectric constant tensor:
#      x y z
#    x 1.642880 0.000000 0.000000 
#    y 0.000000 1.642880 0.000000 
#    z 0.000000 0.000000 1.596740 
# 
# From -- ./inp_files/2581.got.cif
#   From: 2010.03.12/outbox.cif.g09.slc.cpg/sg164_2_cif.got.tgz:2581.got - 2010.04.02 06:32:59.
