data_PCOD8323110
_publ_section_title
;
Structure prediction by ZEFSAII (Michael W. Deem and Ramdas Pophale) SiO2 
 PCOD8323110
Probable space group: P -3 1 M 
;
_chemical_formula_sum "Si O2"
_cell_formula_units_Z 84
_cell_length_a 18.553091
_cell_length_b 18.553091
_cell_length_c 14.529536
_cell_angle_alpha 90.000000
_cell_angle_beta 90.000000
_cell_angle_gamma 120.000000
_cell_volume 4331.266700
_symmetry_space_group_name_H-M "P -3 1 M "
_symmetry_group_IT_number 162
_symmetry_cell_setting 'hexagonal'
loop_
_space_group_symop_operation_xyz
x,y,z
-y,x-y,z
-x+y,-x,z
-y,-x,-z
-x+y,y,-z
x,x-y,-z
-x,-y,-z
y,-x+y,-z
x-y,x,-z
y,x,z
x-y,-y,z
-x,-x+y,z
loop_
_atom_site_type_symbol
_atom_site_label
_atom_site_fract_x
_atom_site_fract_y
_atom_site_fract_z
Si Si1 0.543637 0.901071 0.408508
Si Si2 0.641794 0.546653 0.194077
Si Si3 0.904522 0.809846 0.393828
Si Si4 0.098435 0.328983 0.719823
Si Si5 0.383419 0.481583 0.607277
Si Si6 0.190606 0.785262 0.101435
Si Si7 0.498868 0.906505 0.090902
O O1 0.583311 0.864705 0.335456
O O2 0.546431 0.872906 0.514975
O O3 0.446256 0.865050 0.386953
O O4 0.597375 0.000000 0.401512
O O5 0.620128 0.620128 0.174762
O O6 0.671606 0.549295 0.299818
O O7 0.712893 0.553988 0.127003
O O8 0.558756 0.457648 0.177546
O O9 0.891796 0.783592 0.500000
O O10 0.849074 0.849074 0.362978
O O11 0.873368 0.727099 0.335213
O O12 0.000000 0.877424 0.374218
O O13 0.134988 0.338089 0.822227
O O14 0.000000 0.285347 0.728436
O O15 0.442864 0.442864 0.603000
O O16 0.163250 0.688259 0.098578
O O17 0.182458 0.817543 0.000000
O O18 0.579861 0.000000 0.089476
O O19 0.445208 0.890415 0.000000
#
# Coordination Sequence:
#
# PCOD8323110 Si02
#       7
#    12  12  12  12  12  12  12
#     4   8  14  28  52  80 107 139 178 218 260 325
#     4  10  21  37  57  83 113 146 182 228 288 344
#     4   9  18  34  56  81 110 147 189 231 278 335
#     4  10  21  35  53  78 112 148 183 226 284 340
#     4   8  14  27  51  80 108 139 178 217 260 326
#     4  12  24  37  55  82 110 144 190 238 285 338
#     4  10  20  39  62  79 104 144 189 235 289 345
#
# _framework density 19.393865000000002
#
# number of rings (size 3 to 8) (size 9 to 14) (size 15 to 20)
#    0.000    2.429    1.429    2.286    0.000    5.143 
#    0.857    3.571    0.000    0.000    0.000    0.000 
#    0.000    2.857    0.000    0.000    0.000    0.000 
#
# Total GULP energy -1041046.080663 kJ/mol
# GULP energy per Si atom -12393.405722 kJ/mol
# Density = 1.934972 g / cm^3
# Si number density = 19.393865 Si / 1000 Ang^3
#
#
#
# Elastic Constant Matrix: (Units=GPa)
#
#
# Indices 1 2 3 4 5 6 
#
# 1 75.1185 40.4681 42.3779 0.0000 -0.8076 0.0000
# 2 40.4681 75.1185 42.3779 0.0000 0.8076 0.0000
# 3 42.3779 42.3779 140.8064 0.0000 0.0000 0.0000
# 4 0.0000 0.0000 0.0000 27.2351 0.0000 0.8076
# 5 -0.8076 0.8076 0.0000 0.0000 27.2351 0.0000
# 6 0.0000 0.0000 0.0000 0.8076 0.0000 17.3252
#
#
#
# Elastic Compliance Matrix: (Units=1/GPa)
#
#
# Indices 1 2 3 4 5 6 
#
# 1 0.020001 -0.008899 -0.003341 0.000000 0.000857 0.000000
# 2 -0.008899 0.020001 -0.003341 0.000000 -0.000857 0.000000
# 3 -0.003341 -0.003341 0.009113 0.000000 0.000000 0.000000
# 4 0.000000 0.000000 0.000000 0.036768 0.000000 -0.001714
# 5 0.000857 -0.000857 0.000000 0.000000 0.036768 0.000000
# 6 0.000000 0.000000 0.000000 -0.001714 0.000000 0.057799
#
#
# Mechanical properties :
#
#
# Convention : Reuss Voigt Hill
#
# Bulk Modulus (GPa) = 55.70595 60.16572 57.93584
# Shear Modulus (GPa) = 22.97831 25.41370 24.19600
#
# Velocity S-wave (km/s) = 3.44586 3.62387 3.53599
# Velocity P-wave (km/s) = 6.67966 6.97139 6.82708
#
# Compressibility (1/GPa) = 0.01795140
#
# Stress axis : x y z
#
# Youngs Moduli (GPa) = 49.99860 49.99860 109.73208
#
# Poissons Ratio (x) = 0.44494 0.36663
# Poissons Ratio (y) = 0.44494 0.36663
# Poissons Ratio (z) = 0.16705 0.16705
#
# Static dielectric constant tensor:
#      x y z
#    x 3.347680 0.000000 0.000000 
#    y 0.000000 3.347680 0.000000 
#    z 0.000000 0.000000 3.986560 
# 
# 
# High freq. dielectric constant tensor:
#      x y z
#    x 1.728400 0.000000 0.000000 
#    y 0.000000 1.728400 0.000000 
#    z 0.000000 0.000000 1.774030 
# 
# From -- ./inp_files/3196.got.cif
#   From: 2010.03.12/outbox.cif.g09.slc.cpg/sg162_2_cif.got.tgz:3196.got - 2010.04.02 06:27:41.
