data_PCOD8323297
_publ_section_title
;
Structure prediction by ZEFSAII (Michael W. Deem and Ramdas Pophale) SiO2 
 PCOD8323297
Probable space group: P -3 1 C
;
_chemical_formula_sum "Si O2"
_cell_formula_units_Z 60
_cell_length_a 14.785850
_cell_length_b 14.785850
_cell_length_c 14.369332
_cell_angle_alpha 90.000000
_cell_angle_beta 90.000000
_cell_angle_gamma 120.000000
_cell_volume 2720.569362
_symmetry_space_group_name_H-M "P -3 1 C"
_symmetry_group_IT_number 163
_symmetry_cell_setting 'hexagonal'
loop_
_space_group_symop_operation_xyz
x,y,z
-y,x-y,z
-x+y,-x,z
-y,-x,1/2-z
-x+y,y,1/2-z
x,x-y,1/2-z
-x,-y,-z
y,-x+y,-z
x-y,x,-z
y,x,1/2+z
x-y,-y,1/2+z
-x,-x+y,1/2+z
loop_
_atom_site_type_symbol
_atom_site_label
_atom_site_fract_x
_atom_site_fract_y
_atom_site_fract_z
Si Si1 0.407125 0.537365 0.151535
Si Si2 0.777800 0.332147 0.037808
Si Si3 0.647244 0.633277 0.103653
Si Si4 0.741463 0.683122 0.784652
Si Si5 0.006382 0.799939 0.531201
O O1 0.407891 0.592110 0.250000
O O2 0.332176 0.544042 0.074711
O O3 0.523636 0.585519 0.111149
O O4 0.358697 0.414653 0.169564
O O5 0.770012 0.436080 0.063204
O O6 0.868136 0.328190 0.092970
O O7 0.713026 0.698655 0.193386
O O8 0.687200 0.709555 0.014886
O O9 0.825983 0.651966 0.750000
O O10 0.792761 0.777777 0.858470
O O11 0.910678 0.801471 0.480569
#
# Coordination Sequence:
#
# PCOD8323297 Si02
#       5
#    12  12  12  12  12
#     4  10  23  38  68 103 143 184 239 295 340 421
#     4  10  24  37  66 106 146 190 235 291 352 420
#     4  11  24  45  71 103 144 192 236 288 359 431
#     4  11  24  45  72 107 137 182 242 288 354 429
#     4  12  27  47  76 102 138 181 234 304 370 424
#
# _framework density 22.054207999999999
#
# number of rings (size 3 to 8) (size 9 to 14) (size 15 to 20)
#    0.400    0.800    4.000    0.800    8.400    0.800 
#    0.000    4.000    0.000    0.000    0.000    0.000 
#    0.000    0.000    0.000    0.000    0.000    0.000 
#
# Total GULP energy -743660.399060 kJ/mol
# GULP energy per Si atom -12394.339984 kJ/mol
# Density = 2.200401 g / cm^3
# Si number density = 22.054208 Si / 1000 Ang^3
#
#
#
# Elastic Constant Matrix: (Units=GPa)
#
#
# Indices 1 2 3 4 5 6 
#
# 1 88.9872 22.2782 45.2898 -0.0001 11.5798 0.0000
# 2 22.2782 88.9872 45.2898 0.0001 -11.5798 0.0000
# 3 45.2898 45.2898 120.1193 0.0000 0.0000 0.0000
# 4 -0.0001 0.0001 0.0000 31.0207 0.0000 -11.5798
# 5 11.5798 -11.5798 0.0000 0.0000 31.0207 -0.0001
# 6 0.0000 0.0000 0.0000 -11.5798 -0.0001 33.3545
#
#
#
# Elastic Compliance Matrix: (Units=1/GPa)
#
#
# Indices 1 2 3 4 5 6 
#
# 1 0.015095 -0.002127 -0.004889 0.000000 -0.006429 0.000000
# 2 -0.002127 0.015095 -0.004889 0.000000 0.006429 0.000000
# 3 -0.004889 -0.004889 0.012012 0.000000 0.000000 0.000000
# 4 0.000000 0.000000 0.000000 0.037036 0.000000 0.012858
# 5 -0.006429 0.006429 0.000000 0.000000 0.037036 0.000000
# 6 0.000000 0.000000 0.000000 0.012858 0.000000 0.034445
#
#
# Mechanical properties :
#
#
# Convention : Reuss Voigt Hill
#
# Bulk Modulus (GPa) = 54.37672 58.20104 56.28888
# Shear Modulus (GPa) = 27.67593 31.42824 29.55209
#
# Velocity S-wave (km/s) = 3.54631 3.77907 3.66454
# Velocity P-wave (km/s) = 6.44033 6.74456 6.59420
#
# Compressibility (1/GPa) = 0.01839022
#
# Stress axis : x y z
#
# Youngs Moduli (GPa) = 66.24621 66.24621 83.24953
#
# Poissons Ratio (x) = 0.14092 0.40704
# Poissons Ratio (y) = 0.14092 0.40704
# Poissons Ratio (z) = 0.32391 0.32391
#
# Static dielectric constant tensor:
#      x y z
#    x 3.871530 0.000000 0.000000 
#    y 0.000000 3.871530 0.000000 
#    z 0.000000 0.000000 4.211630 
# 
# 
# High freq. dielectric constant tensor:
#      x y z
#    x 1.860900 0.000000 0.000000 
#    y 0.000000 1.860900 0.000000 
#    z 0.000000 0.000000 1.871710 
# 
# From -- ./inp_files/2370.got.cif
#   From: 2010.03.12/outbox.cif.g09.slc.cpg/sg163_2_cif.got.tgz:2370.got - 2010.04.02 06:30:25.
