data_PCOD8323405
_publ_section_title
;
Structure prediction by ZEFSAII (Michael W. Deem and Ramdas Pophale) SiO2 
 PCOD8323405
Probable space group: P -3 M 1
;
_chemical_formula_sum "Si O2"
_cell_formula_units_Z 48
_cell_length_a 19.442598
_cell_length_b 19.442598
_cell_length_c 8.491658
_cell_angle_alpha 90.000000
_cell_angle_beta 90.000000
_cell_angle_gamma 120.000000
_cell_volume 2779.916298
_symmetry_space_group_name_H-M "P -3 M 1"
_symmetry_group_IT_number 164
_symmetry_cell_setting 'hexagonal'
loop_
_space_group_symop_operation_xyz
x,y,z
-y,x-y,z
-x+y,-x,z
x-y,-y,-z
-x,-x+y,-z
y,x,-z
-x,-y,-z
y,-x+y,-z
x-y,x,-z
-x+y,y,z
x,x-y,z
-y,-x,z
loop_
_atom_site_type_symbol
_atom_site_label
_atom_site_fract_x
_atom_site_fract_y
_atom_site_fract_z
Si Si1 0.531098 0.625676 0.846571
Si Si2 0.484962 0.818386 0.531502
Si Si3 0.615276 0.955348 0.348967
Si Si4 0.912705 0.665884 0.942956
O O1 0.452638 0.547363 0.915124
O O2 0.505860 0.667611 0.714791
O O3 0.587700 0.597902 0.765892
O O4 0.580645 0.690282 0.980542
O O5 0.391812 0.783624 0.507037
O O6 0.508356 0.754178 0.479670
O O7 0.530435 0.892698 0.417489
O O8 0.656743 0.916120 0.246060
O O9 0.671487 0.000000 0.500000
O O10 0.843791 0.687582 0.982389
O O11 0.000000 0.736166 0.000000
#
# Coordination Sequence:
#
# PCOD8323405 Si02
#       4
#    12  12  12  12
#     4   9  18  31  48  69  94 127 164 203 245 289
#     4  10  18  28  42  62  92 128 167 205 242 282
#     4   9  18  31  47  68  93 124 161 202 243 286
#     4  10  20  34  53  76 101 128 162 203 247 295
#
# _framework density 17.266707
#
# number of rings (size 3 to 8) (size 9 to 14) (size 15 to 20)
#    0.000    2.500    0.000    2.500    0.000    8.500 
#    0.000    1.250    0.000    0.750    0.000    0.000 
#    0.000    1.000    0.000    0.000    0.000    0.000 
#
# Total GULP energy -594817.975266 kJ/mol
# GULP energy per Si atom -12392.041151 kJ/mol
# Density = 1.722741 g / cm^3
# Si number density = 17.266707 Si / 1000 Ang^3
#
#
#
# Elastic Constant Matrix: (Units=GPa)
#
#
# Indices 1 2 3 4 5 6 
#
# 1 85.0130 48.7038 31.3122 0.3185 0.0000 0.0000
# 2 48.7038 85.0130 31.3122 -0.3185 0.0000 0.0000
# 3 31.3122 31.3122 80.8339 0.0000 0.0000 0.0000
# 4 0.3185 -0.3185 0.0000 17.4380 0.0000 0.0000
# 5 0.0000 0.0000 0.0000 0.0000 17.4380 0.3185
# 6 0.0000 0.0000 0.0000 0.0000 0.3185 18.1546
#
#
#
# Elastic Compliance Matrix: (Units=1/GPa)
#
#
# Indices 1 2 3 4 5 6 
#
# 1 0.018343 -0.009207 -0.003539 -0.000503 0.000000 0.000000
# 2 -0.009207 0.018343 -0.003539 0.000503 0.000000 0.000000
# 3 -0.003539 -0.003539 0.015113 0.000000 0.000000 0.000000
# 4 -0.000503 0.000503 0.000000 0.057364 0.000000 0.000000
# 5 0.000000 0.000000 0.000000 0.000000 0.057364 -0.001007
# 6 0.000000 0.000000 0.000000 0.000000 -0.001007 0.055100
#
#
# Mechanical properties :
#
#
# Convention : Reuss Voigt Hill
#
# Bulk Modulus (GPa) = 52.00521 52.61295 52.30908
# Shear Modulus (GPa) = 19.18596 19.90823 19.54709
#
# Velocity S-wave (km/s) = 3.33701 3.39924 3.36827
# Velocity P-wave (km/s) = 6.71057 6.77815 6.74445
#
# Compressibility (1/GPa) = 0.01922884
#
# Stress axis : x y z
#
# Youngs Moduli (GPa) = 54.51676 54.51676 66.16928
#
# Poissons Ratio (x) = 0.50194 0.23417
# Poissons Ratio (y) = 0.50194 0.23417
# Poissons Ratio (z) = 0.19293 0.19293
#
# Static dielectric constant tensor:
#      x y z
#    x 3.085490 0.000000 0.000000 
#    y 0.000000 3.085490 0.000000 
#    z 0.000000 0.000000 3.408210 
# 
# 
# High freq. dielectric constant tensor:
#      x y z
#    x 1.645440 0.000000 0.000000 
#    y 0.000000 1.645440 0.000000 
#    z 0.000000 0.000000 1.674620 
# 
# From -- ./inp_files/1226.got.cif
#   From: 2010.03.12/outbox.cif.g09.slc.cpg/sg164_1_cif.got.tgz:1226.got - 2010.04.02 06:32:59.
