data_PCOD8323469
_publ_section_title
;
Structure prediction by ZEFSAII (Michael W. Deem and Ramdas Pophale) SiO2 
 PCOD8323469
Probable space group: P -3 M 1
;
_chemical_formula_sum "Si O2"
_cell_formula_units_Z 96
_cell_length_a 17.647582
_cell_length_b 17.647582
_cell_length_c 21.053985
_cell_angle_alpha 90.000000
_cell_angle_beta 90.000000
_cell_angle_gamma 120.000000
_cell_volume 5678.522592
_symmetry_space_group_name_H-M "P -3 M 1"
_symmetry_group_IT_number 164
_symmetry_cell_setting 'hexagonal'
loop_
_space_group_symop_operation_xyz
x,y,z
-y,x-y,z
-x+y,-x,z
x-y,-y,-z
-x,-x+y,-z
y,x,-z
-x,-y,-z
y,-x+y,-z
x-y,x,-z
-x+y,y,z
x,x-y,z
-y,-x,z
loop_
_atom_site_type_symbol
_atom_site_label
_atom_site_fract_x
_atom_site_fract_y
_atom_site_fract_z
Si Si1 0.417893 0.406700 0.214069
Si Si2 0.532129 0.634960 0.001918
Si Si3 0.595712 0.578271 0.359334
Si Si4 0.838129 0.505498 0.576268
Si Si5 0.170883 0.171302 0.075313
Si Si6 0.840171 0.331728 0.858624
Si Si7 0.266374 0.909681 0.532138
Si Si8 0.735820 0.640191 0.113028
O O1 0.514266 0.485734 0.201687
O O2 0.405326 0.374754 0.286432
O O3 0.347749 0.434640 0.193417
O O4 0.408052 0.329533 0.169939
O O5 0.427702 0.572299 0.989063
O O6 0.577692 0.708519 0.948616
O O7 0.574855 0.574855 0.000000
O O8 0.548966 0.679394 0.070997
O O9 0.524195 0.475806 0.372996
O O10 0.549922 0.635961 0.371775
O O11 0.683732 0.612750 0.400533
O O12 0.753810 0.507619 0.602839
O O13 0.812410 0.406205 0.562408
O O14 0.871103 0.557376 0.510650
O O15 0.155721 0.077861 0.099856
O O16 0.263989 0.251794 0.098368
O O17 0.092708 0.185415 0.101716
O O18 0.171519 0.171519 0.000000
O O19 0.818675 0.409338 0.858672
O O20 0.755430 0.244571 0.836625
O O21 0.162474 0.837527 0.539860
O O22 0.279543 0.000000 0.500000
O O23 0.827961 0.655921 0.136829
#
# Coordination Sequence:
#
# PCOD8323469 Si02
#       8
#    12  12  12  12  12  12  12  12
#     4  10  21  36  50  66  93 131 165 198 244 289
#     4  10  18  32  51  69  91 119 153 194 248 301
#     4   9  18  32  49  69  97 133 171 201 231 280
#     4   9  16  27  46  74 106 135 163 194 233 277
#     4   9  18  31  47  67  92 117 142 179 237 304
#     4  10  20  33  51  72  95 124 160 201 245 295
#     4   9  17  30  51  78 105 133 165 203 244 281
#     4  11  21  32  48  71  92 115 156 206 248 293
#
# _framework density 16.905805000000001
#
# number of rings (size 3 to 8) (size 9 to 14) (size 15 to 20)
#    0.000    2.375    1.250    1.875    0.000    3.500 
#    0.000    0.000    0.000    4.625    0.000    0.000 
#    0.000    0.000    0.000    0.000    0.000    0.000 
#
# Total GULP energy -1190052.331096 kJ/mol
# GULP energy per Si atom -12396.378449 kJ/mol
# Density = 1.686733 g / cm^3
# Si number density = 16.905805 Si / 1000 Ang^3
#
#
#
# Elastic Constant Matrix: (Units=GPa)
#
#
# Indices 1 2 3 4 5 6 
#
# 1 79.8297 36.2261 35.2424 0.3135 0.0000 0.0000
# 2 36.2261 79.8297 35.2424 -0.3135 0.0000 0.0000
# 3 35.2424 35.2424 83.9435 0.0000 0.0000 0.0000
# 4 0.3135 -0.3135 0.0000 17.2874 0.0000 0.0000
# 5 0.0000 0.0000 0.0000 0.0000 17.2874 0.3135
# 6 0.0000 0.0000 0.0000 0.0000 0.3135 21.8018
#
#
#
# Elastic Compliance Matrix: (Units=1/GPa)
#
#
# Indices 1 2 3 4 5 6 
#
# 1 0.017253 -0.005687 -0.004856 -0.000416 0.000000 0.000000
# 2 -0.005687 0.017253 -0.004856 0.000416 0.000000 0.000000
# 3 -0.004856 -0.004856 0.015990 0.000000 0.000000 0.000000
# 4 -0.000416 0.000416 0.000000 0.057861 0.000000 0.000000
# 5 0.000000 0.000000 0.000000 0.000000 0.057861 -0.000832
# 6 0.000000 0.000000 0.000000 0.000000 -0.000832 0.045880
#
#
# Mechanical properties :
#
#
# Convention : Reuss Voigt Hill
#
# Bulk Modulus (GPa) = 50.76530 50.78052 50.77291
# Shear Modulus (GPa) = 20.04333 20.40145 20.22239
#
# Velocity S-wave (km/s) = 3.44697 3.47763 3.46234
# Velocity P-wave (km/s) = 6.77759 6.79910 6.78835
#
# Compressibility (1/GPa) = 0.01969850
#
# Stress axis : x y z
#
# Youngs Moduli (GPa) = 57.96196 57.96196 62.53958
#
# Poissons Ratio (x) = 0.32964 0.30367
# Poissons Ratio (y) = 0.32964 0.30367
# Poissons Ratio (z) = 0.28144 0.28144
#
# Static dielectric constant tensor:
#      x y z
#    x 3.136820 0.000000 0.000000 
#    y 0.000000 3.136820 0.000000 
#    z 0.000000 0.000000 3.071960 
# 
# 
# High freq. dielectric constant tensor:
#      x y z
#    x 1.648140 0.000000 0.000000 
#    y 0.000000 1.648140 0.000000 
#    z 0.000000 0.000000 1.631030 
# 
# From -- ./inp_files/4743.got.cif
#   From: 2010.03.12/outbox.cif.g09.slc.cpg/sg164_3_cif.got.tgz:4743.got - 2010.04.02 06:32:59.
