data_PCOD8323228
_publ_section_title
;
Structure prediction by ZEFSAII (Michael W. Deem and Ramdas Pophale) SiO2 
 PCOD8323228
Probable space group: P -3 1 C
;
_chemical_formula_sum "Si O2"
_cell_formula_units_Z 70
_cell_length_a 14.689856
_cell_length_b 14.689856
_cell_length_c 17.040617
_cell_angle_alpha 90.000000
_cell_angle_beta 90.000000
_cell_angle_gamma 120.000000
_cell_volume 3184.571648
_symmetry_space_group_name_H-M "P -3 1 C"
_symmetry_group_IT_number 163
_symmetry_cell_setting 'hexagonal'
loop_
_space_group_symop_operation_xyz
x,y,z
-y,x-y,z
-x+y,-x,z
-y,-x,1/2-z
-x+y,y,1/2-z
x,x-y,1/2-z
-x,-y,-z
y,-x+y,-z
x-y,x,-z
y,x,1/2+z
x-y,-y,1/2+z
-x,-x+y,1/2+z
loop_
_atom_site_type_symbol
_atom_site_label
_atom_site_fract_x
_atom_site_fract_y
_atom_site_fract_z
Si Si1 0.716885 0.858443 0.250000
Si Si2 0.868622 0.754819 0.482894
Si Si3 0.552675 0.115371 0.844168
Si Si4 0.514704 0.407142 0.166306
Si Si5 0.214407 0.293359 0.684304
Si Si6 0.575568 0.798238 0.391248
Si Si7 0.333333 0.666667 0.655551
O O1 0.786153 0.812385 0.288092
O O2 0.646667 0.866913 0.318397
O O3 0.817780 0.826602 0.499768
O O4 0.857805 0.730500 0.391273
O O5 0.809923 0.645104 0.530170
O O6 0.567880 0.135760 0.750000
O O7 0.659453 0.182335 0.893127
O O8 0.467760 0.143753 0.876757
O O9 0.513137 0.993000 0.866054
O O10 0.568673 0.431328 0.250000
O O11 0.389797 0.329067 0.167781
O O12 0.581826 0.363904 0.119675
O O13 0.167028 0.334056 0.750000
O O14 0.333334 0.666667 0.750000
#
# Coordination Sequence:
#
# PCOD8323228 Si02
#       7
#     6  12  12  12  12  12   4
#     4  12  20  44  70 100 140 182 248 290 352 434
#     4  12  27  49  71 100 148 188 237 304 375 433
#     4  11  20  37  68 103 140 180 237 289 351 418
#     4  10  19  37  60  97 135 175 229 285 341 406
#     4  12  25  43  71 103 137 190 246 297 361 439
#     4  12  23  43  71 107 145 189 235 303 363 430
#     4   9  18  30  54  84 129 174 216 268 329 400
#
# _framework density 21.980976999999999
#
# number of rings (size 3 to 8) (size 9 to 14) (size 15 to 20)
#    0.000    0.686    5.143    4.114    0.000    1.371 
#    0.514    6.857    0.000    0.000    0.000    0.000 
#    0.000    0.000    0.000    0.000    0.000    0.000 
#
# Total GULP energy -867761.761349 kJ/mol
# GULP energy per Si atom -12396.596591 kJ/mol
# Density = 2.193095 g / cm^3
# Si number density = 21.980977 Si / 1000 Ang^3
#
#
#
# Elastic Constant Matrix: (Units=GPa)
#
#
# Indices 1 2 3 4 5 6 
#
# 1 121.3192 50.0860 30.3331 0.0000 -2.9411 0.0002
# 2 50.0860 121.3194 30.3332 0.0000 2.9411 0.0000
# 3 30.3331 30.3332 103.4378 0.0000 0.0000 0.0001
# 4 0.0000 0.0000 0.0000 16.2274 0.0000 2.9411
# 5 -2.9411 2.9411 0.0000 0.0000 16.2274 0.0000
# 6 0.0002 0.0000 0.0001 2.9411 0.0000 35.6166
#
#
#
# Elastic Compliance Matrix: (Units=1/GPa)
#
#
# Indices 1 2 3 4 5 6 
#
# 1 0.010381 -0.003871 -0.001909 0.000000 0.002583 0.000000
# 2 -0.003871 0.010381 -0.001909 0.000000 -0.002583 0.000000
# 3 -0.001909 -0.001909 0.010787 0.000000 0.000000 0.000000
# 4 0.000000 0.000000 0.000000 0.062560 0.000000 -0.005166
# 5 0.002583 -0.002583 0.000000 0.000000 0.062560 0.000000
# 6 0.000000 0.000000 0.000000 -0.005166 0.000000 0.028503
#
#
# Mechanical properties :
#
#
# Convention : Reuss Voigt Hill
#
# Bulk Modulus (GPa) = 61.83964 63.06457 62.45210
# Shear Modulus (GPa) = 24.27879 29.30256 26.79067
#
# Velocity S-wave (km/s) = 3.32706 3.65511 3.49494
# Velocity P-wave (km/s) = 6.55389 6.82392 6.69027
#
# Compressibility (1/GPa) = 0.01617086
#
# Stress axis : x y z
#
# Youngs Moduli (GPa) = 96.33231 96.33246 92.70185
#
# Poissons Ratio (x) = 0.37290 0.17697
# Poissons Ratio (y) = 0.37290 0.17697
# Poissons Ratio (z) = 0.18390 0.18390
#
# Static dielectric constant tensor:
#      x y z
#    x 4.079120 0.000000 0.000000 
#    y 0.000000 4.079120 0.000000 
#    z 0.000000 0.000000 3.771650 
# 
# 
# High freq. dielectric constant tensor:
#      x y z
#    x 1.877140 0.000000 0.000000 
#    y 0.000000 1.877140 0.000000 
#    z 0.000000 0.000000 1.832020 
# 
# From -- ./inp_files/3160.got.cif
#   From: 2010.03.12/outbox.cif.g09.slc.cpg/sg163_2_cif.got.tgz:3160.got - 2010.04.02 06:30:25.
