data_PCOD8323200
_publ_section_title
;
Structure prediction by ZEFSAII (Michael W. Deem and Ramdas Pophale) SiO2 
 PCOD8323200
Probable space group: P -3 1 C
;
_chemical_formula_sum "Si O2"
_cell_formula_units_Z 78
_cell_length_a 21.208775
_cell_length_b 21.208775
_cell_length_c 15.145157
_cell_angle_alpha 90.000000
_cell_angle_beta 90.000000
_cell_angle_gamma 120.000000
_cell_volume 5899.776790
_symmetry_space_group_name_H-M "P -3 1 C"
_symmetry_group_IT_number 163
_symmetry_cell_setting 'hexagonal'
loop_
_space_group_symop_operation_xyz
x,y,z
-y,x-y,z
-x+y,-x,z
-y,-x,1/2-z
-x+y,y,1/2-z
x,x-y,1/2-z
-x,-y,-z
y,-x+y,-z
x-y,x,-z
y,x,1/2+z
x-y,-y,1/2+z
-x,-x+y,1/2+z
loop_
_atom_site_type_symbol
_atom_site_label
_atom_site_fract_x
_atom_site_fract_y
_atom_site_fract_z
Si Si1 0.663061 0.468593 0.992544
Si Si2 0.402307 0.447886 0.924034
Si Si3 0.466064 0.786823 0.571333
Si Si4 0.559291 0.590660 0.248859
Si Si5 0.472200 0.665356 0.283567
Si Si6 0.049048 0.449441 0.918909
Si Si7 0.425525 0.712763 0.750000
O O1 0.649006 0.469664 0.888499
O O2 0.658748 0.533000 0.044533
O O3 0.745195 0.483683 0.995580
O O4 0.608935 0.392146 0.042028
O O5 0.388443 0.406381 0.830861
O O6 0.477754 0.522501 0.919661
O O7 0.404239 0.391905 0.993462
O O8 0.531821 0.868023 0.582292
O O9 0.469075 0.744447 0.659890
O O10 0.486599 0.513402 0.250000
O O11 0.535383 0.652062 0.242373
O O12 0.606445 0.600589 0.335938
O O13 0.392180 0.607821 0.250000
O O14 0.489746 0.744873 0.250000
O O15 0.375366 0.750732 0.750000
#
# Coordination Sequence:
#
# PCOD8323200 Si02
#       7
#    12  12  12  12  12  12   6
#     4  11  20  33  43  61  79 104 127 163 205 253
#     4   9  18  30  45  57  77  98 130 159 194 238
#     4  11  21  28  46  56  82 102 129 159 210 252
#     4   9  18  31  44  59  76  99 130 163 196 239
#     4  11  22  32  44  59  80 101 132 165 205 248
#     4   9  18  30  43  59  72 102 129 159 194 242
#     4  10  18  32  36  56  80  98 120 156 202 250
#
# _framework density 13.220840000000001
#
# number of rings (size 3 to 8) (size 9 to 14) (size 15 to 20)
#    0.154    1.846    3.077    1.385   10.769    0.615 
#    0.000    0.000    0.000    0.000    0.000    0.000 
#    0.000    0.000    0.000    0.000    0.000    0.000 
#
# Total GULP energy -966281.578457 kJ/mol
# GULP energy per Si atom -12388.225365 kJ/mol
# Density = 1.319075 g / cm^3
# Si number density = 13.220840 Si / 1000 Ang^3
#
#
#
# Elastic Constant Matrix: (Units=GPa)
#
#
# Indices 1 2 3 4 5 6 
#
# 1 56.5816 33.1212 25.7040 0.0000 0.0513 0.0000
# 2 33.1212 56.5816 25.7040 0.0000 -0.0513 0.0000
# 3 25.7040 25.7040 89.1108 0.0000 0.0000 0.0000
# 4 0.0000 0.0000 0.0000 17.1745 0.0000 -0.0513
# 5 0.0513 -0.0513 0.0000 0.0000 17.1745 0.0000
# 6 0.0000 0.0000 0.0000 -0.0513 0.0000 11.7302
#
#
#
# Elastic Compliance Matrix: (Units=1/GPa)
#
#
# Indices 1 2 3 4 5 6 
#
# 1 0.027991 -0.014635 -0.003852 0.000000 -0.000127 0.000000
# 2 -0.014635 0.027991 -0.003852 0.000000 0.000127 0.000000
# 3 -0.003852 -0.003852 0.013444 0.000000 0.000000 0.000000
# 4 0.000000 0.000000 0.000000 0.058227 0.000000 0.000255
# 5 -0.000127 0.000127 0.000000 0.000000 0.058227 0.000000
# 6 0.000000 0.000000 0.000000 0.000255 0.000000 0.085251
#
#
# Mechanical properties :
#
#
# Convention : Reuss Voigt Hill
#
# Bulk Modulus (GPa) = 40.41039 41.25915 40.83477
# Shear Modulus (GPa) = 15.42929 17.06548 16.24738
#
# Velocity S-wave (km/s) = 3.41991 3.59667 3.50940
# Velocity P-wave (km/s) = 6.79900 6.96588 6.88294
#
# Compressibility (1/GPa) = 0.02474611
#
# Stress axis : x y z
#
# Youngs Moduli (GPa) = 35.72615 35.72615 74.38003
#
# Poissons Ratio (x) = 0.52285 0.28655
# Poissons Ratio (y) = 0.52285 0.28655
# Poissons Ratio (z) = 0.13763 0.13763
#
# Static dielectric constant tensor:
#      x y z
#    x 2.448140 0.000000 0.000000 
#    y 0.000000 2.448140 0.000000 
#    z 0.000000 0.000000 2.968710 
# 
# 
# High freq. dielectric constant tensor:
#      x y z
#    x 1.460850 0.000000 0.000000 
#    y 0.000000 1.460850 0.000000 
#    z 0.000000 0.000000 1.529580 
# 
# From -- ./inp_files/2727.got.cif
#   From: 2010.03.12/outbox.cif.g09.slc.cpg/sg163_2_cif.got.tgz:2727.got - 2010.04.02 06:30:25.
