data_PCOD8323247
_publ_section_title
;
Structure prediction by ZEFSAII (Michael W. Deem and Ramdas Pophale) SiO2 
 PCOD8323247
Probable space group: P -3 1 C
;
_chemical_formula_sum "Si O2"
_cell_formula_units_Z 36
_cell_length_a 17.952950
_cell_length_b 17.952950
_cell_length_c 7.506715
_cell_angle_alpha 90.000000
_cell_angle_beta 90.000000
_cell_angle_gamma 120.000000
_cell_volume 2095.328896
_symmetry_space_group_name_H-M "P -3 1 C"
_symmetry_group_IT_number 163
_symmetry_cell_setting 'hexagonal'
loop_
_space_group_symop_operation_xyz
x,y,z
-y,x-y,z
-x+y,-x,z
-y,-x,1/2-z
-x+y,y,1/2-z
x,x-y,1/2-z
-x,-y,-z
y,-x+y,-z
x-y,x,-z
y,x,1/2+z
x-y,-y,1/2+z
-x,-x+y,1/2+z
loop_
_atom_site_type_symbol
_atom_site_label
_atom_site_fract_x
_atom_site_fract_y
_atom_site_fract_z
Si Si1 0.839289 0.332117 0.250000
Si Si2 0.737730 0.094099 0.546121
Si Si3 0.737730 0.643631 0.546121
O O1 0.738871 0.261130 0.250000
O O2 0.850333 0.425167 0.250000
O O3 0.885677 0.323724 0.425652
O O4 0.885677 0.323724 0.074347
O O5 0.837587 0.162413 0.505336
O O6 0.714173 0.099691 0.750000
O O7 0.722801 0.000000 0.500000
#
# Coordination Sequence:
#
# PCOD8323247 Si02
#       3
#    12  12  12
#     4  10  21  36  53  74 104 138 174 212 255 302
#     4  10  20  35  54  78 104 134 171 210 255 303
#     4  10  20  35  54  78 104 134 171 210 255 303
#
# _framework density 17.181073000000001
#
# number of rings (size 3 to 8) (size 9 to 14) (size 15 to 20)
#    0.000    2.000    3.333    0.333    0.000    2.667 
#    0.000    0.000    0.000    4.667    0.000    0.000 
#    0.000    0.000    0.000    0.000    0.000    0.000 
#
# Total GULP energy -446435.125742 kJ/mol
# GULP energy per Si atom -12400.975715 kJ/mol
# Density = 1.714197 g / cm^3
# Si number density = 17.181073 Si / 1000 Ang^3
#
#
#
# Elastic Constant Matrix: (Units=GPa)
#
#
# Indices 1 2 3 4 5 6 
#
# 1 120.7936 91.0130 58.3087 0.0000 0.0000 0.0000
# 2 91.0130 120.7936 58.3087 0.0000 0.0000 0.0000
# 3 58.3087 58.3087 141.7801 0.0000 0.0000 0.0000
# 4 0.0000 0.0000 0.0000 20.7508 0.0000 0.0000
# 5 0.0000 0.0000 0.0000 0.0000 20.7508 0.0000
# 6 0.0000 0.0000 0.0000 0.0000 0.0000 14.8903
#
#
#
# Elastic Compliance Matrix: (Units=1/GPa)
#
#
# Indices 1 2 3 4 5 6 
#
# 1 0.019841 -0.013738 -0.002510 0.000000 0.000000 0.000000
# 2 -0.013738 0.019841 -0.002510 0.000000 0.000000 0.000000
# 3 -0.002510 -0.002510 0.009118 0.000000 0.000000 0.000000
# 4 0.000000 0.000000 0.000000 0.048191 0.000000 0.000000
# 5 0.000000 0.000000 0.000000 0.000000 0.048191 0.000000
# 6 0.000000 0.000000 0.000000 0.000000 0.000000 0.067158
#
#
# Mechanical properties :
#
#
# Convention : Reuss Voigt Hill
#
# Bulk Modulus (GPa) = 88.62006 88.73647 88.67827
# Shear Modulus (GPa) = 19.71479 22.99418 21.35449
#
# Velocity S-wave (km/s) = 3.39111 3.66231 3.52931
# Velocity P-wave (km/s) = 8.18687 8.34525 8.26644
#
# Compressibility (1/GPa) = 0.01128413
#
# Stress axis : x y z
#
# Youngs Moduli (GPa) = 50.40045 50.40045 109.67622
#
# Poissons Ratio (x) = 0.69239 0.27529
# Poissons Ratio (y) = 0.69239 0.27529
# Poissons Ratio (z) = 0.12651 0.12651
#
# Static dielectric constant tensor:
#      x y z
#    x 3.154650 0.000000 0.000000 
#    y 0.000000 3.154650 0.000000 
#    z 0.000000 0.000000 3.597400 
# 
# 
# High freq. dielectric constant tensor:
#      x y z
#    x 1.651370 0.000000 0.000000 
#    y 0.000000 1.651370 0.000000 
#    z 0.000000 0.000000 1.688510 
# 
# From -- ./inp_files/728.got.cif
#   From: 2010.03.12/outbox.cif.g09.slc.cpg/sg163_1_cif.got.tgz:728.got - 2010.04.02 06:30:25.
