data_PCOD8323434
_publ_section_title
;
Structure prediction by ZEFSAII (Michael W. Deem and Ramdas Pophale) SiO2 
 PCOD8323434
Probable space group: P -3 M 1
;
_chemical_formula_sum "Si O2"
_cell_formula_units_Z 72
_cell_length_a 18.139561
_cell_length_b 18.139561
_cell_length_c 16.793577
_cell_angle_alpha 90.000000
_cell_angle_beta 90.000000
_cell_angle_gamma 120.000000
_cell_volume 4785.500725
_symmetry_space_group_name_H-M "P -3 M 1"
_symmetry_group_IT_number 164
_symmetry_cell_setting 'hexagonal'
loop_
_space_group_symop_operation_xyz
x,y,z
-y,x-y,z
-x+y,-x,z
x-y,-y,-z
-x,-x+y,-z
y,x,-z
-x,-y,-z
y,-x+y,-z
x-y,x,-z
-x+y,y,z
x,x-y,z
-y,-x,z
loop_
_atom_site_type_symbol
_atom_site_label
_atom_site_fract_x
_atom_site_fract_y
_atom_site_fract_z
Si Si1 0.668450 0.503873 0.183050
Si Si2 0.638934 0.737262 0.500000
Si Si3 0.368268 0.902100 0.646048
Si Si4 0.668450 0.503873 0.816951
Si Si5 0.412317 1.000000 0.090234
Si Si6 0.631732 0.533833 0.646049
O O1 0.752836 0.505671 0.152253
O O2 0.588736 0.411265 0.165881
O O3 0.677960 0.524375 0.276850
O O4 0.659594 0.575699 0.134636
O O5 0.714593 0.714593 0.500000
O O6 0.679202 0.839601 0.499999
O O7 0.579344 0.699539 0.576710
O O8 0.579344 0.699538 0.423290
O O9 0.441354 0.882707 0.615160
O O10 0.410966 0.999999 0.672032
O O11 0.752835 0.505670 0.847747
O O12 0.588735 0.411266 0.834116
O O13 0.659594 0.575699 0.865365
O O14 0.677961 0.524378 0.723150
O O15 0.500000 0.999999 0.094016
O O16 0.382992 0.000000 0.000000
O O17 0.558646 0.441355 0.615163
#
# Coordination Sequence:
#
# PCOD8323434 Si02
#       6
#    12  12  12  12  12  12
#     4  10  18  29  45  65  88 114 147 183 218 255
#     4  10  19  29  43  64  89 117 150 184 217 253
#     4   9  16  28  45  64  86 115 146 175 210 256
#     4  10  18  29  45  65  88 114 147 183 218 255
#     4   9  18  32  46  59  81 113 144 177 220 265
#     4   9  16  28  45  64  86 115 146 175 210 256
#
# _framework density 15.045448
#
# number of rings (size 3 to 8) (size 9 to 14) (size 15 to 20)
#    0.000    2.500    1.667    1.833    0.000    2.667 
#    0.000    0.000    0.000    6.833    0.000    0.000 
#    0.000    0.000    0.000    0.500    0.000    2.167 
#
# Total GULP energy -892704.687671 kJ/mol
# GULP energy per Si atom -12398.676218 kJ/mol
# Density = 1.501120 g / cm^3
# Si number density = 15.045448 Si / 1000 Ang^3
#
#
#
# Elastic Constant Matrix: (Units=GPa)
#
#
# Indices 1 2 3 4 5 6 
#
# 1 91.0037 44.0789 40.1274 0.0001 0.0000 0.0000
# 2 44.0789 91.0037 40.1274 -0.0001 0.0000 0.0000
# 3 40.1274 40.1274 74.6146 0.0000 0.0000 0.0000
# 4 0.0001 -0.0001 0.0000 10.7027 0.0000 0.0000
# 5 0.0000 0.0000 0.0000 0.0000 10.7027 0.0001
# 6 0.0000 0.0000 0.0000 0.0000 0.0001 23.4624
#
#
#
# Elastic Compliance Matrix: (Units=1/GPa)
#
#
# Indices 1 2 3 4 5 6 
#
# 1 0.016095 -0.005216 -0.005851 0.000000 0.000000 0.000000
# 2 -0.005216 0.016095 -0.005851 0.000000 0.000000 0.000000
# 3 -0.005851 -0.005851 0.019695 0.000000 0.000000 0.000000
# 4 0.000000 0.000000 0.000000 0.093435 0.000000 0.000000
# 5 0.000000 0.000000 0.000000 0.000000 0.093435 0.000000
# 6 0.000000 0.000000 0.000000 0.000000 0.000000 0.042621
#
#
# Mechanical properties :
#
#
# Convention : Reuss Voigt Hill
#
# Bulk Modulus (GPa) = 55.40059 56.14324 55.77191
# Shear Modulus (GPa) = 15.56536 17.79276 16.67906
#
# Velocity S-wave (km/s) = 3.21994 3.44263 3.33314
# Velocity P-wave (km/s) = 7.12223 7.29377 7.20851
#
# Compressibility (1/GPa) = 0.01805035
#
# Stress axis : x y z
#
# Youngs Moduli (GPa) = 62.13205 62.13205 50.77423
#
# Poissons Ratio (x) = 0.32408 0.29706
# Poissons Ratio (y) = 0.32408 0.29706
# Poissons Ratio (z) = 0.36351 0.36351
#
# Static dielectric constant tensor:
#      x y z
#    x 2.714590 0.000000 0.000000 
#    y 0.000000 2.714590 0.000000 
#    z 0.000000 0.000000 2.940460 
# 
# 
# High freq. dielectric constant tensor:
#      x y z
#    x 1.552530 0.000000 0.000000 
#    y 0.000000 1.552530 0.000000 
#    z 0.000000 0.000000 1.583670 
# 
# From -- ./inp_files/4064.got.cif
#   From: 2010.03.12/outbox.cif.g09.slc.cpg/sg164_3_cif.got.tgz:4064.got - 2010.04.02 06:32:59.
