data_PCOD8323000
_publ_section_title
;
Structure prediction by ZEFSAII (Michael W. Deem and Ramdas Pophale) SiO2 
 PCOD8323000
Probable space group: P -3 1 M 
;
_chemical_formula_sum "Si O2"
_cell_formula_units_Z 96
_cell_length_a 17.379229
_cell_length_b 17.379229
_cell_length_c 20.387852
_cell_angle_alpha 90.000000
_cell_angle_beta 90.000000
_cell_angle_gamma 120.000000
_cell_volume 5332.896015
_symmetry_space_group_name_H-M "P -3 1 M "
_symmetry_group_IT_number 162
_symmetry_cell_setting 'hexagonal'
loop_
_space_group_symop_operation_xyz
x,y,z
-y,x-y,z
-x+y,-x,z
-y,-x,-z
-x+y,y,-z
x,x-y,-z
-x,-y,-z
y,-x+y,-z
x-y,x,-z
y,x,z
x-y,-y,z
-x,-x+y,z
loop_
_atom_site_type_symbol
_atom_site_label
_atom_site_fract_x
_atom_site_fract_y
_atom_site_fract_z
Si Si1 0.271573 0.370962 0.759878
Si Si2 0.897775 0.270503 0.743113
Si Si3 0.531009 0.635456 0.365730
Si Si4 0.269958 0.897391 0.489333
Si Si5 0.511997 0.843783 0.132601
Si Si6 0.668316 0.509851 0.118182
Si Si7 0.627433 0.899836 0.006329
Si Si8 0.637124 0.102915 0.380546
O O1 0.290075 0.290075 0.746363
O O2 0.165238 0.331243 0.759895
O O3 0.317626 0.447130 0.704776
O O4 0.314116 0.414508 0.829248
O O5 0.886418 0.330016 0.798131
O O6 0.860995 0.286527 0.674629
O O7 0.000000 0.293345 0.739164
O O8 0.575762 0.575762 0.375831
O O9 0.569782 0.708381 0.423200
O O10 0.424247 0.572809 0.373428
O O11 0.163773 0.836228 0.500000
O O12 0.323165 0.881477 0.547013
O O13 0.294307 0.000000 0.485833
O O14 0.476251 0.738502 0.129814
O O15 0.430772 0.860501 0.123812
O O16 0.585862 0.894114 0.077330
O O17 0.677237 0.549238 0.046024
O O18 0.707199 0.000000 0.994653
O O19 0.667664 0.833832 0.000000
O O20 0.575704 0.000000 0.364423
#
# Coordination Sequence:
#
# PCOD8323000 Si02
#       8
#    12  12  12  12  12  12  12  12
#     4  10  20  33  50  72  97 127 163 202 242 283
#     4  10  20  33  50  72  97 127 163 202 242 283
#     4   9  17  30  49  71  93 119 153 192 234 283
#     4  10  19  31  49  72  97 127 164 204 243 283
#     4  10  20  33  50  73 101 131 161 194 234 281
#     4  10  20  33  50  73 101 131 161 194 234 281
#     4  10  21  35  51  72  97 127 162 200 241 283
#     4   9  17  30  49  71  93 119 153 192 234 283
#
# _framework density 18.001476
#
# number of rings (size 3 to 8) (size 9 to 14) (size 15 to 20)
#    0.000    2.250    0.000    3.250    0.000    5.000 
#    0.000    1.250    0.000    9.000    0.000    0.000 
#    0.000   12.000    0.000    0.000    0.000    2.000 
#
# Total GULP energy -1190331.089264 kJ/mol
# GULP energy per Si atom -12399.282180 kJ/mol
# Density = 1.796050 g / cm^3
# Si number density = 18.001476 Si / 1000 Ang^3
#
#
#
# Elastic Constant Matrix: (Units=GPa)
#
#
# Indices 1 2 3 4 5 6 
#
# 1 79.1061 48.2068 1.3213 -0.0001 -1.3620 0.0000
# 2 48.2068 79.1061 1.3213 0.0001 1.3620 0.0000
# 3 1.3213 1.3213 77.3452 0.0000 0.0000 0.0000
# 4 -0.0001 0.0001 0.0000 20.5036 0.0000 1.3620
# 5 -1.3620 1.3620 0.0000 0.0000 20.5036 -0.0001
# 6 0.0000 0.0000 0.0000 1.3620 -0.0001 15.4497
#
#
#
# Elastic Compliance Matrix: (Units=1/GPa)
#
#
# Indices 1 2 3 4 5 6 
#
# 1 0.020206 -0.012348 -0.000134 0.000000 0.002162 0.000000
# 2 -0.012348 0.020206 -0.000134 0.000000 -0.002162 0.000000
# 3 -0.000134 -0.000134 0.012934 0.000000 0.000000 0.000000
# 4 0.000000 0.000000 0.000000 0.049059 0.000000 -0.004325
# 5 0.002162 -0.002162 0.000000 0.000000 0.049059 0.000000
# 6 0.000000 0.000000 0.000000 -0.004325 0.000000 0.065108
#
#
# Mechanical properties :
#
#
# Convention : Reuss Voigt Hill
#
# Bulk Modulus (GPa) = 35.57249 37.47292 36.52270
# Shear Modulus (GPa) = 19.90646 23.60526 21.75586
#
# Velocity S-wave (km/s) = 3.32900 3.62511 3.48021
# Velocity P-wave (km/s) = 5.88048 6.19546 6.04002
#
# Compressibility (1/GPa) = 0.02811161
#
# Stress axis : x y z
#
# Youngs Moduli (GPa) = 49.49113 49.49113 77.31782
#
# Poissons Ratio (x) = 0.61113 0.01038
# Poissons Ratio (y) = 0.61113 0.01038
# Poissons Ratio (z) = 0.00664 0.00664
#
# Static dielectric constant tensor:
#      x y z
#    x 3.188330 0.000000 0.000000 
#    y 0.000000 3.188330 0.000000 
#    z 0.000000 0.000000 3.526790 
# 
# 
# High freq. dielectric constant tensor:
#      x y z
#    x 1.675240 0.000000 0.000000 
#    y 0.000000 1.675240 0.000000 
#    z 0.000000 0.000000 1.721000 
# 
# From -- ./inp_files/3880.got.cif
#   From: 2010.03.12/outbox.cif.g09.slc.cpg/sg162_2_cif.got.tgz:3880.got - 2010.04.02 06:27:41.
