data_PCOD8323317
_publ_section_title
;
Structure prediction by ZEFSAII (Michael W. Deem and Ramdas Pophale) SiO2 
 PCOD8323317
Probable space group: P -3 1 C
;
_chemical_formula_sum "Si O2"
_cell_formula_units_Z 80
_cell_length_a 18.873361
_cell_length_b 18.873361
_cell_length_c 17.752824
_cell_angle_alpha 90.000000
_cell_angle_beta 90.000000
_cell_angle_gamma 120.000000
_cell_volume 5476.417797
_symmetry_space_group_name_H-M "P -3 1 C"
_symmetry_group_IT_number 163
_symmetry_cell_setting 'hexagonal'
loop_
_space_group_symop_operation_xyz
x,y,z
-y,x-y,z
-x+y,-x,z
-y,-x,1/2-z
-x+y,y,1/2-z
x,x-y,1/2-z
-x,-y,-z
y,-x+y,-z
x-y,x,-z
y,x,1/2+z
x-y,-y,1/2+z
-x,-x+y,1/2+z
loop_
_atom_site_type_symbol
_atom_site_label
_atom_site_fract_x
_atom_site_fract_y
_atom_site_fract_z
Si Si1 0.000000 0.000000 0.588599
Si Si2 0.666668 0.333335 0.659551
Si Si3 0.424325 0.576934 0.338953
Si Si4 0.037345 0.798617 0.082624
Si Si5 0.911733 0.828150 0.162138
Si Si6 0.878505 0.285309 0.662821
Si Si7 0.205338 0.965621 0.083001
Si Si8 0.715361 0.120945 0.664236
O O1 0.029646 0.089799 0.616549
O O2 0.000000 0.000000 0.500000
O O3 0.666668 0.333334 0.750000
O O4 0.619941 0.377414 0.625295
O O5 0.418562 0.581439 0.250000
O O6 0.374071 0.481494 0.363209
O O7 0.520152 0.626459 0.362318
O O8 0.111157 0.892178 0.086035
O O9 0.065672 0.736313 0.111148
O O10 0.963491 0.786059 0.136738
O O11 0.002794 0.773636 0.999487
O O12 0.922932 0.845863 0.250000
O O13 0.816094 0.776368 0.140324
O O14 0.933189 0.265586 0.607681
O O15 0.782797 0.216821 0.655534
O O16 0.906507 0.287440 0.749154
#
# Coordination Sequence:
#
# PCOD8323317 Si02
#       8
#     4   4  12  12  12  12  12  12
#     4  12  22  32  43  63  88 116 151 189 232 272
#     4   9  12  18  36  66  93 111 135 153 193 257
#     4   9  14  24  43  67  94 117 136 170 209 258
#     4  11  21  33  46  61  86 118 153 190 230 268
#     4  12  22  32  47  64  85 114 154 199 230 259
#     4   9  17  28  44  67  92 115 144 178 217 266
#     4  11  21  33  46  61  86 118 153 190 230 268
#     4   9  17  28  44  67  92 115 144 178 217 266
#
# _framework density 14.608089
#
# number of rings (size 3 to 8) (size 9 to 14) (size 15 to 20)
#    0.000    1.800    4.500    2.250    0.000    1.200 
#    0.000    0.750    0.000    0.000    0.000    0.000 
#    0.000    0.000    0.000    0.900    0.000   12.150 
#
# Total GULP energy -991665.955508 kJ/mol
# GULP energy per Si atom -12395.824444 kJ/mol
# Density = 1.457484 g / cm^3
# Si number density = 14.608089 Si / 1000 Ang^3
#
#
#
# Elastic Constant Matrix: (Units=GPa)
#
#
# Indices 1 2 3 4 5 6 
#
# 1 86.1342 46.6001 34.6936 -0.0001 0.4921 0.0000
# 2 46.6001 86.1342 34.6936 -0.0001 -0.4922 -0.0001
# 3 34.6936 34.6936 85.7681 0.0000 0.0000 0.0000
# 4 -0.0001 -0.0001 0.0000 16.1790 0.0000 -0.4922
# 5 0.4921 -0.4922 0.0000 0.0000 16.1790 0.0000
# 6 0.0000 -0.0001 0.0000 -0.4922 0.0000 19.7671
#
#
#
# Elastic Compliance Matrix: (Units=1/GPa)
#
#
# Indices 1 2 3 4 5 6 
#
# 1 0.017434 -0.007880 -0.003865 0.000000 -0.000770 0.000000
# 2 -0.007880 0.017434 -0.003865 0.000000 0.000770 0.000000
# 3 -0.003865 -0.003865 0.014786 0.000000 0.000000 0.000000
# 4 0.000000 0.000000 0.000000 0.061855 0.000000 0.001540
# 5 -0.000770 0.000770 0.000000 0.000000 0.061855 0.000000
# 6 0.000000 0.000000 0.000000 0.001540 0.000000 0.050628
#
#
# Mechanical properties :
#
#
# Convention : Reuss Voigt Hill
#
# Bulk Modulus (GPa) = 54.24343 54.44568 54.34455
# Shear Modulus (GPa) = 19.13101 19.89496 19.51299
#
# Velocity S-wave (km/s) = 3.62279 3.69442 3.65878
# Velocity P-wave (km/s) = 7.39679 7.45319 7.42505
#
# Compressibility (1/GPa) = 0.01843541
#
# Stress axis : x y z
#
# Youngs Moduli (GPa) = 57.35939 57.35932 67.63198
#
# Poissons Ratio (x) = 0.45198 0.26138
# Poissons Ratio (y) = 0.45198 0.26138
# Poissons Ratio (z) = 0.22168 0.22168
#
# Static dielectric constant tensor:
#      x y z
#    x 2.845320 0.000000 0.000000 
#    y 0.000000 2.845320 0.000000 
#    z 0.000000 0.000000 2.618970 
# 
# 
# High freq. dielectric constant tensor:
#      x y z
#    x 1.549260 0.000000 0.000000 
#    y 0.000000 1.549260 0.000000 
#    z 0.000000 0.000000 1.535530 
# 
# From -- ./inp_files/3284.got.cif
#   From: 2010.03.12/outbox.cif.g09.slc.cpg/sg163_2_cif.got.tgz:3284.got - 2010.04.02 06:30:25.
