data_PCOD8323509
_publ_section_title
;
Structure prediction by ZEFSAII (Michael W. Deem and Ramdas Pophale) SiO2 
 PCOD8323509
Probable space group: P -3 M 1
;
_chemical_formula_sum "Si O2"
_cell_formula_units_Z 96
_cell_length_a 17.159973
_cell_length_b 17.159973
_cell_length_c 23.020391
_cell_angle_alpha 90.000000
_cell_angle_beta 90.000000
_cell_angle_gamma 120.000000
_cell_volume 5870.519404
_symmetry_space_group_name_H-M "P -3 M 1"
_symmetry_group_IT_number 164
_symmetry_cell_setting 'hexagonal'
loop_
_space_group_symop_operation_xyz
x,y,z
-y,x-y,z
-x+y,-x,z
x-y,-y,-z
-x,-x+y,-z
y,x,-z
-x,-y,-z
y,-x+y,-z
x-y,x,-z
-x+y,y,z
x,x-y,z
-y,-x,z
loop_
_atom_site_type_symbol
_atom_site_label
_atom_site_fract_x
_atom_site_fract_y
_atom_site_fract_z
Si Si1 0.964989 0.571958 0.237942
Si Si2 0.845064 0.332231 0.020947
Si Si3 0.157133 0.667742 0.193193
Si Si4 0.728763 0.633970 0.476170
Si Si5 0.632182 0.903699 0.085209
Si Si6 0.332566 0.843443 0.416753
Si Si7 0.904433 0.272924 0.128978
Si Si8 0.606536 0.034057 0.368682
O O1 0.942458 0.471229 0.222476
O O2 0.911705 0.600644 0.193728
O O3 0.934876 0.577367 0.303366
O O4 0.072103 0.639169 0.234691
O O5 0.861706 0.430853 0.009253
O O6 0.740832 0.259169 0.009096
O O7 0.871418 0.325593 0.086964
O O8 0.908176 0.312892 0.978293
O O9 0.188337 0.594169 0.192616
O O10 0.239019 0.760982 0.217075
O O11 0.130627 0.677803 0.127866
O O12 0.714588 0.714588 0.500000
O O13 0.835249 0.670498 0.474926
O O14 0.676423 0.548209 0.518009
O O15 0.689642 0.602108 0.411839
O O16 0.671785 0.835892 0.085725
O O17 0.712617 0.000622 0.105511
O O18 0.406077 0.812153 0.417759
O O19 0.238807 0.761193 0.393969
O O20 0.360712 0.926877 0.373707
O O21 0.833538 0.166463 0.129286
O O22 0.528414 0.056828 0.384095
#
# Coordination Sequence:
#
# PCOD8323509 Si02
#       8
#    12  12  12  12  12  12  12  12
#     4   9  18  31  44  60  86 119 152 185 218 251
#     4  10  19  30  46  69  96 123 149 178 214 258
#     4   9  16  26  41  62  89 120 151 180 212 254
#     4   9  17  29  46  67  89 113 143 180 222 266
#     4   9  18  31  46  65  89 115 143 182 232 278
#     4   9  16  26  42  66  95 123 148 175 209 250
#     4  10  20  32  47  66  86 113 151 191 229 269
#     4   9  17  29  44  62  87 119 152 183 213 248
#
# _framework density 16.352896999999999
#
# number of rings (size 3 to 8) (size 9 to 14) (size 15 to 20)
#    0.000    2.750    0.000    1.875    0.000    4.500 
#    0.000    1.250    0.000    2.375    0.000    0.000 
#    0.000    3.000    0.000    0.750    0.000    0.000 
#
# Total GULP energy -1190313.749180 kJ/mol
# GULP energy per Si atom -12399.101554 kJ/mol
# Density = 1.631568 g / cm^3
# Si number density = 16.352897 Si / 1000 Ang^3
#
#
#
# Elastic Constant Matrix: (Units=GPa)
#
#
# Indices 1 2 3 4 5 6 
#
# 1 85.3065 45.4306 34.3729 -0.5154 0.0000 0.0000
# 2 45.4306 85.3065 34.3729 0.5154 0.0000 0.0000
# 3 34.3729 34.3729 92.1628 0.0000 0.0000 0.0000
# 4 -0.5154 0.5154 0.0000 17.5229 0.0000 0.0000
# 5 0.0000 0.0000 0.0000 0.0000 17.5229 -0.5154
# 6 0.0000 0.0000 0.0000 0.0000 -0.5154 19.9380
#
#
#
# Elastic Compliance Matrix: (Units=1/GPa)
#
#
# Indices 1 2 3 4 5 6 
#
# 1 0.017306 -0.007791 -0.003549 0.000738 0.000000 0.000000
# 2 -0.007791 0.017306 -0.003549 -0.000738 0.000000 0.000000
# 3 -0.003549 -0.003549 0.013497 0.000000 0.000000 0.000000
# 4 0.000738 -0.000738 0.000000 0.057112 0.000000 0.000000
# 5 0.000000 0.000000 0.000000 0.000000 0.057112 0.001476
# 6 0.000000 0.000000 0.000000 0.000000 0.001476 0.050194
#
#
# Mechanical properties :
#
#
# Convention : Reuss Voigt Hill
#
# Bulk Modulus (GPa) = 54.54774 54.56983 54.55879
# Shear Modulus (GPa) = 20.12772 20.90338 20.51555
#
# Velocity S-wave (km/s) = 3.51213 3.57917 3.54581
# Velocity P-wave (km/s) = 7.06228 7.10796 7.08516
#
# Compressibility (1/GPa) = 0.01833256
#
# Stress axis : x y z
#
# Youngs Moduli (GPa) = 57.78374 57.78374 74.08843
#
# Poissons Ratio (x) = 0.45019 0.26292
# Poissons Ratio (y) = 0.45019 0.26292
# Poissons Ratio (z) = 0.20506 0.20506
#
# Static dielectric constant tensor:
#      x y z
#    x 2.973060 0.000000 0.000000 
#    y 0.000000 2.973060 0.000000 
#    z 0.000000 0.000000 3.096070 
# 
# 
# High freq. dielectric constant tensor:
#      x y z
#    x 1.611090 0.000000 0.000000 
#    y 0.000000 1.611090 0.000000 
#    z 0.000000 0.000000 1.634570 
# 
# From -- ./inp_files/4720.got.cif
#   From: 2010.03.12/outbox.cif.g09.slc.cpg/sg164_3_cif.got.tgz:4720.got - 2010.04.02 06:32:59.
