data_PCOD8323357
_publ_section_title
;
Structure prediction by ZEFSAII (Michael W. Deem and Ramdas Pophale) SiO2 
 PCOD8323357
Probable space group: P -3 M 1
;
_chemical_formula_sum "Si O2"
_cell_formula_units_Z 96
_cell_length_a 21.167742
_cell_length_b 21.167742
_cell_length_c 19.890360
_cell_angle_alpha 90.000000
_cell_angle_beta 90.000000
_cell_angle_gamma 120.000000
_cell_volume 7718.312216
_symmetry_space_group_name_H-M "P -3 M 1"
_symmetry_group_IT_number 164
_symmetry_cell_setting 'hexagonal'
loop_
_space_group_symop_operation_xyz
x,y,z
-y,x-y,z
-x+y,-x,z
x-y,-y,-z
-x,-x+y,-z
y,x,-z
-x,-y,-z
y,-x+y,-z
x-y,x,-z
-x+y,y,z
x,x-y,z
-y,-x,z
loop_
_atom_site_type_symbol
_atom_site_label
_atom_site_fract_x
_atom_site_fract_y
_atom_site_fract_z
Si Si1 0.813448 0.333246 0.382978
Si Si2 0.521612 0.188446 0.783835
Si Si3 0.186870 0.520271 0.464106
Si Si4 0.942825 0.395983 0.289471
Si Si5 0.666465 0.483108 0.033030
Si Si6 0.473359 0.377461 0.660108
Si Si7 0.543018 0.937034 0.861778
Si Si8 0.616852 0.528383 0.910583
O O1 0.797782 0.398891 0.370186
O O2 0.740270 0.259731 0.365658
O O3 0.838835 0.334302 0.459724
O O4 0.876001 0.337788 0.334462
O O5 0.606482 0.212963 0.778341
O O6 0.515610 0.257805 0.804529
O O7 0.479806 0.155757 0.713807
O O8 0.481827 0.127194 0.839639
O O9 0.258266 0.516531 0.446052
O O10 0.206401 0.603201 0.452158
O O11 0.121495 0.466034 0.414583
O O12 0.943840 0.471920 0.289912
O O13 0.933580 0.364628 0.213814
O O14 0.016730 0.404853 0.322592
O O15 0.739917 0.479833 0.037125
O O16 0.599264 0.400737 0.025644
O O17 0.659579 0.521627 0.100359
O O18 0.671159 0.534501 0.970363
O O19 0.544515 0.455486 0.666867
O O20 0.474700 0.949399 0.856511
O O21 0.606066 0.007159 0.902662
O O22 0.540037 0.459964 0.931053
#
# Coordination Sequence:
#
# PCOD8323357 Si02
#       8
#    12  12  12  12  12  12  12  12
#     4   9  17  27  39  53  69  89 114 147 188 228
#     4  10  17  24  35  52  73  94 115 141 176 216
#     4   9  16  25  36  51  71  94 117 143 180 225
#     4   9  16  27  40  52  66  86 115 148 177 210
#     4  10  19  28  39  55  74  92 113 146 188 226
#     4   9  16  25  36  49  68  91 115 143 173 210
#     4   9  16  28  42  52  65  90 120 145 174 216
#     4   9  16  27  40  52  67  91 118 141 171 214
#
# _framework density 12.437953
#
# number of rings (size 3 to 8) (size 9 to 14) (size 15 to 20)
#    0.000    2.750    1.250    1.625    0.000    3.500 
#    0.000    5.000    0.000    1.500    0.000    0.000 
#    0.000    0.000    0.000    0.000    0.000    0.000 
#
# Total GULP energy -1189943.336950 kJ/mol
# GULP energy per Si atom -12395.243093 kJ/mol
# Density = 1.240964 g / cm^3
# Si number density = 12.437953 Si / 1000 Ang^3
#
#
#
# Elastic Constant Matrix: (Units=GPa)
#
#
# Indices 1 2 3 4 5 6 
#
# 1 49.4452 28.0964 35.2213 0.0725 0.0000 0.0000
# 2 28.0964 49.4452 35.2213 -0.0725 0.0000 0.0000
# 3 35.2213 35.2213 85.8713 0.0000 0.0000 0.0000
# 4 0.0725 -0.0725 0.0000 13.9410 0.0000 0.0000
# 5 0.0000 0.0000 0.0000 0.0000 13.9410 0.0725
# 6 0.0000 0.0000 0.0000 0.0000 0.0725 10.6744
#
#
#
# Elastic Compliance Matrix: (Units=1/GPa)
#
#
# Indices 1 2 3 4 5 6 
#
# 1 0.033699 -0.013144 -0.008431 -0.000244 0.000000 0.000000
# 2 -0.013144 0.033699 -0.008431 0.000244 0.000000 0.000000
# 3 -0.008431 -0.008431 0.018562 0.000000 0.000000 0.000000
# 4 -0.000244 0.000244 0.000000 0.071733 0.000000 0.000000
# 5 0.000000 0.000000 0.000000 0.000000 0.071733 -0.000487
# 6 0.000000 0.000000 0.000000 0.000000 -0.000487 0.093685
#
#
# Mechanical properties :
#
#
# Convention : Reuss Voigt Hill
#
# Bulk Modulus (GPa) = 38.53833 42.42661 40.48247
# Shear Modulus (GPa) = 12.76250 13.45947 13.11098
#
# Velocity S-wave (km/s) = 3.20674 3.29314 3.25023
# Velocity P-wave (km/s) = 6.69049 6.97455 6.83400
#
# Compressibility (1/GPa) = 0.02594819
#
# Stress axis : x y z
#
# Youngs Moduli (GPa) = 29.67440 29.67440 53.87456
#
# Poissons Ratio (x) = 0.39003 0.45422
# Poissons Ratio (y) = 0.39003 0.45422
# Poissons Ratio (z) = 0.25019 0.25019
#
# Static dielectric constant tensor:
#      x y z
#    x 2.331400 0.000000 0.000000 
#    y 0.000000 2.331400 0.000000 
#    z 0.000000 0.000000 2.750480 
# 
# 
# High freq. dielectric constant tensor:
#      x y z
#    x 1.434400 0.000000 0.000000 
#    y 0.000000 1.434400 0.000000 
#    z 0.000000 0.000000 1.492030 
# 
# From -- ./inp_files/4284.got.cif
#   From: 2010.03.12/outbox.cif.g09.slc.cpg/sg164_3_cif.got.tgz:4284.got - 2010.04.02 06:32:59.
