data_PCOD8323281
_publ_section_title
;
Structure prediction by ZEFSAII (Michael W. Deem and Ramdas Pophale) SiO2 
 PCOD8323281
Probable space group: P -3 1 C
;
_chemical_formula_sum "Si O2"
_cell_formula_units_Z 84
_cell_length_a 17.929335
_cell_length_b 17.929335
_cell_length_c 15.392901
_cell_angle_alpha 90.000000
_cell_angle_beta 90.000000
_cell_angle_gamma 120.000000
_cell_volume 4285.282641
_symmetry_space_group_name_H-M "P -3 1 C"
_symmetry_group_IT_number 163
_symmetry_cell_setting 'hexagonal'
loop_
_space_group_symop_operation_xyz
x,y,z
-y,x-y,z
-x+y,-x,z
-y,-x,1/2-z
-x+y,y,1/2-z
x,x-y,1/2-z
-x,-y,-z
y,-x+y,-z
x-y,x,-z
y,x,1/2+z
x-y,-y,1/2+z
-x,-x+y,1/2+z
loop_
_atom_site_type_symbol
_atom_site_label
_atom_site_fract_x
_atom_site_fract_y
_atom_site_fract_z
Si Si1 0.457587 0.372849 0.559496
Si Si2 0.077774 0.900733 0.032653
Si Si3 0.153584 0.154892 0.209597
Si Si4 0.182604 0.374997 0.000753
Si Si5 0.889752 0.240672 0.308735
Si Si6 0.592162 0.013168 0.742336
Si Si7 0.376205 0.924407 0.065719
O O1 0.434783 0.285546 0.509159
O O2 0.435136 0.356013 0.662719
O O3 0.400941 0.405766 0.509190
O O4 0.558668 0.445455 0.556458
O O5 0.007366 0.866445 0.108681
O O6 0.130871 0.850587 0.039813
O O7 0.004423 0.864857 0.956271
O O8 0.124739 0.062369 0.250000
O O9 0.255439 0.219571 0.220611
O O10 0.097461 0.194922 0.250000
O O11 0.143616 0.356751 0.905290
O O12 0.151028 0.431047 0.052087
O O13 0.807065 0.192936 0.250000
O O14 0.924562 0.339398 0.287358
O O15 0.495112 0.990223 0.750000
O O16 0.631317 0.044271 0.837772
#
# Coordination Sequence:
#
# PCOD8323281 Si02
#       7
#    12  12  12  12  12  12  12
#     4  10  21  41  65  93 127 164 209 257 324 395
#     4  12  24  39  59  85 120 171 215 262 318 368
#     4  11  24  40  58  80 120 167 218 265 310 367
#     4  12  23  41  64  94 129 163 217 271 323 391
#     4  11  23  40  60  93 124 161 211 272 319 373
#     4  10  21  41  67  91 124 163 210 253 322 394
#     4  10  22  40  66  93 124 169 207 262 325 385
#
# _framework density 19.601973999999998
#
# number of rings (size 3 to 8) (size 9 to 14) (size 15 to 20)
#    0.000    1.143    2.857    3.714    4.000    0.571 
#    0.857    0.000    0.000    0.286    0.000    0.000 
#    0.000    0.000    0.000    0.000    0.000    0.000 
#
# Total GULP energy -1040838.012546 kJ/mol
# GULP energy per Si atom -12390.928721 kJ/mol
# Density = 1.955736 g / cm^3
# Si number density = 19.601974 Si / 1000 Ang^3
#
#
#
# Elastic Constant Matrix: (Units=GPa)
#
#
# Indices 1 2 3 4 5 6 
#
# 1 97.2469 58.8975 28.7771 -0.0001 -4.9274 0.0000
# 2 58.8975 97.2469 28.7771 0.0001 4.9274 0.0000
# 3 28.7771 28.7771 95.5600 0.0000 0.0000 0.0000
# 4 -0.0001 0.0001 0.0000 29.1538 0.0000 4.9274
# 5 -4.9274 4.9274 0.0000 0.0000 29.1538 -0.0001
# 6 0.0000 0.0000 0.0000 4.9274 -0.0001 19.1747
#
#
#
# Elastic Compliance Matrix: (Units=1/GPa)
#
#
# Indices 1 2 3 4 5 6 
#
# 1 0.017232 -0.010028 -0.002169 0.000000 0.004607 0.000000
# 2 -0.010028 0.017232 -0.002169 0.000000 -0.004607 0.000000
# 3 -0.002169 -0.002169 0.011771 0.000000 0.000000 0.000000
# 4 0.000000 0.000000 0.000000 0.035858 0.000000 -0.009215
# 5 0.004607 -0.004607 0.000000 0.000000 0.035858 0.000000
# 6 0.000000 0.000000 0.000000 -0.009215 0.000000 0.054520
#
#
# Mechanical properties :
#
#
# Convention : Reuss Voigt Hill
#
# Bulk Modulus (GPa) = 57.13793 58.10635 57.62214
# Shear Modulus (GPa) = 24.14999 27.06994 25.60996
#
# Velocity S-wave (km/s) = 3.51382 3.72019 3.61847
# Velocity P-wave (km/s) = 6.75832 6.93978 6.84965
#
# Compressibility (1/GPa) = 0.01750151
#
# Stress axis : x y z
#
# Youngs Moduli (GPa) = 58.03157 58.03157 84.95295
#
# Poissons Ratio (x) = 0.58194 0.18430
# Poissons Ratio (y) = 0.58194 0.18430
# Poissons Ratio (z) = 0.12589 0.12589
#
# Static dielectric constant tensor:
#      x y z
#    x 3.564950 0.000000 0.000000 
#    y 0.000000 3.564950 0.000000 
#    z 0.000000 0.000000 3.614370 
# 
# 
# High freq. dielectric constant tensor:
#      x y z
#    x 1.755100 0.000000 0.000000 
#    y 0.000000 1.755100 0.000000 
#    z 0.000000 0.000000 1.784450 
# 
# From -- ./inp_files/2665.got.cif
#   From: 2010.03.12/outbox.cif.g09.slc.cpg/sg163_2_cif.got.tgz:2665.got - 2010.04.02 06:30:25.
