data_PCOD8323602
_publ_section_title
;
Structure prediction by ZEFSAII (Michael W. Deem and Ramdas Pophale) SiO2 
 PCOD8323602
Probable space group: P -3 M 1
;
_chemical_formula_sum "Si O2"
_cell_formula_units_Z 96
_cell_length_a 17.739426
_cell_length_b 17.739426
_cell_length_c 19.970205
_cell_angle_alpha 90.000000
_cell_angle_beta 90.000000
_cell_angle_gamma 120.000000
_cell_volume 5442.422846
_symmetry_space_group_name_H-M "P -3 M 1"
_symmetry_group_IT_number 164
_symmetry_cell_setting 'hexagonal'
loop_
_space_group_symop_operation_xyz
x,y,z
-y,x-y,z
-x+y,-x,z
x-y,-y,-z
-x,-x+y,-z
y,x,-z
-x,-y,-z
y,-x+y,-z
x-y,x,-z
-x+y,y,z
x,x-y,z
-y,-x,z
loop_
_atom_site_type_symbol
_atom_site_label
_atom_site_fract_x
_atom_site_fract_y
_atom_site_fract_z
Si Si1 0.493980 0.158144 0.887233
Si Si2 0.575950 0.975595 0.229788
Si Si3 0.171459 0.002568 0.799658
Si Si4 0.129510 0.433556 0.969016
Si Si5 0.825840 0.825675 0.577707
Si Si6 0.497642 0.162372 0.173649
Si Si7 0.751525 0.789719 0.933513
Si Si8 0.930750 0.241785 0.685795
O O1 0.595247 0.190494 0.874745
O O2 0.478984 0.239492 0.879400
O O3 0.434991 0.086446 0.832568
O O4 0.469855 0.113992 0.961380
O O5 0.484823 0.969646 0.248499
O O6 0.608785 0.946054 0.295533
O O7 0.647806 0.074072 0.209518
O O8 0.095515 0.904486 0.790817
O O9 0.224236 0.022189 0.869761
O O10 0.130671 0.065336 0.795311
O O11 0.240708 0.023428 0.742988
O O12 0.208316 0.416632 0.984147
O O13 0.150520 0.498517 0.906792
O O14 0.046271 0.341853 0.947414
O O15 0.804309 0.804309 0.500000
O O16 0.815870 0.907935 0.599678
O O17 0.758301 0.737794 0.617216
O O18 0.924812 0.849624 0.593887
O O19 0.594130 0.188260 0.198525
O O20 0.476634 0.238317 0.192806
O O21 0.738610 0.869305 0.914383
O O22 0.810438 0.810438 0.000000
O O23 0.827472 0.172529 0.680998
#
# Coordination Sequence:
#
# PCOD8323602 Si02
#       8
#    12  12  12  12  12  12  12  12
#     4  10  20  34  51  70  92 120 154 198 254 315
#     4  10  22  36  51  72  97 125 161 206 252 297
#     4  10  20  32  47  68  96 132 174 214 249 288
#     4   9  19  30  44  63  82 108 147 199 253 307
#     4   9  17  30  51  82 119 154 182 205 232 272
#     4  10  20  34  49  66  88 118 156 201 255 311
#     4  10  20  31  42  58  81 116 162 209 253 293
#     4  10  20  33  52  76 103 136 168 202 247 298
#
# _framework density 17.639202999999998
#
# number of rings (size 3 to 8) (size 9 to 14) (size 15 to 20)
#    0.000    2.250    0.000    2.750    3.500    2.500 
#    0.000    4.375    0.000    2.625    0.000    0.000 
#    0.000    0.000    0.000    0.250    0.000    0.000 
#
# Total GULP energy -1189893.836048 kJ/mol
# GULP energy per Si atom -12394.727459 kJ/mol
# Density = 1.759906 g / cm^3
# Si number density = 17.639203 Si / 1000 Ang^3
#
#
#
# Elastic Constant Matrix: (Units=GPa)
#
#
# Indices 1 2 3 4 5 6 
#
# 1 77.7434 45.1399 31.2598 0.2239 0.0000 0.0000
# 2 45.1399 77.7434 31.2598 -0.2239 0.0000 0.0000
# 3 31.2598 31.2598 75.4520 0.0000 0.0000 0.0000
# 4 0.2239 -0.2239 0.0000 22.2477 0.0000 0.0000
# 5 0.0000 0.0000 0.0000 0.0000 22.2477 0.2239
# 6 0.0000 0.0000 0.0000 0.0000 0.2239 16.3017
#
#
#
# Elastic Compliance Matrix: (Units=1/GPa)
#
#
# Indices 1 2 3 4 5 6 
#
# 1 0.020494 -0.010182 -0.004272 -0.000309 0.000000 0.000000
# 2 -0.010182 0.020494 -0.004272 0.000309 0.000000 0.000000
# 3 -0.004272 -0.004272 0.016793 0.000000 0.000000 0.000000
# 4 -0.000309 0.000309 0.000000 0.044955 0.000000 0.000000
# 5 0.000000 0.000000 0.000000 0.000000 0.044955 -0.000617
# 6 0.000000 0.000000 0.000000 0.000000 -0.000617 0.061352
#
#
# Mechanical properties :
#
#
# Convention : Reuss Voigt Hill
#
# Bulk Modulus (GPa) = 49.19349 49.58418 49.38884
# Shear Modulus (GPa) = 19.74183 20.37807 20.05995
#
# Velocity S-wave (km/s) = 3.34908 3.40262 3.37595
# Velocity P-wave (km/s) = 6.55014 6.60366 6.57695
#
# Compressibility (1/GPa) = 0.02032789
#
# Stress axis : x y z
#
# Youngs Moduli (GPa) = 48.79588 48.79588 59.54795
#
# Poissons Ratio (x) = 0.49685 0.25439
# Poissons Ratio (y) = 0.49685 0.25439
# Poissons Ratio (z) = 0.20845 0.20845
#
# Static dielectric constant tensor:
#      x y z
#    x 3.288310 0.000000 0.000000 
#    y 0.000000 3.288310 0.000000 
#    z 0.000000 0.000000 3.244510 
# 
# 
# High freq. dielectric constant tensor:
#      x y z
#    x 1.677350 0.000000 0.000000 
#    y 0.000000 1.677350 0.000000 
#    z 0.000000 0.000000 1.646910 
# 
# From -- ./inp_files/4759.got.cif
#   From: 2010.03.12/outbox.cif.g09.slc.cpg/sg164_3_cif.got.tgz:4759.got - 2010.04.02 06:32:59.
