data_PCOD8323910
_publ_section_title
;
Structure prediction by ZEFSAII (Michael W. Deem and Ramdas Pophale) SiO2 
 PCOD8323910
Probable space group: P -3 C 1
;
_chemical_formula_sum "Si O2"
_cell_formula_units_Z 42
_cell_length_a 14.849389
_cell_length_b 14.849389
_cell_length_c 10.521148
_cell_angle_alpha 90.000000
_cell_angle_beta 90.000000
_cell_angle_gamma 120.000000
_cell_volume 2009.143377
_symmetry_space_group_name_H-M "P -3 C 1"
_symmetry_group_IT_number 165
_symmetry_cell_setting 'hexagonal'
loop_
_space_group_symop_operation_xyz
x,y,z
-y,x-y,z
-x+y,-x,z
x-y,-y,1/2-z
-x,-x+y,1/2-z
y,x,1/2-z
-x,-y,-z
y,-x+y,-z
x-y,x,-z
-x+y,y,1/2+z
x,x-y,1/2+z
-y,-x,1/2+z
loop_
_atom_site_type_symbol
_atom_site_label
_atom_site_fract_x
_atom_site_fract_y
_atom_site_fract_z
Si Si1 0.070638 0.832246 0.500000
Si Si2 0.562903 0.716083 0.862232
Si Si3 0.283917 0.846820 0.137768
Si Si4 0.500000 0.000000 0.750000
O O1 0.092082 0.781074 0.374821
O O2 0.092083 0.781075 0.625179
O O3 0.954661 0.809437 0.500000
O O4 0.516159 0.724520 0.000000
O O5 0.525999 0.596593 0.160513
O O6 0.523690 0.761845 0.750000
O O7 0.525999 0.596592 0.839488
#
# Coordination Sequence:
#
# PCOD8323910 Si02
#       4
#    12  12  12   6
#     4  10  21  39  66 102 140 178 220 271 333 414
#     4  10  24  42  69 102 138 178 233 283 346 422
#     4  10  24  42  69 102 138 178 233 283 346 422
#     4  12  22  44  76  98 132 196 228 298 362 402
#
# _framework density 20.904433000000001
#
# number of rings (size 3 to 8) (size 9 to 14) (size 15 to 20)
#    1.714    0.000    0.000    4.571    0.000    2.286 
#    1.714    0.000    0.000    3.429    0.000    0.000 
#    0.000    0.000    0.000    0.000    0.000    0.000 
#
# Total GULP energy -520332.856635 kJ/mol
# GULP energy per Si atom -12388.877539 kJ/mol
# Density = 2.085685 g / cm^3
# Si number density = 20.904433 Si / 1000 Ang^3
#
#
#
# Elastic Constant Matrix: (Units=GPa)
#
#
# Indices 1 2 3 4 5 6 
#
# 1 66.9329 73.9271 60.4714 -0.0001 0.0000 0.0000
# 2 73.9271 66.9329 60.4714 0.0001 0.0000 0.0000
# 3 60.4714 60.4714 179.9689 0.0000 0.0000 0.0000
# 4 -0.0001 0.0001 0.0000 35.3541 0.0000 0.0000
# 5 0.0000 0.0000 0.0000 0.0000 35.3541 -0.0001
# 6 0.0000 0.0000 0.0000 0.0000 -0.0001 -3.4971
#
#
#
# Elastic Compliance Matrix: (Units=1/GPa)
#
#
# Indices 1 2 3 4 5 6 
#
# 1 -0.066498 0.076476 -0.003353 0.000000 0.000000 0.000000
# 2 0.076476 -0.066498 -0.003353 0.000000 0.000000 0.000000
# 3 -0.003353 -0.003353 0.007810 0.000000 0.000000 0.000000
# 4 0.000000 0.000000 0.000000 0.028285 0.000000 0.000000
# 5 0.000000 0.000000 0.000000 0.000000 0.028285 0.000000
# 6 0.000000 0.000000 0.000000 0.000000 0.000000 -0.285948
#
#
# Mechanical properties :
#
#
# Convention : Reuss Voigt Hill
#
# Bulk Modulus (GPa) = 69.66393 78.17496 73.91944
# Shear Modulus (GPa) = -10.21824 21.37319 5.57748
#
# Velocity S-wave (km/s) = -2.21330 3.20101 1.63520
# Velocity P-wave (km/s) = 5.18322 7.15119 6.24521
#
# Compressibility (1/GPa) = 0.01435463
#
# Stress axis : x y z
#
# Youngs Moduli (GPa) = -15.03800 -15.03800 128.04795
#
# Poissons Ratio (x) = 1.15005 0.42930
# Poissons Ratio (y) = 1.15005 0.42930
# Poissons Ratio (z) = -0.05042 -0.05042
#
# Static dielectric constant tensor:
#      x y z
#    x 3.614910 0.000000 0.000000 
#    y 0.000000 3.614910 0.000000 
#    z 0.000000 0.000000 3.870430 
# 
# 
# High freq. dielectric constant tensor:
#      x y z
#    x 1.809580 0.000000 0.000000 
#    y 0.000000 1.809580 0.000000 
#    z 0.000000 0.000000 1.820170 
# 
# From -- ./inp_files/465.got.cif
#   From: 2010.03.12/outbox.cif.g09.slc.cpg/sg165_1_cif.got.tgz:465.got - 2010.04.02 06:36:38.
