data_PCOD8323559
_publ_section_title
;
Structure prediction by ZEFSAII (Michael W. Deem and Ramdas Pophale) SiO2 
 PCOD8323559
Probable space group: P -3 M 1
;
_chemical_formula_sum "Si O2"
_cell_formula_units_Z 72
_cell_length_a 17.129330
_cell_length_b 17.129330
_cell_length_c 16.767555
_cell_angle_alpha 90.000000
_cell_angle_beta 90.000000
_cell_angle_gamma 120.000000
_cell_volume 4260.701643
_symmetry_space_group_name_H-M "P -3 M 1"
_symmetry_group_IT_number 164
_symmetry_cell_setting 'hexagonal'
loop_
_space_group_symop_operation_xyz
x,y,z
-y,x-y,z
-x+y,-x,z
x-y,-y,-z
-x,-x+y,-z
y,x,-z
-x,-y,-z
y,-x+y,-z
x-y,x,-z
-x+y,y,z
x,x-y,z
-y,-x,z
loop_
_atom_site_type_symbol
_atom_site_label
_atom_site_fract_x
_atom_site_fract_y
_atom_site_fract_z
Si Si1 0.518501 0.666724 0.517613
Si Si2 0.000043 0.829168 0.906994
Si Si3 0.847373 0.515415 0.938865
Si Si4 0.277954 0.376432 0.902983
Si Si5 0.577352 0.603901 0.202779
Si Si6 0.416946 0.397986 0.621533
O O1 0.517937 0.758969 0.529984
O O2 0.416124 0.583876 0.519885
O O3 0.566903 0.669611 0.433786
O O4 0.579719 0.657742 0.586564
O O5 0.078152 0.921849 0.867257
O O6 0.021478 0.749362 0.893430
O O7 0.901878 0.803755 0.871060
O O8 0.000000 0.846121 0.000000
O O9 0.742614 0.485227 0.936944
O O10 0.856745 0.428373 0.955504
O O11 0.892058 0.562997 0.855200
O O12 0.900593 0.587894 0.008150
O O13 0.196408 0.392816 0.880664
O O14 0.356900 0.426926 0.838614
O O15 0.483603 0.516398 0.217498
O O16 0.613870 0.646725 0.290326
O O17 0.508990 0.491011 0.623925
#
# Coordination Sequence:
#
# PCOD8323559 Si02
#       6
#    12  12  12  12  12  12
#     4   9  16  29  49  71  94 120 150 181 219 271
#     4   9  16  26  40  58  80 105 134 171 217 266
#     4  10  20  33  48  65  87 118 157 199 238 274
#     4  10  20  31  45  66  89 116 154 196 233 271
#     4  10  19  32  48  64  88 122 154 185 228 278
#     4   8  17  31  45  66  95 121 145 181 228 271
#
# _framework density 16.898624999999999
#
# number of rings (size 3 to 8) (size 9 to 14) (size 15 to 20)
#    0.000    2.667    0.000    3.500    0.000    5.333 
#    0.000    0.000    0.000    2.333    0.000    0.000 
#    0.000    0.000    0.000   16.000    0.000    0.000 
#
# Total GULP energy -892204.754061 kJ/mol
# GULP energy per Si atom -12391.732695 kJ/mol
# Density = 1.686016 g / cm^3
# Si number density = 16.898625 Si / 1000 Ang^3
#
#
#
# Elastic Constant Matrix: (Units=GPa)
#
#
# Indices 1 2 3 4 5 6 
#
# 1 51.8070 7.5947 9.9793 2.0779 0.0000 0.0000
# 2 7.5947 51.8070 9.9793 -2.0779 0.0000 0.0000
# 3 9.9793 9.9793 85.0820 0.0000 0.0000 0.0000
# 4 2.0779 -2.0779 0.0000 12.4764 0.0000 0.0000
# 5 0.0000 0.0000 0.0000 0.0000 12.4764 2.0779
# 6 0.0000 0.0000 0.0000 0.0000 2.0779 22.1062
#
#
#
# Elastic Compliance Matrix: (Units=1/GPa)
#
#
# Indices 1 2 3 4 5 6 
#
# 1 0.020252 -0.002726 -0.002056 -0.003827 0.000000 0.000000
# 2 -0.002726 0.020252 -0.002056 0.003827 0.000000 0.000000
# 3 -0.002056 -0.002056 0.012236 0.000000 0.000000 0.000000
# 4 -0.003827 0.003827 0.000000 0.081426 0.000000 0.000000
# 5 0.000000 0.000000 0.000000 0.000000 0.081426 -0.007654
# 6 0.000000 0.000000 0.000000 0.000000 -0.007654 0.045956
#
#
# Mechanical properties :
#
#
# Convention : Reuss Voigt Hill
#
# Bulk Modulus (GPa) = 25.59917 27.08919 26.34418
# Shear Modulus (GPa) = 17.34652 20.15464 18.75058
#
# Velocity S-wave (km/s) = 3.20739 3.45727 3.33467
# Velocity P-wave (km/s) = 5.37569 5.65704 5.51816
#
# Compressibility (1/GPa) = 0.03906377
#
# Stress axis : x y z
#
# Youngs Moduli (GPa) = 49.37901 49.37901 81.72902
#
# Poissons Ratio (x) = 0.13462 0.16800
# Poissons Ratio (y) = 0.13462 0.16800
# Poissons Ratio (z) = 0.10150 0.10150
#
# Static dielectric constant tensor:
#      x y z
#    x 3.151760 0.000000 0.000000 
#    y 0.000000 3.151760 0.000000 
#    z 0.000000 0.000000 3.428210 
# 
# 
# High freq. dielectric constant tensor:
#      x y z
#    x 1.645260 0.000000 0.000000 
#    y 0.000000 1.645260 0.000000 
#    z 0.000000 0.000000 1.627620 
# 
# From -- ./inp_files/4088.got.cif
#   From: 2010.03.12/outbox.cif.g09.slc.cpg/sg164_3_cif.got.tgz:4088.got - 2010.04.02 06:32:59.
