data_PCOD8323259
_publ_section_title
;
Structure prediction by ZEFSAII (Michael W. Deem and Ramdas Pophale) SiO2 
 PCOD8323259
Probable space group: P -3 1 C
;
_chemical_formula_sum "Si O2"
_cell_formula_units_Z 52
_cell_length_a 13.557451
_cell_length_b 13.557451
_cell_length_c 16.887144
_cell_angle_alpha 90.000000
_cell_angle_beta 90.000000
_cell_angle_gamma 120.000000
_cell_volume 2688.084554
_symmetry_space_group_name_H-M "P -3 1 C"
_symmetry_group_IT_number 163
_symmetry_cell_setting 'hexagonal'
loop_
_space_group_symop_operation_xyz
x,y,z
-y,x-y,z
-x+y,-x,z
-y,-x,1/2-z
-x+y,y,1/2-z
x,x-y,1/2-z
-x,-y,-z
y,-x+y,-z
x-y,x,-z
y,x,1/2+z
x-y,-y,1/2+z
-x,-x+y,1/2+z
loop_
_atom_site_type_symbol
_atom_site_label
_atom_site_fract_x
_atom_site_fract_y
_atom_site_fract_z
Si Si1 0.666668 0.333334 0.344018
Si Si2 0.156854 0.897843 0.016502
Si Si3 0.131368 0.650319 0.563183
Si Si4 0.542634 0.433390 0.601710
Si Si5 0.777366 0.187138 0.838781
O O1 0.666668 0.333334 0.250000
O O2 0.766789 0.312907 0.375275
O O3 0.155887 0.856901 0.106198
O O4 0.236099 0.867964 0.963343
O O5 0.031047 0.830813 0.981067
O O6 0.145228 0.583881 0.488610
O O7 0.014318 0.568171 0.607714
O O8 0.510919 0.311562 0.636493
O O9 0.641128 0.535057 0.653205
O O10 0.816238 0.183763 0.750000
#
# Coordination Sequence:
#
# PCOD8323259 Si02
#       5
#     4  12  12  12  12
#     4  12  27  39  57  93 136 173 202 249 318 381
#     4  11  23  44  68  90 119 167 222 264 313 380
#     4  10  22  41  63  90 121 171 216 248 307 391
#     4  10  20  38  65  88 128 165 207 257 308 383
#     4  11  22  36  62 101 128 161 204 264 322 368
#
# _framework density 19.344629999999999
#
# number of rings (size 3 to 8) (size 9 to 14) (size 15 to 20)
#    0.000    1.385    2.308    4.154    6.462    1.846 
#    0.000    1.154    0.000    0.000    0.000    0.000 
#    0.000    0.000    0.000    0.000    0.000    0.000 
#
# Total GULP energy -645124.474256 kJ/mol
# GULP energy per Si atom -12406.239890 kJ/mol
# Density = 1.930060 g / cm^3
# Si number density = 19.344630 Si / 1000 Ang^3
#
#
#
# Elastic Constant Matrix: (Units=GPa)
#
#
# Indices 1 2 3 4 5 6 
#
# 1 101.3607 31.7897 49.5302 0.0001 5.6840 -0.0001
# 2 31.7897 101.3605 49.5303 0.0001 -5.6840 -0.0003
# 3 49.5302 49.5303 122.3601 0.0002 0.0001 0.0000
# 4 0.0001 0.0001 0.0002 14.7739 0.0000 -5.6839
# 5 5.6840 -5.6840 0.0001 0.0000 14.7739 0.0001
# 6 -0.0001 -0.0003 0.0000 -5.6839 0.0001 34.7853
#
#
#
# Elastic Compliance Matrix: (Units=1/GPa)
#
#
# Indices 1 2 3 4 5 6 
#
# 1 0.013042 -0.002296 -0.004350 0.000000 -0.005901 0.000000
# 2 -0.002296 0.013042 -0.004350 0.000000 0.005901 0.000000
# 3 -0.004350 -0.004350 0.011694 0.000000 0.000000 0.000000
# 4 0.000000 0.000000 0.000000 0.072227 0.000000 0.011802
# 5 -0.005901 0.005901 0.000000 0.000000 0.072227 0.000000
# 6 0.000000 0.000000 0.000000 0.011802 0.000000 0.030676
#
#
# Mechanical properties :
#
#
# Convention : Reuss Voigt Hill
#
# Bulk Modulus (GPa) = 63.34256 65.19798 64.27027
# Shear Modulus (GPa) = 20.81903 25.81536 23.31720
#
# Velocity S-wave (km/s) = 3.28413 3.65704 3.47559
# Velocity P-wave (km/s) = 6.86994 7.18391 7.02868
#
# Compressibility (1/GPa) = 0.01578717
#
# Stress axis : x y z
#
# Youngs Moduli (GPa) = 76.67314 76.67284 85.51087
#
# Poissons Ratio (x) = 0.17602 0.37199
# Poissons Ratio (y) = 0.17602 0.37199
# Poissons Ratio (z) = 0.33354 0.33354
#
# Static dielectric constant tensor:
#      x y z
#    x 3.552840 0.000010 0.000000 
#    y 0.000010 3.552840 0.000000 
#    z 0.000000 0.000000 3.421410 
# 
# 
# High freq. dielectric constant tensor:
#      x y z
#    x 1.755980 0.000000 0.000000 
#    y 0.000000 1.755980 0.000000 
#    z 0.000000 0.000000 1.735710 
# 
# From -- ./inp_files/2308.got.cif
#   From: 2010.03.12/outbox.cif.g09.slc.cpg/sg163_2_cif.got.tgz:2308.got - 2010.04.02 06:30:25.
