data_PCOD8323842
_publ_section_title
;
Structure prediction by ZEFSAII (Michael W. Deem and Ramdas Pophale) SiO2 
 PCOD8323842
Probable space group: P -3 M 1
;
_chemical_formula_sum "Si O2"
_cell_formula_units_Z 84
_cell_length_a 18.408170
_cell_length_b 18.408170
_cell_length_c 19.013532
_cell_angle_alpha 90.000000
_cell_angle_beta 90.000000
_cell_angle_gamma 120.000000
_cell_volume 5579.749018
_symmetry_space_group_name_H-M "P -3 M 1"
_symmetry_group_IT_number 164
_symmetry_cell_setting 'hexagonal'
loop_
_space_group_symop_operation_xyz
x,y,z
-y,x-y,z
-x+y,-x,z
x-y,-y,-z
-x,-x+y,-z
y,x,-z
-x,-y,-z
y,-x+y,-z
x-y,x,-z
-x+y,y,z
x,x-y,z
-y,-x,z
loop_
_atom_site_type_symbol
_atom_site_label
_atom_site_fract_x
_atom_site_fract_y
_atom_site_fract_z
Si Si1 0.666471 0.499192 0.822744
Si Si2 0.333529 0.832720 0.822745
Si Si3 0.497961 0.333106 0.340086
Si Si4 0.652012 0.744855 0.919704
Si Si5 0.907157 0.652011 0.919705
Si Si6 1.000000 0.586269 0.579621
Si Si7 0.333106 0.835146 0.340086
O O1 0.737001 0.474001 0.836980
O O2 0.578103 0.421898 0.845298
O O3 0.681129 0.576830 0.870218
O O4 0.666972 0.523181 0.741674
O O5 0.421897 0.843794 0.845301
O O6 0.263000 0.737000 0.836980
O O7 0.333031 0.856210 0.741674
O O8 0.318871 0.895701 0.870217
O O9 0.492567 0.246284 0.362957
O O10 0.591715 0.408286 0.356869
O O11 0.427544 0.343179 0.382414
O O12 0.682022 0.841011 0.899768
O O13 0.730719 0.730719 0.907883
O O14 0.620004 0.725473 1.000000
O O15 0.841011 0.682022 0.899769
O O16 0.999999 0.500000 0.582807
O O17 0.915635 0.572457 0.617586
O O18 0.000000 0.615403 0.500000
O O19 0.408287 0.816573 0.356866
O O20 0.246285 0.753716 0.362957
#
# Coordination Sequence:
#
# PCOD8323842 Si02
#       7
#    12  12  12  12  12  12  12
#     4   9  17  28  43  62  85 113 146 180 211 244
#     4   9  17  28  43  62  85 113 146 180 211 244
#     4   9  17  29  45  63  84 113 147 180 212 251
#     4   9  18  31  45  62  85 113 144 177 214 255
#     4   9  18  31  45  62  85 113 144 177 214 255
#     4   9  18  30  42  60  85 109 136 174 219 258
#     4   9  17  29  45  63  84 113 147 180 212 251
#
# _framework density 15.054441000000001
#
# number of rings (size 3 to 8) (size 9 to 14) (size 15 to 20)
#    0.000    3.000    0.000    0.571    2.000    4.000 
#    0.000    1.429    0.000    3.714    0.000    2.000 
#    0.000    0.000    0.000    0.429    0.000    1.857 
#
# Total GULP energy -1041467.245293 kJ/mol
# GULP energy per Si atom -12398.419587 kJ/mol
# Density = 1.502018 g / cm^3
# Si number density = 15.054441 Si / 1000 Ang^3
#
#
#
# Elastic Constant Matrix: (Units=GPa)
#
#
# Indices 1 2 3 4 5 6 
#
# 1 92.9341 60.2562 46.8616 -0.0001 0.0000 0.0000
# 2 60.2562 92.9341 46.8616 0.0001 0.0000 0.0000
# 3 46.8616 46.8616 64.0230 0.0000 0.0000 0.0000
# 4 -0.0001 0.0001 0.0000 20.9823 0.0000 0.0000
# 5 0.0000 0.0000 0.0000 0.0000 20.9823 -0.0001
# 6 0.0000 0.0000 0.0000 0.0000 -0.0001 16.3389
#
#
#
# Elastic Compliance Matrix: (Units=1/GPa)
#
#
# Indices 1 2 3 4 5 6 
#
# 1 0.021212 -0.009390 -0.008653 0.000000 0.000000 0.000000
# 2 -0.009390 0.021212 -0.008653 0.000000 0.000000 0.000000
# 3 -0.008653 -0.008653 0.028286 0.000000 0.000000 0.000000
# 4 0.000000 0.000000 0.000000 0.047659 0.000000 0.000000
# 5 0.000000 0.000000 0.000000 0.000000 0.047659 0.000000
# 6 0.000000 0.000000 0.000000 0.000000 0.000000 0.061204
#
#
# Mechanical properties :
#
#
# Convention : Reuss Voigt Hill
#
# Bulk Modulus (GPa) = 57.74272 61.98334 59.86303
# Shear Modulus (GPa) = 17.45833 18.05484 17.75659
#
# Velocity S-wave (km/s) = 3.40910 3.46685 3.43810
# Velocity P-wave (km/s) = 7.34406 7.56886 7.45730
#
# Compressibility (1/GPa) = 0.01731820
#
# Stress axis : x y z
#
# Youngs Moduli (GPa) = 47.14365 47.14365 35.35266
#
# Poissons Ratio (x) = 0.44268 0.30590
# Poissons Ratio (y) = 0.44268 0.30590
# Poissons Ratio (z) = 0.40793 0.40793
#
# Static dielectric constant tensor:
#      x y z
#    x 2.835320 0.000000 0.000000 
#    y 0.000000 2.835320 0.000000 
#    z 0.000000 0.000000 2.965450 
# 
# 
# High freq. dielectric constant tensor:
#      x y z
#    x 1.559780 0.000000 0.000000 
#    y 0.000000 1.559780 0.000000 
#    z 0.000000 0.000000 1.578180 
# 
# From -- ./inp_files/4657.got.cif
#   From: 2010.03.12/outbox.cif.g09.slc.cpg/sg164_3_cif.got.tgz:4657.got - 2010.04.02 06:32:59.
