data_PCOD8323154
_publ_section_title
;
Structure prediction by ZEFSAII (Michael W. Deem and Ramdas Pophale) SiO2 
 PCOD8323154
Probable space group: P -3 1 M 
;
_chemical_formula_sum "Si O2"
_cell_formula_units_Z 84
_cell_length_a 18.321601
_cell_length_b 18.321601
_cell_length_c 14.179765
_cell_angle_alpha 90.000000
_cell_angle_beta 90.000000
_cell_angle_gamma 120.000000
_cell_volume 4122.175779
_symmetry_space_group_name_H-M "P -3 1 M "
_symmetry_group_IT_number 162
_symmetry_cell_setting 'hexagonal'
loop_
_space_group_symop_operation_xyz
x,y,z
-y,x-y,z
-x+y,-x,z
-y,-x,-z
-x+y,y,-z
x,x-y,-z
-x,-y,-z
y,-x+y,-z
x-y,x,-z
y,x,z
x-y,-y,z
-x,-x+y,z
loop_
_atom_site_type_symbol
_atom_site_label
_atom_site_fract_x
_atom_site_fract_y
_atom_site_fract_z
Si Si1 0.680568 0.780902 0.574948
Si Si2 0.410619 0.511394 0.217557
Si Si3 0.098605 0.400954 0.937991
Si Si4 0.768194 0.860822 0.898992
Si Si5 0.436333 0.336948 0.857402
Si Si6 0.702152 0.795222 0.264761
Si Si7 0.900554 0.512193 0.427372
O O1 0.711804 0.855902 0.500000
O O2 0.743129 0.743129 0.578326
O O3 0.688552 0.827814 0.673415
O O4 0.585659 0.707138 0.547105
O O5 0.457330 0.457330 0.221554
O O6 0.331158 0.468800 0.146550
O O7 0.469328 0.604733 0.178359
O O8 0.382601 0.519620 0.323063
O O9 0.116476 0.327433 0.912912
O O10 0.000000 0.368872 0.944652
O O11 0.140345 0.438791 0.040363
O O12 0.825268 0.825268 0.857211
O O13 0.766539 0.923548 0.821804
O O14 0.806087 0.903044 0.000000
O O15 0.389898 0.389898 0.870924
O O16 0.389460 0.268001 0.776639
O O17 0.743341 0.743341 0.315994
O O18 0.863287 0.431644 0.500000
O O19 0.000000 0.551865 0.426082
#
# Coordination Sequence:
#
# PCOD8323154 Si02
#       7
#    12  12  12  12  12  12  12
#     4  11  24  42  65  92 120 157 207 267 331 390
#     4   9  16  27  48  76 112 146 171 217 284 354
#     4   9  16  28  46  75 110 145 184 229 290 360
#     4  11  20  33  53  76 111 155 204 265 328 381
#     4   9  17  28  47  79 114 148 185 232 288 354
#     4  11  22  37  57  84 118 159 211 267 327 382
#     4   9  19  35  57  87 116 143 181 233 298 372
#
# _framework density 20.377587999999999
#
# number of rings (size 3 to 8) (size 9 to 14) (size 15 to 20)
#    0.000    2.143    1.429    2.571    2.000    4.000 
#    0.000    0.000    0.000    8.857    0.000    0.000 
#    1.429    0.286    0.000    0.000    0.000    0.000 
#
# Total GULP energy -1040859.268264 kJ/mol
# GULP energy per Si atom -12391.181765 kJ/mol
# Density = 2.033121 g / cm^3
# Si number density = 20.377588 Si / 1000 Ang^3
#
#
#
# Elastic Constant Matrix: (Units=GPa)
#
#
# Indices 1 2 3 4 5 6 
#
# 1 69.7289 38.0095 36.7508 0.0001 -8.7975 0.0000
# 2 38.0095 69.7289 36.7508 -0.0001 8.7975 0.0000
# 3 36.7508 36.7508 113.1590 0.0000 0.0000 0.0000
# 4 0.0001 -0.0001 0.0000 24.1474 0.0000 8.7975
# 5 -8.7975 8.7975 0.0000 0.0000 24.1474 0.0001
# 6 0.0000 0.0000 0.0000 8.7975 0.0001 15.8597
#
#
#
# Elastic Compliance Matrix: (Units=1/GPa)
#
#
# Indices 1 2 3 4 5 6 
#
# 1 0.025718 -0.013794 -0.003872 0.000000 0.014395 0.000000
# 2 -0.013794 0.025718 -0.003872 0.000000 -0.014395 0.000000
# 3 -0.003872 -0.003872 0.011352 0.000000 0.000000 0.000000
# 4 0.000000 0.000000 0.000000 0.051901 0.000000 -0.028790
# 5 0.014395 -0.014395 0.000000 0.000000 0.051901 0.000000
# 6 0.000000 0.000000 0.000000 -0.028790 0.000000 0.079023
#
#
# Mechanical properties :
#
#
# Convention : Reuss Voigt Hill
#
# Bulk Modulus (GPa) = 50.73599 52.84878 51.79239
# Shear Modulus (GPa) = 16.93421 22.23797 19.58609
#
# Velocity S-wave (km/s) = 2.88587 3.30706 3.10362
# Velocity P-wave (km/s) = 6.00469 6.36971 6.18989
#
# Compressibility (1/GPa) = 0.01970987
#
# Stress axis : x y z
#
# Youngs Moduli (GPa) = 38.88398 38.88398 88.08686
#
# Poissons Ratio (x) = 0.53636 0.34111
# Poissons Ratio (y) = 0.53636 0.34111
# Poissons Ratio (z) = 0.15058 0.15058
#
# Static dielectric constant tensor:
#      x y z
#    x 3.521960 0.000000 0.000000 
#    y 0.000000 3.521960 0.000000 
#    z 0.000000 0.000000 3.982550 
# 
# 
# High freq. dielectric constant tensor:
#      x y z
#    x 1.770850 0.000000 0.000000 
#    y 0.000000 1.770850 0.000000 
#    z 0.000000 0.000000 1.805310 
# 
# From -- ./inp_files/3168.got.cif
#   From: 2010.03.12/outbox.cif.g09.slc.cpg/sg162_2_cif.got.tgz:3168.got - 2010.04.02 06:27:41.
