data_PCOD8323208
_publ_section_title
;
Structure prediction by ZEFSAII (Michael W. Deem and Ramdas Pophale) SiO2 
 PCOD8323208
Probable space group: P -3 1 C
;
_chemical_formula_sum "Si O2"
_cell_formula_units_Z 78
_cell_length_a 19.563388
_cell_length_b 19.563388
_cell_length_c 16.828569
_cell_angle_alpha 90.000000
_cell_angle_beta 90.000000
_cell_angle_gamma 120.000000
_cell_volume 5577.838764
_symmetry_space_group_name_H-M "P -3 1 C"
_symmetry_group_IT_number 163
_symmetry_cell_setting 'hexagonal'
loop_
_space_group_symop_operation_xyz
x,y,z
-y,x-y,z
-x+y,-x,z
-y,-x,1/2-z
-x+y,y,1/2-z
x,x-y,1/2-z
-x,-y,-z
y,-x+y,-z
x-y,x,-z
y,x,1/2+z
x-y,-y,1/2+z
-x,-x+y,1/2+z
loop_
_atom_site_type_symbol
_atom_site_label
_atom_site_fract_x
_atom_site_fract_y
_atom_site_fract_z
Si Si1 0.515095 0.180374 0.454680
Si Si2 0.394355 0.955988 0.843107
Si Si3 0.826991 0.328151 0.052741
Si Si4 0.486351 0.858149 0.364906
Si Si5 0.479896 0.239948 0.750000
Si Si6 0.405871 0.966021 0.664734
Si Si7 0.459951 0.333942 0.623262
O O1 0.446178 0.110415 0.403681
O O2 0.598080 0.186222 0.436890
O O3 0.511808 0.255403 0.421313
O O4 0.500919 0.167599 0.548433
O O5 0.367639 0.937204 0.751556
O O6 0.479621 0.965215 0.850961
O O7 0.394830 0.034458 0.871643
O O8 0.902515 0.340513 0.104438
O O9 0.842430 0.308193 0.964815
O O10 0.470798 0.789030 0.302906
O O11 0.408411 0.864106 0.353575
O O12 0.567277 0.941450 0.347321
O O13 0.431822 0.260957 0.685107
#
# Coordination Sequence:
#
# PCOD8323208 Si02
#       7
#    12  12  12  12   6  12  12
#     4  10  19  30  42  60  82 107 135 176 216 244
#     4   9  17  30  46  57  74 105 141 169 199 246
#     4  10  19  30  42  60  82 107 135 176 216 244
#     4  10  19  31  42  60  83 107 131 164 212 262
#     4  12  18  28  44  64  80  96 126 170 206 256
#     4   9  17  30  46  57  74 105 141 169 199 246
#     4  10  19  31  42  60  83 107 131 164 212 262
#
# _framework density 13.983911000000001
#
# number of rings (size 3 to 8) (size 9 to 14) (size 15 to 20)
#    0.000    2.154    3.077    1.692    0.000    4.308 
#    3.692    0.000    0.000    1.846    0.000    0.000 
#    0.000    0.000    0.000    0.000    0.000    0.000 
#
# Total GULP energy -966298.468554 kJ/mol
# GULP energy per Si atom -12388.441905 kJ/mol
# Density = 1.395208 g / cm^3
# Si number density = 13.983911 Si / 1000 Ang^3
#
#
#
# Elastic Constant Matrix: (Units=GPa)
#
#
# Indices 1 2 3 4 5 6 
#
# 1 59.4487 28.2055 34.6984 0.0000 -1.5761 0.0000
# 2 28.2055 59.4487 34.6984 0.0000 1.5761 0.0000
# 3 34.6984 34.6984 67.3541 0.0000 0.0000 0.0000
# 4 0.0000 0.0000 0.0000 22.6714 0.0000 1.5761
# 5 -1.5761 1.5761 0.0000 0.0000 22.6714 0.0000
# 6 0.0000 0.0000 0.0000 1.5761 0.0000 15.6216
#
#
#
# Elastic Compliance Matrix: (Units=1/GPa)
#
#
# Indices 1 2 3 4 5 6 
#
# 1 0.025750 -0.006483 -0.009925 0.000000 0.002241 0.000000
# 2 -0.006483 0.025750 -0.009925 0.000000 -0.002241 0.000000
# 3 -0.009925 -0.009925 0.025073 0.000000 0.000000 0.000000
# 4 0.000000 0.000000 0.000000 0.044420 0.000000 -0.004482
# 5 0.002241 -0.002241 0.000000 0.000000 0.044420 0.000000
# 6 0.000000 0.000000 0.000000 -0.004482 0.000000 0.064466
#
#
# Mechanical properties :
#
#
# Convention : Reuss Voigt Hill
#
# Bulk Modulus (GPa) = 41.83274 42.38402 42.10838
# Shear Modulus (GPa) = 17.21080 18.10285 17.65682
#
# Velocity S-wave (km/s) = 3.51202 3.60189 3.55724
# Velocity P-wave (km/s) = 6.81363 6.90457 6.85925
#
# Compressibility (1/GPa) = 0.02390472
#
# Stress axis : x y z
#
# Youngs Moduli (GPa) = 38.83528 38.83528 39.88290
#
# Poissons Ratio (x) = 0.25178 0.39586
# Poissons Ratio (y) = 0.25178 0.39586
# Poissons Ratio (z) = 0.38546 0.38546
#
# Static dielectric constant tensor:
#      x y z
#    x 2.643260 0.000000 0.000000 
#    y 0.000000 2.643260 0.000000 
#    z 0.000000 0.000000 2.982490 
# 
# 
# High freq. dielectric constant tensor:
#      x y z
#    x 1.497980 0.000000 0.000000 
#    y 0.000000 1.497980 0.000000 
#    z 0.000000 0.000000 1.555970 
# 
# From -- ./inp_files/2714.got.cif
#   From: 2010.03.12/outbox.cif.g09.slc.cpg/sg163_2_cif.got.tgz:2714.got - 2010.04.02 06:30:25.
