data_PCOD8323473
_publ_section_title
;
Structure prediction by ZEFSAII (Michael W. Deem and Ramdas Pophale) SiO2 
 PCOD8323473
Probable space group: P -3 M 1
;
_chemical_formula_sum "Si O2"
_cell_formula_units_Z 84
_cell_length_a 32.651385
_cell_length_b 32.651385
_cell_length_c 5.125963
_cell_angle_alpha 90.000000
_cell_angle_beta 90.000000
_cell_angle_gamma 120.000000
_cell_volume 4732.703688
_symmetry_space_group_name_H-M "P -3 M 1"
_symmetry_group_IT_number 164
_symmetry_cell_setting 'hexagonal'
loop_
_space_group_symop_operation_xyz
x,y,z
-y,x-y,z
-x+y,-x,z
x-y,-y,-z
-x,-x+y,-z
y,x,-z
-x,-y,-z
y,-x+y,-z
x-y,x,-z
-x+y,y,z
x,x-y,z
-y,-x,z
loop_
_atom_site_type_symbol
_atom_site_label
_atom_site_fract_x
_atom_site_fract_y
_atom_site_fract_z
Si Si1 0.051362 0.572215 0.880877
Si Si2 0.239700 0.666335 0.923291
Si Si3 0.803420 0.699812 0.434323
Si Si4 0.295212 0.347348 0.375973
Si Si5 0.544600 0.630707 0.380312
Si Si6 0.729406 0.780968 0.070129
Si Si7 0.543227 0.363028 0.576795
O O1 0.065928 0.532964 0.819652
O O2 0.051562 0.597056 0.608776
O O3 0.085205 0.606542 0.105056
O O4 0.000000 0.550485 0.000000
O O5 0.257774 0.628887 0.948028
O O6 0.282404 0.717597 0.983567
O O7 0.220706 0.665591 0.634418
O O8 0.199343 0.654995 0.134716
O O9 0.840444 0.680888 0.472018
O O10 0.748250 0.657865 0.441772
O O11 0.812184 0.724682 0.155576
O O12 0.810454 0.737888 0.660998
O O13 0.324111 0.324111 0.500000
O O14 0.328490 0.402433 0.319761
O O15 0.270621 0.318578 0.108994
O O16 0.509981 0.648804 0.485032
O O17 0.773012 0.773012 0.000000
O O18 0.580767 0.419234 0.549487
#
# Coordination Sequence:
#
# PCOD8323473 Si02
#       7
#    12  12  12  12  12  12  12
#     4  11  23  38  55  79 104 132 173 226 275 319
#     4  10  20  37  61  85 107 131 169 217 268 325
#     4  10  20  34  55  80 110 145 184 230 286 339
#     4  10  22  36  57  81 109 140 190 234 284 318
#     4  12  24  37  59  78 108 143 181 213 267 334
#     4  10  18  35  55  78 108 144 182 236 283 317
#     4  10  21  37  56  78 106 139 167 202 260 331
#
# _framework density 17.748839
#
# number of rings (size 3 to 8) (size 9 to 14) (size 15 to 20)
#    0.857    0.714    1.429    4.857    2.000    2.857 
#    0.000    2.857    0.000    0.000    0.000    0.000 
#    0.000    0.000    0.000    0.000    0.000    0.000 
#
# Total GULP energy -1040937.477306 kJ/mol
# GULP energy per Si atom -12392.112825 kJ/mol
# Density = 1.770844 g / cm^3
# Si number density = 17.748839 Si / 1000 Ang^3
#
#
#
# Elastic Constant Matrix: (Units=GPa)
#
#
# Indices 1 2 3 4 5 6 
#
# 1 79.5875 35.6533 10.9930 -0.3720 0.0000 0.0000
# 2 35.6533 79.5875 10.9930 0.3720 0.0000 0.0000
# 3 10.9930 10.9930 95.7530 0.0000 0.0000 0.0000
# 4 -0.3720 0.3720 0.0000 20.7580 0.0000 0.0000
# 5 0.0000 0.0000 0.0000 0.0000 20.7580 -0.3720
# 6 0.0000 0.0000 0.0000 0.0000 -0.3720 21.9671
#
#
#
# Elastic Compliance Matrix: (Units=1/GPa)
#
#
# Indices 1 2 3 4 5 6 
#
# 1 0.015820 -0.006948 -0.001019 0.000408 0.000000 0.000000
# 2 -0.006948 0.015820 -0.001019 -0.000408 0.000000 0.000000
# 3 -0.001019 -0.001019 0.010677 0.000000 0.000000 0.000000
# 4 0.000408 -0.000408 0.000000 0.048189 0.000000 0.000000
# 5 0.000000 0.000000 0.000000 0.000000 0.048189 0.000816
# 6 0.000000 0.000000 0.000000 0.000000 0.000816 0.045536
#
#
# Mechanical properties :
#
#
# Convention : Reuss Voigt Hill
#
# Bulk Modulus (GPa) = 41.07303 41.13406 41.10355
# Shear Modulus (GPa) = 23.77355 25.84919 24.81137
#
# Velocity S-wave (km/s) = 3.66381 3.82040 3.74293
# Velocity P-wave (km/s) = 6.41011 6.53350 6.47210
#
# Compressibility (1/GPa) = 0.02434687
#
# Stress axis : x y z
#
# Youngs Moduli (GPa) = 63.21110 63.21110 93.65568
#
# Poissons Ratio (x) = 0.43920 0.09539
# Poissons Ratio (y) = 0.43920 0.09539
# Poissons Ratio (z) = 0.06438 0.06438
#
# Static dielectric constant tensor:
#      x y z
#    x 3.038790 0.000000 0.000000 
#    y 0.000000 3.038790 0.000000 
#    z 0.000000 0.000000 3.480560 
# 
# 
# High freq. dielectric constant tensor:
#      x y z
#    x 1.659260 0.000000 0.000000 
#    y 0.000000 1.659260 0.000000 
#    z 0.000000 0.000000 1.707880 
# 
# From -- ./inp_files/859.got.cif
#   From: 2010.03.12/outbox.cif.g09.slc.cpg/sg164_1_cif.got.tgz:859.got - 2010.04.02 06:32:59.
