data_PCOD8323371
_publ_section_title
;
Structure prediction by ZEFSAII (Michael W. Deem and Ramdas Pophale) SiO2 
 PCOD8323371
Probable space group: P -3 M 1
;
_chemical_formula_sum "Si O2"
_cell_formula_units_Z 96
_cell_length_a 23.021493
_cell_length_b 23.021493
_cell_length_c 11.910679
_cell_angle_alpha 90.000000
_cell_angle_beta 90.000000
_cell_angle_gamma 120.000000
_cell_volume 5466.811792
_symmetry_space_group_name_H-M "P -3 M 1"
_symmetry_group_IT_number 164
_symmetry_cell_setting 'hexagonal'
loop_
_space_group_symop_operation_xyz
x,y,z
-y,x-y,z
-x+y,-x,z
x-y,-y,-z
-x,-x+y,-z
y,x,-z
-x,-y,-z
y,-x+y,-z
x-y,x,-z
-x+y,y,z
x,x-y,z
-y,-x,z
loop_
_atom_site_type_symbol
_atom_site_label
_atom_site_fract_x
_atom_site_fract_y
_atom_site_fract_z
Si Si1 0.777854 0.681767 0.504508
Si Si2 0.466132 0.665834 0.626055
Si Si3 0.583569 0.938498 0.223401
Si Si4 0.607126 0.524383 0.204776
Si Si5 0.253193 0.193884 0.083536
Si Si6 0.296866 0.831062 0.398956
Si Si7 0.998411 0.730299 0.307965
Si Si8 0.390287 0.311902 0.010779
O O1 0.853247 0.706494 0.468442
O O2 0.739027 0.606690 0.546134
O O3 0.784877 0.732662 0.605455
O O4 0.739734 0.679817 0.390830
O O5 0.479207 0.739604 0.662135
O O6 0.388879 0.611122 0.650809
O O7 0.515928 0.645953 0.689353
O O8 0.478907 0.663758 0.493681
O O9 0.532008 0.882103 0.308986
O O10 0.571998 0.895815 0.108347
O O11 0.572711 0.002556 0.227329
O O12 0.661513 0.968780 0.247021
O O13 0.547604 0.452397 0.165309
O O14 0.663188 0.554668 0.108205
O O15 0.232569 0.116285 0.081997
O O16 0.241544 0.212389 0.210072
O O17 0.204169 0.204169 0.000000
O O18 0.330299 0.237463 0.040408
O O19 0.239121 0.760880 0.344187
O O20 0.361518 0.361518 0.000000
#
# Coordination Sequence:
#
# PCOD8323371 Si02
#       8
#    12  12  12  12  12  12  12  12
#     4   9  18  29  47  71  99 134 165 206 259 307
#     4  10  21  37  54  73  99 133 181 229 274 320
#     4  10  18  33  50  72 111 136 173 210 260 312
#     4  10  20  33  52  77 104 135 173 218 265 321
#     4  11  21  34  52  76 104 140 182 223 264 318
#     4   9  19  32  49  73 100 134 171 209 256 315
#     4  10  17  31  47  69 102 135 170 207 252 312
#     4   9  18  34  48  72 105 138 171 203 254 314
#
# _framework density 17.560507999999999
#
# number of rings (size 3 to 8) (size 9 to 14) (size 15 to 20)
#    0.000    2.250    3.750    1.250    0.000    5.750 
#    0.000    1.250    0.000    0.125    0.000    0.000 
#    0.000    5.000    0.000    6.375    0.000    0.000 
#
# Total GULP energy -1189297.723442 kJ/mol
# GULP energy per Si atom -12388.517953 kJ/mol
# Density = 1.752054 g / cm^3
# Si number density = 17.560508 Si / 1000 Ang^3
#
#
#
# Elastic Constant Matrix: (Units=GPa)
#
#
# Indices 1 2 3 4 5 6 
#
# 1 62.1127 23.1327 27.0815 2.8115 0.0000 0.0000
# 2 23.1327 62.1127 27.0815 -2.8115 0.0000 0.0000
# 3 27.0815 27.0815 97.1575 0.0000 0.0000 0.0000
# 4 2.8115 -2.8115 0.0000 17.7641 0.0000 0.0000
# 5 0.0000 0.0000 0.0000 0.0000 17.7641 2.8115
# 6 0.0000 0.0000 0.0000 0.0000 2.8115 19.4900
#
#
#
# Elastic Compliance Matrix: (Units=1/GPa)
#
#
# Indices 1 2 3 4 5 6 
#
# 1 0.020255 -0.005999 -0.003974 -0.004155 0.000000 0.000000
# 2 -0.005999 0.020255 -0.003974 0.004155 0.000000 0.000000
# 3 -0.003974 -0.003974 0.012508 0.000000 0.000000 0.000000
# 4 -0.004155 0.004155 0.000000 0.057608 0.000000 0.000000
# 5 0.000000 0.000000 0.000000 0.000000 0.057608 -0.008310
# 6 0.000000 0.000000 0.000000 0.000000 -0.008310 0.052507
#
#
# Mechanical properties :
#
#
# Convention : Reuss Voigt Hill
#
# Bulk Modulus (GPa) = 39.80166 41.77492 40.78829
# Shear Modulus (GPa) = 19.45463 20.60946 20.03205
#
# Velocity S-wave (km/s) = 3.33207 3.42954 3.38115
# Velocity P-wave (km/s) = 6.12521 6.28674 6.20650
#
# Compressibility (1/GPa) = 0.02512458
#
# Stress axis : x y z
#
# Youngs Moduli (GPa) = 49.37157 49.37157 79.95051
#
# Poissons Ratio (x) = 0.29618 0.31769
# Poissons Ratio (y) = 0.29618 0.31769
# Poissons Ratio (z) = 0.19618 0.19618
#
# Static dielectric constant tensor:
#      x y z
#    x 3.182660 0.000000 0.000000 
#    y 0.000000 3.182660 0.000000 
#    z 0.000000 0.000000 3.794360 
# 
# 
# High freq. dielectric constant tensor:
#      x y z
#    x 1.656410 0.000000 0.000000 
#    y 0.000000 1.656410 0.000000 
#    z 0.000000 0.000000 1.688940 
# 
# From -- ./inp_files/3151.got.cif
#   From: 2010.03.12/outbox.cif.g09.slc.cpg/sg164_2_cif.got.tgz:3151.got - 2010.04.02 06:32:59.
