data_PCOD8323303
_publ_section_title
;
Structure prediction by ZEFSAII (Michael W. Deem and Ramdas Pophale) SiO2 
 PCOD8323303
Probable space group: P -3 1 C
;
_chemical_formula_sum "Si O2"
_cell_formula_units_Z 84
_cell_length_a 17.560764
_cell_length_b 17.560764
_cell_length_c 14.503828
_cell_angle_alpha 90.000000
_cell_angle_beta 90.000000
_cell_angle_gamma 120.000000
_cell_volume 3873.469007
_symmetry_space_group_name_H-M "P -3 1 C"
_symmetry_group_IT_number 163
_symmetry_cell_setting 'hexagonal'
loop_
_space_group_symop_operation_xyz
x,y,z
-y,x-y,z
-x+y,-x,z
-y,-x,1/2-z
-x+y,y,1/2-z
x,x-y,1/2-z
-x,-y,-z
y,-x+y,-z
x-y,x,-z
y,x,1/2+z
x-y,-y,1/2+z
-x,-x+y,1/2+z
loop_
_atom_site_type_symbol
_atom_site_label
_atom_site_fract_x
_atom_site_fract_y
_atom_site_fract_z
Si Si1 0.313496 0.465470 0.228961
Si Si2 0.498371 0.235136 0.150497
Si Si3 0.151333 0.190154 0.006135
Si Si4 0.544261 0.126159 0.418399
Si Si5 0.064462 0.273494 0.301514
Si Si6 0.300120 0.209728 0.322932
Si Si7 0.487698 0.552755 0.123335
O O1 0.257146 0.514291 0.250000
O O2 0.243657 0.375420 0.178249
O O3 0.389068 0.520388 0.156037
O O4 0.358008 0.450211 0.320311
O O5 0.544208 0.272104 0.250000
O O6 0.552117 0.199637 0.091152
O O7 0.490671 0.314357 0.103936
O O8 0.403021 0.152485 0.166179
O O9 0.205409 0.227775 0.101089
O O10 0.159108 0.108171 0.971953
O O11 0.186792 0.261056 0.925040
O O12 0.510004 0.086054 0.517871
O O13 0.518391 0.038402 0.357433
O O14 0.114220 0.228439 0.250000
O O15 0.997892 0.278155 0.228736
O O16 0.257530 0.128765 0.250000
#
# Coordination Sequence:
#
# PCOD8323303 Si02
#       7
#    12  12  12  12  12  12  12
#     4  10  24  44  70  99 132 181 228 278 361 407
#     4  11  26  42  71 100 139 184 228 287 348 430
#     4  12  25  42  66  97 136 180 233 283 353 416
#     4  11  25  46  70 104 141 183 234 290 356 423
#     4  11  23  42  69  95 137 177 228 295 341 422
#     4  11  24  42  64 102 133 179 234 282 347 406
#     4  10  25  45  71 100 141 181 231 297 355 423
#
# _framework density 21.685988999999999
#
# number of rings (size 3 to 8) (size 9 to 14) (size 15 to 20)
#    0.000    1.143    2.857    1.714   12.000    1.143 
#    6.000    0.000    0.000    0.000    0.000    0.000 
#    0.000    0.000    0.000    0.000    0.000    0.000 
#
# Total GULP energy -1041077.807437 kJ/mol
# GULP energy per Si atom -12393.783422 kJ/mol
# Density = 2.163663 g / cm^3
# Si number density = 21.685989 Si / 1000 Ang^3
#
#
#
# Elastic Constant Matrix: (Units=GPa)
#
#
# Indices 1 2 3 4 5 6 
#
# 1 102.6634 33.7701 23.0845 0.0000 -2.5473 0.0000
# 2 33.7701 102.6634 23.0845 0.0000 2.5473 0.0000
# 3 23.0845 23.0845 103.3549 0.0000 0.0000 0.0000
# 4 0.0000 0.0000 0.0000 25.8379 0.0000 2.5473
# 5 -2.5473 2.5473 0.0000 0.0000 25.8379 0.0000
# 6 0.0000 0.0000 0.0000 2.5473 0.0000 34.4467
#
#
#
# Elastic Compliance Matrix: (Units=1/GPa)
#
#
# Indices 1 2 3 4 5 6 
#
# 1 0.011275 -0.003346 -0.001771 0.000000 0.001442 0.000000
# 2 -0.003346 0.011275 -0.001771 0.000000 -0.001442 0.000000
# 3 -0.001771 -0.001771 0.010466 0.000000 0.000000 0.000000
# 4 0.000000 0.000000 0.000000 0.038987 0.000000 -0.002883
# 5 0.001442 -0.001442 0.000000 0.000000 0.038987 0.000000
# 6 0.000000 0.000000 0.000000 -0.002883 0.000000 0.029244
#
#
# Mechanical properties :
#
#
# Convention : Reuss Voigt Hill
#
# Bulk Modulus (GPa) = 51.97368 52.06218 52.01793
# Shear Modulus (GPa) = 31.16724 32.47401 31.82063
#
# Velocity S-wave (km/s) = 3.79516 3.87391 3.83474
# Velocity P-wave (km/s) = 6.57441 6.63845 6.60650
#
# Compressibility (1/GPa) = 0.01924051
#
# Stress axis : x y z
#
# Youngs Moduli (GPa) = 88.68925 88.68925 95.54311
#
# Poissons Ratio (x) = 0.29680 0.16920
# Poissons Ratio (y) = 0.29680 0.16920
# Poissons Ratio (z) = 0.15706 0.15706
#
# Static dielectric constant tensor:
#      x y z
#    x 3.969050 0.000000 0.000000 
#    y 0.000000 3.969050 0.000000 
#    z 0.000000 0.000000 4.044700 
# 
# 
# High freq. dielectric constant tensor:
#      x y z
#    x 1.854650 0.000000 0.000000 
#    y 0.000000 1.854650 0.000000 
#    z 0.000000 0.000000 1.854600 
# 
# From -- ./inp_files/2670.got.cif
#   From: 2010.03.12/outbox.cif.g09.slc.cpg/sg163_2_cif.got.tgz:2670.got - 2010.04.02 06:30:25.
