data_PCOD8323277
_publ_section_title
;
Structure prediction by ZEFSAII (Michael W. Deem and Ramdas Pophale) SiO2 
 PCOD8323277
Probable space group: P -3 1 C
;
_chemical_formula_sum "Si O2"
_cell_formula_units_Z 40
_cell_length_a 11.438862
_cell_length_b 11.438862
_cell_length_c 18.189116
_cell_angle_alpha 90.000000
_cell_angle_beta 90.000000
_cell_angle_gamma 120.000000
_cell_volume 2061.141775
_symmetry_space_group_name_H-M "P -3 1 C"
_symmetry_group_IT_number 163
_symmetry_cell_setting 'hexagonal'
loop_
_space_group_symop_operation_xyz
x,y,z
-y,x-y,z
-x+y,-x,z
-y,-x,1/2-z
-x+y,y,1/2-z
x,x-y,1/2-z
-x,-y,-z
y,-x+y,-z
x-y,x,-z
y,x,1/2+z
x-y,-y,1/2+z
-x,-x+y,1/2+z
loop_
_atom_site_type_symbol
_atom_site_label
_atom_site_fract_x
_atom_site_fract_y
_atom_site_fract_z
Si Si1 0.732204 0.732868 0.085357
Si Si2 0.732205 0.999338 0.085356
Si Si3 0.666668 0.333334 0.336994
Si Si4 0.514437 0.028874 0.162806
O O1 0.856868 0.713739 0.110770
O O2 0.597280 0.636684 0.131309
O O3 0.773454 0.886728 0.101463
O O4 0.698571 0.698573 0.000000
O O5 0.597282 0.960600 0.131309
O O6 0.666668 0.333334 0.250000
O O7 0.818056 0.409032 0.366892
O O8 0.507918 0.015835 0.250000
#
# Coordination Sequence:
#
# PCOD8323277 Si02
#       4
#    12  12   4  12
#     4  10  21  38  60  86 115 149 190 237 287 339
#     4  10  21  38  60  86 115 149 190 237 287 339
#     4   9  18  33  57  81 102 141 193 239 271 318
#     4  11  21  37  59  83 113 149 191 237 281 336
#
# _framework density 19.40672
#
# number of rings (size 3 to 8) (size 9 to 14) (size 15 to 20)
#    0.000    1.800    3.000    1.500    0.000    3.600 
#    1.800    0.000    0.000    3.600    0.000    0.000 
#    0.000    0.000    0.000    0.000    0.000    0.000 
#
# Total GULP energy -496129.989679 kJ/mol
# GULP energy per Si atom -12403.249742 kJ/mol
# Density = 1.936255 g / cm^3
# Si number density = 19.406720 Si / 1000 Ang^3
#
#
#
# Elastic Constant Matrix: (Units=GPa)
#
#
# Indices 1 2 3 4 5 6 
#
# 1 98.8657 29.9150 47.4309 0.0000 0.0000 0.0000
# 2 29.9150 98.8658 47.4310 0.0000 0.0000 0.0000
# 3 47.4309 47.4310 77.4004 0.0001 0.0000 0.0000
# 4 0.0000 0.0000 0.0001 24.1712 0.0000 0.0000
# 5 0.0000 0.0000 0.0000 0.0000 24.1712 0.0000
# 6 0.0000 0.0000 0.0000 0.0000 0.0000 34.4754
#
#
#
# Elastic Compliance Matrix: (Units=1/GPa)
#
#
# Indices 1 2 3 4 5 6 
#
# 1 0.014329 -0.000174 -0.008674 0.000000 0.000000 0.000000
# 2 -0.000174 0.014329 -0.008674 0.000000 0.000000 0.000000
# 3 -0.008674 -0.008674 0.023550 0.000000 0.000000 0.000000
# 4 0.000000 0.000000 0.000000 0.041372 0.000000 0.000000
# 5 0.000000 0.000000 0.000000 0.000000 0.041372 0.000000
# 6 0.000000 0.000000 0.000000 0.000000 0.000000 0.029006
#
#
# Mechanical properties :
#
#
# Convention : Reuss Voigt Hill
#
# Bulk Modulus (GPa) = 58.26147 58.29840 58.27993
# Shear Modulus (GPa) = 24.42328 26.58721 25.50524
#
# Velocity S-wave (km/s) = 3.55138 3.70537 3.62919
# Velocity P-wave (km/s) = 6.84856 6.95786 6.90343
#
# Compressibility (1/GPa) = 0.01716400
#
# Stress axis : x y z
#
# Youngs Moduli (GPa) = 69.78971 69.78970 42.46198
#
# Poissons Ratio (x) = 0.01217 0.36831
# Poissons Ratio (y) = 0.01217 0.36831
# Poissons Ratio (z) = 0.60534 0.60534
#
# Static dielectric constant tensor:
#      x y z
#    x 3.503660 0.000000 0.000000 
#    y 0.000000 3.503660 0.000000 
#    z 0.000000 0.000000 3.285360 
# 
# 
# High freq. dielectric constant tensor:
#      x y z
#    x 1.755810 0.000000 0.000000 
#    y 0.000000 1.755810 0.000000 
#    z 0.000000 0.000000 1.740360 
# 
# From -- ./inp_files/2866.got.cif
#   From: 2010.03.12/outbox.cif.g09.slc.cpg/sg163_2_cif.got.tgz:2866.got - 2010.04.02 06:30:25.
