data_PCOD8323514
_publ_section_title
;
Structure prediction by ZEFSAII (Michael W. Deem and Ramdas Pophale) SiO2 
 PCOD8323514
Probable space group: P -3 M 1
;
_chemical_formula_sum "Si O2"
_cell_formula_units_Z 72
_cell_length_a 20.807350
_cell_length_b 20.807350
_cell_length_c 12.193718
_cell_angle_alpha 90.000000
_cell_angle_beta 90.000000
_cell_angle_gamma 120.000000
_cell_volume 4571.937909
_symmetry_space_group_name_H-M "P -3 M 1"
_symmetry_group_IT_number 164
_symmetry_cell_setting 'hexagonal'
loop_
_space_group_symop_operation_xyz
x,y,z
-y,x-y,z
-x+y,-x,z
x-y,-y,-z
-x,-x+y,-z
y,x,-z
-x,-y,-z
y,-x+y,-z
x-y,x,-z
-x+y,y,z
x,x-y,z
-y,-x,z
loop_
_atom_site_type_symbol
_atom_site_label
_atom_site_fract_x
_atom_site_fract_y
_atom_site_fract_z
Si Si1 0.438213 0.561788 0.017332
Si Si2 0.519192 0.331553 0.359271
Si Si3 0.612625 0.079995 0.553276
Si Si4 0.289414 0.432651 0.049513
Si Si5 0.980912 0.490456 0.167983
Si Si6 0.122155 0.386657 0.802279
Si Si7 0.029207 0.647317 0.241748
O O1 0.351068 0.520460 0.046536
O O2 0.476082 0.523919 0.083727
O O3 0.450436 0.549565 0.890506
O O4 0.547643 0.273822 0.384483
O O5 0.587791 0.412210 0.332748
O O6 0.474810 0.334062 0.465875
O O7 0.466813 0.304657 0.253795
O O8 0.549280 0.098559 0.595962
O O9 0.666867 0.081280 0.650970
O O10 0.573651 0.000000 0.500000
O O11 0.212767 0.425534 0.087408
O O12 0.311478 0.389131 0.136068
O O13 0.283863 0.396629 0.931280
O O14 0.986390 0.557236 0.240262
O O15 0.174963 0.349925 0.785534
O O16 0.038750 0.334662 0.752731
#
# Coordination Sequence:
#
# PCOD8323514 Si02
#       7
#     6  12  12  12   6  12  12
#     4   9  16  28  44  60  88 118 148 190 230 274
#     4  10  21  34  48  65  89 118 150 192 241 286
#     4  10  19  30  47  67  83 106 148 192 223 265
#     4  10  21  32  45  67  90 119 156 191 233 284
#     4   9  16  24  45  70  80 110 153 185 228 270
#     4  10  20  31  46  70  93 113 146 188 234 284
#     4  11  18  31  51  67  89 117 149 195 236 274
#
# _framework density 15.748245000000001
#
# number of rings (size 3 to 8) (size 9 to 14) (size 15 to 20)
#    0.000    2.000    4.167    0.667    2.333    0.667 
#    0.500    0.000    0.000    0.000    0.000    0.000 
#    0.000    0.000    0.000    0.500    0.000    7.500 
#
# Total GULP energy -892277.124462 kJ/mol
# GULP energy per Si atom -12392.737840 kJ/mol
# Density = 1.571240 g / cm^3
# Si number density = 15.748245 Si / 1000 Ang^3
#
#
#
# Elastic Constant Matrix: (Units=GPa)
#
#
# Indices 1 2 3 4 5 6 
#
# 1 59.1567 17.5781 21.2671 0.2754 0.0000 0.0000
# 2 17.5781 59.1567 21.2671 -0.2754 0.0000 0.0000
# 3 21.2671 21.2671 81.1065 0.0000 0.0000 0.0000
# 4 0.2754 -0.2754 0.0000 18.4634 0.0000 0.0000
# 5 0.0000 0.0000 0.0000 0.0000 18.4634 0.2754
# 6 0.0000 0.0000 0.0000 0.0000 0.2754 20.7893
#
#
#
# Elastic Compliance Matrix: (Units=1/GPa)
#
#
# Indices 1 2 3 4 5 6 
#
# 1 0.019652 -0.004404 -0.003998 -0.000359 0.000000 0.000000
# 2 -0.004404 0.019652 -0.003998 0.000359 0.000000 0.000000
# 3 -0.003998 -0.003998 0.014426 0.000000 0.000000 0.000000
# 4 -0.000359 0.000359 0.000000 0.054172 0.000000 0.000000
# 5 0.000000 0.000000 0.000000 0.000000 0.054172 -0.000718
# 6 0.000000 0.000000 0.000000 0.000000 -0.000718 0.048111
#
#
# Mechanical properties :
#
#
# Convention : Reuss Voigt Hill
#
# Bulk Modulus (GPa) = 34.56675 35.51605 35.04140
# Shear Modulus (GPa) = 20.43913 20.83038 20.63476
#
# Velocity S-wave (km/s) = 3.60650 3.64086 3.62372
# Velocity P-wave (km/s) = 6.27214 6.34632 6.30934
#
# Compressibility (1/GPa) = 0.02892953
#
# Stress axis : x y z
#
# Youngs Moduli (GPa) = 50.88572 50.88572 69.31818
#
# Poissons Ratio (x) = 0.22409 0.27715
# Poissons Ratio (y) = 0.22409 0.27715
# Poissons Ratio (z) = 0.20345 0.20345
#
# Static dielectric constant tensor:
#      x y z
#    x 2.927570 0.000000 0.000000 
#    y 0.000000 2.927570 0.000000 
#    z 0.000000 0.000000 3.101640 
# 
# 
# High freq. dielectric constant tensor:
#      x y z
#    x 1.572400 0.000000 0.000000 
#    y 0.000000 1.572400 0.000000 
#    z 0.000000 0.000000 1.615630 
# 
# From -- ./inp_files/2839.got.cif
#   From: 2010.03.12/outbox.cif.g09.slc.cpg/sg164_2_cif.got.tgz:2839.got - 2010.04.02 06:32:59.
