data_PCOD8323738
_publ_section_title
;
Structure prediction by ZEFSAII (Michael W. Deem and Ramdas Pophale) SiO2 
 PCOD8323738
Probable space group: P -3 M 1
;
_chemical_formula_sum "Si O2"
_cell_formula_units_Z 84
_cell_length_a 18.041070
_cell_length_b 18.041070
_cell_length_c 14.575025
_cell_angle_alpha 90.000000
_cell_angle_beta 90.000000
_cell_angle_gamma 120.000000
_cell_volume 4108.322455
_symmetry_space_group_name_H-M "P -3 M 1"
_symmetry_group_IT_number 164
_symmetry_cell_setting 'hexagonal'
loop_
_space_group_symop_operation_xyz
x,y,z
-y,x-y,z
-x+y,-x,z
x-y,-y,-z
-x,-x+y,-z
y,x,-z
-x,-y,-z
y,-x+y,-z
x-y,x,-z
-x+y,y,z
x,x-y,z
-y,-x,z
loop_
_atom_site_type_symbol
_atom_site_label
_atom_site_fract_x
_atom_site_fract_y
_atom_site_fract_z
Si Si1 0.402672 0.974632 0.816551
Si Si2 0.332578 0.498404 0.464582
Si Si3 0.801188 0.765122 0.405582
Si Si4 0.241120 0.307549 0.919272
Si Si5 0.833124 0.996510 0.223893
Si Si6 0.159563 0.492176 0.259655
Si Si7 0.709059 0.581373 0.346417
O O1 0.484189 0.968377 0.851473
O O2 0.329038 0.933588 0.894781
O O3 0.369952 0.918266 0.723371
O O4 0.432319 0.075320 0.800691
O O5 0.266845 0.533690 0.471565
O O6 0.426393 0.573608 0.479390
O O7 0.322504 0.456363 0.364003
O O8 0.319299 0.434609 0.547067
O O9 0.749896 0.749896 0.500000
O O10 0.897040 0.794080 0.438215
O O11 0.803069 0.831502 0.330463
O O12 0.764271 0.682485 0.341111
O O13 0.162590 0.325180 0.942281
O O14 0.222430 0.251538 0.828801
O O15 0.257039 0.257039 0.000000
O O16 0.821783 0.910892 0.176323
O O17 0.932179 0.067822 0.219937
O O18 0.242783 0.485566 0.226684
O O19 0.183389 0.591695 0.255632
O O20 0.771088 0.542176 0.321090
#
# Coordination Sequence:
#
# PCOD8323738 Si02
#       7
#    12  12  12  12  12  12  12
#     4  11  23  39  61  88 118 152 192 240 297 358
#     4   9  17  29  47  71 104 149 201 253 302 351
#     4  10  20  33  50  76 115 162 205 250 296 342
#     4  11  24  44  69  96 124 155 192 239 297 355
#     4  10  20  36  58  86 120 158 201 247 296 352
#     4   9  19  34  53  81 117 159 205 253 303 353
#     4  10  20  34  50  75 113 156 201 250 303 355
#
# _framework density 20.446300999999998
#
# number of rings (size 3 to 8) (size 9 to 14) (size 15 to 20)
#    0.000    2.000    1.429    2.143    2.000    2.571 
#    0.000    2.143    0.000    7.714    0.000    1.000 
#    0.000    0.000    0.000    0.000    0.000    0.000 
#
# Total GULP energy -1040619.659689 kJ/mol
# GULP energy per Si atom -12388.329282 kJ/mol
# Density = 2.039976 g / cm^3
# Si number density = 20.446301 Si / 1000 Ang^3
#
#
#
# Elastic Constant Matrix: (Units=GPa)
#
#
# Indices 1 2 3 4 5 6 
#
# 1 91.8181 47.0600 32.2656 -6.2370 0.0000 0.0000
# 2 47.0600 91.8181 32.2656 6.2370 0.0000 0.0000
# 3 32.2656 32.2656 71.9919 0.0000 0.0000 0.0000
# 4 -6.2370 6.2370 0.0000 26.4240 0.0000 0.0000
# 5 0.0000 0.0000 0.0000 0.0000 26.4240 -6.2370
# 6 0.0000 0.0000 0.0000 0.0000 -6.2370 22.3791
#
#
#
# Elastic Compliance Matrix: (Units=1/GPa)
#
#
# Indices 1 2 3 4 5 6 
#
# 1 0.016505 -0.007410 -0.004076 0.005645 0.000000 0.000000
# 2 -0.007410 0.016505 -0.004076 -0.005645 0.000000 0.000000
# 3 -0.004076 -0.004076 0.017544 0.000000 0.000000 0.000000
# 4 0.005645 -0.005645 0.000000 0.040509 0.000000 0.000000
# 5 0.000000 0.000000 0.000000 0.000000 0.040509 0.011290
# 6 0.000000 0.000000 0.000000 0.000000 0.011290 0.047831
#
#
# Mechanical properties :
#
#
# Convention : Reuss Voigt Hill
#
# Bulk Modulus (GPa) = 51.46937 53.20119 52.33528
# Shear Modulus (GPa) = 23.04096 24.64787 23.84442
#
# Velocity S-wave (km/s) = 3.36058 3.47579 3.41867
# Velocity P-wave (km/s) = 6.34709 6.49497 6.42145
#
# Compressibility (1/GPa) = 0.01942903
#
# Stress axis : x y z
#
# Youngs Moduli (GPa) = 60.58765 60.58765 56.99928
#
# Poissons Ratio (x) = 0.44898 0.23233
# Poissons Ratio (y) = 0.44898 0.23233
# Poissons Ratio (z) = 0.24696 0.24696
#
# Static dielectric constant tensor:
#      x y z
#    x 3.683240 0.000000 0.000000 
#    y 0.000000 3.683240 0.000000 
#    z 0.000000 0.000000 3.472960 
# 
# 
# High freq. dielectric constant tensor:
#      x y z
#    x 1.794340 0.000000 0.000000 
#    y 0.000000 1.794340 0.000000 
#    z 0.000000 0.000000 1.779350 
# 
# From -- ./inp_files/3550.got.cif
#   From: 2010.03.12/outbox.cif.g09.slc.cpg/sg164_2_cif.got.tgz:3550.got - 2010.04.02 06:32:59.
