data_PCOD8323428
_publ_section_title
;
Structure prediction by ZEFSAII (Michael W. Deem and Ramdas Pophale) SiO2 
 PCOD8323428
Probable space group: P -3 M 1
;
_chemical_formula_sum "Si O2"
_cell_formula_units_Z 90
_cell_length_a 18.244970
_cell_length_b 18.244970
_cell_length_c 18.282818
_cell_angle_alpha 90.000000
_cell_angle_beta 90.000000
_cell_angle_gamma 120.000000
_cell_volume 5270.600209
_symmetry_space_group_name_H-M "P -3 M 1"
_symmetry_group_IT_number 164
_symmetry_cell_setting 'hexagonal'
loop_
_space_group_symop_operation_xyz
x,y,z
-y,x-y,z
-x+y,-x,z
x-y,-y,-z
-x,-x+y,-z
y,x,-z
-x,-y,-z
y,-x+y,-z
x-y,x,-z
-x+y,y,z
x,x-y,z
-y,-x,z
loop_
_atom_site_type_symbol
_atom_site_label
_atom_site_fract_x
_atom_site_fract_y
_atom_site_fract_z
Si Si1 0.136367 0.702147 0.837615
Si Si2 0.999959 0.832384 0.417259
Si Si3 0.767266 0.701570 0.707287
Si Si4 0.092435 0.630434 0.992383
Si Si5 0.830576 0.000000 0.000000
Si Si6 0.331399 0.830376 0.136686
Si Si7 0.799628 0.036764 0.153345
Si Si8 0.591019 0.018196 0.754484
O O1 0.234240 0.765761 0.811577
O O2 0.094193 0.757964 0.852460
O O3 0.080592 0.630179 0.777951
O O4 0.136645 0.659358 0.913934
O O5 0.068839 0.931162 0.409353
O O6 0.019272 0.775531 0.363546
O O7 0.000000 0.801730 0.500000
O O8 0.909902 0.819803 0.394772
O O9 0.833799 0.667597 0.704106
O O10 0.787530 0.757965 0.780542
O O11 0.670516 0.624069 0.700450
O O12 0.079197 0.539599 0.012640
O O13 0.155213 0.692235 0.054716
O O14 0.000000 0.622843 0.000000
O O15 0.790975 0.011952 0.924690
O O16 0.840850 0.920425 0.986854
O O17 0.399361 0.798721 0.139273
O O18 0.244009 0.755991 0.172090
O O19 0.368213 0.920551 0.176257
O O20 0.900931 0.099070 0.167404
O O21 0.514711 0.029422 0.719931
#
# Coordination Sequence:
#
# PCOD8323428 Si02
#       8
#    12  12  12  12   6  12  12  12
#     4  10  19  30  45  63  81 107 147 194 244 299
#     4   9  17  30  51  81 116 148 171 193 226 272
#     4  10  19  31  50  74  99 128 167 206 241 287
#     4  10  18  29  44  61  82 109 145 189 243 305
#     4  10  19  30  40  52  77 118 164 202 234 268
#     4  10  19  30  45  64  87 116 153 198 247 300
#     4   9  19  30  41  61  89 121 159 204 246 281
#     4  10  20  34  50  66  91 123 155 195 246 297
#
# _framework density 17.075854
#
# number of rings (size 3 to 8) (size 9 to 14) (size 15 to 20)
#    0.000    2.267    1.333    2.333    0.933    1.067 
#    0.000    2.667    0.000    7.867    0.000    0.000 
#    0.000    0.000    0.000    0.267    0.000    0.000 
#
# Total GULP energy -1115217.627760 kJ/mol
# GULP energy per Si atom -12391.306975 kJ/mol
# Density = 1.703699 g / cm^3
# Si number density = 17.075854 Si / 1000 Ang^3
#
#
#
# Elastic Constant Matrix: (Units=GPa)
#
#
# Indices 1 2 3 4 5 6 
#
# 1 117.8392 4.1061 32.0021 -18.9953 0.0000 0.0000
# 2 4.1061 117.8392 32.0021 18.9953 0.0000 0.0000
# 3 32.0021 32.0021 75.4481 0.0000 0.0000 0.0000
# 4 -18.9953 18.9953 0.0000 28.4680 0.0000 0.0000
# 5 0.0000 0.0000 0.0000 0.0000 28.4680 -18.9953
# 6 0.0000 0.0000 0.0000 0.0000 -18.9953 56.8666
#
#
#
# Elastic Compliance Matrix: (Units=1/GPa)
#
#
# Indices 1 2 3 4 5 6 
#
# 1 0.010932 -0.000383 -0.004474 0.007549 0.000000 0.000000
# 2 -0.000383 0.010932 -0.004474 -0.007549 0.000000 0.000000
# 3 -0.004474 -0.004474 0.017050 0.000000 0.000000 0.000000
# 4 0.007549 -0.007549 0.000000 0.045202 0.000000 0.000000
# 5 0.000000 0.000000 0.000000 0.000000 0.045202 0.015099
# 6 0.000000 0.000000 0.000000 0.000000 0.015099 0.022629
#
#
# Mechanical properties :
#
#
# Convention : Reuss Voigt Hill
#
# Bulk Modulus (GPa) = 49.38285 49.70523 49.54404
# Shear Modulus (GPa) = 28.19151 38.96159 33.57655
#
# Velocity S-wave (km/s) = 4.06761 4.78187 4.43913
# Velocity P-wave (km/s) = 7.14444 7.72399 7.43986
#
# Compressibility (1/GPa) = 0.02024994
#
# Stress axis : x y z
#
# Youngs Moduli (GPa) = 91.47840 91.47840 58.65158
#
# Poissons Ratio (x) = 0.03501 0.26243
# Poissons Ratio (y) = 0.03501 0.26243
# Poissons Ratio (z) = 0.40931 0.40931
#
# Static dielectric constant tensor:
#      x y z
#    x 3.309120 0.000000 0.000000 
#    y 0.000000 3.309120 0.000000 
#    z 0.000000 0.000000 2.932050 
# 
# 
# High freq. dielectric constant tensor:
#      x y z
#    x 1.656600 0.000000 0.000000 
#    y 0.000000 1.656600 0.000000 
#    z 0.000000 0.000000 1.613060 
# 
# From -- ./inp_files/4231.got.cif
#   From: 2010.03.12/outbox.cif.g09.slc.cpg/sg164_3_cif.got.tgz:4231.got - 2010.04.02 06:32:59.
