data_PCOD8323257
_publ_section_title
;
Structure prediction by ZEFSAII (Michael W. Deem and Ramdas Pophale) SiO2 
 PCOD8323257
Probable space group: P -3 1 C
;
_chemical_formula_sum "Si O2"
_cell_formula_units_Z 36
_cell_length_a 21.486830
_cell_length_b 21.486830
_cell_length_c 4.853667
_cell_angle_alpha 90.000000
_cell_angle_beta 90.000000
_cell_angle_gamma 120.000000
_cell_volume 1940.641455
_symmetry_space_group_name_H-M "P -3 1 C"
_symmetry_group_IT_number 163
_symmetry_cell_setting 'hexagonal'
loop_
_space_group_symop_operation_xyz
x,y,z
-y,x-y,z
-x+y,-x,z
-y,-x,1/2-z
-x+y,y,1/2-z
x,x-y,1/2-z
-x,-y,-z
y,-x+y,-z
x-y,x,-z
y,x,1/2+z
x-y,-y,1/2+z
-x,-x+y,1/2+z
loop_
_atom_site_type_symbol
_atom_site_label
_atom_site_fract_x
_atom_site_fract_y
_atom_site_fract_z
Si Si1 0.472159 0.610658 0.493139
Si Si2 0.194475 0.805526 0.750000
Si Si3 0.315390 0.364636 0.838859
Si Si4 0.242734 0.485467 0.250000
O O1 0.448824 0.551177 0.250000
O O2 0.551296 0.633202 0.598563
O O3 0.466563 0.677101 0.365697
O O4 0.418588 0.581413 0.750000
O O5 0.112598 0.768666 0.863616
O O6 0.191566 0.754345 0.500153
O O7 0.321265 0.339232 0.536327
#
# Coordination Sequence:
#
# PCOD8323257 Si02
#       4
#    12   6  12   6
#     4  11  22  36  55  77 106 137 180 242 284 323
#     4  10  20  38  58  76 108 142 170 215 260 325
#     4  11  22  36  57  83 107 141 179 212 272 337
#     4  10  20  38  56  70  98 144 184 217 286 343
#
# _framework density 18.550566
#
# number of rings (size 3 to 8) (size 9 to 14) (size 15 to 20)
#    0.000    1.333    0.000   10.000    0.000    4.000 
#    1.000    0.000   14.667    0.000    0.000    0.000 
#    0.000    0.000    0.000   10.000    0.000    0.000 
#
# Total GULP energy -446253.066474 kJ/mol
# GULP energy per Si atom -12395.918513 kJ/mol
# Density = 1.850834 g / cm^3
# Si number density = 18.550566 Si / 1000 Ang^3
#
#
#
# Elastic Constant Matrix: (Units=GPa)
#
#
# Indices 1 2 3 4 5 6 
#
# 1 79.2733 57.0172 24.8679 -0.0003 2.1476 0.0000
# 2 57.0172 79.2733 24.8679 0.0003 -2.1476 0.0000
# 3 24.8679 24.8679 98.5177 0.0000 0.0000 0.0000
# 4 -0.0003 0.0003 0.0000 34.1637 0.0000 -2.1476
# 5 2.1476 -2.1476 0.0000 0.0000 34.1637 -0.0003
# 6 0.0000 0.0000 0.0000 -2.1476 -0.0003 11.1281
#
#
#
# Elastic Compliance Matrix: (Units=1/GPa)
#
#
# Indices 1 2 3 4 5 6 
#
# 1 0.026782 -0.018701 -0.002040 0.000000 -0.002859 0.000000
# 2 -0.018701 0.026782 -0.002040 0.000000 0.002859 0.000000
# 3 -0.002040 -0.002040 0.011180 0.000000 0.000000 0.000000
# 4 0.000000 0.000000 0.000000 0.029630 0.000000 0.005718
# 5 -0.002859 0.002859 0.000000 0.000000 0.029630 0.000001
# 6 0.000000 0.000000 0.000000 0.005718 0.000001 0.090966
#
#
# Mechanical properties :
#
#
# Convention : Reuss Voigt Hill
#
# Bulk Modulus (GPa) = 52.12736 52.28562 52.20649
# Shear Modulus (GPa) = 18.73163 25.91187 22.32175
#
# Velocity S-wave (km/s) = 3.18112 3.74147 3.47261
# Velocity P-wave (km/s) = 6.45398 6.84919 6.65452
#
# Compressibility (1/GPa) = 0.01918378
#
# Stress axis : x y z
#
# Youngs Moduli (GPa) = 37.33788 37.33788 89.44279
#
# Poissons Ratio (x) = 0.69825 0.18246
# Poissons Ratio (y) = 0.69825 0.18246
# Poissons Ratio (z) = 0.07617 0.07617
#
# Static dielectric constant tensor:
#      x y z
#    x 3.219640 0.000000 0.000000 
#    y 0.000000 3.219640 0.000000 
#    z 0.000000 0.000000 3.944730 
# 
# 
# High freq. dielectric constant tensor:
#      x y z
#    x 1.688070 0.000000 0.000000 
#    y 0.000000 1.688070 0.000000 
#    z 0.000000 0.000000 1.756760 
# 
# From -- ./inp_files/175.got.cif
#   From: 2010.03.12/outbox.cif.g09.slc.cpg/sg163_1_cif.got.tgz:175.got - 2010.04.02 06:30:25.
