data_PCOD8323676
_publ_section_title
;
Structure prediction by ZEFSAII (Michael W. Deem and Ramdas Pophale) SiO2 
 PCOD8323676
Probable space group: P -3 M 1
;
_chemical_formula_sum "Si O2"
_cell_formula_units_Z 54
_cell_length_a 12.472468
_cell_length_b 12.472468
_cell_length_c 23.419066
_cell_angle_alpha 90.000000
_cell_angle_beta 90.000000
_cell_angle_gamma 120.000000
_cell_volume 3155.040939
_symmetry_space_group_name_H-M "P -3 M 1"
_symmetry_group_IT_number 164
_symmetry_cell_setting 'hexagonal'
loop_
_space_group_symop_operation_xyz
x,y,z
-y,x-y,z
-x+y,-x,z
x-y,-y,-z
-x,-x+y,-z
y,x,-z
-x,-y,-z
y,-x+y,-z
x-y,x,-z
-x+y,y,z
x,x-y,z
-y,-x,z
loop_
_atom_site_type_symbol
_atom_site_label
_atom_site_fract_x
_atom_site_fract_y
_atom_site_fract_z
Si Si1 0.416969 0.334786 0.337431
Si Si2 0.246756 0.246756 0.000000
Si Si3 0.083087 0.417185 0.229351
Si Si4 0.749176 0.748035 0.876781
Si Si5 0.583396 0.665277 0.445508
O O1 0.407208 0.203604 0.342233
O O2 0.560249 0.439752 0.341073
O O3 0.356359 0.341610 0.278407
O O4 0.340324 0.348210 0.388845
O O5 0.316450 0.304724 0.939658
O O6 0.226727 0.113364 0.010843
O O7 0.206373 0.412745 0.241979
O O8 0.118285 0.559143 0.228094
O O9 0.021437 0.354874 0.169293
O O10 0.737736 0.868868 0.865869
O O11 0.893158 0.786316 0.871796
O O12 0.653512 0.653512 0.500000
O O13 0.590740 0.795370 0.448103
O O14 0.440305 0.559696 0.445256
#
# Coordination Sequence:
#
# PCOD8323676 Si02
#       5
#    12   6  12  12  12
#     4  10  20  34  53  75  98 124 155 195 241 287
#     4   8  13  22  39  64  92 120 150 186 230 280
#     4  10  20  33  49  68  92 124 160 197 235 278
#     4   9  16  27  45  69  95 121 151 190 237 286
#     4  10  20  34  54  78 104 134 167 203 239 277
#
# _framework density 17.115468
#
# number of rings (size 3 to 8) (size 9 to 14) (size 15 to 20)
#    0.000    2.444    0.000    3.000    0.000    1.778 
#    0.000    5.000    0.000   10.222    0.000    0.000 
#    0.000    0.000    0.000    0.000    0.000    0.000 
#
# Total GULP energy -669349.761367 kJ/mol
# GULP energy per Si atom -12395.365951 kJ/mol
# Density = 1.707651 g / cm^3
# Si number density = 17.115468 Si / 1000 Ang^3
#
#
#
# Elastic Constant Matrix: (Units=GPa)
#
#
# Indices 1 2 3 4 5 6 
#
# 1 93.1977 59.9056 53.7673 3.0300 0.0000 0.0000
# 2 59.9056 93.1977 53.7673 -3.0300 0.0000 0.0000
# 3 53.7673 53.7673 146.4843 0.0000 0.0000 0.0000
# 4 3.0300 -3.0300 0.0000 23.5938 0.0000 0.0000
# 5 0.0000 0.0000 0.0000 0.0000 23.5938 3.0300
# 6 0.0000 0.0000 0.0000 0.0000 3.0300 16.6460
#
#
#
# Elastic Compliance Matrix: (Units=1/GPa)
#
#
# Indices 1 2 3 4 5 6 
#
# 1 0.019778 -0.010978 -0.003230 -0.003950 0.000000 0.000000
# 2 -0.010978 0.019778 -0.003230 0.003950 0.000000 0.000000
# 3 -0.003230 -0.003230 0.009198 0.000000 0.000000 0.000000
# 4 -0.003950 0.003950 0.000000 0.043399 0.000000 0.000000
# 5 0.000000 0.000000 0.000000 0.000000 0.043399 -0.007900
# 6 0.000000 0.000000 0.000000 0.000000 -0.007900 0.061512
#
#
# Mechanical properties :
#
#
# Convention : Reuss Voigt Hill
#
# Bulk Modulus (GPa) = 72.05709 74.19556 73.12632
# Shear Modulus (GPa) = 21.13572 23.79600 22.46586
#
# Velocity S-wave (km/s) = 3.51791 3.73275 3.62692
# Velocity P-wave (km/s) = 7.66113 7.87540 7.76901
#
# Compressibility (1/GPa) = 0.01387788
#
# Stress axis : x y z
#
# Youngs Moduli (GPa) = 50.56064 50.56064 108.72006
#
# Poissons Ratio (x) = 0.55505 0.35118
# Poissons Ratio (y) = 0.55505 0.35118
# Poissons Ratio (z) = 0.16332 0.16332
#
# Static dielectric constant tensor:
#      x y z
#    x 3.003650 0.000000 0.000000 
#    y 0.000000 3.003650 0.000000 
#    z 0.000000 0.000000 3.572090 
# 
# 
# High freq. dielectric constant tensor:
#      x y z
#    x 1.646090 0.000000 0.000000 
#    y 0.000000 1.646090 0.000000 
#    z 0.000000 0.000000 1.688980 
# 
# From -- ./inp_files/4833.got.cif
#   From: 2010.03.12/outbox.cif.g09.slc.cpg/sg164_3_cif.got.tgz:4833.got - 2010.04.02 06:32:59.
