data_PCOD8323440
_publ_section_title
;
Structure prediction by ZEFSAII (Michael W. Deem and Ramdas Pophale) SiO2 
 PCOD8323440
Probable space group: P -3 M 1
;
_chemical_formula_sum "Si O2"
_cell_formula_units_Z 84
_cell_length_a 20.696204
_cell_length_b 20.696204
_cell_length_c 13.179984
_cell_angle_alpha 90.000000
_cell_angle_beta 90.000000
_cell_angle_gamma 120.000000
_cell_volume 4889.077344
_symmetry_space_group_name_H-M "P -3 M 1"
_symmetry_group_IT_number 164
_symmetry_cell_setting 'hexagonal'
loop_
_space_group_symop_operation_xyz
x,y,z
-y,x-y,z
-x+y,-x,z
x-y,-y,-z
-x,-x+y,-z
y,x,-z
-x,-y,-z
y,-x+y,-z
x-y,x,-z
-x+y,y,z
x,x-y,z
-y,-x,z
loop_
_atom_site_type_symbol
_atom_site_label
_atom_site_fract_x
_atom_site_fract_y
_atom_site_fract_z
Si Si1 0.924122 0.228730 0.275857
Si Si2 0.181116 0.666648 0.391797
Si Si3 0.614692 0.732314 0.527102
Si Si4 0.666769 0.485078 0.023895
Si Si5 0.372041 0.477658 0.184330
Si Si6 0.660081 0.622387 0.105980
Si Si7 0.236545 0.191658 0.592635
O O1 0.851882 0.148119 0.275901
O O2 0.917458 0.283146 0.359913
O O3 0.936373 0.262673 0.163963
O O4 0.994035 0.219226 0.307804
O O5 0.186722 0.593361 0.400947
O O6 0.263613 0.736388 0.400148
O O7 0.126391 0.664549 0.481836
O O8 0.145628 0.672263 0.285806
O O9 0.601033 0.800517 0.535521
O O10 0.680795 0.751338 0.448368
O O11 0.744333 0.488666 0.054270
O O12 0.598945 0.401056 0.040416
O O13 0.672481 0.511193 0.907796
O O14 0.651187 0.540746 0.092107
O O15 0.455237 0.544764 0.187679
O O16 0.381147 0.405537 0.174202
O O17 0.661418 0.661418 0.000000
O O18 0.180040 0.180040 0.500000
O O19 0.226359 0.113180 0.626428
#
# Coordination Sequence:
#
# PCOD8323440 Si02
#       7
#    12  12  12  12  12  12  12
#     4  10  19  33  52  73 100 130 161 197 238 287
#     4  10  18  29  45  68  98 130 166 205 249 298
#     4   8  16  29  46  67  93 127 160 192 232 282
#     4  10  19  32  50  72  98 127 163 206 257 310
#     4   9  18  31  47  67  93 125 161 205 254 302
#     4  10  20  34  51  71  95 128 168 213 257 294
#     4   9  16  29  51  77 102 128 160 199 245 296
#
# _framework density 17.181156000000001
#
# number of rings (size 3 to 8) (size 9 to 14) (size 15 to 20)
#    0.000    2.571    0.000    3.714    0.000    1.714 
#    0.000    6.429    0.000    8.143    0.000    2.000 
#    0.000    0.571    0.000    0.000    0.000    0.000 
#
# Total GULP energy -1041130.638577 kJ/mol
# GULP energy per Si atom -12394.412364 kJ/mol
# Density = 1.714205 g / cm^3
# Si number density = 17.181156 Si / 1000 Ang^3
#
#
#
# Elastic Constant Matrix: (Units=GPa)
#
#
# Indices 1 2 3 4 5 6 
#
# 1 112.6717 33.3197 42.0557 1.0268 0.0000 0.0000
# 2 33.3197 112.6717 42.0557 -1.0268 0.0000 0.0000
# 3 42.0557 42.0557 63.6791 0.0000 0.0000 0.0000
# 4 1.0268 -1.0268 0.0000 22.0958 0.0000 0.0000
# 5 0.0000 0.0000 0.0000 0.0000 22.0958 1.0268
# 6 0.0000 0.0000 0.0000 0.0000 1.0268 39.6760
#
#
#
# Elastic Compliance Matrix: (Units=1/GPa)
#
#
# Indices 1 2 3 4 5 6 
#
# 1 0.011837 -0.000780 -0.007302 -0.000586 0.000000 0.000000
# 2 -0.000780 0.011837 -0.007302 0.000586 0.000000 0.000000
# 3 -0.007302 -0.007302 0.025349 0.000000 0.000000 0.000000
# 4 -0.000586 0.000586 0.000000 0.045312 0.000000 0.000000
# 5 0.000000 0.000000 0.000000 0.000000 0.045312 -0.001173
# 6 0.000000 0.000000 0.000000 0.000000 -0.001173 0.025234
#
#
# Mechanical properties :
#
#
# Convention : Reuss Voigt Hill
#
# Bulk Modulus (GPa) = 54.78372 58.20940 56.49656
# Shear Modulus (GPa) = 24.78490 28.21294 26.49892
#
# Velocity S-wave (km/s) = 3.80223 4.05666 3.93150
# Velocity P-wave (km/s) = 7.15759 7.47632 7.31869
#
# Compressibility (1/GPa) = 0.01825360
#
# Stress axis : x y z
#
# Youngs Moduli (GPa) = 84.48053 84.48053 39.44923
#
# Poissons Ratio (x) = 0.06591 0.28807
# Poissons Ratio (y) = 0.06591 0.28807
# Poissons Ratio (z) = 0.61690 0.61690
#
# Static dielectric constant tensor:
#      x y z
#    x 3.201230 0.000000 0.000000 
#    y 0.000000 3.201230 0.000000 
#    z 0.000000 0.000000 3.171150 
# 
# 
# High freq. dielectric constant tensor:
#      x y z
#    x 1.658310 0.000000 0.000000 
#    y 0.000000 1.658310 0.000000 
#    z 0.000000 0.000000 1.650530 
# 
# From -- ./inp_files/2892.got.cif
#   From: 2010.03.12/outbox.cif.g09.slc.cpg/sg164_2_cif.got.tgz:2892.got - 2010.04.02 06:32:59.
