data_PCOD8323255
_publ_section_title
;
Structure prediction by ZEFSAII (Michael W. Deem and Ramdas Pophale) SiO2 
 PCOD8323255
Probable space group: P -3 1 C
;
_chemical_formula_sum "Si O2"
_cell_formula_units_Z 48
_cell_length_a 12.241009
_cell_length_b 12.241009
_cell_length_c 17.447270
_cell_angle_alpha 90.000000
_cell_angle_beta 90.000000
_cell_angle_gamma 120.000000
_cell_volume 2264.084065
_symmetry_space_group_name_H-M "P -3 1 C"
_symmetry_group_IT_number 163
_symmetry_cell_setting 'hexagonal'
loop_
_space_group_symop_operation_xyz
x,y,z
-y,x-y,z
-x+y,-x,z
-y,-x,1/2-z
-x+y,y,1/2-z
x,x-y,1/2-z
-x,-y,-z
y,-x+y,-z
x-y,x,-z
y,x,1/2+z
x-y,-y,1/2+z
-x,-x+y,1/2+z
loop_
_atom_site_type_symbol
_atom_site_label
_atom_site_fract_x
_atom_site_fract_y
_atom_site_fract_z
Si Si1 0.723004 0.821952 0.163015
Si Si2 0.000000 0.000000 0.160277
Si Si3 0.666668 0.333334 0.941039
Si Si4 0.074580 0.453754 0.606646
Si Si5 0.666667 0.333334 0.122399
Si Si6 0.345750 0.914134 0.431416
O O1 0.712314 0.856157 0.250000
O O2 0.867155 0.881200 0.133833
O O3 0.650924 0.669774 0.155704
O O4 0.670655 0.892313 0.110401
O O5 0.000000 0.000000 0.250000
O O6 0.802610 0.372316 0.909053
O O7 0.666668 0.333334 0.031593
O O8 0.211417 0.533584 0.648475
O O9 0.080042 0.403260 0.522021
O O10 0.034726 0.561615 0.598508
#
# Coordination Sequence:
#
# PCOD8323255 Si02
#       6
#    12   4   4  12   4  12
#     4  11  24  42  66  92 130 172 218 272 330 387
#     4   9  24  45  58  80 124 174 205 257 325 387
#     4   9  15  36  55  91 130 163 208 266 319 360
#     4  10  22  38  64  96 128 174 212 272 325 385
#     4   9  21  36  63  92 128 162 214 269 322 393
#     4  10  20  37  62  93 131 168 217 261 325 388
#
# _framework density 21.200626
#
# number of rings (size 3 to 8) (size 9 to 14) (size 15 to 20)
#    0.000    2.000    2.500    0.000    7.000    1.000 
#    0.000    1.250    0.000    0.000    0.000    0.000 
#    0.000    0.000    0.000    0.000    0.000    0.000 
#
# Total GULP energy -594858.872200 kJ/mol
# GULP energy per Si atom -12392.893171 kJ/mol
# Density = 2.115237 g / cm^3
# Si number density = 21.200626 Si / 1000 Ang^3
#
#
#
# Elastic Constant Matrix: (Units=GPa)
#
#
# Indices 1 2 3 4 5 6 
#
# 1 112.9150 40.4988 37.3845 0.0001 0.4712 0.0001
# 2 40.4988 112.9145 37.3844 -0.0003 -0.4713 -0.0005
# 3 37.3845 37.3844 59.6257 0.0000 0.0000 0.0000
# 4 0.0001 -0.0003 0.0000 21.8538 0.0002 -0.4714
# 5 0.4712 -0.4713 0.0000 0.0002 21.8536 -0.0001
# 6 0.0001 -0.0005 0.0000 -0.4714 -0.0001 36.2077
#
#
#
# Elastic Compliance Matrix: (Units=1/GPa)
#
#
# Indices 1 2 3 4 5 6 
#
# 1 0.011600 -0.002213 -0.005885 0.000000 -0.000298 0.000000
# 2 -0.002213 0.011600 -0.005885 0.000000 0.000298 0.000000
# 3 -0.005885 -0.005885 0.024151 0.000000 0.000000 0.000000
# 4 0.000000 0.000000 0.000000 0.045772 0.000000 0.000596
# 5 -0.000298 0.000298 0.000000 0.000000 0.045772 0.000000
# 6 0.000000 0.000000 0.000000 0.000596 0.000000 0.027626
#
#
# Mechanical properties :
#
#
# Convention : Reuss Voigt Hill
#
# Bulk Modulus (GPa) = 51.59053 57.33229 54.46141
# Shear Modulus (GPa) = 24.88190 27.32883 26.10537
#
# Velocity S-wave (km/s) = 3.42956 3.59424 3.51286
# Velocity P-wave (km/s) = 6.33007 6.65779 6.49600
#
# Compressibility (1/GPa) = 0.01938340
#
# Stress axis : x y z
#
# Youngs Moduli (GPa) = 86.20852 86.20812 41.40565
#
# Poissons Ratio (x) = 0.19079 0.24368
# Poissons Ratio (y) = 0.19079 0.24368
# Poissons Ratio (z) = 0.50736 0.50736
#
# Static dielectric constant tensor:
#      x y z
#    x 4.242030 0.000000 0.000000 
#    y 0.000000 4.242030 0.000000 
#    z 0.000000 0.000000 3.491710 
# 
# 
# High freq. dielectric constant tensor:
#      x y z
#    x 1.841590 0.000000 0.000000 
#    y 0.000000 1.841590 0.000000 
#    z 0.000000 0.000000 1.793680 
# 
# From -- ./inp_files/3478.got.cif
#   From: 2010.03.12/outbox.cif.g09.slc.cpg/sg163_2_cif.got.tgz:3478.got - 2010.04.02 06:30:25.
