data_PCOD8323616
_publ_section_title
;
Structure prediction by ZEFSAII (Michael W. Deem and Ramdas Pophale) SiO2 
 PCOD8323616
Probable space group: P -3 M 1
;
_chemical_formula_sum "Si O2"
_cell_formula_units_Z 72
_cell_length_a 12.945792
_cell_length_b 12.945792
_cell_length_c 30.130631
_cell_angle_alpha 90.000000
_cell_angle_beta 90.000000
_cell_angle_gamma 120.000000
_cell_volume 4373.167465
_symmetry_space_group_name_H-M "P -3 M 1"
_symmetry_group_IT_number 164
_symmetry_cell_setting 'hexagonal'
loop_
_space_group_symop_operation_xyz
x,y,z
-y,x-y,z
-x+y,-x,z
x-y,-y,-z
-x,-x+y,-z
y,x,-z
-x,-y,-z
y,-x+y,-z
x-y,x,-z
-x+y,y,z
x,x-y,z
-y,-x,z
loop_
_atom_site_type_symbol
_atom_site_label
_atom_site_fract_x
_atom_site_fract_y
_atom_site_fract_z
Si Si1 0.905344 0.571653 0.074851
Si Si2 0.242050 0.000000 0.000000
Si Si3 0.905378 0.333153 0.175271
Si Si4 0.904695 0.571072 0.654443
Si Si5 0.242003 0.000000 0.500000
Si Si6 0.667204 0.092067 0.420469
Si Si7 0.332482 0.427687 0.244776
O O1 0.767298 0.534596 0.070180
O O2 0.916546 0.458273 0.060907
O O3 0.950689 0.612963 0.125035
O O4 0.988896 0.681014 0.043266
O O5 0.226870 0.113435 0.992912
O O6 0.880008 0.440004 0.184003
O O7 0.785532 0.214469 0.185363
O O8 0.999563 0.335147 0.210288
O O9 0.793177 0.586353 0.640181
O O10 0.863560 0.431780 0.649372
O O11 0.945041 0.614880 0.704756
O O12 0.018671 0.652272 0.624275
O O13 0.226152 0.113076 0.510961
O O14 0.329288 0.026119 0.458883
O O15 0.547332 0.094664 0.432627
O O16 0.773348 0.226653 0.413396
O O17 0.217330 0.434660 0.233231
O O18 0.442509 0.557492 0.236311
#
# Coordination Sequence:
#
# PCOD8323616 Si02
#       7
#    12   6  12  12   6  12  12
#     4   9  17  30  48  68  89 114 146 185 227 269
#     4  10  20  32  46  64  88 118 150 184 222 268
#     4   9  17  29  46  68  92 118 148 183 224 269
#     4   9  17  30  48  69  91 117 151 189 227 265
#     4  10  20  34  52  72  94 122 158 198 234 270
#     4  10  20  33  49  70  97 126 154 186 228 278
#     4   9  17  29  46  67  91 119 150 185 223 263
#
# _framework density 16.464040000000001
#
# number of rings (size 3 to 8) (size 9 to 14) (size 15 to 20)
#    0.000    2.667    0.000    2.000    0.000    4.000 
#    0.000    0.000    0.000    8.333    0.000    0.000 
#    0.000    0.000    0.000    0.000    0.000    0.000 
#
# Total GULP energy -892787.655555 kJ/mol
# GULP energy per Si atom -12399.828549 kJ/mol
# Density = 1.642657 g / cm^3
# Si number density = 16.464040 Si / 1000 Ang^3
#
#
#
# Elastic Constant Matrix: (Units=GPa)
#
#
# Indices 1 2 3 4 5 6 
#
# 1 99.5063 55.0978 63.2331 0.8167 0.0000 0.0000
# 2 55.0978 99.5063 63.2331 -0.8167 0.0000 0.0000
# 3 63.2331 63.2331 103.7065 0.0000 0.0000 0.0000
# 4 0.8167 -0.8167 0.0000 27.6732 0.0000 0.0000
# 5 0.0000 0.0000 0.0000 0.0000 27.6732 0.8167
# 6 0.0000 0.0000 0.0000 0.0000 0.8167 22.2042
#
#
#
# Elastic Compliance Matrix: (Units=1/GPa)
#
#
# Indices 1 2 3 4 5 6 
#
# 1 0.017723 -0.004819 -0.007868 -0.000665 0.000000 0.000000
# 2 -0.004819 0.017723 -0.007868 0.000665 0.000000 0.000000
# 3 -0.007868 -0.007868 0.019237 0.000000 0.000000 0.000000
# 4 -0.000665 0.000665 0.000000 0.036175 0.000000 0.000000
# 5 0.000000 0.000000 0.000000 0.000000 0.036175 -0.001331
# 6 0.000000 0.000000 0.000000 0.000000 -0.001331 0.045085
#
#
# Mechanical properties :
#
#
# Convention : Reuss Voigt Hill
#
# Bulk Modulus (GPa) = 73.67303 73.98302 73.82803
# Shear Modulus (GPa) = 22.96148 23.58713 23.27431
#
# Velocity S-wave (km/s) = 3.73855 3.78914 3.76393
# Velocity P-wave (km/s) = 7.96747 8.01106 7.98930
#
# Compressibility (1/GPa) = 0.01357349
#
# Stress axis : x y z
#
# Youngs Moduli (GPa) = 56.42229 56.42229 51.98182
#
# Poissons Ratio (x) = 0.27191 0.40900
# Poissons Ratio (y) = 0.27191 0.40900
# Poissons Ratio (z) = 0.44394 0.44394
#
# Static dielectric constant tensor:
#      x y z
#    x 3.065190 0.000000 0.000000 
#    y 0.000000 3.065190 0.000000 
#    z 0.000000 0.000000 3.276350 
# 
# 
# High freq. dielectric constant tensor:
#      x y z
#    x 1.630350 0.000000 0.000000 
#    y 0.000000 1.630350 0.000000 
#    z 0.000000 0.000000 1.642050 
# 
# From -- ./inp_files/5569.got.cif
#   From: 2010.03.12/outbox.cif.g09.slc.cpg/sg164_3_cif.got.tgz:5569.got - 2010.04.02 06:32:59.
