data_PCOD8323270
_publ_section_title
;
Structure prediction by ZEFSAII (Michael W. Deem and Ramdas Pophale) SiO2 
 PCOD8323270
Probable space group: P -3 1 C
;
_chemical_formula_sum "Si O2"
_cell_formula_units_Z 64
_cell_length_a 15.004170
_cell_length_b 15.004170
_cell_length_c 16.518620
_cell_angle_alpha 90.000000
_cell_angle_beta 90.000000
_cell_angle_gamma 120.000000
_cell_volume 3220.537397
_symmetry_space_group_name_H-M "P -3 1 C"
_symmetry_group_IT_number 163
_symmetry_cell_setting 'hexagonal'
loop_
_space_group_symop_operation_xyz
x,y,z
-y,x-y,z
-x+y,-x,z
-y,-x,1/2-z
-x+y,y,1/2-z
x,x-y,1/2-z
-x,-y,-z
y,-x+y,-z
x-y,x,-z
y,x,1/2+z
x-y,-y,1/2+z
-x,-x+y,1/2+z
loop_
_atom_site_type_symbol
_atom_site_label
_atom_site_fract_x
_atom_site_fract_y
_atom_site_fract_z
Si Si1 0.944384 0.265221 0.264658
Si Si2 0.000000 0.000000 0.403013
Si Si3 0.072868 0.849672 0.122298
Si Si4 0.137516 0.472339 0.902784
Si Si5 0.267397 0.964480 0.019465
Si Si6 0.327028 0.449963 0.887905
O O1 0.849425 0.150576 0.250000
O O2 0.937808 0.330278 0.338030
O O3 0.949153 0.332307 0.187196
O O4 0.046219 0.259122 0.291400
O O5 0.059967 0.112518 0.365226
O O6 0.000000 0.000000 0.500000
O O7 0.191670 0.900911 0.093878
O O8 0.990110 0.779390 0.052584
O O9 0.251700 0.497079 0.877357
O O10 0.115708 0.565505 0.904580
O O11 0.109596 0.419801 0.990697
O O12 0.365855 0.075774 0.040808
#
# Coordination Sequence:
#
# PCOD8323270 Si02
#       6
#    12   4  12  12  12  12
#     4   9  22  37  56  83 119 156 198 245 296 364
#     4  12  21  30  61  83 118 171 199 239 280 360
#     4  11  21  37  55  87 124 163 205 234 299 366
#     4  10  21  37  59  86 111 153 198 255 309 365
#     4  11  20  36  59  84 121 156 199 247 301 366
#     4  11  21  38  59  85 116 151 202 259 313 361
#
# _framework density 19.87246
#
# number of rings (size 3 to 8) (size 9 to 14) (size 15 to 20)
#    0.000    1.500    3.750    1.500    5.250    0.750 
#    0.000    1.875    0.000    0.000    0.000    0.000 
#    0.000    0.000    0.000    0.000    0.000    0.000 
#
# Total GULP energy -792854.340823 kJ/mol
# GULP energy per Si atom -12388.349075 kJ/mol
# Density = 1.982723 g / cm^3
# Si number density = 19.872460 Si / 1000 Ang^3
#
#
#
# Elastic Constant Matrix: (Units=GPa)
#
#
# Indices 1 2 3 4 5 6 
#
# 1 105.6870 37.9451 31.1896 0.0001 -5.5646 0.0000
# 2 37.9451 105.6870 31.1896 -0.0001 5.5646 0.0000
# 3 31.1896 31.1896 51.0193 0.0000 0.0000 0.0000
# 4 0.0001 -0.0001 0.0000 25.8373 0.0000 5.5646
# 5 -5.5646 5.5646 0.0000 0.0000 25.8373 0.0001
# 6 0.0000 0.0000 0.0000 5.5646 0.0001 33.8710
#
#
#
# Elastic Compliance Matrix: (Units=1/GPa)
#
#
# Indices 1 2 3 4 5 6 
#
# 1 0.012391 -0.002912 -0.005795 0.000000 0.003296 0.000000
# 2 -0.002912 0.012391 -0.005795 0.000000 -0.003296 0.000000
# 3 -0.005795 -0.005795 0.026685 0.000000 0.000000 0.000000
# 4 0.000000 0.000000 0.000000 0.040123 0.000000 -0.006592
# 5 0.003296 -0.003296 0.000000 0.000000 0.040123 0.000000
# 6 0.000000 0.000000 0.000000 -0.006592 0.000000 0.030607
#
#
# Mechanical properties :
#
#
# Convention : Reuss Voigt Hill
#
# Bulk Modulus (GPa) = 44.51513 51.44911 47.98212
# Shear Modulus (GPa) = 25.14933 27.91373 26.53153
#
# Velocity S-wave (km/s) = 3.56130 3.75192 3.65785
# Velocity P-wave (km/s) = 6.27371 6.68694 6.48362
#
# Compressibility (1/GPa) = 0.02246427
#
# Stress axis : x y z
#
# Youngs Moduli (GPa) = 80.70296 80.70296 37.47370
#
# Poissons Ratio (x) = 0.23503 0.21715
# Poissons Ratio (y) = 0.23503 0.21715
# Poissons Ratio (z) = 0.46765 0.46765
#
# Static dielectric constant tensor:
#      x y z
#    x 3.543600 0.000000 0.000000 
#    y 0.000000 3.543600 0.000000 
#    z 0.000000 0.000000 3.754170 
# 
# 
# High freq. dielectric constant tensor:
#      x y z
#    x 1.765480 0.000000 0.000000 
#    y 0.000000 1.765480 0.000000 
#    z 0.000000 0.000000 1.770660 
# 
# From -- ./inp_files/3078.got.cif
#   From: 2010.03.12/outbox.cif.g09.slc.cpg/sg163_2_cif.got.tgz:3078.got - 2010.04.02 06:30:25.
