data_PCOD8323104
_publ_section_title
;
Structure prediction by ZEFSAII (Michael W. Deem and Ramdas Pophale) SiO2 
 PCOD8323104
Probable space group: P -3 1 M 
;
_chemical_formula_sum "Si O2"
_cell_formula_units_Z 66
_cell_length_a 20.358660
_cell_length_b 20.358660
_cell_length_c 9.287724
_cell_angle_alpha 90.000000
_cell_angle_beta 90.000000
_cell_angle_gamma 120.000000
_cell_volume 3333.790555
_symmetry_space_group_name_H-M "P -3 1 M "
_symmetry_group_IT_number 162
_symmetry_cell_setting 'hexagonal'
loop_
_space_group_symop_operation_xyz
x,y,z
-y,x-y,z
-x+y,-x,z
-y,-x,-z
-x+y,y,-z
x,x-y,-z
-x,-y,-z
y,-x+y,-z
x-y,x,-z
y,x,z
x-y,-y,z
-x,-x+y,z
loop_
_atom_site_type_symbol
_atom_site_label
_atom_site_fract_x
_atom_site_fract_y
_atom_site_fract_z
Si Si1 0.294075 0.843887 0.497516
Si Si2 0.089843 0.592469 0.735190
Si Si3 0.358589 0.915655 0.780571
Si Si4 0.820471 0.910236 0.500000
Si Si5 0.087438 0.301194 0.312913
Si Si6 0.407898 0.136152 0.062447
O O1 0.248445 0.751556 0.500000
O O2 0.378516 0.880988 0.428362
O O3 0.296335 0.866982 0.663202
O O4 0.240287 0.867856 0.415390
O O5 0.113566 0.532862 0.793128
O O6 0.136380 0.667748 0.828877
O O7 0.000000 0.560350 0.747131
O O8 0.404591 0.000000 0.719368
O O9 0.318973 0.916841 0.929050
O O10 0.873252 0.873252 0.533063
O O11 0.766654 0.869960 0.359909
O O12 0.109451 0.327693 0.145247
O O13 0.000000 0.274377 0.333716
O O14 0.440661 0.220331 0.000000
#
# Coordination Sequence:
#
# PCOD8323104 Si02
#       6
#    12  12  12   6  12  12
#     4  11  20  34  54  84 116 147 184 235 294 342
#     4  10  21  38  57  80 111 148 189 240 289 336
#     4  11  21  35  60  84 106 144 193 234 280 344
#     4  10  21  38  62  88 120 160 202 238 280 346
#     4  10  20  37  57  83 119 149 181 235 292 337
#     4  11  22  36  54  83 118 149 183 231 291 345
#
# _framework density 19.797283
#
# number of rings (size 3 to 8) (size 9 to 14) (size 15 to 20)
#    0.000    1.455    0.909    7.727    0.000    2.909 
#    0.000    1.818    0.000   14.545    0.000    0.000 
#    0.000    3.636    0.000    0.000    0.000    0.000 
#
# Total GULP energy -817951.979210 kJ/mol
# GULP energy per Si atom -12393.211806 kJ/mol
# Density = 1.975222 g / cm^3
# Si number density = 19.797283 Si / 1000 Ang^3
#
#
#
# Elastic Constant Matrix: (Units=GPa)
#
#
# Indices 1 2 3 4 5 6 
#
# 1 98.2381 53.7759 43.0839 0.0001 -5.6697 0.0000
# 2 53.7759 98.2381 43.0839 -0.0001 5.6697 0.0000
# 3 43.0839 43.0839 119.6460 0.0000 0.0000 0.0000
# 4 0.0001 -0.0001 0.0000 23.1893 0.0000 5.6697
# 5 -5.6697 5.6697 0.0000 0.0000 23.1893 0.0001
# 6 0.0000 0.0000 0.0000 5.6697 0.0001 22.2311
#
#
#
# Elastic Compliance Matrix: (Units=1/GPa)
#
#
# Indices 1 2 3 4 5 6 
#
# 1 0.016126 -0.007861 -0.002976 0.000000 0.005865 0.000000
# 2 -0.007861 0.016126 -0.002976 0.000000 -0.005865 0.000000
# 3 -0.002976 -0.002976 0.010502 0.000000 0.000000 0.000000
# 4 0.000000 0.000000 0.000000 0.045991 0.000000 -0.011729
# 5 0.005865 -0.005865 0.000000 0.000000 0.045991 0.000000
# 6 0.000000 0.000000 0.000000 -0.011729 0.000000 0.047973
#
#
# Mechanical properties :
#
#
# Convention : Reuss Voigt Hill
#
# Bulk Modulus (GPa) = 66.10679 66.22332 66.16506
# Shear Modulus (GPa) = 23.21497 25.46717 24.34107
#
# Velocity S-wave (km/s) = 3.42809 3.59053 3.51025
# Velocity P-wave (km/s) = 7.00952 7.12127 7.06562
#
# Compressibility (1/GPa) = 0.01512704
#
# Stress axis : x y z
#
# Youngs Moduli (GPa) = 62.01135 62.01135 95.22418
#
# Poissons Ratio (x) = 0.48745 0.28342
# Poissons Ratio (y) = 0.48745 0.28342
# Poissons Ratio (z) = 0.18457 0.18457
#
# Static dielectric constant tensor:
#      x y z
#    x 3.626890 0.000000 0.000000 
#    y 0.000000 3.626890 0.000000 
#    z 0.000000 0.000000 3.901140 
# 
# 
# High freq. dielectric constant tensor:
#      x y z
#    x 1.763120 0.000000 0.000000 
#    y 0.000000 1.763120 0.000000 
#    z 0.000000 0.000000 1.777920 
# 
# From -- ./inp_files/1564.got.cif
#   From: 2010.03.12/outbox.cif.g09.slc.cpg/sg162_1_cif.got.tgz:1564.got - 2010.04.02 06:27:41.
