data_PCOD8323406
_publ_section_title
;
Structure prediction by ZEFSAII (Michael W. Deem and Ramdas Pophale) SiO2 
 PCOD8323406
Probable space group: P -3 M 1
;
_chemical_formula_sum "Si O2"
_cell_formula_units_Z 96
_cell_length_a 20.987310
_cell_length_b 20.987310
_cell_length_c 17.712100
_cell_angle_alpha 90.000000
_cell_angle_beta 90.000000
_cell_angle_gamma 120.000000
_cell_volume 6756.382714
_symmetry_space_group_name_H-M "P -3 M 1"
_symmetry_group_IT_number 164
_symmetry_cell_setting 'hexagonal'
loop_
_space_group_symop_operation_xyz
x,y,z
-y,x-y,z
-x+y,-x,z
x-y,-y,-z
-x,-x+y,-z
y,x,-z
-x,-y,-z
y,-x+y,-z
x-y,x,-z
-x+y,y,z
x,x-y,z
-y,-x,z
loop_
_atom_site_type_symbol
_atom_site_label
_atom_site_fract_x
_atom_site_fract_y
_atom_site_fract_z
Si Si1 0.000175 0.147722 0.587114
Si Si2 0.189428 0.523068 0.025197
Si Si3 0.934148 0.727949 0.050565
Si Si4 0.141432 0.001478 0.157327
Si Si5 0.521780 0.188072 0.148946
Si Si6 0.693015 0.064000 0.179556
Si Si7 0.947130 0.201353 0.284317
Si Si8 0.409937 0.967554 0.080864
O O1 0.922031 0.077970 0.611040
O O2 0.000000 0.167760 0.500000
O O3 0.063349 0.126697 0.603363
O O4 0.018682 0.222122 0.633135
O O5 0.252938 0.505875 0.048672
O O6 0.219267 0.609634 0.036171
O O7 0.164730 0.501899 0.938467
O O8 0.120020 0.475010 0.078570
O O9 0.855404 0.710807 0.011991
O O10 0.970951 0.809233 0.083483
O O11 0.912692 0.668405 0.116345
O O12 0.000000 0.729985 0.000000
O O13 0.105785 0.052893 0.172498
O O14 0.187369 0.003001 0.229389
O O15 0.081017 0.918984 0.141316
O O16 0.589410 0.178820 0.176233
O O17 0.544442 0.272221 0.161537
O O18 0.450553 0.133851 0.197594
O O19 0.720444 0.044293 0.257681
O O20 0.615901 0.997210 0.149216
O O21 0.861238 0.138763 0.279291
O O22 0.493715 0.987430 0.097414
O O23 0.405629 0.000000 0.000000
#
# Coordination Sequence:
#
# PCOD8323406 Si02
#       8
#    12  12  12  12  12  12  12  12
#     4   9  16  27  45  67  88 110 139 177 217 252
#     4   9  17  28  42  58  76  97 127 169 217 258
#     4  10  20  30  38  48  64  90 128 168 201 233
#     4   9  16  26  38  50  65  89 123 164 205 237
#     4  10  18  28  43  60  77  96 125 165 208 249
#     4  11  19  30  41  56  77 109 133 157 198 249
#     4   9  18  29  39  55  81 107 133 161 195 246
#     4  10  18  30  43  59  80 103 137 180 217 249
#
# _framework density 14.208786
#
# number of rings (size 3 to 8) (size 9 to 14) (size 15 to 20)
#    0.000    2.375    1.250    3.875    0.000    1.500 
#    0.000    4.375    0.000    2.000    0.000    0.000 
#    0.000    2.000    0.000    0.000    0.000    0.000 
#
# Total GULP energy -1189792.732681 kJ/mol
# GULP energy per Si atom -12393.674299 kJ/mol
# Density = 1.417645 g / cm^3
# Si number density = 14.208786 Si / 1000 Ang^3
#
#
#
# Elastic Constant Matrix: (Units=GPa)
#
#
# Indices 1 2 3 4 5 6 
#
# 1 79.5757 40.7304 27.4611 -0.7816 0.0000 0.0000
# 2 40.7304 79.5757 27.4611 0.7816 0.0000 0.0000
# 3 27.4611 27.4611 50.0858 0.0000 0.0000 0.0000
# 4 -0.7816 0.7816 0.0000 17.0159 0.0000 0.0000
# 5 0.0000 0.0000 0.0000 0.0000 17.0159 -0.7816
# 6 0.0000 0.0000 0.0000 0.0000 -0.7816 19.4226
#
#
#
# Elastic Compliance Matrix: (Units=1/GPa)
#
#
# Indices 1 2 3 4 5 6 
#
# 1 0.018439 -0.007352 -0.006079 0.001185 0.000000 0.000000
# 2 -0.007352 0.018439 -0.006079 -0.001185 0.000000 0.000000
# 3 -0.006079 -0.006079 0.026632 0.000000 0.000000 0.000000
# 4 0.001185 -0.001185 0.000000 0.058878 0.000000 0.000000
# 5 0.000000 0.000000 0.000000 0.000000 0.058878 0.002369
# 6 0.000000 0.000000 0.000000 0.000000 0.002369 0.051582
#
#
# Mechanical properties :
#
#
# Convention : Reuss Voigt Hill
#
# Bulk Modulus (GPa) = 40.83223 44.50472 42.66847
# Shear Modulus (GPa) = 17.85526 18.26317 18.05922
#
# Velocity S-wave (km/s) = 3.54875 3.58906 3.56896
# Velocity P-wave (km/s) = 6.75213 6.96887 6.86135
#
# Compressibility (1/GPa) = 0.02449046
#
# Stress axis : x y z
#
# Youngs Moduli (GPa) = 54.23264 54.23264 37.54925
#
# Poissons Ratio (x) = 0.39871 0.22826
# Poissons Ratio (y) = 0.39871 0.22826
# Poissons Ratio (z) = 0.32968 0.32968
#
# Static dielectric constant tensor:
#      x y z
#    x 2.837830 0.000000 0.000000 
#    y 0.000000 2.837830 0.000000 
#    z 0.000000 0.000000 2.512410 
# 
# 
# High freq. dielectric constant tensor:
#      x y z
#    x 1.544080 0.000000 0.000000 
#    y 0.000000 1.544080 0.000000 
#    z 0.000000 0.000000 1.481490 
# 
# From -- ./inp_files/4299.got.cif
#   From: 2010.03.12/outbox.cif.g09.slc.cpg/sg164_3_cif.got.tgz:4299.got - 2010.04.02 06:32:59.
