data_PCOD8323661
_publ_section_title
;
Structure prediction by ZEFSAII (Michael W. Deem and Ramdas Pophale) SiO2 
 PCOD8323661
Probable space group: P -3 M 1
;
_chemical_formula_sum "Si O2"
_cell_formula_units_Z 66
_cell_length_a 12.476408
_cell_length_b 12.476408
_cell_length_c 28.427125
_cell_angle_alpha 90.000000
_cell_angle_beta 90.000000
_cell_angle_gamma 120.000000
_cell_volume 3832.151833
_symmetry_space_group_name_H-M "P -3 M 1"
_symmetry_group_IT_number 164
_symmetry_cell_setting 'hexagonal'
loop_
_space_group_symop_operation_xyz
x,y,z
-y,x-y,z
-x+y,-x,z
x-y,-y,-z
-x,-x+y,-z
y,x,-z
-x,-y,-z
y,-x+y,-z
x-y,x,-z
-x+y,y,z
x,x-y,z
-y,-x,z
loop_
_atom_site_type_symbol
_atom_site_label
_atom_site_fract_x
_atom_site_fract_y
_atom_site_fract_z
Si Si1 0.417229 0.082365 0.456045
Si Si2 0.753463 0.753463 0.000000
Si Si3 0.915249 0.332404 0.188486
Si Si4 0.083845 0.666348 0.366316
Si Si5 0.750037 0.750451 0.722213
Si Si6 0.251490 0.252573 0.898356
O O1 0.559764 0.119527 0.460647
O O2 0.409035 0.204518 0.455855
O O3 0.339620 0.000000 0.500000
O O4 0.357629 0.009948 0.408311
O O5 0.695876 0.683647 0.049685
O O6 0.886866 0.773732 0.991094
O O7 0.926903 0.463452 0.197709
O O8 0.771223 0.228778 0.187681
O O9 0.980710 0.336233 0.139308
O O10 0.987399 0.306132 0.229098
O O11 0.115257 0.557629 0.361204
O O12 0.209227 0.790774 0.377812
O O13 0.021718 0.674823 0.318403
O O14 0.888822 0.777643 0.726854
O O15 0.755045 0.877523 0.709600
O O16 0.108161 0.216322 0.892849
O O17 0.260882 0.130441 0.889807
#
# Coordination Sequence:
#
# PCOD8323661 Si02
#       6
#    12   6  12  12  12  12
#     4  10  20  34  53  76 102 132 167 208 252 296
#     4   8  13  22  39  66  96 122 148 182 230 284
#     4  10  20  33  48  66  90 122 160 199 237 278
#     4  10  20  34  53  76 103 135 169 203 238 281
#     4  10  20  34  53  76 101 127 156 194 241 291
#     4   9  16  27  46  71  97 122 150 189 237 287
#
# _framework density 17.222698999999999
#
# number of rings (size 3 to 8) (size 9 to 14) (size 15 to 20)
#    0.000    2.364    0.000    3.182    0.000    1.455 
#    0.000    4.091    0.000   14.182    0.000    0.000 
#    0.000    0.000    0.000    0.000    0.000    0.000 
#
# Total GULP energy -818215.838704 kJ/mol
# GULP energy per Si atom -12397.209677 kJ/mol
# Density = 1.718350 g / cm^3
# Si number density = 17.222699 Si / 1000 Ang^3
#
#
#
# Elastic Constant Matrix: (Units=GPa)
#
#
# Indices 1 2 3 4 5 6 
#
# 1 86.1138 42.5893 39.6461 9.6435 0.0000 0.0000
# 2 42.5893 86.1138 39.6461 -9.6435 0.0000 0.0000
# 3 39.6461 39.6461 105.3765 0.0000 0.0000 0.0000
# 4 9.6435 -9.6435 0.0000 33.8973 0.0000 0.0000
# 5 0.0000 0.0000 0.0000 0.0000 33.8973 9.6435
# 6 0.0000 0.0000 0.0000 0.0000 9.6435 21.7623
#
#
#
# Elastic Compliance Matrix: (Units=1/GPa)
#
#
# Indices 1 2 3 4 5 6 
#
# 1 0.018202 -0.008088 -0.003805 -0.007479 0.000000 0.000000
# 2 -0.008088 0.018202 -0.003805 0.007479 0.000000 0.000000
# 3 -0.003805 -0.003805 0.012353 0.000000 0.000000 0.000000
# 4 -0.007479 0.007479 0.000000 0.033756 0.000000 0.000000
# 5 0.000000 0.000000 0.000000 0.000000 0.033756 -0.014958
# 6 0.000000 0.000000 0.000000 0.000000 -0.014958 0.052580
#
#
# Mechanical properties :
#
#
# Convention : Reuss Voigt Hill
#
# Bulk Modulus (GPa) = 57.60248 57.92969 57.76609
# Shear Modulus (GPa) = 24.26796 28.29289 26.28042
#
# Velocity S-wave (km/s) = 3.75783 4.05750 3.91054
# Velocity P-wave (km/s) = 7.23510 7.46055 7.34869
#
# Compressibility (1/GPa) = 0.01736036
#
# Stress axis : x y z
#
# Youngs Moduli (GPa) = 54.93902 54.93902 80.95101
#
# Poissons Ratio (x) = 0.44433 0.30804
# Poissons Ratio (y) = 0.44433 0.30804
# Poissons Ratio (z) = 0.20906 0.20906
#
# Static dielectric constant tensor:
#      x y z
#    x 3.061490 0.000000 0.000000 
#    y 0.000000 3.061490 0.000000 
#    z 0.000000 0.000000 3.516060 
# 
# 
# High freq. dielectric constant tensor:
#      x y z
#    x 1.654140 0.000000 0.000000 
#    y 0.000000 1.654140 0.000000 
#    z 0.000000 0.000000 1.690200 
# 
# From -- ./inp_files/5519.got.cif
#   From: 2010.03.12/outbox.cif.g09.slc.cpg/sg164_3_cif.got.tgz:5519.got - 2010.04.02 06:32:59.
