data_PCOD8323171
_publ_section_title
;
Structure prediction by ZEFSAII (Michael W. Deem and Ramdas Pophale) SiO2 
 PCOD8323171
Probable space group: P -3 1 M 
;
_chemical_formula_sum "Si O2"
_cell_formula_units_Z 40
_cell_length_a 18.953873
_cell_length_b 18.953873
_cell_length_c 8.856926
_cell_angle_alpha 90.000000
_cell_angle_beta 90.000000
_cell_angle_gamma 120.000000
_cell_volume 2755.558151
_symmetry_space_group_name_H-M "P -3 1 M "
_symmetry_group_IT_number 162
_symmetry_cell_setting 'hexagonal'
loop_
_space_group_symop_operation_xyz
x,y,z
-y,x-y,z
-x+y,-x,z
-y,-x,-z
-x+y,y,-z
x,x-y,-z
-x,-y,-z
y,-x+y,-z
x-y,x,-z
y,x,z
x-y,-y,z
-x,-x+y,z
loop_
_atom_site_type_symbol
_atom_site_label
_atom_site_fract_x
_atom_site_fract_y
_atom_site_fract_z
Si Si1 0.666667 0.333335 0.178631
Si Si2 0.464668 0.372105 0.175868
Si Si3 0.092563 0.464667 0.175868
Si Si4 0.245637 0.754368 0.322847
O O1 0.712300 0.287730 0.235206
O O2 0.666668 0.333334 0.000000
O O3 0.398211 0.398211 0.216700
O O4 0.554671 0.445330 0.217380
O O5 0.442930 0.291978 0.273466
O O6 0.460685 0.351087 0.000000
O O7 0.150947 0.442922 0.273470
O O8 0.000000 0.398211 0.216699
O O9 0.252954 0.747047 0.500000
#
# Coordination Sequence:
#
# PCOD8323171 Si02
#       4
#     4  12  12  12
#     4  12  22  32  43  57  82 116 154 186 211 254
#     4   9  18  32  48  63  82 114 150 180 214 258
#     4   9  18  32  48  63  82 114 150 180 214 258
#     4  12  22  30  44  67  89 110 141 185 232 263
#
# _framework density 14.516116
#
# number of rings (size 3 to 8) (size 9 to 14) (size 15 to 20)
#    0.000    1.800    3.000    5.400    0.000    1.200 
#    0.000    3.000    0.000    0.000    0.000    0.000 
#    0.000    0.000    0.000    0.900    0.000   17.400 
#
# Total GULP energy -496004.893936 kJ/mol
# GULP energy per Si atom -12400.122348 kJ/mol
# Density = 1.448308 g / cm^3
# Si number density = 14.516116 Si / 1000 Ang^3
#
#
#
# Elastic Constant Matrix: (Units=GPa)
#
#
# Indices 1 2 3 4 5 6 
#
# 1 76.5860 47.1973 45.9739 -0.0030 -0.0086 -0.0018
# 2 47.1973 76.5853 45.9737 0.0028 0.0085 0.0039
# 3 45.9739 45.9737 101.1280 -0.0010 -0.0006 0.0025
# 4 -0.0030 0.0028 -0.0010 12.9496 -0.0006 0.0119
# 5 -0.0086 0.0085 -0.0006 -0.0006 12.9505 0.0029
# 6 -0.0018 0.0039 0.0025 0.0119 0.0029 14.6997
#
#
#
# Elastic Compliance Matrix: (Units=1/GPa)
#
#
# Indices 1 2 3 4 5 6 
#
# 1 0.023112 -0.010915 -0.005545 0.000007 0.000022 0.000007
# 2 -0.010915 0.023113 -0.005545 -0.000008 -0.000023 -0.000007
# 3 -0.005545 -0.005545 0.014930 0.000001 0.000001 -0.000002
# 4 0.000007 -0.000008 0.000001 0.077222 0.000004 -0.000062
# 5 0.000022 -0.000023 0.000001 0.000004 0.077217 -0.000015
# 6 0.000007 -0.000007 -0.000002 -0.000062 -0.000015 0.068028
#
#
# Mechanical properties :
#
#
# Convention : Reuss Voigt Hill
#
# Bulk Modulus (GPa) = 58.32647 59.17657 58.75152
# Shear Modulus (GPa) = 14.99932 15.79692 15.39812
#
# Velocity S-wave (km/s) = 3.21797 3.30242 3.26046
# Velocity P-wave (km/s) = 7.35356 7.44284 7.39833
#
# Compressibility (1/GPa) = 0.01714487
#
# Stress axis : x y z
#
# Youngs Moduli (GPa) = 43.26701 43.26658 66.97806
#
# Poissons Ratio (x) = 0.47224 0.37140
# Poissons Ratio (y) = 0.47225 0.37141
# Poissons Ratio (z) = 0.23992 0.23992
#
# Static dielectric constant tensor:
#      x y z
#    x 2.849560 0.000000 -0.000010 
#    y 0.000000 2.849560 -0.000020 
#    z -0.000010 -0.000020 2.762850 
# 
# 
# High freq. dielectric constant tensor:
#      x y z
#    x 1.530760 0.000000 0.000000 
#    y 0.000000 1.530760 0.000000 
#    z 0.000000 0.000000 1.559730 
# 
# From -- ./inp_files/1102.got.cif
#   From: 2010.03.12/outbox.cif.g09.slc.cpg/sg162_1_cif.got.tgz:1102.got - 2010.04.02 06:27:41.
