data_PCOD8323850
_publ_section_title
;
Structure prediction by ZEFSAII (Michael W. Deem and Ramdas Pophale) SiO2 
 PCOD8323850
Probable space group: P -3 C 1
;
_chemical_formula_sum "Si O2"
_cell_formula_units_Z 84
_cell_length_a 36.740641
_cell_length_b 36.740641
_cell_length_c 5.180013
_cell_angle_alpha 90.000000
_cell_angle_beta 90.000000
_cell_angle_gamma 120.000000
_cell_volume 6055.568754
_symmetry_space_group_name_H-M "P -3 C 1"
_symmetry_group_IT_number 165
_symmetry_cell_setting 'hexagonal'
loop_
_space_group_symop_operation_xyz
x,y,z
-y,x-y,z
-x+y,-x,z
x-y,-y,1/2-z
-x,-x+y,1/2-z
y,x,1/2-z
-x,-y,-z
y,-x+y,-z
x-y,x,-z
-x+y,y,1/2+z
x,x-y,1/2+z
-y,-x,1/2+z
loop_
_atom_site_type_symbol
_atom_site_label
_atom_site_fract_x
_atom_site_fract_y
_atom_site_fract_z
Si Si1 0.486178 0.389791 0.263131
Si Si2 0.807064 0.567270 0.233628
Si Si3 0.758216 0.288247 0.737737
Si Si4 0.097411 0.400148 0.740710
Si Si5 0.585567 0.046937 0.762204
Si Si6 0.431110 0.815576 0.221965
Si Si7 0.672245 0.047283 0.757749
O O1 0.445843 0.343729 0.262186
O O2 0.489264 0.415415 0.521184
O O3 0.526549 0.385342 0.237263
O O4 0.485732 0.417277 0.023845
O O5 0.786123 0.578310 0.469384
O O6 0.794573 0.518607 0.241017
O O7 0.857078 0.595590 0.251832
O O8 0.729596 0.270647 0.487318
O O9 0.777952 0.337814 0.733480
O O10 0.073177 0.373791 0.488308
O O11 0.070799 0.373293 0.985935
O O12 0.627850 0.044989 0.752925
O O13 0.545870 0.000000 0.750000
O O14 0.397471 0.812019 0.431657
O O15 0.664669 0.000000 0.750000
#
# Coordination Sequence:
#
# PCOD8323850 Si02
#       7
#    12  12  12  12  12  12  12
#     4  10  19  32  48  69  92 113 144 172 202 228
#     4  10  19  30  47  70  92 113 134 160 203 247
#     4  10  21  38  58  75  92 109 131 155 185 230
#     4  10  17  29  45  63  92 113 138 174 201 233
#     4   9  17  29  48  67  88 119 150 177 198 223
#     4  12  24  38  57  78  97 113 134 162 199 231
#     4   9  17  26  41  64  87 116 147 174 201 228
#
# _framework density 13.871529000000001
#
# number of rings (size 3 to 8) (size 9 to 14) (size 15 to 20)
#    0.000    2.000    1.429    3.429    0.000    3.429 
#    0.000    0.000    0.000   14.286    0.000    0.000 
#    0.000    0.000    0.000    0.000    0.000    0.000 
#
# Total GULP energy -1041837.805133 kJ/mol
# GULP energy per Si atom -12402.831013 kJ/mol
# Density = 1.383996 g / cm^3
# Si number density = 13.871529 Si / 1000 Ang^3
#
#
#
# Elastic Constant Matrix: (Units=GPa)
#
#
# Indices 1 2 3 4 5 6 
#
# 1 48.4025 28.3306 18.9346 -1.0054 0.0000 0.0000
# 2 28.3306 48.4025 18.9346 1.0054 0.0000 0.0000
# 3 18.9346 18.9346 92.6043 0.0000 0.0000 0.0000
# 4 -1.0054 1.0054 0.0000 9.4986 0.0000 0.0000
# 5 0.0000 0.0000 0.0000 0.0000 9.4986 -1.0054
# 6 0.0000 0.0000 0.0000 0.0000 -1.0054 10.0359
#
#
#
# Elastic Compliance Matrix: (Units=1/GPa)
#
#
# Indices 1 2 3 4 5 6 
#
# 1 0.032425 -0.017930 -0.002964 0.005330 0.000000 0.000000
# 2 -0.017930 0.032425 -0.002964 -0.005330 0.000000 0.000000
# 3 -0.002964 -0.002964 0.012011 0.000000 0.000000 0.000000
# 4 0.005330 -0.005330 0.000000 0.106406 0.000000 0.000000
# 5 0.000000 0.000000 0.000000 0.000000 0.106406 0.010660
# 6 0.000000 0.000000 0.000000 0.000000 0.010660 0.100710
#
#
# Mechanical properties :
#
#
# Convention : Reuss Voigt Hill
#
# Bulk Modulus (GPa) = 34.31076 35.75655 35.03365
# Shear Modulus (GPa) = 11.16537 14.02061 12.59299
#
# Velocity S-wave (km/s) = 2.84018 3.18267 3.01629
# Velocity P-wave (km/s) = 5.96186 6.27206 6.11893
#
# Compressibility (1/GPa) = 0.02914538
#
# Stress axis : x y z
#
# Youngs Moduli (GPa) = 30.84053 30.84053 83.25972
#
# Poissons Ratio (x) = 0.55297 0.24676
# Poissons Ratio (y) = 0.55297 0.24676
# Poissons Ratio (z) = 0.09140 0.09140
#
# Static dielectric constant tensor:
#      x y z
#    x 2.533940 0.000000 0.000000 
#    y 0.000000 2.533940 0.000000 
#    z 0.000000 0.000000 3.005360 
# 
# 
# High freq. dielectric constant tensor:
#      x y z
#    x 1.495240 0.000000 0.000000 
#    y 0.000000 1.495240 0.000000 
#    z 0.000000 0.000000 1.555330 
# 
# From -- ./inp_files/244.got.cif
#   From: 2010.03.12/outbox.cif.g09.slc.cpg/sg165_1_cif.got.tgz:244.got - 2010.04.02 06:36:38.
