data_PCOD8323520
_publ_section_title
;
Structure prediction by ZEFSAII (Michael W. Deem and Ramdas Pophale) SiO2 
 PCOD8323520
Probable space group: P -3 M 1
;
_chemical_formula_sum "Si O2"
_cell_formula_units_Z 84
_cell_length_a 20.831488
_cell_length_b 20.831488
_cell_length_c 11.645905
_cell_angle_alpha 90.000000
_cell_angle_beta 90.000000
_cell_angle_gamma 120.000000
_cell_volume 4376.676635
_symmetry_space_group_name_H-M "P -3 M 1"
_symmetry_group_IT_number 164
_symmetry_cell_setting 'hexagonal'
loop_
_space_group_symop_operation_xyz
x,y,z
-y,x-y,z
-x+y,-x,z
x-y,-y,-z
-x,-x+y,-z
y,x,-z
-x,-y,-z
y,-x+y,-z
x-y,x,-z
-x+y,y,z
x,x-y,z
-y,-x,z
loop_
_atom_site_type_symbol
_atom_site_label
_atom_site_fract_x
_atom_site_fract_y
_atom_site_fract_z
Si Si1 0.149558 0.149080 0.367584
Si Si2 0.406518 0.131390 0.702293
Si Si3 0.272768 0.975121 0.737080
Si Si4 0.484829 0.667309 0.105651
Si Si5 0.920758 0.333000 0.459474
Si Si6 0.134125 0.413818 0.903465
Si Si7 0.476966 0.810697 0.697781
O O1 0.173430 0.173430 0.500000
O O2 0.128104 0.064052 0.350301
O O3 0.217333 0.200515 0.282439
O O4 0.078282 0.156564 0.335224
O O5 0.380453 0.190227 0.729911
O O6 0.484998 0.156722 0.765005
O O7 0.414613 0.128107 0.566453
O O8 0.344632 0.054044 0.751186
O O9 0.277721 0.930419 0.627047
O O10 0.273113 0.935277 0.856129
O O11 0.466824 0.733412 0.081086
O O12 0.410867 0.589134 0.087448
O O13 0.551599 0.675624 0.022127
O O14 0.876180 0.366848 0.396049
O O15 0.000000 0.400166 0.500000
O O16 0.195642 0.391283 0.923238
O O17 0.158498 0.480823 0.815824
O O18 0.391279 0.782557 0.719029
O O19 0.485822 0.742911 0.651576
#
# Coordination Sequence:
#
# PCOD8323520 Si02
#       7
#    12  12  12  12  12  12  12
#     4  10  19  30  48  78 116 153 186 221 262 311
#     4  10  20  34  52  76 106 137 174 217 258 311
#     4  10  19  33  54  77 103 143 183 217 265 314
#     4  10  21  38  59  80 104 135 171 215 269 326
#     4   9  19  34  51  73 100 134 176 218 259 307
#     4   9  19  35  53  75 101 130 172 220 260 308
#     4  10  19  31  49  72  99 129 163 208 259 312
#
# _framework density 19.192644000000001
#
# number of rings (size 3 to 8) (size 9 to 14) (size 15 to 20)
#    0.000    2.286    0.000    3.429    0.000    4.857 
#    0.000    8.571    0.000    1.714    0.000    0.000 
#    0.000    0.000    0.000   10.857    0.000    3.571 
#
# Total GULP energy -1041246.393953 kJ/mol
# GULP energy per Si atom -12395.790404 kJ/mol
# Density = 1.914896 g / cm^3
# Si number density = 19.192644 Si / 1000 Ang^3
#
#
#
# Elastic Constant Matrix: (Units=GPa)
#
#
# Indices 1 2 3 4 5 6 
#
# 1 94.1276 37.8213 37.4636 -2.9218 0.0000 0.0000
# 2 37.8213 94.1276 37.4636 2.9218 0.0000 0.0000
# 3 37.4636 37.4636 70.6733 0.0000 0.0000 0.0000
# 4 -2.9218 2.9218 0.0000 26.6447 0.0000 0.0000
# 5 0.0000 0.0000 0.0000 0.0000 26.6447 -2.9218
# 6 0.0000 0.0000 0.0000 0.0000 -2.9218 28.1531
#
#
#
# Elastic Compliance Matrix: (Units=1/GPa)
#
#
# Indices 1 2 3 4 5 6 
#
# 1 0.014403 -0.003561 -0.005748 0.001970 0.000000 0.000000
# 2 -0.003561 0.014403 -0.005748 -0.001970 0.000000 0.000000
# 3 -0.005748 -0.005748 0.020243 0.000000 0.000000 0.000000
# 4 0.001970 -0.001970 0.000000 0.037963 0.000000 0.000000
# 5 0.000000 0.000000 0.000000 0.000000 0.037963 0.003940
# 6 0.000000 0.000000 0.000000 0.000000 0.003940 0.035929
#
#
# Mechanical properties :
#
#
# Convention : Reuss Voigt Hill
#
# Bulk Modulus (GPa) = 52.80434 53.82509 53.31471
# Shear Modulus (GPa) = 25.33832 26.03383 25.68607
#
# Velocity S-wave (km/s) = 3.63741 3.68699 3.66229
# Velocity P-wave (km/s) = 6.72410 6.79932 6.76182
#
# Compressibility (1/GPa) = 0.01893784
#
# Stress axis : x y z
#
# Youngs Moduli (GPa) = 69.42789 69.42789 49.39957
#
# Poissons Ratio (x) = 0.24723 0.28393
# Poissons Ratio (y) = 0.24723 0.28393
# Poissons Ratio (z) = 0.39904 0.39904
#
# Static dielectric constant tensor:
#      x y z
#    x 3.446760 0.000000 0.000000 
#    y 0.000000 3.446760 0.000000 
#    z 0.000000 0.000000 3.556190 
# 
# 
# High freq. dielectric constant tensor:
#      x y z
#    x 1.742670 0.000000 0.000000 
#    y 0.000000 1.742670 0.000000 
#    z 0.000000 0.000000 1.735780 
# 
# From -- ./inp_files/2881.got.cif
#   From: 2010.03.12/outbox.cif.g09.slc.cpg/sg164_2_cif.got.tgz:2881.got - 2010.04.02 06:32:59.
