data_PCOD8323903
_publ_section_title
;
Structure prediction by ZEFSAII (Michael W. Deem and Ramdas Pophale) SiO2 
 PCOD8323903
Probable space group: P -3 C 1
;
_chemical_formula_sum "Si O2"
_cell_formula_units_Z 48
_cell_length_a 24.216817
_cell_length_b 24.216817
_cell_length_c 4.880346
_cell_angle_alpha 90.000000
_cell_angle_beta 90.000000
_cell_angle_gamma 120.000000
_cell_volume 2478.650905
_symmetry_space_group_name_H-M "P -3 C 1"
_symmetry_group_IT_number 165
_symmetry_cell_setting 'hexagonal'
loop_
_space_group_symop_operation_xyz
x,y,z
-y,x-y,z
-x+y,-x,z
x-y,-y,1/2-z
-x,-x+y,1/2-z
y,x,1/2-z
-x,-y,-z
y,-x+y,-z
x-y,x,-z
-x+y,y,1/2+z
x,x-y,1/2+z
-y,-x,1/2+z
loop_
_atom_site_type_symbol
_atom_site_label
_atom_site_fract_x
_atom_site_fract_y
_atom_site_fract_z
Si Si1 0.000000 0.306659 0.250000
Si Si2 0.000000 0.381286 0.750000
Si Si3 0.201342 0.870487 0.047167
Si Si4 0.274512 0.479594 0.545493
Si Si5 0.482429 0.592106 0.854276
O O1 0.944452 0.239340 0.368053
O O2 0.027420 0.357272 0.502238
O O3 0.053775 0.445427 0.892562
O O4 0.141507 0.829765 0.247870
O O5 0.253391 0.847894 0.036699
O O6 0.266373 0.496178 0.856106
O O7 0.346191 0.522166 0.437868
O O8 0.465020 0.568919 0.542262
#
# Coordination Sequence:
#
# PCOD8323903 Si02
#       5
#     6   6  12  12  12
#     4  12  22  37  60  84 124 152 188 235 270 322
#     4  12  24  37  56  86 118 152 182 225 288 350
#     4  10  21  36  57  84 112 150 190 222 267 326
#     4  10  21  38  59  78 102 137 184 232 275 344
#     4  12  24  39  57  82 113 145 181 233 296 354
#
# _framework density 19.365372000000001
#
# number of rings (size 3 to 8) (size 9 to 14) (size 15 to 20)
#    0.000    1.000    2.500    5.250    7.000    0.000 
#    0.000    0.000    0.000   10.000    0.000    0.000 
#    0.000    0.000    0.000    7.500    0.000    0.000 
#
# Total GULP energy -595237.138629 kJ/mol
# GULP energy per Si atom -12400.773721 kJ/mol
# Density = 1.932130 g / cm^3
# Si number density = 19.365372 Si / 1000 Ang^3
#
#
#
# Elastic Constant Matrix: (Units=GPa)
#
#
# Indices 1 2 3 4 5 6 
#
# 1 71.2560 27.7904 12.0744 -11.8103 0.0000 0.0000
# 2 27.7904 71.2560 12.0744 11.8103 0.0000 0.0000
# 3 12.0744 12.0744 78.3034 0.0000 0.0000 0.0000
# 4 -11.8103 11.8103 0.0000 29.6874 0.0000 0.0000
# 5 0.0000 0.0000 0.0000 0.0000 29.6874 -11.8103
# 6 0.0000 0.0000 0.0000 0.0000 -11.8103 21.7328
#
#
#
# Elastic Compliance Matrix: (Units=1/GPa)
#
#
# Indices 1 2 3 4 5 6 
#
# 1 0.019921 -0.009431 -0.001618 0.011677 0.000000 0.000000
# 2 -0.009431 0.019921 -0.001618 -0.011677 0.000000 0.000000
# 3 -0.001618 -0.001618 0.013270 0.000000 0.000000 0.000000
# 4 0.011677 -0.011677 0.000000 0.042975 0.000000 0.000000
# 5 0.000000 0.000000 0.000000 0.000000 0.042975 0.023354
# 6 0.000000 0.000000 0.000000 0.000000 0.023354 0.058705
#
#
# Mechanical properties :
#
#
# Convention : Reuss Voigt Hill
#
# Bulk Modulus (GPa) = 35.99655 36.07708 36.03681
# Shear Modulus (GPa) = 21.51835 27.47994 24.49915
#
# Velocity S-wave (km/s) = 3.33705 3.77108 3.56068
# Velocity P-wave (km/s) = 5.78587 6.13445 5.96271
#
# Compressibility (1/GPa) = 0.02778044
#
# Stress axis : x y z
#
# Youngs Moduli (GPa) = 50.19703 50.19703 75.35948
#
# Poissons Ratio (x) = 0.47340 0.12191
# Poissons Ratio (y) = 0.47340 0.12191
# Poissons Ratio (z) = 0.08120 0.08120
#
# Static dielectric constant tensor:
#      x y z
#    x 3.219300 0.000000 0.000000 
#    y 0.000000 3.219300 0.000000 
#    z 0.000000 0.000000 3.776780 
# 
# 
# High freq. dielectric constant tensor:
#      x y z
#    x 1.721750 0.000000 0.000000 
#    y 0.000000 1.721750 0.000000 
#    z 0.000000 0.000000 1.781160 
# 
# From -- ./inp_files/140.got.cif
#   From: 2010.03.12/outbox.cif.g09.slc.cpg/sg165_1_cif.got.tgz:140.got - 2010.04.02 06:36:38.
