data_PCOD8323417
_publ_section_title
;
Structure prediction by ZEFSAII (Michael W. Deem and Ramdas Pophale) SiO2 
 PCOD8323417
Probable space group: P -3 M 1
;
_chemical_formula_sum "Si O2"
_cell_formula_units_Z 96
_cell_length_a 16.716976
_cell_length_b 16.716976
_cell_length_c 23.524190
_cell_angle_alpha 90.000000
_cell_angle_beta 90.000000
_cell_angle_gamma 120.000000
_cell_volume 5693.256466
_symmetry_space_group_name_H-M "P -3 M 1"
_symmetry_group_IT_number 164
_symmetry_cell_setting 'hexagonal'
loop_
_space_group_symop_operation_xyz
x,y,z
-y,x-y,z
-x+y,-x,z
x-y,-y,-z
-x,-x+y,-z
y,x,-z
-x,-y,-z
y,-x+y,-z
x-y,x,-z
-x+y,y,z
x,x-y,z
-y,-x,z
loop_
_atom_site_type_symbol
_atom_site_label
_atom_site_fract_x
_atom_site_fract_y
_atom_site_fract_z
Si Si1 0.385757 0.433428 0.641929
Si Si2 0.514120 0.666883 0.324793
Si Si3 0.003333 0.818972 0.638157
Si Si4 0.814459 0.815018 0.935242
Si Si5 0.074488 0.747415 0.545811
Si Si6 0.479726 0.332878 0.240657
Si Si7 0.312610 0.246982 0.165712
Si Si8 0.066131 0.309823 0.265000
O O1 0.458406 0.541595 0.633462
O O2 0.438867 0.374533 0.633309
O O3 0.310341 0.405979 0.592710
O O4 0.345613 0.423270 0.706951
O O5 0.513986 0.756993 0.351315
O O6 0.410143 0.589858 0.308397
O O7 0.578284 0.697146 0.268307
O O8 0.910081 0.820161 0.632280
O O9 0.998995 0.738331 0.679514
O O10 0.027712 0.799964 0.575737
O O11 0.083019 0.916981 0.661885
O O12 0.901110 0.802219 0.917657
O O13 0.721603 0.749434 0.898227
O O14 0.845585 0.922793 0.927412
O O15 0.784413 0.784413 0.000000
O O16 0.174391 0.825610 0.520175
O O17 0.000000 0.678162 0.500000
O O18 0.495056 0.247528 0.255100
O O19 0.577435 0.422566 0.229664
O O20 0.420691 0.314652 0.181943
O O21 0.286265 0.143133 0.180028
O O22 0.253344 0.273570 0.205294
O O23 0.135879 0.271758 0.269664
#
# Coordination Sequence:
#
# PCOD8323417 Si02
#       8
#    12  12  12  12  12  12  12  12
#     4  10  20  35  55  75  97 124 156 199 244 291
#     4  10  19  31  48  70  96 124 155 190 232 281
#     4  10  19  31  45  64  90 121 155 192 234 281
#     4   9  17  29  45  66  96 136 179 217 250 285
#     4  11  22  35  52  72  95 125 161 197 235 282
#     4  10  19  32  51  75 101 127 155 192 243 300
#     4  10  18  28  44  68  97 128 161 202 247 289
#     4  10  18  28  45  66  92 123 155 192 240 294
#
# _framework density 16.862055000000002
#
# number of rings (size 3 to 8) (size 9 to 14) (size 15 to 20)
#    0.000    2.000    2.500    2.000    0.000    3.250 
#    0.000    0.000    0.000    6.625    0.000    0.875 
#    0.000    0.000    0.000    0.500    0.000    0.000 
#
# Total GULP energy -1189373.047172 kJ/mol
# GULP energy per Si atom -12389.302575 kJ/mol
# Density = 1.682368 g / cm^3
# Si number density = 16.862055 Si / 1000 Ang^3
#
#
#
# Elastic Constant Matrix: (Units=GPa)
#
#
# Indices 1 2 3 4 5 6 
#
# 1 82.6061 32.0962 30.2915 0.6354 0.0000 0.0000
# 2 32.0962 82.6061 30.2915 -0.6354 0.0000 0.0000
# 3 30.2915 30.2915 74.8825 0.0000 0.0000 0.0000
# 4 0.6354 -0.6354 0.0000 21.8608 0.0000 0.0000
# 5 0.0000 0.0000 0.0000 0.0000 21.8608 0.6354
# 6 0.0000 0.0000 0.0000 0.0000 0.6354 25.2549
#
#
#
# Elastic Compliance Matrix: (Units=1/GPa)
#
#
# Indices 1 2 3 4 5 6 
#
# 1 0.015450 -0.004363 -0.004485 -0.000576 0.000000 0.000000
# 2 -0.004363 0.015450 -0.004485 0.000576 0.000000 0.000000
# 3 -0.004485 -0.004485 0.016983 0.000000 0.000000 0.000000
# 4 -0.000576 0.000576 0.000000 0.045777 0.000000 0.000000
# 5 0.000000 0.000000 0.000000 0.000000 0.045777 -0.001152
# 6 0.000000 0.000000 0.000000 0.000000 -0.001152 0.039625
#
#
# Mechanical properties :
#
#
# Convention : Reuss Voigt Hill
#
# Bulk Modulus (GPa) = 47.13178 47.27257 47.20217
# Shear Modulus (GPa) = 23.49622 23.62301 23.55962
#
# Velocity S-wave (km/s) = 3.73693 3.74700 3.74197
# Velocity P-wave (km/s) = 6.82873 6.84220 6.83547
#
# Compressibility (1/GPa) = 0.02121711
#
# Stress axis : x y z
#
# Youngs Moduli (GPa) = 64.72569 64.72569 58.88329
#
# Poissons Ratio (x) = 0.28238 0.26409
# Poissons Ratio (y) = 0.28238 0.26409
# Poissons Ratio (z) = 0.29029 0.29029
#
# Static dielectric constant tensor:
#      x y z
#    x 3.263800 0.000000 0.000000 
#    y 0.000000 3.263800 0.000000 
#    z 0.000000 0.000000 2.965510 
# 
# 
# High freq. dielectric constant tensor:
#      x y z
#    x 1.655210 0.000000 0.000000 
#    y 0.000000 1.655210 0.000000 
#    z 0.000000 0.000000 1.610500 
# 
# From -- ./inp_files/4810.got.cif
#   From: 2010.03.12/outbox.cif.g09.slc.cpg/sg164_3_cif.got.tgz:4810.got - 2010.04.02 06:32:59.
