data_PCOD8323241
_publ_section_title
;
Structure prediction by ZEFSAII (Michael W. Deem and Ramdas Pophale) SiO2 
 PCOD8323241
Probable space group: P -3 1 C
;
_chemical_formula_sum "Si O2"
_cell_formula_units_Z 60
_cell_length_a 12.660986
_cell_length_b 12.660986
_cell_length_c 25.305131
_cell_angle_alpha 90.000000
_cell_angle_beta 90.000000
_cell_angle_gamma 120.000000
_cell_volume 3512.968687
_symmetry_space_group_name_H-M "P -3 1 C"
_symmetry_group_IT_number 163
_symmetry_cell_setting 'hexagonal'
loop_
_space_group_symop_operation_xyz
x,y,z
-y,x-y,z
-x+y,-x,z
-y,-x,1/2-z
-x+y,y,1/2-z
x,x-y,1/2-z
-x,-y,-z
y,-x+y,-z
x-y,x,-z
y,x,1/2+z
x-y,-y,1/2+z
-x,-x+y,1/2+z
loop_
_atom_site_type_symbol
_atom_site_label
_atom_site_fract_x
_atom_site_fract_y
_atom_site_fract_z
Si Si1 0.243276 0.242916 0.310366
Si Si2 0.420328 0.332158 0.402407
Si Si3 0.420328 0.088171 0.402407
Si Si4 0.246736 1.000000 0.500000
Si Si5 0.756724 0.999641 0.689634
O O1 0.356877 0.330577 0.347037
O O2 0.204957 0.102479 0.319982
O O3 0.283624 0.282089 0.250000
O O4 0.128374 0.256748 0.325791
O O5 0.460092 0.230046 0.403170
O O6 0.537806 0.462194 0.409893
O O7 0.327656 0.312084 0.449150
O O8 0.356877 0.026299 0.347037
O O9 0.327656 0.015572 0.449150
O O10 0.115169 0.884831 0.490051
#
# Coordination Sequence:
#
# PCOD8323241 Si02
#       5
#    12  12  12  12  12
#     4   9  17  30  50  75 100 126 158 200 249 294
#     4  10  20  33  49  70  98 132 166 197 231 277
#     4  10  20  33  49  70  98 132 166 197 231 277
#     4  10  20  34  54  78 100 122 152 196 248 294
#     4   9  17  30  50  75 100 126 158 200 249 294
#
# _framework density 17.079571000000001
#
# number of rings (size 3 to 8) (size 9 to 14) (size 15 to 20)
#    0.000    2.400    0.000    2.800    0.000    2.400 
#    0.000    4.000    0.000   11.200    0.000    0.000 
#    0.000    0.000    0.000    0.000    0.000    0.000 
#
# Total GULP energy -744154.468050 kJ/mol
# GULP energy per Si atom -12402.574468 kJ/mol
# Density = 1.704070 g / cm^3
# Si number density = 17.079571 Si / 1000 Ang^3
#
#
#
# Elastic Constant Matrix: (Units=GPa)
#
#
# Indices 1 2 3 4 5 6 
#
# 1 116.5242 77.6731 64.6298 0.0000 0.0000 0.0000
# 2 77.6731 116.5242 64.6298 0.0000 0.0000 0.0000
# 3 64.6298 64.6298 110.5375 0.0000 0.0000 0.0000
# 4 0.0000 0.0000 0.0000 19.8048 0.0000 0.0000
# 5 0.0000 0.0000 0.0000 0.0000 19.8048 0.0000
# 6 0.0000 0.0000 0.0000 0.0000 0.0000 19.4255
#
#
#
# Elastic Compliance Matrix: (Units=1/GPa)
#
#
# Indices 1 2 3 4 5 6 
#
# 1 0.017085 -0.008655 -0.004929 0.000000 0.000000 0.000000
# 2 -0.008655 0.017085 -0.004929 0.000000 0.000000 0.000000
# 3 -0.004929 -0.004929 0.014811 0.000000 0.000000 0.000000
# 4 0.000000 0.000000 0.000000 0.050493 0.000000 0.000000
# 5 0.000000 0.000000 0.000000 0.000000 0.050493 0.000000
# 6 0.000000 0.000000 0.000000 0.000000 0.000000 0.051479
#
#
# Mechanical properties :
#
#
# Convention : Reuss Voigt Hill
#
# Bulk Modulus (GPa) = 83.64788 84.16127 83.90457
# Shear Modulus (GPa) = 20.62242 20.91724 20.76983
#
# Velocity S-wave (km/s) = 3.47858 3.50336 3.49099
# Velocity P-wave (km/s) = 8.07563 8.10849 8.09208
#
# Compressibility (1/GPa) = 0.01195488
#
# Stress axis : x y z
#
# Youngs Moduli (GPa) = 58.53168 58.53168 67.51922
#
# Poissons Ratio (x) = 0.50657 0.33280
# Poissons Ratio (y) = 0.50657 0.33280
# Poissons Ratio (z) = 0.28850 0.28850
#
# Static dielectric constant tensor:
#      x y z
#    x 3.048710 0.000000 0.000000 
#    y 0.000000 3.048710 0.000000 
#    z 0.000000 0.000000 3.447120 
# 
# 
# High freq. dielectric constant tensor:
#      x y z
#    x 1.650320 0.000000 0.000000 
#    y 0.000000 1.650320 0.000000 
#    z 0.000000 0.000000 1.676980 
# 
# From -- ./inp_files/4087.got.cif
#   From: 2010.03.12/outbox.cif.g09.slc.cpg/sg163_3_cif.got.tgz:4087.got - 2010.04.02 06:30:25.
