data_PCOD8323299
_publ_section_title
;
Structure prediction by ZEFSAII (Michael W. Deem and Ramdas Pophale) SiO2 
 PCOD8323299
Probable space group: P -3 1 C
;
_chemical_formula_sum "Si O2"
_cell_formula_units_Z 48
_cell_length_a 10.975492
_cell_length_b 10.975492
_cell_length_c 19.810054
_cell_angle_alpha 90.000000
_cell_angle_beta 90.000000
_cell_angle_gamma 120.000000
_cell_volume 2066.637408
_symmetry_space_group_name_H-M "P -3 1 C"
_symmetry_group_IT_number 163
_symmetry_cell_setting 'hexagonal'
loop_
_space_group_symop_operation_xyz
x,y,z
-y,x-y,z
-x+y,-x,z
-y,-x,1/2-z
-x+y,y,1/2-z
x,x-y,1/2-z
-x,-y,-z
y,-x+y,-z
x-y,x,-z
y,x,1/2+z
x-y,-y,1/2+z
-x,-x+y,1/2+z
loop_
_atom_site_type_symbol
_atom_site_label
_atom_site_fract_x
_atom_site_fract_y
_atom_site_fract_z
Si Si1 0.749007 0.043277 0.615532
Si Si2 0.703974 0.741411 0.598212
Si Si3 0.331641 0.383221 0.754680
Si Si4 0.516834 0.170639 0.988112
O O1 0.645458 0.091062 0.581771
O O2 0.901696 0.145959 0.581946
O O3 0.711985 0.889847 0.592406
O O4 0.730657 0.040716 0.696771
O O5 0.682842 0.677994 0.672876
O O6 0.573786 0.640813 0.549383
O O7 0.482303 0.517698 0.750000
O O8 0.215543 0.431086 0.750000
O O9 0.677176 0.200296 0.991339
#
# Coordination Sequence:
#
# PCOD8323299 Si02
#       4
#    12  12  12  12
#     4  11  24  44  68 104 140 187 233 291 350 422
#     4  11  24  43  71 100 143 185 236 288 350 424
#     4  10  24  40  68 100 140 185 234 290 348 423
#     4  10  26  43  69 106 141 184 232 291 352 416
#
# _framework density 23.226134999999999
#
# number of rings (size 3 to 8) (size 9 to 14) (size 15 to 20)
#    0.500    1.000    0.000    3.000   10.500    2.000 
#    0.000    5.000    0.000    0.000    0.000    0.000 
#    0.000    0.000    0.000    0.000    0.000    0.000 
#
# Total GULP energy -594829.910216 kJ/mol
# GULP energy per Si atom -12392.289796 kJ/mol
# Density = 2.317327 g / cm^3
# Si number density = 23.226135 Si / 1000 Ang^3
#
#
#
# Elastic Constant Matrix: (Units=GPa)
#
#
# Indices 1 2 3 4 5 6 
#
# 1 83.5348 21.6213 23.3136 0.0010 0.1958 0.0000
# 2 21.6213 83.5348 23.3136 -0.0010 -0.1958 0.0000
# 3 23.3136 23.3136 133.6096 0.0000 0.0000 0.0000
# 4 0.0010 -0.0010 0.0000 31.5435 0.0000 -0.1958
# 5 0.1958 -0.1958 0.0000 0.0000 31.5435 0.0010
# 6 0.0000 0.0000 0.0000 -0.1958 0.0010 30.9567
#
#
#
# Elastic Compliance Matrix: (Units=1/GPa)
#
#
# Indices 1 2 3 4 5 6 
#
# 1 0.013230 -0.002923 -0.001798 -0.000001 -0.000100 0.000000
# 2 -0.002923 0.013230 -0.001798 0.000001 0.000100 0.000000
# 3 -0.001798 -0.001798 0.008112 0.000000 0.000000 0.000000
# 4 -0.000001 0.000001 0.000000 0.031703 0.000000 0.000200
# 5 -0.000100 0.000100 0.000000 0.000000 0.031703 -0.000001
# 6 0.000000 0.000000 0.000000 0.000200 -0.000001 0.032304
#
#
# Mechanical properties :
#
#
# Convention : Reuss Voigt Hill
#
# Bulk Modulus (GPa) = 46.44158 48.57513 47.50835
# Shear Modulus (GPa) = 33.22272 34.30413 33.76343
#
# Velocity S-wave (km/s) = 3.78617 3.84730 3.81686
# Velocity P-wave (km/s) = 6.25718 6.37926 6.31851
#
# Compressibility (1/GPa) = 0.02153243
#
# Stress axis : x y z
#
# Youngs Moduli (GPa) = 75.58764 75.58764 123.27215
#
# Poissons Ratio (x) = 0.22091 0.22170
# Poissons Ratio (y) = 0.22091 0.22170
# Poissons Ratio (z) = 0.13594 0.13594
#
# Static dielectric constant tensor:
#      x y z
#    x 4.071110 0.000000 0.000000 
#    y 0.000000 4.071110 0.000000 
#    z 0.000000 0.000000 4.530230 
# 
# 
# High freq. dielectric constant tensor:
#      x y z
#    x 1.923300 0.000000 0.000000 
#    y 0.000000 1.923300 0.000000 
#    z 0.000000 0.000000 1.922640 
# 
# From -- ./inp_files/3424.got.cif
#   From: 2010.03.12/outbox.cif.g09.slc.cpg/sg163_2_cif.got.tgz:3424.got - 2010.04.02 06:30:25.
