data_PCOD8323785
_publ_section_title
;
Structure prediction by ZEFSAII (Michael W. Deem and Ramdas Pophale) SiO2 
 PCOD8323785
Probable space group: P -3 M 1
;
_chemical_formula_sum "Si O2"
_cell_formula_units_Z 96
_cell_length_a 17.695185
_cell_length_b 17.695185
_cell_length_c 24.205346
_cell_angle_alpha 90.000000
_cell_angle_beta 90.000000
_cell_angle_gamma 120.000000
_cell_volume 6563.751667
_symmetry_space_group_name_H-M "P -3 M 1"
_symmetry_group_IT_number 164
_symmetry_cell_setting 'hexagonal'
loop_
_space_group_symop_operation_xyz
x,y,z
-y,x-y,z
-x+y,-x,z
x-y,-y,-z
-x,-x+y,-z
y,x,-z
-x,-y,-z
y,-x+y,-z
x-y,x,-z
-x+y,y,z
x,x-y,z
-y,-x,z
loop_
_atom_site_type_symbol
_atom_site_label
_atom_site_fract_x
_atom_site_fract_y
_atom_site_fract_z
Si Si1 0.514856 0.665549 0.500001
Si Si2 0.410654 0.999999 0.417559
Si Si3 0.590004 0.590003 0.706109
Si Si4 0.904759 0.639331 0.000001
Si Si5 0.508583 0.841260 0.220959
Si Si6 0.666778 0.505891 0.904448
Si Si7 0.160887 0.666778 0.904447
Si Si8 0.508583 0.667324 0.779038
O O1 0.516568 0.758284 0.500001
O O2 0.413986 0.586015 0.500001
O O3 0.568741 0.658959 0.447650
O O4 0.568742 0.658958 0.552351
O O5 0.500000 0.999999 0.416183
O O6 0.376474 0.999998 0.355835
O O7 0.500000 0.500000 0.705700
O O8 0.661774 0.577215 0.738550
O O9 0.577216 0.661775 0.738549
O O10 0.836954 0.673907 0.000000
O O11 0.895699 0.584310 0.945475
O O12 0.895698 0.584311 0.054528
O O13 0.000000 0.724039 0.000000
O O14 0.411109 0.822218 0.230407
O O15 0.509788 0.754894 0.236848
O O16 0.537790 0.871016 0.157867
O O17 0.736801 0.473601 0.910257
O O18 0.573467 0.426534 0.921283
O O19 0.146931 0.573466 0.921280
O O20 0.263201 0.736800 0.910257
O O21 0.128988 0.666777 0.842131
O O22 0.509786 0.754893 0.763147
O O23 0.411110 0.588891 0.769591
#
# Coordination Sequence:
#
# PCOD8323785 Si02
#       8
#    12  12  12  12  12  12  12  12
#     4   9  16  27  44  63  83 109 142 175 206 245
#     4   8  16  29  40  56  85 112 134 171 219 251
#     4   9  17  28  41  57  80 111 142 173 212 250
#     4  10  21  33  45  62  83 107 136 174 221 267
#     4   9  17  28  42  59  81 111 147 183 214 246
#     4   9  17  28  42  61  85 113 142 173 208 248
#     4   9  17  28  42  61  85 113 142 173 208 248
#     4   9  17  28  42  59  81 111 147 183 214 246
#
# _framework density 14.625783
#
# number of rings (size 3 to 8) (size 9 to 14) (size 15 to 20)
#    0.000    3.000    0.000    1.750    1.750    4.000 
#    0.000    1.250    0.000    3.125    0.000    0.000 
#    0.000    0.000    0.000   12.375    0.000   13.750 
#
# Total GULP energy -1189926.643533 kJ/mol
# GULP energy per Si atom -12395.069203 kJ/mol
# Density = 1.459249 g / cm^3
# Si number density = 14.625783 Si / 1000 Ang^3
#
#
#
# Elastic Constant Matrix: (Units=GPa)
#
#
# Indices 1 2 3 4 5 6 
#
# 1 82.7683 50.1059 50.0215 0.0001 0.0000 0.0000
# 2 50.1059 82.7683 50.0215 -0.0001 0.0000 0.0000
# 3 50.0215 50.0215 112.6706 0.0000 0.0000 0.0000
# 4 0.0001 -0.0001 0.0000 16.2715 0.0000 0.0000
# 5 0.0000 0.0000 0.0000 0.0000 16.2715 0.0001
# 6 0.0000 0.0000 0.0000 0.0000 0.0001 16.3312
#
#
#
# Elastic Compliance Matrix: (Units=1/GPa)
#
#
# Indices 1 2 3 4 5 6 
#
# 1 0.020960 -0.009656 -0.005019 0.000000 0.000000 0.000000
# 2 -0.009656 0.020960 -0.005019 0.000000 0.000000 0.000000
# 3 -0.005019 -0.005019 0.013332 0.000000 0.000000 0.000000
# 4 0.000000 0.000000 0.000000 0.061457 0.000000 0.000000
# 5 0.000000 0.000000 0.000000 0.000000 0.061457 -0.000001
# 6 0.000000 0.000000 0.000000 0.000000 -0.000001 0.061232
#
#
# Mechanical properties :
#
#
# Convention : Reuss Voigt Hill
#
# Bulk Modulus (GPa) = 63.02886 64.27834 63.65360
# Shear Modulus (GPa) = 17.60099 18.31206 17.95652
#
# Velocity S-wave (km/s) = 3.47280 3.54226 3.50770
# Velocity P-wave (km/s) = 7.69859 7.79578 7.74734
#
# Compressibility (1/GPa) = 0.01586575
#
# Stress axis : x y z
#
# Youngs Moduli (GPa) = 47.70889 47.70889 75.00863
#
# Poissons Ratio (x) = 0.46067 0.37646
# Poissons Ratio (y) = 0.46067 0.37646
# Poissons Ratio (z) = 0.23944 0.23944
#
# Static dielectric constant tensor:
#      x y z
#    x 2.640600 0.000000 0.000000 
#    y 0.000000 2.640600 0.000000 
#    z 0.000000 0.000000 3.227420 
# 
# 
# High freq. dielectric constant tensor:
#      x y z
#    x 1.531980 0.000000 0.000000 
#    y 0.000000 1.531980 0.000000 
#    z 0.000000 0.000000 1.570580 
# 
# From -- ./inp_files/5101.got.cif
#   From: 2010.03.12/outbox.cif.g09.slc.cpg/sg164_3_cif.got.tgz:5101.got - 2010.04.02 06:32:59.
