data_PCOD8323454
_publ_section_title
;
Structure prediction by ZEFSAII (Michael W. Deem and Ramdas Pophale) SiO2 
 PCOD8323454
Probable space group: P -3 M 1
;
_chemical_formula_sum "Si O2"
_cell_formula_units_Z 96
_cell_length_a 23.506173
_cell_length_b 23.506173
_cell_length_c 11.518152
_cell_angle_alpha 90.000000
_cell_angle_beta 90.000000
_cell_angle_gamma 120.000000
_cell_volume 5511.594948
_symmetry_space_group_name_H-M "P -3 M 1"
_symmetry_group_IT_number 164
_symmetry_cell_setting 'hexagonal'
loop_
_space_group_symop_operation_xyz
x,y,z
-y,x-y,z
-x+y,-x,z
x-y,-y,-z
-x,-x+y,-z
y,x,-z
-x,-y,-z
y,-x+y,-z
x-y,x,-z
-x+y,y,z
x,x-y,z
-y,-x,z
loop_
_atom_site_type_symbol
_atom_site_label
_atom_site_fract_x
_atom_site_fract_y
_atom_site_fract_z
Si Si1 0.680846 0.071152 0.955531
Si Si2 0.982321 0.733079 0.800912
Si Si3 0.360575 0.050408 0.599469
Si Si4 0.569760 0.850187 0.582342
Si Si5 0.628178 0.747191 0.818645
Si Si6 0.459627 0.794989 0.424306
Si Si7 0.999338 0.129859 0.863431
Si Si8 0.481482 0.388783 0.753017
O O1 0.739132 0.065680 0.887627
O O2 0.643823 0.100169 0.879035
O O3 0.710673 0.121225 0.064307
O O4 0.625824 0.000000 0.000000
O O5 0.965471 0.704548 0.670408
O O6 0.976576 0.798386 0.806170
O O7 0.057123 0.757346 0.832740
O O8 0.383210 0.118048 0.529914
O O9 0.415451 0.047246 0.679772
O O10 0.349529 0.000000 0.500000
O O11 0.565647 0.782824 0.614082
O O12 0.594007 0.891450 0.702927
O O13 0.498839 0.837677 0.538436
O O14 0.635266 0.817633 0.808324
O O15 0.383111 0.766221 0.449802
O O16 0.475996 0.737998 0.403708
O O17 0.480283 0.836498 0.306601
O O18 0.944566 0.055435 0.830165
O O19 0.070995 0.141989 0.821534
O O20 0.000000 0.140604 0.000000
O O21 0.531906 0.468095 0.760727
#
# Coordination Sequence:
#
# PCOD8323454 Si02
#       8
#    12  12  12  12  12  12  12  12
#     4   9  19  32  47  69 100 133 168 203 245 294
#     4  10  19  31  50  74  98 130 165 211 253 305
#     4  10  18  32  51  71 100 127 161 205 248 293
#     4   9  18  31  48  70  97 125 157 200 244 290
#     4  10  18  30  48  69  95 127 161 199 250 297
#     4   9  17  31  51  73  96 122 156 199 245 288
#     4  10  20  34  52  75 104 137 174 218 269 323
#     4   9  19  33  49  71  99 131 165 200 239 292
#
# _framework density 17.417826999999999
#
# number of rings (size 3 to 8) (size 9 to 14) (size 15 to 20)
#    0.000    2.500    1.250    1.750    0.000    3.500 
#    0.000    3.125    0.000    0.000    0.000    0.000 
#    0.000    6.000    0.000    0.000    0.000    0.000 
#
# Total GULP energy -1189419.143651 kJ/mol
# GULP energy per Si atom -12389.782746 kJ/mol
# Density = 1.737818 g / cm^3
# Si number density = 17.417827 Si / 1000 Ang^3
#
#
#
# Elastic Constant Matrix: (Units=GPa)
#
#
# Indices 1 2 3 4 5 6 
#
# 1 73.9001 29.9056 32.4873 -2.1974 0.0000 0.0000
# 2 29.9056 73.9001 32.4873 2.1974 0.0000 0.0000
# 3 32.4873 32.4873 105.4607 0.0000 0.0000 0.0000
# 4 -2.1974 2.1974 0.0000 19.5033 0.0000 0.0000
# 5 0.0000 0.0000 0.0000 0.0000 19.5033 -2.1974
# 6 0.0000 0.0000 0.0000 0.0000 -2.1974 21.9973
#
#
#
# Elastic Compliance Matrix: (Units=1/GPa)
#
#
# Indices 1 2 3 4 5 6 
#
# 1 0.017462 -0.005527 -0.003676 0.002590 0.000000 0.000000
# 2 -0.005527 0.017462 -0.003676 -0.002590 0.000000 0.000000
# 3 -0.003676 -0.003676 0.011747 0.000000 0.000000 0.000000
# 4 0.002590 -0.002590 0.000000 0.051857 0.000000 0.000000
# 5 0.000000 0.000000 0.000000 0.000000 0.051857 0.005180
# 6 0.000000 0.000000 0.000000 0.000000 0.005180 0.045978
#
#
# Mechanical properties :
#
#
# Convention : Reuss Voigt Hill
#
# Bulk Modulus (GPa) = 47.82267 49.22458 48.52362
# Shear Modulus (GPa) = 21.82526 22.75952 22.29239
#
# Velocity S-wave (km/s) = 3.54367 3.61872 3.58140
# Velocity P-wave (km/s) = 6.65276 6.76628 6.70976
#
# Compressibility (1/GPa) = 0.02091059
#
# Stress axis : x y z
#
# Youngs Moduli (GPa) = 57.26823 57.26823 85.12614
#
# Poissons Ratio (x) = 0.31653 0.31296
# Poissons Ratio (y) = 0.31653 0.31296
# Poissons Ratio (z) = 0.21054 0.21054
#
# Static dielectric constant tensor:
#      x y z
#    x 3.263200 0.000000 0.000000 
#    y 0.000000 3.263200 0.000000 
#    z 0.000000 0.000000 3.583610 
# 
# 
# High freq. dielectric constant tensor:
#      x y z
#    x 1.660510 0.000000 0.000000 
#    y 0.000000 1.660510 0.000000 
#    z 0.000000 0.000000 1.671950 
# 
# From -- ./inp_files/3154.got.cif
#   From: 2010.03.12/outbox.cif.g09.slc.cpg/sg164_2_cif.got.tgz:3154.got - 2010.04.02 06:32:59.
