data_PCOD8323607
_publ_section_title
;
Structure prediction by ZEFSAII (Michael W. Deem and Ramdas Pophale) SiO2 
 PCOD8323607
Probable space group: P -3 M 1
;
_chemical_formula_sum "Si O2"
_cell_formula_units_Z 66
_cell_length_a 12.653921
_cell_length_b 12.653921
_cell_length_c 28.580756
_cell_angle_alpha 90.000000
_cell_angle_beta 90.000000
_cell_angle_gamma 120.000000
_cell_volume 3963.278411
_symmetry_space_group_name_H-M "P -3 M 1"
_symmetry_group_IT_number 164
_symmetry_cell_setting 'hexagonal'
loop_
_space_group_symop_operation_xyz
x,y,z
-y,x-y,z
-x+y,-x,z
x-y,-y,-z
-x,-x+y,-z
y,x,-z
-x,-y,-z
y,-x+y,-z
x-y,x,-z
-x+y,y,z
x,x-y,z
-y,-x,z
loop_
_atom_site_type_symbol
_atom_site_label
_atom_site_fract_x
_atom_site_fract_y
_atom_site_fract_z
Si Si1 0.913697 0.580642 0.956572
Si Si2 0.915170 0.579492 0.785957
Si Si3 0.752137 0.000000 0.500000
Si Si4 0.335033 0.429259 0.315556
Si Si5 0.998670 0.245514 0.869395
Si Si6 0.084610 0.420723 0.416773
O O1 0.782735 0.565470 0.966721
O O2 0.896329 0.448165 0.948510
O O3 0.975605 0.659670 0.910807
O O4 0.000000 0.649582 0.000000
O O5 0.776004 0.552008 0.786142
O O6 0.912790 0.456395 0.802037
O O7 0.977089 0.621705 0.733838
O O8 0.998182 0.688459 0.820924
O O9 0.767785 0.883893 0.502074
O O10 0.680740 0.001137 0.453754
O O11 0.197259 0.394518 0.315643
O O12 0.424481 0.575520 0.315709
O O13 0.355676 0.377341 0.364762
O O14 0.896621 0.103380 0.869059
O O15 0.128886 0.257771 0.876468
O O16 0.220485 0.440970 0.416610
O O17 0.094466 0.547233 0.431712
#
# Coordination Sequence:
#
# PCOD8323607 Si02
#       6
#    12  12   6  12  12  12
#     4  10  20  34  53  76 101 127 155 189 229 273
#     4   9  16  27  46  71  96 119 144 179 225 276
#     4  10  20  32  44  58  82 118 156 188 216 254
#     4   8  13  22  39  65  93 116 138 170 219 275
#     4  10  20  33  48  66  91 124 161 198 233 268
#     4   9  16  27  45  68  91 112 138 178 228 276
#
# _framework density 16.652878999999999
#
# number of rings (size 3 to 8) (size 9 to 14) (size 15 to 20)
#    0.000    2.727    0.000    2.364    0.000    2.909 
#    0.000    2.727    0.000    7.273    0.000    2.545 
#    0.000    0.000    0.000    0.000    0.000    0.000 
#
# Total GULP energy -817764.546793 kJ/mol
# GULP energy per Si atom -12390.371921 kJ/mol
# Density = 1.661498 g / cm^3
# Si number density = 16.652879 Si / 1000 Ang^3
#
#
#
# Elastic Constant Matrix: (Units=GPa)
#
#
# Indices 1 2 3 4 5 6 
#
# 1 76.5928 43.0014 57.4322 -2.3390 0.0000 0.0000
# 2 43.0014 76.5928 57.4322 2.3390 0.0000 0.0000
# 3 57.4322 57.4322 145.0504 0.0000 0.0000 0.0000
# 4 -2.3390 2.3390 0.0000 21.7209 0.0000 0.0000
# 5 0.0000 0.0000 0.0000 0.0000 21.7209 -2.3390
# 6 0.0000 0.0000 0.0000 0.0000 -2.3390 16.7957
#
#
#
# Elastic Compliance Matrix: (Units=1/GPa)
#
#
# Indices 1 2 3 4 5 6 
#
# 1 0.021858 -0.008365 -0.005342 0.003255 0.000000 0.000000
# 2 -0.008365 0.021858 -0.005342 -0.003255 0.000000 0.000000
# 3 -0.005342 -0.005342 0.011125 0.000000 0.000000 0.000000
# 4 0.003255 -0.003255 0.000000 0.046739 0.000000 0.000000
# 5 0.000000 0.000000 0.000000 0.000000 0.046739 0.006509
# 6 0.000000 0.000000 0.000000 0.000000 0.006509 0.060446
#
#
# Mechanical properties :
#
#
# Convention : Reuss Voigt Hill
#
# Bulk Modulus (GPa) = 59.73496 68.21863 63.97680
# Shear Modulus (GPa) = 19.80631 21.40551 20.60591
#
# Velocity S-wave (km/s) = 3.45245 3.58913 3.52145
# Velocity P-wave (km/s) = 7.20008 7.63084 7.41859
#
# Compressibility (1/GPa) = 0.01674062
#
# Stress axis : x y z
#
# Youngs Moduli (GPa) = 45.75033 45.75033 89.88951
#
# Poissons Ratio (x) = 0.38270 0.48023
# Poissons Ratio (y) = 0.38270 0.48023
# Poissons Ratio (z) = 0.24442 0.24442
#
# Static dielectric constant tensor:
#      x y z
#    x 2.887700 0.000000 0.000000 
#    y 0.000000 2.887700 0.000000 
#    z 0.000000 0.000000 3.687230 
# 
# 
# High freq. dielectric constant tensor:
#      x y z
#    x 1.617700 0.000000 0.000000 
#    y 0.000000 1.617700 0.000000 
#    z 0.000000 0.000000 1.669140 
# 
# From -- ./inp_files/5504.got.cif
#   From: 2010.03.12/outbox.cif.g09.slc.cpg/sg164_3_cif.got.tgz:5504.got - 2010.04.02 06:32:59.
