data_PCOD8323861
_publ_section_title
;
Structure prediction by ZEFSAII (Michael W. Deem and Ramdas Pophale) SiO2 
 PCOD8323861
Probable space group: P -3 C 1
;
_chemical_formula_sum "Si O2"
_cell_formula_units_Z 60
_cell_length_a 29.366606
_cell_length_b 29.366606
_cell_length_c 4.940372
_cell_angle_alpha 90.000000
_cell_angle_beta 90.000000
_cell_angle_gamma 120.000000
_cell_volume 3689.757264
_symmetry_space_group_name_H-M "P -3 C 1"
_symmetry_group_IT_number 165
_symmetry_cell_setting 'hexagonal'
loop_
_space_group_symop_operation_xyz
x,y,z
-y,x-y,z
-x+y,-x,z
x-y,-y,1/2-z
-x,-x+y,1/2-z
y,x,1/2-z
-x,-y,-z
y,-x+y,-z
x-y,x,-z
-x+y,y,1/2+z
x,x-y,1/2+z
-y,-x,1/2+z
loop_
_atom_site_type_symbol
_atom_site_label
_atom_site_fract_x
_atom_site_fract_y
_atom_site_fract_z
Si Si1 0.374041 0.941774 0.279466
Si Si2 0.687493 0.058732 0.211907
Si Si3 0.604093 0.146884 0.923406
Si Si4 0.224796 0.719554 0.450473
Si Si5 0.780927 0.618526 0.596439
O O1 0.349129 0.930031 0.581942
O O2 0.394276 0.903837 0.177051
O O3 0.424306 0.000000 0.250000
O O4 0.327744 0.936849 0.092490
O O5 0.749083 0.103014 0.216910
O O6 0.678710 0.000000 0.250000
O O7 0.560574 0.147787 0.731577
O O8 0.661949 0.197360 0.918572
O O9 0.274883 0.753825 0.645794
O O10 0.183320 0.739875 0.430797
O O11 0.805187 0.635475 0.297802
#
# Coordination Sequence:
#
# PCOD8323861 Si02
#       5
#    12  12  12  12  12
#     4  10  21  35  51  71 102 132 155 179 217 277
#     4  10  19  33  51  71 103 134 154 185 235 281
#     4  12  24  36  55  75  97 118 152 185 222 283
#     4  10  21  36  56  72  91 111 141 187 234 271
#     4  10  19  30  52  77  94 117 158 198 224 260
#
# _framework density 16.261230999999999
#
# number of rings (size 3 to 8) (size 9 to 14) (size 15 to 20)
#    0.000    1.600    2.000    3.600    5.600    0.800 
#    0.000    0.000    0.000    8.000    0.000    0.000 
#    0.000    0.000    0.000    0.000    0.000    0.000 
#
# Total GULP energy -743402.779909 kJ/mol
# GULP energy per Si atom -12390.046332 kJ/mol
# Density = 1.622422 g / cm^3
# Si number density = 16.261231 Si / 1000 Ang^3
#
#
#
# Elastic Constant Matrix: (Units=GPa)
#
#
# Indices 1 2 3 4 5 6 
#
# 1 67.0781 40.3609 17.6593 4.4988 0.0000 0.0000
# 2 40.3609 67.0781 17.6593 -4.4988 0.0000 0.0000
# 3 17.6593 17.6593 70.9920 0.0000 0.0000 0.0000
# 4 4.4988 -4.4988 0.0000 19.5825 0.0000 0.0000
# 5 0.0000 0.0000 0.0000 0.0000 19.5825 4.4988
# 6 0.0000 0.0000 0.0000 0.0000 4.4988 13.3586
#
#
#
# Elastic Compliance Matrix: (Units=1/GPa)
#
#
# Indices 1 2 3 4 5 6 
#
# 1 0.025352 -0.015216 -0.002521 -0.009320 0.000000 0.000000
# 2 -0.015216 0.025352 -0.002521 0.009320 0.000000 0.000000
# 3 -0.002521 -0.002521 0.015341 0.000000 0.000000 0.000000
# 4 -0.009320 0.009320 0.000000 0.055348 0.000000 0.000000
# 5 0.000000 0.000000 0.000000 0.000000 0.055348 -0.018640
# 6 0.000000 0.000000 0.000000 0.000000 -0.018640 0.081136
#
#
# Mechanical properties :
#
#
# Convention : Reuss Voigt Hill
#
# Bulk Modulus (GPa) = 39.17314 39.61188 39.39251
# Shear Modulus (GPa) = 16.29178 19.13598 17.71388
#
# Velocity S-wave (km/s) = 3.16868 3.43415 3.30408
# Velocity P-wave (km/s) = 6.12614 6.33539 6.23164
#
# Compressibility (1/GPa) = 0.02552769
#
# Stress axis : x y z
#
# Youngs Moduli (GPa) = 39.44436 39.44436 65.18682
#
# Poissons Ratio (x) = 0.60017 0.16437
# Poissons Ratio (y) = 0.60017 0.16437
# Poissons Ratio (z) = 0.09946 0.09946
#
# Static dielectric constant tensor:
#      x y z
#    x 3.007950 0.000000 0.000000 
#    y 0.000000 3.007950 0.000000 
#    z 0.000000 0.000000 3.371300 
# 
# 
# High freq. dielectric constant tensor:
#      x y z
#    x 1.590580 0.000000 0.000000 
#    y 0.000000 1.590580 0.000000 
#    z 0.000000 0.000000 1.655590 
# 
# From -- ./inp_files/187.got.cif
#   From: 2010.03.12/outbox.cif.g09.slc.cpg/sg165_1_cif.got.tgz:187.got - 2010.04.02 06:36:38.
