data_PCOD8323443
_publ_section_title
;
Structure prediction by ZEFSAII (Michael W. Deem and Ramdas Pophale) SiO2 
 PCOD8323443
Probable space group: P -3 M 1
;
_chemical_formula_sum "Si O2"
_cell_formula_units_Z 84
_cell_length_a 21.840188
_cell_length_b 21.840188
_cell_length_c 12.446759
_cell_angle_alpha 90.000000
_cell_angle_beta 90.000000
_cell_angle_gamma 120.000000
_cell_volume 5141.616223
_symmetry_space_group_name_H-M "P -3 M 1"
_symmetry_group_IT_number 164
_symmetry_cell_setting 'hexagonal'
loop_
_space_group_symop_operation_xyz
x,y,z
-y,x-y,z
-x+y,-x,z
x-y,-y,-z
-x,-x+y,-z
y,x,-z
-x,-y,-z
y,-x+y,-z
x-y,x,-z
-x+y,y,z
x,x-y,z
-y,-x,z
loop_
_atom_site_type_symbol
_atom_site_label
_atom_site_fract_x
_atom_site_fract_y
_atom_site_fract_z
Si Si1 0.421841 0.280656 0.766205
Si Si2 0.808095 0.473464 0.136478
Si Si3 0.475433 0.666131 0.428881
Si Si4 0.918071 0.698972 0.390907
Si Si5 0.073442 0.281198 0.361720
Si Si6 0.845244 0.545533 0.355485
Si Si7 0.467578 0.077079 0.956459
O O1 0.435934 0.217967 0.806797
O O2 0.472682 0.322339 0.668347
O O3 0.341911 0.247142 0.725890
O O4 0.434618 0.336310 0.858751
O O5 0.742962 0.485924 0.115659
O O6 0.780667 0.390334 0.128540
O O7 0.842823 0.500540 0.252884
O O8 0.867502 0.517402 0.050165
O O9 0.460644 0.730322 0.442417
O O10 0.402517 0.597484 0.401696
O O11 0.508253 0.654622 0.538400
O O12 0.857043 0.714085 0.350198
O O13 0.913748 0.686840 0.518855
O O14 0.909416 0.626221 0.342486
O O15 0.990635 0.766125 0.349321
O O16 0.122605 0.245209 0.344968
O O17 0.775041 0.550082 0.368412
O O18 0.539238 0.078476 0.919531
O O19 0.410731 0.000000 0.000000
#
# Coordination Sequence:
#
# PCOD8323443 Si02
#       7
#    12  12  12  12  12  12  12
#     4  10  19  33  52  71  93 123 159 200 243 288
#     4  10  20  34  51  69  91 122 162 204 244 289
#     4  10  18  29  46  70  99 127 158 197 243 290
#     4   9  16  29  48  72 101 131 159 187 225 276
#     4   9  17  29  49  74  98 126 159 194 231 273
#     4   9  17  29  46  70  98 127 156 189 232 280
#     4  10  22  37  50  66  90 123 162 203 250 296
#
# _framework density 16.337275999999999
#
# number of rings (size 3 to 8) (size 9 to 14) (size 15 to 20)
#    0.000    2.429    1.429    1.571    2.000    0.000 
#    0.000    1.429    0.000    5.714    0.000    2.000 
#    0.000    0.000    0.000    0.000    0.000    5.714 
#
# Total GULP energy -1041370.616143 kJ/mol
# GULP energy per Si atom -12397.269240 kJ/mol
# Density = 1.630009 g / cm^3
# Si number density = 16.337276 Si / 1000 Ang^3
#
#
#
# Elastic Constant Matrix: (Units=GPa)
#
#
# Indices 1 2 3 4 5 6 
#
# 1 88.4143 44.1485 44.4189 -2.5503 0.0000 0.0000
# 2 44.1485 88.4143 44.4189 2.5503 0.0000 0.0000
# 3 44.4189 44.4189 84.9155 0.0000 0.0000 0.0000
# 4 -2.5503 2.5503 0.0000 18.9163 0.0000 0.0000
# 5 0.0000 0.0000 0.0000 0.0000 18.9163 -2.5503
# 6 0.0000 0.0000 0.0000 0.0000 -2.5503 22.1329
#
#
#
# Elastic Compliance Matrix: (Units=1/GPa)
#
#
# Indices 1 2 3 4 5 6 
#
# 1 0.017281 -0.005666 -0.006076 0.003094 0.000000 0.000000
# 2 -0.005666 0.017281 -0.006076 -0.003094 0.000000 0.000000
# 3 -0.006076 -0.006076 0.018133 0.000000 0.000000 0.000000
# 4 0.003094 -0.003094 0.000000 0.053699 0.000000 0.000000
# 5 0.000000 0.000000 0.000000 0.000000 0.053699 0.006188
# 6 0.000000 0.000000 0.000000 0.000000 0.006188 0.045895
#
#
# Mechanical properties :
#
#
# Convention : Reuss Voigt Hill
#
# Bulk Modulus (GPa) = 58.61660 58.63517 58.62588
# Shear Modulus (GPa) = 20.21751 20.57694 20.39723
#
# Velocity S-wave (km/s) = 3.52164 3.55281 3.53726
# Velocity P-wave (km/s) = 7.24520 7.26624 7.25573
#
# Compressibility (1/GPa) = 0.01706001
#
# Stress axis : x y z
#
# Youngs Moduli (GPa) = 57.86576 57.86576 55.14799
#
# Poissons Ratio (x) = 0.32786 0.33508
# Poissons Ratio (y) = 0.32786 0.33508
# Poissons Ratio (z) = 0.35159 0.35159
#
# Static dielectric constant tensor:
#      x y z
#    x 3.048070 0.000000 0.000000 
#    y 0.000000 3.048070 0.000000 
#    z 0.000000 0.000000 3.018620 
# 
# 
# High freq. dielectric constant tensor:
#      x y z
#    x 1.620090 0.000000 0.000000 
#    y 0.000000 1.620090 0.000000 
#    z 0.000000 0.000000 1.618630 
# 
# From -- ./inp_files/2894.got.cif
#   From: 2010.03.12/outbox.cif.g09.slc.cpg/sg164_2_cif.got.tgz:2894.got - 2010.04.02 06:32:59.
