data_PCOD8323804
_publ_section_title
;
Structure prediction by ZEFSAII (Michael W. Deem and Ramdas Pophale) SiO2 
 PCOD8323804
Probable space group: P -3 M 1
;
_chemical_formula_sum "Si O2"
_cell_formula_units_Z 84
_cell_length_a 16.477719
_cell_length_b 16.477719
_cell_length_c 15.617340
_cell_angle_alpha 90.000000
_cell_angle_beta 90.000000
_cell_angle_gamma 120.000000
_cell_volume 3672.246976
_symmetry_space_group_name_H-M "P -3 M 1"
_symmetry_group_IT_number 164
_symmetry_cell_setting 'hexagonal'
loop_
_space_group_symop_operation_xyz
x,y,z
-y,x-y,z
-x+y,-x,z
x-y,-y,-z
-x,-x+y,-z
y,x,-z
-x,-y,-z
y,-x+y,-z
x-y,x,-z
-x+y,y,z
x,x-y,z
-y,-x,z
loop_
_atom_site_type_symbol
_atom_site_label
_atom_site_fract_x
_atom_site_fract_y
_atom_site_fract_z
Si Si1 0.519799 0.664862 0.792121
Si Si2 0.083560 0.358566 0.139847
Si Si3 0.810583 0.810583 0.750001
Si Si4 0.358564 0.275005 0.360153
Si Si5 0.665778 0.141080 0.518804
Si Si6 0.519799 0.664862 0.292122
Si Si7 0.475302 0.141080 0.018805
O O1 0.527510 0.763755 0.785041
O O2 0.412115 0.587885 0.783737
O O3 0.578339 0.653759 0.715403
O O4 0.559928 0.657313 0.885608
O O5 0.186256 0.372511 0.141413
O O6 0.009909 0.250138 0.164141
O O7 0.075420 0.421663 0.215404
O O8 0.071121 0.394601 0.047167
O O9 0.910877 0.821753 0.733208
O O10 0.749864 0.759769 0.664142
O O11 0.821747 0.910874 0.766794
O O12 0.372504 0.186252 0.358588
O O13 0.394600 0.323480 0.452833
O O14 0.572479 0.144958 0.495601
O O15 0.752959 0.247042 0.514881
O O16 0.657311 0.097384 0.614392
O O17 0.527510 0.763755 0.285045
O O18 0.412115 0.587886 0.283738
O O19 0.572479 0.144958 0.995602
O O20 0.494085 0.247043 0.014883
#
# Coordination Sequence:
#
# PCOD8323804 Si02
#       7
#    12  12  12  12  12  12  12
#     4   9  16  27  46  75 113 156 195 221 239 271
#     4   9  18  32  51  76 105 137 173 217 271 320
#     4  10  21  40  65  86 100 120 160 218 285 352
#     4   9  18  32  51  76 105 137 173 217 271 320
#     4   9  16  27  46  75 113 156 195 221 239 271
#     4   9  16  27  46  75 113 156 195 221 239 271
#     4   9  16  27  46  75 113 156 195 221 239 271
#
# _framework density 22.874278
#
# number of rings (size 3 to 8) (size 9 to 14) (size 15 to 20)
#    0.000    2.857    0.000    1.571    0.000    2.286 
#    0.000    7.143    0.000    8.571    0.000    0.000 
#    0.000   18.286    0.000    6.857    0.000    8.000 
#
# Total GULP energy -1040977.745727 kJ/mol
# GULP energy per Si atom -12392.592211 kJ/mol
# Density = 2.282222 g / cm^3
# Si number density = 22.874278 Si / 1000 Ang^3
#
#
#
# Elastic Constant Matrix: (Units=GPa)
#
#
# Indices 1 2 3 4 5 6 
#
# 1 52.7178 8.2128 64.3142 -13.7139 0.0000 0.0000
# 2 8.2128 52.7178 64.3142 13.7139 0.0000 0.0000
# 3 64.3142 64.3142 177.2785 0.0000 0.0000 0.0000
# 4 -13.7139 13.7139 0.0000 2.4646 0.0000 0.0000
# 5 0.0000 0.0000 0.0000 0.0000 2.4646 -13.7139
# 6 0.0000 0.0000 0.0000 0.0000 -13.7139 22.2525
#
#
#
# Elastic Compliance Matrix: (Units=1/GPa)
#
#
# Indices 1 2 3 4 5 6 
#
# 1 0.030424 0.039673 -0.025430 -0.051468 0.000000 0.000000
# 2 0.039673 0.030424 -0.025430 0.051468 0.000000 0.000000
# 3 -0.025430 -0.025430 0.024092 0.000000 0.000000 0.000000
# 4 -0.051468 0.051468 0.000000 -0.167026 0.000000 0.000000
# 5 0.000000 0.000000 0.000000 0.000000 -0.167026 -0.102936
# 6 0.000000 0.000000 0.000000 0.000000 -0.102936 -0.018499
#
#
# Mechanical properties :
#
#
# Convention : Reuss Voigt Hill
#
# Bulk Modulus (GPa) = 15.98330 61.82181 38.90256
# Shear Modulus (GPa) = -22.28343 15.16119 -3.56112
#
# Velocity S-wave (km/s) = -3.12456 2.57729 -1.24908
# Velocity P-wave (km/s) = 2.45245 5.99517 3.86830
#
# Compressibility (1/GPa) = 0.06256530
#
# Stress axis : x y z
#
# Youngs Moduli (GPa) = 32.86914 32.86914 41.50714
#
# Poissons Ratio (x) = -1.30402 1.05553
# Poissons Ratio (y) = -1.30402 1.05553
# Poissons Ratio (z) = 0.83587 0.83587
#
# Static dielectric constant tensor:
#      x y z
#    x 4.005120 0.000000 0.000000 
#    y 0.000000 4.005120 0.000000 
#    z 0.000000 0.000000 4.757570 
# 
# 
# High freq. dielectric constant tensor:
#      x y z
#    x 1.905890 0.000000 0.000000 
#    y 0.000000 1.905890 0.000000 
#    z 0.000000 0.000000 1.908150 
# 
# From -- ./inp_files/3628.got.cif
#   From: 2010.03.12/outbox.cif.g09.slc.cpg/sg164_2_cif.got.tgz:3628.got - 2010.04.02 06:32:59.
