data_PCOD8323587
_publ_section_title
;
Structure prediction by ZEFSAII (Michael W. Deem and Ramdas Pophale) SiO2 
 PCOD8323587
Probable space group: P -3 M 1
;
_chemical_formula_sum "Si O2"
_cell_formula_units_Z 84
_cell_length_a 19.256960
_cell_length_b 19.256960
_cell_length_c 13.911112
_cell_angle_alpha 90.000000
_cell_angle_beta 90.000000
_cell_angle_gamma 120.000000
_cell_volume 4467.534711
_symmetry_space_group_name_H-M "P -3 M 1"
_symmetry_group_IT_number 164
_symmetry_cell_setting 'hexagonal'
loop_
_space_group_symop_operation_xyz
x,y,z
-y,x-y,z
-x+y,-x,z
x-y,-y,-z
-x,-x+y,-z
y,x,-z
-x,-y,-z
y,-x+y,-z
x-y,x,-z
-x+y,y,z
x,x-y,z
-y,-x,z
loop_
_atom_site_type_symbol
_atom_site_label
_atom_site_fract_x
_atom_site_fract_y
_atom_site_fract_z
Si Si1 0.175921 0.508736 0.724601
Si Si2 0.470049 0.378416 0.468068
Si Si3 0.084287 0.326995 0.225958
Si Si4 0.743807 0.793431 0.910839
Si Si5 0.664832 0.569125 0.080549
Si Si6 0.674098 0.758848 0.449003
Si Si7 0.382212 0.465212 0.121628
O O1 0.251472 0.502944 0.685709
O O2 0.202185 0.601093 0.735796
O O3 0.103550 0.464709 0.647095
O O4 0.153507 0.469091 0.829298
O O5 0.426223 0.426223 0.500000
O O6 0.565240 0.434761 0.496017
O O7 0.420379 0.293222 0.521293
O O8 0.156581 0.313161 0.198505
O O9 0.065786 0.319705 0.337522
O O10 0.108717 0.416915 0.193364
O O11 0.005587 0.254316 0.178885
O O12 0.764966 0.882483 0.878510
O O13 0.652852 0.742726 0.947912
O O14 0.800893 0.800893 0.000000
O O15 0.588162 0.576323 0.106978
O O16 0.645995 0.518189 0.982033
O O17 0.731492 0.731492 0.500000
O O18 0.703473 0.851737 0.473367
O O19 0.448612 0.551388 0.165713
#
# Coordination Sequence:
#
# PCOD8323587 Si02
#       7
#    12  12  12  12  12  12  12
#     4  11  22  35  53  78 112 149 186 229 280 340
#     4   9  20  36  54  79 111 143 182 233 283 337
#     4  10  22  39  56  81 119 152 186 243 299 344
#     4  11  21  35  59  87 115 151 192 234 286 352
#     4  10  19  34  51  81 115 144 182 225 274 330
#     4  10  22  39  59  84 114 147 191 247 299 348
#     4  10  19  33  55  81 111 148 188 228 271 330
#
# _framework density 18.802316000000001
#
# number of rings (size 3 to 8) (size 9 to 14) (size 15 to 20)
#    0.000    1.857    2.857    3.143    8.000    1.714 
#    0.000    0.000    0.000    3.286    0.000    0.000 
#    0.000    0.000    0.000    0.000    0.000    0.000 
#
# Total GULP energy -1040914.202429 kJ/mol
# GULP energy per Si atom -12391.835743 kJ/mol
# Density = 1.875952 g / cm^3
# Si number density = 18.802316 Si / 1000 Ang^3
#
#
#
# Elastic Constant Matrix: (Units=GPa)
#
#
# Indices 1 2 3 4 5 6 
#
# 1 87.3033 50.8193 56.1294 -0.8194 0.0000 0.0000
# 2 50.8193 87.3033 56.1294 0.8194 0.0000 0.0000
# 3 56.1294 56.1294 90.0491 0.0000 0.0000 0.0000
# 4 -0.8194 0.8194 0.0000 23.8801 0.0000 0.0000
# 5 0.0000 0.0000 0.0000 0.0000 23.8801 -0.8194
# 6 0.0000 0.0000 0.0000 0.0000 -0.8194 18.2420
#
#
#
# Elastic Compliance Matrix: (Units=1/GPa)
#
#
# Indices 1 2 3 4 5 6 
#
# 1 0.021063 -0.006389 -0.009146 0.000942 0.000000 0.000000
# 2 -0.006389 0.021063 -0.009146 -0.000942 0.000000 0.000000
# 3 -0.009146 -0.009146 0.022507 0.000000 0.000000 0.000000
# 4 0.000942 -0.000942 0.000000 0.041941 0.000000 0.000000
# 5 0.000000 0.000000 0.000000 0.000000 0.041941 0.001884
# 6 0.000000 0.000000 0.000000 0.000000 0.001884 0.054903
#
#
# Mechanical properties :
#
#
# Convention : Reuss Voigt Hill
#
# Bulk Modulus (GPa) = 65.49187 65.64578 65.56882
# Shear Modulus (GPa) = 19.38961 19.97227 19.68094
#
# Velocity S-wave (km/s) = 3.21477 3.26271 3.23883
# Velocity P-wave (km/s) = 6.97761 7.01307 6.99537
#
# Compressibility (1/GPa) = 0.01526907
#
# Stress axis : x y z
#
# Youngs Moduli (GPa) = 47.47743 47.47743 44.43000
#
# Poissons Ratio (x) = 0.30333 0.40637
# Poissons Ratio (y) = 0.30333 0.40637
# Poissons Ratio (z) = 0.43425 0.43425
#
# Static dielectric constant tensor:
#      x y z
#    x 3.481200 0.000000 0.000000 
#    y 0.000000 3.481200 0.000000 
#    z 0.000000 0.000000 3.518670 
# 
# 
# High freq. dielectric constant tensor:
#      x y z
#    x 1.715370 0.000000 0.000000 
#    y 0.000000 1.715370 0.000000 
#    z 0.000000 0.000000 1.733180 
# 
# From -- ./inp_files/2945.got.cif
#   From: 2010.03.12/outbox.cif.g09.slc.cpg/sg164_2_cif.got.tgz:2945.got - 2010.04.02 06:32:59.
