data_PCOD8323130
_publ_section_title
;
Structure prediction by ZEFSAII (Michael W. Deem and Ramdas Pophale) SiO2 
 PCOD8323130
Probable space group: P -3 1 M 
;
_chemical_formula_sum "Si O2"
_cell_formula_units_Z 84
_cell_length_a 17.709083
_cell_length_b 17.709083
_cell_length_c 15.407813
_cell_angle_alpha 90.000000
_cell_angle_beta 90.000000
_cell_angle_gamma 120.000000
_cell_volume 4184.694686
_symmetry_space_group_name_H-M "P -3 1 M "
_symmetry_group_IT_number 162
_symmetry_cell_setting 'hexagonal'
loop_
_space_group_symop_operation_xyz
x,y,z
-y,x-y,z
-x+y,-x,z
-y,-x,-z
-x+y,y,-z
x,x-y,-z
-x,-y,-z
y,-x+y,-z
x-y,x,-z
y,x,z
x-y,-y,z
-x,-x+y,z
loop_
_atom_site_type_symbol
_atom_site_label
_atom_site_fract_x
_atom_site_fract_y
_atom_site_fract_z
Si Si1 0.168574 0.668666 0.484097
Si Si2 0.531595 0.900639 0.986652
Si Si3 0.212429 0.896063 0.926997
Si Si4 0.189682 0.367116 0.250807
Si Si5 0.369657 0.900522 0.215501
Si Si6 0.317807 0.215739 0.573137
Si Si7 0.900132 0.374547 0.701740
O O1 0.272182 0.727819 0.500000
O O2 0.133757 0.566879 0.500000
O O3 0.119974 0.705596 0.545283
O O4 0.154012 0.675318 0.382958
O O5 0.544588 0.893234 0.885527
O O6 0.571565 0.000000 0.017632
O O7 0.426146 0.852291 0.000000
O O8 0.582717 0.863403 0.043147
O O9 0.160320 0.848697 0.838134
O O10 0.259005 0.000000 0.918923
O O11 0.137257 0.862744 0.000000
O O12 0.162118 0.440651 0.260450
O O13 0.147790 0.311480 0.337881
O O14 0.293939 0.409359 0.239037
O O15 0.435738 0.867414 0.245565
O O16 0.406956 0.000000 0.246774
O O17 0.282782 0.141391 0.500000
O O18 0.253774 0.253774 0.582544
O O19 0.000000 0.434345 0.675871
#
# Coordination Sequence:
#
# PCOD8323130 Si02
#       7
#    12  12  12  12  12  12  12
#     4  11  22  39  59  87 125 169 210 255 306 369
#     4   9  17  34  59  85 118 158 200 248 301 363
#     4  11  23  39  65  96 130 167 212 264 320 386
#     4  12  22  39  61  92 125 163 209 260 316 377
#     4  10  21  37  59  87 120 160 206 255 308 370
#     4  11  24  42  65  94 127 165 214 271 326 381
#     4  11  23  38  58  87 122 161 208 257 312 372
#
# _framework density 20.073148
#
# number of rings (size 3 to 8) (size 9 to 14) (size 15 to 20)
#    0.000    1.286    4.286    3.143    0.000    5.714 
#    0.857    0.000    0.000    0.571    0.000    1.000 
#    0.000    0.000    0.000    0.000    0.000    0.000 
#
# Total GULP energy -1040941.962081 kJ/mol
# GULP energy per Si atom -12392.166215 kJ/mol
# Density = 2.002746 g / cm^3
# Si number density = 20.073148 Si / 1000 Ang^3
#
#
#
# Elastic Constant Matrix: (Units=GPa)
#
#
# Indices 1 2 3 4 5 6 
#
# 1 78.2247 30.4432 39.2360 0.0000 -2.7161 0.0000
# 2 30.4432 78.2247 39.2360 0.0000 2.7161 0.0000
# 3 39.2360 39.2360 137.6030 0.0000 0.0000 0.0000
# 4 0.0000 0.0000 0.0000 26.3038 0.0000 2.7161
# 5 -2.7161 2.7161 0.0000 0.0000 26.3038 0.0000
# 6 0.0000 0.0000 0.0000 2.7161 0.0000 23.8907
#
#
#
# Elastic Compliance Matrix: (Units=1/GPa)
#
#
# Indices 1 2 3 4 5 6 
#
# 1 0.016383 -0.004794 -0.003304 0.000000 0.002187 0.000000
# 2 -0.004794 0.016383 -0.003304 0.000000 -0.002187 0.000000
# 3 -0.003304 -0.003304 0.009152 0.000000 0.000000 0.000000
# 4 0.000000 0.000000 0.000000 0.038469 0.000000 -0.004374
# 5 0.002187 -0.002187 0.000000 0.000000 0.038469 0.000000
# 6 0.000000 0.000000 0.000000 -0.004374 0.000000 0.042354
#
#
# Mechanical properties :
#
#
# Convention : Reuss Voigt Hill
#
# Bulk Modulus (GPa) = 52.32498 56.87586 54.60042
# Shear Modulus (GPa) = 26.26240 27.64214 26.95227
#
# Velocity S-wave (km/s) = 3.62102 3.71492 3.66827
# Velocity P-wave (km/s) = 6.60349 6.84081 6.72319
#
# Compressibility (1/GPa) = 0.01911133
#
# Stress axis : x y z
#
# Youngs Moduli (GPa) = 61.03939 61.03939 109.26968
#
# Poissons Ratio (x) = 0.29265 0.36106
# Poissons Ratio (y) = 0.29265 0.36106
# Poissons Ratio (z) = 0.20169 0.20169
#
# Static dielectric constant tensor:
#      x y z
#    x 3.496920 0.000000 0.000000 
#    y 0.000000 3.496920 0.000000 
#    z 0.000000 0.000000 3.835250 
# 
# 
# High freq. dielectric constant tensor:
#      x y z
#    x 1.759740 0.000000 0.000000 
#    y 0.000000 1.759740 0.000000 
#    z 0.000000 0.000000 1.806600 
# 
# From -- ./inp_files/3185.got.cif
#   From: 2010.03.12/outbox.cif.g09.slc.cpg/sg162_2_cif.got.tgz:3185.got - 2010.04.02 06:27:41.
