data_PCOD8323181
_publ_section_title
;
Structure prediction by ZEFSAII (Michael W. Deem and Ramdas Pophale) SiO2 
 PCOD8323181
Probable space group: P -3 1 C
;
_chemical_formula_sum "Si O2"
_cell_formula_units_Z 66
_cell_length_a 31.614420
_cell_length_b 31.614420
_cell_length_c 5.350074
_cell_angle_alpha 90.000000
_cell_angle_beta 90.000000
_cell_angle_gamma 120.000000
_cell_volume 4630.851538
_symmetry_space_group_name_H-M "P -3 1 C"
_symmetry_group_IT_number 163
_symmetry_cell_setting 'hexagonal'
loop_
_space_group_symop_operation_xyz
x,y,z
-y,x-y,z
-x+y,-x,z
-y,-x,1/2-z
-x+y,y,1/2-z
x,x-y,1/2-z
-x,-y,-z
y,-x+y,-z
x-y,x,-z
y,x,1/2+z
x-y,-y,1/2+z
-x,-x+y,1/2+z
loop_
_atom_site_type_symbol
_atom_site_label
_atom_site_fract_x
_atom_site_fract_y
_atom_site_fract_z
Si Si1 0.299916 0.052886 0.249977
Si Si2 0.563554 0.620594 0.249993
Si Si3 0.968261 0.127985 0.749959
Si Si4 0.968335 0.484168 0.750000
Si Si5 0.346982 0.947796 0.749993
Si Si6 0.055793 0.266182 0.249977
O O1 0.345511 0.044498 0.249993
O O2 0.298745 0.081189 0.500926
O O3 0.251020 0.000923 0.249960
O O4 0.298748 0.081188 0.999019
O O5 0.508949 0.574395 0.249997
O O6 0.571712 0.652948 0.499944
O O7 0.603423 0.603052 0.249992
O O8 0.571712 0.652947 0.000041
O O9 0.929262 0.070739 0.750000
O O10 0.939035 0.157508 0.749991
O O11 0.999988 0.139858 0.499919
O O12 0.000000 0.500000 0.500000
#
# Coordination Sequence:
#
# PCOD8323181 Si02
#       6
#    12  12  12   6  12  12
#     4  10  16  25  43  57  87  96 114 139 173 203
#     4  10  16  22  28  39  59  80 128 145 191 210
#     4  12  23  40  59  78  96 110 128 144 160 187
#     4  12  16  24  28  32  50  86 110 170 180 212
#     4  10  16  22  31  49  63  91 109 147 173 219
#     4  10  16  29  44  65  84 102 116 132 159 199
#
# _framework density 14.252238999999999
#
# number of rings (size 3 to 8) (size 9 to 14) (size 15 to 20)
#    0.000    1.455    7.273    6.000    0.000    0.000 
#    0.000    0.000    0.000    3.636    0.000    0.000 
#    0.000    0.000    0.000    0.000    0.000    0.000 
#
# Total GULP energy -817780.831436 kJ/mol
# GULP energy per Si atom -12390.618658 kJ/mol
# Density = 1.421980 g / cm^3
# Si number density = 14.252239 Si / 1000 Ang^3
#
#
#
# Elastic Constant Matrix: (Units=GPa)
#
#
# Indices 1 2 3 4 5 6 
#
# 1 30.1515 29.5235 23.0384 0.0000 0.0014 0.0000
# 2 29.5235 30.1515 23.0384 0.0000 -0.0014 0.0000
# 3 23.0384 23.0384 177.8073 0.0000 0.0000 0.0000
# 4 0.0000 0.0000 0.0000 9.5149 0.0000 -0.0014
# 5 0.0014 -0.0014 0.0000 0.0000 9.5149 0.0000
# 6 0.0000 0.0000 0.0000 -0.0014 0.0000 0.3140
#
#
#
# Elastic Compliance Matrix: (Units=1/GPa)
#
#
# Indices 1 2 3 4 5 6 
#
# 1 0.805433 -0.786812 -0.002413 0.000000 -0.000240 0.000000
# 2 -0.786812 0.805433 -0.002413 0.000000 0.000240 0.000000
# 3 -0.002413 -0.002413 0.006249 0.000000 0.000000 0.000000
# 4 0.000000 0.000000 0.000000 0.105098 0.000000 0.000479
# 5 -0.000240 0.000240 0.000000 0.000000 0.105098 0.000001
# 6 0.000000 0.000000 0.000000 0.000479 0.000001 3.184490
#
#
# Mechanical properties :
#
#
# Convention : Reuss Voigt Hill
#
# Bulk Modulus (GPa) = 29.55137 43.25676 36.40406
# Shear Modulus (GPa) = 0.75685 14.70276 7.72980
#
# Velocity S-wave (km/s) = 0.72951 3.21535 2.33138
# Velocity P-wave (km/s) = 4.63564 6.64841 5.73108
#
# Compressibility (1/GPa) = 0.03383938
#
# Stress axis : x y z
#
# Youngs Moduli (GPa) = 1.24157 1.24157 160.01862
#
# Poissons Ratio (x) = 0.97688 0.38606
# Poissons Ratio (y) = 0.97688 0.38606
# Poissons Ratio (z) = 0.00300 0.00300
#
# Static dielectric constant tensor:
#      x y z
#    x 2.460550 0.000000 0.000000 
#    y 0.000000 2.460550 0.000000 
#    z 0.000000 0.000000 6.297100 
# 
# 
# High freq. dielectric constant tensor:
#      x y z
#    x 1.486530 0.000000 0.000000 
#    y 0.000000 1.486530 0.000000 
#    z 0.000000 0.000000 1.594200 
# 
# From -- ./inp_files/402.got.cif
#   From: 2010.03.12/outbox.cif.g09.slc.cpg/sg163_1_cif.got.tgz:402.got - 2010.04.02 06:30:25.
