data_PCOD8323068
_publ_section_title
;
Structure prediction by ZEFSAII (Michael W. Deem and Ramdas Pophale) SiO2 
 PCOD8323068
Probable space group: P -3 1 M 
;
_chemical_formula_sum "Si O2"
_cell_formula_units_Z 36
_cell_length_a 12.836253
_cell_length_b 12.836253
_cell_length_c 12.971943
_cell_angle_alpha 90.000000
_cell_angle_beta 90.000000
_cell_angle_gamma 120.000000
_cell_volume 1851.024641
_symmetry_space_group_name_H-M "P -3 1 M "
_symmetry_group_IT_number 162
_symmetry_cell_setting 'hexagonal'
loop_
_space_group_symop_operation_xyz
x,y,z
-y,x-y,z
-x+y,-x,z
-y,-x,-z
-x+y,y,-z
x,x-y,-z
-x,-y,-z
y,-x+y,-z
x-y,x,-z
y,x,z
x-y,-y,z
-x,-x+y,z
loop_
_atom_site_type_symbol
_atom_site_label
_atom_site_fract_x
_atom_site_fract_y
_atom_site_fract_z
Si Si1 0.292347 0.864693 0.202859
Si Si2 0.723304 0.862128 0.617387
Si Si3 0.494848 0.630490 0.901988
O O1 0.227007 0.834048 0.313898
O O2 0.203088 0.772587 0.117648
O O3 0.413243 0.853360 0.199382
O O4 0.328088 0.000000 0.169072
O O5 0.677296 0.838648 0.500000
O O6 0.776365 0.776365 0.650621
O O7 0.829239 0.000000 0.630467
O O8 0.594044 0.594044 0.926608
O O9 0.405263 0.594738 0.000000
#
# Coordination Sequence:
#
# PCOD8323068 Si02
#       3
#    12  12  12
#     4  10  20  34  54  79 106 139 182 229 273 323
#     4   9  17  31  53  82 116 152 188 226 270 322
#     4  10  20  34  53  77 107 142 179 224 278 332
#
# _framework density 19.448688000000001
#
# number of rings (size 3 to 8) (size 9 to 14) (size 15 to 20)
#    0.000    2.333    0.000    3.000    0.000    1.333 
#    0.000    3.333    0.000    8.667    0.000    0.000 
#    0.000   32.000    0.000    0.000    0.000    0.000 
#
# Total GULP energy -446050.040156 kJ/mol
# GULP energy per Si atom -12390.278893 kJ/mol
# Density = 1.940442 g / cm^3
# Si number density = 19.448688 Si / 1000 Ang^3
#
#
#
# Elastic Constant Matrix: (Units=GPa)
#
#
# Indices 1 2 3 4 5 6 
#
# 1 98.3585 43.4235 53.3323 0.0000 -4.5410 0.0000
# 2 43.4235 98.3585 53.3323 0.0000 4.5410 0.0000
# 3 53.3323 53.3323 102.9066 0.0000 0.0000 0.0000
# 4 0.0000 0.0000 0.0000 33.1695 0.0000 4.5410
# 5 -4.5410 4.5410 0.0000 0.0000 33.1695 0.0000
# 6 0.0000 0.0000 0.0000 4.5410 0.0000 27.4675
#
#
#
# Elastic Compliance Matrix: (Units=1/GPa)
#
#
# Indices 1 2 3 4 5 6 
#
# 1 0.015093 -0.003532 -0.005991 0.000000 0.002550 0.000000
# 2 -0.003532 0.015093 -0.005991 0.000000 -0.002550 0.000000
# 3 -0.005991 -0.005991 0.015928 0.000000 0.000000 0.000000
# 4 0.000000 0.000000 0.000000 0.030846 0.000000 -0.005100
# 5 0.002550 -0.002550 0.000000 0.000000 0.030846 0.000000
# 6 0.000000 0.000000 0.000000 -0.005100 0.000000 0.037250
#
#
# Mechanical properties :
#
#
# Convention : Reuss Voigt Hill
#
# Bulk Modulus (GPa) = 66.29853 66.64445 66.47149
# Shear Modulus (GPa) = 27.60712 28.73034 28.16873
#
# Velocity S-wave (km/s) = 3.77169 3.84765 3.80986
# Velocity P-wave (km/s) = 7.28907 7.35394 7.32158
#
# Compressibility (1/GPa) = 0.01508329
#
# Stress axis : x y z
#
# Youngs Moduli (GPa) = 66.25743 66.25743 62.78394
#
# Poissons Ratio (x) = 0.23404 0.37616
# Poissons Ratio (y) = 0.23404 0.37616
# Poissons Ratio (z) = 0.39697 0.39697
#
# Static dielectric constant tensor:
#      x y z
#    x 3.619710 0.000000 0.000000 
#    y 0.000000 3.619710 0.000000 
#    z 0.000000 0.000000 3.572640 
# 
# 
# High freq. dielectric constant tensor:
#      x y z
#    x 1.755530 0.000000 0.000000 
#    y 0.000000 1.755530 0.000000 
#    z 0.000000 0.000000 1.739080 
# 
# From -- ./inp_files/2720.got.cif
#   From: 2010.03.12/outbox.cif.g09.slc.cpg/sg162_2_cif.got.tgz:2720.got - 2010.04.02 06:27:41.
