data_PCOD8323230
_publ_section_title
;
Structure prediction by ZEFSAII (Michael W. Deem and Ramdas Pophale) SiO2 
 PCOD8323230
Probable space group: P -3 1 C
;
_chemical_formula_sum "Si O2"
_cell_formula_units_Z 42
_cell_length_a 21.968757
_cell_length_b 21.968757
_cell_length_c 5.276375
_cell_angle_alpha 90.000000
_cell_angle_beta 90.000000
_cell_angle_gamma 120.000000
_cell_volume 2205.348638
_symmetry_space_group_name_H-M "P -3 1 C"
_symmetry_group_IT_number 163
_symmetry_cell_setting 'hexagonal'
loop_
_space_group_symop_operation_xyz
x,y,z
-y,x-y,z
-x+y,-x,z
-y,-x,1/2-z
-x+y,y,1/2-z
x,x-y,1/2-z
-x,-y,-z
y,-x+y,-z
x-y,x,-z
y,x,1/2+z
x-y,-y,1/2+z
-x,-x+y,1/2+z
loop_
_atom_site_type_symbol
_atom_site_label
_atom_site_fract_x
_atom_site_fract_y
_atom_site_fract_z
Si Si1 0.168462 0.382144 0.501875
Si Si2 0.239341 0.701169 0.503423
Si Si3 0.413346 0.044548 0.076774
Si Si4 0.564472 0.128943 0.250000
O O1 0.169751 0.339502 0.750000
O O2 0.242376 0.455631 0.500953
O O3 0.101150 0.390695 0.512743
O O4 0.170482 0.340964 0.250000
O O5 0.287330 0.712671 0.750000
O O6 0.172866 0.623543 0.536764
O O7 0.286469 0.713532 0.250000
O O8 0.497627 0.082428 0.071959
O O9 0.391281 0.013602 0.359388
#
# Coordination Sequence:
#
# PCOD8323230 Si02
#       4
#    12  12  12   6
#     4  10  19  41  62  75 106 152 184 222 286 375
#     4  10  22  39  62  75 101 145 191 230 278 380
#     4  12  26  40  62  93 119 146 188 251 319 375
#     4  12  24  44  64  88 116 152 192 250 326 376
#
# _framework density 19.044606999999999
#
# number of rings (size 3 to 8) (size 9 to 14) (size 15 to 20)
#    0.000    1.143    5.714    2.571    4.000    3.429 
#    0.857    0.000    0.000    0.000    0.000    0.000 
#    0.000    0.000    0.000    0.000    0.000    0.000 
#
# Total GULP energy -520424.992731 kJ/mol
# GULP energy per Si atom -12391.071255 kJ/mol
# Density = 1.900126 g / cm^3
# Si number density = 19.044607 Si / 1000 Ang^3
#
#
#
# Elastic Constant Matrix: (Units=GPa)
#
#
# Indices 1 2 3 4 5 6 
#
# 1 59.2065 20.6688 28.3009 -0.0021 1.9972 0.0000
# 2 20.6688 59.2065 28.3009 0.0021 -1.9972 0.0000
# 3 28.3009 28.3009 186.7881 0.0000 0.0000 0.0000
# 4 -0.0021 0.0021 0.0000 18.3166 0.0000 -1.9972
# 5 1.9972 -1.9972 0.0000 0.0000 18.3166 -0.0021
# 6 0.0000 0.0000 0.0000 -1.9972 -0.0021 19.2688
#
#
#
# Elastic Compliance Matrix: (Units=1/GPa)
#
#
# Indices 1 2 3 4 5 6 
#
# 1 0.020135 -0.006110 -0.002125 0.000003 -0.002862 0.000000
# 2 -0.006110 0.020135 -0.002125 -0.000003 0.002862 0.000000
# 3 -0.002125 -0.002125 0.005998 0.000000 0.000000 0.000000
# 4 0.000003 -0.000003 0.000000 0.055219 0.000000 0.005724
# 5 -0.002862 0.002862 0.000000 0.000000 0.055219 0.000006
# 6 0.000000 0.000000 0.000000 0.005724 0.000006 0.052491
#
#
# Mechanical properties :
#
#
# Convention : Reuss Voigt Hill
#
# Bulk Modulus (GPa) = 39.14171 51.08250 45.11211
# Shear Modulus (GPa) = 20.97021 26.37577 23.67299
#
# Velocity S-wave (km/s) = 3.32190 3.72552 3.52949
# Velocity P-wave (km/s) = 5.94227 6.73698 6.35206
#
# Compressibility (1/GPa) = 0.02554820
#
# Stress axis : x y z
#
# Youngs Moduli (GPa) = 49.66399 49.66400 166.73323
#
# Poissons Ratio (x) = 0.30344 0.35431
# Poissons Ratio (y) = 0.30344 0.35431
# Poissons Ratio (z) = 0.10554 0.10554
#
# Static dielectric constant tensor:
#      x y z
#    x 3.279550 0.000000 0.000000 
#    y 0.000000 3.279550 0.000000 
#    z 0.000000 0.000000 6.258940 
# 
# 
# High freq. dielectric constant tensor:
#      x y z
#    x 1.695880 0.000000 0.000000 
#    y 0.000000 1.695880 0.000000 
#    z 0.000000 0.000000 1.780400 
# 
# From -- ./inp_files/196.got.cif
#   From: 2010.03.12/outbox.cif.g09.slc.cpg/sg163_1_cif.got.tgz:196.got - 2010.04.02 06:30:25.
