data_PCOD8323682
_publ_section_title
;
Structure prediction by ZEFSAII (Michael W. Deem and Ramdas Pophale) SiO2 
 PCOD8323682
Probable space group: P -3 M 1
;
_chemical_formula_sum "Si O2"
_cell_formula_units_Z 66
_cell_length_a 12.898069
_cell_length_b 12.898069
_cell_length_c 28.391554
_cell_angle_alpha 90.000000
_cell_angle_beta 90.000000
_cell_angle_gamma 120.000000
_cell_volume 4090.432098
_symmetry_space_group_name_H-M "P -3 M 1"
_symmetry_group_IT_number 164
_symmetry_cell_setting 'hexagonal'
loop_
_space_group_symop_operation_xyz
x,y,z
-y,x-y,z
-x+y,-x,z
x-y,-y,-z
-x,-x+y,-z
y,x,-z
-x,-y,-z
y,-x+y,-z
x-y,x,-z
-x+y,y,z
x,x-y,z
-y,-x,z
loop_
_atom_site_type_symbol
_atom_site_label
_atom_site_fract_x
_atom_site_fract_y
_atom_site_fract_z
Si Si1 0.243381 0.001180 0.848739
Si Si2 0.332893 0.904807 0.335354
Si Si3 0.759575 0.758594 0.950301
Si Si4 0.242545 0.000000 0.500000
Si Si5 0.424486 0.332931 0.415293
Si Si6 0.427404 0.332936 0.771419
O O1 0.122689 0.877311 0.844392
O O2 0.212755 0.106378 0.841536
O O3 0.309457 0.017161 0.900258
O O4 0.328296 0.002919 0.807363
O O5 0.432002 0.864004 0.339206
O O6 0.206973 0.793028 0.351787
O O7 0.325236 0.943349 0.282052
O O8 0.366821 0.019214 0.367481
O O9 0.895748 0.791496 0.956310
O O10 0.758613 0.879307 0.943896
O O11 0.692125 0.692125 0.000000
O O12 0.226628 0.113314 0.511405
O O13 0.328846 0.024756 0.456058
O O14 0.453176 0.226588 0.408090
O O15 0.546943 0.453058 0.428378
O O16 0.458254 0.229127 0.781288
O O17 0.543794 0.456207 0.782081
#
# Coordination Sequence:
#
# PCOD8323682 Si02
#       6
#    12  12  12   6  12  12
#     4   9  16  25  39  60  85 110 134 165 208 257
#     4   9  17  30  48  68  87 109 141 181 221 255
#     4   8  12  18  30  50  76 104 132 162 199 245
#     4  10  20  34  52  72  94 120 150 184 218 252
#     4  10  20  33  49  69  94 122 149 177 211 253
#     4   9  17  29  45  63  83 109 142 179 214 248
#
# _framework density 16.135214000000001
#
# number of rings (size 3 to 8) (size 9 to 14) (size 15 to 20)
#    0.000    2.909    0.000    1.818    0.000    4.364 
#    0.000    0.000    0.000    7.091    0.000    0.000 
#    0.000    0.000    0.000    0.000    0.000    0.000 
#
# Total GULP energy -817670.341838 kJ/mol
# GULP energy per Si atom -12388.944573 kJ/mol
# Density = 1.609849 g / cm^3
# Si number density = 16.135214 Si / 1000 Ang^3
#
#
#
# Elastic Constant Matrix: (Units=GPa)
#
#
# Indices 1 2 3 4 5 6 
#
# 1 78.9232 42.2988 57.6284 -1.4470 0.0000 0.0000
# 2 42.2988 78.9232 57.6284 1.4470 0.0000 0.0000
# 3 57.6284 57.6284 126.2867 0.0000 0.0000 0.0000
# 4 -1.4470 1.4470 0.0000 22.2544 0.0000 0.0000
# 5 0.0000 0.0000 0.0000 0.0000 22.2544 -1.4470
# 6 0.0000 0.0000 0.0000 0.0000 -1.4470 18.3122
#
#
#
# Elastic Compliance Matrix: (Units=1/GPa)
#
#
# Indices 1 2 3 4 5 6 
#
# 1 0.021008 -0.006437 -0.006649 0.001785 0.000000 0.000000
# 2 -0.006437 0.021008 -0.006649 -0.001785 0.000000 0.000000
# 3 -0.006649 -0.006649 0.013987 0.000000 0.000000 0.000000
# 4 0.001785 -0.001785 0.000000 0.045167 0.000000 0.000000
# 5 0.000000 0.000000 0.000000 0.000000 0.045167 0.003569
# 6 0.000000 0.000000 0.000000 0.000000 0.003569 0.054890
#
#
# Mechanical properties :
#
#
# Convention : Reuss Voigt Hill
#
# Bulk Modulus (GPa) = 60.48684 66.58269 63.53477
# Shear Modulus (GPa) = 20.30784 21.00272 20.65528
#
# Velocity S-wave (km/s) = 3.55153 3.61178 3.58178
# Velocity P-wave (km/s) = 7.37473 7.66475 7.52114
#
# Compressibility (1/GPa) = 0.01653252
#
# Stress axis : x y z
#
# Youngs Moduli (GPa) = 47.60010 47.60010 71.49423
#
# Poissons Ratio (x) = 0.30639 0.47540
# Poissons Ratio (y) = 0.30639 0.47540
# Poissons Ratio (z) = 0.31651 0.31651
#
# Static dielectric constant tensor:
#      x y z
#    x 2.860770 0.000000 0.000000 
#    y 0.000000 2.860770 0.000000 
#    z 0.000000 0.000000 3.564010 
# 
# 
# High freq. dielectric constant tensor:
#      x y z
#    x 1.597880 0.000000 0.000000 
#    y 0.000000 1.597880 0.000000 
#    z 0.000000 0.000000 1.644220 
# 
# From -- ./inp_files/5486.got.cif
#   From: 2010.03.12/outbox.cif.g09.slc.cpg/sg164_3_cif.got.tgz:5486.got - 2010.04.02 06:32:59.
