data_PCOD8323853
_publ_section_title
;
Structure prediction by ZEFSAII (Michael W. Deem and Ramdas Pophale) SiO2 
 PCOD8323853
Probable space group: P -3 C 1
;
_chemical_formula_sum "Si O2"
_cell_formula_units_Z 60
_cell_length_a 28.233761
_cell_length_b 28.233761
_cell_length_c 5.303929
_cell_angle_alpha 90.000000
_cell_angle_beta 90.000000
_cell_angle_gamma 120.000000
_cell_volume 3661.557020
_symmetry_space_group_name_H-M "P -3 C 1"
_symmetry_group_IT_number 165
_symmetry_cell_setting 'hexagonal'
loop_
_space_group_symop_operation_xyz
x,y,z
-y,x-y,z
-x+y,-x,z
x-y,-y,1/2-z
-x,-x+y,1/2-z
y,x,1/2-z
-x,-y,-z
y,-x+y,-z
x-y,x,-z
-x+y,y,1/2+z
x,x-y,1/2+z
-y,-x,1/2+z
loop_
_atom_site_type_symbol
_atom_site_label
_atom_site_fract_x
_atom_site_fract_y
_atom_site_fract_z
Si Si1 0.392530 0.838757 0.759309
Si Si2 0.831274 0.212942 0.247516
Si Si3 0.387516 0.938445 0.741451
Si Si4 0.327163 0.390065 0.741493
Si Si5 0.764945 0.494653 0.247731
O O1 0.409807 0.817960 0.511691
O O2 0.419060 0.904089 0.757766
O O3 0.328208 0.820300 0.754588
O O4 0.823565 0.177316 0.498599
O O5 0.893017 0.263168 0.242326
O O6 0.783685 0.229099 0.249737
O O7 0.355233 0.925601 0.478084
O O8 0.436044 0.000000 0.750000
O O9 0.347527 0.925533 0.978904
O O10 0.339364 0.339364 0.750000
O O11 0.731861 0.462970 0.498483
#
# Coordination Sequence:
#
# PCOD8323853 Si02
#       5
#    12  12  12  12  12
#     4  12  24  36  52  74  96 119 153 194 239 284
#     4  10  18  29  50  75  97 123 159 192 229 282
#     4  10  20  34  51  70  98 131 156 184 232 295
#     4  10  19  33  53  79 105 127 157 201 248 288
#     4  10  19  34  55  70  86 110 146 187 226 277
#
# _framework density 16.386472999999999
#
# number of rings (size 3 to 8) (size 9 to 14) (size 15 to 20)
#    0.000    1.600    0.000    8.400    0.000    0.800 
#    0.000    0.000    0.000    8.000    0.000    0.000 
#    0.000    0.000    0.000    0.000    0.000    0.000 
#
# Total GULP energy -743445.971052 kJ/mol
# GULP energy per Si atom -12390.766184 kJ/mol
# Density = 1.634918 g / cm^3
# Si number density = 16.386473 Si / 1000 Ang^3
#
#
#
# Elastic Constant Matrix: (Units=GPa)
#
#
# Indices 1 2 3 4 5 6 
#
# 1 62.6507 20.7168 22.0831 -0.9442 0.0000 0.0000
# 2 20.7168 62.6507 22.0831 0.9442 0.0000 0.0000
# 3 22.0831 22.0831 141.7186 0.0000 0.0000 0.0000
# 4 -0.9442 0.9442 0.0000 15.4596 0.0000 0.0000
# 5 0.0000 0.0000 0.0000 0.0000 15.4596 -0.9442
# 6 0.0000 0.0000 0.0000 0.0000 -0.9442 20.9669
#
#
#
# Elastic Compliance Matrix: (Units=1/GPa)
#
#
# Indices 1 2 3 4 5 6 
#
# 1 0.018494 -0.005419 -0.002037 0.001460 0.000000 0.000000
# 2 -0.005419 0.018494 -0.002037 -0.001460 0.000000 0.000000
# 3 -0.002037 -0.002037 0.007691 0.000000 0.000000 0.000000
# 4 0.001460 -0.001460 0.000000 0.064863 0.000000 0.000000
# 5 0.000000 0.000000 0.000000 0.000000 0.064863 0.002921
# 6 0.000000 0.000000 0.000000 0.000000 0.002921 0.047826
#
#
# Mechanical properties :
#
#
# Convention : Reuss Voigt Hill
#
# Bulk Modulus (GPa) = 38.92452 44.08733 41.50592
# Shear Modulus (GPa) = 20.01748 23.85302 21.93525
#
# Velocity S-wave (km/s) = 3.49891 3.81944 3.66268
# Velocity P-wave (km/s) = 6.33473 6.81278 6.57810
#
# Compressibility (1/GPa) = 0.02569075
#
# Stress axis : x y z
#
# Youngs Moduli (GPa) = 54.07271 54.07271 130.01952
#
# Poissons Ratio (x) = 0.29303 0.26489
# Poissons Ratio (y) = 0.29303 0.26489
# Poissons Ratio (z) = 0.11016 0.11016
#
# Static dielectric constant tensor:
#      x y z
#    x 2.882770 0.000000 0.000000 
#    y 0.000000 2.882770 0.000000 
#    z 0.000000 0.000000 4.649580 
# 
# 
# High freq. dielectric constant tensor:
#      x y z
#    x 1.589980 0.000000 0.000000 
#    y 0.000000 1.589980 0.000000 
#    z 0.000000 0.000000 1.676180 
# 
# From -- ./inp_files/186.got.cif
#   From: 2010.03.12/outbox.cif.g09.slc.cpg/sg165_1_cif.got.tgz:186.got - 2010.04.02 06:36:38.
