data_PCOD8323030
_publ_section_title
;
Structure prediction by ZEFSAII (Michael W. Deem and Ramdas Pophale) SiO2 
 PCOD8323030
Probable space group: P -3 1 M 
;
_chemical_formula_sum "Si O2"
_cell_formula_units_Z 84
_cell_length_a 19.509057
_cell_length_b 19.509057
_cell_length_c 13.436510
_cell_angle_alpha 90.000000
_cell_angle_beta 90.000000
_cell_angle_gamma 120.000000
_cell_volume 4428.836693
_symmetry_space_group_name_H-M "P -3 1 M "
_symmetry_group_IT_number 162
_symmetry_cell_setting 'hexagonal'
loop_
_space_group_symop_operation_xyz
x,y,z
-y,x-y,z
-x+y,-x,z
-y,-x,-z
-x+y,y,-z
x,x-y,-z
-x,-y,-z
y,-x+y,-z
x-y,x,-z
y,x,z
x-y,-y,z
-x,-x+y,z
loop_
_atom_site_type_symbol
_atom_site_label
_atom_site_fract_x
_atom_site_fract_y
_atom_site_fract_z
Si Si1 0.468748 0.910664 0.685526
Si Si2 0.092598 0.678478 0.374676
Si Si3 0.093547 0.698794 0.594897
Si Si4 0.343958 0.171420 0.248349
Si Si5 0.575244 0.153826 0.889172
Si Si6 0.906697 0.813444 0.884747
Si Si7 0.245299 0.485906 0.889764
O O1 0.377352 0.868873 0.647820
O O2 0.515751 0.869086 0.639466
O O3 0.472415 0.910537 0.805924
O O4 0.513855 0.000000 0.647564
O O5 0.123911 0.721111 0.481322
O O6 0.109830 0.742087 0.288734
O O7 0.000000 0.621434 0.376976
O O8 0.119287 0.778220 0.657445
O O9 0.000000 0.649150 0.600514
O O10 0.261476 0.132472 0.189173
O O11 0.413499 0.179354 0.177382
O O12 0.518291 0.187532 0.859062
O O13 0.665632 0.224689 0.885136
O O14 0.557611 0.115221 0.000000
O O15 0.867874 0.867874 0.863155
O O16 0.000000 0.864904 0.861825
O O17 0.892468 0.784936 0.000000
O O18 0.225122 0.450244 0.000000
#
# Coordination Sequence:
#
# PCOD8323030 Si02
#       7
#    12  12  12  12  12  12  12
#     4  10  19  34  53  74 103 146 188 222 263 319
#     4  10  21  36  54  77 107 145 186 228 276 330
#     4  10  21  36  54  77 107 145 186 228 276 330
#     4  12  20  34  58  85 114 136 182 234 292 331
#     4  10  19  34  51  73 103 143 186 219 262 319
#     4  10  22  41  64  89 117 150 185 225 284 366
#     4  10  20  33  52  75 107 147 188 230 269 322
#
# _framework density 18.966605999999999
#
# number of rings (size 3 to 8) (size 9 to 14) (size 15 to 20)
#    0.000    1.714    2.857    2.571    0.000    3.714 
#    0.000    0.000    0.000    0.000    0.000    4.000 
#    0.000    6.857    0.000    0.000    0.000    0.000 
#
# Total GULP energy -1041123.798438 kJ/mol
# GULP energy per Si atom -12394.330934 kJ/mol
# Density = 1.892344 g / cm^3
# Si number density = 18.966606 Si / 1000 Ang^3
#
#
#
# Elastic Constant Matrix: (Units=GPa)
#
#
# Indices 1 2 3 4 5 6 
#
# 1 77.9353 26.3208 36.5263 0.0000 -0.2003 0.0000
# 2 26.3208 77.9353 36.5263 0.0000 0.2003 0.0000
# 3 36.5263 36.5263 108.4932 0.0000 0.0000 0.0000
# 4 0.0000 0.0000 0.0000 31.3107 0.0000 0.2003
# 5 -0.2003 0.2003 0.0000 0.0000 31.3107 0.0000
# 6 0.0000 0.0000 0.0000 0.2003 0.0000 25.8072
#
#
#
# Elastic Compliance Matrix: (Units=1/GPa)
#
#
# Indices 1 2 3 4 5 6 
#
# 1 0.015964 -0.003411 -0.004226 0.000000 0.000124 0.000000
# 2 -0.003411 0.015964 -0.004226 0.000000 -0.000124 0.000000
# 3 -0.004226 -0.004226 0.012063 0.000000 0.000000 0.000000
# 4 0.000000 0.000000 0.000000 0.031940 0.000000 -0.000248
# 5 0.000124 -0.000124 0.000000 0.000000 0.031940 0.000000
# 6 0.000000 0.000000 0.000000 -0.000248 0.000000 0.038751
#
#
# Mechanical properties :
#
#
# Convention : Reuss Voigt Hill
#
# Bulk Modulus (GPa) = 49.34834 51.45674 50.40254
# Shear Modulus (GPa) = 28.23214 28.68509 28.45861
#
# Velocity S-wave (km/s) = 3.86232 3.89318 3.87778
# Velocity P-wave (km/s) = 6.77975 6.88463 6.83239
#
# Compressibility (1/GPa) = 0.02026411
#
# Stress axis : x y z
#
# Youngs Moduli (GPa) = 62.63997 62.63997 82.89900
#
# Poissons Ratio (x) = 0.21367 0.35035
# Poissons Ratio (y) = 0.21367 0.35035
# Poissons Ratio (z) = 0.26473 0.26473
#
# Static dielectric constant tensor:
#      x y z
#    x 3.323340 0.000000 0.000000 
#    y 0.000000 3.323340 0.000000 
#    z 0.000000 0.000000 3.698790 
# 
# 
# High freq. dielectric constant tensor:
#      x y z
#    x 1.724090 0.000000 0.000000 
#    y 0.000000 1.724090 0.000000 
#    z 0.000000 0.000000 1.750700 
# 
# From -- ./inp_files/3209.got.cif
#   From: 2010.03.12/outbox.cif.g09.slc.cpg/sg162_2_cif.got.tgz:3209.got - 2010.04.02 06:27:41.
