data_PCOD8323124
_publ_section_title
;
Structure prediction by ZEFSAII (Michael W. Deem and Ramdas Pophale) SiO2 
 PCOD8323124
Probable space group: P -3 1 M 
;
_chemical_formula_sum "Si O2"
_cell_formula_units_Z 42
_cell_length_a 20.822862
_cell_length_b 20.822862
_cell_length_c 5.091447
_cell_angle_alpha 90.000000
_cell_angle_beta 90.000000
_cell_angle_gamma 120.000000
_cell_volume 1911.845093
_symmetry_space_group_name_H-M "P -3 1 M "
_symmetry_group_IT_number 162
_symmetry_cell_setting 'hexagonal'
loop_
_space_group_symop_operation_xyz
x,y,z
-y,x-y,z
-x+y,-x,z
-y,-x,-z
-x+y,y,-z
x,x-y,-z
-x,-y,-z
y,-x+y,-z
x-y,x,-z
y,x,z
x-y,-y,z
-x,-x+y,z
loop_
_atom_site_type_symbol
_atom_site_label
_atom_site_fract_x
_atom_site_fract_y
_atom_site_fract_z
Si Si1 0.718361 0.917891 0.327646
Si Si2 0.141953 0.426509 0.943231
Si Si3 0.383142 0.469862 0.548047
Si Si4 0.841092 0.920546 0.000000
O O1 0.681574 0.840787 0.500000
O O2 0.663182 0.903333 0.081073
O O3 0.741230 0.000000 0.457563
O O4 0.793920 0.925863 0.232411
O O5 0.135079 0.453955 0.655866
O O6 0.228665 0.457330 0.000000
O O7 0.106813 0.456050 0.159866
O O8 0.445866 0.554135 0.500000
O O9 0.415409 0.415409 0.496223
O O10 0.891587 0.891587 0.133324
#
# Coordination Sequence:
#
# PCOD8323124 Si02
#       4
#    12  12  12   6
#     4  11  22  37  57  86 126 170 223 282 339 391
#     4  12  24  41  66  99 136 171 212 266 333 395
#     4  11  24  44  70  99 131 171 216 265 322 394
#     4  10  21  36  54  78 118 172 232 284 332 384
#
# _framework density 21.968306999999999
#
# number of rings (size 3 to 8) (size 9 to 14) (size 15 to 20)
#    0.000    0.857    1.429    7.000    0.000    2.286 
#    0.000    0.000    0.000   16.000    0.000    0.000 
#    0.000    0.000    0.000    0.000    0.000    0.000 
#
# Total GULP energy -520373.763671 kJ/mol
# GULP energy per Si atom -12389.851516 kJ/mol
# Density = 2.191831 g / cm^3
# Si number density = 21.968307 Si / 1000 Ang^3
#
#
#
# Elastic Constant Matrix: (Units=GPa)
#
#
# Indices 1 2 3 4 5 6 
#
# 1 133.6355 19.6725 22.8526 0.0071 57.5140 0.0000
# 2 19.6725 133.6355 22.8526 -0.0071 -57.5140 0.0000
# 3 22.8526 22.8526 85.0035 0.0000 0.0000 0.0000
# 4 0.0071 -0.0071 0.0000 112.8019 0.0000 -57.5140
# 5 57.5140 -57.5140 0.0000 0.0000 112.8019 0.0071
# 6 0.0000 0.0000 0.0000 -57.5140 0.0071 56.9815
#
#
#
# Elastic Compliance Matrix: (Units=1/GPa)
#
#
# Indices 1 2 3 4 5 6 
#
# 1 0.012585 -0.005494 -0.001906 -0.000001 -0.009218 0.000000
# 2 -0.005494 0.012585 -0.001906 0.000001 0.009218 0.000000
# 3 -0.001906 -0.001906 0.012789 0.000000 0.000000 0.000000
# 4 -0.000001 0.000001 0.000000 0.018265 0.000000 0.018435
# 5 -0.009218 0.009218 0.000000 0.000000 0.018265 -0.000002
# 6 0.000000 0.000000 0.000000 0.018435 -0.000002 0.036157
#
#
# Mechanical properties :
#
#
# Convention : Reuss Voigt Hill
#
# Bulk Modulus (GPa) = 51.69038 53.67001 52.68019
# Shear Modulus (GPa) = 36.84397 75.64349 56.24373
#
# Velocity S-wave (km/s) = 4.09974 5.87433 5.06535
# Velocity P-wave (km/s) = 6.78167 8.39607 7.63168
#
# Compressibility (1/GPa) = 0.01934596
#
# Stress axis : x y z
#
# Youngs Moduli (GPa) = 79.46036 79.46036 78.19048
#
# Poissons Ratio (x) = 0.43653 0.14906
# Poissons Ratio (y) = 0.43653 0.14906
# Poissons Ratio (z) = 0.15148 0.15148
#
# Static dielectric constant tensor:
#      x y z
#    x 4.421850 0.000000 0.000000 
#    y 0.000000 4.421850 0.000000 
#    z 0.000000 0.000000 3.850420 
# 
# 
# High freq. dielectric constant tensor:
#      x y z
#    x 1.867170 0.000000 0.000000 
#    y 0.000000 1.867170 0.000000 
#    z 0.000000 0.000000 1.854450 
# 
# From -- ./inp_files/346.got.cif
#   From: 2010.03.12/outbox.cif.g09.slc.cpg/sg162_1_cif.got.tgz:346.got - 2010.04.02 06:27:41.
