data_PCOD8323076
_publ_section_title
;
Structure prediction by ZEFSAII (Michael W. Deem and Ramdas Pophale) SiO2 
 PCOD8323076
Probable space group: P -3 1 M 
;
_chemical_formula_sum "Si O2"
_cell_formula_units_Z 64
_cell_length_a 14.264198
_cell_length_b 14.264198
_cell_length_c 18.547251
_cell_angle_alpha 90.000000
_cell_angle_beta 90.000000
_cell_angle_gamma 120.000000
_cell_volume 3268.171950
_symmetry_space_group_name_H-M "P -3 1 M "
_symmetry_group_IT_number 162
_symmetry_cell_setting 'hexagonal'
loop_
_space_group_symop_operation_xyz
x,y,z
-y,x-y,z
-x+y,-x,z
-y,-x,-z
-x+y,y,-z
x,x-y,-z
-x,-y,-z
y,-x+y,-z
x-y,x,-z
y,x,z
x-y,-y,z
-x,-x+y,z
loop_
_atom_site_type_symbol
_atom_site_label
_atom_site_fract_x
_atom_site_fract_y
_atom_site_fract_z
Si Si1 0.875791 0.126339 0.078270
Si Si2 0.569450 0.119503 0.831243
Si Si3 0.880875 0.238006 0.789868
Si Si4 0.333333 0.666668 0.085337
Si Si5 0.872887 0.333411 0.469348
Si Si6 0.307518 0.430406 0.694525
O O1 0.850843 0.181662 0.146060
O O2 0.000000 0.158588 0.077031
O O3 0.803940 0.000000 0.092226
O O4 0.844431 0.155570 0.000000
O O5 0.456774 0.112908 0.820577
O O6 0.642032 0.215125 0.887138
O O7 0.625227 0.148334 0.752948
O O8 0.544998 0.000000 0.858764
O O9 0.818222 0.197060 0.714628
O O10 0.000000 0.258287 0.772876
O O11 0.333334 0.666667 0.000000
O O12 0.786818 0.213183 0.500000
O O13 0.848691 0.424346 0.500000
O O14 0.849316 0.330779 0.384468
O O15 0.000000 0.368108 0.484685
O O16 0.334954 0.334954 0.698072
#
# Coordination Sequence:
#
# PCOD8323076 Si02
#       6
#    12  12  12   4  12  12
#     4   9  17  30  50  77 109 144 185 235 288 337
#     4  10  22  40  58  80 110 148 192 237 286 340
#     4  10  20  34  56  82 108 146 191 234 284 339
#     4  12  24  39  60  84 112 152 196 243 297 348
#     4  10  23  40  62  95 127 158 197 242 298 357
#     4  10  21  38  59  83 115 151 191 234 282 346
#
# _framework density 19.582813000000002
#
# number of rings (size 3 to 8) (size 9 to 14) (size 15 to 20)
#    0.000    2.062    1.875    0.938    2.625    2.625 
#    0.000    0.000    0.000    0.562    0.000    0.000 
#    0.000    0.000    0.000    0.000    0.000    0.188 
#
# Total GULP energy -793074.098413 kJ/mol
# GULP energy per Si atom -12391.782788 kJ/mol
# Density = 1.953824 g / cm^3
# Si number density = 19.582813 Si / 1000 Ang^3
#
#
#
# Elastic Constant Matrix: (Units=GPa)
#
#
# Indices 1 2 3 4 5 6 
#
# 1 76.2766 38.4175 50.8823 -0.0002 -1.8004 -0.0001
# 2 38.4175 76.2770 50.8823 0.0003 1.8004 0.0001
# 3 50.8823 50.8823 142.3698 0.0001 0.0000 -0.0002
# 4 -0.0002 0.0003 0.0001 29.1348 0.0000 1.8006
# 5 -1.8004 1.8004 0.0000 0.0000 29.1349 -0.0002
# 6 -0.0001 0.0001 -0.0002 1.8006 -0.0002 18.9294
#
#
#
# Elastic Compliance Matrix: (Units=1/GPa)
#
#
# Indices 1 2 3 4 5 6 
#
# 1 0.019669 -0.006901 -0.004563 0.000000 0.001642 0.000000
# 2 -0.006901 0.019669 -0.004563 0.000000 -0.001642 0.000000
# 3 -0.004563 -0.004563 0.010286 0.000000 0.000000 0.000000
# 4 0.000000 0.000000 0.000000 0.034526 0.000000 -0.003284
# 5 0.001642 -0.001642 0.000000 0.000000 0.034526 0.000000
# 6 0.000000 0.000000 0.000000 -0.003284 0.000000 0.053140
#
#
# Mechanical properties :
#
#
# Convention : Reuss Voigt Hill
#
# Bulk Modulus (GPa) = 56.92046 63.92085 60.42066
# Shear Modulus (GPa) = 23.84066 25.75590 24.79828
#
# Velocity S-wave (km/s) = 3.49295 3.63054 3.56241
# Velocity P-wave (km/s) = 6.73775 7.09131 6.91679
#
# Compressibility (1/GPa) = 0.01756837
#
# Stress axis : x y z
#
# Youngs Moduli (GPa) = 50.84228 50.84264 97.22349
#
# Poissons Ratio (x) = 0.35087 0.44364
# Poissons Ratio (y) = 0.35087 0.44363
# Poissons Ratio (z) = 0.23200 0.23200
#
# Static dielectric constant tensor:
#      x y z
#    x 3.796680 0.000000 0.000000 
#    y 0.000000 3.796690 0.000000 
#    z 0.000000 0.000000 3.681640 
# 
# 
# High freq. dielectric constant tensor:
#      x y z
#    x 1.762230 0.000000 0.000000 
#    y 0.000000 1.762230 0.000000 
#    z 0.000000 0.000000 1.758890 
# 
# From -- ./inp_files/3459.got.cif
#   From: 2010.03.12/outbox.cif.g09.slc.cpg/sg162_2_cif.got.tgz:3459.got - 2010.04.02 06:27:41.
