data_PCOD8323892
_publ_section_title
;
Structure prediction by ZEFSAII (Michael W. Deem and Ramdas Pophale) SiO2 
 PCOD8323892
Probable space group: P -3 C 1
;
_chemical_formula_sum "Si O2"
_cell_formula_units_Z 60
_cell_length_a 16.684537
_cell_length_b 16.684537
_cell_length_c 13.858999
_cell_angle_alpha 90.000000
_cell_angle_beta 90.000000
_cell_angle_gamma 120.000000
_cell_volume 3341.110305
_symmetry_space_group_name_H-M "P -3 C 1"
_symmetry_group_IT_number 165
_symmetry_cell_setting 'hexagonal'
loop_
_space_group_symop_operation_xyz
x,y,z
-y,x-y,z
-x+y,-x,z
x-y,-y,1/2-z
-x,-x+y,1/2-z
y,x,1/2-z
-x,-y,-z
y,-x+y,-z
x-y,x,-z
-x+y,y,1/2+z
x,x-y,1/2+z
-y,-x,1/2+z
loop_
_atom_site_type_symbol
_atom_site_label
_atom_site_fract_x
_atom_site_fract_y
_atom_site_fract_z
Si Si1 0.402309 0.507931 0.267017
Si Si2 0.592544 0.691178 0.274603
Si Si3 0.547806 0.756363 0.628472
Si Si4 0.500528 0.872733 0.489238
Si Si5 0.346296 0.926712 0.485885
O O1 0.422314 0.422314 0.250000
O O2 0.496919 0.601165 0.245937
O O3 0.334403 0.517501 0.191689
O O4 0.359726 0.500717 0.373811
O O5 0.678747 0.678747 0.250000
O O6 0.608234 0.776065 0.208189
O O7 0.590603 0.709058 0.387747
O O8 0.493163 0.786971 0.551855
O O9 0.616896 0.732800 0.567884
O O10 0.416311 0.889565 0.515130
O O11 0.598020 0.962528 0.520041
#
# Coordination Sequence:
#
# PCOD8323892 Si02
#       5
#    12  12  12  12  12
#     4  10  20  36  55  76 106 147 184 225 286 330
#     4  10  20  36  55  76 106 147 184 225 286 330
#     4  12  20  32  56  80  96 138 196 226 256 328
#     4  10  20  36  55  76 106 147 184 225 286 330
#     4  10  20  36  55  76 106 147 184 225 286 330
#
# _framework density 17.958103000000001
#
# number of rings (size 3 to 8) (size 9 to 14) (size 15 to 20)
#    0.000    1.600    4.000    2.400    0.000    0.000 
#    9.600    0.000    0.000    0.000    0.000    0.000 
#    0.000    0.000    0.000   12.000    0.000    0.000 
#
# Total GULP energy -743320.454196 kJ/mol
# GULP energy per Si atom -12388.674237 kJ/mol
# Density = 1.791723 g / cm^3
# Si number density = 17.958103 Si / 1000 Ang^3
#
#
#
# Elastic Constant Matrix: (Units=GPa)
#
#
# Indices 1 2 3 4 5 6 
#
# 1 59.1713 20.9718 42.8668 -0.9256 0.0000 0.0000
# 2 20.9718 59.1713 42.8668 0.9256 0.0000 0.0000
# 3 42.8668 42.8668 118.0072 0.0000 0.0000 0.0000
# 4 -0.9256 0.9256 0.0000 34.7730 0.0000 0.0000
# 5 0.0000 0.0000 0.0000 0.0000 34.7730 -0.9256
# 6 0.0000 0.0000 0.0000 0.0000 -0.9256 19.0998
#
#
#
# Elastic Compliance Matrix: (Units=1/GPa)
#
#
# Indices 1 2 3 4 5 6 
#
# 1 0.023310 -0.002902 -0.007413 0.000698 0.000000 0.000000
# 2 -0.002902 0.023310 -0.007413 -0.000698 0.000000 0.000000
# 3 -0.007413 -0.007413 0.013860 0.000000 0.000000 0.000000
# 4 0.000698 -0.000698 0.000000 0.028795 0.000000 0.000000
# 5 0.000000 0.000000 0.000000 0.000000 0.028795 0.001395
# 6 0.000000 0.000000 0.000000 0.000000 0.001395 0.052424
#
#
# Mechanical properties :
#
#
# Convention : Reuss Voigt Hill
#
# Bulk Modulus (GPa) = 39.96354 49.97338 44.96846
# Shear Modulus (GPa) = 23.33252 26.37212 24.85232
#
# Velocity S-wave (km/s) = 3.60846 3.83631 3.72412
# Velocity P-wave (km/s) = 6.29788 6.89283 6.60206
#
# Compressibility (1/GPa) = 0.02502281
#
# Stress axis : x y z
#
# Youngs Moduli (GPa) = 42.89974 42.89974 72.15020
#
# Poissons Ratio (x) = 0.12449 0.53488
# Poissons Ratio (y) = 0.12449 0.53488
# Poissons Ratio (z) = 0.31803 0.31803
#
# Static dielectric constant tensor:
#      x y z
#    x 3.144480 0.000000 0.000000 
#    y 0.000000 3.144480 0.000000 
#    z 0.000000 0.000000 3.764750 
# 
# 
# High freq. dielectric constant tensor:
#      x y z
#    x 1.650870 0.000000 0.000000 
#    y 0.000000 1.650870 0.000000 
#    z 0.000000 0.000000 1.740620 
# 
# From -- ./inp_files/1693.got.cif
#   From: 2010.03.12/outbox.cif.g09.slc.cpg/sg165_1_cif.got.tgz:1693.got - 2010.04.02 06:36:38.
