data_PCOD8323032
_publ_section_title
;
Structure prediction by ZEFSAII (Michael W. Deem and Ramdas Pophale) SiO2 
 PCOD8323032
Probable space group: P -3 1 M 
;
_chemical_formula_sum "Si O2"
_cell_formula_units_Z 66
_cell_length_a 27.341012
_cell_length_b 27.341012
_cell_length_c 5.185247
_cell_angle_alpha 90.000000
_cell_angle_beta 90.000000
_cell_angle_gamma 120.000000
_cell_volume 3356.829256
_symmetry_space_group_name_H-M "P -3 1 M "
_symmetry_group_IT_number 162
_symmetry_cell_setting 'hexagonal'
loop_
_space_group_symop_operation_xyz
x,y,z
-y,x-y,z
-x+y,-x,z
-y,-x,-z
-x+y,y,-z
x,x-y,-z
-x,-y,-z
y,-x+y,-z
x-y,x,-z
y,x,z
x-y,-y,z
-x,-x+y,z
loop_
_atom_site_type_symbol
_atom_site_label
_atom_site_fract_x
_atom_site_fract_y
_atom_site_fract_z
Si Si1 0.576289 0.423712 0.500000
Si Si2 0.194883 0.698202 0.427364
Si Si3 0.762750 0.063967 0.986883
Si Si4 0.173203 0.236963 0.478784
Si Si5 0.300805 0.867582 0.058812
Si Si6 0.517166 0.939257 0.839157
O O1 0.637327 0.446497 0.632526
O O2 0.591423 0.478740 0.339403
O O3 0.259688 0.740313 0.500000
O O4 0.156515 0.700801 0.656893
O O5 0.179652 0.718197 0.162393
O O6 0.798385 0.068579 0.737362
O O7 0.740455 0.107305 0.951965
O O8 0.710935 0.000000 0.019791
O O9 0.802234 0.081932 0.238392
O O10 0.105970 0.211939 0.500000
O O11 0.184980 0.184980 0.440339
O O12 0.364921 0.918114 0.995274
O O13 0.560499 0.000000 0.702896
O O14 0.475854 0.951708 0.000000
#
# Coordination Sequence:
#
# PCOD8323032 Si02
#       6
#     6  12  12  12  12  12
#     4  10  21  40  56  78 114 136 184 234 278 330
#     4  11  24  39  58  80 105 142 182 230 283 333
#     4  10  21  36  55  84 117 152 188 225 270 328
#     4  10  21  37  58  83 115 154 195 236 278 328
#     4  11  22  38  57  84 115 144 181 231 276 330
#     4  10  19  34  57  82 109 146 180 216 277 337
#
# _framework density 19.661411999999999
#
# number of rings (size 3 to 8) (size 9 to 14) (size 15 to 20)
#    0.000    1.636    1.818    3.000    0.000    4.364 
#    0.545    1.818    0.000    0.182    0.000    0.000 
#    0.000    4.364    0.000    0.000    0.000    0.727 
#
# Total GULP energy -817757.057758 kJ/mol
# GULP energy per Si atom -12390.258451 kJ/mol
# Density = 1.961666 g / cm^3
# Si number density = 19.661412 Si / 1000 Ang^3
#
#
#
# Elastic Constant Matrix: (Units=GPa)
#
#
# Indices 1 2 3 4 5 6 
#
# 1 29.9046 124.4028 15.8745 -0.0014 -34.2506 0.0000
# 2 124.4028 29.9046 15.8745 0.0014 34.2506 0.0000
# 3 15.8745 15.8745 100.2182 0.0000 0.0000 0.0000
# 4 -0.0014 0.0014 0.0000 13.8759 0.0000 34.2506
# 5 -34.2506 34.2506 0.0000 0.0000 13.8759 -0.0014
# 6 0.0000 0.0000 0.0000 34.2506 -0.0014 -47.2491
#
#
#
# Elastic Compliance Matrix: (Units=1/GPa)
#
#
# Indices 1 2 3 4 5 6 
#
# 1 0.001453 0.005246 -0.001061 0.000000 -0.009365 0.000000
# 2 0.005246 0.001453 -0.001061 0.000000 0.009365 0.000000
# 3 -0.001061 -0.001061 0.010314 0.000000 0.000000 0.000000
# 4 0.000000 0.000000 0.000000 0.025837 0.000000 0.018729
# 5 -0.009365 0.009365 0.000000 0.000000 0.025837 -0.000001
# 6 0.000000 0.000000 0.000000 0.018729 -0.000001 -0.007588
#
#
# Mechanical properties :
#
#
# Convention : Reuss Voigt Hill
#
# Bulk Modulus (GPa) = 51.36697 52.48124 51.92410
# Shear Modulus (GPa) = 86.88555 -3.64109 41.62223
#
# Velocity S-wave (km/s) = 6.65484 -1.36232 4.60602
# Velocity P-wave (km/s) = 9.23210 4.92706 7.39958
#
# Compressibility (1/GPa) = 0.01946776
#
# Stress axis : x y z
#
# Youngs Moduli (GPa) = 688.46242 688.46242 96.95195
#
# Poissons Ratio (x) = -3.61194 0.10288
# Poissons Ratio (y) = -3.61194 0.10288
# Poissons Ratio (z) = 0.73053 0.73053
#
# Static dielectric constant tensor:
#      x y z
#    x 4.115570 0.000000 0.000000 
#    y 0.000000 4.115570 0.000000 
#    z 0.000000 0.000000 3.458500 
# 
# 
# High freq. dielectric constant tensor:
#      x y z
#    x 1.763510 0.000000 0.000000 
#    y 0.000000 1.763510 0.000000 
#    z 0.000000 0.000000 1.764720 
# 
# From -- ./inp_files/730.got.cif
#   From: 2010.03.12/outbox.cif.g09.slc.cpg/sg162_1_cif.got.tgz:730.got - 2010.04.02 06:27:41.
