data_PCOD8323112
_publ_section_title
;
Structure prediction by ZEFSAII (Michael W. Deem and Ramdas Pophale) SiO2 
 PCOD8323112
Probable space group: P -3 1 M 
;
_chemical_formula_sum "Si O2"
_cell_formula_units_Z 72
_cell_length_a 14.411743
_cell_length_b 14.411743
_cell_length_c 17.993651
_cell_angle_alpha 90.000000
_cell_angle_beta 90.000000
_cell_angle_gamma 120.000000
_cell_volume 3236.554632
_symmetry_space_group_name_H-M "P -3 1 M "
_symmetry_group_IT_number 162
_symmetry_cell_setting 'hexagonal'
loop_
_space_group_symop_operation_xyz
x,y,z
-y,x-y,z
-x+y,-x,z
-y,-x,-z
-x+y,y,-z
x,x-y,-z
-x,-y,-z
y,-x+y,-z
x-y,x,-z
y,x,z
x-y,-y,z
-x,-x+y,z
loop_
_atom_site_type_symbol
_atom_site_label
_atom_site_fract_x
_atom_site_fract_y
_atom_site_fract_z
Si Si1 0.774285 0.556263 0.413168
Si Si2 0.445250 0.877314 0.167699
Si Si3 0.879907 0.662526 0.169835
Si Si4 0.246214 0.125294 0.324060
Si Si5 0.563685 0.123317 0.667940
Si Si6 0.123019 0.410149 0.059502
O O1 0.767094 0.534187 0.500000
O O2 0.855216 0.681931 0.397709
O O3 0.808557 0.479360 0.373694
O O4 0.660289 0.530503 0.380029
O O5 0.544678 0.860394 0.151353
O O6 0.396040 0.828407 0.248909
O O7 0.359570 0.833037 0.099853
O O8 0.478183 0.000000 0.172153
O O9 0.859578 0.673437 0.255961
O O10 0.794240 0.675220 0.120223
O O11 0.000000 0.752722 0.147387
O O12 0.148550 0.148550 0.327153
O O13 0.198923 0.000000 0.315926
O O14 0.468481 0.000000 0.672953
O O15 0.000000 0.359448 0.027491
O O16 0.212568 0.425135 0.000000
#
# Coordination Sequence:
#
# PCOD8323112 Si02
#       6
#    12  12  12  12  12  12
#     4  12  25  40  63  95 131 175 224 278 347 414
#     4   9  20  39  64  93 125 167 217 270 326 393
#     4  10  20  40  67  92 126 171 222 278 332 390
#     4  11  23  41  65  95 132 178 231 283 335 396
#     4  11  23  43  66  92 130 173 220 279 340 401
#     4  11  23  40  64  98 137 175 216 264 330 402
#
# _framework density 22.245878999999999
#
# number of rings (size 3 to 8) (size 9 to 14) (size 15 to 20)
#    0.000    1.333    1.667    4.000    0.000    5.333 
#    1.000    2.500    0.000    5.000    0.000    0.000 
#    0.000    0.000    0.000    0.000    0.000    0.000 
#
# Total GULP energy -892591.230019 kJ/mol
# GULP energy per Si atom -12397.100417 kJ/mol
# Density = 2.219525 g / cm^3
# Si number density = 22.245879 Si / 1000 Ang^3
#
#
#
# Elastic Constant Matrix: (Units=GPa)
#
#
# Indices 1 2 3 4 5 6 
#
# 1 93.8293 32.3921 44.2562 0.0000 0.0101 0.0000
# 2 32.3921 93.8293 44.2562 0.0000 -0.0101 0.0000
# 3 44.2562 44.2562 128.0590 0.0000 0.0000 0.0000
# 4 0.0000 0.0000 0.0000 28.6032 0.0000 -0.0101
# 5 0.0101 -0.0101 0.0000 0.0000 28.6032 0.0000
# 6 0.0000 0.0000 0.0000 -0.0101 0.0000 30.7186
#
#
#
# Elastic Compliance Matrix: (Units=1/GPa)
#
#
# Indices 1 2 3 4 5 6 
#
# 1 0.013367 -0.002910 -0.003614 0.000000 -0.000006 0.000000
# 2 -0.002910 0.013367 -0.003614 0.000000 0.000006 0.000000
# 3 -0.003614 -0.003614 0.010307 0.000000 0.000000 0.000000
# 4 0.000000 0.000000 0.000000 0.034961 0.000000 0.000012
# 5 -0.000006 0.000006 0.000000 0.000000 0.034961 0.000000
# 6 0.000000 0.000000 0.000000 0.000012 0.000000 0.032554
#
#
# Mechanical properties :
#
#
# Convention : Reuss Voigt Hill
#
# Bulk Modulus (GPa) = 59.64780 61.94740 60.79760
# Shear Modulus (GPa) = 30.23349 30.57254 30.40301
#
# Velocity S-wave (km/s) = 3.69054 3.71118 3.70088
# Velocity P-wave (km/s) = 6.71054 6.80227 6.75656
#
# Compressibility (1/GPa) = 0.01676508
#
# Stress axis : x y z
#
# Youngs Moduli (GPa) = 74.81248 74.81248 97.02449
#
# Poissons Ratio (x) = 0.21771 0.35062
# Poissons Ratio (y) = 0.21771 0.35062
# Poissons Ratio (z) = 0.27035 0.27035
#
# Static dielectric constant tensor:
#      x y z
#    x 3.977780 0.000000 0.000000 
#    y 0.000000 3.977780 0.000000 
#    z 0.000000 0.000000 4.066760 
# 
# 
# High freq. dielectric constant tensor:
#      x y z
#    x 1.873630 0.000000 0.000000 
#    y 0.000000 1.873630 0.000000 
#    z 0.000000 0.000000 1.876780 
# 
# From -- ./inp_files/3496.got.cif
#   From: 2010.03.12/outbox.cif.g09.slc.cpg/sg162_2_cif.got.tgz:3496.got - 2010.04.02 06:27:41.
