data_PCOD8323156
_publ_section_title
;
Structure prediction by ZEFSAII (Michael W. Deem and Ramdas Pophale) SiO2 
 PCOD8323156
Probable space group: P -3 1 M 
;
_chemical_formula_sum "Si O2"
_cell_formula_units_Z 60
_cell_length_a 28.420472
_cell_length_b 28.420472
_cell_length_c 4.968381
_cell_angle_alpha 90.000000
_cell_angle_beta 90.000000
_cell_angle_gamma 120.000000
_cell_volume 3475.426407
_symmetry_space_group_name_H-M "P -3 1 M "
_symmetry_group_IT_number 162
_symmetry_cell_setting 'hexagonal'
loop_
_space_group_symop_operation_xyz
x,y,z
-y,x-y,z
-x+y,-x,z
-y,-x,-z
-x+y,y,-z
x,x-y,-z
-x,-y,-z
y,-x+y,-z
x-y,x,-z
y,x,z
x-y,-y,z
-x,-x+y,z
loop_
_atom_site_type_symbol
_atom_site_label
_atom_site_fract_x
_atom_site_fract_y
_atom_site_fract_z
Si Si1 0.519262 0.790239 0.762253
Si Si2 0.226677 0.355948 0.892697
Si Si3 0.489782 0.876966 0.894258
Si Si4 0.340586 0.061716 0.586904
Si Si5 0.061220 0.613473 0.407136
O O1 0.507968 0.753984 0.500000
O O2 0.582838 0.830577 0.801584
O O3 0.488051 0.824234 0.763142
O O4 0.494153 0.747077 0.000000
O O5 0.230530 0.324681 0.628913
O O6 0.164733 0.329465 0.000000
O O7 0.263462 0.351470 0.120975
O O8 0.509091 0.920682 0.651706
O O9 0.430609 0.861218 0.000000
O O10 0.530238 0.900534 0.146486
O O11 0.395763 0.064192 0.484824
O O12 0.291561 0.000000 0.606080
O O13 0.000000 0.569044 0.323625
#
# Coordination Sequence:
#
# PCOD8323156 Si02
#       5
#    12  12  12  12  12
#     4  11  21  36  56  75  98 123 157 209 264 305
#     4  11  20  33  54  78 102 132 178 220 253 298
#     4  12  24  38  55  78 104 129 171 207 248 316
#     4  11  20  34  52  75 109 142 170 208 266 315
#     4  11  22  37  53  74 109 144 170 197 243 310
#
# _framework density 17.264068000000002
#
# number of rings (size 3 to 8) (size 9 to 14) (size 15 to 20)
#    0.000    0.800    4.000    6.000    0.000    5.600 
#    0.000    0.000    0.000    0.400    0.000    2.800 
#    0.000    0.000    0.000    0.000    0.000    0.000 
#
# Total GULP energy -744026.613337 kJ/mol
# GULP energy per Si atom -12400.443556 kJ/mol
# Density = 1.722477 g / cm^3
# Si number density = 17.264068 Si / 1000 Ang^3
#
#
#
# Elastic Constant Matrix: (Units=GPa)
#
#
# Indices 1 2 3 4 5 6 
#
# 1 74.8849 39.8008 32.7034 -0.0002 -2.1782 0.0000
# 2 39.8008 74.8849 32.7034 0.0002 2.1782 0.0000
# 3 32.7034 32.7034 123.2054 0.0000 0.0000 0.0000
# 4 -0.0002 0.0002 0.0000 29.6391 0.0000 2.1782
# 5 -2.1782 2.1782 0.0000 0.0000 29.6391 -0.0002
# 6 0.0000 0.0000 0.0000 2.1782 -0.0002 17.5421
#
#
#
# Elastic Compliance Matrix: (Units=1/GPa)
#
#
# Indices 1 2 3 4 5 6 
#
# 1 0.019520 -0.009245 -0.002727 0.000000 0.002114 0.000000
# 2 -0.009245 0.019520 -0.002727 0.000000 -0.002114 0.000000
# 3 -0.002727 -0.002727 0.009564 0.000000 0.000000 0.000000
# 4 0.000000 0.000000 0.000000 0.034050 0.000000 -0.004228
# 5 0.002114 -0.002114 0.000000 0.000000 0.034050 0.000000
# 6 0.000000 0.000000 0.000000 -0.004228 0.000000 0.057531
#
#
# Mechanical properties :
#
#
# Convention : Reuss Voigt Hill
#
# Bulk Modulus (GPa) = 52.07019 53.71005 52.89012
# Shear Modulus (GPa) = 23.80534 26.54855 25.17695
#
# Velocity S-wave (km/s) = 3.71738 3.92572 3.82297
# Velocity P-wave (km/s) = 6.97508 7.19214 7.08444
#
# Compressibility (1/GPa) = 0.01920485
#
# Stress axis : x y z
#
# Youngs Moduli (GPa) = 51.22910 51.22910 104.55416
#
# Poissons Ratio (x) = 0.47362 0.28516
# Poissons Ratio (y) = 0.47362 0.28516
# Poissons Ratio (z) = 0.13972 0.13972
#
# Static dielectric constant tensor:
#      x y z
#    x 3.167530 0.000000 0.000000 
#    y 0.000000 3.167530 0.000000 
#    z 0.000000 0.000000 3.414370 
# 
# 
# High freq. dielectric constant tensor:
#      x y z
#    x 1.634870 0.000000 0.000000 
#    y 0.000000 1.634870 0.000000 
#    z 0.000000 0.000000 1.694320 
# 
# From -- ./inp_files/675.got.cif
#   From: 2010.03.12/outbox.cif.g09.slc.cpg/sg162_1_cif.got.tgz:675.got - 2010.04.02 06:27:41.
