data_PCOD8323401
_publ_section_title
;
Structure prediction by ZEFSAII (Michael W. Deem and Ramdas Pophale) SiO2 
 PCOD8323401
Probable space group: P -3 M 1
;
_chemical_formula_sum "Si O2"
_cell_formula_units_Z 84
_cell_length_a 18.082117
_cell_length_b 18.082117
_cell_length_c 21.353990
_cell_angle_alpha 90.000000
_cell_angle_beta 90.000000
_cell_angle_gamma 120.000000
_cell_volume 6046.557911
_symmetry_space_group_name_H-M "P -3 M 1"
_symmetry_group_IT_number 164
_symmetry_cell_setting 'hexagonal'
loop_
_space_group_symop_operation_xyz
x,y,z
-y,x-y,z
-x+y,-x,z
x-y,-y,-z
-x,-x+y,-z
y,x,-z
-x,-y,-z
y,-x+y,-z
x-y,x,-z
-x+y,y,z
x,x-y,z
-y,-x,z
loop_
_atom_site_type_symbol
_atom_site_label
_atom_site_fract_x
_atom_site_fract_y
_atom_site_fract_z
Si Si1 0.999999 0.587795 0.789251
Si Si2 0.837056 0.504077 0.572691
Si Si3 0.162929 0.669117 0.867068
Si Si4 0.905102 0.365179 0.000001
Si Si5 0.411976 0.411975 0.648032
Si Si6 0.669117 0.506188 0.867069
Si Si7 0.495924 0.332979 0.427306
O O1 1.000000 0.500000 0.789688
O O2 0.999997 0.618882 0.718680
O O3 0.915510 0.573772 0.824660
O O4 0.084491 0.658263 0.824658
O O5 0.754022 0.508043 0.592768
O O6 0.818948 0.409474 0.587952
O O7 0.915975 0.575257 0.612597
O O8 0.859236 0.525797 0.499998
O O9 0.175763 0.587882 0.861311
O O10 0.248434 0.751566 0.842934
O O11 0.145862 0.685263 0.938471
O O12 0.915441 0.457721 0.000001
O O13 0.854136 0.314737 0.938472
O O14 0.000000 0.377239 0.000000
O O15 0.500002 0.499999 0.646344
O O16 0.340719 0.424744 0.612600
O O17 0.751567 0.503133 0.842935
O O18 0.587882 0.412119 0.861312
O O19 0.491956 0.245978 0.407228
O O20 0.590527 0.409473 0.412044
#
# Coordination Sequence:
#
# PCOD8323401 Si02
#       7
#    12  12  12  12  12  12  12
#     4   9  18  30  40  52  76 107 134 163 202 240
#     4   9  16  26  41  60  80 102 131 168 205 237
#     4  10  18  28  42  59  78 102 135 171 204 238
#     4   9  15  26  42  57  76 102 129 162 205 245
#     4   9  17  28  40  54  75 105 136 163 196 239
#     4  10  18  28  42  59  78 102 135 171 204 238
#     4   9  16  26  41  60  80 102 131 168 205 237
#
# _framework density 13.892201999999999
#
# number of rings (size 3 to 8) (size 9 to 14) (size 15 to 20)
#    0.000    2.714    1.429    1.429    0.000    4.000 
#    0.000    1.429    0.000    3.429    0.000    0.000 
#    0.000    0.000    0.000    0.857    0.000   12.000 
#
# Total GULP energy -1041454.287480 kJ/mol
# GULP energy per Si atom -12398.265327 kJ/mol
# Density = 1.386058 g / cm^3
# Si number density = 13.892202 Si / 1000 Ang^3
#
#
#
# Elastic Constant Matrix: (Units=GPa)
#
#
# Indices 1 2 3 4 5 6 
#
# 1 78.3621 40.7758 44.7294 0.0001 0.0000 0.0000
# 2 40.7758 78.3621 44.7294 -0.0001 0.0000 0.0000
# 3 44.7294 44.7294 97.8986 0.0000 0.0000 0.0000
# 4 0.0001 -0.0001 0.0000 12.5951 0.0000 0.0000
# 5 0.0000 0.0000 0.0000 0.0000 12.5951 0.0001
# 6 0.0000 0.0000 0.0000 0.0000 0.0001 18.7931
#
#
#
# Elastic Compliance Matrix: (Units=1/GPa)
#
#
# Indices 1 2 3 4 5 6 
#
# 1 0.019691 -0.006914 -0.005838 0.000000 0.000000 0.000000
# 2 -0.006914 0.019691 -0.005838 0.000000 0.000000 0.000000
# 3 -0.005838 -0.005838 0.015549 0.000000 0.000000 0.000000
# 4 0.000000 0.000000 0.000000 0.079396 0.000000 0.000000
# 5 0.000000 0.000000 0.000000 0.000000 0.079396 0.000000
# 6 0.000000 0.000000 0.000000 0.000000 0.000000 0.053211
#
#
# Mechanical properties :
#
#
# Convention : Reuss Voigt Hill
#
# Bulk Modulus (GPa) = 56.33094 57.23243 56.78169
# Shear Modulus (GPa) = 16.12740 17.08922 16.60831
#
# Velocity S-wave (km/s) = 3.41089 3.51113 3.46137
# Velocity P-wave (km/s) = 7.49325 7.59765 7.54563
#
# Compressibility (1/GPa) = 0.01775223
#
# Stress axis : x y z
#
# Youngs Moduli (GPa) = 50.78382 50.78382 64.31201
#
# Poissons Ratio (x) = 0.35113 0.37544
# Poissons Ratio (y) = 0.35113 0.37544
# Poissons Ratio (z) = 0.29647 0.29647
#
# Static dielectric constant tensor:
#      x y z
#    x 2.545810 0.000000 0.000000 
#    y 0.000000 2.545810 0.000000 
#    z 0.000000 0.000000 2.911890 
# 
# 
# High freq. dielectric constant tensor:
#      x y z
#    x 1.499820 0.000000 0.000000 
#    y 0.000000 1.499820 0.000000 
#    z 0.000000 0.000000 1.539830 
# 
# From -- ./inp_files/4673.got.cif
#   From: 2010.03.12/outbox.cif.g09.slc.cpg/sg164_3_cif.got.tgz:4673.got - 2010.04.02 06:32:59.
