data_PCOD8323652
_publ_section_title
;
Structure prediction by ZEFSAII (Michael W. Deem and Ramdas Pophale) SiO2 
 PCOD8323652
Probable space group: P -3 M 1
;
_chemical_formula_sum "Si O2"
_cell_formula_units_Z 66
_cell_length_a 12.789723
_cell_length_b 12.789723
_cell_length_c 28.278116
_cell_angle_alpha 90.000000
_cell_angle_beta 90.000000
_cell_angle_gamma 120.000000
_cell_volume 4005.930226
_symmetry_space_group_name_H-M "P -3 M 1"
_symmetry_group_IT_number 164
_symmetry_cell_setting 'hexagonal'
loop_
_space_group_symop_operation_xyz
x,y,z
-y,x-y,z
-x+y,-x,z
x-y,-y,-z
-x,-x+y,-z
y,x,-z
-x,-y,-z
y,-x+y,-z
x-y,x,-z
-x+y,y,z
x,x-y,z
-y,-x,z
loop_
_atom_site_type_symbol
_atom_site_label
_atom_site_fract_x
_atom_site_fract_y
_atom_site_fract_z
Si Si1 0.246830 0.001127 0.897678
Si Si2 0.574391 0.908317 0.645228
Si Si3 0.244257 0.000297 0.727413
Si Si4 0.000000 0.240192 0.000000
Si Si5 0.425575 0.333664 0.461180
Si Si6 0.579062 0.910839 0.186196
O O1 0.212102 0.106051 0.891678
O O2 0.348282 0.018408 0.860485
O O3 0.308234 0.012063 0.950073
O O4 0.127207 0.872793 0.888808
O O5 0.459746 0.919491 0.660998
O O6 0.535722 0.767861 0.648299
O O7 0.616019 0.957916 0.592027
O O8 0.686488 0.989825 0.678901
O O9 0.215593 0.107797 0.721975
O O10 0.337510 0.023969 0.769065
O O11 0.120719 0.879282 0.739379
O O12 0.110141 0.220281 0.990869
O O13 0.335832 0.335832 0.500000
O O14 0.423232 0.211616 0.470157
O O15 0.560534 0.439467 0.470400
O O16 0.460155 0.920310 0.190291
O O17 0.541936 0.770968 0.183834
#
# Coordination Sequence:
#
# PCOD8323652 Si02
#       6
#    12  12  12   6  12  12
#     4   9  16  27  46  71  97 122 149 185 228 272
#     4   9  17  30  48  69  92 120 154 189 224 264
#     4  10  20  33  50  71  94 118 144 179 224 273
#     4   8  13  22  39  66  96 122 148 180 222 268
#     4   9  17  29  46  67  91 120 154 192 230 267
#     4  10  20  33  48  65  87 117 152 188 223 262
#
# _framework density 16.475573000000001
#
# number of rings (size 3 to 8) (size 9 to 14) (size 15 to 20)
#    0.000    2.727    0.000    2.091    0.000    3.636 
#    0.000    2.273    0.000    4.545    0.000    0.000 
#    0.000    0.000    0.000    0.000    0.000    0.000 
#
# Total GULP energy -818023.735565 kJ/mol
# GULP energy per Si atom -12394.299024 kJ/mol
# Density = 1.643807 g / cm^3
# Si number density = 16.475573 Si / 1000 Ang^3
#
#
#
# Elastic Constant Matrix: (Units=GPa)
#
#
# Indices 1 2 3 4 5 6 
#
# 1 95.7183 41.4145 59.8766 6.2693 0.0000 0.0000
# 2 41.4145 95.7183 59.8766 -6.2693 0.0000 0.0000
# 3 59.8766 59.8766 130.6661 0.0000 0.0000 0.0000
# 4 6.2693 -6.2693 0.0000 32.8795 0.0000 0.0000
# 5 0.0000 0.0000 0.0000 0.0000 32.8795 6.2693
# 6 0.0000 0.0000 0.0000 0.0000 6.2693 27.1519
#
#
#
# Elastic Compliance Matrix: (Units=1/GPa)
#
#
# Indices 1 2 3 4 5 6 
#
# 1 0.015710 -0.003553 -0.005571 -0.003673 0.000000 0.000000
# 2 -0.003553 0.015710 -0.005571 0.003673 0.000000 0.000000
# 3 -0.005571 -0.005571 0.012759 0.000000 0.000000 0.000000
# 4 -0.003673 0.003673 0.000000 0.031815 0.000000 0.000000
# 5 0.000000 0.000000 0.000000 0.000000 0.031815 -0.007346
# 6 0.000000 0.000000 0.000000 0.000000 -0.007346 0.038526
#
#
# Mechanical properties :
#
#
# Convention : Reuss Voigt Hill
#
# Bulk Modulus (GPa) = 67.61630 71.60422 69.61026
# Shear Modulus (GPa) = 27.67732 29.31121 28.49426
#
# Velocity S-wave (km/s) = 4.10311 4.22248 4.16322
# Velocity P-wave (km/s) = 7.97350 8.20534 8.09025
#
# Compressibility (1/GPa) = 0.01478933
#
# Stress axis : x y z
#
# Youngs Moduli (GPa) = 63.65369 63.65369 78.37812
#
# Poissons Ratio (x) = 0.22616 0.43663
# Poissons Ratio (y) = 0.22616 0.43663
# Poissons Ratio (z) = 0.35460 0.35460
#
# Static dielectric constant tensor:
#      x y z
#    x 2.923540 0.000000 0.000000 
#    y 0.000000 2.923540 0.000000 
#    z 0.000000 0.000000 3.425060 
# 
# 
# High freq. dielectric constant tensor:
#      x y z
#    x 1.618010 0.000000 0.000000 
#    y 0.000000 1.618010 0.000000 
#    z 0.000000 0.000000 1.656000 
# 
# From -- ./inp_files/5437.got.cif
#   From: 2010.03.12/outbox.cif.g09.slc.cpg/sg164_3_cif.got.tgz:5437.got - 2010.04.02 06:32:59.
