data_PCOD8323655
_publ_section_title
;
Structure prediction by ZEFSAII (Michael W. Deem and Ramdas Pophale) SiO2 
 PCOD8323655
Probable space group: P -3 M 1
;
_chemical_formula_sum "Si O2"
_cell_formula_units_Z 60
_cell_length_a 12.523591
_cell_length_b 12.523591
_cell_length_c 26.136623
_cell_angle_alpha 90.000000
_cell_angle_beta 90.000000
_cell_angle_gamma 120.000000
_cell_volume 3550.077687
_symmetry_space_group_name_H-M "P -3 M 1"
_symmetry_group_IT_number 164
_symmetry_cell_setting 'hexagonal'
loop_
_space_group_symop_operation_xyz
x,y,z
-y,x-y,z
-x+y,-x,z
x-y,-y,-z
-x,-x+y,-z
y,x,-z
-x,-y,-z
y,-x+y,-z
x-y,x,-z
-x+y,y,z
x,x-y,z
-y,-x,z
loop_
_atom_site_type_symbol
_atom_site_label
_atom_site_fract_x
_atom_site_fract_y
_atom_site_fract_z
Si Si1 0.251303 0.252272 0.164885
Si Si2 0.248245 0.248965 0.053996
Si Si3 0.333513 0.416685 0.451544
Si Si4 0.332487 0.914823 0.741607
Si Si5 0.750777 0.000615 0.355398
O O1 0.123829 0.247657 0.177895
O O2 0.303340 0.316386 0.108515
O O3 0.354701 0.337429 0.205456
O O4 0.225880 0.112940 0.167781
O O5 0.108362 0.216723 0.049626
O O6 0.247463 0.123732 0.058246
O O7 0.317665 0.317665 0.000000
O O8 0.347076 0.347076 0.500000
O O9 0.214064 0.428128 0.460077
O O10 0.447951 0.552050 0.444892
O O11 0.324563 0.339971 0.401357
O O12 0.462064 0.924127 0.732168
O O13 0.228082 0.771919 0.743391
O O14 0.308117 0.985649 0.696510
O O15 0.771008 0.885504 0.349461
O O16 0.881336 0.118665 0.367311
#
# Coordination Sequence:
#
# PCOD8323655 Si02
#       5
#    12  12  12  12  12
#     4   9  16  26  43  67  93 119 146 181 227 277
#     4   8  12  18  31  55  87 118 144 172 213 268
#     4  10  20  34  52  74 101 133 168 203 237 273
#     4  10  20  33  48  65  87 117 153 191 228 267
#     4  10  20  34  53  76 100 124 150 185 232 284
#
# _framework density 16.901038
#
# number of rings (size 3 to 8) (size 9 to 14) (size 15 to 20)
#    0.000    2.600    0.000    2.800    0.000    2.400 
#    0.000    2.000    0.000   14.600    0.000    0.000 
#    0.000    0.000    0.000    0.000    0.000    0.000 
#
# Total GULP energy -743413.354823 kJ/mol
# GULP energy per Si atom -12390.222580 kJ/mol
# Density = 1.686257 g / cm^3
# Si number density = 16.901038 Si / 1000 Ang^3
#
#
#
# Elastic Constant Matrix: (Units=GPa)
#
#
# Indices 1 2 3 4 5 6 
#
# 1 57.1737 34.8786 45.2335 3.0711 0.0000 0.0000
# 2 34.8786 57.1737 45.2335 -3.0711 0.0000 0.0000
# 3 45.2335 45.2335 113.6382 0.0000 0.0000 0.0000
# 4 3.0711 -3.0711 0.0000 18.1417 0.0000 0.0000
# 5 0.0000 0.0000 0.0000 0.0000 18.1417 3.0711
# 6 0.0000 0.0000 0.0000 0.0000 3.0711 11.1475
#
#
#
# Elastic Compliance Matrix: (Units=1/GPa)
#
#
# Indices 1 2 3 4 5 6 
#
# 1 0.032446 -0.014602 -0.007103 -0.007964 0.000000 0.000000
# 2 -0.014602 0.032446 -0.007103 0.007964 0.000000 0.000000
# 3 -0.007103 -0.007103 0.014454 0.000000 0.000000 0.000000
# 4 -0.007964 0.007964 0.000000 0.057818 0.000000 0.000000
# 5 0.000000 0.000000 0.000000 0.000000 0.057818 -0.015929
# 6 0.000000 0.000000 0.000000 0.000000 -0.015929 0.094095
#
#
# Mechanical properties :
#
#
# Convention : Reuss Voigt Hill
#
# Bulk Modulus (GPa) = 46.01707 53.18632 49.60170
# Shear Modulus (GPa) = 14.12693 16.32883 15.22788
#
# Velocity S-wave (km/s) = 2.89426 3.11166 3.00493
# Velocity P-wave (km/s) = 6.20125 6.66689 6.43828
#
# Compressibility (1/GPa) = 0.02173107
#
# Stress axis : x y z
#
# Youngs Moduli (GPa) = 30.82091 30.82091 69.18367
#
# Poissons Ratio (x) = 0.45004 0.49139
# Poissons Ratio (y) = 0.45004 0.49139
# Poissons Ratio (z) = 0.21891 0.21891
#
# Static dielectric constant tensor:
#      x y z
#    x 2.935300 0.000000 0.000000 
#    y 0.000000 2.935300 0.000000 
#    z 0.000000 0.000000 3.817250 
# 
# 
# High freq. dielectric constant tensor:
#      x y z
#    x 1.630120 0.000000 0.000000 
#    y 0.000000 1.630120 0.000000 
#    z 0.000000 0.000000 1.683460 
# 
# From -- ./inp_files/5182.got.cif
#   From: 2010.03.12/outbox.cif.g09.slc.cpg/sg164_3_cif.got.tgz:5182.got - 2010.04.02 06:32:59.
