data_PCOD8323575
_publ_section_title
;
Structure prediction by ZEFSAII (Michael W. Deem and Ramdas Pophale) SiO2 
 PCOD8323575
Probable space group: P -3 M 1
;
_chemical_formula_sum "Si O2"
_cell_formula_units_Z 60
_cell_length_a 17.064975
_cell_length_b 17.064975
_cell_length_c 12.807061
_cell_angle_alpha 90.000000
_cell_angle_beta 90.000000
_cell_angle_gamma 120.000000
_cell_volume 3229.917448
_symmetry_space_group_name_H-M "P -3 M 1"
_symmetry_group_IT_number 164
_symmetry_cell_setting 'hexagonal'
loop_
_space_group_symop_operation_xyz
x,y,z
-y,x-y,z
-x+y,-x,z
x-y,-y,-z
-x,-x+y,-z
y,x,-z
-x,-y,-z
y,-x+y,-z
x-y,x,-z
-x+y,y,z
x,x-y,z
-y,-x,z
loop_
_atom_site_type_symbol
_atom_site_label
_atom_site_fract_x
_atom_site_fract_y
_atom_site_fract_z
Si Si1 0.022139 0.382807 0.756387
Si Si2 0.269623 0.906331 0.543020
Si Si3 0.843071 0.334340 0.647604
Si Si4 0.335225 0.847883 0.937818
Si Si5 0.314946 0.246113 0.919500
O O1 0.930574 0.382120 0.722801
O O2 0.985790 0.286369 0.812631
O O3 0.083954 0.393860 0.657874
O O4 0.085678 0.460682 0.837744
O O5 0.163269 0.836732 0.545589
O O6 0.322162 0.872793 0.467586
O O7 0.281196 0.000000 0.500000
O O8 0.803161 0.401581 0.638416
O O9 0.763027 0.236974 0.691034
O O10 0.414870 0.829740 0.977193
O O11 0.246604 0.753397 0.906038
O O12 0.310138 0.894913 0.031252
O O13 0.294430 0.147215 0.893107
O O14 0.239816 0.239816 0.000000
#
# Coordination Sequence:
#
# PCOD8323575 Si02
#       5
#    12  12  12  12  12
#     4  10  19  32  52  74  99 128 166 206 241 284
#     4   9  19  34  52  74  98 127 163 201 242 289
#     4  10  20  33  49  71 100 133 167 203 243 286
#     4  10  20  33  49  71 100 133 167 203 243 286
#     4   9  19  34  52  74  98 127 163 201 242 289
#
# _framework density 18.576326999999999
#
# number of rings (size 3 to 8) (size 9 to 14) (size 15 to 20)
#    0.000    2.400    0.000    2.200    0.000   10.400 
#    0.000    0.000    0.000    5.200    0.000    1.400 
#    0.000    0.000    0.000    0.000    0.000    0.000 
#
# Total GULP energy -743664.350543 kJ/mol
# GULP energy per Si atom -12394.405842 kJ/mol
# Density = 1.853405 g / cm^3
# Si number density = 18.576327 Si / 1000 Ang^3
#
#
#
# Elastic Constant Matrix: (Units=GPa)
#
#
# Indices 1 2 3 4 5 6 
#
# 1 60.6252 24.0453 -7.6345 -3.1299 0.0000 0.0000
# 2 24.0453 60.6252 -7.6345 3.1299 0.0000 0.0000
# 3 -7.6345 -7.6345 42.5313 0.0000 0.0000 0.0000
# 4 -3.1299 3.1299 0.0000 10.4931 0.0000 0.0000
# 5 0.0000 0.0000 0.0000 0.0000 10.4931 -3.1299
# 6 0.0000 0.0000 0.0000 0.0000 -3.1299 18.2899
#
#
#
# Elastic Compliance Matrix: (Units=1/GPa)
#
#
# Indices 1 2 3 4 5 6 
#
# 1 0.020507 -0.008301 0.002191 0.008593 0.000000 0.000000
# 2 -0.008301 0.020507 0.002191 -0.008593 0.000000 0.000000
# 3 0.002191 0.002191 0.024299 0.000000 0.000000 0.000000
# 4 0.008593 -0.008593 0.000000 0.100426 0.000000 0.000000
# 5 0.000000 0.000000 0.000000 0.000000 0.100426 0.017185
# 6 0.000000 0.000000 0.000000 0.000000 0.017185 0.057616
#
#
# Mechanical properties :
#
#
# Convention : Reuss Voigt Hill
#
# Bulk Modulus (GPa) = 17.39929 20.14825 18.77377
# Shear Modulus (GPa) = 14.25407 18.18892 16.22149
#
# Velocity S-wave (km/s) = 2.77307 3.13252 2.95826
# Velocity P-wave (km/s) = 4.43169 4.89422 4.66869
#
# Compressibility (1/GPa) = 0.05747362
#
# Stress axis : x y z
#
# Youngs Moduli (GPa) = 48.76447 48.76447 41.15450
#
# Poissons Ratio (x) = 0.40480 -0.09017
# Poissons Ratio (y) = 0.40480 -0.09017
# Poissons Ratio (z) = -0.10684 -0.10684
#
# Static dielectric constant tensor:
#      x y z
#    x 3.381350 0.000000 0.000000 
#    y 0.000000 3.381350 0.000000 
#    z 0.000000 0.000000 3.461650 
# 
# 
# High freq. dielectric constant tensor:
#      x y z
#    x 1.709840 0.000000 0.000000 
#    y 0.000000 1.709840 0.000000 
#    z 0.000000 0.000000 1.726230 
# 
# From -- ./inp_files/2714.got.cif
#   From: 2010.03.12/outbox.cif.g09.slc.cpg/sg164_2_cif.got.tgz:2714.got - 2010.04.02 06:32:59.
