data_PCOD8323625
_publ_section_title
;
Structure prediction by ZEFSAII (Michael W. Deem and Ramdas Pophale) SiO2 
 PCOD8323625
Probable space group: P -3 M 1
;
_chemical_formula_sum "Si O2"
_cell_formula_units_Z 54
_cell_length_a 12.654723
_cell_length_b 12.654723
_cell_length_c 22.888422
_cell_angle_alpha 90.000000
_cell_angle_beta 90.000000
_cell_angle_gamma 120.000000
_cell_volume 3174.327784
_symmetry_space_group_name_H-M "P -3 M 1"
_symmetry_group_IT_number 164
_symmetry_cell_setting 'hexagonal'
loop_
_space_group_symop_operation_xyz
x,y,z
-y,x-y,z
-x+y,-x,z
x-y,-y,-z
-x,-x+y,-z
y,x,-z
-x,-y,-z
y,-x+y,-z
x-y,x,-z
-x+y,y,z
x,x-y,z
-y,-x,z
loop_
_atom_site_type_symbol
_atom_site_label
_atom_site_fract_x
_atom_site_fract_y
_atom_site_fract_z
Si Si1 0.753283 0.753283 0.000000
Si Si2 0.666668 0.089869 0.897991
Si Si3 0.913837 0.334757 0.337432
Si Si4 0.419606 0.084500 0.554336
Si Si5 0.333141 0.422940 0.234491
O O1 0.682408 0.683098 0.058291
O O2 0.884659 0.769317 0.003935
O O3 0.539741 0.079482 0.913618
O O4 0.770562 0.229439 0.907309
O O5 0.669930 0.048318 0.831737
O O6 0.873753 0.436877 0.341158
O O7 0.795923 0.204078 0.346082
O O8 0.011566 0.356226 0.387014
O O9 0.975107 0.338755 0.275291
O O10 0.561220 0.122440 0.551964
O O11 0.410552 0.205276 0.552128
O O12 0.346659 0.000000 0.500000
O O13 0.204664 0.409327 0.253063
O O14 0.435139 0.564862 0.241543
#
# Coordination Sequence:
#
# PCOD8323625 Si02
#       5
#     6  12  12  12  12
#     4  10  20  32  46  64  90 126 164 198 230 272
#     4   9  17  30  49  72  95 119 150 192 242 290
#     4  10  20  33  50  71  97 129 162 197 235 277
#     4  10  20  34  54  78 102 128 159 198 241 284
#     4   9  17  30  50  74  97 121 151 192 241 289
#
# _framework density 17.011475999999998
#
# number of rings (size 3 to 8) (size 9 to 14) (size 15 to 20)
#    0.000    2.444    0.000    2.667    0.000    2.667 
#    0.000    4.444    0.000    8.889    0.000    0.000 
#    0.000    0.000    0.000    0.000    0.000    0.000 
#
# Total GULP energy -669699.260346 kJ/mol
# GULP energy per Si atom -12401.838155 kJ/mol
# Density = 1.697276 g / cm^3
# Si number density = 17.011476 Si / 1000 Ang^3
#
#
#
# Elastic Constant Matrix: (Units=GPa)
#
#
# Indices 1 2 3 4 5 6 
#
# 1 103.0239 63.6252 59.8133 -0.0424 0.0000 0.0000
# 2 63.6252 103.0239 59.8133 0.0424 0.0000 0.0000
# 3 59.8133 59.8133 121.2693 0.0000 0.0000 0.0000
# 4 -0.0424 0.0424 0.0000 21.7525 0.0000 0.0000
# 5 0.0000 0.0000 0.0000 0.0000 21.7525 -0.0424
# 6 0.0000 0.0000 0.0000 0.0000 -0.0424 19.6994
#
#
#
# Elastic Compliance Matrix: (Units=1/GPa)
#
#
# Indices 1 2 3 4 5 6 
#
# 1 0.017336 -0.008046 -0.004582 0.000050 0.000000 0.000000
# 2 -0.008046 0.017336 -0.004582 -0.000050 0.000000 0.000000
# 3 -0.004582 -0.004582 0.012766 0.000000 0.000000 0.000000
# 4 0.000050 -0.000050 0.000000 0.045972 0.000000 0.000000
# 5 0.000000 0.000000 0.000000 0.000000 0.045972 0.000099
# 6 0.000000 0.000000 0.000000 0.000000 0.000099 0.050763
#
#
# Mechanical properties :
#
#
# Convention : Reuss Voigt Hill
#
# Bulk Modulus (GPa) = 76.81878 77.09121 76.95499
# Shear Modulus (GPa) = 21.84329 22.24523 22.04426
#
# Velocity S-wave (km/s) = 3.58723 3.62008 3.60369
# Velocity P-wave (km/s) = 7.90017 7.93025 7.91522
#
# Compressibility (1/GPa) = 0.01301765
#
# Stress axis : x y z
#
# Youngs Moduli (GPa) = 57.68451 57.68451 78.33313
#
# Poissons Ratio (x) = 0.46413 0.35892
# Poissons Ratio (y) = 0.46413 0.35892
# Poissons Ratio (z) = 0.26431 0.26431
#
# Static dielectric constant tensor:
#      x y z
#    x 3.022180 0.000000 0.000000 
#    y 0.000000 3.022180 0.000000 
#    z 0.000000 0.000000 3.460100 
# 
# 
# High freq. dielectric constant tensor:
#      x y z
#    x 1.646730 0.000000 0.000000 
#    y 0.000000 1.646730 0.000000 
#    z 0.000000 0.000000 1.674480 
# 
# From -- ./inp_files/4851.got.cif
#   From: 2010.03.12/outbox.cif.g09.slc.cpg/sg164_3_cif.got.tgz:4851.got - 2010.04.02 06:32:59.
