data_PCOD8323266
_publ_section_title
;
Structure prediction by ZEFSAII (Michael W. Deem and Ramdas Pophale) SiO2 
 PCOD8323266
Probable space group: P -3 1 C
;
_chemical_formula_sum "Si O2"
_cell_formula_units_Z 84
_cell_length_a 17.393243
_cell_length_b 17.393243
_cell_length_c 15.748882
_cell_angle_alpha 90.000000
_cell_angle_beta 90.000000
_cell_angle_gamma 120.000000
_cell_volume 4126.116535
_symmetry_space_group_name_H-M "P -3 1 C"
_symmetry_group_IT_number 163
_symmetry_cell_setting 'hexagonal'
loop_
_space_group_symop_operation_xyz
x,y,z
-y,x-y,z
-x+y,-x,z
-y,-x,1/2-z
-x+y,y,1/2-z
x,x-y,1/2-z
-x,-y,-z
y,-x+y,-z
x-y,x,-z
y,x,1/2+z
x-y,-y,1/2+z
-x,-x+y,1/2+z
loop_
_atom_site_type_symbol
_atom_site_label
_atom_site_fract_x
_atom_site_fract_y
_atom_site_fract_z
Si Si1 0.684345 0.013749 0.750061
Si Si2 0.839880 0.329239 0.469557
Si Si3 0.073406 0.762031 0.428627
Si Si4 0.844481 0.333698 0.275561
Si Si5 0.305135 0.249979 0.571416
Si Si6 0.664017 0.486391 0.788758
Si Si7 0.504180 0.336407 0.523143
O O1 0.586677 0.931978 0.771710
O O2 0.737258 0.025031 0.837110
O O3 0.723481 0.999780 0.661011
O O4 0.695979 0.108814 0.729567
O O5 0.894244 0.306007 0.538401
O O6 0.870034 0.331622 0.373288
O O7 0.737226 0.251642 0.470455
O O8 0.860972 0.429487 0.483217
O O9 0.155046 0.859365 0.417546
O O10 0.007572 0.763362 0.499571
O O11 0.757656 0.242345 0.250000
O O12 0.829083 0.414542 0.250000
O O13 0.403912 0.319404 0.533791
O O14 0.566524 0.433477 0.750000
O O15 0.727949 0.455898 0.750000
O O16 0.662729 0.459317 0.884728
#
# Coordination Sequence:
#
# PCOD8323266 Si02
#       7
#    12  12  12  12  12  12  12
#     4  11  23  41  63  91 126 163 213 264 317 366
#     4  11  22  39  57  86 119 166 216 262 315 378
#     4  11  23  40  68  89 130 159 209 264 323 383
#     4  12  27  43  61  88 130 176 222 264 307 364
#     4  10  23  42  62  98 121 167 206 263 321 387
#     4  11  20  35  55  87 118 156 208 265 331 382
#     4  10  21  34  58  80 122 164 212 262 319 367
#
# _framework density 20.358125999999999
#
# number of rings (size 3 to 8) (size 9 to 14) (size 15 to 20)
#    0.000    1.143    1.429    6.571    6.000    1.714 
#    0.000    0.000    0.000    0.286    0.000    0.000 
#    0.000    0.000    0.000    0.000    0.000    0.000 
#
# Total GULP energy -1041010.594233 kJ/mol
# GULP energy per Si atom -12392.983265 kJ/mol
# Density = 2.031179 g / cm^3
# Si number density = 20.358126 Si / 1000 Ang^3
#
#
#
# Elastic Constant Matrix: (Units=GPa)
#
#
# Indices 1 2 3 4 5 6 
#
# 1 69.3108 33.5016 29.6713 -0.0003 -1.8249 0.0000
# 2 33.5016 69.3108 29.6713 0.0003 1.8249 0.0000
# 3 29.6713 29.6713 135.9644 0.0000 0.0000 0.0000
# 4 -0.0003 0.0003 0.0000 29.1559 0.0000 1.8249
# 5 -1.8249 1.8249 0.0000 0.0000 29.1559 -0.0003
# 6 0.0000 0.0000 0.0000 1.8249 -0.0003 17.9046
#
#
#
# Elastic Compliance Matrix: (Units=1/GPa)
#
#
# Indices 1 2 3 4 5 6 
#
# 1 0.019617 -0.008488 -0.002428 0.000000 0.001759 0.000000
# 2 -0.008488 0.019617 -0.002428 0.000000 -0.001759 0.000000
# 3 -0.002428 -0.002428 0.008415 0.000000 0.000000 0.000000
# 4 0.000000 0.000000 0.000000 0.034519 0.000000 -0.003518
# 5 0.001759 -0.001759 0.000000 0.000000 0.034519 0.000001
# 6 0.000000 0.000000 0.000000 -0.003518 0.000001 0.056210
#
#
# Mechanical properties :
#
#
# Convention : Reuss Voigt Hill
#
# Bulk Modulus (GPa) = 47.71635 51.14162 49.42899
# Shear Modulus (GPa) = 24.20467 27.35941 25.78204
#
# Velocity S-wave (km/s) = 3.45185 3.66991 3.56255
# Velocity P-wave (km/s) = 6.27506 6.56758 6.42299
#
# Compressibility (1/GPa) = 0.02095718
#
# Stress axis : x y z
#
# Youngs Moduli (GPa) = 50.97727 50.97727 118.83832
#
# Poissons Ratio (x) = 0.43272 0.28860
# Poissons Ratio (y) = 0.43272 0.28860
# Poissons Ratio (z) = 0.12380 0.12380
#
# Static dielectric constant tensor:
#      x y z
#    x 3.474000 0.000000 0.000000 
#    y 0.000000 3.474000 0.000000 
#    z 0.000000 0.000000 4.151110 
# 
# 
# High freq. dielectric constant tensor:
#      x y z
#    x 1.776080 0.000000 0.000000 
#    y 0.000000 1.776080 0.000000 
#    z 0.000000 0.000000 1.819460 
# 
# From -- ./inp_files/2657.got.cif
#   From: 2010.03.12/outbox.cif.g09.slc.cpg/sg163_2_cif.got.tgz:2657.got - 2010.04.02 06:30:25.
