data_PCOD8323621
_publ_section_title
;
Structure prediction by ZEFSAII (Michael W. Deem and Ramdas Pophale) SiO2 
 PCOD8323621
Probable space group: P -3 M 1
;
_chemical_formula_sum "Si O2"
_cell_formula_units_Z 60
_cell_length_a 12.865890
_cell_length_b 12.865890
_cell_length_c 25.145675
_cell_angle_alpha 90.000000
_cell_angle_beta 90.000000
_cell_angle_gamma 120.000000
_cell_volume 3604.737112
_symmetry_space_group_name_H-M "P -3 M 1"
_symmetry_group_IT_number 164
_symmetry_cell_setting 'hexagonal'
loop_
_space_group_symop_operation_xyz
x,y,z
-y,x-y,z
-x+y,-x,z
x-y,-y,-z
-x,-x+y,-z
y,x,-z
-x,-y,-z
y,-x+y,-z
x-y,x,-z
-x+y,y,z
x,x-y,z
-y,-x,z
loop_
_atom_site_type_symbol
_atom_site_label
_atom_site_fract_x
_atom_site_fract_y
_atom_site_fract_z
Si Si1 0.238283 0.238450 0.637877
Si Si2 0.332178 0.423391 0.849164
Si Si3 0.761382 0.000299 0.240955
Si Si4 0.333630 0.424187 0.452298
Si Si5 0.239058 0.000046 0.939499
O O1 0.197187 0.098594 0.631457
O O2 0.277108 0.280374 0.698413
O O3 0.352219 0.321422 0.601615
O O4 0.127345 0.254690 0.620252
O O5 0.229800 0.459599 0.849074
O O6 0.459127 0.540874 0.849233
O O7 0.324219 0.348877 0.796632
O O8 0.323883 0.348760 0.901681
O O9 0.900039 0.099962 0.231885
O O10 0.745974 0.872987 0.225469
O O11 0.356539 0.356539 0.500000
O O12 0.214444 0.428888 0.465475
O O13 0.441695 0.558306 0.444582
O O14 0.252814 0.126407 0.923315
O O15 0.100306 0.899695 0.931653
O O16 0.279980 0.000000 0.000000
#
# Coordination Sequence:
#
# PCOD8323621 Si02
#       5
#    12  12  12  12  12
#     4   9  17  30  49  73  98 121 147 183 230 281
#     4  10  20  32  46  64  90 125 161 193 222 260
#     4   9  17  30  50  74  96 118 147 188 236 280
#     4  10  20  33  49  68  92 123 158 195 232 273
#     4   9  17  30  50  75  98 118 144 185 237 285
#
# _framework density 16.644763999999999
#
# number of rings (size 3 to 8) (size 9 to 14) (size 15 to 20)
#    0.000    2.600    0.000    2.200    0.000    3.600 
#    0.000    2.000    0.000    6.800    0.000    0.000 
#    0.000    0.000    0.000    0.000    0.000    0.000 
#
# Total GULP energy -744116.723244 kJ/mol
# GULP energy per Si atom -12401.945387 kJ/mol
# Density = 1.660688 g / cm^3
# Si number density = 16.644764 Si / 1000 Ang^3
#
#
#
# Elastic Constant Matrix: (Units=GPa)
#
#
# Indices 1 2 3 4 5 6 
#
# 1 120.1284 74.3468 70.6134 -0.0628 0.0000 0.0000
# 2 74.3468 120.1284 70.6134 0.0628 0.0000 0.0000
# 3 70.6134 70.6134 116.0764 0.0000 0.0000 0.0000
# 4 -0.0628 0.0628 0.0000 23.5121 0.0000 0.0000
# 5 0.0000 0.0000 0.0000 0.0000 23.5121 -0.0628
# 6 0.0000 0.0000 0.0000 0.0000 -0.0628 22.8908
#
#
#
# Elastic Compliance Matrix: (Units=1/GPa)
#
#
# Indices 1 2 3 4 5 6 
#
# 1 0.015527 -0.006316 -0.005604 0.000058 0.000000 0.000000
# 2 -0.006316 0.015527 -0.005604 -0.000058 0.000000 0.000000
# 3 -0.005604 -0.005604 0.015433 0.000000 0.000000 0.000000
# 4 0.000058 -0.000058 0.000000 0.042532 0.000000 0.000000
# 5 0.000000 0.000000 0.000000 0.000000 0.042532 0.000117
# 6 0.000000 0.000000 0.000000 0.000000 0.000117 0.043686
#
#
# Mechanical properties :
#
#
# Convention : Reuss Voigt Hill
#
# Bulk Modulus (GPa) = 87.40439 87.49782 87.45110
# Shear Modulus (GPa) = 23.35400 23.36695 23.36048
#
# Velocity S-wave (km/s) = 3.74984 3.75088 3.75036
# Velocity P-wave (km/s) = 8.44832 8.45226 8.45029
#
# Compressibility (1/GPa) = 0.01144107
#
# Stress axis : x y z
#
# Youngs Moduli (GPa) = 64.40323 64.40323 64.79729
#
# Poissons Ratio (x) = 0.40676 0.36310
# Poissons Ratio (y) = 0.40676 0.36310
# Poissons Ratio (z) = 0.36089 0.36089
#
# Static dielectric constant tensor:
#      x y z
#    x 2.973040 0.000000 0.000000 
#    y 0.000000 2.973040 0.000000 
#    z 0.000000 0.000000 3.418090 
# 
# 
# High freq. dielectric constant tensor:
#      x y z
#    x 1.631450 0.000000 0.000000 
#    y 0.000000 1.631450 0.000000 
#    z 0.000000 0.000000 1.655630 
# 
# From -- ./inp_files/5167.got.cif
#   From: 2010.03.12/outbox.cif.g09.slc.cpg/sg164_3_cif.got.tgz:5167.got - 2010.04.02 06:32:59.
