data_PCOD8323766
_publ_section_title
;
Structure prediction by ZEFSAII (Michael W. Deem and Ramdas Pophale) SiO2 
 PCOD8323766
Probable space group: P -3 M 1
;
_chemical_formula_sum "Si O2"
_cell_formula_units_Z 84
_cell_length_a 17.847511
_cell_length_b 17.847511
_cell_length_c 15.039391
_cell_angle_alpha 90.000000
_cell_angle_beta 90.000000
_cell_angle_gamma 120.000000
_cell_volume 4148.739810
_symmetry_space_group_name_H-M "P -3 M 1"
_symmetry_group_IT_number 164
_symmetry_cell_setting 'hexagonal'
loop_
_space_group_symop_operation_xyz
x,y,z
-y,x-y,z
-x+y,-x,z
x-y,-y,-z
-x,-x+y,-z
y,x,-z
-x,-y,-z
y,-x+y,-z
x-y,x,-z
-x+y,y,z
x,x-y,z
-y,-x,z
loop_
_atom_site_type_symbol
_atom_site_label
_atom_site_fract_x
_atom_site_fract_y
_atom_site_fract_z
Si Si1 0.056081 0.362252 0.142738
Si Si2 0.107788 0.469245 0.813120
Si Si3 0.899407 0.631620 0.355451
Si Si4 0.168958 0.668981 0.005156
Si Si5 0.999977 0.169171 0.104856
Si Si6 0.903312 0.641673 0.666520
Si Si7 0.159074 0.491138 0.483372
O O1 0.110802 0.409277 0.055379
O O2 0.115468 0.387087 0.230458
O O3 0.990581 0.397575 0.157205
O O4 0.004971 0.258626 0.130922
O O5 0.118942 0.559471 0.778885
O O6 0.132766 0.427009 0.732935
O O7 0.165550 0.483170 0.899830
O O8 0.834359 0.668717 0.371845
O O9 0.896466 0.573044 0.437506
O O10 0.996675 0.712395 0.346614
O O11 0.140588 0.570294 0.029753
O O12 0.268233 0.731768 0.033680
O O13 0.911217 0.088784 0.143943
O O14 0.083211 0.166421 0.144325
O O15 0.000000 0.160746 0.000000
O O16 0.838680 0.677360 0.637986
O O17 0.880748 0.556949 0.609535
O O18 0.259569 0.519138 0.492481
O O19 0.149277 0.574639 0.488050
#
# Coordination Sequence:
#
# PCOD8323766 Si02
#       7
#    12  12  12  12  12  12  12
#     4  11  22  36  55  78 107 146 193 234 271 319
#     4  10  21  36  55  80 109 140 178 229 284 336
#     4  10  21  37  60  88 113 142 182 227 280 339
#     4  11  22  36  53  75 107 147 190 232 274 322
#     4  10  20  34  54  81 112 145 183 232 290 346
#     4  10  22  38  55  79 113 149 185 228 274 320
#     4  10  21  38  61  89 118 147 179 221 276 334
#
# _framework density 20.247112000000001
#
# number of rings (size 3 to 8) (size 9 to 14) (size 15 to 20)
#    0.000    1.714    0.000    4.714    0.000    9.714 
#    0.000    0.000    0.000    6.571    0.000    0.000 
#    0.000    3.429    0.000    0.000    0.000    0.000 
#
# Total GULP energy -1041454.905561 kJ/mol
# GULP energy per Si atom -12398.272685 kJ/mol
# Density = 2.020103 g / cm^3
# Si number density = 20.247112 Si / 1000 Ang^3
#
#
#
# Elastic Constant Matrix: (Units=GPa)
#
#
# Indices 1 2 3 4 5 6 
#
# 1 108.1676 56.3043 32.3712 1.6821 0.0000 0.0000
# 2 56.3043 108.1676 32.3712 -1.6821 0.0000 0.0000
# 3 32.3712 32.3712 74.4968 0.0000 0.0000 0.0000
# 4 1.6821 -1.6821 0.0000 19.7836 0.0000 0.0000
# 5 0.0000 0.0000 0.0000 0.0000 19.7836 1.6821
# 6 0.0000 0.0000 0.0000 0.0000 1.6821 25.9317
#
#
#
# Elastic Compliance Matrix: (Units=1/GPa)
#
#
# Indices 1 2 3 4 5 6 
#
# 1 0.013362 -0.006027 -0.003187 -0.001648 0.000000 0.000000
# 2 -0.006027 0.013362 -0.003187 0.001648 0.000000 0.000000
# 3 -0.003187 -0.003187 0.016193 0.000000 0.000000 0.000000
# 4 -0.001648 0.001648 0.000000 0.050827 0.000000 0.000000
# 5 0.000000 0.000000 0.000000 0.000000 0.050827 -0.003297
# 6 0.000000 0.000000 0.000000 0.000000 -0.003297 0.038777
#
#
# Mechanical properties :
#
#
# Convention : Reuss Voigt Hill
#
# Bulk Modulus (GPa) = 55.20602 59.21394 57.20998
# Shear Modulus (GPa) = 23.34403 24.41881 23.88142
#
# Velocity S-wave (km/s) = 3.39920 3.47657 3.43811
# Velocity P-wave (km/s) = 6.53693 6.73977 6.63913
#
# Compressibility (1/GPa) = 0.01811397
#
# Stress axis : x y z
#
# Youngs Moduli (GPa) = 74.84182 74.84182 61.75420
#
# Poissons Ratio (x) = 0.45106 0.19682
# Poissons Ratio (y) = 0.45106 0.19682
# Poissons Ratio (z) = 0.23853 0.23853
#
# Static dielectric constant tensor:
#      x y z
#    x 3.617190 0.000000 0.000000 
#    y 0.000000 3.617190 0.000000 
#    z 0.000000 0.000000 3.797550 
# 
# 
# High freq. dielectric constant tensor:
#      x y z
#    x 1.786820 0.000000 0.000000 
#    y 0.000000 1.786820 0.000000 
#    z 0.000000 0.000000 1.790730 
# 
# From -- ./inp_files/3573.got.cif
#   From: 2010.03.12/outbox.cif.g09.slc.cpg/sg164_2_cif.got.tgz:3573.got - 2010.04.02 06:32:59.
