data_PCOD8323755
_publ_section_title
;
Structure prediction by ZEFSAII (Michael W. Deem and Ramdas Pophale) SiO2 
 PCOD8323755
Probable space group: P -3 M 1
;
_chemical_formula_sum "Si O2"
_cell_formula_units_Z 54
_cell_length_a 12.412257
_cell_length_b 12.412257
_cell_length_c 23.170833
_cell_angle_alpha 90.000000
_cell_angle_beta 90.000000
_cell_angle_gamma 120.000000
_cell_volume 3091.532364
_symmetry_space_group_name_H-M "P -3 M 1"
_symmetry_group_IT_number 164
_symmetry_cell_setting 'hexagonal'
loop_
_space_group_symop_operation_xyz
x,y,z
-y,x-y,z
-x+y,-x,z
x-y,-y,-z
-x,-x+y,-z
y,x,-z
-x,-y,-z
y,-x+y,-z
x-y,x,-z
-x+y,y,z
x,x-y,z
-y,-x,z
loop_
_atom_site_type_symbol
_atom_site_label
_atom_site_fract_x
_atom_site_fract_y
_atom_site_fract_z
Si Si1 0.415526 0.334940 0.054861
Si Si2 0.080883 0.414799 0.167052
Si Si3 0.999697 0.747289 0.277753
Si Si4 0.746668 0.746668 0.500000
Si Si5 0.586188 0.918086 0.610608
O O1 0.407250 0.203625 0.056491
O O2 0.559267 0.440733 0.050654
O O3 0.351663 0.349228 0.111726
O O4 0.339892 0.339892 0.000000
O O5 0.212972 0.425943 0.157422
O O6 0.103435 0.551718 0.176748
O O7 0.009296 0.332103 0.221928
O O8 0.120510 0.879491 0.287141
O O9 0.884700 0.769399 0.269926
O O10 0.984520 0.663094 0.332490
O O11 0.881895 0.763790 0.506080
O O12 0.675098 0.667599 0.444215
O O13 0.462822 0.925644 0.610671
O O14 0.549427 0.774714 0.608351
#
# Coordination Sequence:
#
# PCOD8323755 Si02
#       5
#    12  12  12   6  12
#     4  10  20  34  53  76 102 132 167 208 253 301
#     4  10  20  34  53  76 103 135 170 209 252 299
#     4  10  20  34  53  76 103 135 170 209 252 299
#     4  10  20  34  54  78 104 134 168 208 252 300
#     4  10  20  34  52  74 101 133 169 209 253 300
#
# _framework density 17.467067
#
# number of rings (size 3 to 8) (size 9 to 14) (size 15 to 20)
#    0.000    2.000    0.000    4.000    0.000    0.000 
#    0.000    4.444    0.000   18.667    0.000    0.000 
#    0.000    0.000    0.000    0.000    0.000    0.000 
#
# Total GULP energy -669831.181749 kJ/mol
# GULP energy per Si atom -12404.281144 kJ/mol
# Density = 1.742731 g / cm^3
# Si number density = 17.467067 Si / 1000 Ang^3
#
#
#
# Elastic Constant Matrix: (Units=GPa)
#
#
# Indices 1 2 3 4 5 6 
#
# 1 109.4116 71.8746 76.3139 -5.6460 0.0000 0.0000
# 2 71.8746 109.4116 76.3139 5.6460 0.0000 0.0000
# 3 76.3139 76.3139 129.1814 0.0000 0.0000 0.0000
# 4 -5.6460 5.6460 0.0000 24.2304 0.0000 0.0000
# 5 0.0000 0.0000 0.0000 0.0000 24.2304 -5.6460
# 6 0.0000 0.0000 0.0000 0.0000 -5.6460 18.7685
#
#
#
# Elastic Compliance Matrix: (Units=1/GPa)
#
#
# Indices 1 2 3 4 5 6 
#
# 1 0.019811 -0.008837 -0.006483 0.006676 0.000000 0.000000
# 2 -0.008837 0.019811 -0.006483 -0.006676 0.000000 0.000000
# 3 -0.006483 -0.006483 0.015401 0.000000 0.000000 0.000000
# 4 0.006676 -0.006676 0.000000 0.044381 0.000000 0.000000
# 5 0.000000 0.000000 0.000000 0.000000 0.044381 0.013351
# 6 0.000000 0.000000 0.000000 0.000000 0.013351 0.057297
#
#
# Mechanical properties :
#
#
# Convention : Reuss Voigt Hill
#
# Bulk Modulus (GPa) = 87.58751 88.55661 88.07206
# Shear Modulus (GPa) = 20.12107 21.67936 20.90021
#
# Velocity S-wave (km/s) = 3.39771 3.52683 3.46287
# Velocity P-wave (km/s) = 8.10221 8.20938 8.15597
#
# Compressibility (1/GPa) = 0.01141715
#
# Stress axis : x y z
#
# Youngs Moduli (GPa) = 50.47588 50.47588 64.93137
#
# Poissons Ratio (x) = 0.44606 0.42096
# Poissons Ratio (y) = 0.44606 0.42096
# Poissons Ratio (z) = 0.32724 0.32724
#
# Static dielectric constant tensor:
#      x y z
#    x 3.223680 0.000000 0.000000 
#    y 0.000000 3.223680 0.000000 
#    z 0.000000 0.000000 3.450820 
# 
# 
# High freq. dielectric constant tensor:
#      x y z
#    x 1.682080 0.000000 0.000000 
#    y 0.000000 1.682080 0.000000 
#    z 0.000000 0.000000 1.696020 
# 
# From -- ./inp_files/4452.got.cif
#   From: 2010.03.12/outbox.cif.g09.slc.cpg/sg164_3_cif.got.tgz:4452.got - 2010.04.02 06:32:59.
