data_PCOD8323671
_publ_section_title
;
Structure prediction by ZEFSAII (Michael W. Deem and Ramdas Pophale) SiO2 
 PCOD8323671
Probable space group: P -3 M 1
;
_chemical_formula_sum "Si O2"
_cell_formula_units_Z 60
_cell_length_a 13.126199
_cell_length_b 13.126199
_cell_length_c 24.956137
_cell_angle_alpha 90.000000
_cell_angle_beta 90.000000
_cell_angle_gamma 120.000000
_cell_volume 3723.796685
_symmetry_space_group_name_H-M "P -3 M 1"
_symmetry_group_IT_number 164
_symmetry_cell_setting 'hexagonal'
loop_
_space_group_symop_operation_xyz
x,y,z
-y,x-y,z
-x+y,-x,z
x-y,-y,-z
-x,-x+y,-z
y,x,-z
-x,-y,-z
y,-x+y,-z
x-y,x,-z
-x+y,y,z
x,x-y,z
-y,-x,z
loop_
_atom_site_type_symbol
_atom_site_label
_atom_site_fract_x
_atom_site_fract_y
_atom_site_fract_z
Si Si1 0.000310 0.766032 0.366025
Si Si2 0.427311 0.333701 0.453199
Si Si3 0.569345 0.902132 0.041232
Si Si4 0.765829 0.999595 0.243786
Si Si5 0.333780 0.431412 0.162334
O O1 0.903263 0.806525 0.371784
O O2 0.964643 0.649829 0.400316
O O3 0.008017 0.731592 0.304931
O O4 0.125000 0.875001 0.385264
O O5 0.362384 0.362384 0.500000
O O6 0.433966 0.216983 0.467492
O O7 0.558620 0.441381 0.443364
O O8 0.436559 0.873118 0.033396
O O9 0.572775 0.786388 0.026816
O O10 0.612479 0.945367 0.101808
O O11 0.656581 0.000000 0.000000
O O12 0.877675 0.122325 0.230400
O O13 0.798461 0.899231 0.232156
O O14 0.665577 0.988830 0.204060
O O15 0.230704 0.461408 0.170199
O O16 0.453384 0.546617 0.176512
#
# Coordination Sequence:
#
# PCOD8323671 Si02
#       5
#    12  12  12  12  12
#     4   9  17  30  48  69  91 115 145 181 219 257
#     4  10  20  33  49  68  91 119 149 181 217 258
#     4   9  17  29  45  64  85 111 143 179 218 258
#     4   9  17  29  46  67  90 116 145 178 216 257
#     4   9  17  29  45  64  86 113 145 180 216 255
#
# _framework density 16.112587000000001
#
# number of rings (size 3 to 8) (size 9 to 14) (size 15 to 20)
#    0.000    2.800    0.000    1.600    0.000    4.800 
#    0.000    0.000    0.000    4.200    0.000    0.000 
#    0.000    0.000    0.000    0.000    0.000    0.000 
#
# Total GULP energy -743972.715894 kJ/mol
# GULP energy per Si atom -12399.545265 kJ/mol
# Density = 1.607591 g / cm^3
# Si number density = 16.112587 Si / 1000 Ang^3
#
#
#
# Elastic Constant Matrix: (Units=GPa)
#
#
# Indices 1 2 3 4 5 6 
#
# 1 103.7044 59.6355 65.8652 2.6591 0.0000 0.0000
# 2 59.6355 103.7044 65.8652 -2.6591 0.0000 0.0000
# 3 65.8652 65.8652 102.0366 0.0000 0.0000 0.0000
# 4 2.6591 -2.6591 0.0000 27.9644 0.0000 0.0000
# 5 0.0000 0.0000 0.0000 0.0000 27.9644 2.6591
# 6 0.0000 0.0000 0.0000 0.0000 2.6591 22.0345
#
#
#
# Elastic Compliance Matrix: (Units=1/GPa)
#
#
# Indices 1 2 3 4 5 6 
#
# 1 0.017863 -0.005092 -0.008243 -0.002183 0.000000 0.000000
# 2 -0.005092 0.017863 -0.008243 0.002183 0.000000 0.000000
# 3 -0.008243 -0.008243 0.020442 0.000000 0.000000 0.000000
# 4 -0.002183 0.002183 0.000000 0.036175 0.000000 0.000000
# 5 0.000000 0.000000 0.000000 0.000000 0.036175 -0.004366
# 6 0.000000 0.000000 0.000000 0.000000 -0.004366 0.045910
#
#
# Mechanical properties :
#
#
# Convention : Reuss Voigt Hill
#
# Bulk Modulus (GPa) = 76.86407 76.90856 76.88632
# Shear Modulus (GPa) = 22.53042 23.46464 22.99753
#
# Velocity S-wave (km/s) = 3.74346 3.82028 3.78206
# Velocity P-wave (km/s) = 8.15430 8.20335 8.17886
#
# Compressibility (1/GPa) = 0.01300998
#
# Stress axis : x y z
#
# Youngs Moduli (GPa) = 55.98269 55.98269 48.91773
#
# Poissons Ratio (x) = 0.28509 0.40324
# Poissons Ratio (y) = 0.28509 0.40324
# Poissons Ratio (z) = 0.46148 0.46148
#
# Static dielectric constant tensor:
#      x y z
#    x 2.993990 0.000000 0.000000 
#    y 0.000000 2.993990 0.000000 
#    z 0.000000 0.000000 3.170000 
# 
# 
# High freq. dielectric constant tensor:
#      x y z
#    x 1.614680 0.000000 0.000000 
#    y 0.000000 1.614680 0.000000 
#    z 0.000000 0.000000 1.625090 
# 
# From -- ./inp_files/4458.got.cif
#   From: 2010.03.12/outbox.cif.g09.slc.cpg/sg164_3_cif.got.tgz:4458.got - 2010.04.02 06:32:59.
