data_PCOD8323484
_publ_section_title
;
Structure prediction by ZEFSAII (Michael W. Deem and Ramdas Pophale) SiO2 
 PCOD8323484
Probable space group: P -3 M 1
;
_chemical_formula_sum "Si O2"
_cell_formula_units_Z 84
_cell_length_a 17.327422
_cell_length_b 17.327422
_cell_length_c 22.338647
_cell_angle_alpha 90.000000
_cell_angle_beta 90.000000
_cell_angle_gamma 120.000000
_cell_volume 5808.385093
_symmetry_space_group_name_H-M "P -3 M 1"
_symmetry_group_IT_number 164
_symmetry_cell_setting 'hexagonal'
loop_
_space_group_symop_operation_xyz
x,y,z
-y,x-y,z
-x+y,-x,z
x-y,-y,-z
-x,-x+y,-z
y,x,-z
-x,-y,-z
y,-x+y,-z
x-y,x,-z
-x+y,y,z
x,x-y,z
-y,-x,z
loop_
_atom_site_type_symbol
_atom_site_label
_atom_site_fract_x
_atom_site_fract_y
_atom_site_fract_z
Si Si1 0.488155 0.332656 0.105722
Si Si2 0.034516 0.425955 0.362094
Si Si3 0.425955 0.391439 0.862094
Si Si4 0.156624 0.667240 0.032904
Si Si5 0.332657 0.488156 0.605722
Si Si6 0.489384 0.332761 0.532904
Si Si7 0.666985 0.149468 0.750000
O O1 0.480299 0.240150 0.126227
O O2 0.588752 0.411249 0.118512
O O3 0.414703 0.346226 0.141887
O O4 0.464324 0.331862 0.036060
O O5 0.031445 0.515723 0.360066
O O6 0.076235 0.419470 0.425244
O O7 0.093593 0.424702 0.307206
O O8 0.931523 0.346224 0.358113
O O9 0.515725 0.484276 0.860065
O O10 0.419471 0.343236 0.925244
O O11 0.424702 0.331108 0.807206
O O12 0.177664 0.588832 0.046060
O O13 0.242933 0.757068 0.052410
O O14 0.240149 0.480298 0.626225
O O15 0.411249 0.588752 0.618515
O O16 0.331869 0.464328 0.536060
O O17 0.485864 0.242932 0.552407
O O18 0.588833 0.411168 0.546064
O O19 0.581106 0.162212 0.750000
O O20 0.753957 0.246044 0.750000
#
# Coordination Sequence:
#
# PCOD8323484 Si02
#       7
#    12  12  12  12  12  12  12
#     4   9  16  26  40  57  77 103 135 168 198 228
#     4   9  17  27  38  54  77 104 133 164 197 229
#     4   9  17  27  38  54  77 104 133 164 197 229
#     4   9  15  23  37  57  80 105 133 163 194 230
#     4   9  16  26  40  57  77 103 135 168 198 228
#     4   9  15  23  37  57  80 105 133 163 194 230
#     4  10  19  30  43  58  78 104 132 158 185 224
#
# _framework density 14.461850999999999
#
# number of rings (size 3 to 8) (size 9 to 14) (size 15 to 20)
#    0.000    2.857    0.000    2.429    0.000    5.714 
#    0.000    3.571    0.000    0.000    0.000    2.000 
#    0.000    0.000    0.000   12.000    0.000   53.714 
#
# Total GULP energy -1041103.746238 kJ/mol
# GULP energy per Si atom -12394.092217 kJ/mol
# Density = 1.442893 g / cm^3
# Si number density = 14.461851 Si / 1000 Ang^3
#
#
#
# Elastic Constant Matrix: (Units=GPa)
#
#
# Indices 1 2 3 4 5 6 
#
# 1 80.7140 39.8877 31.1207 0.0000 0.0000 0.0000
# 2 39.8877 80.7140 31.1207 0.0000 0.0000 0.0000
# 3 31.1207 31.1207 44.2277 0.0000 0.0000 0.0000
# 4 0.0000 0.0000 0.0000 17.2221 0.0000 0.0000
# 5 0.0000 0.0000 0.0000 0.0000 17.2221 0.0000
# 6 0.0000 0.0000 0.0000 0.0000 0.0000 20.4132
#
#
#
# Elastic Compliance Matrix: (Units=1/GPa)
#
#
# Indices 1 2 3 4 5 6 
#
# 1 0.018757 -0.005737 -0.009161 0.000000 0.000000 0.000000
# 2 -0.005737 0.018757 -0.009161 0.000000 0.000000 0.000000
# 3 -0.009161 -0.009161 0.035503 0.000000 0.000000 0.000000
# 4 0.000000 0.000000 0.000000 0.058065 0.000000 0.000000
# 5 0.000000 0.000000 0.000000 0.000000 0.058065 0.000000
# 6 0.000000 0.000000 0.000000 0.000000 0.000000 0.048988
#
#
# Mechanical properties :
#
#
# Convention : Reuss Voigt Hill
#
# Bulk Modulus (GPa) = 40.16515 45.54599 42.85557
# Shear Modulus (GPa) = 16.97482 17.87323 17.42403
#
# Velocity S-wave (km/s) = 3.42974 3.51933 3.47483
# Velocity P-wave (km/s) = 6.59679 6.93372 6.76735
#
# Compressibility (1/GPa) = 0.02489721
#
# Stress axis : x y z
#
# Youngs Moduli (GPa) = 53.31360 53.31360 28.16656
#
# Poissons Ratio (x) = 0.30586 0.25805
# Poissons Ratio (y) = 0.30586 0.25805
# Poissons Ratio (z) = 0.48843 0.48843
#
# Static dielectric constant tensor:
#      x y z
#    x 2.736580 0.000000 0.000000 
#    y 0.000000 2.736580 0.000000 
#    z 0.000000 0.000000 2.920890 
# 
# 
# High freq. dielectric constant tensor:
#      x y z
#    x 1.526770 0.000000 0.000000 
#    y 0.000000 1.526770 0.000000 
#    z 0.000000 0.000000 1.550740 
# 
# From -- ./inp_files/4675.got.cif
#   From: 2010.03.12/outbox.cif.g09.slc.cpg/sg164_3_cif.got.tgz:4675.got - 2010.04.02 06:32:59.
