data_PCOD8323223
_publ_section_title
;
Structure prediction by ZEFSAII (Michael W. Deem and Ramdas Pophale) SiO2 
 PCOD8323223
Probable space group: P -3 1 C
;
_chemical_formula_sum "Si O2"
_cell_formula_units_Z 54
_cell_length_a 24.117981
_cell_length_b 24.117981
_cell_length_c 5.338192
_cell_angle_alpha 90.000000
_cell_angle_beta 90.000000
_cell_angle_gamma 120.000000
_cell_volume 2689.098554
_symmetry_space_group_name_H-M "P -3 1 C"
_symmetry_group_IT_number 163
_symmetry_cell_setting 'hexagonal'
loop_
_space_group_symop_operation_xyz
x,y,z
-y,x-y,z
-x+y,-x,z
-y,-x,1/2-z
-x+y,y,1/2-z
x,x-y,1/2-z
-x,-y,-z
y,-x+y,-z
x-y,x,-z
y,x,1/2+z
x-y,-y,1/2+z
-x,-x+y,1/2+z
loop_
_atom_site_type_symbol
_atom_site_label
_atom_site_fract_x
_atom_site_fract_y
_atom_site_fract_z
Si Si1 0.020979 0.696072 0.052440
Si Si2 0.579857 0.548137 0.391054
Si Si3 0.304510 0.548699 0.000805
Si Si4 0.831177 0.602926 0.502433
Si Si5 0.850729 0.425365 0.250000
O O1 0.009058 0.723308 0.314102
O O2 0.978619 0.619334 0.104433
O O3 0.094505 0.718826 0.007384
O O4 0.537296 0.538418 0.637423
O O5 0.602538 0.495387 0.378880
O O6 0.287014 0.574027 0.750000
O O7 0.264249 0.472743 0.011094
O O8 0.379521 0.571409 0.977189
O O9 0.288536 0.577072 0.250000
O O10 0.814493 0.628985 0.250000
O O11 0.815739 0.631477 0.750000
#
# Coordination Sequence:
#
# PCOD8323223 Si02
#       5
#    12  12  12  12   6
#     4  10  19  33  53  82 114 141 173 230 279 328
#     4  10  22  35  55  91 121 140 164 214 298 382
#     4  10  24  41  58  81  99 135 186 233 281 366
#     4  10  20  36  56  78 113 152 186 214 270 356
#     4  12  24  42  66  84 114 146 182 242 326 384
#
# _framework density 20.081078999999999
#
# number of rings (size 3 to 8) (size 9 to 14) (size 15 to 20)
#    0.000    1.778    0.000    4.667    0.000   13.333 
#    0.667    0.000    0.000    0.000    0.000    0.000 
#    0.000    0.000    0.000    0.000    0.000    0.000 
#
# Total GULP energy -669332.879705 kJ/mol
# GULP energy per Si atom -12395.053328 kJ/mol
# Density = 2.003537 g / cm^3
# Si number density = 20.081079 Si / 1000 Ang^3
#
#
#
# Elastic Constant Matrix: (Units=GPa)
#
#
# Indices 1 2 3 4 5 6 
#
# 1 73.1112 22.3891 36.7612 0.0000 -2.4391 0.0000
# 2 22.3891 73.1112 36.7612 0.0000 2.4391 0.0000
# 3 36.7612 36.7612 209.9260 0.0000 0.0000 0.0000
# 4 0.0000 0.0000 0.0000 25.6005 0.0000 2.4391
# 5 -2.4391 2.4391 0.0000 0.0000 25.6005 0.0000
# 6 0.0000 0.0000 0.0000 2.4391 0.0000 25.3611
#
#
#
# Elastic Compliance Matrix: (Units=1/GPa)
#
#
# Indices 1 2 3 4 5 6 
#
# 1 0.016000 -0.003897 -0.002119 0.000000 0.001896 0.000000
# 2 -0.003897 0.016000 -0.002119 0.000000 -0.001896 0.000000
# 3 -0.002119 -0.002119 0.005506 0.000000 0.000000 0.000000
# 4 0.000000 0.000000 0.000000 0.039423 0.000000 -0.003792
# 5 0.001896 -0.001896 0.000000 0.000000 0.039423 0.000000
# 6 0.000000 0.000000 0.000000 -0.003792 0.000000 0.039795
#
#
# Mechanical properties :
#
#
# Convention : Reuss Voigt Hill
#
# Bulk Modulus (GPa) = 47.09443 60.88572 53.99007
# Shear Modulus (GPa) = 27.85552 32.66156 30.25854
#
# Velocity S-wave (km/s) = 3.72849 4.03734 3.88599
# Velocity P-wave (km/s) = 6.48372 7.21937 6.86141
#
# Compressibility (1/GPa) = 0.02123394
#
# Stress axis : x y z
#
# Youngs Moduli (GPa) = 62.49920 62.49920 181.62482
#
# Poissons Ratio (x) = 0.24358 0.38493
# Poissons Ratio (y) = 0.24358 0.38493
# Poissons Ratio (z) = 0.13246 0.13246
#
# Static dielectric constant tensor:
#      x y z
#    x 3.301790 0.000000 0.000000 
#    y 0.000000 3.301790 0.000000 
#    z 0.000000 0.000000 4.925450 
# 
# 
# High freq. dielectric constant tensor:
#      x y z
#    x 1.736820 0.000000 0.000000 
#    y 0.000000 1.736820 0.000000 
#    z 0.000000 0.000000 1.826420 
# 
# From -- ./inp_files/308.got.cif
#   From: 2010.03.12/outbox.cif.g09.slc.cpg/sg163_1_cif.got.tgz:308.got - 2010.04.02 06:30:25.
