data_PCOD8323885
_publ_section_title
;
Structure prediction by ZEFSAII (Michael W. Deem and Ramdas Pophale) SiO2 
 PCOD8323885
Probable space group: P -3 C 1
;
_chemical_formula_sum "Si O2"
_cell_formula_units_Z 56
_cell_length_a 11.151351
_cell_length_b 11.151351
_cell_length_c 25.893457
_cell_angle_alpha 90.000000
_cell_angle_beta 90.000000
_cell_angle_gamma 120.000000
_cell_volume 2788.532046
_symmetry_space_group_name_H-M "P -3 C 1"
_symmetry_group_IT_number 165
_symmetry_cell_setting 'hexagonal'
loop_
_space_group_symop_operation_xyz
x,y,z
-y,x-y,z
-x+y,-x,z
x-y,-y,1/2-z
-x,-x+y,1/2-z
y,x,1/2-z
-x,-y,-z
y,-x+y,-z
x-y,x,-z
-x+y,y,1/2+z
x,x-y,1/2+z
-y,-x,1/2+z
loop_
_atom_site_type_symbol
_atom_site_label
_atom_site_fract_x
_atom_site_fract_y
_atom_site_fract_z
Si Si1 0.210006 0.840717 0.379932
Si Si2 0.671418 0.604244 0.902380
Si Si3 0.333335 0.666668 0.840169
Si Si4 0.237379 0.940448 0.492089
Si Si5 0.333335 0.666668 0.218115
Si Si6 0.107431 0.446046 0.148311
O O1 0.235910 0.720411 0.361363
O O2 0.266112 0.889168 0.438032
O O3 0.041317 0.759781 0.379919
O O4 0.289954 0.975861 0.341964
O O5 0.786942 0.563979 0.890216
O O6 0.526744 0.488329 0.878669
O O7 0.653419 0.603601 0.964423
O O8 0.333334 0.666667 0.778687
O O9 0.087620 0.838619 0.516339
O O10 0.192704 0.528548 0.199303
#
# Coordination Sequence:
#
# PCOD8323885 Si02
#       6
#    12  12   4  12   4  12
#     4  11  22  37  61  91 128 155 210 263 308 371
#     4  10  21  37  61  89 126 170 210 251 307 374
#     4  12  24  42  61  95 118 150 213 276 328 377
#     4  10  20  34  56  89 129 175 208 244 302 377
#     4   9  24  42  70  83 112 168 204 261 343 380
#     4  10  20  42  60  87 123 163 210 257 320 380
#
# _framework density 20.082250999999999
#
# number of rings (size 3 to 8) (size 9 to 14) (size 15 to 20)
#    0.000    1.714    4.286    0.643    0.000    3.429 
#    1.286    0.000    0.000    0.000    0.000    0.000 
#    0.000    0.000    0.000    0.000    0.000    0.000 
#
# Total GULP energy -693883.730491 kJ/mol
# GULP energy per Si atom -12390.780902 kJ/mol
# Density = 2.003654 g / cm^3
# Si number density = 20.082251 Si / 1000 Ang^3
#
#
#
# Elastic Constant Matrix: (Units=GPa)
#
#
# Indices 1 2 3 4 5 6 
#
# 1 87.6531 17.5927 34.7784 -4.1731 0.0000 0.0000
# 2 17.5927 87.6514 34.7768 4.1727 0.0000 0.0000
# 3 34.7784 34.7768 95.8308 -0.0011 0.0000 0.0000
# 4 -4.1731 4.1727 -0.0011 30.6468 0.0000 0.0000
# 5 0.0000 0.0000 0.0000 0.0000 30.6508 -4.1749
# 6 0.0000 0.0000 0.0000 0.0000 -4.1749 35.0310
#
#
#
# Elastic Compliance Matrix: (Units=1/GPa)
#
#
# Indices 1 2 3 4 5 6 
#
# 1 0.013504 -0.001005 -0.004536 0.001975 0.000000 0.000000
# 2 -0.001005 0.013504 -0.004536 -0.001976 0.000000 0.000000
# 3 -0.004536 -0.004536 0.013727 0.000000 0.000000 0.000000
# 4 0.001975 -0.001976 0.000000 0.033168 0.000000 0.000000
# 5 0.000000 0.000000 0.000000 0.000000 0.033164 0.003952
# 6 0.000000 0.000000 0.000000 0.000000 0.003952 0.029017
#
#
# Mechanical properties :
#
#
# Convention : Reuss Voigt Hill
#
# Bulk Modulus (GPa) = 48.58640 49.49235 49.03937
# Shear Modulus (GPa) = 30.65614 31.53154 31.09384
#
# Velocity S-wave (km/s) = 3.91132 3.96677 3.93914
# Velocity P-wave (km/s) = 6.68163 6.75860 6.72022
#
# Compressibility (1/GPa) = 0.02058189
#
# Stress axis : x y z
#
# Youngs Moduli (GPa) = 74.05123 74.05063 72.84668
#
# Poissons Ratio (x) = 0.07440 0.33045
# Poissons Ratio (y) = 0.07440 0.33044
# Poissons Ratio (z) = 0.33591 0.33590
#
# Static dielectric constant tensor:
#      x y z
#    x 3.832380 0.000000 0.000000 
#    y 0.000000 3.832400 -0.000010 
#    z 0.000000 -0.000010 3.371910 
# 
# 
# High freq. dielectric constant tensor:
#      x y z
#    x 1.788410 0.000000 0.000000 
#    y 0.000000 1.788420 0.000000 
#    z 0.000000 0.000000 1.753120 
# 
# From -- ./inp_files/2893.got.cif
#   From: 2010.03.12/outbox.cif.g09.slc.cpg/sg165_2_cif.got.tgz:2893.got - 2010.04.02 06:36:38.
