data_PCOD8323878
_publ_section_title
;
Structure prediction by ZEFSAII (Michael W. Deem and Ramdas Pophale) SiO2 
 PCOD8323878
Probable space group: P -3 C 1
;
_chemical_formula_sum "Si O2"
_cell_formula_units_Z 48
_cell_length_a 24.293873
_cell_length_b 24.293873
_cell_length_c 5.177138
_cell_angle_alpha 90.000000
_cell_angle_beta 90.000000
_cell_angle_gamma 120.000000
_cell_volume 2646.146514
_symmetry_space_group_name_H-M "P -3 C 1"
_symmetry_group_IT_number 165
_symmetry_cell_setting 'hexagonal'
loop_
_space_group_symop_operation_xyz
x,y,z
-y,x-y,z
-x+y,-x,z
x-y,-y,1/2-z
-x,-x+y,1/2-z
y,x,1/2-z
-x,-y,-z
y,-x+y,-z
x-y,x,-z
-x+y,y,1/2+z
x,x-y,1/2+z
-y,-x,1/2+z
loop_
_atom_site_type_symbol
_atom_site_label
_atom_site_fract_x
_atom_site_fract_y
_atom_site_fract_z
Si Si1 0.960916 0.344241 0.512461
Si Si2 0.407804 0.521898 0.310913
Si Si3 0.609876 0.778753 0.129046
Si Si4 0.714797 0.469622 0.765068
O O1 0.942271 0.394163 0.627727
O O2 0.900004 0.278086 0.439938
O O3 0.000000 0.371620 0.250000
O O4 0.000000 0.335224 0.750000
O O5 0.459450 0.568380 0.517732
O O6 0.342538 0.522356 0.335840
O O7 0.642004 0.810323 0.401918
O O8 0.535439 0.757694 0.143966
O O9 0.731671 0.432838 0.541060
#
# Coordination Sequence:
#
# PCOD8323878 Si02
#       4
#    12  12  12  12
#     4  12  25  38  57  87 117 137 174 227 280 336
#     4  12  25  38  57  83 106 144 174 220 278 354
#     4  10  19  36  64  80  96 142 186 207 254 327
#     4  10  19  36  64  76  91 126 190 209 254 324
#
# _framework density 18.139582999999998
#
# number of rings (size 3 to 8) (size 9 to 14) (size 15 to 20)
#    0.000    1.000    5.000    4.500    7.000    3.000 
#    0.000    0.000    0.000   10.000    0.000    0.000 
#    0.000    0.000    0.000    0.000    0.000    0.000 
#
# Total GULP energy -594661.529624 kJ/mol
# GULP energy per Si atom -12388.781867 kJ/mol
# Density = 1.809830 g / cm^3
# Si number density = 18.139583 Si / 1000 Ang^3
#
#
#
# Elastic Constant Matrix: (Units=GPa)
#
#
# Indices 1 2 3 4 5 6 
#
# 1 60.4859 34.1591 33.9164 1.9259 0.0000 0.0000
# 2 34.1591 60.4859 33.9164 -1.9259 0.0000 0.0000
# 3 33.9164 33.9164 179.7165 0.0000 0.0000 0.0000
# 4 1.9259 -1.9259 0.0000 30.2629 0.0000 0.0000
# 5 0.0000 0.0000 0.0000 0.0000 30.2629 1.9259
# 6 0.0000 0.0000 0.0000 0.0000 1.9259 13.1634
#
#
#
# Elastic Compliance Matrix: (Units=1/GPa)
#
#
# Indices 1 2 3 4 5 6 
#
# 1 0.025280 -0.013061 -0.002306 -0.002440 0.000000 0.000000
# 2 -0.013061 0.025280 -0.002306 0.002440 0.000000 0.000000
# 3 -0.002306 -0.002306 0.006435 0.000000 0.000000 0.000000
# 4 -0.002440 0.002440 0.000000 0.033354 0.000000 0.000000
# 5 0.000000 0.000000 0.000000 0.000000 0.033354 -0.004880
# 6 0.000000 0.000000 0.000000 0.000000 -0.004880 0.076682
#
#
# Mechanical properties :
#
#
# Convention : Reuss Voigt Hill
#
# Bulk Modulus (GPa) = 46.19361 56.07468 51.13414
# Shear Modulus (GPa) = 20.58060 27.98427 24.28244
#
# Velocity S-wave (km/s) = 3.37199 3.93201 3.66272
# Velocity P-wave (km/s) = 6.37819 7.18291 6.79248
#
# Compressibility (1/GPa) = 0.02164802
#
# Stress axis : x y z
#
# Youngs Moduli (GPa) = 39.55731 39.55731 155.40835
#
# Poissons Ratio (x) = 0.51667 0.35835
# Poissons Ratio (y) = 0.51667 0.35835
# Poissons Ratio (z) = 0.09121 0.09121
#
# Static dielectric constant tensor:
#      x y z
#    x 3.115730 0.000000 0.000000 
#    y 0.000000 3.115730 0.000000 
#    z 0.000000 0.000000 4.610120 
# 
# 
# High freq. dielectric constant tensor:
#      x y z
#    x 1.659520 0.000000 0.000000 
#    y 0.000000 1.659520 0.000000 
#    z 0.000000 0.000000 1.756900 
# 
# From -- ./inp_files/136.got.cif
#   From: 2010.03.12/outbox.cif.g09.slc.cpg/sg165_1_cif.got.tgz:136.got - 2010.04.02 06:36:38.
