data_PCOD8323799
_publ_section_title
;
Structure prediction by ZEFSAII (Michael W. Deem and Ramdas Pophale) SiO2 
 PCOD8323799
Probable space group: P -3 M 1
;
_chemical_formula_sum "Si O2"
_cell_formula_units_Z 48
_cell_length_a 17.552353
_cell_length_b 17.552353
_cell_length_c 7.628897
_cell_angle_alpha 90.000000
_cell_angle_beta 90.000000
_cell_angle_gamma 120.000000
_cell_volume 2035.462343
_symmetry_space_group_name_H-M "P -3 M 1"
_symmetry_group_IT_number 164
_symmetry_cell_setting 'hexagonal'
loop_
_space_group_symop_operation_xyz
x,y,z
-y,x-y,z
-x+y,-x,z
x-y,-y,-z
-x,-x+y,-z
y,x,-z
-x,-y,-z
y,-x+y,-z
x-y,x,-z
-x+y,y,z
x,x-y,z
-y,-x,z
loop_
_atom_site_type_symbol
_atom_site_label
_atom_site_fract_x
_atom_site_fract_y
_atom_site_fract_z
Si Si1 0.637969 0.734376 0.704287
Si Si2 0.467722 0.103071 0.980019
Si Si3 0.830155 0.999856 0.294156
Si Si4 0.844433 0.332227 0.593063
O O1 0.663190 0.831595 0.640753
O O2 0.733467 0.743846 0.745518
O O3 0.583927 0.669407 0.543726
O O4 0.575155 0.710066 0.873539
O O5 0.573307 0.146614 0.009087
O O6 0.448909 0.126841 0.787818
O O7 0.424205 0.000000 0.000000
O O8 0.919631 0.080370 0.210472
O O9 0.842902 0.000000 0.500000
O O10 0.813306 0.906653 0.214661
O O11 0.848115 0.424058 0.567464
O O12 0.745967 0.254034 0.553681
#
# Coordination Sequence:
#
# PCOD8323799 Si02
#       4
#    12  12  12  12
#     4  10  21  37  60  91 123 157 202 254 306 360
#     4  10  22  38  57  83 118 161 204 249 305 366
#     4   9  18  33  56  86 120 160 204 251 306 367
#     4  10  21  38  62  91 125 165 208 254 304 363
#
# _framework density 23.581868
#
# number of rings (size 3 to 8) (size 9 to 14) (size 15 to 20)
#    0.000    2.250    0.000    2.000    3.500    1.000 
#    0.000    5.000    0.000    9.500    0.000    0.000 
#    0.000    9.000    0.000    1.000    0.000    0.500 
#
# Total GULP energy -594897.212954 kJ/mol
# GULP energy per Si atom -12393.691937 kJ/mol
# Density = 2.352819 g / cm^3
# Si number density = 23.581868 Si / 1000 Ang^3
#
#
#
# Elastic Constant Matrix: (Units=GPa)
#
#
# Indices 1 2 3 4 5 6 
#
# 1 126.1820 58.6580 51.0660 6.2299 0.0000 0.0000
# 2 58.6580 126.1820 51.0660 -6.2299 0.0000 0.0000
# 3 51.0660 51.0660 131.5420 0.0000 0.0000 0.0000
# 4 6.2299 -6.2299 0.0000 8.9608 0.0000 0.0000
# 5 0.0000 0.0000 0.0000 0.0000 8.9608 6.2299
# 6 0.0000 0.0000 0.0000 0.0000 6.2299 33.7620
#
#
#
# Elastic Compliance Matrix: (Units=1/GPa)
#
#
# Indices 1 2 3 4 5 6 
#
# 1 0.011938 -0.005051 -0.002674 -0.011811 0.000000 0.000000
# 2 -0.005051 0.011938 -0.002674 0.011811 0.000000 0.000000
# 3 -0.002674 -0.002674 0.009678 0.000000 0.000000 0.000000
# 4 -0.011811 0.011811 0.000000 0.128021 0.000000 0.000000
# 5 0.000000 0.000000 0.000000 0.000000 0.128021 -0.023623
# 6 0.000000 0.000000 0.000000 0.000000 -0.023623 0.033978
#
#
# Mechanical properties :
#
#
# Convention : Reuss Voigt Hill
#
# Bulk Modulus (GPa) = 78.38278 78.38732 78.38505
# Shear Modulus (GPa) = 14.34211 25.21111 19.77661
#
# Velocity S-wave (km/s) = 2.46881 3.27324 2.89906
# Velocity P-wave (km/s) = 6.43719 6.89914 6.67217
#
# Compressibility (1/GPa) = 0.01275790
#
# Stress axis : x y z
#
# Youngs Moduli (GPa) = 83.76426 83.76426 103.32584
#
# Poissons Ratio (x) = 0.42308 0.27627
# Poissons Ratio (y) = 0.42308 0.27627
# Poissons Ratio (z) = 0.22397 0.22397
#
# Static dielectric constant tensor:
#      x y z
#    x 4.268870 0.000000 0.000000 
#    y 0.000000 4.268870 0.000000 
#    z 0.000000 0.000000 4.391360 
# 
# 
# High freq. dielectric constant tensor:
#      x y z
#    x 1.934060 0.000000 0.000000 
#    y 0.000000 1.934060 0.000000 
#    z 0.000000 0.000000 1.915790 
# 
# From -- ./inp_files/1229.got.cif
#   From: 2010.03.12/outbox.cif.g09.slc.cpg/sg164_1_cif.got.tgz:1229.got - 2010.04.02 06:32:59.
