data_PCOD8323594
_publ_section_title
;
Structure prediction by ZEFSAII (Michael W. Deem and Ramdas Pophale) SiO2 
 PCOD8323594
Probable space group: P -3 M 1
;
_chemical_formula_sum "Si O2"
_cell_formula_units_Z 40
_cell_length_a 19.985307
_cell_length_b 19.985307
_cell_length_c 6.707506
_cell_angle_alpha 90.000000
_cell_angle_beta 90.000000
_cell_angle_gamma 120.000000
_cell_volume 2320.135501
_symmetry_space_group_name_H-M "P -3 M 1"
_symmetry_group_IT_number 164
_symmetry_cell_setting 'hexagonal'
loop_
_space_group_symop_operation_xyz
x,y,z
-y,x-y,z
-x+y,-x,z
x-y,-y,-z
-x,-x+y,-z
y,x,-z
-x,-y,-z
y,-x+y,-z
x-y,x,-z
-x+y,y,z
x,x-y,z
-y,-x,z
loop_
_atom_site_type_symbol
_atom_site_label
_atom_site_fract_x
_atom_site_fract_y
_atom_site_fract_z
Si Si1 0.131668 0.709913 0.706430
Si Si2 0.333334 0.666667 0.929740
Si Si3 0.192707 0.596354 0.660263
Si Si4 0.666667 0.333334 0.608830
Si Si5 0.777787 0.706893 0.617945
Si Si6 0.683752 0.000000 0.000000
O O1 0.212574 0.787427 0.770200
O O2 0.141715 0.637203 0.657119
O O3 0.099516 0.726667 0.503461
O O4 0.066898 0.676998 0.881059
O O5 0.333334 0.666667 0.160455
O O6 0.245348 0.622674 0.857060
O O7 0.245470 0.622735 0.464205
O O8 0.774965 0.774965 0.500000
O O9 0.866073 0.732146 0.626214
O O10 0.751167 0.703700 0.843428
#
# Coordination Sequence:
#
# PCOD8323594 Si02
#       6
#    12   2   6   2  12   6
#     4  10  19  35  54  74 107 138 175 220 267 313
#     4  10  20  34  55  80  97 133 188 226 268 311
#     4  10  20  37  51  76 107 134 180 230 262 320
#     4  10  20  34  49  71 100 142 185 226 274 305
#     4   9  19  35  56  80 105 139 173 212 261 308
#     4  10  20  33  52  80 107 138 178 216 256 314
#
# _framework density 17.240373999999999
#
# number of rings (size 3 to 8) (size 9 to 14) (size 15 to 20)
#    0.000    2.400    3.000    0.900    0.000    4.200 
#    0.000    6.750    0.000    0.300    0.000    1.050 
#    0.000    0.000    0.000    0.000    0.000    0.000 
#
# Total GULP energy -495686.470787 kJ/mol
# GULP energy per Si atom -12392.161770 kJ/mol
# Density = 1.720113 g / cm^3
# Si number density = 17.240374 Si / 1000 Ang^3
#
#
#
# Elastic Constant Matrix: (Units=GPa)
#
#
# Indices 1 2 3 4 5 6 
#
# 1 121.8010 63.5294 49.2897 -1.0730 0.0000 0.0000
# 2 63.5294 121.8009 49.2900 1.0729 0.0000 0.0000
# 3 49.2897 49.2900 137.0250 -0.0017 0.0000 0.0000
# 4 -1.0730 1.0729 -0.0017 -3.7360 0.0000 0.0000
# 5 0.0000 0.0000 0.0000 0.0000 -3.7357 -1.0727
# 6 0.0000 0.0000 0.0000 0.0000 -1.0727 29.1359
#
#
#
# Elastic Compliance Matrix: (Units=1/GPa)
#
#
# Indices 1 2 3 4 5 6 
#
# 1 0.011827 -0.005154 -0.002400 -0.004876 0.000000 0.000000
# 2 -0.005154 0.011827 -0.002400 0.004878 0.000000 0.000000
# 3 -0.002400 -0.002400 0.009025 -0.000004 0.000000 0.000000
# 4 -0.004876 0.004878 -0.000004 -0.264861 0.000000 0.000000
# 5 0.000000 0.000000 0.000000 0.000000 -0.264889 -0.009753
# 6 0.000000 0.000000 0.000000 0.000000 -0.009753 0.033963
#
#
# Mechanical properties :
#
#
# Convention : Reuss Voigt Hill
#
# Bulk Modulus (GPa) = 78.31530 78.31612 78.31571
# Shear Modulus (GPa) = -11.39102 18.90067 3.75483
#
# Velocity S-wave (km/s) = -2.57323 3.31464 1.47738
# Velocity P-wave (km/s) = 6.05768 7.75717 6.95950
#
# Compressibility (1/GPa) = 0.01276890
#
# Stress axis : x y z
#
# Youngs Moduli (GPa) = 84.55255 84.55279 110.80703
#
# Poissons Ratio (x) = 0.43583 0.26596
# Poissons Ratio (y) = 0.43583 0.26595
# Poissons Ratio (z) = 0.20294 0.20294
#
# Static dielectric constant tensor:
#      x y z
#    x 3.267250 0.000000 0.000000 
#    y 0.000000 3.267250 0.000010 
#    z 0.000000 0.000010 3.303210 
# 
# 
# High freq. dielectric constant tensor:
#      x y z
#    x 1.661240 0.000000 0.000000 
#    y 0.000000 1.661240 0.000000 
#    z 0.000000 0.000000 1.671410 
# 
# From -- ./inp_files/376.got.cif
#   From: 2010.03.12/outbox.cif.g09.slc.cpg/sg164_1_cif.got.tgz:376.got - 2010.04.02 06:32:59.
