data_PCOD8323138
_publ_section_title
;
Structure prediction by ZEFSAII (Michael W. Deem and Ramdas Pophale) SiO2 
 PCOD8323138
Probable space group: P -3 1 M 
;
_chemical_formula_sum "Si O2"
_cell_formula_units_Z 48
_cell_length_a 16.016064
_cell_length_b 16.016064
_cell_length_c 9.676078
_cell_angle_alpha 90.000000
_cell_angle_beta 90.000000
_cell_angle_gamma 120.000000
_cell_volume 2149.520461
_symmetry_space_group_name_H-M "P -3 1 M "
_symmetry_group_IT_number 162
_symmetry_cell_setting 'hexagonal'
loop_
_space_group_symop_operation_xyz
x,y,z
-y,x-y,z
-x+y,-x,z
-y,-x,-z
-x+y,y,-z
x,x-y,-z
-x,-y,-z
y,-x+y,-z
x-y,x,-z
y,x,z
x-y,-y,z
-x,-x+y,z
loop_
_atom_site_type_symbol
_atom_site_label
_atom_site_fract_x
_atom_site_fract_y
_atom_site_fract_z
Si Si1 0.458439 0.570517 0.157275
Si Si2 0.109545 0.756776 0.880253
Si Si3 0.809519 0.703144 0.634431
Si Si4 0.661430 0.174854 0.415357
O O1 0.488140 0.488140 0.179715
O O2 0.547444 0.676369 0.187544
O O3 0.368668 0.550244 0.256560
O O4 0.428248 0.571753 0.000000
O O5 0.123340 0.826113 0.754858
O O6 0.000000 0.707866 0.938483
O O7 0.185486 0.814515 0.000000
O O8 0.874957 0.749914 0.500000
O O9 0.771226 0.771226 0.690210
O O10 0.718342 0.601352 0.588944
O O11 0.724749 0.275252 0.500000
O O12 0.559585 0.119170 0.500000
#
# Coordination Sequence:
#
# PCOD8323138 Si02
#       4
#    12  12  12  12
#     4  10  21  38  62  93 129 169 213 261 316 382
#     4  11  23  41  66  94 123 160 207 258 315 380
#     4  11  23  40  63  90 122 164 211 258 311 371
#     4  11  23  38  59  91 130 171 214 262 315 372
#
# _framework density 22.330563000000001
#
# number of rings (size 3 to 8) (size 9 to 14) (size 15 to 20)
#    0.000    1.250    0.000    7.000    0.000    6.000 
#    0.000    0.000    0.000   13.500    0.000    0.000 
#    0.000    0.000    0.000    0.000    0.000    0.000 
#
# Total GULP energy -595039.985882 kJ/mol
# GULP energy per Si atom -12396.666373 kJ/mol
# Density = 2.227974 g / cm^3
# Si number density = 22.330563 Si / 1000 Ang^3
#
#
#
# Elastic Constant Matrix: (Units=GPa)
#
#
# Indices 1 2 3 4 5 6 
#
# 1 89.1380 37.9743 29.9323 -0.0005 -0.0174 0.0000
# 2 37.9743 89.1380 29.9323 0.0005 0.0174 0.0000
# 3 29.9323 29.9323 139.2819 0.0000 0.0000 0.0000
# 4 -0.0005 0.0005 0.0000 32.2024 0.0000 0.0174
# 5 -0.0174 0.0174 0.0000 0.0000 32.2024 -0.0005
# 6 0.0000 0.0000 0.0000 0.0174 -0.0005 25.5818
#
#
#
# Elastic Compliance Matrix: (Units=1/GPa)
#
#
# Indices 1 2 3 4 5 6 
#
# 1 0.014149 -0.005396 -0.001881 0.000000 0.000011 0.000000
# 2 -0.005396 0.014149 -0.001881 0.000000 -0.000011 0.000000
# 3 -0.001881 -0.001881 0.007988 0.000000 0.000000 0.000000
# 4 0.000000 0.000000 0.000000 0.031054 0.000000 -0.000021
# 5 0.000011 -0.000011 0.000000 0.000000 0.031054 0.000001
# 6 0.000000 0.000000 0.000000 -0.000021 0.000001 0.039090
#
#
# Mechanical properties :
#
#
# Convention : Reuss Voigt Hill
#
# Bulk Modulus (GPa) = 55.64865 57.02618 56.33742
# Shear Modulus (GPa) = 30.90426 32.64527 31.77476
#
# Velocity S-wave (km/s) = 3.72418 3.82764 3.77626
# Velocity P-wave (km/s) = 6.59296 6.71768 6.65561
#
# Compressibility (1/GPa) = 0.01796989
#
# Stress axis : x y z
#
# Youngs Moduli (GPa) = 70.67619 70.67619 125.18509
#
# Poissons Ratio (x) = 0.38138 0.23548
# Poissons Ratio (y) = 0.38138 0.23548
# Poissons Ratio (z) = 0.13295 0.13295
#
# Static dielectric constant tensor:
#      x y z
#    x 4.018890 0.000000 0.000000 
#    y 0.000000 4.018890 0.000000 
#    z 0.000000 0.000000 4.186780 
# 
# 
# High freq. dielectric constant tensor:
#      x y z
#    x 1.866100 0.000000 0.000000 
#    y 0.000000 1.866100 0.000000 
#    z 0.000000 0.000000 1.894220 
# 
# From -- ./inp_files/1222.got.cif
#   From: 2010.03.12/outbox.cif.g09.slc.cpg/sg162_1_cif.got.tgz:1222.got - 2010.04.02 06:27:41.
