data_PCOD8323227
_publ_section_title
;
Structure prediction by ZEFSAII (Michael W. Deem and Ramdas Pophale) SiO2 
 PCOD8323227
Probable space group: P -3 1 C
;
_chemical_formula_sum "Si O2"
_cell_formula_units_Z 72
_cell_length_a 20.489908
_cell_length_b 20.489908
_cell_length_c 10.359069
_cell_angle_alpha 90.000000
_cell_angle_beta 90.000000
_cell_angle_gamma 120.000000
_cell_volume 3766.442783
_symmetry_space_group_name_H-M "P -3 1 C"
_symmetry_group_IT_number 163
_symmetry_cell_setting 'hexagonal'
loop_
_space_group_symop_operation_xyz
x,y,z
-y,x-y,z
-x+y,-x,z
-y,-x,1/2-z
-x+y,y,1/2-z
x,x-y,1/2-z
-x,-y,-z
y,-x+y,-z
x-y,x,-z
y,x,1/2+z
x-y,-y,1/2+z
-x,-x+y,1/2+z
loop_
_atom_site_type_symbol
_atom_site_label
_atom_site_fract_x
_atom_site_fract_y
_atom_site_fract_z
Si Si1 0.198201 0.241129 0.749999
Si Si2 0.153821 0.153821 0.999999
Si Si3 0.282003 0.871725 0.749999
Si Si4 0.466468 0.086201 0.495536
Si Si5 0.913800 0.533533 0.495538
Si Si6 0.512432 0.334103 0.750001
O O1 0.121153 0.242305 0.750000
O O2 0.202918 0.197871 0.624321
O O3 0.268464 0.325617 0.750000
O O4 0.202918 0.197869 0.875676
O O5 0.143471 0.071735 0.004888
O O6 0.204129 0.795872 0.750000
O O7 0.326341 0.872021 0.623496
O O8 0.326343 0.872022 0.876498
O O9 0.544760 0.089520 0.472272
O O10 0.467817 0.128868 0.626271
O O11 0.399320 0.000000 0.500000
O O12 0.871134 0.532184 0.626276
O O13 0.598677 0.401324 0.750000
O O14 0.511395 0.255698 0.750000
#
# Coordination Sequence:
#
# PCOD8323227 Si02
#       6
#    12  12  12  12  12  12
#     4   9  21  35  51  78 112 145 182 228 280 339
#     4  10  19  36  58  82 109 144 190 240 292 342
#     4  11  22  37  56  81 114 152 187 230 286 339
#     4  10  21  38  61  86 113 150 194 236 278 332
#     4  10  21  38  61  86 113 150 194 236 278 332
#     4  10  20  36  59  89 121 151 188 238 294 346
#
# _framework density 19.116181000000001
#
# number of rings (size 3 to 8) (size 9 to 14) (size 15 to 20)
#    0.000    2.000    0.000    3.333    2.333    2.667 
#    0.000    1.667    0.000    4.667    0.000    0.000 
#    0.000    0.000    0.000    0.000    0.000    0.000 
#
# Total GULP energy -893005.791170 kJ/mol
# GULP energy per Si atom -12402.858211 kJ/mol
# Density = 1.907267 g / cm^3
# Si number density = 19.116181 Si / 1000 Ang^3
#
#
#
# Elastic Constant Matrix: (Units=GPa)
#
#
# Indices 1 2 3 4 5 6 
#
# 1 85.7605 38.7976 65.2394 0.0000 0.0014 0.0000
# 2 38.7976 85.7605 65.2394 0.0000 -0.0014 0.0000
# 3 65.2394 65.2394 200.6286 0.0000 0.0000 0.0000
# 4 0.0000 0.0000 0.0000 17.6297 0.0000 -0.0014
# 5 0.0014 -0.0014 0.0000 0.0000 17.6297 0.0000
# 6 0.0000 0.0000 0.0000 -0.0014 0.0000 23.4814
#
#
#
# Elastic Compliance Matrix: (Units=1/GPa)
#
#
# Indices 1 2 3 4 5 6 
#
# 1 0.016735 -0.004559 -0.003959 0.000000 -0.000002 0.000000
# 2 -0.004559 0.016735 -0.003959 0.000000 0.000002 0.000000
# 3 -0.003959 -0.003959 0.007559 0.000000 0.000000 0.000000
# 4 0.000000 0.000000 0.000000 0.056723 0.000000 0.000003
# 5 -0.000002 0.000002 0.000000 0.000000 0.056723 0.000000
# 6 0.000000 0.000000 0.000000 0.000003 0.000000 0.042587
#
#
# Mechanical properties :
#
#
# Convention : Reuss Voigt Hill
#
# Bulk Modulus (GPa) = 62.21292 78.96695 70.58994
# Shear Modulus (GPa) = 21.99029 25.27304 23.63167
#
# Velocity S-wave (km/s) = 3.39536 3.63998 3.51980
# Velocity P-wave (km/s) = 6.92723 7.68535 7.31612
#
# Compressibility (1/GPa) = 0.01607383
#
# Stress axis : x y z
#
# Youngs Moduli (GPa) = 59.75633 59.75633 132.28822
#
# Poissons Ratio (x) = 0.27242 0.52377
# Poissons Ratio (y) = 0.27242 0.52377
# Poissons Ratio (z) = 0.23659 0.23659
#
# Static dielectric constant tensor:
#      x y z
#    x 3.453540 0.000000 0.000000 
#    y 0.000000 3.453540 0.000000 
#    z 0.000000 0.000000 3.673690 
# 
# 
# High freq. dielectric constant tensor:
#      x y z
#    x 1.741170 0.000000 0.000000 
#    y 0.000000 1.741170 0.000000 
#    z 0.000000 0.000000 1.762060 
# 
# From -- ./inp_files/1212.got.cif
#   From: 2010.03.12/outbox.cif.g09.slc.cpg/sg163_1_cif.got.tgz:1212.got - 2010.04.02 06:30:25.
