data_PCOD8323087
_publ_section_title
;
Structure prediction by ZEFSAII (Michael W. Deem and Ramdas Pophale) SiO2 
 PCOD8323087
Probable space group: P -3 1 M 
;
_chemical_formula_sum "Si O2"
_cell_formula_units_Z 42
_cell_length_a 17.582736
_cell_length_b 17.582736
_cell_length_c 7.797995
_cell_angle_alpha 90.000000
_cell_angle_beta 90.000000
_cell_angle_gamma 120.000000
_cell_volume 2087.788470
_symmetry_space_group_name_H-M "P -3 1 M "
_symmetry_group_IT_number 162
_symmetry_cell_setting 'hexagonal'
loop_
_space_group_symop_operation_xyz
x,y,z
-y,x-y,z
-x+y,-x,z
-y,-x,-z
-x+y,y,-z
x,x-y,-z
-x,-y,-z
y,-x+y,-z
x-y,x,-z
y,x,z
x-y,-y,z
-x,-x+y,z
loop_
_atom_site_type_symbol
_atom_site_label
_atom_site_fract_x
_atom_site_fract_y
_atom_site_fract_z
Si Si1 0.103653 0.629225 0.579208
Si Si2 0.684443 0.895676 0.148328
Si Si3 0.468720 0.104031 0.037682
Si Si4 0.181078 0.362156 0.500000
O O1 0.144638 0.572319 0.500000
O O2 0.136510 0.667173 0.769341
O O3 0.135435 0.715018 0.466118
O O4 0.000000 0.570477 0.571205
O O5 0.693043 0.849224 0.323117
O O6 0.742612 0.000000 0.168552
O O7 0.724933 0.862467 0.000000
O O8 0.583248 0.865819 0.091535
O O9 0.421536 0.000000 0.028539
O O10 0.572268 0.144536 0.000000
#
# Coordination Sequence:
#
# PCOD8323087 Si02
#       4
#    12  12  12   6
#     4  10  20  35  56  84 118 157 199 245 301 366
#     4  11  23  39  62  92 126 164 211 267 322 379
#     4   9  17  33  57  83 115 153 194 239 295 363
#     4  12  22  36  60  90 123 158 205 260 316 374
#
# _framework density 20.116980000000002
#
# number of rings (size 3 to 8) (size 9 to 14) (size 15 to 20)
#    0.000    1.714    2.857    2.571    0.000    5.714 
#    0.857    0.000    0.000    0.857    0.000    1.000 
#    0.000    0.000    0.000    0.000    0.000    0.000 
#
# Total GULP energy -520329.864263 kJ/mol
# GULP energy per Si atom -12388.806292 kJ/mol
# Density = 2.007119 g / cm^3
# Si number density = 20.116980 Si / 1000 Ang^3
#
#
#
# Elastic Constant Matrix: (Units=GPa)
#
#
# Indices 1 2 3 4 5 6 
#
# 1 71.2243 -0.6324 36.3949 0.0002 11.6867 0.0000
# 2 -0.6324 71.2243 36.3949 -0.0002 -11.6867 0.0000
# 3 36.3949 36.3949 151.8467 0.0000 0.0000 0.0000
# 4 0.0002 -0.0002 0.0000 40.4367 0.0000 -11.6867
# 5 11.6867 -11.6867 0.0000 0.0000 40.4367 0.0002
# 6 0.0000 0.0000 0.0000 -11.6867 0.0002 35.9284
#
#
#
# Elastic Compliance Matrix: (Units=1/GPa)
#
#
# Indices 1 2 3 4 5 6 
#
# 1 0.017088 0.001728 -0.004510 0.000000 -0.004439 0.000000
# 2 0.001728 0.017088 -0.004510 0.000000 0.004439 0.000000
# 3 -0.004510 -0.004510 0.008747 0.000000 0.000000 0.000000
# 4 0.000000 0.000000 0.000000 0.027296 0.000000 0.008879
# 5 -0.004439 0.004439 0.000000 0.000000 0.027296 0.000000
# 6 0.000000 0.000000 0.000000 0.008879 0.000000 0.030721
#
#
# Mechanical properties :
#
#
# Convention : Reuss Voigt Hill
#
# Bulk Modulus (GPa) = 35.28539 48.73447 42.00993
# Shear Modulus (GPa) = 32.83671 38.16956 35.50313
#
# Velocity S-wave (km/s) = 4.04454 4.36062 4.20555
# Velocity P-wave (km/s) = 6.27609 7.04496 6.67161
#
# Compressibility (1/GPa) = 0.02834034
#
# Stress axis : x y z
#
# Youngs Moduli (GPa) = 58.51908 58.51908 114.31857
#
# Poissons Ratio (x) = -0.10111 0.51557
# Poissons Ratio (y) = -0.10111 0.51557
# Poissons Ratio (z) = 0.26392 0.26392
#
# Static dielectric constant tensor:
#      x y z
#    x 3.436940 0.000000 0.000000 
#    y 0.000000 3.436940 0.000000 
#    z 0.000000 0.000000 3.994110 
# 
# 
# High freq. dielectric constant tensor:
#      x y z
#    x 1.755030 0.000000 0.000000 
#    y 0.000000 1.755030 0.000000 
#    z 0.000000 0.000000 1.810620 
# 
# From -- ./inp_files/1139.got.cif
#   From: 2010.03.12/outbox.cif.g09.slc.cpg/sg162_1_cif.got.tgz:1139.got - 2010.04.02 06:27:41.
