data_PCOD8323568
_publ_section_title
;
Structure prediction by ZEFSAII (Michael W. Deem and Ramdas Pophale) SiO2 
 PCOD8323568
Probable space group: P -3 M 1
;
_chemical_formula_sum "Si O2"
_cell_formula_units_Z 72
_cell_length_a 22.020208
_cell_length_b 22.020208
_cell_length_c 9.936825
_cell_angle_alpha 90.000000
_cell_angle_beta 90.000000
_cell_angle_gamma 120.000000
_cell_volume 4172.737905
_symmetry_space_group_name_H-M "P -3 M 1"
_symmetry_group_IT_number 164
_symmetry_cell_setting 'hexagonal'
loop_
_space_group_symop_operation_xyz
x,y,z
-y,x-y,z
-x+y,-x,z
x-y,-y,-z
-x,-x+y,-z
y,x,-z
-x,-y,-z
y,-x+y,-z
x-y,x,-z
-x+y,y,z
x,x-y,z
-y,-x,z
loop_
_atom_site_type_symbol
_atom_site_label
_atom_site_fract_x
_atom_site_fract_y
_atom_site_fract_z
Si Si1 0.913411 0.528256 0.734153
Si Si2 0.411223 0.277966 0.508912
Si Si3 0.281959 0.858931 0.031621
Si Si4 0.666650 0.058791 0.230923
Si Si5 0.728078 0.967803 0.131852
Si Si6 0.062706 0.804912 0.408845
O O1 0.909744 0.454872 0.729613
O O2 0.876260 0.533450 0.597966
O O3 0.866208 0.528024 0.857904
O O4 0.995392 0.587618 0.748528
O O5 0.425918 0.212959 0.511792
O O6 0.414482 0.304486 0.358152
O O7 0.337121 0.258710 0.577102
O O8 0.222199 0.777802 0.010425
O O9 0.244641 0.900979 0.085357
O O10 0.326437 0.892228 0.895654
O O11 0.717045 0.027648 0.200510
O O12 0.764159 0.947244 0.250627
O O13 0.777809 0.000000 0.000000
O O14 0.126665 0.873335 0.470725
O O15 0.000000 0.795486 0.500000
#
# Coordination Sequence:
#
# PCOD8323568 Si02
#       6
#    12  12  12  12  12  12
#     4  11  22  35  53  77 108 143 177 219 273 334
#     4  11  20  33  54  78 106 139 175 218 270 323
#     4  10  19  33  52  75 103 140 177 214 263 318
#     4  10  19  32  50  76 109 132 173 217 262 316
#     4   9  17  29  47  74 108 137 169 209 259 313
#     4  11  19  32  51  76 110 144 177 216 261 312
#
# _framework density 17.254859
#
# number of rings (size 3 to 8) (size 9 to 14) (size 15 to 20)
#    0.000    1.667    5.000    3.500    0.000    2.667 
#    0.000    0.833    0.000    2.833    0.000    0.000 
#    0.000    0.667    0.000    0.000    0.000    0.000 
#
# Total GULP energy -892429.122317 kJ/mol
# GULP energy per Si atom -12394.848921 kJ/mol
# Density = 1.721559 g / cm^3
# Si number density = 17.254859 Si / 1000 Ang^3
#
#
#
# Elastic Constant Matrix: (Units=GPa)
#
#
# Indices 1 2 3 4 5 6 
#
# 1 70.6105 47.2400 42.0992 -2.6699 0.0000 0.0000
# 2 47.2400 70.6105 42.0992 2.6699 0.0000 0.0000
# 3 42.0992 42.0992 139.3630 0.0000 0.0000 0.0000
# 4 -2.6699 2.6699 0.0000 20.7488 0.0000 0.0000
# 5 0.0000 0.0000 0.0000 0.0000 20.7488 -2.6699
# 6 0.0000 0.0000 0.0000 0.0000 -2.6699 11.6852
#
#
#
# Elastic Compliance Matrix: (Units=1/GPa)
#
#
# Indices 1 2 3 4 5 6 
#
# 1 0.027453 -0.016632 -0.003269 0.005673 0.000000 0.000000
# 2 -0.016632 0.027453 -0.003269 -0.005673 0.000000 0.000000
# 3 -0.003269 -0.003269 0.009150 0.000000 0.000000 0.000000
# 4 0.005673 -0.005673 0.000000 0.049655 0.000000 0.000000
# 5 0.000000 0.000000 0.000000 0.000000 0.049655 0.011345
# 6 0.000000 0.000000 0.000000 0.000000 0.011345 0.088170
#
#
# Mechanical properties :
#
#
# Convention : Reuss Voigt Hill
#
# Bulk Modulus (GPa) = 56.44372 60.38453 58.41412
# Shear Modulus (GPa) = 16.45916 20.57960 18.51938
#
# Velocity S-wave (km/s) = 3.09185 3.45727 3.27966
# Velocity P-wave (km/s) = 6.74751 7.14203 6.94757
#
# Compressibility (1/GPa) = 0.01771676
#
# Stress axis : x y z
#
# Youngs Moduli (GPa) = 36.42604 36.42604 109.28523
#
# Poissons Ratio (x) = 0.60585 0.35723
# Poissons Ratio (y) = 0.60585 0.35723
# Poissons Ratio (z) = 0.11907 0.11907
#
# Static dielectric constant tensor:
#      x y z
#    x 2.964180 0.000000 0.000000 
#    y 0.000000 2.964180 0.000000 
#    z 0.000000 0.000000 3.533070 
# 
# 
# High freq. dielectric constant tensor:
#      x y z
#    x 1.631180 0.000000 0.000000 
#    y 0.000000 1.631180 0.000000 
#    z 0.000000 0.000000 1.693390 
# 
# From -- ./inp_files/1914.got.cif
#   From: 2010.03.12/outbox.cif.g09.slc.cpg/sg164_1_cif.got.tgz:1914.got - 2010.04.02 06:32:59.
