data_PCOD8323345
_publ_section_title
;
Structure prediction by ZEFSAII (Michael W. Deem and Ramdas Pophale) SiO2 
 PCOD8323345
Probable space group: P -3 1 C
;
_chemical_formula_sum "Si O2"
_cell_formula_units_Z 48
_cell_length_a 17.635768
_cell_length_b 17.635768
_cell_length_c 7.327257
_cell_angle_alpha 90.000000
_cell_angle_beta 90.000000
_cell_angle_gamma 120.000000
_cell_volume 1973.607606
_symmetry_space_group_name_H-M "P -3 1 C"
_symmetry_group_IT_number 163
_symmetry_cell_setting 'hexagonal'
loop_
_space_group_symop_operation_xyz
x,y,z
-y,x-y,z
-x+y,-x,z
-y,-x,1/2-z
-x+y,y,1/2-z
x,x-y,1/2-z
-x,-y,-z
y,-x+y,-z
x-y,x,-z
y,x,1/2+z
x-y,-y,1/2+z
-x,-x+y,1/2+z
loop_
_atom_site_type_symbol
_atom_site_label
_atom_site_fract_x
_atom_site_fract_y
_atom_site_fract_z
Si Si1 0.584924 0.708866 0.682372
Si Si2 0.068624 0.191292 0.049197
Si Si3 0.703815 0.644325 0.542506
Si Si4 0.169985 0.667127 0.184334
O O1 0.606859 0.803429 0.750000
O O2 0.662764 0.706249 0.574881
O O3 0.504088 0.668863 0.538242
O O4 0.574018 0.656892 0.874794
O O5 0.105148 0.210295 0.250000
O O6 0.088765 0.286275 0.976028
O O7 0.119847 0.154224 0.931935
O O8 0.699945 0.591669 0.724191
O O9 0.269285 0.730716 0.250000
O O10 0.138548 0.569274 0.250000
#
# Coordination Sequence:
#
# PCOD8323345 Si02
#       4
#    12  12  12  12
#     4  12  25  47  80 116 156 201 259 318 386 474
#     4  12  26  45  69 104 153 207 265 321 380 450
#     4  12  25  48  76 112 155 206 263 316 390 460
#     4  12  28  52  79 113 154 196 256 327 407 485
#
# _framework density 24.320944000000001
#
# number of rings (size 3 to 8) (size 9 to 14) (size 15 to 20)
#    0.000    0.000    5.000    5.000    0.000    2.000 
#    0.000    0.000    0.000    0.000    0.000    0.000 
#    0.000    0.000    0.000    0.000    0.000    0.000 
#
# Total GULP energy -594705.022042 kJ/mol
# GULP energy per Si atom -12389.687959 kJ/mol
# Density = 2.426559 g / cm^3
# Si number density = 24.320944 Si / 1000 Ang^3
#
#
#
# Elastic Constant Matrix: (Units=GPa)
#
#
# Indices 1 2 3 4 5 6 
#
# 1 98.3594 53.7126 30.6147 -0.0002 -3.5753 0.0000
# 2 53.7126 98.3594 30.6147 0.0002 3.5753 0.0000
# 3 30.6147 30.6147 150.8166 0.0000 0.0000 0.0000
# 4 -0.0002 0.0002 0.0000 33.4895 0.0000 3.5753
# 5 -3.5753 3.5753 0.0000 0.0000 33.4895 -0.0002
# 6 0.0000 0.0000 0.0000 3.5753 -0.0002 22.3234
#
#
#
# Elastic Compliance Matrix: (Units=1/GPa)
#
#
# Indices 1 2 3 4 5 6 
#
# 1 0.014974 -0.007813 -0.001454 0.000000 0.002433 0.000000
# 2 -0.007813 0.014974 -0.001454 0.000000 -0.002433 0.000000
# 3 -0.001454 -0.001454 0.007221 0.000000 0.000000 0.000000
# 4 0.000000 0.000000 0.000000 0.030380 0.000000 -0.004866
# 5 0.002433 -0.002433 0.000000 0.000000 0.030380 0.000000
# 6 0.000000 0.000000 0.000000 -0.004866 0.000000 0.045575
#
#
# Mechanical properties :
#
#
# Convention : Reuss Voigt Hill
#
# Bulk Modulus (GPa) = 63.57943 64.15769 63.86856
# Shear Modulus (GPa) = 29.37928 33.36670 31.37299
#
# Velocity S-wave (km/s) = 3.47937 3.70798 3.59549
# Velocity P-wave (km/s) = 6.50692 6.69097 6.59958
#
# Compressibility (1/GPa) = 0.01572836
#
# Stress axis : x y z
#
# Youngs Moduli (GPa) = 66.78066 66.78066 138.49009
#
# Poissons Ratio (x) = 0.52178 0.20132
# Poissons Ratio (y) = 0.52178 0.20132
# Poissons Ratio (z) = 0.09708 0.09708
#
# Static dielectric constant tensor:
#      x y z
#    x 4.761890 0.000000 0.000000 
#    y 0.000000 4.761890 0.000000 
#    z 0.000000 0.000000 4.899990 
# 
# 
# High freq. dielectric constant tensor:
#      x y z
#    x 1.948000 0.000000 0.000000 
#    y 0.000000 1.948000 0.000000 
#    z 0.000000 0.000000 1.991840 
# 
# From -- ./inp_files/906.got.cif
#   From: 2010.03.12/outbox.cif.g09.slc.cpg/sg163_1_cif.got.tgz:906.got - 2010.04.02 06:30:25.
