data_PCOD8323863
_publ_section_title
;
Structure prediction by ZEFSAII (Michael W. Deem and Ramdas Pophale) SiO2 
 PCOD8323863
Probable space group: P -3 C 1
;
_chemical_formula_sum "Si O2"
_cell_formula_units_Z 84
_cell_length_a 32.949498
_cell_length_b 32.949498
_cell_length_c 5.334009
_cell_angle_alpha 90.000000
_cell_angle_beta 90.000000
_cell_angle_gamma 120.000000
_cell_volume 5015.127521
_symmetry_space_group_name_H-M "P -3 C 1"
_symmetry_group_IT_number 165
_symmetry_cell_setting 'hexagonal'
loop_
_space_group_symop_operation_xyz
x,y,z
-y,x-y,z
-x+y,-x,z
x-y,-y,1/2-z
-x,-x+y,1/2-z
y,x,1/2-z
-x,-y,-z
y,-x+y,-z
x-y,x,-z
-x+y,y,1/2+z
x,x-y,1/2+z
-y,-x,1/2+z
loop_
_atom_site_type_symbol
_atom_site_label
_atom_site_fract_x
_atom_site_fract_y
_atom_site_fract_z
Si Si1 0.171186 0.561151 0.500005
Si Si2 0.696302 0.014937 0.000000
Si Si3 0.945337 0.360567 0.999999
Si Si4 0.196542 0.776300 0.500009
Si Si5 0.506493 0.060973 0.999990
Si Si6 0.411020 0.099349 0.499999
Si Si7 0.523700 0.241724 0.999986
O O1 0.185570 0.592784 0.250001
O O2 0.116137 0.524411 0.500008
O O3 0.198007 0.532001 0.500012
O O4 0.713456 0.000000 0.750000
O O5 0.716434 0.070418 0.999999
O O6 0.638772 0.987143 0.000001
O O7 0.713456 0.000000 0.250000
O O8 0.913168 0.341742 0.752445
O O9 0.966825 0.416511 0.999996
O O10 0.913169 0.341743 0.247557
O O11 0.195841 0.804158 0.750011
O O12 0.154333 0.723569 0.500003
O O13 0.246321 0.778263 0.500017
O O14 0.522990 0.045979 0.249987
O O15 0.546275 0.273138 0.249985
#
# Coordination Sequence:
#
# PCOD8323863 Si02
#       7
#    12  12  12  12  12  12  12
#     4  10  21  36  51  66  89 113 136 157 193 239
#     4   8  16  30  46  69  87 117 153 167 188 225
#     4  10  19  31  53  68  94 115 151 170 193 225
#     4  10  21  32  45  75  99 112 135 163 204 244
#     4  10  21  33  47  70  89 115 140 165 199 232
#     4  10  19  31  51  69  94 123 137 169 199 234
#     4  10  21  33  51  71  92 103 127 157 194 233
#
# _framework density 16.749324999999999
#
# number of rings (size 3 to 8) (size 9 to 14) (size 15 to 20)
#    0.000    2.286    0.000    2.571    8.000    0.000 
#    0.000    0.000    0.000   28.857    0.000    0.000 
#    0.000    0.000    0.000    0.000    0.000    0.000 
#
# Total GULP energy -1040911.556644 kJ/mol
# GULP energy per Si atom -12391.804246 kJ/mol
# Density = 1.671120 g / cm^3
# Si number density = 16.749325 Si / 1000 Ang^3
#
#
#
# Elastic Constant Matrix: (Units=GPa)
#
#
# Indices 1 2 3 4 5 6 
#
# 1 37.2614 13.2014 9.7622 -0.0010 0.0000 0.0000
# 2 13.2014 37.2614 9.7622 0.0010 0.0000 0.0000
# 3 9.7622 9.7622 175.7828 0.0000 0.0000 0.0000
# 4 -0.0010 0.0010 0.0000 24.8511 0.0000 0.0000
# 5 0.0000 0.0000 0.0000 0.0000 24.8511 -0.0010
# 6 0.0000 0.0000 0.0000 0.0000 -0.0010 12.0300
#
#
#
# Elastic Compliance Matrix: (Units=1/GPa)
#
#
# Indices 1 2 3 4 5 6 
#
# 1 0.030907 -0.010656 -0.001125 0.000002 0.000000 0.000000
# 2 -0.010656 0.030907 -0.001125 -0.000002 0.000000 0.000000
# 3 -0.001125 -0.001125 0.005814 0.000000 0.000000 0.000000
# 4 0.000002 -0.000002 0.000000 0.040240 0.000000 0.000000
# 5 0.000000 0.000000 0.000000 0.000000 0.040240 0.000003
# 6 0.000000 0.000000 0.000000 0.000000 0.000003 0.083126
#
#
# Mechanical properties :
#
#
# Convention : Reuss Voigt Hill
#
# Bulk Modulus (GPa) = 23.91289 35.08412 29.49850
# Shear Modulus (GPa) = 18.45137 26.85176 22.65156
#
# Velocity S-wave (km/s) = 3.32266 4.00829 3.68147
# Velocity P-wave (km/s) = 5.38777 6.51259 5.97670
#
# Compressibility (1/GPa) = 0.04181846
#
# Stress axis : x y z
#
# Youngs Moduli (GPa) = 32.35485 32.35485 172.00579
#
# Poissons Ratio (x) = 0.34476 0.19345
# Poissons Ratio (y) = 0.34476 0.19345
# Poissons Ratio (z) = 0.03639 0.03639
#
# Static dielectric constant tensor:
#      x y z
#    x 2.747880 0.000000 0.000000 
#    y 0.000000 2.747880 0.000000 
#    z 0.000000 0.000000 4.695570 
# 
# 
# High freq. dielectric constant tensor:
#      x y z
#    x 1.592730 0.000000 0.000000 
#    y 0.000000 1.592730 0.000000 
#    z 0.000000 0.000000 1.696540 
# 
# From -- ./inp_files/250.got.cif
#   From: 2010.03.12/outbox.cif.g09.slc.cpg/sg165_1_cif.got.tgz:250.got - 2010.04.02 06:36:38.
