data_PCOD8323248
_publ_section_title
;
Structure prediction by ZEFSAII (Michael W. Deem and Ramdas Pophale) SiO2 
 PCOD8323248
Probable space group: P -3 1 C
;
_chemical_formula_sum "Si O2"
_cell_formula_units_Z 84
_cell_length_a 20.705962
_cell_length_b 20.705962
_cell_length_c 12.431755
_cell_angle_alpha 90.000000
_cell_angle_beta 90.000000
_cell_angle_gamma 120.000000
_cell_volume 4615.873514
_symmetry_space_group_name_H-M "P -3 1 C"
_symmetry_group_IT_number 163
_symmetry_cell_setting 'hexagonal'
loop_
_space_group_symop_operation_xyz
x,y,z
-y,x-y,z
-x+y,-x,z
-y,-x,1/2-z
-x+y,y,1/2-z
x,x-y,1/2-z
-x,-y,-z
y,-x+y,-z
x-y,x,-z
y,x,1/2+z
x-y,-y,1/2+z
-x,-x+y,1/2+z
loop_
_atom_site_type_symbol
_atom_site_label
_atom_site_fract_x
_atom_site_fract_y
_atom_site_fract_z
Si Si1 0.155174 0.460226 0.482292
Si Si2 0.748784 0.170199 0.850695
Si Si3 0.297105 0.074955 0.486724
Si Si4 0.703607 0.782818 0.575240
Si Si5 0.923985 0.534445 0.723446
Si Si6 0.935525 0.630435 0.221815
Si Si7 0.474673 0.667001 0.711791
O O1 0.230848 0.471498 0.427327
O O2 0.104921 0.374453 0.516178
O O3 0.106161 0.477497 0.398914
O O4 0.180564 0.516239 0.582932
O O5 0.805154 0.194847 0.750000
O O6 0.665169 0.139435 0.807306
O O7 0.758433 0.107339 0.909537
O O8 0.270674 0.130304 0.438823
O O9 0.343222 0.058702 0.399118
O O10 0.226828 0.996283 0.522233
O O11 0.691955 0.758044 0.699816
O O12 0.947400 0.473700 0.750000
O O13 0.995015 0.614439 0.746404
O O14 0.859078 0.552967 0.230705
O O15 0.415400 0.584601 0.750000
O O16 0.446945 0.723473 0.750000
#
# Coordination Sequence:
#
# PCOD8323248 Si02
#       7
#    12  12  12  12  12  12  12
#     4   9  20  38  56  80 114 147 193 239 295 344
#     4   9  19  36  56  79 111 152 187 238 288 342
#     4  11  20  35  60  83 118 149 190 236 286 343
#     4  10  20  35  57  86 114 150 189 235 286 346
#     4  11  21  34  56  86 118 147 192 246 294 352
#     4  11  21  38  54  86 116 147 189 244 299 345
#     4  11  23  40  56  78 108 151 201 242 289 351
#
# _framework density 18.198072
#
# number of rings (size 3 to 8) (size 9 to 14) (size 15 to 20)
#    0.000    1.714    2.857    3.571    0.000    2.286 
#    0.000    2.857    0.000    8.000    0.000    0.000 
#    0.000    0.286    0.000    0.000    0.000    0.000 
#
# Total GULP energy -1041689.288228 kJ/mol
# GULP energy per Si atom -12401.062955 kJ/mol
# Density = 1.815665 g / cm^3
# Si number density = 18.198072 Si / 1000 Ang^3
#
#
#
# Elastic Constant Matrix: (Units=GPa)
#
#
# Indices 1 2 3 4 5 6 
#
# 1 83.5154 40.2301 35.3936 -0.0002 0.5431 0.0000
# 2 40.2301 83.5154 35.3936 0.0002 -0.5431 0.0000
# 3 35.3936 35.3936 97.5989 0.0000 0.0000 0.0000
# 4 -0.0002 0.0002 0.0000 22.6094 0.0000 -0.5431
# 5 0.5431 -0.5431 0.0000 0.0000 22.6094 -0.0002
# 6 0.0000 0.0000 0.0000 -0.5431 -0.0002 21.6427
#
#
#
# Elastic Compliance Matrix: (Units=1/GPa)
#
#
# Indices 1 2 3 4 5 6 
#
# 1 0.016656 -0.006460 -0.003698 0.000000 -0.000555 0.000000
# 2 -0.006460 0.016656 -0.003698 0.000000 0.000555 0.000000
# 3 -0.003698 -0.003698 0.012928 0.000000 0.000000 0.000000
# 4 0.000000 0.000000 0.000000 0.044256 0.000000 0.001111
# 5 -0.000555 0.000555 0.000000 0.000000 0.044256 0.000000
# 6 0.000000 0.000000 0.000000 0.001111 0.000000 0.046233
#
#
# Mechanical properties :
#
#
# Convention : Reuss Voigt Hill
#
# Bulk Modulus (GPa) = 53.96667 54.07380 54.02023
# Shear Modulus (GPa) = 23.26957 23.61312 23.44135
#
# Velocity S-wave (km/s) = 3.57975 3.60608 3.59294
# Velocity P-wave (km/s) = 6.84147 6.86418 6.85283
#
# Compressibility (1/GPa) = 0.01852996
#
# Stress axis : x y z
#
# Youngs Moduli (GPa) = 60.03717 60.03717 77.35248
#
# Poissons Ratio (x) = 0.38784 0.28602
# Poissons Ratio (y) = 0.38784 0.28602
# Poissons Ratio (z) = 0.22199 0.22199
#
# Static dielectric constant tensor:
#      x y z
#    x 3.245530 0.000000 0.000000 
#    y 0.000000 3.245530 0.000000 
#    z 0.000000 0.000000 3.601410 
# 
# 
# High freq. dielectric constant tensor:
#      x y z
#    x 1.688290 0.000000 0.000000 
#    y 0.000000 1.688290 0.000000 
#    z 0.000000 0.000000 1.723840 
# 
# From -- ./inp_files/1845.got.cif
#   From: 2010.03.12/outbox.cif.g09.slc.cpg/sg163_1_cif.got.tgz:1845.got - 2010.04.02 06:30:25.
