data_PCOD8323466
_publ_section_title
;
Structure prediction by ZEFSAII (Michael W. Deem and Ramdas Pophale) SiO2 
 PCOD8323466
Probable space group: P -3 M 1
;
_chemical_formula_sum "Si O2"
_cell_formula_units_Z 84
_cell_length_a 20.811376
_cell_length_b 20.811376
_cell_length_c 12.347879
_cell_angle_alpha 90.000000
_cell_angle_beta 90.000000
_cell_angle_gamma 120.000000
_cell_volume 4631.531138
_symmetry_space_group_name_H-M "P -3 M 1"
_symmetry_group_IT_number 164
_symmetry_cell_setting 'hexagonal'
loop_
_space_group_symop_operation_xyz
x,y,z
-y,x-y,z
-x+y,-x,z
x-y,-y,-z
-x,-x+y,-z
y,x,-z
-x,-y,-z
y,-x+y,-z
x-y,x,-z
-x+y,y,z
x,x-y,z
-y,-x,z
loop_
_atom_site_type_symbol
_atom_site_label
_atom_site_fract_x
_atom_site_fract_y
_atom_site_fract_z
Si Si1 0.335293 0.813749 0.909862
Si Si2 0.069020 0.463624 0.335091
Si Si3 0.908414 0.573985 0.274707
Si Si4 0.332561 0.819658 0.519205
Si Si5 0.218203 0.294758 0.852699
Si Si6 0.307718 0.837022 0.148510
Si Si7 0.693918 0.777385 0.099027
O O1 0.390452 0.780904 0.897921
O O2 0.251339 0.748662 0.883094
O O3 0.363381 0.884257 0.830369
O O4 0.341837 0.844257 0.030635
O O5 0.041992 0.520996 0.368042
O O6 0.117788 0.458469 0.433071
O O7 0.125729 0.499408 0.234438
O O8 0.993798 0.387439 0.309570
O O9 0.849603 0.526586 0.366305
O O10 0.899965 0.643855 0.240343
O O11 0.404576 0.809151 0.517930
O O12 0.259496 0.740505 0.494265
O O13 0.129471 0.258942 0.840811
O O14 0.242774 0.233468 0.844207
O O15 0.245775 0.328307 0.973203
O O16 0.249589 0.750412 0.174539
O O17 0.267165 0.884971 0.163381
O O18 0.729603 0.864802 0.111300
#
# Coordination Sequence:
#
# PCOD8323466 Si02
#       7
#    12  12  12  12  12  12  12
#     4  11  22  35  52  76 108 144 180 220 267 318
#     4  11  23  38  55  77 104 137 178 224 272 317
#     4  12  22  36  54  81 108 139 172 217 273 325
#     4  11  24  42  61  78 100 136 181 225 269 319
#     4  10  18  31  52  79 109 142 178 216 260 315
#     4  10  19  34  53  77 107 140 180 220 262 310
#     4   9  17  31  51  76 108 143 179 215 254 308
#
# _framework density 18.136551000000001
#
# number of rings (size 3 to 8) (size 9 to 14) (size 15 to 20)
#    0.000    1.429    2.857    4.143    0.000    1.714 
#    0.000    2.857    0.000    4.857    0.000    2.000 
#    0.000    0.000    0.000    0.000    0.000    5.286 
#
# Total GULP energy -1040989.643950 kJ/mol
# GULP energy per Si atom -12392.733857 kJ/mol
# Density = 1.809527 g / cm^3
# Si number density = 18.136551 Si / 1000 Ang^3
#
#
#
# Elastic Constant Matrix: (Units=GPa)
#
#
# Indices 1 2 3 4 5 6 
#
# 1 87.7138 40.5378 27.9628 1.5858 0.0000 0.0000
# 2 40.5378 87.7138 27.9628 -1.5858 0.0000 0.0000
# 3 27.9628 27.9628 76.1505 0.0000 0.0000 0.0000
# 4 1.5858 -1.5858 0.0000 20.9634 0.0000 0.0000
# 5 0.0000 0.0000 0.0000 0.0000 20.9634 1.5858
# 6 0.0000 0.0000 0.0000 0.0000 1.5858 23.5880
#
#
#
# Elastic Compliance Matrix: (Units=1/GPa)
#
#
# Indices 1 2 3 4 5 6 
#
# 1 0.015295 -0.006011 -0.003409 -0.001612 0.000000 0.000000
# 2 -0.006011 0.015295 -0.003409 0.001612 0.000000 0.000000
# 3 -0.003409 -0.003409 0.015636 0.000000 0.000000 0.000000
# 4 -0.001612 0.001612 0.000000 0.047946 0.000000 0.000000
# 5 0.000000 0.000000 0.000000 0.000000 0.047946 -0.003223
# 6 0.000000 0.000000 0.000000 0.000000 -0.003223 0.042611
#
#
# Mechanical properties :
#
#
# Convention : Reuss Voigt Hill
#
# Bulk Modulus (GPa) = 48.62192 49.38943 49.00568
# Shear Modulus (GPa) = 23.01587 23.44395 23.22991
#
# Velocity S-wave (km/s) = 3.56621 3.59922 3.58276
# Velocity P-wave (km/s) = 6.61998 6.67560 6.64785
#
# Compressibility (1/GPa) = 0.02056685
#
# Stress axis : x y z
#
# Youngs Moduli (GPa) = 65.38239 65.38239 63.95702
#
# Poissons Ratio (x) = 0.39301 0.21803
# Poissons Ratio (y) = 0.39301 0.21803
# Poissons Ratio (z) = 0.22289 0.22289
#
# Static dielectric constant tensor:
#      x y z
#    x 3.324540 0.000000 0.000000 
#    y 0.000000 3.324540 0.000000 
#    z 0.000000 0.000000 3.353560 
# 
# 
# High freq. dielectric constant tensor:
#      x y z
#    x 1.694780 0.000000 0.000000 
#    y 0.000000 1.694780 0.000000 
#    z 0.000000 0.000000 1.696370 
# 
# From -- ./inp_files/2943.got.cif
#   From: 2010.03.12/outbox.cif.g09.slc.cpg/sg164_2_cif.got.tgz:2943.got - 2010.04.02 06:32:59.
