data_PCOD8323791
_publ_section_title
;
Structure prediction by ZEFSAII (Michael W. Deem and Ramdas Pophale) SiO2 
 PCOD8323791
Probable space group: P -3 M 1
;
_chemical_formula_sum "Si O2"
_cell_formula_units_Z 48
_cell_length_a 18.497763
_cell_length_b 18.497763
_cell_length_c 9.099634
_cell_angle_alpha 90.000000
_cell_angle_beta 90.000000
_cell_angle_gamma 120.000000
_cell_volume 2696.453765
_symmetry_space_group_name_H-M "P -3 M 1"
_symmetry_group_IT_number 164
_symmetry_cell_setting 'hexagonal'
loop_
_space_group_symop_operation_xyz
x,y,z
-y,x-y,z
-x+y,-x,z
x-y,-y,-z
-x,-x+y,-z
y,x,-z
-x,-y,-z
y,-x+y,-z
x-y,x,-z
-x+y,y,z
x,x-y,z
-y,-x,z
loop_
_atom_site_type_symbol
_atom_site_label
_atom_site_fract_x
_atom_site_fract_y
_atom_site_fract_z
Si Si1 0.082916 0.750519 0.922079
Si Si2 0.832502 0.333625 0.920045
Si Si3 0.332397 0.082916 0.422077
Si Si4 0.501124 0.167499 0.579950
O O1 0.156865 0.843136 0.960074
O O2 0.067235 0.736359 0.750001
O O3 0.104326 0.681889 0.983313
O O4 0.000000 0.739165 0.000000
O O5 0.842206 0.421103 0.969728
O O6 0.737430 0.262571 0.949465
O O7 0.856194 0.334824 0.749997
O O8 0.313729 0.156865 0.460071
O O9 0.422438 0.104327 0.483308
O O10 0.260836 0.000000 0.500000
O O11 0.578898 0.157795 0.530266
O O12 0.525143 0.262572 0.550530
#
# Coordination Sequence:
#
# PCOD8323791 Si02
#       4
#    12  12  12  12
#     4  10  21  36  54  76 100 128 163 202 247 298
#     4   9  17  30  49  73 102 137 175 212 248 286
#     4  10  21  36  54  76 100 128 163 202 247 298
#     4   9  17  30  49  73 102 137 175 212 248 286
#
# _framework density 17.801157
#
# number of rings (size 3 to 8) (size 9 to 14) (size 15 to 20)
#    0.000    2.500    0.000    2.000    0.000    7.000 
#    0.000    0.000    0.000    3.500    0.000    0.000 
#    0.000    0.000    0.000    0.000    0.000    0.000 
#
# Total GULP energy -595365.725805 kJ/mol
# GULP energy per Si atom -12403.452621 kJ/mol
# Density = 1.776064 g / cm^3
# Si number density = 17.801157 Si / 1000 Ang^3
#
#
#
# Elastic Constant Matrix: (Units=GPa)
#
#
# Indices 1 2 3 4 5 6 
#
# 1 102.8871 69.0465 60.8892 -0.0002 0.0000 0.0000
# 2 69.0465 102.8871 60.8892 0.0002 0.0000 0.0000
# 3 60.8892 60.8892 92.1382 0.0000 0.0000 0.0000
# 4 -0.0002 0.0002 0.0000 28.9434 0.0000 0.0000
# 5 0.0000 0.0000 0.0000 0.0000 28.9434 -0.0002
# 6 0.0000 0.0000 0.0000 0.0000 -0.0002 16.9203
#
#
#
# Elastic Compliance Matrix: (Units=1/GPa)
#
#
# Indices 1 2 3 4 5 6 
#
# 1 0.020242 -0.009308 -0.007226 0.000000 0.000000 0.000000
# 2 -0.009308 0.020242 -0.007226 0.000000 0.000000 0.000000
# 3 -0.007226 -0.007226 0.020404 0.000000 0.000000 0.000000
# 4 0.000000 0.000000 0.000000 0.034550 0.000000 0.000000
# 5 0.000000 0.000000 0.000000 0.000000 0.034550 0.000000
# 6 0.000000 0.000000 0.000000 0.000000 0.000000 0.059101
#
#
# Mechanical properties :
#
#
# Convention : Reuss Voigt Hill
#
# Bulk Modulus (GPa) = 74.80184 75.50694 75.15439
# Shear Modulus (GPa) = 20.74132 22.10057 21.42094
#
# Velocity S-wave (km/s) = 3.41716 3.52735 3.47269
# Velocity P-wave (km/s) = 7.59482 7.68756 7.64133
#
# Compressibility (1/GPa) = 0.01336866
#
# Stress axis : x y z
#
# Youngs Moduli (GPa) = 49.40166 49.40166 49.01112
#
# Poissons Ratio (x) = 0.45984 0.35414
# Poissons Ratio (y) = 0.45984 0.35414
# Poissons Ratio (z) = 0.35697 0.35697
#
# Static dielectric constant tensor:
#      x y z
#    x 3.258030 0.000000 0.000000 
#    y 0.000000 3.258030 0.000000 
#    z 0.000000 0.000000 3.291300 
# 
# 
# High freq. dielectric constant tensor:
#      x y z
#    x 1.680670 0.000000 0.000000 
#    y 0.000000 1.680670 0.000000 
#    z 0.000000 0.000000 1.692690 
# 
# From -- ./inp_files/1223.got.cif
#   From: 2010.03.12/outbox.cif.g09.slc.cpg/sg164_1_cif.got.tgz:1223.got - 2010.04.02 06:32:59.
