data_PCOD8323644
_publ_section_title
;
Structure prediction by ZEFSAII (Michael W. Deem and Ramdas Pophale) SiO2 
 PCOD8323644
Probable space group: P -3 M 1
;
_chemical_formula_sum "Si O2"
_cell_formula_units_Z 84
_cell_length_a 17.359013
_cell_length_b 17.359013
_cell_length_c 17.427474
_cell_angle_alpha 90.000000
_cell_angle_beta 90.000000
_cell_angle_gamma 120.000000
_cell_volume 4547.944246
_symmetry_space_group_name_H-M "P -3 M 1"
_symmetry_group_IT_number 164
_symmetry_cell_setting 'hexagonal'
loop_
_space_group_symop_operation_xyz
x,y,z
-y,x-y,z
-x+y,-x,z
x-y,-y,-z
-x,-x+y,-z
y,x,-z
-x,-y,-z
y,-x+y,-z
x-y,x,-z
-x+y,y,z
x,x-y,z
-y,-x,z
loop_
_atom_site_type_symbol
_atom_site_label
_atom_site_fract_x
_atom_site_fract_y
_atom_site_fract_z
Si Si1 0.171682 0.172151 0.634186
Si Si2 0.095093 0.365345 0.394041
Si Si3 0.174767 0.174198 0.189508
Si Si4 0.072363 0.320355 0.934658
Si Si5 0.513853 0.846313 0.836114
Si Si6 0.333050 0.846194 0.537139
Si Si7 0.389871 0.957840 0.686373
O O1 0.132872 0.066436 0.627663
O O2 0.260865 0.226755 0.584764
O O3 0.197835 0.202819 0.722133
O O4 0.096811 0.193622 0.603499
O O5 0.193075 0.386150 0.367202
O O6 0.099048 0.419273 0.469464
O O7 0.050555 0.390349 0.324022
O O8 0.140986 0.070493 0.174880
O O9 0.260262 0.236367 0.138982
O O10 0.096278 0.192556 0.165692
O O11 0.152064 0.304128 0.963403
O O12 0.113044 0.423170 0.910376
O O13 0.000000 0.297290 0.000000
O O14 0.421473 0.842945 0.852760
O O15 0.494127 0.747064 0.818527
O O16 0.565884 0.908305 0.764157
O O17 0.423300 0.846600 0.520319
O O18 0.254707 0.745294 0.540624
O O19 0.335244 0.892904 0.616647
O O20 0.491384 0.982768 0.685962
#
# Coordination Sequence:
#
# PCOD8323644 Si02
#       7
#    12  12  12  12  12  12  12
#     4   9  17  29  46  68  95 130 173 218 260 300
#     4  10  20  32  47  71 103 139 174 206 245 296
#     4   9  16  27  45  70 102 138 175 215 257 302
#     4  10  20  33  50  75 107 141 173 205 245 296
#     4  10  21  37  58  82 106 132 164 207 260 314
#     4  10  20  34  53  76 103 134 169 211 261 317
#     4  10  20  35  55  78 104 131 163 209 261 307
#
# _framework density 18.469884
#
# number of rings (size 3 to 8) (size 9 to 14) (size 15 to 20)
#    0.000    2.286    0.000    3.143    0.000    4.857 
#    0.000    2.857    0.000    2.571    0.000    0.000 
#    0.000   14.857    0.000    0.000    0.000    0.000 
#
# Total GULP energy -1041610.997767 kJ/mol
# GULP energy per Si atom -12400.130926 kJ/mol
# Density = 1.842785 g / cm^3
# Si number density = 18.469884 Si / 1000 Ang^3
#
#
#
# Elastic Constant Matrix: (Units=GPa)
#
#
# Indices 1 2 3 4 5 6 
#
# 1 104.4592 50.3980 44.9370 -1.1532 0.0000 0.0000
# 2 50.3980 104.4592 44.9370 1.1532 0.0000 0.0000
# 3 44.9370 44.9370 65.3689 0.0000 0.0000 0.0000
# 4 -1.1532 1.1532 0.0000 23.8289 0.0000 0.0000
# 5 0.0000 0.0000 0.0000 0.0000 23.8289 -1.1532
# 6 0.0000 0.0000 0.0000 0.0000 -1.1532 27.0306
#
#
#
# Elastic Compliance Matrix: (Units=1/GPa)
#
#
# Indices 1 2 3 4 5 6 
#
# 1 0.014640 -0.003896 -0.007386 0.000897 0.000000 0.000000
# 2 -0.003896 0.014640 -0.007386 -0.000897 0.000000 0.000000
# 3 -0.007386 -0.007386 0.025453 0.000000 0.000000 0.000000
# 4 0.000897 -0.000897 0.000000 0.042053 0.000000 0.000000
# 5 0.000000 0.000000 0.000000 0.000000 0.042053 0.001794
# 6 0.000000 0.000000 0.000000 0.000000 0.001794 0.037072
#
#
# Mechanical properties :
#
#
# Convention : Reuss Voigt Hill
#
# Bulk Modulus (GPa) = 57.48087 61.64794 59.56440
# Shear Modulus (GPa) = 22.82650 23.87204 23.34927
#
# Velocity S-wave (km/s) = 3.51932 3.59901 3.55939
# Velocity P-wave (km/s) = 6.90674 7.12184 7.01511
#
# Compressibility (1/GPa) = 0.01739709
#
# Stress axis : x y z
#
# Youngs Moduli (GPa) = 68.30623 68.30623 39.28887
#
# Poissons Ratio (x) = 0.26611 0.29018
# Poissons Ratio (y) = 0.26611 0.29018
# Poissons Ratio (z) = 0.50450 0.50450
#
# Static dielectric constant tensor:
#      x y z
#    x 3.453210 0.000000 0.000000 
#    y 0.000000 3.453210 0.000000 
#    z 0.000000 0.000000 3.206720 
# 
# 
# High freq. dielectric constant tensor:
#      x y z
#    x 1.722970 0.000000 0.000000 
#    y 0.000000 1.722970 0.000000 
#    z 0.000000 0.000000 1.691740 
# 
# From -- ./inp_files/3634.got.cif
#   From: 2010.03.12/outbox.cif.g09.slc.cpg/sg164_2_cif.got.tgz:3634.got - 2010.04.02 06:32:59.
