data_PCOD8323870
_publ_section_title
;
Structure prediction by ZEFSAII (Michael W. Deem and Ramdas Pophale) SiO2 
 PCOD8323870
Probable space group: P -3 C 1
;
_chemical_formula_sum "Si O2"
_cell_formula_units_Z 68
_cell_length_a 12.608904
_cell_length_b 12.608904
_cell_length_c 25.894179
_cell_angle_alpha 90.000000
_cell_angle_beta 90.000000
_cell_angle_gamma 120.000000
_cell_volume 3565.229192
_symmetry_space_group_name_H-M "P -3 C 1"
_symmetry_group_IT_number 165
_symmetry_cell_setting 'hexagonal'
loop_
_space_group_symop_operation_xyz
x,y,z
-y,x-y,z
-x+y,-x,z
x-y,-y,1/2-z
-x,-x+y,1/2-z
y,x,1/2-z
-x,-y,-z
y,-x+y,-z
x-y,x,-z
-x+y,y,1/2+z
x,x-y,1/2+z
-y,-x,1/2+z
loop_
_atom_site_type_symbol
_atom_site_label
_atom_site_fract_x
_atom_site_fract_y
_atom_site_fract_z
Si Si1 0.243686 0.243686 0.250000
Si Si2 0.363799 0.450704 0.935864
Si Si3 0.095832 0.682918 0.155508
Si Si4 0.333334 0.666667 0.045890
Si Si5 0.922511 0.576252 0.843492
Si Si6 0.666668 0.333334 0.075736
Si Si7 0.253383 0.253383 0.750000
Si Si8 0.076713 0.635020 0.047398
O O1 0.308470 0.317122 0.198005
O O2 0.232648 0.113619 0.245412
O O3 0.357394 0.347254 0.897552
O O4 0.318361 0.535781 0.906816
O O5 0.501519 0.544462 0.955109
O O6 0.295869 0.392806 0.991645
O O7 0.075435 0.548099 0.162864
O O8 0.237308 0.784189 0.162013
O O9 0.055924 0.701311 0.097217
O O10 0.196899 0.626719 0.065229
O O11 0.333334 0.666667 0.985142
O O12 0.001610 0.671251 0.799309
#
# Coordination Sequence:
#
# PCOD8323870 Si02
#       8
#     6  12  12   4  12   4   6  12
#     4  10  22  38  56  74  96 130 170 212 254 296
#     4   9  18  29  45  71 102 140 175 206 249 300
#     4  10  19  33  53  78 105 132 164 207 255 302
#     4   9  15  27  48  72 103 140 169 210 256 302
#     4  10  20  34  54  78 104 133 167 207 255 308
#     4   9  18  30  42  66 109 146 175 213 253 296
#     4  10  22  40  58  76  98 130 172 212 252 304
#     4   9  16  28  47  72 102 134 171 205 249 305
#
# _framework density 19.073108000000001
#
# number of rings (size 3 to 8) (size 9 to 14) (size 15 to 20)
#    0.000    2.471    0.000    3.176    0.000    4.235 
#    0.000    0.000    0.000    0.706    0.000    0.000 
#    0.000    7.059    0.000    0.000    0.000    0.000 
#
# Total GULP energy -842402.604986 kJ/mol
# GULP energy per Si atom -12388.273603 kJ/mol
# Density = 1.902970 g / cm^3
# Si number density = 19.073108 Si / 1000 Ang^3
#
#
#
# Elastic Constant Matrix: (Units=GPa)
#
#
# Indices 1 2 3 4 5 6 
#
# 1 58.2507 31.7074 48.8465 -1.4829 0.0000 0.0000
# 2 31.7074 58.2510 48.8463 1.4830 0.0000 0.0000
# 3 48.8465 48.8463 155.4469 0.0000 0.0000 0.0000
# 4 -1.4829 1.4830 0.0000 24.0588 0.0000 0.0000
# 5 0.0000 0.0000 0.0000 0.0000 24.0588 -1.4829
# 6 0.0000 0.0000 0.0000 0.0000 -1.4829 13.2717
#
#
#
# Elastic Compliance Matrix: (Units=1/GPa)
#
#
# Indices 1 2 3 4 5 6 
#
# 1 0.027405 -0.010530 -0.005303 0.002338 0.000000 0.000000
# 2 -0.010530 0.027405 -0.005303 -0.002338 0.000000 0.000000
# 3 -0.005303 -0.005303 0.009766 0.000000 0.000000 0.000000
# 4 0.002338 -0.002338 0.000000 0.041853 0.000000 0.000000
# 5 0.000000 0.000000 0.000000 0.000000 0.041853 0.004677
# 6 0.000000 0.000000 0.000000 0.000000 0.004677 0.075871
#
#
# Mechanical properties :
#
#
# Convention : Reuss Voigt Hill
#
# Bulk Modulus (GPa) = 44.83355 58.97211 51.90283
# Shear Modulus (GPa) = 18.25759 21.78109 20.01934
#
# Velocity S-wave (km/s) = 3.09729 3.38298 3.24328
# Velocity P-wave (km/s) = 6.02894 6.80041 6.42626
#
# Compressibility (1/GPa) = 0.02230472
#
# Stress axis : x y z
#
# Youngs Moduli (GPa) = 36.48944 36.48975 102.40074
#
# Poissons Ratio (x) = 0.38425 0.54300
# Poissons Ratio (y) = 0.38424 0.54298
# Poissons Ratio (z) = 0.19349 0.19349
#
# Static dielectric constant tensor:
#      x y z
#    x 3.424360 0.000000 0.000000 
#    y 0.000000 3.424370 0.000000 
#    z 0.000000 0.000000 3.952990 
# 
# 
# High freq. dielectric constant tensor:
#      x y z
#    x 1.717250 0.000000 0.000000 
#    y 0.000000 1.717250 0.000000 
#    z 0.000000 0.000000 1.758400 
# 
# From -- ./inp_files/3336.got.cif
#   From: 2010.03.12/outbox.cif.g09.slc.cpg/sg165_2_cif.got.tgz:3336.got - 2010.04.02 06:36:38.
