data_PCOD8323358
_publ_section_title
;
Structure prediction by ZEFSAII (Michael W. Deem and Ramdas Pophale) SiO2 
 PCOD8323358
Probable space group: P -3 M 1
;
_chemical_formula_sum "Si O2"
_cell_formula_units_Z 60
_cell_length_a 30.181367
_cell_length_b 30.181367
_cell_length_c 5.139091
_cell_angle_alpha 90.000000
_cell_angle_beta 90.000000
_cell_angle_gamma 120.000000
_cell_volume 4054.102757
_symmetry_space_group_name_H-M "P -3 M 1"
_symmetry_group_IT_number 164
_symmetry_cell_setting 'hexagonal'
loop_
_space_group_symop_operation_xyz
x,y,z
-y,x-y,z
-x+y,-x,z
x-y,-y,-z
-x,-x+y,-z
y,x,-z
-x,-y,-z
y,-x+y,-z
x-y,x,-z
-x+y,y,z
x,x-y,z
-y,-x,z
loop_
_atom_site_type_symbol
_atom_site_label
_atom_site_fract_x
_atom_site_fract_y
_atom_site_fract_z
Si Si1 0.229618 0.562870 0.531280
Si Si2 0.000000 0.731340 0.500000
Si Si3 0.613825 0.724184 0.008703
Si Si4 0.328015 0.000000 0.000000
Si Si5 0.213429 0.888390 0.507927
Si Si6 0.198012 0.698794 0.029492
O O1 0.288152 0.576304 0.524237
O O2 0.228985 0.614493 0.485461
O O3 0.197111 0.523308 0.305093
O O4 0.203052 0.538261 0.804199
O O5 0.944395 0.728308 0.504658
O O6 0.002040 0.703078 0.751026
O O7 0.618850 0.672550 0.007496
O O8 0.637471 0.757130 0.268526
O O9 0.553725 0.700347 0.992167
O O10 0.642651 0.761179 0.767527
O O11 0.153777 0.846224 0.499807
O O12 0.243536 0.756465 0.009873
#
# Coordination Sequence:
#
# PCOD8323358 Si02
#       6
#    12   6  12   6  12  12
#     4  10  20  33  47  63  83 107 131 157 195 242
#     4   8  16  26  36  56  80 106 144 172 192 240
#     4  10  18  29  43  64  87 109 138 168 198 239
#     4   8  16  28  42  58  83 112 136 164 197 232
#     4  10  17  26  41  58  83 115 139 167 206 239
#     4  10  19  29  44  66  86 103 130 166 199 234
#
# _framework density 14.799823
#
# number of rings (size 3 to 8) (size 9 to 14) (size 15 to 20)
#    0.000    2.400    0.000    3.800    0.000    1.600 
#    0.000    2.000    0.000    0.000    0.000    4.200 
#    0.000    0.000    0.000    0.300    0.000    0.000 
#
# Total GULP energy -743295.434177 kJ/mol
# GULP energy per Si atom -12388.257236 kJ/mol
# Density = 1.476614 g / cm^3
# Si number density = 14.799823 Si / 1000 Ang^3
#
#
#
# Elastic Constant Matrix: (Units=GPa)
#
#
# Indices 1 2 3 4 5 6 
#
# 1 86.1746 45.0187 5.2719 0.6968 0.0000 0.0000
# 2 45.0187 86.1746 5.2719 -0.6968 0.0000 0.0000
# 3 5.2719 5.2719 74.8601 0.0000 0.0000 0.0000
# 4 0.6968 -0.6968 0.0000 14.4877 0.0000 0.0000
# 5 0.0000 0.0000 0.0000 0.0000 14.4877 0.6968
# 6 0.0000 0.0000 0.0000 0.0000 0.6968 20.5779
#
#
#
# Elastic Compliance Matrix: (Units=1/GPa)
#
#
# Indices 1 2 3 4 5 6 
#
# 1 0.016002 -0.008336 -0.000540 -0.001170 0.000000 0.000000
# 2 -0.008336 0.016002 -0.000540 0.001170 0.000000 0.000000
# 3 -0.000540 -0.000540 0.013434 0.000000 0.000000 0.000000
# 4 -0.001170 0.001170 0.000000 0.069137 0.000000 0.000000
# 5 0.000000 0.000000 0.000000 0.000000 0.069137 -0.002341
# 6 0.000000 0.000000 0.000000 0.000000 -0.002341 0.048675
#
#
# Mechanical properties :
#
#
# Convention : Reuss Voigt Hill
#
# Bulk Modulus (GPa) = 37.58498 39.81490 38.69994
# Shear Modulus (GPa) = 19.22442 22.68711 20.95576
#
# Velocity S-wave (km/s) = 3.60802 3.91951 3.76699
# Velocity P-wave (km/s) = 6.54277 6.88797 6.71759
#
# Compressibility (1/GPa) = 0.02660637
#
# Stress axis : x y z
#
# Youngs Moduli (GPa) = 62.49364 62.49364 74.43637
#
# Poissons Ratio (x) = 0.52094 0.04018
# Poissons Ratio (y) = 0.52094 0.04018
# Poissons Ratio (z) = 0.03374 0.03374
#
# Static dielectric constant tensor:
#      x y z
#    x 2.957690 0.000000 0.000000 
#    y 0.000000 2.957690 0.000000 
#    z 0.000000 0.000000 3.232140 
# 
# 
# High freq. dielectric constant tensor:
#      x y z
#    x 1.543710 0.000000 0.000000 
#    y 0.000000 1.543710 0.000000 
#    z 0.000000 0.000000 1.598590 
# 
# From -- ./inp_files/710.got.cif
#   From: 2010.03.12/outbox.cif.g09.slc.cpg/sg164_1_cif.got.tgz:710.got - 2010.04.02 06:32:59.
