data_PCOD8323641
_publ_section_title
;
Structure prediction by ZEFSAII (Michael W. Deem and Ramdas Pophale) SiO2 
 PCOD8323641
Probable space group: P -3 M 1
;
_chemical_formula_sum "Si O2"
_cell_formula_units_Z 96
_cell_length_a 17.099907
_cell_length_b 17.099907
_cell_length_c 22.257869
_cell_angle_alpha 90.000000
_cell_angle_beta 90.000000
_cell_angle_gamma 120.000000
_cell_volume 5636.398759
_symmetry_space_group_name_H-M "P -3 M 1"
_symmetry_group_IT_number 164
_symmetry_cell_setting 'hexagonal'
loop_
_space_group_symop_operation_xyz
x,y,z
-y,x-y,z
-x+y,-x,z
x-y,-y,-z
-x,-x+y,-z
y,x,-z
-x,-y,-z
y,-x+y,-z
x-y,x,-z
-x+y,y,z
x,x-y,z
-y,-x,z
loop_
_atom_site_type_symbol
_atom_site_label
_atom_site_fract_x
_atom_site_fract_y
_atom_site_fract_z
Si Si1 0.359051 0.265309 0.521005
Si Si2 0.724750 0.629887 0.871402
Si Si3 0.512465 0.667756 0.014256
Si Si4 0.305488 0.062729 0.053891
Si Si5 0.162883 0.495619 0.585601
Si Si6 0.955047 0.568678 0.754454
Si Si7 0.153332 0.486373 0.721155
Si Si8 0.853018 0.333636 0.632490
O O1 0.274394 0.274394 0.500000
O O2 0.322541 0.161271 0.537878
O O3 0.416830 0.292744 0.461252
O O4 0.417784 0.327971 0.576405
O O5 0.829937 0.659873 0.874094
O O6 0.714617 0.716856 0.886508
O O7 0.687015 0.592551 0.805882
O O8 0.668829 0.551904 0.919997
O O9 0.475595 0.737798 0.012221
O O10 0.431691 0.568310 0.999339
O O11 0.589773 0.694363 0.964484
O O12 0.282000 0.141000 0.067173
O O13 0.241896 0.000000 0.000000
O O14 0.271684 0.543368 0.587665
O O15 0.134130 0.567065 0.564985
O O16 0.126170 0.458595 0.651959
O O17 0.939468 0.469734 0.766490
O O18 0.908484 0.569477 0.691932
O O19 0.061940 0.641969 0.756884
O O20 0.236121 0.472242 0.742409
O O21 0.182089 0.591044 0.731188
O O22 0.843638 0.421819 0.624278
O O23 0.753086 0.246915 0.634503
#
# Coordination Sequence:
#
# PCOD8323641 Si02
#       8
#    12  12  12  12  12  12  12  12
#     4  10  20  32  47  67  91 119 150 190 240 290
#     4  10  20  33  49  68  91 121 157 194 230 268
#     4   9  17  29  47  72 100 128 155 183 216 256
#     4   9  18  32  51  74  98 123 150 184 229 278
#     4   9  16  26  42  65  93 123 154 187 225 272
#     4  10  20  32  47  67  92 125 164 200 230 265
#     4   9  17  29  45  66  92 122 156 194 235 278
#     4  10  20  33  48  67  94 127 161 195 232 275
#
# _framework density 17.032152
#
# number of rings (size 3 to 8) (size 9 to 14) (size 15 to 20)
#    0.000    2.500    0.000    3.500    0.000    6.250 
#    0.000    1.250    0.000    6.375    0.000    4.375 
#    0.000    0.000    0.000    1.375    0.000    0.000 
#
# Total GULP energy -1190035.640669 kJ/mol
# GULP energy per Si atom -12396.204590 kJ/mol
# Density = 1.699339 g / cm^3
# Si number density = 17.032152 Si / 1000 Ang^3
#
#
#
# Elastic Constant Matrix: (Units=GPa)
#
#
# Indices 1 2 3 4 5 6 
#
# 1 85.0744 48.8464 32.8096 0.7696 0.0000 0.0000
# 2 48.8464 85.0744 32.8096 -0.7696 0.0000 0.0000
# 3 32.8096 32.8096 58.0019 0.0000 0.0000 0.0000
# 4 0.7696 -0.7696 0.0000 22.9983 0.0000 0.0000
# 5 0.0000 0.0000 0.0000 0.0000 22.9983 0.7696
# 6 0.0000 0.0000 0.0000 0.0000 0.7696 18.1140
#
#
#
# Elastic Compliance Matrix: (Units=1/GPa)
#
#
# Indices 1 2 3 4 5 6 
#
# 1 0.018986 -0.008656 -0.005844 -0.000925 0.000000 0.000000
# 2 -0.008656 0.018986 -0.005844 0.000925 0.000000 0.000000
# 3 -0.005844 -0.005844 0.023852 0.000000 0.000000 0.000000
# 4 -0.000925 0.000925 0.000000 0.043543 0.000000 0.000000
# 5 0.000000 0.000000 0.000000 0.000000 0.043543 -0.001850
# 6 0.000000 0.000000 0.000000 0.000000 -0.001850 0.055285
#
#
# Mechanical properties :
#
#
# Convention : Reuss Voigt Hill
#
# Bulk Modulus (GPa) = 47.30729 50.78689 49.04709
# Shear Modulus (GPa) = 19.84696 20.40112 20.12404
#
# Velocity S-wave (km/s) = 3.41730 3.46468 3.44107
# Velocity P-wave (km/s) = 6.58834 6.77409 6.68186
#
# Compressibility (1/GPa) = 0.02113839
#
# Stress axis : x y z
#
# Youngs Moduli (GPa) = 52.66949 52.66949 41.92565
#
# Poissons Ratio (x) = 0.45591 0.24499
# Poissons Ratio (y) = 0.45591 0.24499
# Poissons Ratio (z) = 0.30777 0.30777
#
# Static dielectric constant tensor:
#      x y z
#    x 3.331250 0.000000 0.000000 
#    y 0.000000 3.331250 0.000000 
#    z 0.000000 0.000000 3.106640 
# 
# 
# High freq. dielectric constant tensor:
#      x y z
#    x 1.647380 0.000000 0.000000 
#    y 0.000000 1.647380 0.000000 
#    z 0.000000 0.000000 1.651350 
# 
# From -- ./inp_files/4799.got.cif
#   From: 2010.03.12/outbox.cif.g09.slc.cpg/sg164_3_cif.got.tgz:4799.got - 2010.04.02 06:32:59.
