data_PCOD8323526
_publ_section_title
;
Structure prediction by ZEFSAII (Michael W. Deem and Ramdas Pophale) SiO2 
 PCOD8323526
Probable space group: P -3 M 1
;
_chemical_formula_sum "Si O2"
_cell_formula_units_Z 60
_cell_length_a 17.670871
_cell_length_b 17.670871
_cell_length_c 14.515365
_cell_angle_alpha 90.000000
_cell_angle_beta 90.000000
_cell_angle_gamma 120.000000
_cell_volume 3925.314925
_symmetry_space_group_name_H-M "P -3 M 1"
_symmetry_group_IT_number 164
_symmetry_cell_setting 'hexagonal'
loop_
_space_group_symop_operation_xyz
x,y,z
-y,x-y,z
-x+y,-x,z
x-y,-y,-z
-x,-x+y,-z
y,x,-z
-x,-y,-z
y,-x+y,-z
x-y,x,-z
-x+y,y,z
x,x-y,z
-y,-x,z
loop_
_atom_site_type_symbol
_atom_site_label
_atom_site_fract_x
_atom_site_fract_y
_atom_site_fract_z
Si Si1 0.489222 0.157236 0.769681
Si Si2 0.331987 0.489222 0.769681
Si Si3 0.000000 0.589819 0.103114
Si Si4 0.901849 0.266925 0.395147
Si Si5 0.365074 0.098150 0.604854
O O1 0.584586 0.169172 0.770216
O O2 0.496902 0.248451 0.796972
O O3 0.425358 0.086474 0.844134
O O4 0.448943 0.124909 0.668444
O O5 0.248450 0.496899 0.796969
O O6 0.415414 0.584587 0.770218
O O7 0.338885 0.425358 0.844133
O O8 0.324037 0.448944 0.668443
O O9 0.000000 0.500000 0.100326
O O10 0.000000 0.623827 0.000000
O O11 0.836404 0.163597 0.377243
O O12 0.894208 0.292211 0.500001
O O13 1.000000 0.287937 0.373116
O O14 0.327189 0.163595 0.622757
#
# Coordination Sequence:
#
# PCOD8323526 Si02
#       5
#    12  12  12  12  12
#     4  10  19  31  46  66  91 120 152 186 225 269
#     4  10  19  31  46  66  91 120 152 186 225 269
#     4   9  18  32  47  63  85 113 147 188 230 268
#     4   9  17  29  46  68  93 121 151 183 221 266
#     4   9  17  29  46  68  93 121 151 183 221 266
#
# _framework density 15.285398000000001
#
# number of rings (size 3 to 8) (size 9 to 14) (size 15 to 20)
#    0.000    2.600    2.000    0.400    0.000    1.600 
#    0.000    2.000    0.000    5.200    0.000    2.800 
#    0.000    0.000    0.000    0.000    0.000   18.200 
#
# Total GULP energy -743839.979153 kJ/mol
# GULP energy per Si atom -12397.332986 kJ/mol
# Density = 1.525061 g / cm^3
# Si number density = 15.285398 Si / 1000 Ang^3
#
#
#
# Elastic Constant Matrix: (Units=GPa)
#
#
# Indices 1 2 3 4 5 6 
#
# 1 103.4430 61.9813 54.1765 0.0001 0.0000 0.0000
# 2 61.9813 103.4430 54.1765 -0.0001 0.0000 0.0000
# 3 54.1765 54.1765 102.2233 0.0000 0.0000 0.0000
# 4 0.0001 -0.0001 0.0000 18.1308 0.0000 0.0000
# 5 0.0000 0.0000 0.0000 0.0000 18.1308 0.0001
# 6 0.0000 0.0000 0.0000 0.0000 0.0001 20.7309
#
#
#
# Elastic Compliance Matrix: (Units=1/GPa)
#
#
# Indices 1 2 3 4 5 6 
#
# 1 0.016689 -0.007430 -0.004907 0.000000 0.000000 0.000000
# 2 -0.007430 0.016689 -0.004907 0.000000 0.000000 0.000000
# 3 -0.004907 -0.004907 0.014984 0.000000 0.000000 0.000000
# 4 0.000000 0.000000 0.000000 0.055155 0.000000 0.000000
# 5 0.000000 0.000000 0.000000 0.000000 0.055155 0.000000
# 6 0.000000 0.000000 0.000000 0.000000 0.000000 0.048237
#
#
# Mechanical properties :
#
#
# Convention : Reuss Voigt Hill
#
# Bulk Modulus (GPa) = 72.07936 72.19752 72.13844
# Shear Modulus (GPa) = 20.32340 20.65015 20.48677
#
# Velocity S-wave (km/s) = 3.65032 3.67955 3.66496
# Velocity P-wave (km/s) = 8.06378 8.08626 8.07503
#
# Compressibility (1/GPa) = 0.01387360
#
# Stress axis : x y z
#
# Youngs Moduli (GPa) = 59.91980 59.91980 66.73766
#
# Poissons Ratio (x) = 0.44518 0.32750
# Poissons Ratio (y) = 0.44518 0.32750
# Poissons Ratio (z) = 0.29404 0.29404
#
# Static dielectric constant tensor:
#      x y z
#    x 2.919290 0.000000 0.000000 
#    y 0.000000 2.919290 0.000000 
#    z 0.000000 0.000000 3.130230 
# 
# 
# High freq. dielectric constant tensor:
#      x y z
#    x 1.574520 0.000000 0.000000 
#    y 0.000000 1.574520 0.000000 
#    z 0.000000 0.000000 1.592400 
# 
# From -- ./inp_files/3355.got.cif
#   From: 2010.03.12/outbox.cif.g09.slc.cpg/sg164_2_cif.got.tgz:3355.got - 2010.04.02 06:32:59.
