data_PCOD8323488
_publ_section_title
;
Structure prediction by ZEFSAII (Michael W. Deem and Ramdas Pophale) SiO2 
 PCOD8323488
Probable space group: P -3 M 1
;
_chemical_formula_sum "Si O2"
_cell_formula_units_Z 84
_cell_length_a 17.690706
_cell_length_b 17.690706
_cell_length_c 20.304334
_cell_angle_alpha 90.000000
_cell_angle_beta 90.000000
_cell_angle_gamma 120.000000
_cell_volume 5503.129219
_symmetry_space_group_name_H-M "P -3 M 1"
_symmetry_group_IT_number 164
_symmetry_cell_setting 'hexagonal'
loop_
_space_group_symop_operation_xyz
x,y,z
-y,x-y,z
-x+y,-x,z
x-y,-y,-z
-x,-x+y,-z
y,x,-z
-x,-y,-z
y,-x+y,-z
x-y,x,-z
-x+y,y,z
x,x-y,z
-y,-x,z
loop_
_atom_site_type_symbol
_atom_site_label
_atom_site_fract_x
_atom_site_fract_y
_atom_site_fract_z
Si Si1 0.985108 0.410623 0.075960
Si Si2 0.162278 0.495667 0.293137
Si Si3 0.833886 0.501011 0.862969
Si Si4 0.822204 0.000817 0.194720
Si Si5 0.759279 0.062275 0.688406
Si Si6 0.769082 0.057219 0.065591
Si Si7 0.000148 0.175142 0.575038
O O1 0.953554 0.476777 0.106062
O O2 0.921355 0.307346 0.087566
O O3 0.074262 0.426533 0.109123
O O4 0.000000 0.432063 0.000000
O O5 0.254368 0.508735 0.320402
O O6 0.148890 0.574445 0.320243
O O7 0.164565 0.496696 0.215051
O O8 0.079758 0.402069 0.314680
O O9 0.760509 0.521017 0.890616
O O10 0.811855 0.405928 0.888402
O O11 0.835871 0.917936 0.197548
O O12 0.751284 0.993926 0.248336
O O13 0.788788 0.006976 0.122704
O O14 0.913838 0.086163 0.211554
O O15 0.844337 0.155664 0.694622
O O16 0.759063 0.013119 0.621621
O O17 0.852015 0.147986 0.048434
O O18 0.741346 0.000000 0.000000
O O19 0.090219 0.180437 0.594162
O O20 0.000000 0.204202 0.500000
O O21 0.924218 0.075782 0.586462
#
# Coordination Sequence:
#
# PCOD8323488 Si02
#       7
#    12  12  12  12  12  12  12
#     4   9  18  30  42  57  77 101 128 160 201 247
#     4   9  16  26  41  61  84 108 133 163 201 246
#     4   9  16  26  42  63  84 104 127 159 200 246
#     4  10  19  30  43  60  84 113 144 176 209 245
#     4   9  17  27  40  60  84 110 139 170 206 247
#     4  10  20  32  46  62  80 106 140 175 208 243
#     4   9  16  26  41  61  85 113 144 176 209 246
#
# _framework density 15.264042999999999
#
# number of rings (size 3 to 8) (size 9 to 14) (size 15 to 20)
#    0.000    2.714    0.000    2.286    0.000    5.714 
#    0.000    1.429    0.000    3.000    0.000    0.000 
#    0.000    0.000    0.000    3.429    0.000    0.000 
#
# Total GULP energy -1040954.358853 kJ/mol
# GULP energy per Si atom -12392.313796 kJ/mol
# Density = 1.522930 g / cm^3
# Si number density = 15.264043 Si / 1000 Ang^3
#
#
#
# Elastic Constant Matrix: (Units=GPa)
#
#
# Indices 1 2 3 4 5 6 
#
# 1 92.2051 57.2717 33.1374 0.7874 0.0000 0.0000
# 2 57.2717 92.2051 33.1374 -0.7874 0.0000 0.0000
# 3 33.1374 33.1374 51.2813 0.0000 0.0000 0.0000
# 4 0.7874 -0.7874 0.0000 14.3565 0.0000 0.0000
# 5 0.0000 0.0000 0.0000 0.0000 14.3565 0.7874
# 6 0.0000 0.0000 0.0000 0.0000 0.7874 17.4667
#
#
#
# Elastic Compliance Matrix: (Units=1/GPa)
#
#
# Indices 1 2 3 4 5 6 
#
# 1 0.019037 -0.009660 -0.006059 -0.001574 0.000000 0.000000
# 2 -0.009660 0.019037 -0.006059 0.001574 0.000000 0.000000
# 3 -0.006059 -0.006059 0.027331 0.000000 0.000000 0.000000
# 4 -0.001574 0.001574 0.000000 0.069827 0.000000 0.000000
# 5 0.000000 0.000000 0.000000 0.000000 0.069827 -0.003148
# 6 0.000000 0.000000 0.000000 0.000000 -0.003148 0.057394
#
#
# Mechanical properties :
#
#
# Convention : Reuss Voigt Hill
#
# Bulk Modulus (GPa) = 45.77117 53.64271 49.70694
# Shear Modulus (GPa) = 15.95959 16.71228 16.33594
#
# Velocity S-wave (km/s) = 3.23703 3.31249 3.27498
# Velocity P-wave (km/s) = 6.63495 7.06042 6.85099
#
# Compressibility (1/GPa) = 0.02184781
#
# Stress axis : x y z
#
# Youngs Moduli (GPa) = 52.53028 52.53028 36.58892
#
# Poissons Ratio (x) = 0.50746 0.22169
# Poissons Ratio (y) = 0.50746 0.22169
# Poissons Ratio (z) = 0.31828 0.31828
#
# Static dielectric constant tensor:
#      x y z
#    x 3.063590 0.000000 0.000000 
#    y 0.000000 3.063590 0.000000 
#    z 0.000000 0.000000 2.810920 
# 
# 
# High freq. dielectric constant tensor:
#      x y z
#    x 1.576610 0.000000 0.000000 
#    y 0.000000 1.576610 0.000000 
#    z 0.000000 0.000000 1.563820 
# 
# From -- ./inp_files/4684.got.cif
#   From: 2010.03.12/outbox.cif.g09.slc.cpg/sg164_3_cif.got.tgz:4684.got - 2010.04.02 06:32:59.
