data_PCOD8323083
_publ_section_title
;
Structure prediction by ZEFSAII (Michael W. Deem and Ramdas Pophale) SiO2 
 PCOD8323083
Probable space group: P -3 1 M 
;
_chemical_formula_sum "Si O2"
_cell_formula_units_Z 66
_cell_length_a 21.875980
_cell_length_b 21.875980
_cell_length_c 8.323784
_cell_angle_alpha 90.000000
_cell_angle_beta 90.000000
_cell_angle_gamma 120.000000
_cell_volume 3449.740830
_symmetry_space_group_name_H-M "P -3 1 M "
_symmetry_group_IT_number 162
_symmetry_cell_setting 'hexagonal'
loop_
_space_group_symop_operation_xyz
x,y,z
-y,x-y,z
-x+y,-x,z
-y,-x,-z
-x+y,y,-z
x,x-y,-z
-x,-y,-z
y,-x+y,-z
x-y,x,-z
y,x,z
x-y,-y,z
-x,-x+y,z
loop_
_atom_site_type_symbol
_atom_site_label
_atom_site_fract_x
_atom_site_fract_y
_atom_site_fract_z
Si Si1 0.917233 0.471892 0.174621
Si Si2 0.320396 0.400273 0.308002
Si Si3 0.862708 0.081741 0.832841
Si Si4 0.178219 0.799197 0.827238
Si Si5 0.652364 0.573383 0.321699
Si Si6 0.918529 0.081472 0.500000
O O1 0.886642 0.521192 0.234202
O O2 0.900056 0.408103 0.296581
O O3 0.000000 0.523331 0.161345
O O4 0.884113 0.442057 0.000000
O O5 0.344243 0.344243 0.243150
O O6 0.238753 0.374526 0.273816
O O7 0.333910 0.407361 0.494869
O O8 0.812307 0.113657 0.856160
O O9 0.907219 0.114166 0.666404
O O10 0.812719 0.000000 0.804802
O O11 0.906503 0.093498 0.000000
O O12 0.144147 0.723035 0.747350
O O13 0.207497 0.792504 0.000000
O O14 0.624737 0.624737 0.244316
O O15 0.000000 0.113600 0.468996
#
# Coordination Sequence:
#
# PCOD8323083 Si02
#       6
#    12  12  12  12  12   6
#     4   9  17  32  55  81 108 139 176 217 264 317
#     4  10  21  35  55  82 112 147 185 227 276 332
#     4  10  22  38  56  79 109 146 191 242 301 360
#     4  11  23  36  53  79 113 148 186 231 284 339
#     4  10  20  35  56  81 112 145 184 229 274 328
#     4  10  21  36  56  76 100 134 182 236 294 354
#
# _framework density 19.131872000000001
#
# number of rings (size 3 to 8) (size 9 to 14) (size 15 to 20)
#    0.000    2.000    0.000    3.364    2.545    8.000 
#    0.000    0.000    0.000    3.636    0.000    5.091 
#    0.000    0.000    0.000    0.000    0.000    0.000 
#
# Total GULP energy -817790.375439 kJ/mol
# GULP energy per Si atom -12390.763264 kJ/mol
# Density = 1.908833 g / cm^3
# Si number density = 19.131872 Si / 1000 Ang^3
#
#
#
# Elastic Constant Matrix: (Units=GPa)
#
#
# Indices 1 2 3 4 5 6 
#
# 1 80.5348 38.1134 16.8354 0.0002 0.8211 0.0000
# 2 38.1134 80.5348 16.8354 -0.0002 -0.8211 0.0000
# 3 16.8354 16.8354 104.7004 0.0000 0.0000 0.0000
# 4 0.0002 -0.0002 0.0000 28.1825 0.0000 -0.8211
# 5 0.8211 -0.8211 0.0000 0.0000 28.1825 0.0002
# 6 0.0000 0.0000 0.0000 -0.8211 0.0002 21.2107
#
#
#
# Elastic Compliance Matrix: (Units=1/GPa)
#
#
# Indices 1 2 3 4 5 6 
#
# 1 0.016215 -0.007384 -0.001420 0.000000 -0.000688 0.000000
# 2 -0.007384 0.016215 -0.001420 0.000000 0.000688 0.000000
# 3 -0.001420 -0.001420 0.010008 0.000000 0.000000 0.000000
# 4 0.000000 0.000000 0.000000 0.035523 0.000000 0.001375
# 5 -0.000688 0.000688 0.000000 0.000000 0.035523 0.000000
# 6 0.000000 0.000000 0.000000 0.001375 0.000000 0.047199
#
#
# Mechanical properties :
#
#
# Convention : Reuss Voigt Hill
#
# Bulk Modulus (GPa) = 45.47491 45.48202 45.47847
# Shear Modulus (GPa) = 26.53046 28.44751 27.48898
#
# Velocity S-wave (km/s) = 3.72790 3.86024 3.79465
# Velocity P-wave (km/s) = 6.50772 6.61008 6.55910
#
# Compressibility (1/GPa) = 0.02199015
#
# Stress axis : x y z
#
# Youngs Moduli (GPa) = 61.66961 61.66961 99.92270
#
# Poissons Ratio (x) = 0.45538 0.14189
# Poissons Ratio (y) = 0.45538 0.14189
# Poissons Ratio (z) = 0.08757 0.08757
#
# Static dielectric constant tensor:
#      x y z
#    x 3.515750 0.000000 0.000000 
#    y 0.000000 3.515750 0.000000 
#    z 0.000000 0.000000 4.155690 
# 
# 
# High freq. dielectric constant tensor:
#      x y z
#    x 1.725720 0.000000 0.000000 
#    y 0.000000 1.725720 0.000000 
#    z 0.000000 0.000000 1.761500 
# 
# From -- ./inp_files/1616.got.cif
#   From: 2010.03.12/outbox.cif.g09.slc.cpg/sg162_1_cif.got.tgz:1616.got - 2010.04.02 06:27:41.
