data_PCOD8323976
_publ_section_title
;
Structure prediction by ZEFSAII (Michael W. Deem and Ramdas Pophale) SiO2 
 PCOD8323976
Probable space group: P -3 C 1
;
_chemical_formula_sum "Si O2"
_cell_formula_units_Z 56
_cell_length_a 13.811483
_cell_length_b 13.811483
_cell_length_c 19.146436
_cell_angle_alpha 90.000000
_cell_angle_beta 90.000000
_cell_angle_gamma 120.000000
_cell_volume 3163.000077
_symmetry_space_group_name_H-M "P -3 C 1"
_symmetry_group_IT_number 165
_symmetry_cell_setting 'hexagonal'
loop_
_space_group_symop_operation_xyz
x,y,z
-y,x-y,z
-x+y,-x,z
x-y,-y,1/2-z
-x,-x+y,1/2-z
y,x,1/2-z
-x,-y,-z
y,-x+y,-z
x-y,x,-z
-x+y,y,1/2+z
x,x-y,1/2+z
-y,-x,1/2+z
loop_
_atom_site_type_symbol
_atom_site_label
_atom_site_fract_x
_atom_site_fract_y
_atom_site_fract_z
Si Si1 0.873553 0.558181 0.667955
Si Si2 0.255670 0.127938 0.079650
Si Si3 0.684630 0.558183 0.332045
Si Si4 0.666667 0.333334 0.332511
Si Si5 0.127731 0.872062 0.079651
Si Si6 0.333334 0.666668 0.832507
O O1 0.841558 0.641065 0.629865
O O2 0.861036 0.571059 0.750000
O O3 0.786544 0.433253 0.641112
O O4 1.000000 0.587935 0.649125
O O5 0.206317 0.206317 0.101899
O O6 0.158579 0.000000 0.088919
O O7 0.298837 0.149418 1.000000
O O8 0.646713 0.433257 0.358892
O O9 0.799509 0.641067 0.370134
O O10 0.666668 0.333334 0.250002
#
# Coordination Sequence:
#
# PCOD8323976 Si02
#       6
#    12  12  12   4  12   4
#     4   9  18  32  49  70  94 120 156 198 233 273
#     4   9  17  30  48  70  97 128 159 192 234 282
#     4   9  18  32  49  70  94 120 156 198 233 273
#     4   9  18  33  52  71  94 126 157 188 235 288
#     4   9  17  30  48  70  97 128 159 192 234 282
#     4   9  18  33  52  71  94 126 157 188 235 288
#
# _framework density 17.704711
#
# number of rings (size 3 to 8) (size 9 to 14) (size 15 to 20)
#    0.000    3.000    0.000    0.429    0.000    4.286 
#    0.000    6.429    0.000   10.286    0.000    0.000 
#    0.000    0.000    0.000    0.000    0.000    0.000 
#
# Total GULP energy -694291.260548 kJ/mol
# GULP energy per Si atom -12398.058224 kJ/mol
# Density = 1.766441 g / cm^3
# Si number density = 17.704711 Si / 1000 Ang^3
#
#
#
# Elastic Constant Matrix: (Units=GPa)
#
#
# Indices 1 2 3 4 5 6 
#
# 1 133.6299 84.4846 36.7827 0.0000 0.0000 0.0000
# 2 84.4846 133.6296 36.7828 0.0003 0.0000 0.0000
# 3 36.7827 36.7828 36.9706 0.0002 0.0000 0.0000
# 4 0.0000 0.0003 0.0002 20.5438 0.0000 0.0000
# 5 0.0000 0.0000 0.0000 0.0000 20.5437 -0.0002
# 6 0.0000 0.0000 0.0000 0.0000 -0.0002 24.5725
#
#
#
# Elastic Compliance Matrix: (Units=1/GPa)
#
#
# Indices 1 2 3 4 5 6 
#
# 1 0.013624 -0.006724 -0.006865 0.000000 0.000000 0.000000
# 2 -0.006724 0.013624 -0.006865 0.000000 0.000000 0.000000
# 3 -0.006865 -0.006865 0.040709 0.000000 0.000000 0.000000
# 4 0.000000 0.000000 0.000000 0.048676 0.000000 0.000000
# 5 0.000000 0.000000 0.000000 0.000000 0.048677 0.000000
# 6 0.000000 0.000000 0.000000 0.000000 0.000000 0.040696
#
#
# Mechanical properties :
#
#
# Convention : Reuss Voigt Hill
#
# Bulk Modulus (GPa) = 36.97012 68.92560 52.94786
# Shear Modulus (GPa) = 19.53652 22.87734 21.20693
#
# Velocity S-wave (km/s) = 3.32545 3.59856 3.46470
# Velocity P-wave (km/s) = 5.97257 7.50209 6.78060
#
# Compressibility (1/GPa) = 0.02704887
#
# Stress axis : x y z
#
# Youngs Moduli (GPa) = 73.39980 73.39946 24.56452
#
# Poissons Ratio (x) = 0.49352 0.16864
# Poissons Ratio (y) = 0.49353 0.16864
# Poissons Ratio (z) = 0.50390 0.50390
#
# Static dielectric constant tensor:
#      x y z
#    x 3.397130 0.000000 0.000000 
#    y 0.000000 3.397130 0.000000 
#    z 0.000000 0.000000 3.150960 
# 
# 
# High freq. dielectric constant tensor:
#      x y z
#    x 1.683890 0.000000 0.000000 
#    y 0.000000 1.683890 0.000000 
#    z 0.000000 0.000000 1.666310 
# 
# From -- ./inp_files/2889.got.cif
#   From: 2010.03.12/outbox.cif.g09.slc.cpg/sg165_2_cif.got.tgz:2889.got - 2010.04.02 06:36:38.
