data_PCOD8323816
_publ_section_title
;
Structure prediction by ZEFSAII (Michael W. Deem and Ramdas Pophale) SiO2 
 PCOD8323816
Probable space group: P -3 M 1
;
_chemical_formula_sum "Si O2"
_cell_formula_units_Z 48
_cell_length_a 17.244457
_cell_length_b 17.244457
_cell_length_c 10.302031
_cell_angle_alpha 90.000000
_cell_angle_beta 90.000000
_cell_angle_gamma 120.000000
_cell_volume 2653.093353
_symmetry_space_group_name_H-M "P -3 M 1"
_symmetry_group_IT_number 164
_symmetry_cell_setting 'hexagonal'
loop_
_space_group_symop_operation_xyz
x,y,z
-y,x-y,z
-x+y,-x,z
x-y,-y,-z
-x,-x+y,-z
y,x,-z
-x,-y,-z
y,-x+y,-z
x-y,x,-z
-x+y,y,z
x,x-y,z
-y,-x,z
loop_
_atom_site_type_symbol
_atom_site_label
_atom_site_fract_x
_atom_site_fract_y
_atom_site_fract_z
Si Si1 0.155346 0.488865 0.033529
Si Si2 0.059810 0.759039 0.626680
Si Si3 0.333427 0.842286 0.733888
Si Si4 0.760444 0.703093 0.875823
O O1 0.258379 0.516757 0.056587
O O2 0.142497 0.571249 0.076872
O O3 0.088924 0.402764 0.118652
O O4 0.128694 0.463109 0.883102
O O5 0.138612 0.861389 0.616937
O O6 0.100016 0.693062 0.641693
O O7 0.000000 0.732468 0.500000
O O8 0.998871 0.748999 0.748547
O O9 0.429759 0.859518 0.689457
O O10 0.262783 0.737218 0.718948
O O11 0.857619 0.715238 0.875060
O O12 0.754787 0.754787 0.000000
#
# Coordination Sequence:
#
# PCOD8323816 Si02
#       4
#    12  12  12  12
#     4   9  17  30  52  84 120 155 187 219 258 310
#     4  11  23  40  59  80 107 143 183 228 283 338
#     4   9  17  31  53  83 118 153 188 221 259 311
#     4  11  21  36  58  83 109 140 179 227 283 333
#
# _framework density 18.092088
#
# number of rings (size 3 to 8) (size 9 to 14) (size 15 to 20)
#    0.000    2.000    2.500    2.000    0.000    4.000 
#    0.000    0.000    0.000   10.000    0.000    3.500 
#    0.000    0.000    0.000    0.000    0.000    0.000 
#
# Total GULP energy -595288.298786 kJ/mol
# GULP energy per Si atom -12401.839558 kJ/mol
# Density = 1.805091 g / cm^3
# Si number density = 18.092088 Si / 1000 Ang^3
#
#
#
# Elastic Constant Matrix: (Units=GPa)
#
#
# Indices 1 2 3 4 5 6 
#
# 1 109.7572 66.9314 51.5138 -0.9261 0.0000 0.0000
# 2 66.9314 109.7572 51.5138 0.9261 0.0000 0.0000
# 3 51.5138 51.5138 105.4299 0.0000 0.0000 0.0000
# 4 -0.9261 0.9261 0.0000 31.7348 0.0000 0.0000
# 5 0.0000 0.0000 0.0000 0.0000 31.7348 -0.9261
# 6 0.0000 0.0000 0.0000 0.0000 -0.9261 21.4129
#
#
#
# Elastic Compliance Matrix: (Units=1/GPa)
#
#
# Indices 1 2 3 4 5 6 
#
# 1 0.015647 -0.007733 -0.003867 0.000682 0.000000 0.000000
# 2 -0.007733 0.015647 -0.003867 -0.000682 0.000000 0.000000
# 3 -0.003867 -0.003867 0.013264 0.000000 0.000000 0.000000
# 4 0.000682 -0.000682 0.000000 0.031551 0.000000 0.000000
# 5 0.000000 0.000000 0.000000 0.000000 0.031551 0.001365
# 6 0.000000 0.000000 0.000000 0.000000 0.001365 0.046760
#
#
# Mechanical properties :
#
#
# Convention : Reuss Voigt Hill
#
# Bulk Modulus (GPa) = 73.39624 73.87359 73.63492
# Shear Modulus (GPa) = 26.33026 27.30887 26.81957
#
# Velocity S-wave (km/s) = 3.81904 3.88936 3.85436
# Velocity P-wave (km/s) = 7.75261 7.81602 7.78438
#
# Compressibility (1/GPa) = 0.01362468
#
# Stress axis : x y z
#
# Youngs Moduli (GPa) = 63.90895 63.90895 75.39205
#
# Poissons Ratio (x) = 0.49419 0.29155
# Poissons Ratio (y) = 0.49419 0.29155
# Poissons Ratio (z) = 0.24714 0.24714
#
# Static dielectric constant tensor:
#      x y z
#    x 3.385260 0.000000 0.000000 
#    y 0.000000 3.385260 0.000000 
#    z 0.000000 0.000000 3.071970 
# 
# 
# High freq. dielectric constant tensor:
#      x y z
#    x 1.708150 0.000000 0.000000 
#    y 0.000000 1.708150 0.000000 
#    z 0.000000 0.000000 1.673700 
# 
# From -- ./inp_files/1221.got.cif
#   From: 2010.03.12/outbox.cif.g09.slc.cpg/sg164_1_cif.got.tgz:1221.got - 2010.04.02 06:32:59.
