data_PCOD8323635
_publ_section_title
;
Structure prediction by ZEFSAII (Michael W. Deem and Ramdas Pophale) SiO2 
 PCOD8323635
Probable space group: P -3 M 1
;
_chemical_formula_sum "Si O2"
_cell_formula_units_Z 72
_cell_length_a 12.631364
_cell_length_b 12.631364
_cell_length_c 30.410680
_cell_angle_alpha 90.000000
_cell_angle_beta 90.000000
_cell_angle_gamma 120.000000
_cell_volume 4202.011764
_symmetry_space_group_name_H-M "P -3 M 1"
_symmetry_group_IT_number 164
_symmetry_cell_setting 'hexagonal'
loop_
_space_group_symop_operation_xyz
x,y,z
-y,x-y,z
-x+y,-x,z
x-y,-y,-z
-x,-x+y,-z
y,x,-z
-x,-y,-z
y,-x+y,-z
x-y,x,-z
-x+y,y,z
x,x-y,z
-y,-x,z
loop_
_atom_site_type_symbol
_atom_site_label
_atom_site_fract_x
_atom_site_fract_y
_atom_site_fract_z
Si Si1 0.247557 0.247557 0.500000
Si Si2 0.421938 0.088762 0.423192
Si Si3 0.246626 0.246626 0.000000
Si Si4 0.578374 0.911136 0.676693
Si Si5 0.245226 0.998670 0.753986
Si Si6 0.666837 0.086624 0.164208
Si Si7 0.419830 0.086572 0.917749
O O1 0.231278 0.115639 0.501165
O O2 0.320117 0.317193 0.543872
O O3 0.541620 0.083240 0.434332
O O4 0.453604 0.226802 0.431231
O O5 0.378033 0.047348 0.373247
O O6 0.310121 0.331448 0.041607
O O7 0.229996 0.114998 0.010005
O O8 0.461906 0.923811 0.688727
O O9 0.540352 0.770176 0.684219
O O10 0.691162 0.998622 0.707780
O O11 0.259711 0.129856 0.761672
O O12 0.316377 0.972525 0.791913
O O13 0.102203 0.897798 0.754050
O O14 0.555247 0.110494 0.171510
O O15 0.785630 0.214371 0.152649
O O16 0.642927 0.993994 0.124878
O O17 0.548923 0.097845 0.928382
O O18 0.441305 0.220653 0.909094
#
# Coordination Sequence:
#
# PCOD8323635 Si02
#       7
#     6  12   6  12  12  12  12
#     4  10  20  32  46  66  94 128 162 194 230 276
#     4   9  17  30  49  72  95 120 153 195 241 285
#     4  10  20  34  52  74 100 130 166 208 252 294
#     4   9  17  30  50  74  97 121 152 194 242 287
#     4  10  20  33  49  70  97 129 163 197 233 276
#     4  10  20  34  53  76 100 126 158 199 245 289
#     4  10  20  34  52  74 101 133 167 201 239 287
#
# _framework density 17.134651000000002
#
# number of rings (size 3 to 8) (size 9 to 14) (size 15 to 20)
#    0.000    2.333    0.000    3.000    0.000    2.000 
#    0.000    1.667    0.000   16.667    0.000    0.000 
#    0.000    0.000    0.000    0.000    0.000    0.000 
#
# Total GULP energy -892969.562048 kJ/mol
# GULP energy per Si atom -12402.355028 kJ/mol
# Density = 1.709565 g / cm^3
# Si number density = 17.134651 Si / 1000 Ang^3
#
#
#
# Elastic Constant Matrix: (Units=GPa)
#
#
# Indices 1 2 3 4 5 6 
#
# 1 100.2646 57.9456 61.5860 4.0527 0.0000 0.0000
# 2 57.9456 100.2646 61.5860 -4.0527 0.0000 0.0000
# 3 61.5860 61.5860 107.9913 0.0000 0.0000 0.0000
# 4 4.0527 -4.0527 0.0000 26.3210 0.0000 0.0000
# 5 0.0000 0.0000 0.0000 0.0000 26.3210 4.0527
# 6 0.0000 0.0000 0.0000 0.0000 4.0527 21.1595
#
#
#
# Elastic Compliance Matrix: (Units=1/GPa)
#
#
# Indices 1 2 3 4 5 6 
#
# 1 0.017858 -0.006490 -0.006483 -0.003749 0.000000 0.000000
# 2 -0.006490 0.017858 -0.006483 0.003749 0.000000 0.000000
# 3 -0.006483 -0.006483 0.016654 0.000000 0.000000 0.000000
# 4 -0.003749 0.003749 0.000000 0.039147 0.000000 0.000000
# 5 0.000000 0.000000 0.000000 0.000000 0.039147 -0.007498
# 6 0.000000 0.000000 0.000000 0.000000 -0.007498 0.048696
#
#
# Mechanical properties :
#
#
# Convention : Reuss Voigt Hill
#
# Bulk Modulus (GPa) = 74.30385 74.52844 74.41615
# Shear Modulus (GPa) = 22.44581 23.25382 22.84981
#
# Velocity S-wave (km/s) = 3.62327 3.68791 3.65573
# Velocity P-wave (km/s) = 7.80788 7.85649 7.83222
#
# Compressibility (1/GPa) = 0.01345825
#
# Stress axis : x y z
#
# Youngs Moduli (GPa) = 55.99725 55.99725 60.04447
#
# Poissons Ratio (x) = 0.36343 0.38927
# Poissons Ratio (y) = 0.36343 0.38927
# Poissons Ratio (z) = 0.36303 0.36303
#
# Static dielectric constant tensor:
#      x y z
#    x 3.164320 0.000000 0.000000 
#    y 0.000000 3.164320 0.000000 
#    z 0.000000 0.000000 3.410280 
# 
# 
# High freq. dielectric constant tensor:
#      x y z
#    x 1.661150 0.000000 0.000000 
#    y 0.000000 1.661150 0.000000 
#    z 0.000000 0.000000 1.675700 
# 
# From -- ./inp_files/5560.got.cif
#   From: 2010.03.12/outbox.cif.g09.slc.cpg/sg164_3_cif.got.tgz:5560.got - 2010.04.02 06:32:59.
