data_PCOD8323794
_publ_section_title
;
Structure prediction by ZEFSAII (Michael W. Deem and Ramdas Pophale) SiO2 
 PCOD8323794
Probable space group: P -3 M 1
;
_chemical_formula_sum "Si O2"
_cell_formula_units_Z 84
_cell_length_a 17.838103
_cell_length_b 17.838103
_cell_length_c 15.173518
_cell_angle_alpha 90.000000
_cell_angle_beta 90.000000
_cell_angle_gamma 120.000000
_cell_volume 4181.328133
_symmetry_space_group_name_H-M "P -3 M 1"
_symmetry_group_IT_number 164
_symmetry_cell_setting 'hexagonal'
loop_
_space_group_symop_operation_xyz
x,y,z
-y,x-y,z
-x+y,-x,z
x-y,-y,-z
-x,-x+y,-z
y,x,-z
-x,-y,-z
y,-x+y,-z
x-y,x,-z
-x+y,y,z
x,x-y,z
-y,-x,z
loop_
_atom_site_type_symbol
_atom_site_label
_atom_site_fract_x
_atom_site_fract_y
_atom_site_fract_z
Si Si1 0.333645 0.492120 0.002999
Si Si2 0.095909 0.361358 0.337713
Si Si3 0.838882 0.331808 0.511613
Si Si4 0.666912 0.160863 0.197582
Si Si5 0.832295 0.999572 0.895572
Si Si6 0.364890 0.268039 0.350850
Si Si7 0.090865 0.736615 0.139332
O O1 0.253451 0.506902 0.021682
O O2 0.419080 0.580921 0.024893
O O3 0.332189 0.419472 0.068059
O O4 0.333527 0.463354 0.902248
O O5 0.163662 0.327323 0.355371
O O6 0.119253 0.444316 0.397173
O O7 0.102057 0.393038 0.237085
O O8 0.999707 0.282719 0.359517
O O9 0.854355 0.427178 0.502465
O O10 0.736742 0.263259 0.509658
O O11 0.886366 0.314927 0.431593
O O12 0.575552 0.151104 0.223721
O O13 0.738806 0.261194 0.210134
O O14 0.686375 0.100883 0.260731
O O15 0.818574 0.909287 0.857199
O O16 0.749216 0.007070 0.865112
O O17 0.922066 0.077935 0.857071
O O18 0.836891 0.000000 0.000000
O O19 0.331192 0.165596 0.351017
O O20 0.170880 0.829121 0.111392
#
# Coordination Sequence:
#
# PCOD8323794 Si02
#       7
#    12  12  12  12  12  12  12
#     4   9  17  31  51  75 105 143 185 224 262 310
#     4  10  22  39  56  76 107 146 185 226 269 314
#     4  10  21  38  61  88 116 145 177 216 264 318
#     4   9  17  30  51  80 112 143 175 215 266 325
#     4   9  17  30  51  78 105 135 174 223 279 336
#     4  10  21  36  57  85 112 140 175 218 274 334
#     4   9  19  34  50  72 104 142 183 224 266 311
#
# _framework density 20.089310999999999
#
# number of rings (size 3 to 8) (size 9 to 14) (size 15 to 20)
#    0.000    2.571    0.000    1.429    0.000    5.714 
#    0.000    4.286    0.000    4.143    0.000    0.000 
#    0.000    3.429    0.000    0.429    0.000    0.000 
#
# Total GULP energy -1041578.730305 kJ/mol
# GULP energy per Si atom -12399.746789 kJ/mol
# Density = 2.004359 g / cm^3
# Si number density = 20.089311 Si / 1000 Ang^3
#
#
#
# Elastic Constant Matrix: (Units=GPa)
#
#
# Indices 1 2 3 4 5 6 
#
# 1 104.2240 54.0735 45.7973 -0.7729 0.0000 0.0000
# 2 54.0735 104.2240 45.7973 0.7729 0.0000 0.0000
# 3 45.7973 45.7973 102.6718 0.0000 0.0000 0.0000
# 4 -0.7729 0.7729 0.0000 15.9370 0.0000 0.0000
# 5 0.0000 0.0000 0.0000 0.0000 15.9370 -0.7729
# 6 0.0000 0.0000 0.0000 0.0000 -0.7729 25.0752
#
#
#
# Elastic Compliance Matrix: (Units=1/GPa)
#
#
# Indices 1 2 3 4 5 6 
#
# 1 0.014242 -0.005727 -0.003798 0.000968 0.000000 0.000000
# 2 -0.005727 0.014242 -0.003798 -0.000968 0.000000 0.000000
# 3 -0.003798 -0.003798 0.013128 0.000000 0.000000 0.000000
# 4 0.000968 -0.000968 0.000000 0.062841 0.000000 0.000000
# 5 0.000000 0.000000 0.000000 0.000000 0.062841 0.001937
# 6 0.000000 0.000000 0.000000 0.000000 0.001937 0.039940
#
#
# Mechanical properties :
#
#
# Convention : Reuss Voigt Hill
#
# Bulk Modulus (GPa) = 66.82062 66.93957 66.88010
# Shear Modulus (GPa) = 20.93186 22.41996 21.67591
#
# Velocity S-wave (km/s) = 3.23141 3.34430 3.28834
# Velocity P-wave (km/s) = 6.87435 6.95024 6.91240
#
# Compressibility (1/GPa) = 0.01496544
#
# Stress axis : x y z
#
# Youngs Moduli (GPa) = 70.21304 70.21304 76.17238
#
# Poissons Ratio (x) = 0.40214 0.28931
# Poissons Ratio (y) = 0.40214 0.28931
# Poissons Ratio (z) = 0.26668 0.26668
#
# Static dielectric constant tensor:
#      x y z
#    x 3.621970 0.000000 0.000000 
#    y 0.000000 3.621970 0.000000 
#    z 0.000000 0.000000 3.757530 
# 
# 
# High freq. dielectric constant tensor:
#      x y z
#    x 1.775040 0.000000 0.000000 
#    y 0.000000 1.775040 0.000000 
#    z 0.000000 0.000000 1.783880 
# 
# From -- ./inp_files/3570.got.cif
#   From: 2010.03.12/outbox.cif.g09.slc.cpg/sg164_2_cif.got.tgz:3570.got - 2010.04.02 06:32:59.
