data_PCOD8323683
_publ_section_title
;
Structure prediction by ZEFSAII (Michael W. Deem and Ramdas Pophale) SiO2 
 PCOD8323683
Probable space group: P -3 M 1
;
_chemical_formula_sum "Si O2"
_cell_formula_units_Z 60
_cell_length_a 12.905687
_cell_length_b 12.905687
_cell_length_c 25.558985
_cell_angle_alpha 90.000000
_cell_angle_beta 90.000000
_cell_angle_gamma 120.000000
_cell_volume 3686.688895
_symmetry_space_group_name_H-M "P -3 M 1"
_symmetry_group_IT_number 164
_symmetry_cell_setting 'hexagonal'
loop_
_space_group_symop_operation_xyz
x,y,z
-y,x-y,z
-x+y,-x,z
x-y,-y,-z
-x,-x+y,-z
y,x,-z
-x,-y,-z
y,-x+y,-z
x-y,x,-z
-x+y,y,z
x,x-y,z
-y,-x,z
loop_
_atom_site_type_symbol
_atom_site_label
_atom_site_fract_x
_atom_site_fract_y
_atom_site_fract_z
Si Si1 0.239896 0.239896 0.500000
Si Si2 0.756708 0.999696 0.612677
Si Si3 0.572303 0.667082 0.698696
Si Si4 0.908339 0.575412 0.905980
Si Si5 0.095339 0.667114 0.817296
Si Si6 0.000000 0.757559 0.000000
O O1 0.110301 0.220602 0.492464
O O2 0.297293 0.306757 0.555380
O O3 0.878202 0.121799 0.619868
O O4 0.784598 0.892299 0.618389
O O5 0.671352 0.996220 0.658733
O O6 0.540790 0.770395 0.687892
O O7 0.456376 0.543625 0.686788
O O8 0.617931 0.674863 0.758077
O O9 0.773400 0.546800 0.897896
O O10 0.905929 0.452965 0.920548
O O11 0.980860 0.633042 0.852917
O O12 0.975007 0.671108 0.951238
O O13 0.136149 0.568075 0.821559
O O14 0.207022 0.792979 0.835596
O O15 0.886736 0.773471 0.012721
#
# Coordination Sequence:
#
# PCOD8323683 Si02
#       6
#     6  12  12  12  12   6
#     4   8  13  22  37  58  82 108 138 172 212 256
#     4   9  16  26  42  63  86 110 138 175 218 262
#     4   9  17  29  45  64  86 113 145 180 216 255
#     4  10  20  33  49  69  94 122 150 180 215 257
#     4   9  17  30  48  68  88 112 145 184 222 257
#     4  10  20  34  52  72  94 120 150 184 220 258
#
# _framework density 16.274767000000001
#
# number of rings (size 3 to 8) (size 9 to 14) (size 15 to 20)
#    0.000    2.800    0.000    1.900    0.000    4.000 
#    0.000    0.500    0.000    7.200    0.000    0.000 
#    0.000    0.000    0.000    0.000    0.000    0.000 
#
# Total GULP energy -743599.056808 kJ/mol
# GULP energy per Si atom -12393.317613 kJ/mol
# Density = 1.623773 g / cm^3
# Si number density = 16.274767 Si / 1000 Ang^3
#
#
#
# Elastic Constant Matrix: (Units=GPa)
#
#
# Indices 1 2 3 4 5 6 
#
# 1 90.0834 47.8644 61.0068 -1.8554 0.0000 0.0000
# 2 47.8644 90.0834 61.0068 1.8554 0.0000 0.0000
# 3 61.0068 61.0068 119.5250 0.0000 0.0000 0.0000
# 4 -1.8554 1.8554 0.0000 26.0941 0.0000 0.0000
# 5 0.0000 0.0000 0.0000 0.0000 26.0941 -1.8554
# 6 0.0000 0.0000 0.0000 0.0000 -1.8554 21.1095
#
#
#
# Elastic Compliance Matrix: (Units=1/GPa)
#
#
# Indices 1 2 3 4 5 6 
#
# 1 0.018525 -0.005310 -0.006745 0.001695 0.000000 0.000000
# 2 -0.005310 0.018525 -0.006745 -0.001695 0.000000 0.000000
# 3 -0.006745 -0.006745 0.015252 0.000000 0.000000 0.000000
# 4 0.001695 -0.001695 0.000000 0.038564 0.000000 0.000000
# 5 0.000000 0.000000 0.000000 0.000000 0.038564 0.003390
# 6 0.000000 0.000000 0.000000 0.000000 0.003390 0.047670
#
#
# Mechanical properties :
#
#
# Convention : Reuss Voigt Hill
#
# Bulk Modulus (GPa) = 68.01917 71.04974 69.53445
# Shear Modulus (GPa) = 22.76860 23.31381 23.04120
#
# Velocity S-wave (km/s) = 3.74439 3.78896 3.76674
# Velocity P-wave (km/s) = 7.78325 7.93050 7.85722
#
# Compressibility (1/GPa) = 0.01470174
#
# Stress axis : x y z
#
# Youngs Moduli (GPa) = 53.98092 53.98092 65.56505
#
# Poissons Ratio (x) = 0.28663 0.44225
# Poissons Ratio (y) = 0.28663 0.44225
# Poissons Ratio (z) = 0.36411 0.36411
#
# Static dielectric constant tensor:
#      x y z
#    x 2.942470 0.000000 0.000000 
#    y 0.000000 2.942470 0.000000 
#    z 0.000000 0.000000 3.421190 
# 
# 
# High freq. dielectric constant tensor:
#      x y z
#    x 1.612710 0.000000 0.000000 
#    y 0.000000 1.612710 0.000000 
#    z 0.000000 0.000000 1.643490 
# 
# From -- ./inp_files/5214.got.cif
#   From: 2010.03.12/outbox.cif.g09.slc.cpg/sg164_3_cif.got.tgz:5214.got - 2010.04.02 06:32:59.
