data_PCOD8323180
_publ_section_title
;
Structure prediction by ZEFSAII (Michael W. Deem and Ramdas Pophale) SiO2 
 PCOD8323180
Probable space group: P -3 1 C
;
_chemical_formula_sum "Si O2"
_cell_formula_units_Z 56
_cell_length_a 14.481757
_cell_length_b 14.481757
_cell_length_c 17.273006
_cell_angle_alpha 90.000000
_cell_angle_beta 90.000000
_cell_angle_gamma 120.000000
_cell_volume 3137.191772
_symmetry_space_group_name_H-M "P -3 1 C"
_symmetry_group_IT_number 163
_symmetry_cell_setting 'hexagonal'
loop_
_space_group_symop_operation_xyz
x,y,z
-y,x-y,z
-x+y,-x,z
-y,-x,1/2-z
-x+y,y,1/2-z
x,x-y,1/2-z
-x,-y,-z
y,-x+y,-z
x-y,x,-z
y,x,1/2+z
x-y,-y,1/2+z
-x,-x+y,1/2+z
loop_
_atom_site_type_symbol
_atom_site_label
_atom_site_fract_x
_atom_site_fract_y
_atom_site_fract_z
Si Si1 0.000000 0.000000 0.657679
Si Si2 0.136491 0.193807 0.947131
Si Si3 0.333334 0.666668 0.159753
Si Si4 0.406016 0.899419 0.915344
Si Si5 0.737283 0.171357 0.423141
Si Si6 0.869041 0.387337 0.932486
O O1 0.086366 0.970676 0.625798
O O2 0.000000 0.000000 0.750000
O O3 0.198991 0.154078 0.002865
O O4 0.217506 0.308781 0.910886
O O5 0.333334 0.666667 0.250000
O O6 0.214034 0.626238 0.132390
O O7 0.286978 0.817496 0.886909
O O8 0.493297 0.870505 0.880352
O O9 0.436092 0.019063 0.890876
O O10 0.406893 0.892057 0.009539
O O11 0.720469 0.177326 0.515933
#
# Coordination Sequence:
#
# PCOD8323180 Si02
#       6
#     4  12   4  12  12  12
#     4   9  19  38  52  72 109 131 160 213 280 353
#     4   9  18  29  49  78  98 129 175 216 256 304
#     4  12  21  33  51  72 123 153 160 197 259 348
#     4   9  17  26  50  73 104 127 162 241 246 301
#     4  10  15  28  49  76  98 130 162 235 257 290
#     4   9  17  30  44  76 101 137 180 197 267 294
#
# _framework density 17.850359999999998
#
# number of rings (size 3 to 8) (size 9 to 14) (size 15 to 20)
#    1.286    1.286    2.143    2.571    0.000    0.000 
#    0.000    0.000    0.000   20.571    0.000    0.000 
#    0.000    3.429    0.000    0.000    0.000    0.000 
#
# Total GULP energy -693815.520655 kJ/mol
# GULP energy per Si atom -12389.562869 kJ/mol
# Density = 1.780973 g / cm^3
# Si number density = 17.850360 Si / 1000 Ang^3
#
#
#
# Elastic Constant Matrix: (Units=GPa)
#
#
# Indices 1 2 3 4 5 6 
#
# 1 108.4118 42.1657 16.7730 -0.0001 -0.1568 0.0001
# 2 42.1657 108.4119 16.7731 -0.0001 0.1566 0.0000
# 3 16.7730 16.7731 61.4327 -0.0001 -0.0001 0.0001
# 4 -0.0001 -0.0001 -0.0001 8.5547 0.0000 0.1567
# 5 -0.1568 0.1566 -0.0001 0.0000 8.5545 0.0000
# 6 0.0001 0.0000 0.0001 0.1567 0.0000 33.1231
#
#
#
# Elastic Compliance Matrix: (Units=1/GPa)
#
#
# Indices 1 2 3 4 5 6 
#
# 1 0.011084 -0.004013 -0.001931 0.000000 0.000277 0.000000
# 2 -0.004013 0.011084 -0.001931 0.000000 -0.000277 0.000000
# 3 -0.001931 -0.001931 0.017332 0.000000 0.000000 0.000000
# 4 0.000000 0.000000 0.000000 0.116905 -0.000001 -0.000553
# 5 0.000277 -0.000277 0.000000 -0.000001 0.116907 0.000000
# 6 0.000000 0.000000 0.000000 -0.000553 0.000000 0.030193
#
#
# Mechanical properties :
#
#
# Convention : Reuss Voigt Hill
#
# Bulk Modulus (GPa) = 42.10171 47.74224 44.92197
# Shear Modulus (GPa) = 15.28254 23.54944 19.41599
#
# Velocity S-wave (km/s) = 2.92917 3.63612 3.30162
# Velocity P-wave (km/s) = 5.92260 6.66576 6.30514
#
# Compressibility (1/GPa) = 0.02375201
#
# Stress axis : x y z
#
# Youngs Moduli (GPa) = 90.22121 90.22126 57.69600
#
# Poissons Ratio (x) = 0.36203 0.11139
# Poissons Ratio (y) = 0.36203 0.11139
# Poissons Ratio (z) = 0.17419 0.17419
#
# Static dielectric constant tensor:
#      x y z
#    x 3.264390 0.000000 0.000000 
#    y 0.000000 3.264390 0.000000 
#    z 0.000000 0.000000 2.577190 
# 
# 
# High freq. dielectric constant tensor:
#      x y z
#    x 1.697600 0.000000 0.000000 
#    y 0.000000 1.697600 0.000000 
#    z 0.000000 0.000000 1.611010 
# 
# From -- ./inp_files/3046.got.cif
#   From: 2010.03.12/outbox.cif.g09.slc.cpg/sg163_2_cif.got.tgz:3046.got - 2010.04.02 06:30:25.
