data_PCOD8323555
_publ_section_title
;
Structure prediction by ZEFSAII (Michael W. Deem and Ramdas Pophale) SiO2 
 PCOD8323555
Probable space group: P -3 M 1
;
_chemical_formula_sum "Si O2"
_cell_formula_units_Z 96
_cell_length_a 17.385186
_cell_length_b 17.385186
_cell_length_c 20.685043
_cell_angle_alpha 90.000000
_cell_angle_beta 90.000000
_cell_angle_gamma 120.000000
_cell_volume 5414.342722
_symmetry_space_group_name_H-M "P -3 M 1"
_symmetry_group_IT_number 164
_symmetry_cell_setting 'hexagonal'
loop_
_space_group_symop_operation_xyz
x,y,z
-y,x-y,z
-x+y,-x,z
x-y,-y,-z
-x,-x+y,-z
y,x,-z
-x,-y,-z
y,-x+y,-z
x-y,x,-z
-x+y,y,z
x,x-y,z
-y,-x,z
loop_
_atom_site_type_symbol
_atom_site_label
_atom_site_fract_x
_atom_site_fract_y
_atom_site_fract_z
Si Si1 0.509039 0.842988 0.226399
Si Si2 0.395059 0.966550 0.349808
Si Si3 0.001417 0.176067 0.324773
Si Si4 0.757940 0.692404 0.559659
Si Si5 0.634893 0.730983 0.722225
Si Si6 0.096254 0.365872 0.867956
Si Si7 0.097279 0.728036 0.104820
Si Si8 0.157596 0.667692 0.984126
O O1 0.407876 0.815752 0.214394
O O2 0.513021 0.756511 0.245082
O O3 0.551466 0.908962 0.285672
O O4 0.561449 0.887698 0.161185
O O5 0.485687 0.971374 0.374164
O O6 0.321068 0.925633 0.405831
O O7 0.413934 0.064465 0.328822
O O8 0.926079 0.073922 0.332926
O O9 0.970914 0.229033 0.276955
O O10 0.090521 0.181042 0.296398
O O11 0.020848 0.222037 0.394533
O O12 0.714711 0.714711 0.500000
O O13 0.835752 0.671503 0.538776
O O14 0.613085 0.806543 0.699036
O O15 0.600919 0.699293 0.794817
O O16 0.164844 0.329687 0.876549
O O17 0.123484 0.450931 0.912912
O O18 0.000307 0.284827 0.887639
O O19 0.167545 0.832456 0.108895
O O20 0.102243 0.687732 0.036481
O O21 0.140680 0.570340 0.996353
O O22 0.261959 0.738042 0.991538
#
# Coordination Sequence:
#
# PCOD8323555 Si02
#       8
#    12  12  12  12  12  12  12  12
#     4  10  19  31  49  75 107 138 168 204 252 310
#     4  10  20  34  54  78 103 133 173 216 257 306
#     4   9  17  29  49  77 108 139 169 201 244 296
#     4  10  20  34  53  77 107 141 173 206 246 296
#     4   9  18  33  50  71  99 133 171 215 262 302
#     4  10  20  34  50  71 100 135 174 217 261 302
#     4  10  20  33  51  75 102 135 172 211 259 313
#     4  10  21  35  52  74 102 135 170 212 264 320
#
# _framework density 17.730684
#
# number of rings (size 3 to 8) (size 9 to 14) (size 15 to 20)
#    0.000    2.250    1.250    1.875    0.000    3.750 
#    0.000    1.250    0.000    2.750    0.000    0.875 
#    0.000    3.000    0.000    0.000    0.000    0.000 
#
# Total GULP energy -1190373.550938 kJ/mol
# GULP energy per Si atom -12399.724489 kJ/mol
# Density = 1.769033 g / cm^3
# Si number density = 17.730684 Si / 1000 Ang^3
#
#
#
# Elastic Constant Matrix: (Units=GPa)
#
#
# Indices 1 2 3 4 5 6 
#
# 1 81.1299 37.0560 22.1318 1.2666 0.0000 0.0000
# 2 37.0560 81.1299 22.1318 -1.2666 0.0000 0.0000
# 3 22.1318 22.1318 72.7137 0.0000 0.0000 0.0000
# 4 1.2666 -1.2666 0.0000 23.1139 0.0000 0.0000
# 5 0.0000 0.0000 0.0000 0.0000 23.1139 1.2666
# 6 0.0000 0.0000 0.0000 0.0000 1.2666 22.0369
#
#
#
# Elastic Compliance Matrix: (Units=1/GPa)
#
#
# Indices 1 2 3 4 5 6 
#
# 1 0.016155 -0.006606 -0.002907 -0.001247 0.000000 0.000000
# 2 -0.006606 0.016155 -0.002907 0.001247 0.000000 0.000000
# 3 -0.002907 -0.002907 0.015522 0.000000 0.000000 0.000000
# 4 -0.001247 0.001247 0.000000 0.043401 0.000000 0.000000
# 5 0.000000 0.000000 0.000000 0.000000 0.043401 -0.002495
# 6 0.000000 0.000000 0.000000 0.000000 -0.002495 0.045522
#
#
# Mechanical properties :
#
#
# Convention : Reuss Voigt Hill
#
# Bulk Modulus (GPa) = 43.48778 44.17922 43.83350
# Shear Modulus (GPa) = 23.51186 23.89654 23.70420
#
# Velocity S-wave (km/s) = 3.64545 3.67515 3.66033
# Velocity P-wave (km/s) = 6.50378 6.55591 6.52990
#
# Compressibility (1/GPa) = 0.02299496
#
# Stress axis : x y z
#
# Youngs Moduli (GPa) = 61.89887 61.89887 64.42480
#
# Poissons Ratio (x) = 0.40887 0.18726
# Poissons Ratio (y) = 0.40887 0.18726
# Poissons Ratio (z) = 0.17992 0.17992
#
# Static dielectric constant tensor:
#      x y z
#    x 3.336610 0.000000 0.000000 
#    y 0.000000 3.336610 0.000000 
#    z 0.000000 0.000000 3.251030 
# 
# 
# High freq. dielectric constant tensor:
#      x y z
#    x 1.680720 0.000000 0.000000 
#    y 0.000000 1.680720 0.000000 
#    z 0.000000 0.000000 1.681530 
# 
# From -- ./inp_files/4723.got.cif
#   From: 2010.03.12/outbox.cif.g09.slc.cpg/sg164_3_cif.got.tgz:4723.got - 2010.04.02 06:32:59.
