data_PCOD8323346
_publ_section_title
;
Structure prediction by ZEFSAII (Michael W. Deem and Ramdas Pophale) SiO2 
 PCOD8323346
Probable space group: P -3 1 C
;
_chemical_formula_sum "Si O2"
_cell_formula_units_Z 72
_cell_length_a 18.234692
_cell_length_b 18.234692
_cell_length_c 19.756326
_cell_angle_alpha 90.000000
_cell_angle_beta 90.000000
_cell_angle_gamma 120.000000
_cell_volume 5688.970474
_symmetry_space_group_name_H-M "P -3 1 C"
_symmetry_group_IT_number 163
_symmetry_cell_setting 'hexagonal'
loop_
_space_group_symop_operation_xyz
x,y,z
-y,x-y,z
-x+y,-x,z
-y,-x,1/2-z
-x+y,y,1/2-z
x,x-y,1/2-z
-x,-y,-z
y,-x+y,-z
x-y,x,-z
y,x,1/2+z
x-y,-y,1/2+z
-x,-x+y,1/2+z
loop_
_atom_site_type_symbol
_atom_site_label
_atom_site_fract_x
_atom_site_fract_y
_atom_site_fract_z
Si Si1 0.169752 0.666332 0.669479
Si Si2 0.246053 0.317479 0.825543
Si Si3 0.170048 0.000345 0.577959
Si Si4 0.503420 0.333668 0.330521
Si Si5 0.246053 0.317479 0.674457
Si Si6 0.999655 0.169704 0.922041
O O1 0.258990 0.741010 0.640141
O O2 0.152500 0.576250 0.640226
O O3 0.175831 0.667749 0.750000
O O4 0.092295 0.681677 0.648843
O O5 0.239956 0.246439 0.876938
O O6 0.318323 0.410618 0.851157
O O7 0.266729 0.298212 0.750000
O O8 0.158888 0.317776 0.823900
O O9 0.172356 0.086178 0.598398
O O10 0.194335 1.000000 0.500000
O O11 0.075952 0.924048 0.592926
O O12 0.239956 0.246439 0.623062
#
# Coordination Sequence:
#
# PCOD8323346 Si02
#       6
#    12  12  12  12  12  12
#     4   8  12  18  30  48  68  88 108 128 150 181
#     4   8  14  23  33  47  67  87 106 130 161 193
#     4   9  16  25  36  48  62  83 112 142 168 195
#     4   8  12  18  30  48  68  88 108 128 150 181
#     4   8  14  23  33  47  67  87 106 130 161 193
#     4   9  16  25  36  48  62  83 112 142 168 195
#
# _framework density 12.656069
#
# number of rings (size 3 to 8) (size 9 to 14) (size 15 to 20)
#    0.000    3.667    0.000    2.667    0.000    3.333 
#    0.000    0.000    0.000    3.000    0.000    0.000 
#    0.000    0.000    0.000    1.000    0.000   13.000 
#
# Total GULP energy -892176.862332 kJ/mol
# GULP energy per Si atom -12391.345310 kJ/mol
# Density = 1.262726 g / cm^3
# Si number density = 12.656069 Si / 1000 Ang^3
#
#
#
# Elastic Constant Matrix: (Units=GPa)
#
#
# Indices 1 2 3 4 5 6 
#
# 1 80.4977 48.6865 37.9065 0.0000 0.0000 0.0000
# 2 48.6865 80.4977 37.9065 0.0000 0.0000 0.0000
# 3 37.9065 37.9065 43.7075 0.0000 0.0000 0.0000
# 4 0.0000 0.0000 0.0000 12.0253 0.0000 0.0000
# 5 0.0000 0.0000 0.0000 0.0000 12.0253 0.0000
# 6 0.0000 0.0000 0.0000 0.0000 0.0000 15.9056
#
#
#
# Elastic Compliance Matrix: (Units=1/GPa)
#
#
# Indices 1 2 3 4 5 6 
#
# 1 0.023600 -0.007835 -0.013672 0.000000 0.000000 0.000000
# 2 -0.007835 0.023600 -0.013672 0.000000 0.000000 0.000000
# 3 -0.013672 -0.013672 0.046595 0.000000 0.000000 0.000000
# 4 0.000000 0.000000 0.000000 0.083158 0.000000 0.000000
# 5 0.000000 0.000000 0.000000 0.000000 0.083158 0.000000
# 6 0.000000 0.000000 0.000000 0.000000 0.000000 0.062871
#
#
# Mechanical properties :
#
#
# Convention : Reuss Voigt Hill
#
# Bulk Modulus (GPa) = 42.67162 50.41131 46.54146
# Shear Modulus (GPa) = 12.46405 13.33812 12.90109
#
# Velocity S-wave (km/s) = 3.14160 3.24989 3.19621
# Velocity P-wave (km/s) = 6.85194 7.34851 7.10456
#
# Compressibility (1/GPa) = 0.02343478
#
# Stress axis : x y z
#
# Youngs Moduli (GPa) = 42.37285 42.37285 21.46169
#
# Poissons Ratio (x) = 0.33201 0.29343
# Poissons Ratio (y) = 0.33201 0.29343
# Poissons Ratio (z) = 0.57933 0.57933
#
# Static dielectric constant tensor:
#      x y z
#    x 2.660120 0.000000 0.000000 
#    y 0.000000 2.660120 0.000000 
#    z 0.000000 0.000000 2.428720 
# 
# 
# High freq. dielectric constant tensor:
#      x y z
#    x 1.464140 0.000000 0.000000 
#    y 0.000000 1.464140 0.000000 
#    z 0.000000 0.000000 1.448040 
# 
# From -- ./inp_files/3216.got.cif
#   From: 2010.03.12/outbox.cif.g09.slc.cpg/sg163_2_cif.got.tgz:3216.got - 2010.04.02 06:30:25.
