data_PCOD8323562
_publ_section_title
;
Structure prediction by ZEFSAII (Michael W. Deem and Ramdas Pophale) SiO2 
 PCOD8323562
Probable space group: P -3 M 1
;
_chemical_formula_sum "Si O2"
_cell_formula_units_Z 84
_cell_length_a 21.788779
_cell_length_b 21.788779
_cell_length_c 12.284282
_cell_angle_alpha 90.000000
_cell_angle_beta 90.000000
_cell_angle_gamma 120.000000
_cell_volume 5050.637479
_symmetry_space_group_name_H-M "P -3 M 1"
_symmetry_group_IT_number 164
_symmetry_cell_setting 'hexagonal'
loop_
_space_group_symop_operation_xyz
x,y,z
-y,x-y,z
-x+y,-x,z
x-y,-y,-z
-x,-x+y,-z
y,x,-z
-x,-y,-z
y,-x+y,-z
x-y,x,-z
-x+y,y,z
x,x-y,z
-y,-x,z
loop_
_atom_site_type_symbol
_atom_site_label
_atom_site_fract_x
_atom_site_fract_y
_atom_site_fract_z
Si Si1 0.376301 0.487165 0.460825
Si Si2 0.294843 0.077843 0.019325
Si Si3 0.667042 0.192352 0.318503
Si Si4 0.329273 0.011542 0.614165
Si Si5 0.743144 0.625508 0.797101
Si Si6 0.334621 0.807182 0.250857
Si Si7 0.879726 0.259985 0.234566
O O1 0.460849 0.539152 0.460580
O O2 0.343027 0.487173 0.576701
O O3 0.364686 0.411079 0.424737
O O4 0.339298 0.517038 0.379404
O O5 0.266566 0.133283 0.030545
O O6 0.341643 0.081259 0.123042
O O7 0.344220 0.094035 0.915995
O O8 0.227230 0.000000 0.000000
O O9 0.594660 0.189320 0.282510
O O10 0.726371 0.273630 0.341694
O O11 0.693631 0.159630 0.222306
O O12 0.324684 0.062273 0.704700
O O13 0.285490 0.000000 0.500000
O O14 0.296057 0.935146 0.668495
O O15 0.810858 0.621715 0.758694
O O16 0.677304 0.545278 0.804699
O O17 0.407291 0.814581 0.204414
O O18 0.271663 0.728338 0.225734
O O19 0.820970 0.179031 0.265616
#
# Coordination Sequence:
#
# PCOD8323562 Si02
#       7
#    12  12  12  12  12  12  12
#     4   9  18  28  42  65  94 127 166 210 257 310
#     4  10  19  36  60  80 102 132 170 209 248 301
#     4  10  19  32  48  69  98 136 180 224 269 312
#     4  11  19  30  48  72 101 133 159 199 253 308
#     4   9  19  33  51  73  99 131 165 205 250 300
#     4   9  16  27  43  65  92 125 165 209 257 303
#     4  10  21  34  50  73 101 133 170 214 255 303
#
# _framework density 16.631564000000001
#
# number of rings (size 3 to 8) (size 9 to 14) (size 15 to 20)
#    0.000    2.286    2.857    0.714    0.000    2.000 
#    0.000    2.143    0.000    1.000    0.000    2.000 
#    0.000    0.000    0.000    0.000    0.000   13.000 
#
# Total GULP energy -1040645.585131 kJ/mol
# GULP energy per Si atom -12388.637918 kJ/mol
# Density = 1.659371 g / cm^3
# Si number density = 16.631564 Si / 1000 Ang^3
#
#
#
# Elastic Constant Matrix: (Units=GPa)
#
#
# Indices 1 2 3 4 5 6 
#
# 1 81.3665 44.4353 32.9572 -0.5023 0.0000 0.0000
# 2 44.4353 81.3665 32.9572 0.5023 0.0000 0.0000
# 3 32.9572 32.9572 74.7218 0.0000 0.0000 0.0000
# 4 -0.5023 0.5023 0.0000 21.4863 0.0000 0.0000
# 5 0.0000 0.0000 0.0000 0.0000 21.4863 -0.5023
# 6 0.0000 0.0000 0.0000 0.0000 -0.5023 18.4656
#
#
#
# Elastic Compliance Matrix: (Units=1/GPa)
#
#
# Indices 1 2 3 4 5 6 
#
# 1 0.018716 -0.008378 -0.004560 0.000633 0.000000 0.000000
# 2 -0.008378 0.018716 -0.004560 -0.000633 0.000000 0.000000
# 3 -0.004560 -0.004560 0.017405 0.000000 0.000000 0.000000
# 4 0.000633 -0.000633 0.000000 0.046571 0.000000 0.000000
# 5 0.000000 0.000000 0.000000 0.000000 0.046571 0.001267
# 6 0.000000 0.000000 0.000000 0.000000 0.001267 0.054189
#
#
# Mechanical properties :
#
#
# Convention : Reuss Voigt Hill
#
# Bulk Modulus (GPa) = 50.39710 50.90601 50.65156
# Shear Modulus (GPa) = 20.51039 20.76131 20.63585
#
# Velocity S-wave (km/s) = 3.51553 3.53697 3.52627
# Velocity P-wave (km/s) = 6.84445 6.88148 6.86299
#
# Compressibility (1/GPa) = 0.01984241
#
# Stress axis : x y z
#
# Youngs Moduli (GPa) = 53.42916 53.42916 57.45373
#
# Poissons Ratio (x) = 0.44764 0.26198
# Poissons Ratio (y) = 0.44764 0.26198
# Poissons Ratio (z) = 0.24363 0.24363
#
# Static dielectric constant tensor:
#      x y z
#    x 3.161240 0.000000 0.000000 
#    y 0.000000 3.161240 0.000000 
#    z 0.000000 0.000000 3.162310 
# 
# 
# High freq. dielectric constant tensor:
#      x y z
#    x 1.632340 0.000000 0.000000 
#    y 0.000000 1.632340 0.000000 
#    z 0.000000 0.000000 1.632930 
# 
# From -- ./inp_files/2941.got.cif
#   From: 2010.03.12/outbox.cif.g09.slc.cpg/sg164_2_cif.got.tgz:2941.got - 2010.04.02 06:32:59.
