data_PCOD8323569
_publ_section_title
;
Structure prediction by ZEFSAII (Michael W. Deem and Ramdas Pophale) SiO2 
 PCOD8323569
Probable space group: P -3 M 1
;
_chemical_formula_sum "Si O2"
_cell_formula_units_Z 84
_cell_length_a 19.421986
_cell_length_b 19.421986
_cell_length_c 13.224253
_cell_angle_alpha 90.000000
_cell_angle_beta 90.000000
_cell_angle_gamma 120.000000
_cell_volume 4320.052797
_symmetry_space_group_name_H-M "P -3 M 1"
_symmetry_group_IT_number 164
_symmetry_cell_setting 'hexagonal'
loop_
_space_group_symop_operation_xyz
x,y,z
-y,x-y,z
-x+y,-x,z
x-y,-y,-z
-x,-x+y,-z
y,x,-z
-x,-y,-z
y,-x+y,-z
x-y,x,-z
-x+y,y,z
x,x-y,z
-y,-x,z
loop_
_atom_site_type_symbol
_atom_site_label
_atom_site_fract_x
_atom_site_fract_y
_atom_site_fract_z
Si Si1 0.083857 0.325064 0.198663
Si Si2 0.155789 0.000060 0.880267
Si Si3 0.692866 0.046301 0.595918
Si Si4 0.619074 0.535617 0.301778
Si Si5 0.333796 0.509974 0.890484
Si Si6 0.510981 0.177395 0.493991
Si Si7 0.542521 0.927966 0.075559
O O1 0.169382 0.338764 0.162793
O O2 0.013772 0.241427 0.154940
O O3 0.078801 0.316008 0.321228
O O4 0.074281 0.399783 0.161833
O O5 0.142669 0.071335 0.839119
O O6 0.084524 0.915477 0.838930
O O7 0.154667 0.000000 0.000000
O O8 0.684491 0.119070 0.557790
O O9 0.704374 0.000000 0.500000
O O10 0.616857 0.986505 0.658858
O O11 0.525457 0.474544 0.303771
O O12 0.651850 0.546162 0.187284
O O13 0.664992 0.505020 0.374575
O O14 0.247809 0.495617 0.868070
O O15 0.398947 0.601054 0.866746
O O16 0.339156 0.489647 0.006762
O O17 0.582735 0.165470 0.531792
O O18 0.534356 0.267178 0.515285
O O19 0.466427 0.932854 0.121646
O O20 0.591482 0.000000 0.000000
#
# Coordination Sequence:
#
# PCOD8323569 Si02
#       7
#    12  12  12  12  12  12  12
#     4  11  22  37  57  82 112 145 186 233 279 327
#     4   9  18  34  58  88 119 147 174 211 269 341
#     4  10  21  37  53  71  98 137 182 225 271 321
#     4   9  18  32  51  73  98 131 170 214 265 323
#     4  10  19  32  51  76 105 135 169 210 260 314
#     4  10  19  32  51  75 101 129 168 221 280 334
#     4  10  21  36  54  77 109 150 190 224 261 313
#
# _framework density 19.444206999999999
#
# number of rings (size 3 to 8) (size 9 to 14) (size 15 to 20)
#    0.000    2.143    0.000    3.429    0.000    4.571 
#    0.000    9.286    0.000    0.286    0.000    0.000 
#    0.000    2.857    0.000    0.429    0.000    0.000 
#
# Total GULP energy -1041157.461517 kJ/mol
# GULP energy per Si atom -12394.731685 kJ/mol
# Density = 1.939995 g / cm^3
# Si number density = 19.444207 Si / 1000 Ang^3
#
#
#
# Elastic Constant Matrix: (Units=GPa)
#
#
# Indices 1 2 3 4 5 6 
#
# 1 -33.7762 133.7761 24.9884 9.2625 0.0000 0.0000
# 2 133.7761 -33.7762 24.9884 -9.2625 0.0000 0.0000
# 3 24.9884 24.9884 82.5300 0.0000 0.0000 0.0000
# 4 9.2625 -9.2625 0.0000 20.8261 0.0000 0.0000
# 5 0.0000 0.0000 0.0000 0.0000 20.8261 9.2625
# 6 0.0000 0.0000 0.0000 0.0000 9.2625 -83.7761
#
#
#
# Elastic Compliance Matrix: (Units=1/GPa)
#
#
# Indices 1 2 3 4 5 6 
#
# 1 0.003047 0.008736 -0.003568 0.002530 0.000000 0.000000
# 2 0.008736 0.003047 -0.003568 -0.002530 0.000000 0.000000
# 3 -0.003568 -0.003568 0.014277 0.000000 0.000000 0.000000
# 4 0.002530 -0.002530 0.000000 0.045766 0.000000 0.000000
# 5 0.000000 0.000000 0.000000 0.000000 0.045766 0.005060
# 6 0.000000 0.000000 0.000000 0.000000 0.005060 -0.011377
#
#
# Mechanical properties :
#
#
# Convention : Reuss Voigt Hill
#
# Bulk Modulus (GPa) = 42.42208 42.49816 42.46012
# Shear Modulus (GPa) = 47.53596 -19.67647 13.92975
#
# Velocity S-wave (km/s) = 4.94979 -3.18456 2.67946
# Velocity P-wave (km/s) = 7.38457 2.89517 5.60865
#
# Compressibility (1/GPa) = 0.02357263
#
# Stress axis : x y z
#
# Youngs Moduli (GPa) = 328.16718 328.16718 70.04157
#
# Poissons Ratio (x) = -2.86680 0.24988
# Poissons Ratio (y) = -2.86680 0.24988
# Poissons Ratio (z) = 1.17079 1.17079
#
# Static dielectric constant tensor:
#      x y z
#    x 3.536370 0.000000 0.000000 
#    y 0.000000 3.536370 0.000000 
#    z 0.000000 0.000000 3.865390 
# 
# 
# High freq. dielectric constant tensor:
#      x y z
#    x 1.751080 0.000000 0.000000 
#    y 0.000000 1.751080 0.000000 
#    z 0.000000 0.000000 1.751580 
# 
# From -- ./inp_files/2900.got.cif
#   From: 2010.03.12/outbox.cif.g09.slc.cpg/sg164_2_cif.got.tgz:2900.got - 2010.04.02 06:32:59.
