data_PCOD8323079
_publ_section_title
;
Structure prediction by ZEFSAII (Michael W. Deem and Ramdas Pophale) SiO2 
 PCOD8323079
Probable space group: P -3 1 M 
;
_chemical_formula_sum "Si O2"
_cell_formula_units_Z 72
_cell_length_a 15.240433
_cell_length_b 15.240433
_cell_length_c 19.312250
_cell_angle_alpha 90.000000
_cell_angle_beta 90.000000
_cell_angle_gamma 120.000000
_cell_volume 3884.705662
_symmetry_space_group_name_H-M "P -3 1 M "
_symmetry_group_IT_number 162
_symmetry_cell_setting 'hexagonal'
loop_
_space_group_symop_operation_xyz
x,y,z
-y,x-y,z
-x+y,-x,z
-y,-x,-z
-x+y,y,-z
x,x-y,-z
-x,-y,-z
y,-x+y,-z
x-y,x,-z
y,x,z
x-y,-y,z
-x,-x+y,z
loop_
_atom_site_type_symbol
_atom_site_label
_atom_site_fract_x
_atom_site_fract_y
_atom_site_fract_z
Si Si1 0.683372 0.881952 0.427960
Si Si2 0.119399 0.884258 0.287664
Si Si3 0.463294 0.729258 0.923777
Si Si4 0.763226 0.207370 0.218386
Si Si5 0.119670 0.607846 0.432801
Si Si6 0.117969 0.571992 0.717219
O O1 0.721540 0.860770 0.500000
O O2 0.717451 0.838292 0.363916
O O3 0.561815 0.832639 0.427274
O O4 0.733657 0.000000 0.415354
O O5 0.147110 0.821531 0.234330
O O6 0.000000 0.841500 0.287545
O O7 0.174563 0.000000 0.263602
O O8 0.392728 0.781196 0.916331
O O9 0.548002 0.767446 0.864719
O O10 0.515393 0.757697 0.000000
O O11 0.814516 0.317058 0.252863
O O12 0.648946 0.141781 0.244897
O O13 0.166948 0.583474 0.500000
O O14 0.145516 0.566525 0.363959
O O15 0.000000 0.557272 0.442812
O O16 0.000000 0.535333 0.727824
#
# Coordination Sequence:
#
# PCOD8323079 Si02
#       6
#    12  12  12  12  12  12
#     4  10  20  35  53  76 103 137 184 242 304 356
#     4  11  24  41  60  82 110 151 206 262 308 345
#     4   8  15  31  56  88 125 160 182 210 269 345
#     4  12  20  36  60  89 118 154 187 231 287 352
#     4   9  19  33  48  70 108 149 181 223 280 340
#     4  11  22  36  54  83 117 148 190 236 279 338
#
# _framework density 18.534223999999998
#
# number of rings (size 3 to 8) (size 9 to 14) (size 15 to 20)
#    0.333    1.500    3.333    2.000    2.333    0.000 
#    0.000    0.000    0.000    8.000    0.000    0.000 
#    0.000    1.333    0.000    0.000    0.000    0.000 
#
# Total GULP energy -892599.846378 kJ/mol
# GULP energy per Si atom -12397.220089 kJ/mol
# Density = 1.849204 g / cm^3
# Si number density = 18.534224 Si / 1000 Ang^3
#
#
#
# Elastic Constant Matrix: (Units=GPa)
#
#
# Indices 1 2 3 4 5 6 
#
# 1 53.4023 8.8998 16.5277 0.0000 1.2347 0.0000
# 2 8.8998 53.4023 16.5277 0.0000 -1.2347 0.0000
# 3 16.5277 16.5277 133.3524 0.0000 0.0000 0.0000
# 4 0.0000 0.0000 0.0000 17.3476 0.0000 -1.2347
# 5 1.2347 -1.2347 0.0000 0.0000 17.3476 0.0000
# 6 0.0000 0.0000 0.0000 -1.2347 0.0000 22.2512
#
#
#
# Elastic Compliance Matrix: (Units=1/GPa)
#
#
# Indices 1 2 3 4 5 6 
#
# 1 0.019870 -0.002690 -0.002129 0.000000 -0.001606 0.000000
# 2 -0.002690 0.019870 -0.002129 0.000000 0.001606 0.000000
# 3 -0.002129 -0.002129 0.008027 0.000000 0.000000 0.000000
# 4 0.000000 0.000000 0.000000 0.057874 0.000000 0.003211
# 5 -0.001606 0.001606 0.000000 0.000000 0.057874 0.000000
# 6 0.000000 0.000000 0.000000 0.003211 0.000000 0.045120
#
#
# Mechanical properties :
#
#
# Convention : Reuss Voigt Hill
#
# Bulk Modulus (GPa) = 29.52420 36.00746 32.76583
# Shear Modulus (GPa) = 21.38392 24.60273 22.99332
#
# Velocity S-wave (km/s) = 3.40038 3.64733 3.52602
# Velocity P-wave (km/s) = 5.60187 6.09976 5.85611
#
# Compressibility (1/GPa) = 0.03387052
#
# Stress axis : x y z
#
# Youngs Moduli (GPa) = 50.32666 50.32666 124.58337
#
# Poissons Ratio (x) = 0.13536 0.26528
# Poissons Ratio (y) = 0.13536 0.26528
# Poissons Ratio (z) = 0.10716 0.10716
#
# Static dielectric constant tensor:
#      x y z
#    x 3.273400 0.000000 0.000000 
#    y 0.000000 3.273400 0.000000 
#    z 0.000000 0.000000 3.482650 
# 
# 
# High freq. dielectric constant tensor:
#      x y z
#    x 1.703380 0.000000 0.000000 
#    y 0.000000 1.703380 0.000000 
#    z 0.000000 0.000000 1.713080 
# 
# From -- ./inp_files/3518.got.cif
#   From: 2010.03.12/outbox.cif.g09.slc.cpg/sg162_2_cif.got.tgz:3518.got - 2010.04.02 06:27:41.
