data_PCOD8323284
_publ_section_title
;
Structure prediction by ZEFSAII (Michael W. Deem and Ramdas Pophale) SiO2 
 PCOD8323284
Probable space group: P -3 1 C
;
_chemical_formula_sum "Si O2"
_cell_formula_units_Z 58
_cell_length_a 14.674067
_cell_length_b 14.674067
_cell_length_c 13.449145
_cell_angle_alpha 90.000000
_cell_angle_beta 90.000000
_cell_angle_gamma 120.000000
_cell_volume 2507.992901
_symmetry_space_group_name_H-M "P -3 1 C"
_symmetry_group_IT_number 163
_symmetry_cell_setting 'hexagonal'
loop_
_space_group_symop_operation_xyz
x,y,z
-y,x-y,z
-x+y,-x,z
-y,-x,1/2-z
-x+y,y,1/2-z
x,x-y,1/2-z
-x,-y,-z
y,-x+y,-z
x-y,x,-z
y,x,1/2+z
x-y,-y,1/2+z
-x,-x+y,1/2+z
loop_
_atom_site_type_symbol
_atom_site_label
_atom_site_fract_x
_atom_site_fract_y
_atom_site_fract_z
Si Si1 0.137603 0.911084 0.036765
Si Si2 0.607697 0.592469 0.735685
Si Si3 0.501008 0.625855 0.549533
Si Si4 0.393636 0.051786 0.442267
Si Si5 0.306754 0.153377 0.750000
Si Si6 0.333335 0.666668 0.871214
O O1 0.104801 0.869279 0.150541
O O2 0.226701 0.888830 0.990762
O O3 0.035836 0.853723 0.966573
O O4 0.532603 0.467398 0.750000
O O5 0.571324 0.627101 0.639843
O O6 0.598522 0.662777 0.823706
O O7 0.725426 0.617188 0.725072
O O8 0.590720 0.668493 0.462555
O O9 0.408411 0.511243 0.513742
O O10 0.447153 0.693877 0.583697
O O11 0.333334 0.666667 0.750000
#
# Coordination Sequence:
#
# PCOD8323284 Si02
#       6
#    12  12  12  12   6   4
#     4  12  27  47  72 103 139 181 244 304 362 431
#     4  10  21  43  67  99 139 180 234 287 344 425
#     4  10  23  40  66 101 143 181 232 285 348 423
#     4  10  21  43  69  95 137 188 224 285 351 423
#     4  12  24  44  74 104 138 196 238 286 374 426
#     4  12  24  39  63 105 139 173 232 294 342 417
#
# _framework density 23.126062999999998
#
# number of rings (size 3 to 8) (size 9 to 14) (size 15 to 20)
#    0.000    1.241    4.138    2.069    2.897    0.828 
#    0.621    0.000    0.000    0.000    0.000    0.000 
#    0.000    0.000    0.000    0.000    0.000    0.000 
#
# Total GULP energy -718744.429558 kJ/mol
# GULP energy per Si atom -12392.145337 kJ/mol
# Density = 2.307343 g / cm^3
# Si number density = 23.126063 Si / 1000 Ang^3
#
#
#
# Elastic Constant Matrix: (Units=GPa)
#
#
# Indices 1 2 3 4 5 6 
#
# 1 85.6529 15.5826 29.5278 -0.0001 -3.8481 0.0000
# 2 15.5826 85.6531 29.5279 0.0002 3.8482 0.0003
# 3 29.5278 29.5279 99.9622 0.0001 0.0001 0.0000
# 4 -0.0001 0.0002 0.0001 27.4534 0.0001 3.8483
# 5 -3.8481 3.8482 0.0001 0.0001 27.4534 0.0001
# 6 0.0000 0.0003 0.0000 3.8483 0.0001 35.0354
#
#
#
# Elastic Compliance Matrix: (Units=1/GPa)
#
#
# Indices 1 2 3 4 5 6 
#
# 1 0.013214 -0.001280 -0.003525 0.000000 0.002032 0.000000
# 2 -0.001280 0.013214 -0.003525 0.000000 -0.002032 0.000000
# 3 -0.003525 -0.003525 0.012086 0.000000 0.000000 0.000000
# 4 0.000000 0.000000 0.000000 0.036995 0.000000 -0.004064
# 5 0.002032 -0.002032 0.000000 0.000000 0.036995 0.000000
# 6 0.000000 0.000000 0.000000 -0.004064 0.000000 0.028989
#
#
# Mechanical properties :
#
#
# Convention : Reuss Voigt Hill
#
# Bulk Modulus (GPa) = 45.75804 46.72720 46.24262
# Shear Modulus (GPa) = 30.22241 31.09711 30.65976
#
# Velocity S-wave (km/s) = 3.61897 3.67096 3.64506
# Velocity P-wave (km/s) = 6.10671 6.18201 6.14447
#
# Compressibility (1/GPa) = 0.02185408
#
# Stress axis : x y z
#
# Youngs Moduli (GPa) = 75.67446 75.67472 82.73711
#
# Poissons Ratio (x) = 0.09687 0.29168
# Poissons Ratio (y) = 0.09687 0.29167
# Poissons Ratio (z) = 0.26678 0.26678
#
# Static dielectric constant tensor:
#      x y z
#    x 4.198680 -0.000010 -0.000010 
#    y -0.000010 4.198670 -0.000010 
#    z -0.000010 -0.000010 4.449020 
# 
# 
# High freq. dielectric constant tensor:
#      x y z
#    x 1.907530 0.000000 0.000000 
#    y 0.000000 1.907530 0.000000 
#    z 0.000000 0.000000 1.921520 
# 
# From -- ./inp_files/2425.got.cif
#   From: 2010.03.12/outbox.cif.g09.slc.cpg/sg163_2_cif.got.tgz:2425.got - 2010.04.02 06:30:25.
