data_PCOD8323366
_publ_section_title
;
Structure prediction by ZEFSAII (Michael W. Deem and Ramdas Pophale) SiO2 
 PCOD8323366
Probable space group: P -3 M 1
;
_chemical_formula_sum "Si O2"
_cell_formula_units_Z 54
_cell_length_a 19.827008
_cell_length_b 19.827008
_cell_length_c 9.257094
_cell_angle_alpha 90.000000
_cell_angle_beta 90.000000
_cell_angle_gamma 120.000000
_cell_volume 3151.517108
_symmetry_space_group_name_H-M "P -3 M 1"
_symmetry_group_IT_number 164
_symmetry_cell_setting 'hexagonal'
loop_
_space_group_symop_operation_xyz
x,y,z
-y,x-y,z
-x+y,-x,z
x-y,-y,-z
-x,-x+y,-z
y,x,-z
-x,-y,-z
y,-x+y,-z
x-y,x,-z
-x+y,y,z
x,x-y,z
-y,-x,z
loop_
_atom_site_type_symbol
_atom_site_label
_atom_site_fract_x
_atom_site_fract_y
_atom_site_fract_z
Si Si1 0.924167 0.695266 0.089620
Si Si2 0.568886 0.431115 0.990551
Si Si3 0.709308 0.568227 0.851102
Si Si4 0.235856 0.617928 0.745204
Si Si5 0.648433 0.646742 0.336598
Si Si6 0.467384 0.934767 0.718951
O O1 0.863628 0.727256 0.114842
O O2 0.943318 0.668447 0.241803
O O3 0.882521 0.617254 0.997353
O O4 0.000000 0.759633 0.000000
O O5 0.627219 0.494003 0.880197
O O6 0.467109 0.532892 0.894571
O O7 0.608799 0.391202 0.082727
O O8 0.772049 0.544098 0.803499
O O9 0.700243 0.614821 0.719621
O O10 0.288961 0.577922 0.711299
O O11 0.154933 0.577467 0.656760
O O12 0.673990 0.673990 0.500000
O O13 0.580983 0.555937 0.334462
#
# Coordination Sequence:
#
# PCOD8323366 Si02
#       6
#    12   6  12   6  12   6
#     4   9  18  34  56  80 105 132 170 215 259 309
#     4  10  17  28  54  72  98 126 174 222 268 296
#     4  10  20  34  52  75 100 130 173 223 266 307
#     4   8  16  29  47  75 102 123 170 221 274 317
#     4  11  22  34  50  75 106 142 177 211 263 319
#     4  10  20  31  51  73 105 137 181 225 261 317
#
# _framework density 17.134606000000002
#
# number of rings (size 3 to 8) (size 9 to 14) (size 15 to 20)
#    0.889    1.333    2.222    1.667    0.000    2.667 
#    0.667    0.000    0.000    0.222    0.000    0.000 
#    0.000    0.889    0.000    0.000    0.000    0.000 
#
# Total GULP energy -669076.569780 kJ/mol
# GULP energy per Si atom -12390.306848 kJ/mol
# Density = 1.709561 g / cm^3
# Si number density = 17.134606 Si / 1000 Ang^3
#
#
#
# Elastic Constant Matrix: (Units=GPa)
#
#
# Indices 1 2 3 4 5 6 
#
# 1 70.5998 21.5307 39.4541 -3.7716 0.0000 0.0000
# 2 21.5307 70.5998 39.4541 3.7716 0.0000 0.0000
# 3 39.4541 39.4541 109.0404 0.0000 0.0000 0.0000
# 4 -3.7716 3.7716 0.0000 12.9749 0.0000 0.0000
# 5 0.0000 0.0000 0.0000 0.0000 12.9749 -3.7716
# 6 0.0000 0.0000 0.0000 0.0000 -3.7716 24.5345
#
#
#
# Elastic Compliance Matrix: (Units=1/GPa)
#
#
# Indices 1 2 3 4 5 6 
#
# 1 0.018531 -0.002802 -0.005691 0.006201 0.000000 0.000000
# 2 -0.002802 0.018531 -0.005691 -0.006201 0.000000 0.000000
# 3 -0.005691 -0.005691 0.013289 0.000000 0.000000 0.000000
# 4 0.006201 -0.006201 0.000000 0.080677 0.000000 0.000000
# 5 0.000000 0.000000 0.000000 0.000000 0.080677 0.012402
# 6 0.000000 0.000000 0.000000 0.000000 0.012402 0.042665
#
#
# Mechanical properties :
#
#
# Convention : Reuss Voigt Hill
#
# Bulk Modulus (GPa) = 45.49164 50.12420 47.80792
# Shear Modulus (GPa) = 17.23747 20.08359 18.66053
#
# Velocity S-wave (km/s) = 3.17520 3.42732 3.30366
# Velocity P-wave (km/s) = 6.32848 6.70662 6.52029
#
# Compressibility (1/GPa) = 0.02198206
#
# Stress axis : x y z
#
# Youngs Moduli (GPa) = 53.96491 53.96491 75.24864
#
# Poissons Ratio (x) = 0.15122 0.42824
# Poissons Ratio (y) = 0.15122 0.42824
# Poissons Ratio (z) = 0.30712 0.30712
#
# Static dielectric constant tensor:
#      x y z
#    x 3.203510 0.000000 0.000000 
#    y 0.000000 3.203510 0.000000 
#    z 0.000000 0.000000 2.973180 
# 
# 
# High freq. dielectric constant tensor:
#      x y z
#    x 1.651340 0.000000 0.000000 
#    y 0.000000 1.651340 0.000000 
#    z 0.000000 0.000000 1.640410 
# 
# From -- ./inp_files/1580.got.cif
#   From: 2010.03.12/outbox.cif.g09.slc.cpg/sg164_1_cif.got.tgz:1580.got - 2010.04.02 06:32:59.
