data_PCOD8323042
_publ_section_title
;
Structure prediction by ZEFSAII (Michael W. Deem and Ramdas Pophale) SiO2 
 PCOD8323042
Probable space group: P -3 1 M 
;
_chemical_formula_sum "Si O2"
_cell_formula_units_Z 96
_cell_length_a 22.193345
_cell_length_b 22.193345
_cell_length_c 14.768586
_cell_angle_alpha 90.000000
_cell_angle_beta 90.000000
_cell_angle_gamma 120.000000
_cell_volume 6299.630497
_symmetry_space_group_name_H-M "P -3 1 M "
_symmetry_group_IT_number 162
_symmetry_cell_setting 'hexagonal'
loop_
_space_group_symop_operation_xyz
x,y,z
-y,x-y,z
-x+y,-x,z
-y,-x,-z
-x+y,y,-z
x,x-y,-z
-x,-y,-z
y,-x+y,-z
x-y,x,-z
y,x,z
x-y,-y,z
-x,-x+y,z
loop_
_atom_site_type_symbol
_atom_site_label
_atom_site_fract_x
_atom_site_fract_y
_atom_site_fract_z
Si Si1 0.666922 0.193555 0.104952
Si Si2 0.561113 0.712280 0.604756
Si Si3 0.473368 0.666922 0.104952
Si Si4 0.078413 0.609656 0.243045
Si Si5 0.280205 0.075545 0.392412
Si Si6 0.468757 0.390344 0.756955
Si Si7 0.204661 0.924455 0.607588
Si Si8 0.848833 0.287720 0.395244
O O1 0.738659 0.261341 0.134663
O O2 0.604385 0.208770 0.125903
O O3 0.657205 0.126066 0.159902
O O4 0.668380 0.176564 0.000000
O O5 0.522006 0.643207 0.664522
O O6 0.640602 0.747928 0.637414
O O7 0.533133 0.766566 0.620549
O O8 0.552142 0.689837 0.500000
O O9 0.531139 0.657205 0.159902
O O10 0.069341 0.534670 0.234166
O O11 0.000000 0.599304 0.241565
O O12 0.251611 0.125806 0.358180
O O13 0.276942 0.071056 0.500000
O O14 0.359398 0.107326 0.362586
O O15 0.233168 0.000000 0.347855
O O16 0.400696 0.400696 0.758435
O O17 0.477994 0.356793 0.664522
O O18 0.233168 0.000000 0.652145
#
# Coordination Sequence:
#
# PCOD8323042 Si02
#       8
#    12  12  12  12  12  12  12  12
#     4   9  17  30  48  66  82 103 135 174 210 243
#     4   9  17  29  44  59  76 102 137 174 204 230
#     4   9  17  30  48  66  82 103 135 174 210 243
#     4  10  20  30  41  61  87 112 134 159 201 256
#     4   8  13  21  34  51  69  91 120 153 186 217
#     4  10  20  30  41  61  87 112 134 159 201 256
#     4   8  13  21  34  51  69  91 120 153 186 217
#     4   9  17  29  44  59  76 102 137 174 204 230
#
# _framework density 15.238988000000001
#
# number of rings (size 3 to 8) (size 9 to 14) (size 15 to 20)
#    0.000    3.000    0.000    3.250    0.000    3.500 
#    0.000    3.750    0.000    0.750    0.000    1.750 
#    0.000    0.000    0.000    0.000    0.000    0.000 
#
# Total GULP energy -1189544.296368 kJ/mol
# GULP energy per Si atom -12391.086421 kJ/mol
# Density = 1.520430 g / cm^3
# Si number density = 15.238988 Si / 1000 Ang^3
#
#
#
# Elastic Constant Matrix: (Units=GPa)
#
#
# Indices 1 2 3 4 5 6 
#
# 1 55.2584 18.9969 31.6393 0.0000 0.0000 0.0000
# 2 18.9969 55.2584 31.6393 0.0000 0.0000 0.0000
# 3 31.6393 31.6393 66.2583 0.0000 0.0000 0.0000
# 4 0.0000 0.0000 0.0000 18.0752 0.0000 0.0000
# 5 0.0000 0.0000 0.0000 0.0000 18.0752 0.0000
# 6 0.0000 0.0000 0.0000 0.0000 0.0000 18.1308
#
#
#
# Elastic Compliance Matrix: (Units=1/GPa)
#
#
# Indices 1 2 3 4 5 6 
#
# 1 0.025142 -0.002435 -0.010843 0.000000 0.000000 0.000000
# 2 -0.002435 0.025142 -0.010843 0.000000 0.000000 0.000000
# 3 -0.010843 -0.010843 0.025448 0.000000 0.000000 0.000000
# 4 0.000000 0.000000 0.000000 0.055325 0.000000 0.000000
# 5 0.000000 0.000000 0.000000 0.000000 0.055325 0.000000
# 6 0.000000 0.000000 0.000000 0.000000 0.000000 0.055155
#
#
# Mechanical properties :
#
#
# Convention : Reuss Voigt Hill
#
# Bulk Modulus (GPa) = 36.37664 37.92514 37.15089
# Shear Modulus (GPa) = 16.72563 17.15619 16.94091
#
# Velocity S-wave (km/s) = 3.31653 3.35895 3.33781
# Velocity P-wave (km/s) = 6.21196 6.32332 6.26788
#
# Compressibility (1/GPa) = 0.02749017
#
# Stress axis : x y z
#
# Youngs Moduli (GPa) = 39.77355 39.77355 39.29597
#
# Poissons Ratio (x) = 0.09685 0.42609
# Poissons Ratio (y) = 0.09685 0.42609
# Poissons Ratio (z) = 0.43127 0.43127
#
# Static dielectric constant tensor:
#      x y z
#    x 3.109820 0.000000 0.000000 
#    y 0.000000 3.109820 0.000000 
#    z 0.000000 0.000000 2.714080 
# 
# 
# High freq. dielectric constant tensor:
#      x y z
#    x 1.575510 0.000000 0.000000 
#    y 0.000000 1.575510 0.000000 
#    z 0.000000 0.000000 1.556230 
# 
# From -- ./inp_files/2674.got.cif
#   From: 2010.03.12/outbox.cif.g09.slc.cpg/sg162_2_cif.got.tgz:2674.got - 2010.04.02 06:27:41.
