data_PCOD8323483
_publ_section_title
;
Structure prediction by ZEFSAII (Michael W. Deem and Ramdas Pophale) SiO2 
 PCOD8323483
Probable space group: P -3 M 1
;
_chemical_formula_sum "Si O2"
_cell_formula_units_Z 72
_cell_length_a 17.426728
_cell_length_b 17.426728
_cell_length_c 20.951529
_cell_angle_alpha 90.000000
_cell_angle_beta 90.000000
_cell_angle_gamma 120.000000
_cell_volume 5510.335722
_symmetry_space_group_name_H-M "P -3 M 1"
_symmetry_group_IT_number 164
_symmetry_cell_setting 'hexagonal'
loop_
_space_group_symop_operation_xyz
x,y,z
-y,x-y,z
-x+y,-x,z
x-y,-y,-z
-x,-x+y,-z
y,x,-z
-x,-y,-z
y,-x+y,-z
x-y,x,-z
-x+y,y,z
x,x-y,z
-y,-x,z
loop_
_atom_site_type_symbol
_atom_site_label
_atom_site_fract_x
_atom_site_fract_y
_atom_site_fract_z
Si Si1 0.491582 0.157959 0.008511
Si Si2 0.178126 0.177532 0.432669
Si Si3 0.841154 0.333515 0.860398
Si Si4 0.699421 0.760656 0.177671
Si Si5 0.241494 0.938490 0.941978
Si Si6 0.000873 0.180669 0.705661
O O1 0.572273 0.144545 0.030312
O O2 0.519432 0.259716 0.020490
O O3 0.406675 0.091927 0.050065
O O4 0.467555 0.133227 0.934372
O O5 0.227434 0.227434 0.500000
O O6 0.091146 0.182292 0.425204
O O7 0.227847 0.214458 0.364627
O O8 0.151541 0.075771 0.439888
O O9 0.857055 0.428528 0.838111
O O10 0.738164 0.261837 0.849752
O O11 0.903654 0.309241 0.818675
O O12 0.715001 0.857501 0.160327
O O13 0.745587 0.732694 0.124481
O O14 0.742287 0.759586 0.245244
O O15 0.144617 0.855384 0.943369
O O16 0.246449 0.000000 0.000000
O O17 0.920240 0.079761 0.706562
O O18 0.089649 0.179298 0.724986
#
# Coordination Sequence:
#
# PCOD8323483 Si02
#       6
#    12  12  12  12  12  12
#     4   9  17  28  43  60  75  89 108 139 183 233
#     4   8  12  18  30  49  71  93 118 148 180 211
#     4   9  16  27  42  59  75  90 109 138 181 231
#     4  10  19  30  40  52  71  95 123 154 184 210
#     4  11  20  30  41  52  68  93 123 155 186 211
#     4   9  16  25  37  52  72 100 130 156 179 205
#
# _framework density 13.066354
#
# number of rings (size 3 to 8) (size 9 to 14) (size 15 to 20)
#    0.000    2.667    1.667    1.667    0.000    4.333 
#    0.000    0.000    0.000    4.000    0.000    0.000 
#    0.000    0.667    0.000    0.000    0.000    0.000 
#
# Total GULP energy -892076.537035 kJ/mol
# GULP energy per Si atom -12389.951903 kJ/mol
# Density = 1.303661 g / cm^3
# Si number density = 13.066354 Si / 1000 Ang^3
#
#
#
# Elastic Constant Matrix: (Units=GPa)
#
#
# Indices 1 2 3 4 5 6 
#
# 1 66.5800 35.2243 43.8173 3.0116 0.0000 0.0000
# 2 35.2243 66.5800 43.8173 -3.0116 0.0000 0.0000
# 3 43.8173 43.8173 98.2560 0.0000 0.0000 0.0000
# 4 3.0116 -3.0116 0.0000 11.5361 0.0000 0.0000
# 5 0.0000 0.0000 0.0000 0.0000 11.5361 3.0116
# 6 0.0000 0.0000 0.0000 0.0000 3.0116 15.6778
#
#
#
# Elastic Compliance Matrix: (Units=1/GPa)
#
#
# Indices 1 2 3 4 5 6 
#
# 1 0.024759 -0.008816 -0.007110 -0.008765 0.000000 0.000000
# 2 -0.008816 0.024759 -0.007110 0.008765 0.000000 0.000000
# 3 -0.007110 -0.007110 0.016519 0.000000 0.000000 0.000000
# 4 -0.008765 0.008765 0.000000 0.091261 0.000000 0.000000
# 5 0.000000 0.000000 0.000000 0.000000 0.091261 -0.017531
# 6 0.000000 0.000000 0.000000 0.000000 -0.017531 0.067152
#
#
# Mechanical properties :
#
#
# Convention : Reuss Voigt Hill
#
# Bulk Modulus (GPa) = 50.08628 53.01488 51.55058
# Shear Modulus (GPa) = 13.57080 14.98714 14.27897
#
# Velocity S-wave (km/s) = 3.22624 3.39042 3.30935
# Velocity P-wave (km/s) = 7.23143 7.48253 7.35805
#
# Compressibility (1/GPa) = 0.01996555
#
# Stress axis : x y z
#
# Youngs Moduli (GPa) = 40.38861 40.38861 60.53738
#
# Poissons Ratio (x) = 0.35609 0.43041
# Poissons Ratio (y) = 0.35609 0.43041
# Poissons Ratio (z) = 0.28715 0.28715
#
# Static dielectric constant tensor:
#      x y z
#    x 2.526830 0.000000 0.000000 
#    y 0.000000 2.526830 0.000000 
#    z 0.000000 0.000000 2.810130 
# 
# 
# High freq. dielectric constant tensor:
#      x y z
#    x 1.482040 0.000000 0.000000 
#    y 0.000000 1.482040 0.000000 
#    z 0.000000 0.000000 1.482770 
# 
# From -- ./inp_files/4052.got.cif
#   From: 2010.03.12/outbox.cif.g09.slc.cpg/sg164_3_cif.got.tgz:4052.got - 2010.04.02 06:32:59.
