data_PCOD8323700
_publ_section_title
;
Structure prediction by ZEFSAII (Michael W. Deem and Ramdas Pophale) SiO2 
 PCOD8323700
Probable space group: P -3 M 1
;
_chemical_formula_sum "Si O2"
_cell_formula_units_Z 54
_cell_length_a 12.505392
_cell_length_b 12.505392
_cell_length_c 22.911216
_cell_angle_alpha 90.000000
_cell_angle_beta 90.000000
_cell_angle_gamma 120.000000
_cell_volume 3102.940095
_symmetry_space_group_name_H-M "P -3 M 1"
_symmetry_group_IT_number 164
_symmetry_cell_setting 'hexagonal'
loop_
_space_group_symop_operation_xyz
x,y,z
-y,x-y,z
-x+y,-x,z
x-y,-y,-z
-x,-x+y,-z
y,x,-z
-x,-y,-z
y,-x+y,-z
x-y,x,-z
-x+y,y,z
x,x-y,z
-y,-x,z
loop_
_atom_site_type_symbol
_atom_site_label
_atom_site_fract_x
_atom_site_fract_y
_atom_site_fract_z
Si Si1 0.584010 0.915932 0.889828
Si Si2 0.999988 0.754100 0.566280
Si Si3 0.249174 0.999738 0.220169
Si Si4 0.086313 0.418559 0.329473
Si Si5 0.000000 0.748825 0.000000
O O1 0.462488 0.924975 0.893022
O O2 0.546960 0.773480 0.892907
O O3 0.653878 0.978178 0.830263
O O4 0.670538 0.991947 0.943416
O O5 0.897635 0.795269 0.574375
O O6 0.970806 0.639429 0.607705
O O7 0.000000 0.711235 0.500000
O O8 0.130746 0.869255 0.583915
O O9 0.220393 0.110197 0.224735
O O10 0.306262 0.989631 0.280913
O O11 0.122889 0.877112 0.204957
O O12 0.230625 0.461249 0.326894
O O13 0.070372 0.535186 0.318283
O O14 0.882850 0.765699 0.993245
#
# Coordination Sequence:
#
# PCOD8323700 Si02
#       5
#    12  12  12  12   6
#     4  10  20  34  52  74 102 136 171 205 243 291
#     4   9  17  30  50  75 100 126 158 200 249 296
#     4  10  20  34  54  78 102 128 160 203 252 298
#     4  10  20  33  49  69  96 131 168 204 242 288
#     4  10  20  34  54  78 104 134 168 210 256 298
#
# _framework density 17.402849
#
# number of rings (size 3 to 8) (size 9 to 14) (size 15 to 20)
#    0.000    2.222    0.000    3.333    0.000    1.333 
#    0.000    4.444    0.000   11.111    0.000    0.000 
#    0.000    0.000    0.000    0.000    0.000    0.000 
#
# Total GULP energy -669790.249246 kJ/mol
# GULP energy per Si atom -12403.523134 kJ/mol
# Density = 1.736324 g / cm^3
# Si number density = 17.402849 Si / 1000 Ang^3
#
#
#
# Elastic Constant Matrix: (Units=GPa)
#
#
# Indices 1 2 3 4 5 6 
#
# 1 92.7756 51.6701 41.7817 1.0545 0.0000 0.0000
# 2 51.6701 92.7756 41.7817 -1.0545 0.0000 0.0000
# 3 41.7817 41.7817 103.7501 0.0000 0.0000 0.0000
# 4 1.0545 -1.0545 0.0000 19.7142 0.0000 0.0000
# 5 0.0000 0.0000 0.0000 0.0000 19.7142 1.0545
# 6 0.0000 0.0000 0.0000 0.0000 1.0545 20.5528
#
#
#
# Elastic Compliance Matrix: (Units=1/GPa)
#
#
# Indices 1 2 3 4 5 6 
#
# 1 0.016710 -0.007684 -0.003635 -0.001305 0.000000 0.000000
# 2 -0.007684 0.016710 -0.003635 0.001305 0.000000 0.000000
# 3 -0.003635 -0.003635 0.012566 0.000000 0.000000 0.000000
# 4 -0.001305 0.001305 0.000000 0.050865 0.000000 0.000000
# 5 0.000000 0.000000 0.000000 0.000000 0.050865 -0.002610
# 6 0.000000 0.000000 0.000000 0.000000 -0.002610 0.048789
#
#
# Mechanical properties :
#
#
# Convention : Reuss Voigt Hill
#
# Bulk Modulus (GPa) = 62.19508 62.19650 62.19579
# Shear Modulus (GPa) = 21.57289 22.26740 21.92015
#
# Velocity S-wave (km/s) = 3.52464 3.58093 3.55290
# Velocity P-wave (km/s) = 7.23741 7.27422 7.25584
#
# Compressibility (1/GPa) = 0.01607844
#
# Stress axis : x y z
#
# Youngs Moduli (GPa) = 59.84373 59.84373 79.57891
#
# Poissons Ratio (x) = 0.45986 0.28926
# Poissons Ratio (y) = 0.45986 0.28926
# Poissons Ratio (z) = 0.21752 0.21752
#
# Static dielectric constant tensor:
#      x y z
#    x 3.124530 0.000000 0.000000 
#    y 0.000000 3.124530 0.000000 
#    z 0.000000 0.000000 3.473100 
# 
# 
# High freq. dielectric constant tensor:
#      x y z
#    x 1.669060 0.000000 0.000000 
#    y 0.000000 1.669060 0.000000 
#    z 0.000000 0.000000 1.690350 
# 
# From -- ./inp_files/4845.got.cif
#   From: 2010.03.12/outbox.cif.g09.slc.cpg/sg164_3_cif.got.tgz:4845.got - 2010.04.02 06:32:59.
