data_PCOD8323049
_publ_section_title
;
Structure prediction by ZEFSAII (Michael W. Deem and Ramdas Pophale) SiO2 
 PCOD8323049
Probable space group: P -3 1 M 
;
_chemical_formula_sum "Si O2"
_cell_formula_units_Z 96
_cell_length_a 18.203339
_cell_length_b 18.203339
_cell_length_c 20.351028
_cell_angle_alpha 90.000000
_cell_angle_beta 90.000000
_cell_angle_gamma 120.000000
_cell_volume 5840.084051
_symmetry_space_group_name_H-M "P -3 1 M "
_symmetry_group_IT_number 162
_symmetry_cell_setting 'hexagonal'
loop_
_space_group_symop_operation_xyz
x,y,z
-y,x-y,z
-x+y,-x,z
-y,-x,-z
-x+y,y,-z
x,x-y,-z
-x,-y,-z
y,-x+y,-z
x-y,x,-z
y,x,z
x-y,-y,z
-x,-x+y,z
loop_
_atom_site_type_symbol
_atom_site_label
_atom_site_fract_x
_atom_site_fract_y
_atom_site_fract_z
Si Si1 0.167676 0.668282 0.500000
Si Si2 0.494965 0.163203 1.000000
Si Si3 0.741511 0.093496 0.257106
Si Si4 0.093496 0.351985 0.257106
Si Si5 0.668351 0.162358 0.642436
Si Si6 0.505993 0.668351 0.642436
Si Si7 0.739110 0.643187 0.893197
Si Si8 0.095923 0.356814 0.106803
O O1 0.268676 0.731325 0.500000
O O2 0.148179 0.574090 0.500000
O O3 0.130858 0.680597 0.569379
O O4 0.130858 0.680597 0.430621
O O5 0.439435 0.118095 0.064384
O O6 0.575117 0.150233 0.000000
O O7 0.525806 0.262903 0.000000
O O8 0.439435 0.118095 0.935616
O O9 0.838288 0.161712 0.275911
O O10 0.675263 0.102403 0.303609
O O11 0.720502 0.105897 0.182534
O O12 0.729139 0.000000 0.266733
O O13 0.102403 0.427140 0.303609
O O14 0.105897 0.385395 0.182534
O O15 0.000000 0.270861 0.266733
O O16 0.740588 0.259412 0.654981
O O17 0.577747 0.155494 0.649350
O O18 0.718189 0.718189 0.908598
O O19 0.838267 0.676533 0.910372
O O20 0.000000 0.281811 0.091402
#
# Coordination Sequence:
#
# PCOD8323049 Si02
#       8
#    12  12  12  12  12  12  12  12
#     4   8  13  22  37  57  82 113 148 182 213 246
#     4  10  20  33  48  67  92 122 155 188 218 245
#     4   9  18  32  48  65  86 113 144 178 218 263
#     4   9  18  32  48  65  86 113 144 178 218 263
#     4   9  16  26  41  62  88 118 150 181 212 248
#     4   9  16  26  41  62  88 118 150 181 212 248
#     4   9  18  32  49  68  89 114 144 178 218 263
#     4   9  18  32  49  68  89 114 144 178 218 263
#
# _framework density 16.438120000000001
#
# number of rings (size 3 to 8) (size 9 to 14) (size 15 to 20)
#    0.000    3.000    0.000    0.875    0.000    4.500 
#    0.000    3.125    0.000    5.750    0.000    3.500 
#    0.000    3.000    0.000    0.250    0.000   14.750 
#
# Total GULP energy -1189375.335622 kJ/mol
# GULP energy per Si atom -12389.326413 kJ/mol
# Density = 1.640071 g / cm^3
# Si number density = 16.438120 Si / 1000 Ang^3
#
#
#
# Elastic Constant Matrix: (Units=GPa)
#
#
# Indices 1 2 3 4 5 6 
#
# 1 89.1479 60.4901 49.9673 0.0000 0.0000 0.0000
# 2 60.4901 89.1479 49.9673 0.0000 0.0000 0.0000
# 3 49.9673 49.9673 100.7527 0.0000 0.0000 0.0000
# 4 0.0000 0.0000 0.0000 18.6751 0.0000 0.0000
# 5 0.0000 0.0000 0.0000 0.0000 18.6751 0.0000
# 6 0.0000 0.0000 0.0000 0.0000 0.0000 14.3289
#
#
#
# Elastic Compliance Matrix: (Units=1/GPa)
#
#
# Indices 1 2 3 4 5 6 
#
# 1 0.022443 -0.012451 -0.004956 0.000000 0.000000 0.000000
# 2 -0.012451 0.022443 -0.004956 0.000000 0.000000 0.000000
# 3 -0.004956 -0.004956 0.014841 0.000000 0.000000 0.000000
# 4 0.000000 0.000000 0.000000 0.053547 0.000000 0.000000
# 5 0.000000 0.000000 0.000000 0.000000 0.053547 0.000000
# 6 0.000000 0.000000 0.000000 0.000000 0.000000 0.069789
#
#
# Mechanical properties :
#
#
# Convention : Reuss Voigt Hill
#
# Bulk Modulus (GPa) = 66.65361 66.65533 66.65447
# Shear Modulus (GPa) = 17.46197 18.24408 17.85302
#
# Velocity S-wave (km/s) = 3.26281 3.33508 3.29914
# Velocity P-wave (km/s) = 7.40478 7.44766 7.42625
#
# Compressibility (1/GPa) = 0.01500294
#
# Stress axis : x y z
#
# Youngs Moduli (GPa) = 44.55644 44.55644 67.38230
#
# Poissons Ratio (x) = 0.55478 0.33392
# Poissons Ratio (y) = 0.55478 0.33392
# Poissons Ratio (z) = 0.22081 0.22081
#
# Static dielectric constant tensor:
#      x y z
#    x 2.979070 0.000000 0.000000 
#    y 0.000000 2.979070 0.000000 
#    z 0.000000 0.000000 3.549600 
# 
# 
# High freq. dielectric constant tensor:
#      x y z
#    x 1.608530 0.000000 0.000000 
#    y 0.000000 1.608530 0.000000 
#    z 0.000000 0.000000 1.655000 
# 
# From -- ./inp_files/3875.got.cif
#   From: 2010.03.12/outbox.cif.g09.slc.cpg/sg162_2_cif.got.tgz:3875.got - 2010.04.02 06:27:41.
