data_PCOD8323506
_publ_section_title
;
Structure prediction by ZEFSAII (Michael W. Deem and Ramdas Pophale) SiO2 
 PCOD8323506
Probable space group: P -3 M 1
;
_chemical_formula_sum "Si O2"
_cell_formula_units_Z 90
_cell_length_a 17.391518
_cell_length_b 17.391518
_cell_length_c 21.102309
_cell_angle_alpha 90.000000
_cell_angle_beta 90.000000
_cell_angle_gamma 120.000000
_cell_volume 5527.587053
_symmetry_space_group_name_H-M "P -3 M 1"
_symmetry_group_IT_number 164
_symmetry_cell_setting 'hexagonal'
loop_
_space_group_symop_operation_xyz
x,y,z
-y,x-y,z
-x+y,-x,z
x-y,-y,-z
-x,-x+y,-z
y,x,-z
-x,-y,-z
y,-x+y,-z
x-y,x,-z
-x+y,y,z
x,x-y,z
-y,-x,z
loop_
_atom_site_type_symbol
_atom_site_label
_atom_site_fract_x
_atom_site_fract_y
_atom_site_fract_z
Si Si1 0.502106 0.834672 0.144512
Si Si2 0.981280 0.578954 0.660768
Si Si3 0.590823 0.010382 0.070936
Si Si4 0.291191 0.055000 0.127011
Si Si5 0.159796 0.493190 0.590182
Si Si6 0.082022 0.745195 0.234602
Si Si7 0.820016 0.000000 0.000000
Si Si8 0.333394 0.491869 0.446929
O O1 0.408907 0.817814 0.172228
O O2 0.489090 0.744545 0.112857
O O3 0.569024 0.862302 0.201930
O O4 0.538737 0.908873 0.091617
O O5 0.965827 0.482914 0.687006
O O6 0.965551 0.641334 0.708864
O O7 0.922810 0.565074 0.599105
O O8 0.082297 0.639294 0.640305
O O9 0.526516 0.053031 0.076679
O O10 0.679706 0.069133 0.112460
O O11 0.614945 0.000000 0.000000
O O12 0.297467 0.148734 0.142187
O O13 0.234188 0.008936 0.064059
O O14 0.250656 0.990211 0.187835
O O15 0.237811 0.475621 0.611266
O O16 0.196147 0.598074 0.592427
O O17 0.127423 0.458322 0.518654
O O18 0.153181 0.846820 0.256657
O O19 0.831136 0.915568 0.009739
O O20 0.238920 0.477840 0.425843
O O21 0.404283 0.595718 0.440951
#
# Coordination Sequence:
#
# PCOD8323506 Si02
#       8
#    12  12  12  12  12  12   6  12
#     4   9  17  28  44  64  88 116 146 179 215 258
#     4  10  19  30  46  67  93 126 162 198 232 272
#     4   9  17  30  46  67  93 120 147 181 224 268
#     4  10  20  33  52  73  93 120 156 194 234 286
#     4   9  17  29  46  68  94 124 158 198 239 279
#     4  10  20  33  47  66  93 124 154 188 230 277
#     4  10  19  32  51  76 100 118 140 180 237 296
#     4   9  16  27  44  68  97 127 158 191 233 281
#
# _framework density 16.281969
#
# number of rings (size 3 to 8) (size 9 to 14) (size 15 to 20)
#    0.000    2.533    0.667    2.067    0.000    4.800 
#    0.000    0.000    0.000    4.800    0.000    0.933 
#    0.000    0.000    0.000    0.000    0.000   18.267 
#
# Total GULP energy -1115243.030118 kJ/mol
# GULP energy per Si atom -12391.589224 kJ/mol
# Density = 1.624491 g / cm^3
# Si number density = 16.281969 Si / 1000 Ang^3
#
#
#
# Elastic Constant Matrix: (Units=GPa)
#
#
# Indices 1 2 3 4 5 6 
#
# 1 88.7136 51.7912 39.1698 -1.6119 0.0000 0.0000
# 2 51.7912 88.7136 39.1698 1.6119 0.0000 0.0000
# 3 39.1698 39.1698 71.2100 0.0000 0.0000 0.0000
# 4 -1.6119 1.6119 0.0000 22.1303 0.0000 0.0000
# 5 0.0000 0.0000 0.0000 0.0000 22.1303 -1.6119
# 6 0.0000 0.0000 0.0000 0.0000 -1.6119 18.4612
#
#
#
# Elastic Compliance Matrix: (Units=1/GPa)
#
#
# Indices 1 2 3 4 5 6 
#
# 1 0.018761 -0.008496 -0.005647 0.001985 0.000000 0.000000
# 2 -0.008496 0.018761 -0.005647 -0.001985 0.000000 0.000000
# 3 -0.005647 -0.005647 0.020255 0.000000 0.000000 0.000000
# 4 0.001985 -0.001985 0.000000 0.045476 0.000000 0.000000
# 5 0.000000 0.000000 0.000000 0.000000 0.045476 0.003971
# 6 0.000000 0.000000 0.000000 0.000000 0.003971 0.054514
#
#
# Mechanical properties :
#
#
# Convention : Reuss Voigt Hill
#
# Bulk Modulus (GPa) = 54.94687 56.54432 55.74560
# Shear Modulus (GPa) = 20.08923 20.44475 20.26699
#
# Velocity S-wave (km/s) = 3.51641 3.54738 3.53193
# Velocity P-wave (km/s) = 7.09275 7.18207 7.13755
#
# Compressibility (1/GPa) = 0.01819940
#
# Stress axis : x y z
#
# Youngs Moduli (GPa) = 53.30095 53.30095 49.37047
#
# Poissons Ratio (x) = 0.45284 0.27878
# Poissons Ratio (y) = 0.45284 0.27878
# Poissons Ratio (z) = 0.30097 0.30097
#
# Static dielectric constant tensor:
#      x y z
#    x 3.205730 0.000000 0.000000 
#    y 0.000000 3.205730 0.000000 
#    z 0.000000 0.000000 2.976270 
# 
# 
# High freq. dielectric constant tensor:
#      x y z
#    x 1.621150 0.000000 0.000000 
#    y 0.000000 1.621150 0.000000 
#    z 0.000000 0.000000 1.614760 
# 
# From -- ./inp_files/4274.got.cif
#   From: 2010.03.12/outbox.cif.g09.slc.cpg/sg164_3_cif.got.tgz:4274.got - 2010.04.02 06:32:59.
