data_PCOD8323781
_publ_section_title
;
Structure prediction by ZEFSAII (Michael W. Deem and Ramdas Pophale) SiO2 
 PCOD8323781
Probable space group: P -3 M 1
;
_chemical_formula_sum "Si O2"
_cell_formula_units_Z 34
_cell_length_a 10.826337
_cell_length_b 10.826337
_cell_length_c 16.216954
_cell_angle_alpha 90.000000
_cell_angle_beta 90.000000
_cell_angle_gamma 120.000000
_cell_volume 1646.125716
_symmetry_space_group_name_H-M "P -3 M 1"
_symmetry_group_IT_number 164
_symmetry_cell_setting 'hexagonal'
loop_
_space_group_symop_operation_xyz
x,y,z
-y,x-y,z
-x+y,-x,z
x-y,-y,-z
-x,-x+y,-z
y,x,-z
-x,-y,-z
y,-x+y,-z
x-y,x,-z
-x+y,y,z
x,x-y,z
-y,-x,z
loop_
_atom_site_type_symbol
_atom_site_label
_atom_site_fract_x
_atom_site_fract_y
_atom_site_fract_z
Si Si1 0.608062 0.944079 0.327175
Si Si2 0.834326 0.668651 0.028560
Si Si3 0.666668 0.333335 0.220387
Si Si4 0.333333 0.666666 0.974190
Si Si5 0.171663 0.828338 0.776246
Si Si6 0.285456 0.285456 0.500000
O O1 0.478388 0.956775 0.288312
O O2 0.557549 0.778775 0.335603
O O3 0.642873 0.018672 0.417400
O O4 0.742053 0.015718 0.264590
O O5 0.750857 0.501714 0.996862
O O6 0.838471 0.676942 0.126724
O O7 0.750064 0.750064 0.000000
O O8 0.666667 0.333334 0.122634
O O9 0.506968 0.253484 0.253693
O O10 0.264211 0.132106 0.515581
#
# Coordination Sequence:
#
# PCOD8323781 Si02
#       6
#    12   6   2   2   6   6
#     4  11  23  40  62  92 127 167 213 266 320 378
#     4  11  25  45  69 102 137 174 223 285 339 411
#     4   9  18  39  69  90 117 160 224 259 294 378
#     4   9  21  45  75  99 129 175 224 268 342 417
#     4  11  22  41  67  89 125 170 213 259 319 389
#     4  10  20  36  58  90 126 167 211 266 318 376
#
# _framework density 20.654557
#
# number of rings (size 3 to 8) (size 9 to 14) (size 15 to 20)
#    0.000    1.412    3.529    1.765    2.471    0.000 
#    1.059    0.000    0.000    0.000    0.000    0.000 
#    0.000    0.000    0.000    0.000    0.000    0.000 
#
# Total GULP energy -421437.326357 kJ/mol
# GULP energy per Si atom -12395.215481 kJ/mol
# Density = 2.060755 g / cm^3
# Si number density = 20.654557 Si / 1000 Ang^3
#
#
#
# Elastic Constant Matrix: (Units=GPa)
#
#
# Indices 1 2 3 4 5 6 
#
# 1 106.1338 55.0126 34.5761 -1.6656 0.0000 0.0000
# 2 55.0126 106.1345 34.5760 1.6655 0.0000 0.0000
# 3 34.5761 34.5760 118.9157 0.0000 0.0000 0.0000
# 4 -1.6656 1.6655 0.0000 28.2406 0.0000 0.0000
# 5 0.0000 0.0000 0.0000 0.0000 28.2407 -1.6655
# 6 0.0000 0.0000 0.0000 0.0000 -1.6655 25.5605
#
#
#
# Elastic Compliance Matrix: (Units=1/GPa)
#
#
# Indices 1 2 3 4 5 6 
#
# 1 0.013363 -0.006273 -0.002062 0.001158 0.000000 0.000000
# 2 -0.006273 0.013363 -0.002062 -0.001158 0.000000 0.000000
# 3 -0.002062 -0.002062 0.009608 0.000000 0.000000 0.000000
# 4 0.001158 -0.001158 0.000000 0.035547 0.000000 0.000000
# 5 0.000000 0.000000 0.000000 0.000000 0.035547 0.002316
# 6 0.000000 0.000000 0.000000 0.000000 0.002316 0.039274
#
#
# Mechanical properties :
#
#
# Convention : Reuss Voigt Hill
#
# Bulk Modulus (GPa) = 64.34042 64.39037 64.36539
# Shear Modulus (GPa) = 28.95607 30.20965 29.58286
#
# Velocity S-wave (km/s) = 3.74829 3.82856 3.78864
# Velocity P-wave (km/s) = 7.06762 7.12646 7.09710
#
# Compressibility (1/GPa) = 0.01554233
#
# Stress axis : x y z
#
# Youngs Moduli (GPa) = 74.83079 74.83132 104.07830
#
# Poissons Ratio (x) = 0.46944 0.21456
# Poissons Ratio (y) = 0.46943 0.21456
# Poissons Ratio (z) = 0.15427 0.15427
#
# Static dielectric constant tensor:
#      x y z
#    x 3.780750 0.000000 0.000000 
#    y 0.000000 3.780740 0.000000 
#    z 0.000000 0.000000 3.731540 
# 
# 
# High freq. dielectric constant tensor:
#      x y z
#    x 1.811080 0.000000 0.000000 
#    y 0.000000 1.811080 0.000000 
#    z 0.000000 0.000000 1.801780 
# 
# From -- ./inp_files/3215.got.cif
#   From: 2010.03.12/outbox.cif.g09.slc.cpg/sg164_2_cif.got.tgz:3215.got - 2010.04.02 06:32:59.
