data_PCOD8323222
_publ_section_title
;
Structure prediction by ZEFSAII (Michael W. Deem and Ramdas Pophale) SiO2 
 PCOD8323222
Probable space group: P -3 1 C
;
_chemical_formula_sum "Si O2"
_cell_formula_units_Z 44
_cell_length_a 12.569625
_cell_length_b 12.569625
_cell_length_c 19.083820
_cell_angle_alpha 90.000000
_cell_angle_beta 90.000000
_cell_angle_gamma 120.000000
_cell_volume 2611.202698
_symmetry_space_group_name_H-M "P -3 1 C"
_symmetry_group_IT_number 163
_symmetry_cell_setting 'hexagonal'
loop_
_space_group_symop_operation_xyz
x,y,z
-y,x-y,z
-x+y,-x,z
-y,-x,1/2-z
-x+y,y,1/2-z
x,x-y,1/2-z
-x,-y,-z
y,-x+y,-z
x-y,x,-z
y,x,1/2+z
x-y,-y,1/2+z
-x,-x+y,1/2+z
loop_
_atom_site_type_symbol
_atom_site_label
_atom_site_fract_x
_atom_site_fract_y
_atom_site_fract_z
Si Si1 0.500624 0.362889 0.066181
Si Si2 0.333334 0.666667 0.167301
Si Si3 0.858519 0.141479 0.500000
Si Si4 0.362891 0.862265 0.433819
Si Si5 0.666667 0.333335 0.332699
O O1 0.375918 0.230577 0.059533
O O2 0.471505 0.471505 0.075219
O O3 0.562996 0.360181 0.138230
O O4 0.596668 0.403328 1.000000
O O5 0.333334 0.666667 0.250000
O O6 0.202815 0.639815 0.138230
O O7 0.769420 0.145341 0.559532
O O8 0.999999 0.196552 0.526325
O O9 0.666668 0.333334 0.250000
#
# Coordination Sequence:
#
# PCOD8323222 Si02
#       5
#    12   4  12  12   4
#     4  10  19  34  54  74 102 141 183 222 265 316
#     4  12  22  32  49  78 115 143 178 222 268 332
#     4  10  19  32  56  82 105 132 174 228 272 314
#     4  10  19  34  54  74 102 141 183 222 265 316
#     4  12  22  32  49  78 115 143 178 222 268 332
#
# _framework density 16.850472
#
# number of rings (size 3 to 8) (size 9 to 14) (size 15 to 20)
#    0.000    1.636    5.455    0.273    0.000    1.091 
#    0.000    0.000    0.000    0.000    0.000    0.000 
#    0.000   10.909    0.000    0.000    0.000    0.000 
#
# Total GULP energy -545099.626369 kJ/mol
# GULP energy per Si atom -12388.627872 kJ/mol
# Density = 1.681212 g / cm^3
# Si number density = 16.850472 Si / 1000 Ang^3
#
#
#
# Elastic Constant Matrix: (Units=GPa)
#
#
# Indices 1 2 3 4 5 6 
#
# 1 117.7213 50.2751 48.2506 0.0001 1.8936 0.0000
# 2 50.2751 117.7211 48.2504 0.0001 -1.8935 -0.0001
# 3 48.2506 48.2504 130.7218 0.0002 0.0001 -0.0001
# 4 0.0001 0.0001 0.0002 16.3949 -0.0001 -1.8935
# 5 1.8936 -1.8935 0.0001 -0.0001 16.3950 0.0000
# 6 0.0000 -0.0001 -0.0001 -1.8935 0.0000 33.7230
#
#
#
# Elastic Compliance Matrix: (Units=1/GPa)
#
#
# Indices 1 2 3 4 5 6 
#
# 1 0.011239 -0.003685 -0.002788 0.000000 -0.001724 0.000000
# 2 -0.003685 0.011239 -0.002788 0.000000 0.001724 0.000000
# 3 -0.002788 -0.002788 0.009708 0.000000 0.000000 0.000000
# 4 0.000000 0.000000 0.000000 0.061393 0.000000 0.003447
# 5 -0.001724 0.001724 0.000000 0.000000 0.061392 0.000000
# 6 0.000000 0.000000 0.000000 0.003447 0.000000 0.029847
#
#
# Mechanical properties :
#
#
# Convention : Reuss Voigt Hill
#
# Bulk Modulus (GPa) = 73.18860 73.30182 73.24521
# Shear Modulus (GPa) = 24.05065 27.92846 25.98955
#
# Velocity S-wave (km/s) = 3.78206 4.07557 3.93155
# Velocity P-wave (km/s) = 7.91204 8.10819 8.01072
#
# Compressibility (1/GPa) = 0.01366333
#
# Stress axis : x y z
#
# Youngs Moduli (GPa) = 88.97741 88.97739 103.00554
#
# Poissons Ratio (x) = 0.32785 0.28721
# Poissons Ratio (y) = 0.32785 0.28721
# Poissons Ratio (z) = 0.24810 0.24810
#
# Static dielectric constant tensor:
#      x y z
#    x 3.475360 0.000000 0.000000 
#    y 0.000000 3.475360 0.000000 
#    z 0.000000 0.000000 2.755120 
# 
# 
# High freq. dielectric constant tensor:
#      x y z
#    x 1.672790 0.000000 0.000000 
#    y 0.000000 1.672790 0.000000 
#    z 0.000000 0.000000 1.577060 
# 
# From -- ./inp_files/2948.got.cif
#   From: 2010.03.12/outbox.cif.g09.slc.cpg/sg163_2_cif.got.tgz:2948.got - 2010.04.02 06:30:25.
