data_PCOD8323893
_publ_section_title
;
Structure prediction by ZEFSAII (Michael W. Deem and Ramdas Pophale) SiO2 
 PCOD8323893
Probable space group: P -3 C 1
;
_chemical_formula_sum "Si O2"
_cell_formula_units_Z 90
_cell_length_a 17.892218
_cell_length_b 17.892218
_cell_length_c 17.334584
_cell_angle_alpha 90.000000
_cell_angle_beta 90.000000
_cell_angle_gamma 120.000000
_cell_volume 4805.874412
_symmetry_space_group_name_H-M "P -3 C 1"
_symmetry_group_IT_number 165
_symmetry_cell_setting 'hexagonal'
loop_
_space_group_symop_operation_xyz
x,y,z
-y,x-y,z
-x+y,-x,z
x-y,-y,1/2-z
-x,-x+y,1/2-z
y,x,1/2-z
-x,-y,-z
y,-x+y,-z
x-y,x,-z
-x+y,y,1/2+z
x,x-y,1/2+z
-y,-x,1/2+z
loop_
_atom_site_type_symbol
_atom_site_label
_atom_site_fract_x
_atom_site_fract_y
_atom_site_fract_z
Si Si1 0.173066 0.668458 0.738259
Si Si2 0.334028 0.334028 0.250000
Si Si3 0.694640 0.565567 0.094303
Si Si4 0.661825 0.496233 0.797658
Si Si5 0.921782 0.408761 0.954748
Si Si6 0.940610 0.579670 0.900136
Si Si7 0.805686 0.148070 0.992277
Si Si8 0.704681 0.983330 0.080420
O O1 0.165826 0.691379 0.824624
O O2 0.198534 0.594536 0.745011
O O3 0.242148 0.755740 0.697680
O O4 0.086270 0.631337 0.687046
O O5 0.344528 0.428749 0.248087
O O6 0.282279 0.282602 0.172820
O O7 0.670613 0.641493 0.104323
O O8 0.790765 0.605011 0.062958
O O9 0.627141 0.494465 0.033861
O O10 0.630770 0.485365 0.885283
O O11 0.963476 0.513553 0.948538
O O12 0.985368 0.367572 0.946243
O O13 0.866371 0.592010 0.939249
O O14 0.785346 0.058028 0.032812
O O15 0.892474 0.192760 0.940116
#
# Coordination Sequence:
#
# PCOD8323893 Si02
#       8
#    12   6  12  12  12  12  12  12
#     4  11  23  36  55  82 123 151 198 246 291 338
#     4  10  20  36  60  84 110 160 206 238 288 354
#     4  11  22  34  55  88 108 149 194 239 297 332
#     4  10  22  38  56  79 119 163 196 237 297 344
#     4   9  20  36  57  84 108 159 197 230 290 344
#     4  11  21  37  60  82 117 148 194 248 286 354
#     4  11  21  38  58  86 116 152 192 247 296 357
#     4  10  21  37  61  86 117 155 199 241 297 350
#
# _framework density 18.727081999999999
#
# number of rings (size 3 to 8) (size 9 to 14) (size 15 to 20)
#    0.000    1.600    2.667    4.267    5.600    1.067 
#    0.000    0.000    0.000    6.133    0.000    0.000 
#    0.000    0.000    0.000    0.000    0.000    0.000 
#
# Total GULP energy -1115566.303846 kJ/mol
# GULP energy per Si atom -12395.181154 kJ/mol
# Density = 1.868446 g / cm^3
# Si number density = 18.727082 Si / 1000 Ang^3
#
#
#
# Elastic Constant Matrix: (Units=GPa)
#
#
# Indices 1 2 3 4 5 6 
#
# 1 85.4671 33.0171 24.6043 -4.8968 0.0000 0.0000
# 2 33.0171 85.4671 24.6043 4.8968 0.0000 0.0000
# 3 24.6043 24.6043 96.9870 0.0000 0.0000 0.0000
# 4 -4.8968 4.8968 0.0000 22.0169 0.0000 0.0000
# 5 0.0000 0.0000 0.0000 0.0000 22.0169 -4.8968
# 6 0.0000 0.0000 0.0000 0.0000 -4.8968 26.2250
#
#
#
# Elastic Compliance Matrix: (Units=1/GPa)
#
#
# Indices 1 2 3 4 5 6 
#
# 1 0.014663 -0.005229 -0.002393 0.004424 0.000000 0.000000
# 2 -0.005229 0.014663 -0.002393 -0.004424 0.000000 0.000000
# 3 -0.002393 -0.002393 0.011525 0.000000 0.000000 0.000000
# 4 0.004424 -0.004424 0.000000 0.047388 0.000000 0.000000
# 5 0.000000 0.000000 0.000000 0.000000 0.047388 0.008848
# 6 0.000000 0.000000 0.000000 0.000000 0.008848 0.039784
#
#
# Mechanical properties :
#
#
# Convention : Reuss Voigt Hill
#
# Bulk Modulus (GPa) = 48.03139 48.04141 48.03640
# Shear Modulus (GPa) = 24.70596 26.43147 25.56871
#
# Velocity S-wave (km/s) = 3.63611 3.76094 3.69905
# Velocity P-wave (km/s) = 6.58272 6.67598 6.62951
#
# Compressibility (1/GPa) = 0.02081972
#
# Stress axis : x y z
#
# Youngs Moduli (GPa) = 68.19942 68.19942 86.76838
#
# Poissons Ratio (x) = 0.35661 0.20766
# Poissons Ratio (y) = 0.35661 0.20766
# Poissons Ratio (z) = 0.16322 0.16322
#
# Static dielectric constant tensor:
#      x y z
#    x 3.814690 0.000000 0.000000 
#    y 0.000000 3.814690 0.000000 
#    z 0.000000 0.000000 3.721940 
# 
# 
# High freq. dielectric constant tensor:
#      x y z
#    x 1.707850 0.000000 0.000000 
#    y 0.000000 1.707850 0.000000 
#    z 0.000000 0.000000 1.753560 
# 
# From -- ./inp_files/2400.got.cif
#   From: 2010.03.12/outbox.cif.g09.slc.cpg/sg165_2_cif.got.tgz:2400.got - 2010.04.02 06:36:38.
