data_PCOD8323732
_publ_section_title
;
Structure prediction by ZEFSAII (Michael W. Deem and Ramdas Pophale) SiO2 
 PCOD8323732
Probable space group: P -3 M 1
;
_chemical_formula_sum "Si O2"
_cell_formula_units_Z 66
_cell_length_a 12.582418
_cell_length_b 12.582418
_cell_length_c 28.103751
_cell_angle_alpha 90.000000
_cell_angle_beta 90.000000
_cell_angle_gamma 120.000000
_cell_volume 3853.214076
_symmetry_space_group_name_H-M "P -3 M 1"
_symmetry_group_IT_number 164
_symmetry_cell_setting 'hexagonal'
loop_
_space_group_symop_operation_xyz
x,y,z
-y,x-y,z
-x+y,-x,z
x-y,-y,-z
-x,-x+y,-z
y,x,-z
-x,-y,-z
y,-x+y,-z
x-y,x,-z
-x+y,y,z
x,x-y,z
-y,-x,z
loop_
_atom_site_type_symbol
_atom_site_label
_atom_site_fract_x
_atom_site_fract_y
_atom_site_fract_z
Si Si1 0.751798 0.751798 0.000000
Si Si2 0.580468 0.664865 0.820563
Si Si3 0.666760 0.581734 0.910252
Si Si4 0.332401 0.912393 0.539847
Si Si5 0.913081 0.333432 0.353356
Si Si6 0.665546 0.084746 0.732266
O O1 0.686299 0.667708 0.954848
O O2 0.768144 0.884072 0.990241
O O3 0.593180 0.796590 0.824814
O O4 0.437326 0.562675 0.820467
O O5 0.650265 0.646311 0.864311
O O6 0.645424 0.659005 0.772475
O O7 0.781085 0.562170 0.901255
O O8 0.549494 0.450507 0.920304
O O9 0.451672 0.903343 0.530570
O O10 0.221475 0.778526 0.532001
O O11 0.331099 0.959760 0.593220
O O12 0.323530 0.000000 0.500000
O O13 0.874238 0.437119 0.348442
O O14 0.795286 0.204715 0.339579
O O15 0.024908 0.361733 0.318547
O O16 0.561619 0.123238 0.735567
O O17 0.795889 0.204112 0.739657
#
# Coordination Sequence:
#
# PCOD8323732 Si02
#       6
#     6  12  12  12  12  12
#     4  10  20  34  52  74 102 136 172 208 246 290
#     4  10  20  34  53  76 100 126 158 198 242 286
#     4  10  20  34  53  76 102 132 166 204 246 292
#     4   9  17  29  46  69  95 123 155 192 236 283
#     4   9  17  30  49  71  94 121 155 196 239 282
#     4  10  20  33  50  72  99 129 159 193 235 285
#
# _framework density 17.128558000000002
#
# number of rings (size 3 to 8) (size 9 to 14) (size 15 to 20)
#    0.000    2.364    0.000    2.909    0.000    2.182 
#    0.000    3.636    0.000   15.818    0.000    0.000 
#    0.000    0.000    0.000    0.000    0.000    0.000 
#
# Total GULP energy -818469.561163 kJ/mol
# GULP energy per Si atom -12401.053957 kJ/mol
# Density = 1.708957 g / cm^3
# Si number density = 17.128558 Si / 1000 Ang^3
#
#
#
# Elastic Constant Matrix: (Units=GPa)
#
#
# Indices 1 2 3 4 5 6 
#
# 1 94.4818 50.9402 57.5086 2.2995 0.0000 0.0000
# 2 50.9402 94.4818 57.5086 -2.2995 0.0000 0.0000
# 3 57.5086 57.5086 117.0509 0.0000 0.0000 0.0000
# 4 2.2995 -2.2995 0.0000 24.1165 0.0000 0.0000
# 5 0.0000 0.0000 0.0000 0.0000 24.1165 2.2995
# 6 0.0000 0.0000 0.0000 0.0000 2.2995 21.7708
#
#
#
# Elastic Compliance Matrix: (Units=1/GPa)
#
#
# Indices 1 2 3 4 5 6 
#
# 1 0.017224 -0.005977 -0.005526 -0.002212 0.000000 0.000000
# 2 -0.005977 0.017224 -0.005526 0.002212 0.000000 0.000000
# 3 -0.005526 -0.005526 0.013973 0.000000 0.000000 0.000000
# 4 -0.002212 0.002212 0.000000 0.041887 0.000000 0.000000
# 5 0.000000 0.000000 0.000000 0.000000 0.041887 -0.004424
# 6 0.000000 0.000000 0.000000 0.000000 -0.004424 0.046400
#
#
# Mechanical properties :
#
#
# Convention : Reuss Voigt Hill
#
# Bulk Modulus (GPa) = 69.61900 70.88106 70.25003
# Shear Modulus (GPa) = 22.99490 23.33789 23.16640
#
# Velocity S-wave (km/s) = 3.66797 3.69523 3.68163
# Velocity P-wave (km/s) = 7.65976 7.72515 7.69252
#
# Compressibility (1/GPa) = 0.01436390
#
# Stress axis : x y z
#
# Youngs Moduli (GPa) = 58.05990 58.05990 71.56614
#
# Poissons Ratio (x) = 0.34700 0.39546
# Poissons Ratio (y) = 0.34700 0.39546
# Poissons Ratio (z) = 0.32083 0.32083
#
# Static dielectric constant tensor:
#      x y z
#    x 3.095260 0.000000 0.000000 
#    y 0.000000 3.095260 0.000000 
#    z 0.000000 0.000000 3.524600 
# 
# 
# High freq. dielectric constant tensor:
#      x y z
#    x 1.654670 0.000000 0.000000 
#    y 0.000000 1.654670 0.000000 
#    z 0.000000 0.000000 1.680470 
# 
# From -- ./inp_files/5442.got.cif
#   From: 2010.03.12/outbox.cif.g09.slc.cpg/sg164_3_cif.got.tgz:5442.got - 2010.04.02 06:32:59.
