data_PCOD8323413
_publ_section_title
;
Structure prediction by ZEFSAII (Michael W. Deem and Ramdas Pophale) SiO2 
 PCOD8323413
Probable space group: P -3 M 1
;
_chemical_formula_sum "Si O2"
_cell_formula_units_Z 84
_cell_length_a 17.880758
_cell_length_b 17.880758
_cell_length_c 20.002000
_cell_angle_alpha 90.000000
_cell_angle_beta 90.000000
_cell_angle_gamma 120.000000
_cell_volume 5538.292712
_symmetry_space_group_name_H-M "P -3 M 1"
_symmetry_group_IT_number 164
_symmetry_cell_setting 'hexagonal'
loop_
_space_group_symop_operation_xyz
x,y,z
-y,x-y,z
-x+y,-x,z
x-y,-y,-z
-x,-x+y,-z
y,x,-z
-x,-y,-z
y,-x+y,-z
x-y,x,-z
-x+y,y,z
x,x-y,z
-y,-x,z
loop_
_atom_site_type_symbol
_atom_site_label
_atom_site_fract_x
_atom_site_fract_y
_atom_site_fract_z
Si Si1 0.310237 0.068866 0.441540
Si Si2 0.691567 0.136672 0.246681
Si Si3 0.497794 0.161133 0.388880
Si Si4 0.265786 0.044846 0.203930
Si Si5 0.759365 0.694244 0.060577
Si Si6 0.169726 0.998685 0.331864
Si Si7 0.334996 0.835539 0.899545
O O1 0.299699 0.149850 0.462990
O O2 0.409918 0.098976 0.428418
O O3 0.275096 0.000000 0.500000
O O4 0.255209 0.025111 0.374733
O O5 0.786621 0.213380 0.264351
O O6 0.636410 0.126506 0.312694
O O7 0.697771 0.050612 0.233288
O O8 0.654017 0.157112 0.180737
O O9 0.577854 0.155707 0.421625
O O10 0.519507 0.259754 0.392144
O O11 0.283280 0.141640 0.200672
O O12 0.251971 0.012515 0.126971
O O13 0.187259 0.986725 0.253811
O O14 0.852998 0.705996 0.046028
O O15 0.688852 0.593431 0.070787
O O16 0.732417 0.732417 0.000000
O O17 0.091146 0.908855 0.358080
O O18 0.142038 0.071019 0.338268
O O19 0.425869 0.851737 0.929937
O O20 0.260313 0.739688 0.919060
#
# Coordination Sequence:
#
# PCOD8323413 Si02
#       7
#    12  12  12  12  12  12  12
#     4  10  20  33  47  63  87 118 147 176 213 257
#     4   8  13  24  40  60  85 112 138 165 203 253
#     4  10  18  28  44  65  89 115 144 178 214 255
#     4   8  14  27  43  59  82 111 140 171 210 253
#     4   9  18  30  44  61  84 114 146 179 216 257
#     4  10  18  29  46  67  88 111 142 179 215 252
#     4   9  16  25  40  62  89 117 144 173 208 253
#
# _framework density 15.16713
#
# number of rings (size 3 to 8) (size 9 to 14) (size 15 to 20)
#    0.000    2.857    1.429    3.000    0.000    1.143 
#    0.000    1.429    0.000    2.429    0.000    0.000 
#    0.000    0.000    0.000    0.000    0.000    1.429 
#
# Total GULP energy -1040772.603264 kJ/mol
# GULP energy per Si atom -12390.150039 kJ/mol
# Density = 1.513261 g / cm^3
# Si number density = 15.167130 Si / 1000 Ang^3
#
#
#
# Elastic Constant Matrix: (Units=GPa)
#
#
# Indices 1 2 3 4 5 6 
#
# 1 75.4026 40.0729 40.6834 -1.3521 0.0000 0.0000
# 2 40.0729 75.4026 40.6834 1.3521 0.0000 0.0000
# 3 40.6834 40.6834 87.3935 0.0000 0.0000 0.0000
# 4 -1.3521 1.3521 0.0000 15.2541 0.0000 0.0000
# 5 0.0000 0.0000 0.0000 0.0000 15.2541 -1.3521
# 6 0.0000 0.0000 0.0000 0.0000 -1.3521 17.6648
#
#
#
# Elastic Compliance Matrix: (Units=1/GPa)
#
#
# Indices 1 2 3 4 5 6 
#
# 1 0.020693 -0.007806 -0.005999 0.002526 0.000000 0.000000
# 2 -0.007806 0.020693 -0.005999 -0.002526 0.000000 0.000000
# 3 -0.005999 -0.005999 0.017028 0.000000 0.000000 0.000000
# 4 0.002526 -0.002526 0.000000 0.066004 0.000000 0.000000
# 5 0.000000 0.000000 0.000000 0.000000 0.066004 0.005052
# 6 0.000000 0.000000 0.000000 0.000000 0.005052 0.056996
#
#
# Mechanical properties :
#
#
# Convention : Reuss Voigt Hill
#
# Bulk Modulus (GPa) = 53.17640 53.45310 53.31475
# Shear Modulus (GPa) = 17.04777 17.41854 17.23316
#
# Velocity S-wave (km/s) = 3.35624 3.39254 3.37444
# Velocity P-wave (km/s) = 7.08206 7.11794 7.10002
#
# Compressibility (1/GPa) = 0.01880533
#
# Stress axis : x y z
#
# Youngs Moduli (GPa) = 48.32647 48.32647 58.72701
#
# Poissons Ratio (x) = 0.37722 0.35231
# Poissons Ratio (y) = 0.37722 0.35231
# Poissons Ratio (z) = 0.28992 0.28992
#
# Static dielectric constant tensor:
#      x y z
#    x 2.718510 0.000000 0.000000 
#    y 0.000000 2.718510 0.000000 
#    z 0.000000 0.000000 2.882990 
# 
# 
# High freq. dielectric constant tensor:
#      x y z
#    x 1.562000 0.000000 0.000000 
#    y 0.000000 1.562000 0.000000 
#    z 0.000000 0.000000 1.570950 
# 
# From -- ./inp_files/4653.got.cif
#   From: 2010.03.12/outbox.cif.g09.slc.cpg/sg164_3_cif.got.tgz:4653.got - 2010.04.02 06:32:59.
