data_PCOD8323643
_publ_section_title
;
Structure prediction by ZEFSAII (Michael W. Deem and Ramdas Pophale) SiO2 
 PCOD8323643
Probable space group: P -3 M 1
;
_chemical_formula_sum "Si O2"
_cell_formula_units_Z 72
_cell_length_a 23.717605
_cell_length_b 23.717605
_cell_length_c 9.146164
_cell_angle_alpha 90.000000
_cell_angle_beta 90.000000
_cell_angle_gamma 120.000000
_cell_volume 4455.652166
_symmetry_space_group_name_H-M "P -3 M 1"
_symmetry_group_IT_number 164
_symmetry_cell_setting 'hexagonal'
loop_
_space_group_symop_operation_xyz
x,y,z
-y,x-y,z
-x+y,-x,z
x-y,-y,-z
-x,-x+y,-z
y,x,-z
-x,-y,-z
y,-x+y,-z
x-y,x,-z
-x+y,y,z
x,x-y,z
-y,-x,z
loop_
_atom_site_type_symbol
_atom_site_label
_atom_site_fract_x
_atom_site_fract_y
_atom_site_fract_z
Si Si1 0.259670 0.194806 0.579212
Si Si2 0.404506 0.470492 0.579781
Si Si3 0.470492 0.404506 0.079781
Si Si4 0.935137 0.194806 0.920790
Si Si5 0.740476 0.607713 0.419317
Si Si6 0.867238 0.259524 0.080687
O O1 0.205017 0.205017 0.500000
O O2 0.242135 0.121068 0.548116
O O3 0.260245 0.208904 0.750001
O O4 0.330256 0.245344 0.515368
O O5 0.420235 0.420235 0.500000
O O6 0.454968 0.545033 0.530827
O O7 0.411768 0.461819 0.750000
O O8 0.330897 0.452116 0.540608
O O9 0.545033 0.454968 0.030828
O O10 0.452115 0.330896 0.040611
O O11 0.420236 0.420236 0.000000
O O12 0.878933 0.121068 0.951886
O O13 0.915091 0.245345 0.984638
O O14 0.000000 0.205015 0.000000
O O15 0.792093 0.584185 0.455317
O O16 0.744672 0.627954 0.250003
O O17 0.792095 0.207906 0.044685
#
# Coordination Sequence:
#
# PCOD8323643 Si02
#       6
#    12  12  12  12  12  12
#     4  10  20  32  47  68  92 117 145 178 216 258
#     4   9  17  28  42  61  85 112 142 176 213 254
#     4   9  17  28  42  61  85 112 142 176 213 254
#     4  10  20  32  47  68  92 117 145 178 216 258
#     4   9  17  29  45  64  87 116 147 180 220 263
#     4   9  17  29  45  64  87 116 147 180 220 263
#
# _framework density 16.159251000000001
#
# number of rings (size 3 to 8) (size 9 to 14) (size 15 to 20)
#    0.000    2.667    0.000    2.000    0.000    6.000 
#    0.000    0.000    0.000    1.000    0.000    4.667 
#    0.000    0.000    0.000   16.667    0.000   17.333 
#
# Total GULP energy -892686.652641 kJ/mol
# GULP energy per Si atom -12398.425731 kJ/mol
# Density = 1.612247 g / cm^3
# Si number density = 16.159251 Si / 1000 Ang^3
#
#
#
# Elastic Constant Matrix: (Units=GPa)
#
#
# Indices 1 2 3 4 5 6 
#
# 1 115.8543 68.2973 46.2430 -0.0001 0.0000 0.0000
# 2 68.2973 115.8543 46.2430 0.0001 0.0000 0.0000
# 3 46.2430 46.2430 63.8380 0.0000 0.0000 0.0000
# 4 -0.0001 0.0001 0.0000 21.7848 0.0000 0.0000
# 5 0.0000 0.0000 0.0000 0.0000 21.7848 -0.0001
# 6 0.0000 0.0000 0.0000 0.0000 -0.0001 23.7785
#
#
#
# Elastic Compliance Matrix: (Units=1/GPa)
#
#
# Indices 1 2 3 4 5 6 
#
# 1 0.014782 -0.006246 -0.006183 0.000000 0.000000 0.000000
# 2 -0.006246 0.014782 -0.006183 0.000000 0.000000 0.000000
# 3 -0.006183 -0.006183 0.024622 0.000000 0.000000 0.000000
# 4 0.000000 0.000000 0.000000 0.045904 0.000000 0.000000
# 5 0.000000 0.000000 0.000000 0.000000 0.045904 0.000000
# 6 0.000000 0.000000 0.000000 0.000000 0.000000 0.042055
#
#
# Mechanical properties :
#
#
# Convention : Reuss Voigt Hill
#
# Bulk Modulus (GPa) = 58.95711 68.56812 63.76261
# Shear Modulus (GPa) = 21.65206 22.45385 22.05295
#
# Velocity S-wave (km/s) = 3.66446 3.73169 3.69823
# Velocity P-wave (km/s) = 7.38029 7.81615 7.60134
#
# Compressibility (1/GPa) = 0.01696148
#
# Stress axis : x y z
#
# Youngs Moduli (GPa) = 67.65213 67.65213 40.61356
#
# Poissons Ratio (x) = 0.42255 0.25111
# Poissons Ratio (y) = 0.42255 0.25111
# Poissons Ratio (z) = 0.41829 0.41829
#
# Static dielectric constant tensor:
#      x y z
#    x 3.141720 0.000000 0.000000 
#    y 0.000000 3.141720 0.000000 
#    z 0.000000 0.000000 3.121960 
# 
# 
# High freq. dielectric constant tensor:
#      x y z
#    x 1.610610 0.000000 0.000000 
#    y 0.000000 1.610610 0.000000 
#    z 0.000000 0.000000 1.626800 
# 
# From -- ./inp_files/1926.got.cif
#   From: 2010.03.12/outbox.cif.g09.slc.cpg/sg164_1_cif.got.tgz:1926.got - 2010.04.02 06:32:59.
