data_PCOD8323123
_publ_section_title
;
Structure prediction by ZEFSAII (Michael W. Deem and Ramdas Pophale) SiO2 
 PCOD8323123
Probable space group: P -3 1 M 
;
_chemical_formula_sum "Si O2"
_cell_formula_units_Z 44
_cell_length_a 13.508666
_cell_length_b 13.508666
_cell_length_c 14.544588
_cell_angle_alpha 90.000000
_cell_angle_beta 90.000000
_cell_angle_gamma 120.000000
_cell_volume 2298.566025
_symmetry_space_group_name_H-M "P -3 1 M "
_symmetry_group_IT_number 162
_symmetry_cell_setting 'hexagonal'
loop_
_space_group_symop_operation_xyz
x,y,z
-y,x-y,z
-x+y,-x,z
-y,-x,-z
-x+y,y,-z
x,x-y,-z
-x,-y,-z
y,-x+y,-z
x-y,x,-z
y,x,z
x-y,-y,z
-x,-x+y,z
loop_
_atom_site_type_symbol
_atom_site_label
_atom_site_fract_x
_atom_site_fract_y
_atom_site_fract_z
Si Si1 0.871075 0.569332 0.143232
Si Si2 0.666668 0.333335 0.641539
Si Si3 0.333335 0.666667 0.858462
Si Si4 0.569331 0.871075 0.356768
Si Si5 0.131669 0.263337 0.500000
Si Si6 0.736663 0.868332 0.000000
O O1 0.783171 0.442489 0.105640
O O2 0.848736 0.581962 0.250000
O O3 0.000000 0.593635 0.127326
O O4 0.850006 0.659863 0.089144
O O5 0.666668 0.333334 0.750000
O O6 0.557512 0.216828 0.605641
O O7 0.659862 0.850007 0.410856
O O8 0.593634 0.000000 0.372673
O O9 0.184331 0.184331 0.525529
O O10 0.815669 0.815669 0.025528
#
# Coordination Sequence:
#
# PCOD8323123 Si02
#       6
#    12   4   4  12   6   6
#     4   9  19  35  53  76 105 135 171 213 255 304
#     4   9  18  34  56  79 106 140 172 208 257 307
#     4   9  18  34  56  79 106 140 172 208 257 307
#     4   9  19  35  53  76 105 135 171 213 255 304
#     4  10  21  36  54  76 103 136 174 216 260 306
#     4  10  21  36  54  76 103 136 174 216 260 306
#
# _framework density 19.142368000000001
#
# number of rings (size 3 to 8) (size 9 to 14) (size 15 to 20)
#    0.000    2.727    0.000    0.273    0.000    5.455 
#    0.000   10.909    0.000    3.273    0.000    0.000 
#    0.000    0.000    0.000    0.000    0.000    0.000 
#
# Total GULP energy -545593.240257 kJ/mol
# GULP energy per Si atom -12399.846369 kJ/mol
# Density = 1.909880 g / cm^3
# Si number density = 19.142368 Si / 1000 Ang^3
#
#
#
# Elastic Constant Matrix: (Units=GPa)
#
#
# Indices 1 2 3 4 5 6 
#
# 1 164.9450 109.1808 45.9040 0.0000 0.0003 0.0000
# 2 109.1808 164.9438 45.9036 0.0000 -0.0003 -0.0011
# 3 45.9040 45.9036 62.0748 0.0000 0.0000 -0.0004
# 4 0.0000 0.0000 0.0000 22.8255 0.0001 -0.0003
# 5 0.0003 -0.0003 0.0000 0.0001 22.8255 0.0000
# 6 0.0000 -0.0011 -0.0004 -0.0003 0.0000 27.8811
#
#
#
# Elastic Compliance Matrix: (Units=1/GPa)
#
#
# Indices 1 2 3 4 5 6 
#
# 1 0.011391 -0.006542 -0.003586 0.000000 0.000000 0.000000
# 2 -0.006542 0.011391 -0.003586 0.000000 0.000000 0.000000
# 3 -0.003586 -0.003586 0.021413 0.000000 0.000000 0.000000
# 4 0.000000 0.000000 0.000000 0.043811 0.000000 0.000000
# 5 0.000000 0.000000 0.000000 0.000000 0.043811 0.000000
# 6 0.000000 0.000000 0.000000 0.000000 0.000000 0.035867
#
#
# Mechanical properties :
#
#
# Convention : Reuss Voigt Hill
#
# Bulk Modulus (GPa) = 59.63835 88.21558 73.92696
# Shear Modulus (GPa) = 24.91301 27.43810 26.17556
#
# Velocity S-wave (km/s) = 3.61149 3.79010 3.70187
# Velocity P-wave (km/s) = 6.97232 8.08314 7.54819
#
# Compressibility (1/GPa) = 0.01676773
#
# Stress axis : x y z
#
# Youngs Moduli (GPa) = 87.78996 87.78957 46.70109
#
# Poissons Ratio (x) = 0.57432 0.16746
# Poissons Ratio (y) = 0.57432 0.16745
# Poissons Ratio (z) = 0.31479 0.31478
#
# Static dielectric constant tensor:
#      x y z
#    x 3.687600 0.000010 0.000000 
#    y 0.000010 3.687620 0.000000 
#    z 0.000000 0.000000 3.378470 
# 
# 
# High freq. dielectric constant tensor:
#      x y z
#    x 1.747530 0.000000 0.000000 
#    y 0.000000 1.747540 0.000000 
#    z 0.000000 0.000000 1.742500 
# 
# From -- ./inp_files/3402.got.cif
#   From: 2010.03.12/outbox.cif.g09.slc.cpg/sg162_2_cif.got.tgz:3402.got - 2010.04.02 06:27:41.
