data_PCOD8323802
_publ_section_title
;
Structure prediction by ZEFSAII (Michael W. Deem and Ramdas Pophale) SiO2 
 PCOD8323802
Probable space group: P -3 M 1
;
_chemical_formula_sum "Si O2"
_cell_formula_units_Z 84
_cell_length_a 21.208815
_cell_length_b 21.208815
_cell_length_c 12.376967
_cell_angle_alpha 90.000000
_cell_angle_beta 90.000000
_cell_angle_gamma 120.000000
_cell_volume 4821.450056
_symmetry_space_group_name_H-M "P -3 M 1"
_symmetry_group_IT_number 164
_symmetry_cell_setting 'hexagonal'
loop_
_space_group_symop_operation_xyz
x,y,z
-y,x-y,z
-x+y,-x,z
x-y,-y,-z
-x,-x+y,-z
y,x,-z
-x,-y,-z
y,-x+y,-z
x-y,x,-z
-x+y,y,z
x,x-y,z
-y,-x,z
loop_
_atom_site_type_symbol
_atom_site_label
_atom_site_fract_x
_atom_site_fract_y
_atom_site_fract_z
Si Si1 0.186011 0.663743 0.968876
Si Si2 0.611648 0.536074 0.456277
Si Si3 0.351427 0.441188 0.173358
Si Si4 0.355943 0.924136 0.790910
Si Si5 0.701507 0.781694 0.121456
Si Si6 0.296966 0.218326 0.127565
Si Si7 0.812781 0.334708 0.629241
O O1 0.217489 0.608745 0.981127
O O2 0.253332 0.746669 0.969960
O O3 0.129253 0.649197 0.063728
O O4 0.139934 0.643497 0.858635
O O5 0.604578 0.604578 0.500000
O O6 0.535815 0.464186 0.477073
O O7 0.633321 0.544395 0.332396
O O8 0.671510 0.527251 0.525408
O O9 0.414740 0.419257 0.170341
O O10 0.274844 0.367353 0.191005
O O11 0.363435 0.494724 0.271120
O O12 0.276382 0.914581 0.799633
O O13 0.725733 0.862867 0.158262
O O14 0.771654 0.772926 0.142204
O O15 0.676433 0.767073 0.996465
O O16 0.274523 0.137262 0.164829
O O17 0.786022 0.393011 0.610219
O O18 0.743478 0.256523 0.654238
#
# Coordination Sequence:
#
# PCOD8323802 Si02
#       7
#    12  12  12  12  12  12  12
#     4  12  25  38  53  76 111 148 180 217 266 326
#     4  10  21  39  58  76 101 133 177 229 271 313
#     4  11  21  35  56  82 107 136 179 226 273 320
#     4  11  21  36  59  82 103 134 177 229 279 318
#     4   9  16  29  48  73 105 138 172 208 251 306
#     4   9  17  29  48  75 106 136 168 208 257 310
#     4  11  23  38  57  79 107 142 179 221 271 331
#
# _framework density 17.422143999999999
#
# number of rings (size 3 to 8) (size 9 to 14) (size 15 to 20)
#    0.000    1.571    2.857    3.286    0.000    3.429 
#    0.000    1.429    0.000    2.000    0.000    2.000 
#    0.000    0.000    0.000    0.000    0.000    0.714 
#
# Total GULP energy -1041460.998661 kJ/mol
# GULP energy per Si atom -12398.345222 kJ/mol
# Density = 1.738249 g / cm^3
# Si number density = 17.422144 Si / 1000 Ang^3
#
#
#
# Elastic Constant Matrix: (Units=GPa)
#
#
# Indices 1 2 3 4 5 6 
#
# 1 75.1255 43.1664 21.4012 -5.3367 0.0000 0.0000
# 2 43.1664 75.1255 21.4012 5.3367 0.0000 0.0000
# 3 21.4012 21.4012 87.1414 0.0000 0.0000 0.0000
# 4 -5.3367 5.3367 0.0000 13.3664 0.0000 0.0000
# 5 0.0000 0.0000 0.0000 0.0000 13.3664 -5.3367
# 6 0.0000 0.0000 0.0000 0.0000 -5.3367 15.9796
#
#
#
# Elastic Compliance Matrix: (Units=1/GPa)
#
#
# Indices 1 2 3 4 5 6 
#
# 1 0.022691 -0.013413 -0.002279 0.014415 0.000000 0.000000
# 2 -0.013413 0.022691 -0.002279 -0.014415 0.000000 0.000000
# 3 -0.002279 -0.002279 0.012595 0.000000 0.000000 0.000000
# 4 0.014415 -0.014415 0.000000 0.086325 0.000000 0.000000
# 5 0.000000 0.000000 0.000000 0.000000 0.086325 0.028830
# 6 0.000000 0.000000 0.000000 0.000000 0.028830 0.072208
#
#
# Mechanical properties :
#
#
# Convention : Reuss Voigt Hill
#
# Bulk Modulus (GPa) = 45.37906 45.48112 45.43009
# Shear Modulus (GPa) = 14.44582 18.63740 16.54161
#
# Velocity S-wave (km/s) = 2.88265 3.27426 3.08467
# Velocity P-wave (km/s) = 6.09777 6.36053 6.23054
#
# Compressibility (1/GPa) = 0.02203659
#
# Stress axis : x y z
#
# Youngs Moduli (GPa) = 44.07009 44.07009 79.39766
#
# Poissons Ratio (x) = 0.59111 0.18092
# Poissons Ratio (y) = 0.59111 0.18092
# Poissons Ratio (z) = 0.10042 0.10042
#
# Static dielectric constant tensor:
#      x y z
#    x 3.289860 0.000000 0.000000 
#    y 0.000000 3.289860 0.000000 
#    z 0.000000 0.000000 3.133330 
# 
# 
# High freq. dielectric constant tensor:
#      x y z
#    x 1.668300 0.000000 0.000000 
#    y 0.000000 1.668300 0.000000 
#    z 0.000000 0.000000 1.658200 
# 
# From -- ./inp_files/2898.got.cif
#   From: 2010.03.12/outbox.cif.g09.slc.cpg/sg164_2_cif.got.tgz:2898.got - 2010.04.02 06:32:59.
