data_PCOD8323521
_publ_section_title
;
Structure prediction by ZEFSAII (Michael W. Deem and Ramdas Pophale) SiO2 
 PCOD8323521
Probable space group: P -3 M 1
;
_chemical_formula_sum "Si O2"
_cell_formula_units_Z 96
_cell_length_a 18.214390
_cell_length_b 18.214390
_cell_length_c 22.414739
_cell_angle_alpha 90.000000
_cell_angle_beta 90.000000
_cell_angle_gamma 120.000000
_cell_volume 6440.114377
_symmetry_space_group_name_H-M "P -3 M 1"
_symmetry_group_IT_number 164
_symmetry_cell_setting 'hexagonal'
loop_
_space_group_symop_operation_xyz
x,y,z
-y,x-y,z
-x+y,-x,z
x-y,-y,-z
-x,-x+y,-z
y,x,-z
-x,-y,-z
y,-x+y,-z
x-y,x,-z
-x+y,y,z
x,x-y,z
-y,-x,z
loop_
_atom_site_type_symbol
_atom_site_label
_atom_site_fract_x
_atom_site_fract_y
_atom_site_fract_z
Si Si1 0.499624 0.333291 0.273227
Si Si2 0.499693 0.831559 0.275282
Si Si3 0.737802 0.637281 0.495843
Si Si4 0.333244 0.838733 0.860819
Si Si5 0.535966 0.624069 0.606400
Si Si6 0.492800 0.161322 0.856483
Si Si7 0.892977 0.364680 0.600894
Si Si8 0.586737 0.999043 0.067334
O O1 0.489333 0.244667 0.291106
O O2 0.598618 0.401383 0.274132
O O3 0.464233 0.332083 0.207197
O O4 0.447889 0.351903 0.323380
O O5 0.427742 0.855484 0.279323
O O6 0.461383 0.730692 0.277661
O O7 0.545318 0.864940 0.211028
O O8 0.556397 0.873751 0.334356
O O9 0.708098 0.708098 0.500000
O O10 0.840992 0.681983 0.495563
O O11 0.705698 0.581154 0.435660
O O12 0.705480 0.569559 0.549777
O O13 0.410663 0.821325 0.872009
O O14 0.246777 0.753224 0.877188
O O15 0.341568 0.915673 0.901000
O O16 0.434082 0.565919 0.594019
O O17 0.575600 0.566796 0.591127
O O18 0.587908 0.175816 0.859469
O O19 0.496580 0.248290 0.876734
O O20 0.427827 0.085765 0.899449
O O21 0.850076 0.425038 0.594727
O O22 0.499599 0.999198 0.068891
O O23 0.617560 0.000000 0.000000
#
# Coordination Sequence:
#
# PCOD8323521 Si02
#       8
#    12  12  12  12  12  12  12  12
#     4   9  16  25  38  56  78 104 135 169 202 236
#     4   9  16  25  38  56  78 104 135 169 202 236
#     4  10  19  31  45  60  81 109 142 178 213 253
#     4   9  17  28  43  61  83 110 141 175 210 247
#     4   9  17  27  41  60  82 108 136 165 201 246
#     4   9  17  28  43  61  83 110 141 175 210 247
#     4   9  17  27  41  60  82 108 136 165 201 246
#     4   9  18  30  42  58  80 105 136 174 210 245
#
# _framework density 14.906568
#
# number of rings (size 3 to 8) (size 9 to 14) (size 15 to 20)
#    0.000    2.875    0.000    1.625    1.750    4.000 
#    0.000    0.000    0.000    5.125    0.000    0.000 
#    0.000    0.000    0.000    0.375    0.000    1.625 
#
# Total GULP energy -1189259.345402 kJ/mol
# GULP energy per Si atom -12388.118181 kJ/mol
# Density = 1.487264 g / cm^3
# Si number density = 14.906568 Si / 1000 Ang^3
#
#
#
# Elastic Constant Matrix: (Units=GPa)
#
#
# Indices 1 2 3 4 5 6 
#
# 1 61.0859 27.3103 37.6211 0.5826 0.0000 0.0000
# 2 27.3103 61.0859 37.6211 -0.5826 0.0000 0.0000
# 3 37.6211 37.6211 111.5179 0.0000 0.0000 0.0000
# 4 0.5826 -0.5826 0.0000 15.1551 0.0000 0.0000
# 5 0.0000 0.0000 0.0000 0.0000 15.1551 0.5826
# 6 0.0000 0.0000 0.0000 0.0000 0.5826 16.8878
#
#
#
# Elastic Compliance Matrix: (Units=1/GPa)
#
#
# Indices 1 2 3 4 5 6 
#
# 1 0.022758 -0.006888 -0.005354 -0.001140 0.000000 0.000000
# 2 -0.006888 0.022758 -0.005354 0.001140 0.000000 0.000000
# 3 -0.005354 -0.005354 0.012579 0.000000 0.000000 0.000000
# 4 -0.001140 0.001140 0.000000 0.066072 0.000000 0.000000
# 5 0.000000 0.000000 0.000000 0.000000 0.066072 -0.002279
# 6 0.000000 0.000000 0.000000 0.000000 -0.002279 0.059293
#
#
# Mechanical properties :
#
#
# Convention : Reuss Voigt Hill
#
# Bulk Modulus (GPa) = 43.66059 48.75497 46.20778
# Shear Modulus (GPa) = 17.10225 18.18207 17.64216
#
# Velocity S-wave (km/s) = 3.39085 3.49626 3.44396
# Velocity P-wave (km/s) = 6.68458 7.00546 6.84690
#
# Compressibility (1/GPa) = 0.02290395
#
# Stress axis : x y z
#
# Youngs Moduli (GPa) = 43.94040 43.94040 79.49512
#
# Poissons Ratio (x) = 0.30268 0.42560
# Poissons Ratio (y) = 0.30268 0.42560
# Poissons Ratio (z) = 0.23525 0.23525
#
# Static dielectric constant tensor:
#      x y z
#    x 2.695020 0.000000 0.000000 
#    y 0.000000 2.695020 0.000000 
#    z 0.000000 0.000000 3.184460 
# 
# 
# High freq. dielectric constant tensor:
#      x y z
#    x 1.536920 0.000000 0.000000 
#    y 0.000000 1.536920 0.000000 
#    z 0.000000 0.000000 1.588320 
# 
# From -- ./inp_files/4735.got.cif
#   From: 2010.03.12/outbox.cif.g09.slc.cpg/sg164_3_cif.got.tgz:4735.got - 2010.04.02 06:32:59.
