data_PCOD8323403
_publ_section_title
;
Structure prediction by ZEFSAII (Michael W. Deem and Ramdas Pophale) SiO2 
 PCOD8323403
Probable space group: P -3 M 1
;
_chemical_formula_sum "Si O2"
_cell_formula_units_Z 60
_cell_length_a 18.218722
_cell_length_b 18.218722
_cell_length_c 14.634587
_cell_angle_alpha 90.000000
_cell_angle_beta 90.000000
_cell_angle_gamma 120.000000
_cell_volume 4206.752102
_symmetry_space_group_name_H-M "P -3 M 1"
_symmetry_group_IT_number 164
_symmetry_cell_setting 'hexagonal'
loop_
_space_group_symop_operation_xyz
x,y,z
-y,x-y,z
-x+y,-x,z
x-y,-y,-z
-x,-x+y,-z
y,x,-z
-x,-y,-z
y,-x+y,-z
x-y,x,-z
-x+y,y,z
x,x-y,z
-y,-x,z
loop_
_atom_site_type_symbol
_atom_site_label
_atom_site_fract_x
_atom_site_fract_y
_atom_site_fract_z
Si Si1 0.412873 0.412873 0.397137
Si Si2 0.834866 0.504500 0.711582
Si Si3 0.905371 0.365757 0.099496
Si Si4 0.539615 0.905372 0.099495
Si Si5 0.495500 0.165134 0.288420
O O1 0.381620 0.381620 0.500000
O O2 0.500000 0.500001 0.396768
O O3 0.342897 0.427149 0.345849
O O4 0.427149 0.342897 0.345849
O O5 0.751181 0.502362 0.672960
O O6 0.822438 0.411219 0.702238
O O7 0.846378 0.535604 0.817098
O O8 0.911939 0.455970 0.102848
O O9 0.846378 0.310776 0.182904
O O10 1.000000 0.380671 0.112463
O O11 0.868709 0.322363 0.000001
O O12 0.455969 0.911938 0.102847
O O13 0.588782 0.177563 0.297765
O O14 0.497637 0.248819 0.327042
#
# Coordination Sequence:
#
# PCOD8323403 Si02
#       5
#    12  12  12  12  12
#     4   9  18  32  45  55  73 103 135 167 207 250
#     4  10  18  28  42  61  82 105 135 171 207 242
#     4   8  13  23  39  56  76 105 137 164 193 235
#     4   8  13  23  39  56  76 105 137 164 193 235
#     4  10  18  28  42  61  82 105 135 171 207 242
#
# _framework density 14.262786
#
# number of rings (size 3 to 8) (size 9 to 14) (size 15 to 20)
#    0.000    3.000    2.000    1.600    0.000    1.600 
#    0.000    0.000    0.000    4.800    0.000    0.000 
#    0.000    0.000    0.000    0.600    0.000    2.600 
#
# Total GULP energy -743363.407556 kJ/mol
# GULP energy per Si atom -12389.390126 kJ/mol
# Density = 1.423032 g / cm^3
# Si number density = 14.262786 Si / 1000 Ang^3
#
#
#
# Elastic Constant Matrix: (Units=GPa)
#
#
# Indices 1 2 3 4 5 6 
#
# 1 61.5050 30.0989 35.2251 0.0000 0.0000 0.0000
# 2 30.0989 61.5050 35.2251 0.0000 0.0000 0.0000
# 3 35.2251 35.2251 106.2386 0.0000 0.0000 0.0000
# 4 0.0000 0.0000 0.0000 9.2158 0.0000 0.0000
# 5 0.0000 0.0000 0.0000 0.0000 9.2158 0.0000
# 6 0.0000 0.0000 0.0000 0.0000 0.0000 15.7030
#
#
#
# Elastic Compliance Matrix: (Units=1/GPa)
#
#
# Indices 1 2 3 4 5 6 
#
# 1 0.023247 -0.008594 -0.004858 0.000000 0.000000 0.000000
# 2 -0.008594 0.023247 -0.004858 0.000000 0.000000 0.000000
# 3 -0.004858 -0.004858 0.012635 0.000000 0.000000 0.000000
# 4 0.000000 0.000000 0.000000 0.108510 0.000000 0.000000
# 5 0.000000 0.000000 0.000000 0.000000 0.108510 0.000000
# 6 0.000000 0.000000 0.000000 0.000000 0.000000 0.063682
#
#
# Mechanical properties :
#
#
# Convention : Reuss Voigt Hill
#
# Bulk Modulus (GPa) = 44.43084 47.81632 46.12358
# Shear Modulus (GPa) = 13.02238 15.40687 14.21462
#
# Velocity S-wave (km/s) = 3.02492 3.29023 3.16036
# Velocity P-wave (km/s) = 6.58934 6.93052 6.76208
#
# Compressibility (1/GPa) = 0.02250689
#
# Stress axis : x y z
#
# Youngs Moduli (GPa) = 43.01623 43.01623 79.14786
#
# Poissons Ratio (x) = 0.36968 0.38454
# Poissons Ratio (y) = 0.36968 0.38454
# Poissons Ratio (z) = 0.20899 0.20899
#
# Static dielectric constant tensor:
#      x y z
#    x 2.463920 0.000000 0.000000 
#    y 0.000000 2.463920 0.000000 
#    z 0.000000 0.000000 3.196090 
# 
# 
# High freq. dielectric constant tensor:
#      x y z
#    x 1.501400 0.000000 0.000000 
#    y 0.000000 1.501400 0.000000 
#    z 0.000000 0.000000 1.562760 
# 
# From -- ./inp_files/3354.got.cif
#   From: 2010.03.12/outbox.cif.g09.slc.cpg/sg164_2_cif.got.tgz:3354.got - 2010.04.02 06:32:59.
