data_PCOD8323845
_publ_section_title
;
Structure prediction by ZEFSAII (Michael W. Deem and Ramdas Pophale) SiO2 
 PCOD8323845
Probable space group: P -3 M 1
;
_chemical_formula_sum "Si O2"
_cell_formula_units_Z 96
_cell_length_a 18.000000
_cell_length_b 18.000000
_cell_length_c 24.000000
_cell_angle_alpha 90.000000
_cell_angle_beta 90.000000
_cell_angle_gamma 120.000000
_cell_volume 6734.213540
_symmetry_space_group_name_H-M "P -3 M 1"
_symmetry_group_IT_number 164
_symmetry_cell_setting 'hexagonal'
loop_
_space_group_symop_operation_xyz
x,y,z
-y,x-y,z
-x+y,-x,z
x-y,-y,-z
-x,-x+y,-z
y,x,-z
-x,-y,-z
y,-x+y,-z
x-y,x,-z
-x+y,y,z
x,x-y,z
-y,-x,z
loop_
_atom_site_type_symbol
_atom_site_label
_atom_site_fract_x
_atom_site_fract_y
_atom_site_fract_z
Si Si1 0.164330 0.667073 0.128192
Si Si2 0.491945 0.157650 0.138885
Si Si3 0.413194 0.002673 0.062855
Si Si4 0.432649 0.299465 0.750001
Si Si5 0.491945 0.157650 0.361115
Si Si6 0.586806 0.589480 0.562855
Si Si7 0.835671 0.502743 0.628194
Si Si8 0.946967 0.559999 0.250000
O O1 0.180553 0.590277 0.110383
O O2 0.244044 0.755957 0.106795
O O3 0.156346 0.665795 0.194951
O O4 0.078638 0.656699 0.098646
O O5 0.590552 0.181104 0.133492
O O6 0.487649 0.243825 0.133400
O O7 0.432795 0.092104 0.090697
O O8 0.452556 0.111830 0.197183
O O9 0.499146 0.998292 0.062917
O O10 0.379936 0.000000 0.000000
O O11 0.386562 0.193281 0.750000
O O12 0.490550 0.334207 0.694952
O O13 0.371896 0.342674 0.750001
O O14 0.590552 0.181103 0.366507
O O15 0.487650 0.243825 0.366599
O O16 0.452555 0.111829 0.302817
O O17 0.432795 0.092105 0.409303
O O18 0.620066 0.620066 0.500000
O O19 0.500853 0.499147 0.562916
O O20 0.656698 0.578061 0.598646
O O21 0.755957 0.511914 0.606797
O O22 0.819447 0.409724 0.610385
O O23 0.978580 0.489290 0.249999
#
# Coordination Sequence:
#
# PCOD8323845 Si02
#       8
#    12  12  12  12  12  12  12  12
#     4  10  18  28  43  63  86 112 144 180 216 257
#     4  10  19  30  46  65  87 115 151 191 225 259
#     4   9  18  31  44  58  81 115 149 180 220 263
#     4  10  18  27  44  66  87 114 146 175 213 263
#     4  10  19  30  46  65  87 115 151 191 225 259
#     4   9  18  31  44  58  81 115 149 180 220 263
#     4  10  18  28  43  63  86 112 144 180 216 257
#     4  10  17  29  46  64  89 118 144 177 227 273
#
# _framework density 14.255561999999999
#
# number of rings (size 3 to 8) (size 9 to 14) (size 15 to 20)
#    0.000    2.250    2.500    2.000    0.000    1.000 
#    0.000    2.500    0.000    3.250    0.000    0.000 
#    0.000    0.000    0.000   10.500    0.000    7.750 
#
# Total GULP energy -1189892.653596 kJ/mol
# GULP energy per Si atom -12394.715142 kJ/mol
# Density = 1.422312 g / cm^3
# Si number density = 14.255562 Si / 1000 Ang^3
#
#
#
# Elastic Constant Matrix: (Units=GPa)
#
#
# Indices 1 2 3 4 5 6 
#
# 1 102.8508 50.6552 40.6031 0.0000 0.0000 0.0000
# 2 50.6552 102.8508 40.6031 0.0000 0.0000 0.0000
# 3 40.6031 40.6031 106.6017 0.0000 0.0000 0.0000
# 4 0.0000 0.0000 0.0000 14.7884 0.0000 0.0000
# 5 0.0000 0.0000 0.0000 0.0000 14.7884 0.0000
# 6 0.0000 0.0000 0.0000 0.0000 0.0000 26.0978
#
#
#
# Elastic Compliance Matrix: (Units=1/GPa)
#
#
# Indices 1 2 3 4 5 6 
#
# 1 0.013658 -0.005500 -0.003107 0.000000 0.000000 0.000000
# 2 -0.005500 0.013658 -0.003107 0.000000 0.000000 0.000000
# 3 -0.003107 -0.003107 0.011748 0.000000 0.000000 0.000000
# 4 0.000000 0.000000 0.000000 0.067621 0.000000 0.000000
# 5 0.000000 0.000000 0.000000 0.000000 0.067621 0.000000
# 6 0.000000 0.000000 0.000000 0.000000 0.000000 0.038317
#
#
# Mechanical properties :
#
#
# Convention : Reuss Voigt Hill
#
# Bulk Modulus (GPa) = 63.95972 64.00291 63.98132
# Shear Modulus (GPa) = 20.72413 23.16439 21.94426
#
# Velocity S-wave (km/s) = 3.81695 4.03542 3.92771
# Velocity P-wave (km/s) = 8.02430 8.16744 8.09619
#
# Compressibility (1/GPa) = 0.01563484
#
# Stress axis : x y z
#
# Youngs Moduli (GPa) = 73.21469 73.21469 85.12228
#
# Poissons Ratio (x) = 0.40270 0.26450
# Poissons Ratio (y) = 0.40270 0.26450
# Poissons Ratio (z) = 0.22750 0.22750
#
# Static dielectric constant tensor:
#      x y z
#    x 2.727640 0.000000 0.000000 
#    y 0.000000 2.727640 0.000000 
#    z 0.000000 0.000000 3.033950 
# 
# 
# High freq. dielectric constant tensor:
#      x y z
#    x 1.522720 0.000000 0.000000 
#    y 0.000000 1.522720 0.000000 
#    z 0.000000 0.000000 1.561070 
# 
# From -- ./inp_files/5089.got.cif
#   From: 2010.03.12/outbox.ucp.g09.slc.cvg/sg164_3_cif.got.tgz:5089.got - 2010.05.04 20:39:09.
