data_PCOD8323002
_publ_section_title
;
Structure prediction by ZEFSAII (Michael W. Deem and Ramdas Pophale) SiO2 
 PCOD8323002
Probable space group: P -3 1 M 
;
_chemical_formula_sum "Si O2"
_cell_formula_units_Z 96
_cell_length_a 15.574438
_cell_length_b 15.574438
_cell_length_c 25.241188
_cell_angle_alpha 90.000000
_cell_angle_beta 90.000000
_cell_angle_gamma 120.000000
_cell_volume 5302.310933
_symmetry_space_group_name_H-M "P -3 1 M "
_symmetry_group_IT_number 162
_symmetry_cell_setting 'hexagonal'
loop_
_space_group_symop_operation_xyz
x,y,z
-y,x-y,z
-x+y,-x,z
-y,-x,-z
-x+y,y,-z
x,x-y,-z
-x,-y,-z
y,-x+y,-z
x-y,x,-z
y,x,z
x-y,-y,z
-x,-x+y,z
loop_
_atom_site_type_symbol
_atom_site_label
_atom_site_fract_x
_atom_site_fract_y
_atom_site_fract_z
Si Si1 0.106764 0.814961 0.447517
Si Si2 0.771860 0.885268 0.944165
Si Si3 0.829215 0.492613 0.469756
Si Si4 0.112517 0.556666 0.369464
Si Si5 0.773105 0.203101 0.759183
Si Si6 0.570873 0.116800 0.248031
Si Si7 0.633601 0.745692 0.352460
Si Si8 0.235200 0.116464 0.828659
O O1 0.120057 0.879944 0.500000
O O2 0.110260 0.720763 0.471644
O O3 0.176748 0.869965 0.398195
O O4 0.000000 0.780119 0.423120
O O5 0.856770 0.856770 0.952130
O O6 0.716955 0.842397 0.887982
O O7 0.821193 0.000000 0.935771
O O8 0.707476 0.853738 0.000000
O O9 0.724895 0.449789 0.500000
O O10 0.886915 0.443458 0.500000
O O11 0.814815 0.461211 0.407732
O O12 0.143288 0.589193 0.309626
O O13 0.124350 0.462485 0.382541
O O14 0.000000 0.531582 0.379695
O O15 0.828261 0.318855 0.776366
O O16 0.656936 0.156854 0.774164
O O17 0.789153 0.187195 0.697153
O O18 0.820937 0.149101 0.791153
O O19 0.517997 0.000000 0.236404
O O20 0.698705 0.698705 0.329870
O O21 0.161244 0.161244 0.825378
O O22 0.173104 0.000000 0.812025
#
# Coordination Sequence:
#
# PCOD8323002 Si02
#       8
#    12  12  12  12  12  12  12  12
#     4  11  23  37  53  71  91 120 157 193 234 291
#     4   8  13  22  39  67 105 148 189 225 263 311
#     4  11  22  32  45  69  96 118 142 178 228 286
#     4   9  18  34  53  70  91 119 150 187 233 291
#     4  11  21  36  56  80 107 139 176 221 274 321
#     4  10  21  36  54  77 103 134 176 217 258 315
#     4  10  21  38  58  75  93 119 153 199 253 309
#     4  10  19  31  50  79 116 154 188 223 266 318
#
# _framework density 18.105312999999999
#
# number of rings (size 3 to 8) (size 9 to 14) (size 15 to 20)
#    0.000    2.000    0.000    5.875    0.000    6.500 
#    0.000    2.500    0.000    2.250    0.000    0.875 
#    0.000    5.000    0.000    0.000    0.000    0.000 
#
# Total GULP energy -1189254.385363 kJ/mol
# GULP energy per Si atom -12388.066514 kJ/mol
# Density = 1.806410 g / cm^3
# Si number density = 18.105313 Si / 1000 Ang^3
#
#
#
# Elastic Constant Matrix: (Units=GPa)
#
#
# Indices 1 2 3 4 5 6 
#
# 1 89.0182 36.2129 27.5819 0.0000 0.8587 0.0000
# 2 36.2129 89.0182 27.5819 0.0000 -0.8587 0.0000
# 3 27.5819 27.5819 69.9791 0.0000 0.0000 0.0000
# 4 0.0000 0.0000 0.0000 15.3522 0.0000 -0.8587
# 5 0.8587 -0.8587 0.0000 0.0000 15.3522 0.0000
# 6 0.0000 0.0000 0.0000 -0.8587 0.0000 26.4026
#
#
#
# Elastic Compliance Matrix: (Units=1/GPa)
#
#
# Indices 1 2 3 4 5 6 
#
# 1 0.014317 -0.004655 -0.003809 0.000000 -0.001061 0.000000
# 2 -0.004655 0.014317 -0.003809 0.000000 0.001061 0.000000
# 3 -0.003809 -0.003809 0.017292 0.000000 0.000000 0.000000
# 4 0.000000 0.000000 0.000000 0.065256 0.000000 0.002122
# 5 -0.001061 0.001061 0.000000 0.000000 0.065256 0.000000
# 6 0.000000 0.000000 0.000000 0.002122 0.000000 0.037944
#
#
# Mechanical properties :
#
#
# Convention : Reuss Voigt Hill
#
# Bulk Modulus (GPa) = 46.76456 47.86322 47.31389
# Shear Modulus (GPa) = 20.32070 21.86398 21.09234
#
# Velocity S-wave (km/s) = 3.35380 3.47882 3.41688
# Velocity P-wave (km/s) = 6.39395 6.52914 6.46190
#
# Compressibility (1/GPa) = 0.02138371
#
# Stress axis : x y z
#
# Youngs Moduli (GPa) = 69.84475 69.84475 57.82940
#
# Poissons Ratio (x) = 0.32510 0.22025
# Poissons Ratio (y) = 0.32510 0.22025
# Poissons Ratio (z) = 0.26601 0.26601
#
# Static dielectric constant tensor:
#      x y z
#    x 3.310460 0.000000 0.000000 
#    y 0.000000 3.310460 0.000000 
#    z 0.000000 0.000000 3.345100 
# 
# 
# High freq. dielectric constant tensor:
#      x y z
#    x 1.690200 0.000000 0.000000 
#    y 0.000000 1.690200 0.000000 
#    z 0.000000 0.000000 1.681170 
# 
# From -- ./inp_files/4073.got.cif
#   From: 2010.03.12/outbox.cif.g09.slc.cpg/sg162_3_cif.got.tgz:4073.got - 2010.04.02 06:27:41.
