data_PCOD8323728
_publ_section_title
;
Structure prediction by ZEFSAII (Michael W. Deem and Ramdas Pophale) SiO2 
 PCOD8323728
Probable space group: P -3 M 1
;
_chemical_formula_sum "Si O2"
_cell_formula_units_Z 60
_cell_length_a 12.479280
_cell_length_b 12.479280
_cell_length_c 25.501761
_cell_angle_alpha 90.000000
_cell_angle_beta 90.000000
_cell_angle_gamma 120.000000
_cell_volume 3439.377623
_symmetry_space_group_name_H-M "P -3 M 1"
_symmetry_group_IT_number 164
_symmetry_cell_setting 'hexagonal'
loop_
_space_group_symop_operation_xyz
x,y,z
-y,x-y,z
-x+y,-x,z
x-y,-y,-z
-x,-x+y,-z
y,x,-z
-x,-y,-z
y,-x+y,-z
x-y,x,-z
-x+y,y,z
x,x-y,z
-y,-x,z
loop_
_atom_site_type_symbol
_atom_site_label
_atom_site_fract_x
_atom_site_fract_y
_atom_site_fract_z
Si Si1 0.416847 0.082107 0.549266
Si Si2 0.914805 0.332303 0.153830
Si Si3 0.416775 0.083353 0.350847
Si Si4 0.000088 0.246089 0.940527
Si Si5 0.749862 0.998520 0.748352
O O1 0.559289 0.118577 0.545439
O O2 0.409487 0.204744 0.548846
O O3 0.340800 0.000000 0.500000
O O4 0.354354 0.009103 0.602103
O O5 0.929181 0.464591 0.163489
O O6 0.770752 0.229249 0.158414
O O7 0.994317 0.308683 0.196738
O O8 0.968664 0.330043 0.096779
O O9 0.555740 0.111479 0.345165
O O10 0.422060 0.211030 0.363110
O O11 0.345659 0.021689 0.297502
O O12 0.868609 0.131392 0.924495
O O13 0.101666 0.203331 0.933818
O O14 0.000000 0.289555 0.000000
O O15 0.791019 0.895510 0.746412
O O16 0.868964 0.131037 0.741323
#
# Coordination Sequence:
#
# PCOD8323728 Si02
#       5
#    12  12  12  12  12
#     4  10  20  34  53  76 103 135 170 209 251 296
#     4  10  20  33  50  71  97 130 166 204 243 287
#     4  10  20  34  54  78 104 134 167 204 244 290
#     4   9  17  30  50  75 100 126 158 199 246 293
#     4  10  20  34  53  76 101 129 162 202 248 295
#
# _framework density 17.445015999999999
#
# number of rings (size 3 to 8) (size 9 to 14) (size 15 to 20)
#    0.000    2.200    0.000    3.400    0.000    1.200 
#    0.000    6.000    0.000   13.200    0.000    0.000 
#    0.000    0.000    0.000    0.000    0.000    0.000 
#
# Total GULP energy -744217.907425 kJ/mol
# GULP energy per Si atom -12403.631790 kJ/mol
# Density = 1.740531 g / cm^3
# Si number density = 17.445016 Si / 1000 Ang^3
#
#
#
# Elastic Constant Matrix: (Units=GPa)
#
#
# Indices 1 2 3 4 5 6 
#
# 1 100.7051 56.9175 40.9528 -3.9736 0.0000 0.0000
# 2 56.9175 100.7051 40.9528 3.9736 0.0000 0.0000
# 3 40.9528 40.9528 100.5132 0.0000 0.0000 0.0000
# 4 -3.9736 3.9736 0.0000 24.2432 0.0000 0.0000
# 5 0.0000 0.0000 0.0000 0.0000 24.2432 -3.9736
# 6 0.0000 0.0000 0.0000 0.0000 -3.9736 21.8938
#
#
#
# Elastic Compliance Matrix: (Units=1/GPa)
#
#
# Indices 1 2 3 4 5 6 
#
# 1 0.015793 -0.007745 -0.003279 0.003858 0.000000 0.000000
# 2 -0.007745 0.015793 -0.003279 -0.003858 0.000000 0.000000
# 3 -0.003279 -0.003279 0.012621 0.000000 0.000000 0.000000
# 4 0.003858 -0.003858 0.000000 0.042513 0.000000 0.000000
# 5 0.000000 0.000000 0.000000 0.000000 0.042513 0.007716
# 6 0.000000 0.000000 0.000000 0.000000 0.007716 0.047075
#
#
# Mechanical properties :
#
#
# Convention : Reuss Voigt Hill
#
# Bulk Modulus (GPa) = 64.09889 64.39662 64.24775
# Shear Modulus (GPa) = 23.79645 24.94941 24.37293
#
# Velocity S-wave (km/s) = 3.69736 3.78587 3.74187
# Velocity P-wave (km/s) = 7.41960 7.49030 7.45503
#
# Compressibility (1/GPa) = 0.01560089
#
# Stress axis : x y z
#
# Youngs Moduli (GPa) = 63.31936 63.31936 79.23285
#
# Poissons Ratio (x) = 0.49039 0.25982
# Poissons Ratio (y) = 0.49039 0.25982
# Poissons Ratio (z) = 0.20763 0.20763
#
# Static dielectric constant tensor:
#      x y z
#    x 3.120420 0.000000 0.000000 
#    y 0.000000 3.120420 0.000000 
#    z 0.000000 0.000000 3.504240 
# 
# 
# High freq. dielectric constant tensor:
#      x y z
#    x 1.668900 0.000000 0.000000 
#    y 0.000000 1.668900 0.000000 
#    z 0.000000 0.000000 1.694130 
# 
# From -- ./inp_files/5178.got.cif
#   From: 2010.03.12/outbox.cif.g09.slc.cpg/sg164_3_cif.got.tgz:5178.got - 2010.04.02 06:32:59.
