data_PCOD8323763
_publ_section_title
;
Structure prediction by ZEFSAII (Michael W. Deem and Ramdas Pophale) SiO2 
 PCOD8323763
Probable space group: P -3 M 1
;
_chemical_formula_sum "Si O2"
_cell_formula_units_Z 66
_cell_length_a 12.373804
_cell_length_b 12.373804
_cell_length_c 28.304300
_cell_angle_alpha 90.000000
_cell_angle_beta 90.000000
_cell_angle_gamma 120.000000
_cell_volume 3753.094636
_symmetry_space_group_name_H-M "P -3 M 1"
_symmetry_group_IT_number 164
_symmetry_cell_setting 'hexagonal'
loop_
_space_group_symop_operation_xyz
x,y,z
-y,x-y,z
-x+y,-x,z
x-y,-y,-z
-x,-x+y,-z
y,x,-z
-x,-y,-z
y,-x+y,-z
x-y,x,-z
-x+y,y,z
x,x-y,z
-y,-x,z
loop_
_atom_site_type_symbol
_atom_site_label
_atom_site_fract_x
_atom_site_fract_y
_atom_site_fract_z
Si Si1 0.666577 0.081207 0.453955
Si Si2 0.918231 0.332067 0.272009
Si Si3 0.746989 0.748867 0.637772
Si Si4 0.667381 0.587156 0.090220
Si Si5 0.253984 0.000000 0.000000
Si Si6 0.251582 0.252966 0.819113
O O1 0.545557 0.091114 0.442046
O O2 0.780425 0.219576 0.462071
O O3 0.648714 0.000000 0.500000
O O4 0.692003 0.012457 0.411407
O O5 0.927951 0.463976 0.265820
O O6 0.773246 0.226755 0.271478
O O7 0.992148 0.312561 0.229738
O O8 0.983044 0.330285 0.320689
O O9 0.868086 0.736172 0.641579
O O10 0.787782 0.893891 0.642270
O O11 0.778146 0.556292 0.088162
O O12 0.540242 0.459759 0.088166
O O13 0.671069 0.656903 0.138225
O O14 0.672392 0.670677 0.046184
O O15 0.236811 0.118406 0.997336
O O16 0.107313 0.214626 0.821985
O O17 0.260223 0.130112 0.823004
#
# Coordination Sequence:
#
# PCOD8323763 Si02
#       6
#    12  12  12  12   6  12
#     4  10  20  34  53  76 103 135 170 209 252 300
#     4  10  20  34  54  78 104 134 168 208 252 300
#     4  10  20  34  53  76 102 132 167 209 255 301
#     4  10  20  34  53  76 103 135 170 209 252 300
#     4  10  20  34  54  78 104 134 168 210 256 302
#     4  10  20  34  54  78 104 134 168 209 254 300
#
# _framework density 17.585486
#
# number of rings (size 3 to 8) (size 9 to 14) (size 15 to 20)
#    0.000    2.000    0.000    4.000    0.000    0.000 
#    0.000    7.273    0.000   18.909    0.000    0.000 
#    0.000    0.000    0.000    0.000    0.000    0.000 
#
# Total GULP energy -818684.423468 kJ/mol
# GULP energy per Si atom -12404.309446 kJ/mol
# Density = 1.754546 g / cm^3
# Si number density = 17.585486 Si / 1000 Ang^3
#
#
#
# Elastic Constant Matrix: (Units=GPa)
#
#
# Indices 1 2 3 4 5 6 
#
# 1 70.8460 32.4511 16.1754 7.0007 0.0000 0.0000
# 2 32.4511 70.8460 16.1754 -7.0007 0.0000 0.0000
# 3 16.1754 16.1754 81.3377 0.0000 0.0000 0.0000
# 4 7.0007 -7.0007 0.0000 28.4640 0.0000 0.0000
# 5 0.0000 0.0000 0.0000 0.0000 28.4640 7.0007
# 6 0.0000 0.0000 0.0000 0.0000 7.0007 19.1975
#
#
#
# Elastic Compliance Matrix: (Units=1/GPa)
#
#
# Indices 1 2 3 4 5 6 
#
# 1 0.019468 -0.009144 -0.002053 -0.007037 0.000000 0.000000
# 2 -0.009144 0.019468 -0.002053 0.007037 0.000000 0.000000
# 3 -0.002053 -0.002053 0.013111 0.000000 0.000000 0.000000
# 4 -0.007037 0.007037 0.000000 0.038594 0.000000 0.000000
# 5 0.000000 0.000000 0.000000 0.000000 0.038594 -0.014074
# 6 0.000000 0.000000 0.000000 0.000000 -0.014074 0.057223
#
#
# Mechanical properties :
#
#
# Convention : Reuss Voigt Hill
#
# Bulk Modulus (GPa) = 39.14455 39.18149 39.16302
# Shear Modulus (GPa) = 22.57633 25.77360 24.17496
#
# Velocity S-wave (km/s) = 3.58691 3.83249 3.71173
# Velocity P-wave (km/s) = 6.28191 6.47402 6.37869
#
# Compressibility (1/GPa) = 0.02554634
#
# Stress axis : x y z
#
# Youngs Moduli (GPa) = 51.36758 51.36758 76.27189
#
# Poissons Ratio (x) = 0.46969 0.15659
# Poissons Ratio (y) = 0.46969 0.15659
# Poissons Ratio (z) = 0.10546 0.10546
#
# Static dielectric constant tensor:
#      x y z
#    x 3.191520 0.000000 0.000000 
#    y 0.000000 3.191520 0.000000 
#    z 0.000000 0.000000 3.465910 
# 
# 
# High freq. dielectric constant tensor:
#      x y z
#    x 1.680610 0.000000 0.000000 
#    y 0.000000 1.680610 0.000000 
#    z 0.000000 0.000000 1.702570 
# 
# From -- ./inp_files/5516.got.cif
#   From: 2010.03.12/outbox.cif.g09.slc.cpg/sg164_3_cif.got.tgz:5516.got - 2010.04.02 06:32:59.
