data_PCOD8323496
_publ_section_title
;
Structure prediction by ZEFSAII (Michael W. Deem and Ramdas Pophale) SiO2 
 PCOD8323496
Probable space group: P -3 M 1
;
_chemical_formula_sum "Si O2"
_cell_formula_units_Z 84
_cell_length_a 21.226625
_cell_length_b 21.226625
_cell_length_c 13.040460
_cell_angle_alpha 90.000000
_cell_angle_beta 90.000000
_cell_angle_gamma 120.000000
_cell_volume 5088.449140
_symmetry_space_group_name_H-M "P -3 M 1"
_symmetry_group_IT_number 164
_symmetry_cell_setting 'hexagonal'
loop_
_space_group_symop_operation_xyz
x,y,z
-y,x-y,z
-x+y,-x,z
x-y,-y,-z
-x,-x+y,-z
y,x,-z
-x,-y,-z
y,-x+y,-z
x-y,x,-z
-x+y,y,z
x,x-y,z
-y,-x,z
loop_
_atom_site_type_symbol
_atom_site_label
_atom_site_fract_x
_atom_site_fract_y
_atom_site_fract_z
Si Si1 0.381482 0.904343 0.202245
Si Si2 0.855334 0.290251 0.598346
Si Si3 0.957536 0.598848 0.098489
Si Si4 0.479222 0.813057 0.600314
Si Si5 0.739153 0.118465 0.273117
Si Si6 0.076808 0.293489 0.527153
Si Si7 0.185483 0.665883 0.006057
O O1 0.445315 0.890630 0.238590
O O2 0.334426 0.896741 0.301410
O O3 0.418725 0.985118 0.153854
O O4 0.331462 0.842637 0.119900
O O5 0.781873 0.218128 0.631214
O O6 0.836206 0.336338 0.518417
O O7 0.910813 0.271559 0.542505
O O8 0.936367 0.643490 0.177328
O O9 0.882115 0.525837 0.071043
O O10 0.000000 0.649029 0.000000
O O11 0.409588 0.819175 0.630977
O O12 0.461366 0.730683 0.615405
O O13 0.544991 0.866166 0.675092
O O14 0.806039 0.193962 0.233668
O O15 0.766975 0.081282 0.354062
O O16 0.134587 0.269173 0.499832
O O17 0.000000 0.224815 0.500000
O O18 0.208492 0.604246 0.997422
O O19 0.255538 0.744463 0.979707
#
# Coordination Sequence:
#
# PCOD8323496 Si02
#       7
#    12  12  12  12  12  12  12
#     4  10  19  30  45  64  87 114 144 182 227 271
#     4   9  17  29  45  66  91 118 148 180 215 259
#     4  10  20  33  48  64  84 112 147 189 233 271
#     4   9  17  28  43  64  90 120 152 186 222 260
#     4   9  18  32  48  66  90 119 150 184 221 261
#     4   9  17  30  49  71  95 122 148 174 207 253
#     4  10  20  33  47  62  81 108 145 187 231 276
#
# _framework density 16.507977
#
# number of rings (size 3 to 8) (size 9 to 14) (size 15 to 20)
#    0.000    2.571    0.000    4.571    0.000    2.857 
#    0.000    0.000    0.000   12.000    0.000    0.000 
#    0.000    0.000    0.000    0.000    0.000    5.714 
#
# Total GULP energy -1041226.433917 kJ/mol
# GULP energy per Si atom -12395.552785 kJ/mol
# Density = 1.647040 g / cm^3
# Si number density = 16.507977 Si / 1000 Ang^3
#
#
#
# Elastic Constant Matrix: (Units=GPa)
#
#
# Indices 1 2 3 4 5 6 
#
# 1 72.9112 40.9232 30.1207 -0.3276 0.0000 0.0000
# 2 40.9232 72.9112 30.1207 0.3276 0.0000 0.0000
# 3 30.1207 30.1207 86.4405 0.0000 0.0000 0.0000
# 4 -0.3276 0.3276 0.0000 23.1576 0.0000 0.0000
# 5 0.0000 0.0000 0.0000 0.0000 23.1576 -0.3276
# 6 0.0000 0.0000 0.0000 0.0000 -0.3276 15.9940
#
#
#
# Elastic Compliance Matrix: (Units=1/GPa)
#
#
# Indices 1 2 3 4 5 6 
#
# 1 0.021021 -0.010250 -0.003753 0.000442 0.000000 0.000000
# 2 -0.010250 0.021021 -0.003753 -0.000442 0.000000 0.000000
# 3 -0.003753 -0.003753 0.014184 0.000000 0.000000 0.000000
# 4 0.000442 -0.000442 0.000000 0.043195 0.000000 0.000000
# 5 0.000000 0.000000 0.000000 0.000000 0.043195 0.000885
# 6 0.000000 0.000000 0.000000 0.000000 0.000885 0.062542
#
#
# Mechanical properties :
#
#
# Convention : Reuss Voigt Hill
#
# Bulk Modulus (GPa) = 48.27808 48.28802 48.28305
# Shear Modulus (GPa) = 20.19595 21.20172 20.69884
#
# Velocity S-wave (km/s) = 3.50152 3.58765 3.54484
# Velocity P-wave (km/s) = 6.75694 6.81736 6.78722
#
# Compressibility (1/GPa) = 0.02071334
#
# Stress axis : x y z
#
# Youngs Moduli (GPa) = 47.57187 47.57187 70.50058
#
# Poissons Ratio (x) = 0.48761 0.26460
# Poissons Ratio (y) = 0.48761 0.26460
# Poissons Ratio (z) = 0.17855 0.17855
#
# Static dielectric constant tensor:
#      x y z
#    x 2.939040 0.000000 0.000000 
#    y 0.000000 2.939040 0.000000 
#    z 0.000000 0.000000 3.158810 
# 
# 
# High freq. dielectric constant tensor:
#      x y z
#    x 1.617300 0.000000 0.000000 
#    y 0.000000 1.617300 0.000000 
#    z 0.000000 0.000000 1.642640 
# 
# From -- ./inp_files/2876.got.cif
#   From: 2010.03.12/outbox.cif.g09.slc.cpg/sg164_2_cif.got.tgz:2876.got - 2010.04.02 06:32:59.
