data_PCOD8323532
_publ_section_title
;
Structure prediction by ZEFSAII (Michael W. Deem and Ramdas Pophale) SiO2 
 PCOD8323532
Probable space group: P -3 M 1
;
_chemical_formula_sum "Si O2"
_cell_formula_units_Z 78
_cell_length_a 17.042211
_cell_length_b 17.042211
_cell_length_c 18.835714
_cell_angle_alpha 90.000000
_cell_angle_beta 90.000000
_cell_angle_gamma 120.000000
_cell_volume 4737.667691
_symmetry_space_group_name_H-M "P -3 M 1"
_symmetry_group_IT_number 164
_symmetry_cell_setting 'hexagonal'
loop_
_space_group_symop_operation_xyz
x,y,z
-y,x-y,z
-x+y,-x,z
x-y,-y,-z
-x,-x+y,-z
y,x,-z
-x,-y,-z
y,-x+y,-z
x-y,x,-z
-x+y,y,z
x,x-y,z
-y,-x,z
loop_
_atom_site_type_symbol
_atom_site_label
_atom_site_fract_x
_atom_site_fract_y
_atom_site_fract_z
Si Si1 0.598232 0.016298 0.886063
Si Si2 0.079360 0.334777 0.231382
Si Si3 0.986108 0.406306 0.421067
Si Si4 0.000000 0.816197 0.500000
Si Si5 0.151090 0.486786 0.986615
Si Si6 0.947731 0.235942 0.356251
Si Si7 0.667283 0.162886 0.665788
O O1 0.508904 0.017809 0.855006
O O2 0.672559 0.022682 0.829827
O O3 0.650840 0.100649 0.938783
O O4 0.564815 0.920517 0.924149
O O5 0.152956 0.305911 0.204607
O O6 0.134553 0.431960 0.266651
O O7 0.011608 0.258796 0.287407
O O8 0.940716 0.470358 0.418751
O O9 0.926394 0.317272 0.372690
O O10 0.000000 0.381289 0.500000
O O11 0.087552 0.460437 0.393473
O O12 0.913762 0.827524 0.502988
O O13 0.999224 0.766107 0.427227
O O14 0.233824 0.467647 0.979897
O O15 0.188343 0.594172 0.981265
O O16 0.855973 0.144028 0.340439
O O17 0.592929 0.185857 0.695177
O O18 0.748785 0.251216 0.629108
#
# Coordination Sequence:
#
# PCOD8323532 Si02
#       7
#    12  12  12   6  12  12  12
#     4   9  18  31  48  71 100 131 162 194 232 278
#     4  10  19  31  47  68  94 125 158 193 233 281
#     4   9  17  30  45  63  86 115 149 188 233 280
#     4  10  19  32  49  70  94 118 148 192 247 304
#     4   9  17  30  49  74 101 130 161 195 234 277
#     4  10  20  32  49  70  92 121 158 201 246 293
#     4   9  17  27  42  63  88 115 144 179 221 267
#
# _framework density 16.463797
#
# number of rings (size 3 to 8) (size 9 to 14) (size 15 to 20)
#    0.000    2.615    0.769    2.692    0.000    2.462 
#    0.000    0.000    0.000    5.538    0.000    1.077 
#    0.000    0.000    0.000    7.846    0.000    0.000 
#
# Total GULP energy -966479.288652 kJ/mol
# GULP energy per Si atom -12390.760111 kJ/mol
# Density = 1.642633 g / cm^3
# Si number density = 16.463797 Si / 1000 Ang^3
#
#
#
# Elastic Constant Matrix: (Units=GPa)
#
#
# Indices 1 2 3 4 5 6 
#
# 1 81.4639 50.9077 37.4399 3.6705 0.0000 0.0000
# 2 50.9077 81.4639 37.4399 -3.6705 0.0000 0.0000
# 3 37.4399 37.4399 75.8532 0.0000 0.0000 0.0000
# 4 3.6705 -3.6705 0.0000 19.3841 0.0000 0.0000
# 5 0.0000 0.0000 0.0000 0.0000 19.3841 3.6705
# 6 0.0000 0.0000 0.0000 0.0000 3.6705 15.2781
#
#
#
# Elastic Compliance Matrix: (Units=1/GPa)
#
#
# Indices 1 2 3 4 5 6 
#
# 1 0.022384 -0.011903 -0.005173 -0.006492 0.000000 0.000000
# 2 -0.011903 0.022384 -0.005173 0.006492 0.000000 0.000000
# 3 -0.005173 -0.005173 0.018290 0.000000 0.000000 0.000000
# 4 -0.006492 0.006492 0.000000 0.054047 0.000000 0.000000
# 5 0.000000 0.000000 0.000000 0.000000 0.054047 -0.012985
# 6 0.000000 0.000000 0.000000 0.000000 -0.012985 0.068573
#
#
# Mechanical properties :
#
#
# Convention : Reuss Voigt Hill
#
# Bulk Modulus (GPa) = 53.88182 54.48401 54.18291
# Shear Modulus (GPa) = 17.21707 18.34216 17.77962
#
# Velocity S-wave (km/s) = 3.23732 3.34142 3.28978
# Velocity P-wave (km/s) = 6.83902 6.93194 6.88564
#
# Compressibility (1/GPa) = 0.01855914
#
# Stress axis : x y z
#
# Youngs Moduli (GPa) = 44.67552 44.67552 54.67423
#
# Poissons Ratio (x) = 0.53176 0.28284
# Poissons Ratio (y) = 0.53176 0.28284
# Poissons Ratio (z) = 0.23111 0.23111
#
# Static dielectric constant tensor:
#      x y z
#    x 3.223690 0.000000 0.000000 
#    y 0.000000 3.223690 0.000000 
#    z 0.000000 0.000000 2.964160 
# 
# 
# High freq. dielectric constant tensor:
#      x y z
#    x 1.629940 0.000000 0.000000 
#    y 0.000000 1.629940 0.000000 
#    z 0.000000 0.000000 1.621380 
# 
# From -- ./inp_files/4165.got.cif
#   From: 2010.03.12/outbox.cif.g09.slc.cpg/sg164_3_cif.got.tgz:4165.got - 2010.04.02 06:32:59.
