data_PCOD8323717
_publ_section_title
;
Structure prediction by ZEFSAII (Michael W. Deem and Ramdas Pophale) SiO2 
 PCOD8323717
Probable space group: P -3 M 1
;
_chemical_formula_sum "Si O2"
_cell_formula_units_Z 66
_cell_length_a 12.616829
_cell_length_b 12.616829
_cell_length_c 27.934519
_cell_angle_alpha 90.000000
_cell_angle_beta 90.000000
_cell_angle_gamma 120.000000
_cell_volume 3850.988869
_symmetry_space_group_name_H-M "P -3 M 1"
_symmetry_group_IT_number 164
_symmetry_cell_setting 'hexagonal'
loop_
_space_group_symop_operation_xyz
x,y,z
-y,x-y,z
-x+y,-x,z
x-y,-y,-z
-x,-x+y,-z
y,x,-z
-x,-y,-z
y,-x+y,-z
x-y,x,-z
-x+y,y,z
x,x-y,z
-y,-x,z
loop_
_atom_site_type_symbol
_atom_site_label
_atom_site_fract_x
_atom_site_fract_y
_atom_site_fract_z
Si Si1 0.421318 0.334470 0.955833
Si Si2 0.333573 0.910473 0.871446
Si Si3 0.000055 0.246782 0.321904
Si Si4 0.751130 0.000000 0.500000
Si Si5 0.423656 0.333463 0.237091
Si Si6 0.331502 0.418166 0.410405
O O1 0.408641 0.204321 0.961251
O O2 0.563459 0.436542 0.956314
O O3 0.358739 0.337461 0.906147
O O4 0.351267 0.351267 0.000000
O O5 0.435062 0.870124 0.878737
O O6 0.204027 0.795974 0.885148
O O7 0.336359 0.954809 0.817111
O O8 0.875765 0.124236 0.335007
O O9 0.992249 0.301328 0.270926
O O10 0.107165 0.214330 0.319655
O O11 0.024851 0.347372 0.361755
O O12 0.767839 0.883920 0.507773
O O13 0.669855 0.986227 0.454127
O O14 0.466437 0.233219 0.241811
O O15 0.536808 0.463193 0.252567
O O16 0.229146 0.458291 0.412185
O O17 0.463119 0.536882 0.413499
#
# Coordination Sequence:
#
# PCOD8323717 Si02
#       6
#    12  12  12   6  12  12
#     4  10  20  33  50  71  95 123 155 194 238 284
#     4   9  17  30  50  74  98 125 158 197 239 283
#     4  10  20  33  50  71  97 130 166 204 243 286
#     4  10  20  34  54  78 104 134 166 200 236 280
#     4   9  17  30  49  73  99 127 160 199 242 285
#     4  10  20  34  52  73  98 128 162 202 247 293
#
# _framework density 17.138453999999999
#
# number of rings (size 3 to 8) (size 9 to 14) (size 15 to 20)
#    0.000    2.364    0.000    2.909    0.000    2.182 
#    0.000    3.636    0.000    8.727    0.000    0.000 
#    0.000    0.000    0.000    0.000    0.000    0.000 
#
# Total GULP energy -818575.860050 kJ/mol
# GULP energy per Si atom -12402.664546 kJ/mol
# Density = 1.709945 g / cm^3
# Si number density = 17.138454 Si / 1000 Ang^3
#
#
#
# Elastic Constant Matrix: (Units=GPa)
#
#
# Indices 1 2 3 4 5 6 
#
# 1 105.2565 68.5526 56.5918 -3.0646 0.0000 0.0000
# 2 68.5526 105.2565 56.5918 3.0646 0.0000 0.0000
# 3 56.5918 56.5918 115.3267 0.0000 0.0000 0.0000
# 4 -3.0646 3.0646 0.0000 21.7901 0.0000 0.0000
# 5 0.0000 0.0000 0.0000 0.0000 21.7901 -3.0646
# 6 0.0000 0.0000 0.0000 0.0000 -3.0646 18.3519
#
#
#
# Elastic Compliance Matrix: (Units=1/GPa)
#
#
# Indices 1 2 3 4 5 6 
#
# 1 0.018178 -0.009723 -0.004149 0.003924 0.000000 0.000000
# 2 -0.009723 0.018178 -0.004149 -0.003924 0.000000 0.000000
# 3 -0.004149 -0.004149 0.012743 0.000000 0.000000 0.000000
# 4 0.003924 -0.003924 0.000000 0.046996 0.000000 0.000000
# 5 0.000000 0.000000 0.000000 0.000000 0.046996 0.007848
# 6 0.000000 0.000000 0.000000 0.000000 0.007848 0.055801
#
#
# Mechanical properties :
#
#
# Convention : Reuss Voigt Hill
#
# Bulk Modulus (GPa) = 76.58577 76.59023 76.58800
# Shear Modulus (GPa) = 20.89555 21.99332 21.44444
#
# Velocity S-wave (km/s) = 3.49552 3.58617 3.54113
# Velocity P-wave (km/s) = 7.81506 7.86979 7.84247
#
# Compressibility (1/GPa) = 0.01305726
#
# Stress axis : x y z
#
# Youngs Moduli (GPa) = 55.01211 55.01211 78.47441
#
# Poissons Ratio (x) = 0.53486 0.32560
# Poissons Ratio (y) = 0.53486 0.32560
# Poissons Ratio (z) = 0.22825 0.22825
#
# Static dielectric constant tensor:
#      x y z
#    x 3.077770 0.000000 0.000000 
#    y 0.000000 3.077770 0.000000 
#    z 0.000000 0.000000 3.449780 
# 
# 
# High freq. dielectric constant tensor:
#      x y z
#    x 1.656740 0.000000 0.000000 
#    y 0.000000 1.656740 0.000000 
#    z 0.000000 0.000000 1.677910 
# 
# From -- ./inp_files/5522.got.cif
#   From: 2010.03.12/outbox.cif.g09.slc.cpg/sg164_3_cif.got.tgz:5522.got - 2010.04.02 06:32:59.
