data_PCOD8323934
_publ_section_title
;
Structure prediction by ZEFSAII (Michael W. Deem and Ramdas Pophale) SiO2 
 PCOD8323934
Probable space group: P -3 C 1
;
_chemical_formula_sum "Si O2"
_cell_formula_units_Z 36
_cell_length_a 8.817719
_cell_length_b 8.817719
_cell_length_c 26.632789
_cell_angle_alpha 90.000000
_cell_angle_beta 90.000000
_cell_angle_gamma 120.000000
_cell_volume 1793.328249
_symmetry_space_group_name_H-M "P -3 C 1"
_symmetry_group_IT_number 165
_symmetry_cell_setting 'hexagonal'
loop_
_space_group_symop_operation_xyz
x,y,z
-y,x-y,z
-x+y,-x,z
x-y,-y,1/2-z
-x,-x+y,1/2-z
y,x,1/2-z
-x,-y,-z
y,-x+y,-z
x-y,x,-z
-x+y,y,1/2+z
x,x-y,1/2+z
-y,-x,1/2+z
loop_
_atom_site_type_symbol
_atom_site_label
_atom_site_fract_x
_atom_site_fract_y
_atom_site_fract_z
Si Si1 0.333335 0.666668 0.544939
Si Si2 0.859017 0.529436 0.290332
Si Si3 0.333334 0.666667 0.926447
Si Si4 0.980619 0.651389 0.401373
Si Si5 0.000000 0.000000 0.440040
O O1 0.333334 0.666667 0.485760
O O2 0.157970 0.499286 0.563100
O O3 0.663816 0.503823 0.284127
O O4 0.921714 0.614307 0.344292
O O5 0.000000 0.660829 0.250000
O O6 0.494341 0.655916 0.904680
O O7 0.005459 0.833980 0.419352
O O8 0.000000 0.000000 0.500000
#
# Coordination Sequence:
#
# PCOD8323934 Si02
#       5
#     4  12   4  12   4
#     4  12  21  48  64 101 142 177 234 288 334 419
#     4  10  24  43  69  98 133 173 226 280 346 406
#     4  12  27  36  76  98 136 195 225 273 358 401
#     4  12  24  44  67 101 142 177 234 288 340 412
#     4  12  27  45  70 101 142 189 234 282 343 407
#
# _framework density 20.074406
#
# number of rings (size 3 to 8) (size 9 to 14) (size 15 to 20)
#    0.667    0.000    3.333    5.000    4.667    0.000 
#    0.000    0.000    0.000    0.667    0.000    0.000 
#    0.000    0.000    0.000    0.000    0.000    0.000 
#
# Total GULP energy -446364.952556 kJ/mol
# GULP energy per Si atom -12399.026460 kJ/mol
# Density = 2.002872 g / cm^3
# Si number density = 20.074406 Si / 1000 Ang^3
#
#
#
# Elastic Constant Matrix: (Units=GPa)
#
#
# Indices 1 2 3 4 5 6 
#
# 1 113.8996 26.6014 -10.0462 -2.9659 0.0000 0.0000
# 2 26.6014 113.9015 -10.0452 2.9672 0.0000 0.0000
# 3 -10.0462 -10.0452 85.5233 -0.0003 0.0000 0.0000
# 4 -2.9659 2.9672 -0.0003 37.8831 0.0000 0.0000
# 5 0.0000 0.0000 0.0000 0.0000 37.8808 -2.9662
# 6 0.0000 0.0000 0.0000 0.0000 -2.9662 43.6492
#
#
#
# Elastic Compliance Matrix: (Units=1/GPa)
#
#
# Indices 1 2 3 4 5 6 
#
# 1 0.009378 -0.002139 0.000850 0.000902 0.000000 0.000000
# 2 -0.002139 0.009377 0.000850 -0.000902 0.000000 0.000000
# 3 0.000850 0.000850 0.011892 0.000000 0.000000 0.000000
# 4 0.000902 -0.000902 0.000000 0.026538 0.000000 0.000000
# 5 0.000000 0.000000 0.000000 0.000000 0.026540 0.001804
# 6 0.000000 0.000000 0.000000 0.000000 0.001804 0.023033
#
#
# Mechanical properties :
#
#
# Convention : Reuss Voigt Hill
#
# Bulk Modulus (GPa) = 33.58914 36.26048 34.92481
# Shear Modulus (GPa) = 42.53222 44.33693 43.43457
#
# Velocity S-wave (km/s) = 4.60796 4.70470 4.65658
# Velocity P-wave (km/s) = 6.71414 6.90033 6.80787
#
# Compressibility (1/GPa) = 0.02977152
#
# Stress axis : x y z
#
# Youngs Moduli (GPa) = 106.63688 106.63869 84.08680
#
# Poissons Ratio (x) = 0.22806 -0.07151
# Poissons Ratio (y) = 0.22805 -0.07149
# Poissons Ratio (z) = -0.09068 -0.09067
#
# Static dielectric constant tensor:
#      x y z
#    x 3.612480 0.000000 0.000000 
#    y 0.000000 3.612510 0.000000 
#    z 0.000000 0.000000 3.788300 
# 
# 
# High freq. dielectric constant tensor:
#      x y z
#    x 1.792910 0.000000 0.000000 
#    y 0.000000 1.792910 0.000000 
#    z 0.000000 0.000000 1.798410 
# 
# From -- ./inp_files/3232.got.cif
#   From: 2010.03.12/outbox.cif.g09.slc.cpg/sg165_2_cif.got.tgz:3232.got - 2010.04.02 06:36:38.
