data_PCOD8323654
_publ_section_title
;
Structure prediction by ZEFSAII (Michael W. Deem and Ramdas Pophale) SiO2 
 PCOD8323654
Probable space group: P -3 M 1
;
_chemical_formula_sum "Si O2"
_cell_formula_units_Z 54
_cell_length_a 12.547515
_cell_length_b 12.547515
_cell_length_c 23.603953
_cell_angle_alpha 90.000000
_cell_angle_beta 90.000000
_cell_angle_gamma 120.000000
_cell_volume 3218.331826
_symmetry_space_group_name_H-M "P -3 M 1"
_symmetry_group_IT_number 164
_symmetry_cell_setting 'hexagonal'
loop_
_space_group_symop_operation_xyz
x,y,z
-y,x-y,z
-x+y,-x,z
x-y,-y,-z
-x,-x+y,-z
y,x,-z
-x,-y,-z
y,-x+y,-z
x-y,x,-z
-x+y,y,z
x,x-y,z
-y,-x,z
loop_
_atom_site_type_symbol
_atom_site_label
_atom_site_fract_x
_atom_site_fract_y
_atom_site_fract_z
Si Si1 0.247804 0.000999 0.940274
Si Si2 0.750452 0.000000 0.500000
Si Si3 0.417258 0.083892 0.393154
Si Si4 0.001775 0.750903 0.182288
Si Si5 0.417992 0.334175 0.713528
O O1 0.123328 0.876672 0.932085
O O2 0.214745 0.107373 0.948158
O O3 0.316579 0.016608 0.880023
O O4 0.316426 0.000000 0.000000
O O5 0.682493 0.012822 0.445546
O O6 0.883371 0.116629 0.509181
O O7 0.547375 0.094749 0.404421
O O8 0.438740 0.219370 0.385912
O O9 0.352805 0.008523 0.336898
O O10 0.106384 0.893617 0.189331
O O11 0.018484 0.666802 0.228130
O O12 0.870090 0.740180 0.191111
O O13 0.417004 0.208502 0.702673
O O14 0.557823 0.442178 0.716518
#
# Coordination Sequence:
#
# PCOD8323654 Si02
#       5
#    12   6  12  12  12
#     4   8  12  18  31  54  84 114 140 168 208 261
#     4  10  20  34  52  74 100 128 156 184 216 256
#     4  10  20  34  52  73  96 121 150 185 225 267
#     4   9  16  26  42  65  91 116 142 176 221 271
#     4  10  20  33  48  65  87 117 153 190 225 262
#
# _framework density 16.778880000000001
#
# number of rings (size 3 to 8) (size 9 to 14) (size 15 to 20)
#    0.000    2.667    0.000    2.667    0.000    2.667 
#    0.000    0.000    0.000   15.333    0.000    0.000 
#    0.000    0.000    0.000    0.000    0.000    0.000 
#
# Total GULP energy -668992.248165 kJ/mol
# GULP energy per Si atom -12388.745336 kJ/mol
# Density = 1.674069 g / cm^3
# Si number density = 16.778880 Si / 1000 Ang^3
#
#
#
# Elastic Constant Matrix: (Units=GPa)
#
#
# Indices 1 2 3 4 5 6 
#
# 1 64.0740 37.7121 64.3384 1.1943 0.0000 0.0000
# 2 37.7121 64.0740 64.3384 -1.1943 0.0000 0.0000
# 3 64.3384 64.3384 169.1358 0.0000 0.0000 0.0000
# 4 1.1943 -1.1943 0.0000 20.3352 0.0000 0.0000
# 5 0.0000 0.0000 0.0000 0.0000 20.3352 1.1943
# 6 0.0000 0.0000 0.0000 0.0000 1.1943 13.1809
#
#
#
# Elastic Compliance Matrix: (Units=1/GPa)
#
#
# Indices 1 2 3 4 5 6 
#
# 1 0.028531 -0.009605 -0.007199 -0.002240 0.000000 0.000000
# 2 -0.009605 0.028531 -0.007199 0.002240 0.000000 0.000000
# 3 -0.007199 -0.007199 0.011390 0.000000 0.000000 0.000000
# 4 -0.002240 0.002240 0.000000 0.049439 0.000000 0.000000
# 5 0.000000 0.000000 0.000000 0.000000 0.049439 -0.004480
# 6 0.000000 0.000000 0.000000 0.000000 -0.004480 0.076273
#
#
# Mechanical properties :
#
#
# Convention : Reuss Voigt Hill
#
# Bulk Modulus (GPa) = 48.91417 70.00685 59.46051
# Shear Modulus (GPa) = 16.75463 19.49659 18.12561
#
# Velocity S-wave (km/s) = 3.16342 3.41247 3.29030
# Velocity P-wave (km/s) = 6.52369 7.57234 7.06749
#
# Compressibility (1/GPa) = 0.02044397
#
# Stress axis : x y z
#
# Youngs Moduli (GPa) = 35.04947 35.04947 87.80001
#
# Poissons Ratio (x) = 0.33666 0.63209
# Poissons Ratio (y) = 0.33666 0.63209
# Poissons Ratio (z) = 0.25233 0.25233
#
# Static dielectric constant tensor:
#      x y z
#    x 2.938260 0.000000 0.000000 
#    y 0.000000 2.938260 0.000000 
#    z 0.000000 0.000000 3.710030 
# 
# 
# High freq. dielectric constant tensor:
#      x y z
#    x 1.625980 0.000000 0.000000 
#    y 0.000000 1.625980 0.000000 
#    z 0.000000 0.000000 1.678630 
# 
# From -- ./inp_files/4885.got.cif
#   From: 2010.03.12/outbox.cif.g09.slc.cpg/sg164_3_cif.got.tgz:4885.got - 2010.04.02 06:32:59.
