data_PCOD8323978
_publ_section_title
;
Structure prediction by ZEFSAII (Michael W. Deem and Ramdas Pophale) SiO2 
 PCOD8323978
Probable space group: R -3 M
;
_chemical_formula_sum "Si O2"
_cell_formula_units_Z 126
_cell_length_a 26.822037
_cell_length_b 26.822037
_cell_length_c 10.785117
_cell_angle_alpha 90.000000
_cell_angle_beta 90.000000
_cell_angle_gamma 120.000000
_cell_volume 6719.531699
_symmetry_space_group_name_H-M "R -3 M"
_symmetry_group_IT_number 166
_symmetry_cell_setting 'hexagonal'
loop_
_space_group_symop_operation_xyz
x,y,z
-y,x-y,z
-x+y,-x,z
x-y,-y,-z
-x,-x+y,-z
y,x,-z
-x,-y,-z
y,-x+y,-z
x-y,x,-z
-x+y,y,z
x,x-y,z
-y,-x,z
2/3+x,1/3+y,1/3+z
2/3-y,1/3+x-y,1/3+z
2/3-x+y,1/3-x,1/3+z
2/3+x-y,1/3-y,1/3-z
2/3-x,1/3-x+y,1/3-z
2/3+y,1/3+x,1/3-z
2/3-x,1/3-y,1/3-z
2/3+y,1/3-x+y,1/3-z
2/3+x-y,1/3+x,1/3-z
2/3-x+y,1/3+y,1/3+z
2/3+x,1/3+x-y,1/3+z
2/3-y,1/3-x,1/3+z
1/3+x,2/3+y,2/3+z
1/3-y,2/3+x-y,2/3+z
1/3-x+y,2/3-x,2/3+z
1/3+x-y,2/3-y,2/3-z
1/3-x,2/3-x+y,2/3-z
1/3+y,2/3+x,2/3-z
1/3-x,2/3-y,2/3-z
1/3+y,2/3-x+y,2/3-z
1/3+x-y,2/3+x,2/3-z
1/3-x+y,2/3+y,2/3+z
1/3+x,2/3+x-y,2/3+z
1/3-y,2/3-x,2/3+z
loop_
_atom_site_type_symbol
_atom_site_label
_atom_site_fract_x
_atom_site_fract_y
_atom_site_fract_z
Si Si1 0.896142 0.627141 0.837743
Si Si2 0.401774 0.485529 0.904699
Si Si3 0.333334 0.777548 0.166667
Si Si4 0.491348 0.617462 0.371564
O O1 0.951166 0.617832 0.833334
O O2 0.856543 0.596688 0.718025
O O3 0.918163 0.694553 0.841496
O O4 0.859700 0.599897 0.962022
O O5 0.448435 0.551566 0.871439
O O6 0.336330 0.469850 0.869497
O O7 0.384333 0.768665 0.115008
O O8 0.353900 0.821157 0.278710
O O9 0.437468 0.562533 0.439918
#
# Coordination Sequence:
#
# PCOD8323978 Si02
#       4
#    36  36  18  36
#     4   9  16  24  36  54  73  94 121 156 189 220
#     4  10  16  24  38  54  73  98 126 153 184 219
#     4  10  17  24  32  46  70 100 127 150 174 204
#     4  10  17  25  36  52  74  97 124 156 188 217
#
# _framework density 18.751307000000001
#
# number of rings (size 3 to 8) (size 9 to 14) (size 15 to 20)
#    0.000    2.286    4.286    4.429    0.000    0.000 
#    0.000    0.000    0.000    1.429    0.000    0.000 
#    0.000    0.000    0.000    0.000    0.000    0.000 
#
# Total GULP energy -520488.492922 kJ/mol
# GULP energy per Si atom -12392.583165 kJ/mol
# Density = 1.870863 g / cm^3
# Si number density = 18.751307 Si / 1000 Ang^3
#
#
#
# Elastic Constant Matrix: (Units=GPa)
#
#
# Indices 1 2 3 4 5 6 
#
# 1 125.9576 91.4366 13.4788 1.4804 -0.0057 -0.0008
# 2 91.4366 125.9657 13.4968 -1.4792 0.0008 0.0009
# 3 13.4788 13.4968 7.5723 0.0021 -0.0114 0.0000
# 4 1.4804 -1.4792 0.0021 9.2496 0.0018 0.0011
# 5 -0.0057 0.0008 -0.0114 0.0018 9.2467 1.4786
# 6 -0.0008 0.0009 0.0000 0.0011 1.4786 17.2669
#
#
#
# Elastic Compliance Matrix: (Units=1/GPa)
#
#
# Indices 1 2 3 4 5 6 
#
# 1 0.017631 -0.011731 -0.010473 -0.004696 0.000000 0.000002
# 2 -0.011731 0.017641 -0.010563 0.004701 -0.000023 0.000000
# 3 -0.010473 -0.010563 0.169531 -0.000051 0.000206 -0.000018
# 4 -0.004696 0.004701 -0.000051 0.109616 -0.000024 -0.000006
# 5 0.000000 -0.000023 0.000206 -0.000024 0.109649 -0.009390
# 6 0.000002 0.000000 -0.000018 -0.000006 -0.009390 0.058718
#
#
# Mechanical properties :
#
#
# Convention : Reuss Voigt Hill
#
# Bulk Modulus (GPa) = 7.18035 55.14663 31.16349
# Shear Modulus (GPa) = 8.40698 16.55819 12.48259
#
# Velocity S-wave (km/s) = 2.11970 2.97483 2.58290
# Velocity P-wave (km/s) = 3.13503 6.42439 5.05476
#
# Compressibility (1/GPa) = 0.13926889
#
# Stress axis : x y z
#
# Youngs Moduli (GPa) = 56.71802 56.68570 5.89863
#
# Poissons Ratio (x) = 0.66499 0.06178
# Poissons Ratio (y) = 0.66537 0.06231
# Poissons Ratio (z) = 0.59400 0.59878
#
# Static dielectric constant tensor:
#      x y z
#    x 4.044800 0.000000 -0.000010 
#    y 0.000000 4.044820 -0.000010 
#    z -0.000010 -0.000010 2.667320 
# 
# 
# High freq. dielectric constant tensor:
#      x y z
#    x 1.741100 0.000000 0.000000 
#    y 0.000000 1.741100 0.000000 
#    z 0.000000 0.000000 1.629620 
# 
# From -- ./inp_files/2865.got.cif
#   From: 2010.03.12/outbox.cif.g09.slc.cpg/sg166_2_cif.got.tgz:2865.got - 2010.04.02 06:38:31.
