data_PCOD8323828
_publ_section_title
;
Structure prediction by ZEFSAII (Michael W. Deem and Ramdas Pophale) SiO2 
 PCOD8323828
Probable space group: P -3 M 1
;
_chemical_formula_sum "Si O2"
_cell_formula_units_Z 72
_cell_length_a 23.352217
_cell_length_b 23.352217
_cell_length_c 9.863863
_cell_angle_alpha 90.000000
_cell_angle_beta 90.000000
_cell_angle_gamma 120.000000
_cell_volume 4658.369126
_symmetry_space_group_name_H-M "P -3 M 1"
_symmetry_group_IT_number 164
_symmetry_cell_setting 'hexagonal'
loop_
_space_group_symop_operation_xyz
x,y,z
-y,x-y,z
-x+y,-x,z
x-y,-y,-z
-x,-x+y,-z
y,x,-z
-x,-y,-z
y,-x+y,-z
x-y,x,-z
-x+y,y,z
x,x-y,z
-y,-x,z
loop_
_atom_site_type_symbol
_atom_site_label
_atom_site_fract_x
_atom_site_fract_y
_atom_site_fract_z
Si Si1 0.722485 0.580490 0.349620
Si Si2 0.465820 0.799771 0.156009
Si Si3 0.580491 0.722485 0.349608
Si Si4 0.666049 0.200229 0.156023
Si Si5 0.727324 0.927025 0.338476
Si Si6 0.800299 0.727323 0.338479
O O1 0.787399 0.574797 0.358724
O O2 0.690286 0.568688 0.500006
O O3 0.671013 0.525770 0.246166
O O4 0.743766 0.653706 0.294152
O O5 0.399797 0.799594 0.199357
O O6 0.453569 0.726785 0.183224
O O7 0.525771 0.854758 0.246152
O O8 0.484020 0.820095 0.999993
O O9 0.574796 0.787398 0.358711
O O10 0.653707 0.743767 0.294144
O O11 0.600204 0.200407 0.199371
O O12 0.726785 0.273216 0.183239
O O13 0.744921 0.872461 0.280202
O O14 0.728871 0.925226 0.499999
O O15 0.780126 0.000001 0.282903
O O16 0.872460 0.744919 0.280203
#
# Coordination Sequence:
#
# PCOD8323828 Si02
#       6
#    12  12  12  12  12  12
#     4   8  14  24  37  54  75  98 127 163 197 226
#     4   9  16  25  37  53  74 100 129 161 199 242
#     4   8  14  24  37  54  75  98 127 163 197 226
#     4   9  16  25  37  53  74 100 129 161 199 242
#     4   8  13  22  38  59  80 101 126 157 191 225
#     4   8  13  22  38  59  80 101 126 157 191 225
#
# _framework density 15.456053000000001
#
# number of rings (size 3 to 8) (size 9 to 14) (size 15 to 20)
#    0.000    3.667    0.000    2.333    0.000    2.000 
#    0.000    0.000    0.000    4.333    0.000    9.333 
#    0.000    0.000    0.000    0.000    0.000    0.000 
#
# Total GULP energy -892142.058035 kJ/mol
# GULP energy per Si atom -12390.861917 kJ/mol
# Density = 1.542087 g / cm^3
# Si number density = 15.456053 Si / 1000 Ang^3
#
#
#
# Elastic Constant Matrix: (Units=GPa)
#
#
# Indices 1 2 3 4 5 6 
#
# 1 98.0434 57.6355 35.3669 -0.0001 0.0000 0.0000
# 2 57.6355 98.0434 35.3669 0.0001 0.0000 0.0000
# 3 35.3669 35.3669 41.0167 0.0000 0.0000 0.0000
# 4 -0.0001 0.0001 0.0000 10.3865 0.0000 0.0000
# 5 0.0000 0.0000 0.0000 0.0000 10.3865 -0.0001
# 6 0.0000 0.0000 0.0000 0.0000 -0.0001 20.2039
#
#
#
# Elastic Compliance Matrix: (Units=1/GPa)
#
#
# Indices 1 2 3 4 5 6 
#
# 1 0.017654 -0.007093 -0.009106 0.000000 0.000000 0.000000
# 2 -0.007093 0.017654 -0.009106 0.000000 0.000000 0.000000
# 3 -0.009106 -0.009106 0.040084 0.000000 0.000000 0.000000
# 4 0.000000 0.000000 0.000000 0.096278 0.000000 0.000000
# 5 0.000000 0.000000 0.000000 0.000000 0.096278 0.000001
# 6 0.000000 0.000000 0.000000 0.000000 0.000001 0.049495
#
#
# Mechanical properties :
#
#
# Convention : Reuss Voigt Hill
#
# Bulk Modulus (GPa) = 40.35337 54.87136 47.61237
# Shear Modulus (GPa) = 13.28666 15.44434 14.36550
#
# Velocity S-wave (km/s) = 2.93515 3.16451 3.05198
# Velocity P-wave (km/s) = 6.13611 6.99505 6.57962
#
# Compressibility (1/GPa) = 0.02478108
#
# Stress axis : x y z
#
# Youngs Moduli (GPa) = 56.64336 56.64336 24.94745
#
# Poissons Ratio (x) = 0.40179 0.22718
# Poissons Ratio (y) = 0.40179 0.22718
# Poissons Ratio (z) = 0.51581 0.51581
#
# Static dielectric constant tensor:
#      x y z
#    x 3.039110 0.000000 0.000000 
#    y 0.000000 3.039110 0.000000 
#    z 0.000000 0.000000 2.876990 
# 
# 
# High freq. dielectric constant tensor:
#      x y z
#    x 1.574790 0.000000 0.000000 
#    y 0.000000 1.574790 0.000000 
#    z 0.000000 0.000000 1.559260 
# 
# From -- ./inp_files/1924.got.cif
#   From: 2010.03.12/outbox.cif.g09.slc.cpg/sg164_1_cif.got.tgz:1924.got - 2010.04.02 06:32:59.
