data_PCOD8323430
_publ_section_title
;
Structure prediction by ZEFSAII (Michael W. Deem and Ramdas Pophale) SiO2 
 PCOD8323430
Probable space group: P -3 M 1
;
_chemical_formula_sum "Si O2"
_cell_formula_units_Z 84
_cell_length_a 17.132578
_cell_length_b 17.132578
_cell_length_c 20.866077
_cell_angle_alpha 90.000000
_cell_angle_beta 90.000000
_cell_angle_gamma 120.000000
_cell_volume 5304.163136
_symmetry_space_group_name_H-M "P -3 M 1"
_symmetry_group_IT_number 164
_symmetry_cell_setting 'hexagonal'
loop_
_space_group_symop_operation_xyz
x,y,z
-y,x-y,z
-x+y,-x,z
x-y,-y,-z
-x,-x+y,-z
y,x,-z
-x,-y,-z
y,-x+y,-z
x-y,x,-z
-x+y,y,z
x,x-y,z
-y,-x,z
loop_
_atom_site_type_symbol
_atom_site_label
_atom_site_fract_x
_atom_site_fract_y
_atom_site_fract_z
Si Si1 0.724779 0.099366 0.992514
Si Si2 0.103268 0.381792 0.866620
Si Si3 0.060457 0.299680 0.689649
Si Si4 0.333727 0.845910 0.744306
Si Si5 0.842877 0.332147 0.871032
Si Si6 0.000200 0.179756 0.572290
Si Si7 0.757165 0.067029 0.807011
O O1 0.829538 0.170463 0.977116
O O2 0.662195 0.104908 0.937416
O O3 0.696601 0.120717 0.062162
O O4 0.711617 0.000000 0.000000
O O5 0.178828 0.357655 0.846224
O O6 0.106986 0.452876 0.814140
O O7 0.009558 0.286308 0.861969
O O8 0.137875 0.275749 0.708715
O O9 0.102552 0.407666 0.692491
O O10 0.023364 0.263869 0.618634
O O11 0.976531 0.250845 0.737841
O O12 0.428352 0.856704 0.722813
O O13 0.259668 0.740333 0.747626
O O14 0.860249 0.430125 0.853901
O O15 0.736768 0.263233 0.881256
O O16 0.879996 0.299102 0.811841
O O17 0.074206 0.148411 0.578423
O O18 0.000000 0.212885 0.500000
O O19 0.904341 0.095660 0.591825
O O20 0.862454 0.137547 0.821650
#
# Coordination Sequence:
#
# PCOD8323430 Si02
#       7
#    12  12  12  12  12  12  12
#     4  10  19  33  48  66  86 111 146 183 228 278
#     4   9  18  31  45  63  87 111 138 181 232 273
#     4   9  18  31  45  66  95 123 147 179 220 258
#     4   9  17  29  45  64  86 113 146 183 225 272
#     4  10  21  34  47  64  86 112 143 183 231 277
#     4   9  16  27  46  72 100 128 155 181 211 251
#     4  10  18  29  45  63  84 114 150 178 209 255
#
# _framework density 15.836617
#
# number of rings (size 3 to 8) (size 9 to 14) (size 15 to 20)
#    0.000    2.571    1.429    2.143    0.000    3.714 
#    0.000    0.000    0.000    5.429    0.000    0.000 
#    0.000    0.000    0.000    0.571    0.000    0.000 
#
# Total GULP energy -1040866.266171 kJ/mol
# GULP energy per Si atom -12391.265073 kJ/mol
# Density = 1.580057 g / cm^3
# Si number density = 15.836617 Si / 1000 Ang^3
#
#
#
# Elastic Constant Matrix: (Units=GPa)
#
#
# Indices 1 2 3 4 5 6 
#
# 1 83.5849 41.8341 34.8652 -1.5362 0.0000 0.0000
# 2 41.8341 83.5849 34.8652 1.5362 0.0000 0.0000
# 3 34.8652 34.8652 97.0583 0.0000 0.0000 0.0000
# 4 -1.5362 1.5362 0.0000 17.8602 0.0000 0.0000
# 5 0.0000 0.0000 0.0000 0.0000 17.8602 -1.5362
# 6 0.0000 0.0000 0.0000 0.0000 -1.5362 20.8754
#
#
#
# Elastic Compliance Matrix: (Units=1/GPa)
#
#
# Indices 1 2 3 4 5 6 
#
# 1 0.017034 -0.007071 -0.003579 0.002073 0.000000 0.000000
# 2 -0.007071 0.017034 -0.003579 -0.002073 0.000000 0.000000
# 3 -0.003579 -0.003579 0.012874 0.000000 0.000000 0.000000
# 4 0.002073 -0.002073 0.000000 0.056347 0.000000 0.000000
# 5 0.000000 0.000000 0.000000 0.000000 0.056347 0.004147
# 6 0.000000 0.000000 0.000000 0.000000 0.004147 0.048208
#
#
# Mechanical properties :
#
#
# Convention : Reuss Voigt Hill
#
# Bulk Modulus (GPa) = 54.09860 54.15081 54.12470
# Shear Modulus (GPa) = 20.62174 21.49674 21.05924
#
# Velocity S-wave (km/s) = 3.61245 3.68830 3.65057
# Velocity P-wave (km/s) = 7.18571 7.23918 7.21249
#
# Compressibility (1/GPa) = 0.01848477
#
# Stress axis : x y z
#
# Youngs Moduli (GPa) = 58.70739 58.70739 77.67392
#
# Poissons Ratio (x) = 0.41509 0.27799
# Poissons Ratio (y) = 0.41509 0.27799
# Poissons Ratio (z) = 0.21011 0.21011
#
# Static dielectric constant tensor:
#      x y z
#    x 2.951030 0.000000 0.000000 
#    y 0.000000 2.951030 0.000000 
#    z 0.000000 0.000000 3.023990 
# 
# 
# High freq. dielectric constant tensor:
#      x y z
#    x 1.597850 0.000000 0.000000 
#    y 0.000000 1.597850 0.000000 
#    z 0.000000 0.000000 1.592070 
# 
# From -- ./inp_files/4656.got.cif
#   From: 2010.03.12/outbox.cif.g09.slc.cpg/sg164_3_cif.got.tgz:4656.got - 2010.04.02 06:32:59.
