data_PCOD8323929
_publ_section_title
;
Structure prediction by ZEFSAII (Michael W. Deem and Ramdas Pophale) SiO2 
 PCOD8323929
Probable space group: P -3 C 1
;
_chemical_formula_sum "Si O2"
_cell_formula_units_Z 74
_cell_length_a 17.559747
_cell_length_b 17.559747
_cell_length_c 14.078268
_cell_angle_alpha 90.000000
_cell_angle_beta 90.000000
_cell_angle_gamma 120.000000
_cell_volume 3759.381230
_symmetry_space_group_name_H-M "P -3 C 1"
_symmetry_group_IT_number 165
_symmetry_cell_setting 'hexagonal'
loop_
_space_group_symop_operation_xyz
x,y,z
-y,x-y,z
-x+y,-x,z
x-y,-y,1/2-z
-x,-x+y,1/2-z
y,x,1/2-z
-x,-y,-z
y,-x+y,-z
x-y,x,-z
-x+y,y,1/2+z
x,x-y,1/2+z
-y,-x,1/2+z
loop_
_atom_site_type_symbol
_atom_site_label
_atom_site_fract_x
_atom_site_fract_y
_atom_site_fract_z
Si Si1 0.616131 0.000000 0.250000
Si Si2 0.333334 0.666668 0.176596
Si Si3 0.621908 0.931031 0.620814
Si Si4 0.548928 0.145835 0.071521
Si Si5 0.424661 0.874730 0.633844
Si Si6 0.666667 0.333334 0.099980
Si Si7 0.404133 0.287860 0.090095
Si Si8 0.606546 0.726034 0.320308
O O1 0.524919 0.916803 0.213363
O O2 0.651105 0.964278 0.336480
O O3 0.385705 0.769143 0.144390
O O4 0.333334 0.666667 0.288001
O O5 0.530076 0.929470 0.629958
O O6 0.633729 0.901382 0.516787
O O7 0.618050 0.867817 0.707921
O O8 0.707576 0.025642 0.640701
O O9 0.582877 0.248690 0.058366
O O10 0.629894 0.131858 0.095933
O O11 0.482188 0.114078 0.160162
O O12 0.502966 0.103966 0.970605
O O13 0.396384 0.197609 0.121492
#
# Coordination Sequence:
#
# PCOD8323929 Si02
#       8
#     6   4  12  12  12   4  12  12
#     4  12  24  40  56  84 116 152 200 262 306 348
#     4  12  25  35  61  87 115 164 212 251 286 361
#     4  10  23  40  56  83 113 155 197 249 301 353
#     4  11  21  35  55  82 109 148 197 255 292 352
#     4  11  24  38  57  84 117 153 207 254 306 343
#     4  12  19  32  46  81 112 140 200 254 292 325
#     4  11  24  38  59  84 113 155 200 247 306 352
#     4  11  22  39  60  79 116 156 199 243 304 365
#
# _framework density 19.684090000000001
#
# number of rings (size 3 to 8) (size 9 to 14) (size 15 to 20)
#    0.000    0.973    1.622    6.811    4.541    3.892 
#    0.000    0.000    0.000    0.000    0.000    0.000 
#    0.000    0.000    0.000   30.649    0.000    0.000 
#
# Total GULP energy -916828.242417 kJ/mol
# GULP energy per Si atom -12389.570843 kJ/mol
# Density = 1.963929 g / cm^3
# Si number density = 19.684090 Si / 1000 Ang^3
#
#
#
# Elastic Constant Matrix: (Units=GPa)
#
#
# Indices 1 2 3 4 5 6 
#
# 1 66.1714 20.7730 45.5434 3.5036 0.0000 0.0000
# 2 20.7730 66.1706 45.5437 -3.5035 0.0000 0.0000
# 3 45.5434 45.5437 192.9485 0.0001 0.0000 0.0000
# 4 3.5036 -3.5035 0.0001 26.9567 0.0000 0.0000
# 5 0.0000 0.0000 0.0000 0.0000 26.9568 3.5033
# 6 0.0000 0.0000 0.0000 0.0000 3.5033 22.6983
#
#
#
# Elastic Compliance Matrix: (Units=1/GPa)
#
#
# Indices 1 2 3 4 5 6 
#
# 1 0.018879 -0.003599 -0.003607 -0.002921 0.000000 0.000000
# 2 -0.003599 0.018879 -0.003607 0.002921 0.000000 0.000000
# 3 -0.003607 -0.003607 0.006885 0.000000 0.000000 0.000000
# 4 -0.002921 0.002921 0.000000 0.037856 0.000000 0.000000
# 5 0.000000 0.000000 0.000000 0.000000 0.037856 -0.005843
# 6 0.000000 0.000000 0.000000 0.000000 -0.005843 0.044958
#
#
# Mechanical properties :
#
#
# Convention : Reuss Voigt Hill
#
# Bulk Modulus (GPa) = 43.44247 61.00120 52.22183
# Shear Modulus (GPa) = 25.69218 29.55104 27.62161
#
# Velocity S-wave (km/s) = 3.61671 3.87882 3.75006
# Velocity P-wave (km/s) = 6.28956 7.14966 6.73336
#
# Compressibility (1/GPa) = 0.02301895
#
# Stress axis : x y z
#
# Youngs Moduli (GPa) = 52.96854 52.96759 145.23465
#
# Poissons Ratio (x) = 0.19063 0.52382
# Poissons Ratio (y) = 0.19063 0.52383
# Poissons Ratio (z) = 0.19104 0.19104
#
# Static dielectric constant tensor:
#      x y z
#    x 3.683880 0.000000 0.000000 
#    y 0.000000 3.683990 -0.000010 
#    z 0.000000 -0.000010 4.174230 
# 
# 
# High freq. dielectric constant tensor:
#      x y z
#    x 1.726570 0.000000 0.000000 
#    y 0.000000 1.726570 0.000000 
#    z 0.000000 0.000000 1.808220 
# 
# From -- ./inp_files/1860.got.cif
#   From: 2010.03.12/outbox.cif.g09.slc.cpg/sg165_1_cif.got.tgz:1860.got - 2010.04.02 06:36:38.
