data_PCOD8323422
_publ_section_title
;
Structure prediction by ZEFSAII (Michael W. Deem and Ramdas Pophale) SiO2 
 PCOD8323422
Probable space group: P -3 M 1
;
_chemical_formula_sum "Si O2"
_cell_formula_units_Z 96
_cell_length_a 17.372426
_cell_length_b 17.372426
_cell_length_c 23.363982
_cell_angle_alpha 90.000000
_cell_angle_beta 90.000000
_cell_angle_gamma 120.000000
_cell_volume 6106.585407
_symmetry_space_group_name_H-M "P -3 M 1"
_symmetry_group_IT_number 164
_symmetry_cell_setting 'hexagonal'
loop_
_space_group_symop_operation_xyz
x,y,z
-y,x-y,z
-x+y,-x,z
x-y,-y,-z
-x,-x+y,-z
y,x,-z
-x,-y,-z
y,-x+y,-z
x-y,x,-z
-x+y,y,z
x,x-y,z
-y,-x,z
loop_
_atom_site_type_symbol
_atom_site_label
_atom_site_fract_x
_atom_site_fract_y
_atom_site_fract_z
Si Si1 0.517340 0.666267 0.517652
Si Si2 0.579090 0.976691 0.415389
Si Si3 0.425891 0.396357 0.711900
Si Si4 0.906840 0.537772 0.028954
Si Si5 0.645047 0.911394 0.185067
Si Si6 0.496127 0.330816 0.911497
Si Si7 0.095308 0.732889 0.860969
Si Si8 0.507695 0.840082 0.760258
O O1 0.518490 0.759245 0.526357
O O2 0.415507 0.584494 0.521407
O O3 0.581932 0.656660 0.564127
O O4 0.562080 0.666667 0.456708
O O5 0.492596 0.985191 0.414936
O O6 0.596121 0.951475 0.351961
O O7 0.529555 0.470446 0.720367
O O8 0.402209 0.316912 0.756361
O O9 0.364839 0.441093 0.718745
O O10 0.875469 0.437735 0.053083
O O11 0.915280 0.607576 0.076286
O O12 0.842899 0.534191 0.977652
O O13 0.000000 0.571894 0.000000
O O14 0.675141 0.837571 0.191288
O O15 0.582354 0.894465 0.131118
O O16 0.726858 0.007791 0.168353
O O17 0.536399 0.268200 0.894227
O O18 0.566805 0.433196 0.902989
O O19 0.162537 0.837464 0.863868
O O20 0.132607 0.681569 0.823235
O O21 0.404156 0.808312 0.764672
O O22 0.517773 0.758887 0.735433
#
# Coordination Sequence:
#
# PCOD8323422 Si02
#       8
#    12  12  12  12  12  12  12  12
#     4   9  16  27  44  65  90 120 153 185 215 251
#     4   8  16  29  42  61  90 120 149 183 221 252
#     4   9  17  30  46  62  86 121 152 178 214 258
#     4  10  18  28  45  66  88 113 144 179 213 255
#     4  10  20  32  47  66  86 109 144 185 222 261
#     4  10  19  30  44  64  90 118 146 178 215 255
#     4  10  19  32  47  64  85 112 144 179 224 274
#     4   9  17  27  42  63  89 118 149 182 216 256
#
# _framework density 15.720732
#
# number of rings (size 3 to 8) (size 9 to 14) (size 15 to 20)
#    0.000    2.625    1.250    2.250    0.000    2.000 
#    0.000    0.000    0.000    6.000    0.000    0.000 
#    0.000    0.500    0.000   12.000    0.000    0.000 
#
# Total GULP energy -1189436.736322 kJ/mol
# GULP energy per Si atom -12389.966003 kJ/mol
# Density = 1.568495 g / cm^3
# Si number density = 15.720732 Si / 1000 Ang^3
#
#
#
# Elastic Constant Matrix: (Units=GPa)
#
#
# Indices 1 2 3 4 5 6 
#
# 1 72.0188 33.2733 27.8066 0.9187 0.0000 0.0000
# 2 33.2733 72.0188 27.8066 -0.9187 0.0000 0.0000
# 3 27.8066 27.8066 86.2715 0.0000 0.0000 0.0000
# 4 0.9187 -0.9187 0.0000 16.9344 0.0000 0.0000
# 5 0.0000 0.0000 0.0000 0.0000 16.9344 0.9187
# 6 0.0000 0.0000 0.0000 0.0000 0.9187 19.3727
#
#
#
# Elastic Compliance Matrix: (Units=1/GPa)
#
#
# Indices 1 2 3 4 5 6 
#
# 1 0.018661 -0.007215 -0.003689 -0.001404 0.000000 0.000000
# 2 -0.007215 0.018661 -0.003689 0.001404 0.000000 0.000000
# 3 -0.003689 -0.003689 0.013969 0.000000 0.000000 0.000000
# 4 -0.001404 0.001404 0.000000 0.059204 0.000000 0.000000
# 5 0.000000 0.000000 0.000000 0.000000 0.059204 -0.002808
# 6 0.000000 0.000000 0.000000 0.000000 -0.002808 0.051752
#
#
# Mechanical properties :
#
#
# Convention : Reuss Voigt Hill
#
# Bulk Modulus (GPa) = 45.23950 45.34246 45.29098
# Shear Modulus (GPa) = 19.37935 20.07645 19.72790
#
# Velocity S-wave (km/s) = 3.51483 3.57749 3.54630
# Velocity P-wave (km/s) = 6.73138 6.78009 6.75578
#
# Compressibility (1/GPa) = 0.02210458
#
# Stress axis : x y z
#
# Youngs Moduli (GPa) = 53.58765 53.58765 71.58458
#
# Poissons Ratio (x) = 0.38664 0.26409
# Poissons Ratio (y) = 0.38664 0.26409
# Poissons Ratio (z) = 0.19770 0.19770
#
# Static dielectric constant tensor:
#      x y z
#    x 2.840420 0.000000 0.000000 
#    y 0.000000 2.840420 0.000000 
#    z 0.000000 0.000000 3.665510 
# 
# 
# High freq. dielectric constant tensor:
#      x y z
#    x 1.583360 0.000000 0.000000 
#    y 0.000000 1.583360 0.000000 
#    z 0.000000 0.000000 1.608690 
# 
# From -- ./inp_files/5102.got.cif
#   From: 2010.03.12/outbox.cif.g09.slc.cpg/sg164_3_cif.got.tgz:5102.got - 2010.04.02 06:32:59.
