data_PCOD8323900
_publ_section_title
;
Structure prediction by ZEFSAII (Michael W. Deem and Ramdas Pophale) SiO2 
 PCOD8323900
Probable space group: P -3 C 1
;
_chemical_formula_sum "Si O2"
_cell_formula_units_Z 76
_cell_length_a 16.199946
_cell_length_b 16.199946
_cell_length_c 16.620130
_cell_angle_alpha 90.000000
_cell_angle_beta 90.000000
_cell_angle_gamma 120.000000
_cell_volume 3777.393093
_symmetry_space_group_name_H-M "P -3 C 1"
_symmetry_group_IT_number 165
_symmetry_cell_setting 'hexagonal'
loop_
_space_group_symop_operation_xyz
x,y,z
-y,x-y,z
-x+y,-x,z
x-y,-y,1/2-z
-x,-x+y,1/2-z
y,x,1/2-z
-x,-y,-z
y,-x+y,-z
x-y,x,-z
-x+y,y,1/2+z
x,x-y,1/2+z
-y,-x,1/2+z
loop_
_atom_site_type_symbol
_atom_site_label
_atom_site_fract_x
_atom_site_fract_y
_atom_site_fract_z
Si Si1 0.546858 0.934744 0.430365
Si Si2 0.000000 0.000000 0.655990
Si Si3 0.765983 0.547029 0.366951
Si Si4 0.942261 0.238276 0.465321
Si Si5 0.118220 0.900954 0.390865
Si Si6 0.633581 0.738296 0.784964
Si Si7 0.428895 0.867669 0.578251
O O1 0.637972 0.975892 0.489825
O O2 0.559582 0.877001 0.357340
O O3 0.455119 0.864153 0.484167
O O4 0.539659 0.024096 0.396992
O O5 0.956370 0.893673 0.625484
O O6 0.000000 0.000000 0.750000
O O7 0.799715 0.643034 0.417567
O O8 0.812703 0.575003 0.279156
O O9 0.798582 0.481586 0.413367
O O10 0.651054 0.486238 0.361812
O O11 0.927912 0.158774 0.529089
O O12 0.024292 0.254153 0.402890
O O13 0.110779 0.835034 0.315823
O O14 0.670078 0.670078 0.750000
#
# Coordination Sequence:
#
# PCOD8323900 Si02
#       7
#    12   4  12  12  12  12  12
#     4   9  20  41  67  91 121 166 213 257 320 382
#     4  12  27  37  53  85 126 181 209 271 330 367
#     4  11  23  40  68  95 127 165 207 263 339 381
#     4  10  22  39  64  92 121 168 219 270 309 382
#     4  11  24  39  60  88 126 168 227 264 311 378
#     4  11  23  41  64  91 127 173 208 268 326 379
#     4  10  20  40  65  93 121 162 212 259 313 394
#
# _framework density 20.119696999999999
#
# number of rings (size 3 to 8) (size 9 to 14) (size 15 to 20)
#    0.000    1.579    1.579    2.684    6.632    0.632 
#    0.000   12.632    0.000    0.000    0.000    0.000 
#    0.000    0.000    0.000    0.000    0.000    0.000 
#
# Total GULP energy -942592.915702 kJ/mol
# GULP energy per Si atom -12402.538364 kJ/mol
# Density = 2.007390 g / cm^3
# Si number density = 20.119697 Si / 1000 Ang^3
#
#
#
# Elastic Constant Matrix: (Units=GPa)
#
#
# Indices 1 2 3 4 5 6 
#
# 1 100.0653 28.1554 47.6385 -7.9297 0.0000 0.0000
# 2 28.1554 100.0653 47.6385 7.9297 0.0000 0.0000
# 3 47.6385 47.6385 105.2563 0.0000 0.0000 0.0000
# 4 -7.9297 7.9297 0.0000 36.2504 0.0000 0.0000
# 5 0.0000 0.0000 0.0000 0.0000 36.2504 -7.9297
# 6 0.0000 0.0000 0.0000 0.0000 -7.9297 35.9549
#
#
#
# Elastic Compliance Matrix: (Units=1/GPa)
#
#
# Indices 1 2 3 4 5 6 
#
# 1 0.013181 -0.001430 -0.005318 0.003196 0.000000 0.000000
# 2 -0.001430 0.013181 -0.005318 -0.003196 0.000000 0.000000
# 3 -0.005318 -0.005318 0.014315 0.000000 0.000000 0.000000
# 4 0.003196 -0.003196 0.000000 0.028984 0.000000 0.000000
# 5 0.000000 0.000000 0.000000 0.000000 0.028984 0.006392
# 6 0.000000 0.000000 0.000000 0.000000 0.006392 0.029222
#
#
# Mechanical properties :
#
#
# Convention : Reuss Voigt Hill
#
# Bulk Modulus (GPa) = 60.44826 61.36128 60.90477
# Shear Modulus (GPa) = 31.74272 33.82143 32.78208
#
# Velocity S-wave (km/s) = 3.97633 4.10446 4.04090
# Velocity P-wave (km/s) = 7.15480 7.28193 7.21864
#
# Compressibility (1/GPa) = 0.01654307
#
# Stress axis : x y z
#
# Youngs Moduli (GPa) = 75.86602 75.86602 69.85750
#
# Poissons Ratio (x) = 0.10849 0.37154
# Poissons Ratio (y) = 0.10849 0.37154
# Poissons Ratio (z) = 0.40349 0.40349
#
# Static dielectric constant tensor:
#      x y z
#    x 3.733670 0.000000 0.000000 
#    y 0.000000 3.733670 0.000000 
#    z 0.000000 0.000000 3.638590 
# 
# 
# High freq. dielectric constant tensor:
#      x y z
#    x 1.790110 0.000000 0.000000 
#    y 0.000000 1.790110 0.000000 
#    z 0.000000 0.000000 1.778500 
# 
# From -- ./inp_files/1815.got.cif
#   From: 2010.03.12/outbox.cif.g09.slc.cpg/sg165_1_cif.got.tgz:1815.got - 2010.04.02 06:36:38.
