data_PCOD8323650
_publ_section_title
;
Structure prediction by ZEFSAII (Michael W. Deem and Ramdas Pophale) SiO2 
 PCOD8323650
Probable space group: P -3 M 1
;
_chemical_formula_sum "Si O2"
_cell_formula_units_Z 66
_cell_length_a 12.633358
_cell_length_b 12.633358
_cell_length_c 28.648180
_cell_angle_alpha 90.000000
_cell_angle_beta 90.000000
_cell_angle_gamma 120.000000
_cell_volume 3959.727273
_symmetry_space_group_name_H-M "P -3 M 1"
_symmetry_group_IT_number 164
_symmetry_cell_setting 'hexagonal'
loop_
_space_group_symop_operation_xyz
x,y,z
-y,x-y,z
-x+y,-x,z
x-y,-y,-z
-x,-x+y,-z
y,x,-z
-x,-y,-z
y,-x+y,-z
x-y,x,-z
-x+y,y,z
x,x-y,z
-y,-x,z
loop_
_atom_site_type_symbol
_atom_site_label
_atom_site_fract_x
_atom_site_fract_y
_atom_site_fract_z
Si Si1 0.000000 0.753448 0.000000
Si Si2 0.418971 0.332203 0.912551
Si Si3 0.002236 0.753327 0.373217
Si Si4 0.334462 0.420802 0.543420
Si Si5 0.249723 0.246791 0.829151
Si Si6 0.237986 0.239959 0.272169
O O1 0.979293 0.669293 0.955670
O O2 0.885116 0.770232 0.010532
O O3 0.455957 0.227978 0.909056
O O4 0.539296 0.460704 0.919402
O O5 0.350363 0.336709 0.865760
O O6 0.122326 0.877675 0.388387
O O7 0.019353 0.708071 0.321355
O O8 0.889294 0.778587 0.372800
O O9 0.981398 0.648496 0.409394
O O10 0.353856 0.353856 0.500000
O O11 0.209004 0.418007 0.535000
O O12 0.440355 0.559646 0.548103
O O13 0.214497 0.107249 0.839885
O O14 0.311937 0.288049 0.777041
O O15 0.127539 0.255077 0.833794
O O16 0.091921 0.183842 0.273948
O O17 0.269891 0.134946 0.269851
#
# Coordination Sequence:
#
# PCOD8323650 Si02
#       6
#     6  12  12  12  12  12
#     4  10  20  34  54  78 100 118 140 180 234 284
#     4  10  20  33  48  66  91 125 161 191 218 255
#     4   9  16  27  45  69  95 119 144 178 222 271
#     4  10  20  33  48  65  86 114 148 185 224 267
#     4   9  16  27  46  71  96 120 148 187 233 275
#     4   8  13  22  39  65  94 120 145 176 220 271
#
# _framework density 16.667814
#
# number of rings (size 3 to 8) (size 9 to 14) (size 15 to 20)
#    0.000    2.727    0.000    2.364    0.000    2.909 
#    0.000    2.727    0.000    7.273    0.000    0.000 
#    0.000    0.000    0.000    0.000    0.000    0.000 
#
# Total GULP energy -817762.981565 kJ/mol
# GULP energy per Si atom -12390.348206 kJ/mol
# Density = 1.662988 g / cm^3
# Si number density = 16.667814 Si / 1000 Ang^3
#
#
#
# Elastic Constant Matrix: (Units=GPa)
#
#
# Indices 1 2 3 4 5 6 
#
# 1 75.4603 45.5570 52.8153 2.1854 0.0000 0.0000
# 2 45.5570 75.4603 52.8153 -2.1854 0.0000 0.0000
# 3 52.8153 52.8153 138.2349 0.0000 0.0000 0.0000
# 4 2.1854 -2.1854 0.0000 17.1221 0.0000 0.0000
# 5 0.0000 0.0000 0.0000 0.0000 17.1221 2.1854
# 6 0.0000 0.0000 0.0000 0.0000 2.1854 14.9517
#
#
#
# Elastic Compliance Matrix: (Units=1/GPa)
#
#
# Indices 1 2 3 4 5 6 
#
# 1 0.023237 -0.010839 -0.004737 -0.004349 0.000000 0.000000
# 2 -0.010839 0.023237 -0.004737 0.004349 0.000000 0.000000
# 3 -0.004737 -0.004737 0.010854 0.000000 0.000000 0.000000
# 4 -0.004349 0.004349 0.000000 0.059514 0.000000 0.000000
# 5 0.000000 0.000000 0.000000 0.000000 0.059514 -0.008699
# 6 0.000000 0.000000 0.000000 0.000000 -0.008699 0.068154
#
#
# Mechanical properties :
#
#
# Convention : Reuss Voigt Hill
#
# Bulk Modulus (GPa) = 59.87298 65.72562 62.79930
# Shear Modulus (GPa) = 17.19962 19.03704 18.11833
#
# Velocity S-wave (km/s) = 3.21581 3.38323 3.30058
# Velocity P-wave (km/s) = 7.05606 7.40135 7.23076
#
# Compressibility (1/GPa) = 0.01670202
#
# Stress axis : x y z
#
# Youngs Moduli (GPa) = 43.03421 43.03421 92.13480
#
# Poissons Ratio (x) = 0.46647 0.43643
# Poissons Ratio (y) = 0.46647 0.43643
# Poissons Ratio (z) = 0.20385 0.20385
#
# Static dielectric constant tensor:
#      x y z
#    x 2.885490 0.000000 0.000000 
#    y 0.000000 2.885490 0.000000 
#    z 0.000000 0.000000 3.677870 
# 
# 
# High freq. dielectric constant tensor:
#      x y z
#    x 1.617190 0.000000 0.000000 
#    y 0.000000 1.617190 0.000000 
#    z 0.000000 0.000000 1.670920 
# 
# From -- ./inp_files/5434.got.cif
#   From: 2010.03.12/outbox.cif.g09.slc.cpg/sg164_3_cif.got.tgz:5434.got - 2010.04.02 06:32:59.
