data_PCOD8323468
_publ_section_title
;
Structure prediction by ZEFSAII (Michael W. Deem and Ramdas Pophale) SiO2 
 PCOD8323468
Probable space group: P -3 M 1
;
_chemical_formula_sum "Si O2"
_cell_formula_units_Z 84
_cell_length_a 17.318448
_cell_length_b 17.318448
_cell_length_c 20.019992
_cell_angle_alpha 90.000000
_cell_angle_beta 90.000000
_cell_angle_gamma 120.000000
_cell_volume 5200.109289
_symmetry_space_group_name_H-M "P -3 M 1"
_symmetry_group_IT_number 164
_symmetry_cell_setting 'hexagonal'
loop_
_space_group_symop_operation_xyz
x,y,z
-y,x-y,z
-x+y,-x,z
x-y,-y,-z
-x,-x+y,-z
y,x,-z
-x,-y,-z
y,-x+y,-z
x-y,x,-z
-x+y,y,z
x,x-y,z
-y,-x,z
loop_
_atom_site_type_symbol
_atom_site_label
_atom_site_fract_x
_atom_site_fract_y
_atom_site_fract_z
Si Si1 0.820763 0.001534 0.830591
Si Si2 0.508361 0.841143 0.845913
Si Si3 0.234480 0.291943 0.300711
Si Si4 0.467276 0.363924 0.006918
Si Si5 0.821688 0.821544 0.424988
Si Si6 0.099062 0.731076 0.117452
Si Si7 0.577628 0.597201 0.228325
O O1 0.807311 0.903656 0.844794
O O2 0.790463 0.006231 0.755123
O O3 0.756897 0.020091 0.880711
O O4 0.924680 0.075321 0.841387
O O5 0.404087 0.808173 0.850447
O O6 0.522004 0.761002 0.822268
O O7 0.554763 0.915923 0.789625
O O8 0.551860 0.874941 0.918955
O O9 0.162045 0.324090 0.300528
O O10 0.239808 0.255321 0.373200
O O11 0.331631 0.377237 0.287595
O O12 0.574798 0.425203 0.993177
O O13 0.412716 0.283726 0.955278
O O14 0.429161 0.429161 0.000000
O O15 0.787146 0.787146 0.500000
O O16 0.907342 0.814684 0.406880
O O17 0.848816 0.924408 0.417419
O O18 0.184190 0.815811 0.150612
O O19 0.075106 0.644830 0.161618
O O20 0.478969 0.521032 0.250226
#
# Coordination Sequence:
#
# PCOD8323468 Si02
#       7
#    12  12  12  12  12  12  12
#     4   9  17  28  43  63  90 121 152 182 212 247
#     4  10  20  32  48  67  86 108 136 176 224 275
#     4   9  18  31  46  66  93 121 152 188 218 252
#     4  10  18  32  48  63  82 105 137 175 223 279
#     4   9  16  26  43  70 104 137 162 183 210 246
#     4  10  19  31  46  65  87 110 141 184 224 264
#     4  10  19  32  49  65  86 117 146 179 226 272
#
# _framework density 16.153506
#
# number of rings (size 3 to 8) (size 9 to 14) (size 15 to 20)
#    0.000    2.429    1.429    3.000    0.000    3.429 
#    0.000    1.429    0.000    6.429    0.000    0.000 
#    0.000    2.857    0.000    0.286    0.000    0.000 
#
# Total GULP energy -1041050.415236 kJ/mol
# GULP energy per Si atom -12393.457324 kJ/mol
# Density = 1.611674 g / cm^3
# Si number density = 16.153506 Si / 1000 Ang^3
#
#
#
# Elastic Constant Matrix: (Units=GPa)
#
#
# Indices 1 2 3 4 5 6 
#
# 1 89.9100 51.5740 36.0969 -3.6655 0.0000 0.0000
# 2 51.5740 89.9100 36.0969 3.6655 0.0000 0.0000
# 3 36.0969 36.0969 71.1974 0.0000 0.0000 0.0000
# 4 -3.6655 3.6655 0.0000 21.6274 0.0000 0.0000
# 5 0.0000 0.0000 0.0000 0.0000 21.6274 -3.6655
# 6 0.0000 0.0000 0.0000 0.0000 -3.6655 19.1680
#
#
#
# Elastic Compliance Matrix: (Units=1/GPa)
#
#
# Indices 1 2 3 4 5 6 
#
# 1 0.018247 -0.008712 -0.004834 0.004569 0.000000 0.000000
# 2 -0.008712 0.018247 -0.004834 -0.004569 0.000000 0.000000
# 3 -0.004834 -0.004834 0.018947 0.000000 0.000000 0.000000
# 4 0.004569 -0.004569 0.000000 0.047786 0.000000 0.000000
# 5 0.000000 0.000000 0.000000 0.000000 0.047786 0.009138
# 6 0.000000 0.000000 0.000000 0.000000 0.009138 0.053918
#
#
# Mechanical properties :
#
#
# Convention : Reuss Voigt Hill
#
# Bulk Modulus (GPa) = 53.53256 55.39478 54.46367
# Shear Modulus (GPa) = 20.16793 20.96787 20.56790
#
# Velocity S-wave (km/s) = 3.53727 3.60674 3.57217
# Velocity P-wave (km/s) = 7.06363 7.19110 7.12765
#
# Compressibility (1/GPa) = 0.01868022
#
# Stress axis : x y z
#
# Youngs Moduli (GPa) = 54.80428 54.80428 52.77853
#
# Poissons Ratio (x) = 0.47747 0.25513
# Poissons Ratio (y) = 0.47747 0.25513
# Poissons Ratio (z) = 0.26492 0.26492
#
# Static dielectric constant tensor:
#      x y z
#    x 3.114310 0.000000 0.000000 
#    y 0.000000 3.114310 0.000000 
#    z 0.000000 0.000000 3.001670 
# 
# 
# High freq. dielectric constant tensor:
#      x y z
#    x 1.615890 0.000000 0.000000 
#    y 0.000000 1.615890 0.000000 
#    z 0.000000 0.000000 1.589340 
# 
# From -- ./inp_files/4661.got.cif
#   From: 2010.03.12/outbox.cif.g09.slc.cpg/sg164_3_cif.got.tgz:4661.got - 2010.04.02 06:32:59.
