data_PCOD8323701
_publ_section_title
;
Structure prediction by ZEFSAII (Michael W. Deem and Ramdas Pophale) SiO2 
 PCOD8323701
Probable space group: P -3 M 1
;
_chemical_formula_sum "Si O2"
_cell_formula_units_Z 66
_cell_length_a 12.820967
_cell_length_b 12.820967
_cell_length_c 28.162609
_cell_angle_alpha 90.000000
_cell_angle_beta 90.000000
_cell_angle_gamma 120.000000
_cell_volume 4009.083318
_symmetry_space_group_name_H-M "P -3 M 1"
_symmetry_group_IT_number 164
_symmetry_cell_setting 'hexagonal'
loop_
_space_group_symop_operation_xyz
x,y,z
-y,x-y,z
-x+y,-x,z
x-y,-y,-z
-x,-x+y,-z
y,x,-z
-x,-y,-z
y,-x+y,-z
x-y,x,-z
-x+y,y,z
x,x-y,z
-y,-x,z
loop_
_atom_site_type_symbol
_atom_site_label
_atom_site_fract_x
_atom_site_fract_y
_atom_site_fract_z
Si Si1 0.426258 0.333005 0.711438
Si Si2 0.242306 0.000000 0.000000
Si Si3 0.757191 0.000531 0.370422
Si Si4 0.666068 0.574492 0.818986
Si Si5 0.576804 0.666621 0.543334
Si Si6 0.754478 0.754652 0.897707
O O1 0.467641 0.233821 0.706231
O O2 0.539146 0.460855 0.696732
O O3 0.313278 0.301677 0.678175
O O4 0.383506 0.335292 0.765093
O O5 0.302322 0.994590 0.050334
O O6 0.222891 0.111446 0.003893
O O7 0.893815 0.106185 0.363965
O O8 0.689679 0.029500 0.411380
O O9 0.757445 0.878723 0.383456
O O10 0.777380 0.554760 0.828166
O O11 0.549726 0.450275 0.830482
O O12 0.668589 0.671224 0.855784
O O13 0.639604 0.639604 0.500000
O O14 0.564328 0.782164 0.530833
O O15 0.445146 0.554855 0.554116
O O16 0.887742 0.775484 0.891897
O O17 0.762892 0.881446 0.891917
#
# Coordination Sequence:
#
# PCOD8323701 Si02
#       6
#    12   6  12  12  12  12
#     4   9  17  30  48  68  88 112 145 185 226 264
#     4   8  13  22  37  58  84 112 142 176 216 262
#     4  10  20  33  49  70  97 127 155 183 220 269
#     4   9  17  29  45  64  86 113 145 181 220 262
#     4  10  20  34  52  73  97 125 158 196 235 273
#     4   9  16  26  42  64  88 113 142 179 223 268
#
# _framework density 16.462616000000001
#
# number of rings (size 3 to 8) (size 9 to 14) (size 15 to 20)
#    0.000    2.727    0.000    2.091    0.000    3.636 
#    0.000    0.455    0.000   11.636    0.000    0.000 
#    0.000    0.000    0.000    0.000    0.000    0.000 
#
# Total GULP energy -817992.431088 kJ/mol
# GULP energy per Si atom -12393.824713 kJ/mol
# Density = 1.642515 g / cm^3
# Si number density = 16.462616 Si / 1000 Ang^3
#
#
#
# Elastic Constant Matrix: (Units=GPa)
#
#
# Indices 1 2 3 4 5 6 
#
# 1 86.5849 39.7064 58.2209 -3.7719 0.0000 0.0000
# 2 39.7064 86.5849 58.2209 3.7719 0.0000 0.0000
# 3 58.2209 58.2209 116.7122 0.0000 0.0000 0.0000
# 4 -3.7719 3.7719 0.0000 25.7150 0.0000 0.0000
# 5 0.0000 0.0000 0.0000 0.0000 25.7150 -3.7719
# 6 0.0000 0.0000 0.0000 0.0000 -3.7719 23.4392
#
#
#
# Elastic Compliance Matrix: (Units=1/GPa)
#
#
# Indices 1 2 3 4 5 6 
#
# 1 0.018255 -0.003593 -0.007314 0.003205 0.000000 0.000000
# 2 -0.003593 0.018255 -0.007314 -0.003205 0.000000 0.000000
# 3 -0.007314 -0.007314 0.015865 0.000000 0.000000 0.000000
# 4 0.003205 -0.003205 0.000000 0.039828 0.000000 0.000000
# 5 0.000000 0.000000 0.000000 0.000000 0.039828 0.006409
# 6 0.000000 0.000000 0.000000 0.000000 0.006409 0.043695
#
#
# Mechanical properties :
#
#
# Convention : Reuss Voigt Hill
#
# Bulk Modulus (GPa) = 62.76321 66.90872 64.83597
# Shear Modulus (GPa) = 22.99094 23.88942 23.44018
#
# Velocity S-wave (km/s) = 3.74110 3.81350 3.77748
# Velocity P-wave (km/s) = 7.54113 7.75380 7.64821
#
# Compressibility (1/GPa) = 0.01593290
#
# Stress axis : x y z
#
# Youngs Moduli (GPa) = 54.78089 54.78089 63.03195
#
# Poissons Ratio (x) = 0.19682 0.46100
# Poissons Ratio (y) = 0.19682 0.46100
# Poissons Ratio (z) = 0.40066 0.40066
#
# Static dielectric constant tensor:
#      x y z
#    x 2.994500 0.000000 0.000000 
#    y 0.000000 2.994500 0.000000 
#    z 0.000000 0.000000 3.518720 
# 
# 
# High freq. dielectric constant tensor:
#      x y z
#    x 1.621400 0.000000 0.000000 
#    y 0.000000 1.621400 0.000000 
#    z 0.000000 0.000000 1.651920 
# 
# From -- ./inp_files/5438.got.cif
#   From: 2010.03.12/outbox.cif.g09.slc.cpg/sg164_3_cif.got.tgz:5438.got - 2010.04.02 06:32:59.
