data_PCOD8323321
_publ_section_title
;
Structure prediction by ZEFSAII (Michael W. Deem and Ramdas Pophale) SiO2 
 PCOD8323321
Probable space group: P -3 1 C
;
_chemical_formula_sum "Si O2"
_cell_formula_units_Z 24
_cell_length_a 12.622897
_cell_length_b 12.622897
_cell_length_c 7.342194
_cell_angle_alpha 90.000000
_cell_angle_beta 90.000000
_cell_angle_gamma 120.000000
_cell_volume 1013.151902
_symmetry_space_group_name_H-M "P -3 1 C"
_symmetry_group_IT_number 163
_symmetry_cell_setting 'hexagonal'
loop_
_space_group_symop_operation_xyz
x,y,z
-y,x-y,z
-x+y,-x,z
-y,-x,1/2-z
-x+y,y,1/2-z
x,x-y,1/2-z
-x,-y,-z
y,-x+y,-z
x-y,x,-z
y,x,1/2+z
x-y,-y,1/2+z
-x,-x+y,1/2+z
loop_
_atom_site_type_symbol
_atom_site_label
_atom_site_fract_x
_atom_site_fract_y
_atom_site_fract_z
Si Si1 0.859936 0.318905 0.399249
Si Si2 0.131103 0.475390 0.398828
O O1 0.780312 0.219689 0.250000
O O2 0.859857 0.448855 0.409225
O O3 0.796513 0.242834 0.590102
O O4 0.000594 0.350685 0.391246
O O5 0.146022 0.573011 0.250000
#
# Coordination Sequence:
#
# PCOD8323321 Si02
#       2
#    12  12
#     4  11  22  38  59  87 125 167 211 260 319 385
#     4  11  23  39  62  91 127 169 214 266 323 383
#
# _framework density 23.688454
#
# number of rings (size 3 to 8) (size 9 to 14) (size 15 to 20)
#    0.000    1.000    0.000   10.000    0.000    2.000 
#    0.000    0.000    0.000    1.000    0.000    7.000 
#    0.000    0.000    0.000    0.000    0.000    0.000 
#
# Total GULP energy -297376.482677 kJ/mol
# GULP energy per Si atom -12390.686778 kJ/mol
# Density = 2.363454 g / cm^3
# Si number density = 23.688454 Si / 1000 Ang^3
#
#
#
# Elastic Constant Matrix: (Units=GPa)
#
#
# Indices 1 2 3 4 5 6 
#
# 1 180.0906 93.9078 29.8582 -0.0001 7.1872 0.0000
# 2 93.9078 180.0906 29.8582 0.0001 -7.1872 0.0000
# 3 29.8582 29.8582 61.4447 0.0000 0.0000 0.0000
# 4 -0.0001 0.0001 0.0000 35.6315 0.0000 -7.1872
# 5 7.1872 -7.1872 0.0000 0.0000 35.6315 -0.0001
# 6 0.0000 0.0000 0.0000 -7.1872 -0.0001 43.0914
#
#
#
# Elastic Compliance Matrix: (Units=1/GPa)
#
#
# Indices 1 2 3 4 5 6 
#
# 1 0.008045 -0.003963 -0.001984 0.000000 -0.002422 0.000000
# 2 -0.003963 0.008045 -0.001984 0.000000 0.002422 0.000000
# 3 -0.001984 -0.001984 0.018203 0.000000 0.000000 0.000000
# 4 0.000000 0.000000 0.000000 0.029042 0.000000 0.004844
# 5 -0.002422 0.002422 0.000000 0.000000 0.029042 0.000000
# 6 0.000000 0.000000 0.000000 0.004844 0.000000 0.024014
#
#
# Mechanical properties :
#
#
# Convention : Reuss Voigt Hill
#
# Bulk Modulus (GPa) = 54.25283 80.98604 67.61944
# Shear Modulus (GPa) = 36.12874 40.73766 38.43320
#
# Velocity S-wave (km/s) = 3.90957 4.15146 4.03233
# Velocity P-wave (km/s) = 6.58271 7.56582 7.09132
#
# Compressibility (1/GPa) = 0.01843222
#
# Stress axis : x y z
#
# Youngs Moduli (GPa) = 124.30730 124.30730 54.93723
#
# Poissons Ratio (x) = 0.49258 0.10897
# Poissons Ratio (y) = 0.49258 0.10897
# Poissons Ratio (z) = 0.24657 0.24657
#
# Static dielectric constant tensor:
#      x y z
#    x 4.326670 0.000000 0.000000 
#    y 0.000000 4.326670 0.000000 
#    z 0.000000 0.000000 7.496520 
# 
# 
# High freq. dielectric constant tensor:
#      x y z
#    x 1.906820 0.000000 0.000000 
#    y 0.000000 1.906820 0.000000 
#    z 0.000000 0.000000 2.024940 
# 
# From -- ./inp_files/546.got.cif
#   From: 2010.03.12/outbox.cif.g09.slc.cpg/sg163_1_cif.got.tgz:546.got - 2010.04.02 06:30:25.
