data_PCOD8323268
_publ_section_title
;
Structure prediction by ZEFSAII (Michael W. Deem and Ramdas Pophale) SiO2 
 PCOD8323268
Probable space group: P -3 1 C
;
_chemical_formula_sum "Si O2"
_cell_formula_units_Z 48
_cell_length_a 16.363345
_cell_length_b 16.363345
_cell_length_c 10.438195
_cell_angle_alpha 90.000000
_cell_angle_beta 90.000000
_cell_angle_gamma 120.000000
_cell_volume 2420.472827
_symmetry_space_group_name_H-M "P -3 1 C"
_symmetry_group_IT_number 163
_symmetry_cell_setting 'hexagonal'
loop_
_space_group_symop_operation_xyz
x,y,z
-y,x-y,z
-x+y,-x,z
-y,-x,1/2-z
-x+y,y,1/2-z
x,x-y,1/2-z
-x,-y,-z
y,-x+y,-z
x-y,x,-z
y,x,1/2+z
x-y,-y,1/2+z
-x,-x+y,1/2+z
loop_
_atom_site_type_symbol
_atom_site_label
_atom_site_fract_x
_atom_site_fract_y
_atom_site_fract_z
Si Si1 0.771434 0.597367 0.612715
Si Si2 0.562552 0.020669 0.874496
Si Si3 0.099283 0.215833 0.503151
Si Si4 0.857793 0.253107 0.134980
O O1 0.779301 0.558602 0.750000
O O2 0.663561 0.560404 0.582686
O O3 0.835789 0.712142 0.609429
O O4 0.807675 0.554933 0.499883
O O5 0.524810 0.049620 0.750000
O O6 0.574312 0.933416 0.830645
O O7 0.500000 0.000000 0.000000
O O8 0.146406 0.153587 0.546195
O O9 0.098734 0.281435 0.620310
O O10 0.783146 0.216855 0.250000
#
# Coordination Sequence:
#
# PCOD8323268 Si02
#       4
#    12  12  12  12
#     4  10  21  39  63  90 134 168 205 273 321 374
#     4  12  24  40  68 101 119 173 233 264 326 408
#     4  10  21  36  64  94 140 178 218 250 315 380
#     4  10  21  39  63  90 134 168 205 273 321 374
#
# _framework density 19.830835
#
# number of rings (size 3 to 8) (size 9 to 14) (size 15 to 20)
#    1.500    0.000    2.500    3.250    3.500    0.000 
#    0.000    0.000    0.000   23.000    0.000    0.000 
#    0.000    0.000    0.000    0.000    0.000    0.000 
#
# Total GULP energy -594697.166235 kJ/mol
# GULP energy per Si atom -12389.524297 kJ/mol
# Density = 1.978570 g / cm^3
# Si number density = 19.830835 Si / 1000 Ang^3
#
#
#
# Elastic Constant Matrix: (Units=GPa)
#
#
# Indices 1 2 3 4 5 6 
#
# 1 80.9673 21.7794 5.7266 -0.0001 1.3844 0.0000
# 2 21.7794 80.9673 5.7266 0.0001 -1.3844 0.0000
# 3 5.7266 5.7266 94.2004 0.0000 0.0000 0.0000
# 4 -0.0001 0.0001 0.0000 25.3661 0.0000 -1.3844
# 5 1.3844 -1.3844 0.0000 0.0000 25.3661 -0.0001
# 6 0.0000 0.0000 0.0000 -1.3844 -0.0001 29.5940
#
#
#
# Elastic Compliance Matrix: (Units=1/GPa)
#
#
# Indices 1 2 3 4 5 6 
#
# 1 0.013369 -0.003570 -0.000596 0.000000 -0.000924 0.000000
# 2 -0.003570 0.013369 -0.000596 0.000000 0.000924 0.000000
# 3 -0.000596 -0.000596 0.010688 0.000000 0.000000 0.000000
# 4 0.000000 0.000000 0.000000 0.039524 0.000000 0.001849
# 5 -0.000924 0.000924 0.000000 0.000000 0.039524 0.000000
# 6 0.000000 0.000000 0.000000 0.001849 0.000000 0.033877
#
#
# Mechanical properties :
#
#
# Convention : Reuss Voigt Hill
#
# Bulk Modulus (GPa) = 35.83786 35.84444 35.84115
# Shear Modulus (GPa) = 29.55543 30.92539 30.24041
#
# Velocity S-wave (km/s) = 3.86473 3.95328 3.90926
# Velocity P-wave (km/s) = 6.16651 6.24118 6.20396
#
# Compressibility (1/GPa) = 0.02790345
#
# Stress axis : x y z
#
# Youngs Moduli (GPa) = 74.80086 74.80086 93.56202
#
# Poissons Ratio (x) = 0.26702 0.05573
# Poissons Ratio (y) = 0.26702 0.05573
# Poissons Ratio (z) = 0.04456 0.04456
#
# Static dielectric constant tensor:
#      x y z
#    x 3.487370 0.000000 0.000000 
#    y 0.000000 3.487370 0.000000 
#    z 0.000000 0.000000 3.437800 
# 
# 
# High freq. dielectric constant tensor:
#      x y z
#    x 1.761000 0.000000 0.000000 
#    y 0.000000 1.761000 0.000000 
#    z 0.000000 0.000000 1.768890 
# 
# From -- ./inp_files/1558.got.cif
#   From: 2010.03.12/outbox.cif.g09.slc.cpg/sg163_1_cif.got.tgz:1558.got - 2010.04.02 06:30:25.
