data_PCOD8323646
_publ_section_title
;
Structure prediction by ZEFSAII (Michael W. Deem and Ramdas Pophale) SiO2 
 PCOD8323646
Probable space group: P -3 M 1
;
_chemical_formula_sum "Si O2"
_cell_formula_units_Z 78
_cell_length_a 17.357929
_cell_length_b 17.357929
_cell_length_c 17.807484
_cell_angle_alpha 90.000000
_cell_angle_beta 90.000000
_cell_angle_gamma 120.000000
_cell_volume 4646.532827
_symmetry_space_group_name_H-M "P -3 M 1"
_symmetry_group_IT_number 164
_symmetry_cell_setting 'hexagonal'
loop_
_space_group_symop_operation_xyz
x,y,z
-y,x-y,z
-x+y,-x,z
x-y,-y,-z
-x,-x+y,-z
y,x,-z
-x,-y,-z
y,-x+y,-z
x-y,x,-z
-x+y,y,z
x,x-y,z
-y,-x,z
loop_
_atom_site_type_symbol
_atom_site_label
_atom_site_fract_x
_atom_site_fract_y
_atom_site_fract_z
Si Si1 0.485256 0.152141 0.463209
Si Si2 0.000078 0.821627 0.796556
Si Si3 0.491533 0.158949 0.299115
Si Si4 0.179741 0.179502 0.374711
Si Si5 0.844940 0.332027 0.137502
Si Si6 0.694476 0.000000 0.500000
Si Si7 0.242507 0.305395 0.929297
O O1 0.575481 0.150961 0.483558
O O2 0.504279 0.252140 0.473976
O O3 0.450702 0.111141 0.378572
O O4 0.402974 0.085650 0.515202
O O5 0.077079 0.922922 0.807084
O O6 0.000423 0.790472 0.711026
O O7 0.011597 0.756565 0.853566
O O8 0.908433 0.816866 0.816265
O O9 0.579540 0.159079 0.279028
O O10 0.519075 0.259538 0.314064
O O11 0.438419 0.122372 0.220580
O O12 0.159672 0.079836 0.388793
O O13 0.260368 0.246315 0.426932
O O14 0.091116 0.182231 0.395399
O O15 0.859953 0.429977 0.122961
O O16 0.740407 0.259594 0.127906
O O17 0.904227 0.314250 0.078592
O O18 0.145204 0.290408 0.943562
O O19 0.267808 0.267808 0.000000
#
# Coordination Sequence:
#
# PCOD8323646 Si02
#       7
#    12  12  12  12  12   6  12
#     4  10  20  34  51  70  96 130 167 204 245 294
#     4   9  18  32  51  71  94 125 163 202 239 284
#     4   8  14  25  44  67  90 116 150 191 234 280
#     4  10  20  34  51  71  96 130 168 205 246 293
#     4   9  17  29  47  71  97 126 158 194 236 284
#     4  12  23  32  47  74 104 130 158 204 253 290
#     4  10  20  32  48  70  97 127 158 194 239 285
#
# _framework density 16.786709999999999
#
# number of rings (size 3 to 8) (size 9 to 14) (size 15 to 20)
#    0.000    2.462    0.000    2.846    2.154    4.000 
#    0.000    0.769    0.000    2.462    0.000    0.000 
#    0.000    0.000    0.000    0.615    0.000    0.000 
#
# Total GULP energy -966360.734465 kJ/mol
# GULP energy per Si atom -12389.240185 kJ/mol
# Density = 1.674850 g / cm^3
# Si number density = 16.786710 Si / 1000 Ang^3
#
#
#
# Elastic Constant Matrix: (Units=GPa)
#
#
# Indices 1 2 3 4 5 6 
#
# 1 83.6246 38.4202 34.1470 -2.7837 0.0000 0.0000
# 2 38.4202 83.6246 34.1470 2.7837 0.0000 0.0000
# 3 34.1470 34.1470 63.4027 0.0000 0.0000 0.0000
# 4 -2.7837 2.7837 0.0000 21.9198 0.0000 0.0000
# 5 0.0000 0.0000 0.0000 0.0000 21.9198 -2.7837
# 6 0.0000 0.0000 0.0000 0.0000 -2.7837 22.6022
#
#
#
# Elastic Compliance Matrix: (Units=1/GPa)
#
#
# Indices 1 2 3 4 5 6 
#
# 1 0.017101 -0.005372 -0.006317 0.002854 0.000000 0.000000
# 2 -0.005372 0.017101 -0.006317 -0.002854 0.000000 0.000000
# 3 -0.006317 -0.006317 0.022576 0.000000 0.000000 0.000000
# 4 0.002854 -0.002854 0.000000 0.046346 0.000000 0.000000
# 5 0.000000 0.000000 0.000000 0.000000 0.046346 0.005708
# 6 0.000000 0.000000 0.000000 0.000000 0.005708 0.044946
#
#
# Mechanical properties :
#
#
# Convention : Reuss Voigt Hill
#
# Bulk Modulus (GPa) = 48.15451 49.34223 48.74837
# Shear Modulus (GPa) = 21.06604 21.55089 21.30846
#
# Velocity S-wave (km/s) = 3.54633 3.58691 3.56668
# Velocity P-wave (km/s) = 6.74663 6.82730 6.78708
#
# Compressibility (1/GPa) = 0.02076649
#
# Stress axis : x y z
#
# Youngs Moduli (GPa) = 58.47688 58.47688 44.29467
#
# Poissons Ratio (x) = 0.31416 0.27979
# Poissons Ratio (y) = 0.31416 0.27979
# Poissons Ratio (z) = 0.36937 0.36937
#
# Static dielectric constant tensor:
#      x y z
#    x 3.001040 0.000000 0.000000 
#    y 0.000000 3.001040 0.000000 
#    z 0.000000 0.000000 3.194980 
# 
# 
# High freq. dielectric constant tensor:
#      x y z
#    x 1.638370 0.000000 0.000000 
#    y 0.000000 1.638370 0.000000 
#    z 0.000000 0.000000 1.640290 
# 
# From -- ./inp_files/4144.got.cif
#   From: 2010.03.12/outbox.cif.g09.slc.cpg/sg164_3_cif.got.tgz:4144.got - 2010.04.02 06:32:59.
