data_PCOD8323410
_publ_section_title
;
Structure prediction by ZEFSAII (Michael W. Deem and Ramdas Pophale) SiO2 
 PCOD8323410
Probable space group: P -3 M 1
;
_chemical_formula_sum "Si O2"
_cell_formula_units_Z 84
_cell_length_a 22.057608
_cell_length_b 22.057608
_cell_length_c 12.636149
_cell_angle_alpha 90.000000
_cell_angle_beta 90.000000
_cell_angle_gamma 120.000000
_cell_volume 5324.296085
_symmetry_space_group_name_H-M "P -3 M 1"
_symmetry_group_IT_number 164
_symmetry_cell_setting 'hexagonal'
loop_
_space_group_symop_operation_xyz
x,y,z
-y,x-y,z
-x+y,-x,z
x-y,-y,-z
-x,-x+y,-z
y,x,-z
-x,-y,-z
y,-x+y,-z
x-y,x,-z
-x+y,y,z
x,x-y,z
-y,-x,z
loop_
_atom_site_type_symbol
_atom_site_label
_atom_site_fract_x
_atom_site_fract_y
_atom_site_fract_z
Si Si1 0.333776 0.527373 0.624199
Si Si2 0.292139 0.213955 0.120877
Si Si3 0.617538 0.920235 0.305005
Si Si4 0.215425 0.920084 0.500004
Si Si5 0.697300 0.079763 0.305001
Si Si6 0.193597 0.666224 0.375801
Si Si7 0.786048 0.078183 0.879119
O O1 0.265116 0.530232 0.656320
O O2 0.400364 0.599637 0.659978
O O3 0.335962 0.465323 0.686637
O O4 0.335439 0.514573 0.500000
O O5 0.264908 0.132454 0.144859
O O6 0.358426 0.263520 0.192913
O O7 0.228115 0.228114 0.145453
O O8 0.317542 0.232871 0.999997
O O9 0.656507 0.903279 0.397369
O O10 0.534678 0.870635 0.313361
O O11 0.641579 0.905091 0.192922
O O12 0.634560 0.999999 0.313657
O O13 0.131665 0.868336 0.500003
O O14 0.246770 0.903280 0.602642
O O15 0.231599 0.000000 0.500000
O O16 0.199270 0.599635 0.340022
O O17 0.265119 0.734882 0.343681
O O18 0.867551 0.132450 0.855143
#
# Coordination Sequence:
#
# PCOD8323410 Si02
#       7
#    12  12  12  12  12  12  12
#     4  10  19  30  45  65  92 123 152 181 217 266
#     4   9  17  29  46  67  90 117 150 187 225 266
#     4  10  19  30  46  68  91 116 146 183 225 265
#     4  10  18  28  43  64  89 115 143 177 218 262
#     4  10  19  30  46  68  91 116 146 183 225 265
#     4  10  19  30  45  65  92 123 152 181 217 266
#     4   9  17  29  46  67  90 117 150 187 225 266
#
# _framework density 15.776733999999999
#
# number of rings (size 3 to 8) (size 9 to 14) (size 15 to 20)
#    0.000    2.286    1.429    2.857    0.000    1.714 
#    0.000    1.429    0.000    1.286    0.000    6.000 
#    0.000    9.143    0.000    0.286    0.000    0.571 
#
# Total GULP energy -1041644.675817 kJ/mol
# GULP energy per Si atom -12400.531855 kJ/mol
# Density = 1.574083 g / cm^3
# Si number density = 15.776734 Si / 1000 Ang^3
#
#
#
# Elastic Constant Matrix: (Units=GPa)
#
#
# Indices 1 2 3 4 5 6 
#
# 1 118.6937 80.2667 38.3211 0.0003 0.0000 0.0000
# 2 80.2667 118.6937 38.3211 -0.0003 0.0000 0.0000
# 3 38.3211 38.3211 64.9745 0.0000 0.0000 0.0000
# 4 0.0003 -0.0003 0.0000 19.0846 0.0000 0.0000
# 5 0.0000 0.0000 0.0000 0.0000 19.0846 0.0003
# 6 0.0000 0.0000 0.0000 0.0000 0.0003 19.2135
#
#
#
# Elastic Compliance Matrix: (Units=1/GPa)
#
#
# Indices 1 2 3 4 5 6 
#
# 1 0.016264 -0.009760 -0.003836 0.000000 0.000000 0.000000
# 2 -0.009760 0.016264 -0.003836 0.000000 0.000000 0.000000
# 3 -0.003836 -0.003836 0.019915 0.000000 0.000000 0.000000
# 4 0.000000 0.000000 0.000000 0.052398 0.000000 0.000000
# 5 0.000000 0.000000 0.000000 0.000000 0.052398 -0.000001
# 6 0.000000 0.000000 0.000000 0.000000 -0.000001 0.052047
#
#
# Mechanical properties :
#
#
# Convention : Reuss Voigt Hill
#
# Bulk Modulus (GPa) = 56.88450 68.46441 62.67445
# Shear Modulus (GPa) = 19.99935 21.17342 20.58638
#
# Velocity S-wave (km/s) = 3.56427 3.66740 3.61620
# Velocity P-wave (km/s) = 7.28511 7.83729 7.56624
#
# Compressibility (1/GPa) = 0.01757948
#
# Stress axis : x y z
#
# Youngs Moduli (GPa) = 61.48725 61.48725 50.21271
#
# Poissons Ratio (x) = 0.60010 0.19261
# Poissons Ratio (y) = 0.60010 0.19261
# Poissons Ratio (z) = 0.23585 0.23585
#
# Static dielectric constant tensor:
#      x y z
#    x 2.999220 0.000000 0.000000 
#    y 0.000000 2.999220 0.000000 
#    z 0.000000 0.000000 3.032080 
# 
# 
# High freq. dielectric constant tensor:
#      x y z
#    x 1.600130 0.000000 0.000000 
#    y 0.000000 1.600130 0.000000 
#    z 0.000000 0.000000 1.596000 
# 
# From -- ./inp_files/2871.got.cif
#   From: 2010.03.12/outbox.cif.g09.slc.cpg/sg164_2_cif.got.tgz:2871.got - 2010.04.02 06:32:59.
