data_PCOD8323567
_publ_section_title
;
Structure prediction by ZEFSAII (Michael W. Deem and Ramdas Pophale) SiO2 
 PCOD8323567
Probable space group: P -3 M 1
;
_chemical_formula_sum "Si O2"
_cell_formula_units_Z 84
_cell_length_a 21.594908
_cell_length_b 21.594908
_cell_length_c 12.265528
_cell_angle_alpha 90.000000
_cell_angle_beta 90.000000
_cell_angle_gamma 120.000000
_cell_volume 4953.584734
_symmetry_space_group_name_H-M "P -3 M 1"
_symmetry_group_IT_number 164
_symmetry_cell_setting 'hexagonal'
loop_
_space_group_symop_operation_xyz
x,y,z
-y,x-y,z
-x+y,-x,z
x-y,-y,-z
-x,-x+y,-z
y,x,-z
-x,-y,-z
y,-x+y,-z
x-y,x,-z
-x+y,y,z
x,x-y,z
-y,-x,z
loop_
_atom_site_type_symbol
_atom_site_label
_atom_site_fract_x
_atom_site_fract_y
_atom_site_fract_z
Si Si1 0.924909 0.533830 0.948685
Si Si2 0.860637 0.284006 0.745953
Si Si3 0.532178 0.608708 0.455988
Si Si4 0.926902 0.206850 0.637285
Si Si5 0.666014 0.471477 0.124789
Si Si6 0.460573 0.158883 0.353266
Si Si7 0.220423 0.303426 0.610516
O O1 0.931468 0.465734 0.907915
O O2 0.892672 0.560138 0.853049
O O3 0.871378 0.513902 0.047318
O O4 0.000000 0.594742 0.000000
O O5 0.773384 0.226617 0.751167
O O6 0.886164 0.337323 0.643650
O O7 0.898989 0.237265 0.732714
O O8 0.598166 0.598166 0.500000
O O9 0.468048 0.531952 0.418319
O O10 0.505564 0.638870 0.553821
O O11 0.880151 0.119850 0.641019
O O12 0.915984 0.233660 0.519204
O O13 0.010318 0.236028 0.654262
O O14 0.744924 0.489848 0.091680
O O15 0.613325 0.386676 0.115581
O O16 0.662082 0.495267 0.246147
O O17 0.465917 0.232959 0.390023
O O18 0.377309 0.099454 0.332708
O O19 0.141068 0.282136 0.644801
#
# Coordination Sequence:
#
# PCOD8323567 Si02
#       7
#    12  12  12  12  12  12  12
#     4  10  23  39  56  77 102 133 174 225 277 328
#     4  11  21  36  56  76 104 139 178 222 270 324
#     4  11  22  32  50  78 109 142 175 217 268 320
#     4   9  17  28  47  73 100 132 166 202 246 296
#     4  10  21  37  56  75  98 131 172 215 261 315
#     4  10  19  32  50  74 102 132 169 210 258 312
#     4   9  16  28  46  71 102 134 166 201 241 294
#
# _framework density 16.957418000000001
#
# number of rings (size 3 to 8) (size 9 to 14) (size 15 to 20)
#    0.000    2.000    1.429    2.714    4.000    0.000 
#    0.000    0.000    0.000    7.143    0.000    2.000 
#    0.000    0.000    0.000    0.000    0.000    5.714 
#
# Total GULP energy -1040949.125171 kJ/mol
# GULP energy per Si atom -12392.251490 kJ/mol
# Density = 1.691882 g / cm^3
# Si number density = 16.957418 Si / 1000 Ang^3
#
#
#
# Elastic Constant Matrix: (Units=GPa)
#
#
# Indices 1 2 3 4 5 6 
#
# 1 86.9561 40.6967 37.3234 1.7063 0.0000 0.0000
# 2 40.6967 86.9561 37.3234 -1.7063 0.0000 0.0000
# 3 37.3234 37.3234 56.6715 0.0000 0.0000 0.0000
# 4 1.7063 -1.7063 0.0000 20.5514 0.0000 0.0000
# 5 0.0000 0.0000 0.0000 0.0000 20.5514 1.7063
# 6 0.0000 0.0000 0.0000 0.0000 1.7063 23.1297
#
#
#
# Elastic Compliance Matrix: (Units=1/GPa)
#
#
# Indices 1 2 3 4 5 6 
#
# 1 0.017245 -0.004505 -0.008391 -0.001806 0.000000 0.000000
# 2 -0.004505 0.017245 -0.008391 0.001806 0.000000 0.000000
# 3 -0.008391 -0.008391 0.028698 0.000000 0.000000 0.000000
# 4 -0.001806 0.001806 0.000000 0.048958 0.000000 0.000000
# 5 0.000000 0.000000 0.000000 0.000000 0.048958 -0.003612
# 6 0.000000 0.000000 0.000000 0.000000 -0.003612 0.043501
#
#
# Mechanical properties :
#
#
# Convention : Reuss Voigt Hill
#
# Bulk Modulus (GPa) = 48.50707 51.25231 49.87969
# Shear Modulus (GPa) = 19.68113 20.52919 20.10516
#
# Velocity S-wave (km/s) = 3.41048 3.48319 3.44703
# Velocity P-wave (km/s) = 6.64649 6.81664 6.73210
#
# Compressibility (1/GPa) = 0.02061555
#
# Stress axis : x y z
#
# Youngs Moduli (GPa) = 57.98662 57.98662 34.84614
#
# Poissons Ratio (x) = 0.26123 0.29238
# Poissons Ratio (y) = 0.26123 0.29238
# Poissons Ratio (z) = 0.48655 0.48655
#
# Static dielectric constant tensor:
#      x y z
#    x 3.298170 0.000000 0.000000 
#    y 0.000000 3.298170 0.000000 
#    z 0.000000 0.000000 3.086460 
# 
# 
# High freq. dielectric constant tensor:
#      x y z
#    x 1.653000 0.000000 0.000000 
#    y 0.000000 1.653000 0.000000 
#    z 0.000000 0.000000 1.636880 
# 
# From -- ./inp_files/2951.got.cif
#   From: 2010.03.12/outbox.cif.g09.slc.cpg/sg164_2_cif.got.tgz:2951.got - 2010.04.02 06:32:59.
