data_PCOD8323742
_publ_section_title
;
Structure prediction by ZEFSAII (Michael W. Deem and Ramdas Pophale) SiO2 
 PCOD8323742
Probable space group: P -3 M 1
;
_chemical_formula_sum "Si O2"
_cell_formula_units_Z 48
_cell_length_a 17.285948
_cell_length_b 17.285948
_cell_length_c 9.721575
_cell_angle_alpha 90.000000
_cell_angle_beta 90.000000
_cell_angle_gamma 120.000000
_cell_volume 2515.669979
_symmetry_space_group_name_H-M "P -3 M 1"
_symmetry_group_IT_number 164
_symmetry_cell_setting 'hexagonal'
loop_
_space_group_symop_operation_xyz
x,y,z
-y,x-y,z
-x+y,-x,z
x-y,-y,-z
-x,-x+y,-z
y,x,-z
-x,-y,-z
y,-x+y,-z
x-y,x,-z
-x+y,y,z
x,x-y,z
-y,-x,z
loop_
_atom_site_type_symbol
_atom_site_label
_atom_site_fract_x
_atom_site_fract_y
_atom_site_fract_z
Si Si1 0.630102 0.906223 0.634200
Si Si2 0.590919 0.003269 0.848772
Si Si3 0.000207 0.168437 0.655633
Si Si4 0.484380 0.333790 0.630870
O O1 0.624762 0.812381 0.651050
O O2 0.732510 0.986593 0.653271
O O3 0.585893 0.907986 0.488752
O O4 0.577723 0.919594 0.758559
O O5 0.492627 0.985253 0.868528
O O6 0.653628 0.097838 0.773229
O O7 0.629379 0.000000 0.000000
O O8 0.082663 0.165326 0.732019
O O9 0.000000 0.139755 0.500000
O O10 0.904001 0.096000 0.722713
O O11 0.497354 0.248677 0.643969
O O12 0.579714 0.420286 0.596755
#
# Coordination Sequence:
#
# PCOD8323742 Si02
#       4
#    12  12  12  12
#     4  10  20  33  52  78 105 134 170 215 261 305
#     4  10  21  36  53  74 103 138 171 207 256 311
#     4   9  16  26  42  67  99 132 165 201 242 287
#     4  10  20  35  56  79 103 132 169 213 260 311
#
# _framework density 19.080404999999999
#
# number of rings (size 3 to 8) (size 9 to 14) (size 15 to 20)
#    0.000    2.250    0.000    3.500    0.000    7.000 
#    0.000    0.000    0.000    0.500    0.000    0.000 
#    0.000    5.000    0.000    1.000    0.000    5.000 
#
# Total GULP energy -594750.714072 kJ/mol
# GULP energy per Si atom -12390.639877 kJ/mol
# Density = 1.903698 g / cm^3
# Si number density = 19.080405 Si / 1000 Ang^3
#
#
#
# Elastic Constant Matrix: (Units=GPa)
#
#
# Indices 1 2 3 4 5 6 
#
# 1 97.9836 61.4898 50.6194 -3.1611 0.0000 0.0000
# 2 61.4898 97.9836 50.6194 3.1611 0.0000 0.0000
# 3 50.6194 50.6194 126.7162 0.0000 0.0000 0.0000
# 4 -3.1611 3.1611 0.0000 15.7815 0.0000 0.0000
# 5 0.0000 0.0000 0.0000 0.0000 15.7815 -3.1611
# 6 0.0000 0.0000 0.0000 0.0000 -3.1611 18.2469
#
#
#
# Elastic Compliance Matrix: (Units=1/GPa)
#
#
# Indices 1 2 3 4 5 6 
#
# 1 0.018394 -0.009993 -0.003356 0.005686 0.000000 0.000000
# 2 -0.009993 0.018394 -0.003356 -0.005686 0.000000 0.000000
# 3 -0.003356 -0.003356 0.010573 0.000000 0.000000 0.000000
# 4 0.005686 -0.005686 0.000000 0.065643 0.000000 0.000000
# 5 0.000000 0.000000 0.000000 0.000000 0.065643 0.011372
# 6 0.000000 0.000000 0.000000 0.000000 0.011372 0.056774
#
#
# Mechanical properties :
#
#
# Convention : Reuss Voigt Hill
#
# Bulk Modulus (GPa) = 71.67867 72.01562 71.84715
# Shear Modulus (GPa) = 18.28276 20.62564 19.45420
#
# Velocity S-wave (km/s) = 3.09883 3.29140 3.19657
# Velocity P-wave (km/s) = 7.10295 7.22977 7.16664
#
# Compressibility (1/GPa) = 0.01395115
#
# Stress axis : x y z
#
# Youngs Moduli (GPa) = 54.36539 54.36539 94.58142
#
# Poissons Ratio (x) = 0.54327 0.31742
# Poissons Ratio (y) = 0.54327 0.31742
# Poissons Ratio (z) = 0.18245 0.18245
#
# Static dielectric constant tensor:
#      x y z
#    x 3.634650 0.000000 0.000000 
#    y 0.000000 3.634650 0.000000 
#    z 0.000000 0.000000 3.359750 
# 
# 
# High freq. dielectric constant tensor:
#      x y z
#    x 1.751390 0.000000 0.000000 
#    y 0.000000 1.751390 0.000000 
#    z 0.000000 0.000000 1.700490 
# 
# From -- ./inp_files/1231.got.cif
#   From: 2010.03.12/outbox.cif.g09.slc.cpg/sg164_1_cif.got.tgz:1231.got - 2010.04.02 06:32:59.
