data_PCOD8323883
_publ_section_title
;
Structure prediction by ZEFSAII (Michael W. Deem and Ramdas Pophale) SiO2 
 PCOD8323883
Probable space group: P -3 C 1
;
_chemical_formula_sum "Si O2"
_cell_formula_units_Z 60
_cell_length_a 25.399637
_cell_length_b 25.399637
_cell_length_c 5.128588
_cell_angle_alpha 90.000000
_cell_angle_beta 90.000000
_cell_angle_gamma 120.000000
_cell_volume 2865.388169
_symmetry_space_group_name_H-M "P -3 C 1"
_symmetry_group_IT_number 165
_symmetry_cell_setting 'hexagonal'
loop_
_space_group_symop_operation_xyz
x,y,z
-y,x-y,z
-x+y,-x,z
x-y,-y,1/2-z
-x,-x+y,1/2-z
y,x,1/2-z
-x,-y,-z
y,-x+y,-z
x-y,x,-z
-x+y,y,1/2+z
x,x-y,1/2+z
-y,-x,1/2+z
loop_
_atom_site_type_symbol
_atom_site_label
_atom_site_fract_x
_atom_site_fract_y
_atom_site_fract_z
Si Si1 0.768054 0.472343 0.758661
Si Si2 0.113959 0.588880 0.755423
Si Si3 0.116840 0.706587 0.792979
Si Si4 0.070173 0.331557 0.790963
Si Si5 0.929545 0.138520 0.713579
O O1 0.721578 0.449985 0.519076
O O2 0.812180 0.443483 0.741415
O O3 0.810948 0.546168 0.755376
O O4 0.091552 0.541776 0.992969
O O5 0.084531 0.632642 0.774405
O O6 0.088270 0.731497 0.582842
O O7 0.108891 0.725562 0.081686
O O8 0.084099 0.277366 0.754500
O O9 0.000000 0.309405 0.750000
O O10 0.911737 0.109582 0.427909
O O11 0.000000 0.160887 0.750000
#
# Coordination Sequence:
#
# PCOD8323883 Si02
#       5
#    12  12  12  12  12
#     4  10  20  33  54  83 108 135 187 246 297 353
#     4  10  20  36  58  78 109 153 192 234 299 362
#     4  10  22  34  59  84 112 160 192 252 299 370
#     4  11  22  39  58  90 126 160 196 245 310 359
#     4  11  24  42  67  97 134 176 215 257 312 378
#
# _framework density 20.939572999999999
#
# number of rings (size 3 to 8) (size 9 to 14) (size 15 to 20)
#    1.200    0.400    0.000    6.000    0.000    8.000 
#    0.000    0.000    0.000   24.000    0.000    0.000 
#    0.000    0.000    0.000    0.000    0.000    0.000 
#
# Total GULP energy -743897.570087 kJ/mol
# GULP energy per Si atom -12398.292835 kJ/mol
# Density = 2.089191 g / cm^3
# Si number density = 20.939573 Si / 1000 Ang^3
#
#
#
# Elastic Constant Matrix: (Units=GPa)
#
#
# Indices 1 2 3 4 5 6 
#
# 1 41.4685 21.8274 12.3043 -1.2526 0.0000 0.0000
# 2 21.8274 41.4685 12.3043 1.2526 0.0000 0.0000
# 3 12.3043 12.3043 112.3017 0.0000 0.0000 0.0000
# 4 -1.2526 1.2526 0.0000 25.0322 0.0000 0.0000
# 5 0.0000 0.0000 0.0000 0.0000 25.0322 -1.2526
# 6 0.0000 0.0000 0.0000 0.0000 -1.2526 9.8206
#
#
#
# Elastic Compliance Matrix: (Units=1/GPa)
#
#
# Indices 1 2 3 4 5 6 
#
# 1 0.033871 -0.017369 -0.001808 0.002564 0.000000 0.000000
# 2 -0.017369 0.033871 -0.001808 -0.002564 0.000000 0.000000
# 3 -0.001808 -0.001808 0.009301 0.000000 0.000000 0.000000
# 4 0.002564 -0.002564 0.000000 0.040205 0.000000 0.000000
# 5 0.000000 0.000000 0.000000 0.000000 0.040205 0.005128
# 6 0.000000 0.000000 0.000000 0.000000 0.005128 0.102481
#
#
# Mechanical properties :
#
#
# Convention : Reuss Voigt Hill
#
# Bulk Modulus (GPa) = 28.51258 32.01228 30.26243
# Shear Modulus (GPa) = 15.94407 21.89720 18.92064
#
# Velocity S-wave (km/s) = 2.76240 3.23729 3.00923
# Velocity P-wave (km/s) = 4.88064 5.41244 5.15340
#
# Compressibility (1/GPa) = 0.03507224
#
# Stress axis : x y z
#
# Youngs Moduli (GPa) = 29.52362 29.52362 107.51800
#
# Poissons Ratio (x) = 0.51281 0.19439
# Poissons Ratio (y) = 0.51281 0.19439
# Poissons Ratio (z) = 0.05338 0.05338
#
# Static dielectric constant tensor:
#      x y z
#    x 3.581930 0.000000 0.000000 
#    y 0.000000 3.581930 0.000000 
#    z 0.000000 0.000000 3.754800 
# 
# 
# High freq. dielectric constant tensor:
#      x y z
#    x 1.804880 0.000000 0.000000 
#    y 0.000000 1.804880 0.000000 
#    z 0.000000 0.000000 1.834550 
# 
# From -- ./inp_files/197.got.cif
#   From: 2010.03.12/outbox.cif.g09.slc.cpg/sg165_1_cif.got.tgz:197.got - 2010.04.02 06:36:38.
