data_PCOD8323776
_publ_section_title
;
Structure prediction by ZEFSAII (Michael W. Deem and Ramdas Pophale) SiO2 
 PCOD8323776
Probable space group: P -3 M 1
;
_chemical_formula_sum "Si O2"
_cell_formula_units_Z 84
_cell_length_a 17.755286
_cell_length_b 17.755286
_cell_length_c 14.546323
_cell_angle_alpha 90.000000
_cell_angle_beta 90.000000
_cell_angle_gamma 120.000000
_cell_volume 3971.359504
_symmetry_space_group_name_H-M "P -3 M 1"
_symmetry_group_IT_number 164
_symmetry_cell_setting 'hexagonal'
loop_
_space_group_symop_operation_xyz
x,y,z
-y,x-y,z
-x+y,-x,z
x-y,-y,-z
-x,-x+y,-z
y,x,-z
-x,-y,-z
y,-x+y,-z
x-y,x,-z
-x+y,y,z
x,x-y,z
-y,-x,z
loop_
_atom_site_type_symbol
_atom_site_label
_atom_site_fract_x
_atom_site_fract_y
_atom_site_fract_z
Si Si1 0.364284 0.267516 0.502976
Si Si2 0.835940 0.334649 0.965534
Si Si3 0.302761 0.355740 0.167704
Si Si4 0.169472 0.998652 0.105827
Si Si5 0.665870 0.170002 0.364574
Si Si6 0.488668 0.157921 0.671280
Si Si7 0.446260 0.305454 0.166940
O O1 0.281316 0.281316 0.500000
O O2 0.330257 0.165129 0.517596
O O3 0.408066 0.301624 0.403168
O O4 0.436811 0.325622 0.578466
O O5 0.850172 0.425086 0.923187
O O6 0.740802 0.259199 0.935527
O O7 0.908033 0.312416 0.928880
O O8 0.844095 0.345442 0.075098
O O9 0.218523 0.259126 0.166292
O O10 0.302688 0.418728 0.246579
O O11 0.382418 0.341431 0.183148
O O12 0.066369 0.933632 0.116961
O O13 0.190342 0.095171 0.137306
O O14 0.197257 0.000000 0.000000
O O15 0.571263 0.142525 0.404340
O O16 0.733069 0.266932 0.400516
O O17 0.662233 0.171035 0.254463
O O18 0.572067 0.144133 0.683331
O O19 0.521543 0.260772 0.668099
O O20 0.398842 0.199421 0.160357
#
# Coordination Sequence:
#
# PCOD8323776 Si02
#       7
#    12  12  12  12  12  12  12
#     4  10  22  40  63  90 119 151 188 236 292 346
#     4  11  23  38  55  76 107 148 193 238 283 334
#     4  12  23  36  56  80 112 151 194 240 282 328
#     4  10  20  36  59  85 113 146 187 238 297 359
#     4  10  20  35  57  85 116 148 184 229 284 343
#     4  11  24  41  61  86 119 159 201 242 284 333
#     4  10  22  37  54  80 111 145 185 232 290 347
#
# _framework density 21.151447999999998
#
# number of rings (size 3 to 8) (size 9 to 14) (size 15 to 20)
#    0.000    1.429    0.000    5.714    0.000    8.000 
#    0.000    5.000    0.000    0.143    0.000    0.000 
#    0.000    0.000    0.000    0.000    0.000    0.571 
#
# Total GULP energy -1041142.931689 kJ/mol
# GULP energy per Si atom -12394.558711 kJ/mol
# Density = 2.110331 g / cm^3
# Si number density = 21.151448 Si / 1000 Ang^3
#
#
#
# Elastic Constant Matrix: (Units=GPa)
#
#
# Indices 1 2 3 4 5 6 
#
# 1 119.7187 73.7922 29.0171 -2.9063 0.0000 0.0000
# 2 73.7922 119.7187 29.0171 2.9063 0.0000 0.0000
# 3 29.0171 29.0171 81.2990 0.0000 0.0000 0.0000
# 4 -2.9063 2.9063 0.0000 20.7961 0.0000 0.0000
# 5 0.0000 0.0000 0.0000 0.0000 20.7961 -2.9063
# 6 0.0000 0.0000 0.0000 0.0000 -2.9063 22.9633
#
#
#
# Elastic Compliance Matrix: (Units=1/GPa)
#
#
# Indices 1 2 3 4 5 6 
#
# 1 0.013977 -0.008189 -0.002066 0.003098 0.000000 0.000000
# 2 -0.008189 0.013977 -0.002066 -0.003098 0.000000 0.000000
# 3 -0.002066 -0.002066 0.013775 0.000000 0.000000 0.000000
# 4 0.003098 -0.003098 0.000000 0.048952 0.000000 0.000000
# 5 0.000000 0.000000 0.000000 0.000000 0.048952 0.006196
# 6 0.000000 0.000000 0.000000 0.000000 0.006196 0.044332
#
#
# Mechanical properties :
#
#
# Convention : Reuss Voigt Hill
#
# Bulk Modulus (GPa) = 58.52454 64.93215 61.72834
# Shear Modulus (GPa) = 23.33176 25.50508 24.41842
#
# Velocity S-wave (km/s) = 3.32487 3.47628 3.40141
# Velocity P-wave (km/s) = 6.51683 6.84675 6.68382
#
# Compressibility (1/GPa) = 0.01708685
#
# Stress axis : x y z
#
# Youngs Moduli (GPa) = 71.54840 71.54840 72.59670
#
# Poissons Ratio (x) = 0.58594 0.14995
# Poissons Ratio (y) = 0.58594 0.14995
# Poissons Ratio (z) = 0.14779 0.14779
#
# Static dielectric constant tensor:
#      x y z
#    x 3.796800 0.000000 0.000000 
#    y 0.000000 3.796800 0.000000 
#    z 0.000000 0.000000 3.918630 
# 
# 
# High freq. dielectric constant tensor:
#      x y z
#    x 1.827150 0.000000 0.000000 
#    y 0.000000 1.827150 0.000000 
#    z 0.000000 0.000000 1.823340 
# 
# From -- ./inp_files/3595.got.cif
#   From: 2010.03.12/outbox.cif.g09.slc.cpg/sg164_2_cif.got.tgz:3595.got - 2010.04.02 06:32:59.
