data_PCOD8323119
_publ_section_title
;
Structure prediction by ZEFSAII (Michael W. Deem and Ramdas Pophale) SiO2 
 PCOD8323119
Probable space group: P -3 1 M 
;
_chemical_formula_sum "Si O2"
_cell_formula_units_Z 60
_cell_length_a 17.357333
_cell_length_b 17.357333
_cell_length_c 11.230972
_cell_angle_alpha 90.000000
_cell_angle_beta 90.000000
_cell_angle_gamma 120.000000
_cell_volume 2930.312699
_symmetry_space_group_name_H-M "P -3 1 M "
_symmetry_group_IT_number 162
_symmetry_cell_setting 'hexagonal'
loop_
_space_group_symop_operation_xyz
x,y,z
-y,x-y,z
-x+y,-x,z
-y,-x,-z
-x+y,y,-z
x,x-y,-z
-x,-y,-z
y,-x+y,-z
x-y,x,-z
y,x,z
x-y,-y,z
-x,-x+y,z
loop_
_atom_site_type_symbol
_atom_site_label
_atom_site_fract_x
_atom_site_fract_y
_atom_site_fract_z
Si Si1 0.607920 0.770001 0.777159
Si Si2 0.897833 0.541661 0.709634
Si Si3 0.200498 0.099675 0.862105
Si Si4 0.898527 0.625558 0.474727
Si Si5 0.487703 0.592040 0.880776
O O1 0.574369 0.839859 0.779363
O O2 0.713761 0.825783 0.792206
O O3 0.585847 0.709648 0.657684
O O4 0.552966 0.698150 0.878254
O O5 0.882342 0.545952 0.567056
O O6 0.870267 0.444192 0.761115
O O7 0.000000 0.608898 0.743070
O O8 0.168166 0.168166 0.819295
O O9 0.120083 0.000000 0.838935
O O10 0.226653 0.113327 0.000000
O O11 0.832117 0.664234 0.500000
O O12 0.000000 0.705764 0.486332
O O13 0.549821 0.549821 0.891677
O O14 0.428750 0.571251 0.000000
#
# Coordination Sequence:
#
# PCOD8323119 Si02
#       5
#    12  12  12  12  12
#     4  11  21  36  59  85 113 154 199 239 287 355
#     4   9  20  38  58  83 115 152 189 238 292 340
#     4  10  21  35  55  84 120 160 202 249 300 358
#     4   9  18  34  57  84 114 149 198 245 290 345
#     4  10  22  37  55  81 114 146 185 237 291 347
#
# _framework density 20.475629999999999
#
# number of rings (size 3 to 8) (size 9 to 14) (size 15 to 20)
#    0.000    2.200    0.000    2.600    2.800    2.400 
#    1.200    3.000    0.000    0.200    0.000    0.000 
#    0.000    0.000    0.000    0.000    0.000    0.000 
#
# Total GULP energy -743635.820551 kJ/mol
# GULP energy per Si atom -12393.930343 kJ/mol
# Density = 2.042903 g / cm^3
# Si number density = 20.475630 Si / 1000 Ang^3
#
#
#
# Elastic Constant Matrix: (Units=GPa)
#
#
# Indices 1 2 3 4 5 6 
#
# 1 98.1084 45.3817 43.9516 -0.0001 -0.3989 0.0000
# 2 45.3817 98.1084 43.9516 0.0001 0.3989 0.0000
# 3 43.9516 43.9516 89.3999 0.0000 0.0000 0.0000
# 4 -0.0001 0.0001 0.0000 26.6618 0.0000 0.3989
# 5 -0.3989 0.3989 0.0000 0.0000 26.6618 -0.0001
# 6 0.0000 0.0000 0.0000 0.3989 -0.0001 26.3633
#
#
#
# Elastic Compliance Matrix: (Units=1/GPa)
#
#
# Indices 1 2 3 4 5 6 
#
# 1 0.014471 -0.004499 -0.004903 0.000000 0.000284 0.000000
# 2 -0.004499 0.014471 -0.004903 0.000000 -0.000284 0.000000
# 3 -0.004903 -0.004903 0.016006 0.000000 0.000000 0.000000
# 4 0.000000 0.000000 0.000000 0.037515 0.000000 -0.000568
# 5 0.000284 -0.000284 0.000000 0.000000 0.037515 0.000000
# 6 0.000000 0.000000 0.000000 -0.000568 0.000000 0.037940
#
#
# Mechanical properties :
#
#
# Convention : Reuss Voigt Hill
#
# Bulk Modulus (GPa) = 61.19810 61.35404 61.27607
# Shear Modulus (GPa) = 26.04500 26.09284 26.06892
#
# Velocity S-wave (km/s) = 3.57038 3.57366 3.57202
# Velocity P-wave (km/s) = 6.85200 6.85985 6.85593
#
# Compressibility (1/GPa) = 0.01634038
#
# Stress axis : x y z
#
# Youngs Moduli (GPa) = 69.10213 69.10213 62.47486
#
# Poissons Ratio (x) = 0.31087 0.30630
# Poissons Ratio (y) = 0.31087 0.30630
# Poissons Ratio (z) = 0.33880 0.33880
#
# Static dielectric constant tensor:
#      x y z
#    x 3.611680 0.000000 0.000000 
#    y 0.000000 3.611680 0.000000 
#    z 0.000000 0.000000 3.893190 
# 
# 
# High freq. dielectric constant tensor:
#      x y z
#    x 1.791860 0.000000 0.000000 
#    y 0.000000 1.791860 0.000000 
#    z 0.000000 0.000000 1.799740 
# 
# From -- ./inp_files/2339.got.cif
#   From: 2010.03.12/outbox.cif.g09.slc.cpg/sg162_2_cif.got.tgz:2339.got - 2010.04.02 06:27:41.
