data_PCOD8323320
_publ_section_title
;
Structure prediction by ZEFSAII (Michael W. Deem and Ramdas Pophale) SiO2 
 PCOD8323320
Probable space group: P -3 1 C
;
_chemical_formula_sum "Si O2"
_cell_formula_units_Z 48
_cell_length_a 14.286326
_cell_length_b 14.286326
_cell_length_c 12.190849
_cell_angle_alpha 90.000000
_cell_angle_beta 90.000000
_cell_angle_gamma 120.000000
_cell_volume 2154.793694
_symmetry_space_group_name_H-M "P -3 1 C"
_symmetry_group_IT_number 163
_symmetry_cell_setting 'hexagonal'
loop_
_space_group_symop_operation_xyz
x,y,z
-y,x-y,z
-x+y,-x,z
-y,-x,1/2-z
-x+y,y,1/2-z
x,x-y,1/2-z
-x,-y,-z
y,-x+y,-z
x-y,x,-z
y,x,1/2+z
x-y,-y,1/2+z
-x,-x+y,1/2+z
loop_
_atom_site_type_symbol
_atom_site_label
_atom_site_fract_x
_atom_site_fract_y
_atom_site_fract_z
Si Si1 0.879629 0.591002 0.829241
Si Si2 0.203881 0.559967 0.977753
Si Si3 0.614146 0.706206 0.807458
Si Si4 0.059948 0.233206 0.997818
O O1 0.776787 0.553574 0.750000
O O2 0.995430 0.628937 0.773501
O O3 0.857726 0.490917 0.908085
O O4 0.884542 0.686587 0.901483
O O5 0.314094 0.550909 0.973532
O O6 0.132348 0.499043 0.871593
O O7 0.612169 0.806085 0.750000
O O8 0.710256 0.750142 0.894934
O O9 0.135965 0.187541 0.958645
#
# Coordination Sequence:
#
# PCOD8323320 Si02
#       4
#    12  12  12  12
#     4  11  22  40  70  98 136 184 231 282 346 413
#     4   9  24  48  69  95 140 174 224 295 341 399
#     4  11  22  40  70  98 136 184 231 282 346 413
#     4  11  21  36  61  98 143 182 231 294 339 412
#
# _framework density 22.275915000000001
#
# number of rings (size 3 to 8) (size 9 to 14) (size 15 to 20)
#    0.500    1.000    5.000    0.250    0.000    2.000 
#    0.000    7.500    0.000    0.000    0.000    0.000 
#    0.000    0.000    0.000    0.000    0.000    0.000 
#
# Total GULP energy -595185.134439 kJ/mol
# GULP energy per Si atom -12399.690301 kJ/mol
# Density = 2.222521 g / cm^3
# Si number density = 22.275915 Si / 1000 Ang^3
#
#
#
# Elastic Constant Matrix: (Units=GPa)
#
#
# Indices 1 2 3 4 5 6 
#
# 1 70.8132 12.1039 30.5107 0.0000 8.4891 0.0000
# 2 12.1039 70.8132 30.5107 0.0000 -8.4891 0.0000
# 3 30.5107 30.5107 111.4766 0.0000 0.0000 0.0000
# 4 0.0000 0.0000 0.0000 26.6334 0.0000 -8.4891
# 5 8.4891 -8.4891 0.0000 0.0000 26.6334 0.0000
# 6 0.0000 0.0000 0.0000 -8.4891 0.0000 29.3547
#
#
#
# Elastic Compliance Matrix: (Units=1/GPa)
#
#
# Indices 1 2 3 4 5 6 
#
# 1 0.016932 -0.001830 -0.004133 0.000000 -0.005980 0.000000
# 2 -0.001830 0.016932 -0.004133 0.000000 0.005980 0.000000
# 3 -0.004133 -0.004133 0.011233 0.000000 0.000000 0.000000
# 4 0.000000 0.000000 0.000000 0.041359 0.000000 0.011961
# 5 -0.005980 0.005980 0.000000 0.000000 0.041359 0.000000
# 6 0.000000 0.000000 0.000000 0.011961 0.000000 0.037525
#
#
# Mechanical properties :
#
#
# Convention : Reuss Voigt Hill
#
# Bulk Modulus (GPa) = 40.15453 44.37260 42.26357
# Shear Modulus (GPa) = 25.79496 28.52282 27.15889
#
# Velocity S-wave (km/s) = 3.40660 3.58220 3.49550
# Velocity P-wave (km/s) = 5.79123 6.08870 5.94183
#
# Compressibility (1/GPa) = 0.02490379
#
# Stress axis : x y z
#
# Youngs Moduli (GPa) = 59.05860 59.05860 89.02277
#
# Poissons Ratio (x) = 0.10809 0.36797
# Poissons Ratio (y) = 0.10809 0.36797
# Poissons Ratio (z) = 0.24411 0.24411
#
# Static dielectric constant tensor:
#      x y z
#    x 3.801110 0.000000 0.000000 
#    y 0.000000 3.801110 0.000000 
#    z 0.000000 0.000000 4.139270 
# 
# 
# High freq. dielectric constant tensor:
#      x y z
#    x 1.871660 0.000000 0.000000 
#    y 0.000000 1.871660 0.000000 
#    z 0.000000 0.000000 1.884870 
# 
# From -- ./inp_files/1535.got.cif
#   From: 2010.03.12/outbox.cif.g09.slc.cpg/sg163_1_cif.got.tgz:1535.got - 2010.04.02 06:30:25.
