data_PCOD8323651
_publ_section_title
;
Structure prediction by ZEFSAII (Michael W. Deem and Ramdas Pophale) SiO2 
 PCOD8323651
Probable space group: P -3 M 1
;
_chemical_formula_sum "Si O2"
_cell_formula_units_Z 66
_cell_length_a 12.660090
_cell_length_b 12.660090
_cell_length_c 28.549093
_cell_angle_alpha 90.000000
_cell_angle_beta 90.000000
_cell_angle_gamma 120.000000
_cell_volume 3962.748709
_symmetry_space_group_name_H-M "P -3 M 1"
_symmetry_group_IT_number 164
_symmetry_cell_setting 'hexagonal'
loop_
_space_group_symop_operation_xyz
x,y,z
-y,x-y,z
-x+y,-x,z
x-y,-y,-z
-x,-x+y,-z
y,x,-z
-x,-y,-z
y,-x+y,-z
x-y,x,-z
-x+y,y,z
x,x-y,z
-y,-x,z
loop_
_atom_site_type_symbol
_atom_site_label
_atom_site_fract_x
_atom_site_fract_y
_atom_site_fract_z
Si Si1 0.086918 0.665541 0.956568
Si Si2 0.912564 0.580421 0.413107
Si Si3 0.245848 0.997585 0.329530
Si Si4 0.754430 0.751879 0.873471
Si Si5 0.763123 0.001661 0.772035
Si Si6 0.000000 0.752843 0.500000
O O1 0.119877 0.559939 0.951461
O O2 0.209290 0.790711 0.965450
O O3 0.019757 0.668055 0.909239
O O4 0.000000 0.644924 0.000000
O O5 0.771170 0.542340 0.413199
O O6 0.923000 0.461500 0.419291
O O7 0.984421 0.671512 0.455052
O O8 0.976703 0.645653 0.364669
O O9 0.122787 0.877214 0.345734
O O10 0.218514 0.109257 0.329544
O O11 0.287831 0.977571 0.277347
O O12 0.878362 0.756723 0.889564
O O13 0.712192 0.689185 0.821365
O O14 0.779497 0.889749 0.872711
O O15 0.727098 0.863549 0.772075
O O16 0.909468 0.090532 0.772023
O O17 0.884674 0.769348 0.508534
#
# Coordination Sequence:
#
# PCOD8323651 Si02
#       6
#    12  12  12  12  12   6
#     4  10  20  33  48  65  87 116 150 187 225 266
#     4  10  20  33  48  66  92 127 163 193 220 258
#     4   9  16  27  46  71  96 120 148 187 233 275
#     4   9  16  27  45  69  95 119 144 178 223 274
#     4   8  13  22  39  65  94 120 145 176 220 272
#     4  10  20  34  54  78 100 118 140 180 234 284
#
# _framework density 16.655106
#
# number of rings (size 3 to 8) (size 9 to 14) (size 15 to 20)
#    0.000    2.727    0.000    2.364    0.000    2.909 
#    0.000    2.727    0.000    7.273    0.000    2.545 
#    0.000    0.000    0.000    0.000    0.000    0.000 
#
# Total GULP energy -817781.352414 kJ/mol
# GULP energy per Si atom -12390.626552 kJ/mol
# Density = 1.661720 g / cm^3
# Si number density = 16.655106 Si / 1000 Ang^3
#
#
#
# Elastic Constant Matrix: (Units=GPa)
#
#
# Indices 1 2 3 4 5 6 
#
# 1 78.8329 48.4241 56.9184 -0.2526 0.0000 0.0000
# 2 48.4241 78.8329 56.9184 0.2526 0.0000 0.0000
# 3 56.9184 56.9184 140.0461 0.0000 0.0000 0.0000
# 4 -0.2526 0.2526 0.0000 17.3005 0.0000 0.0000
# 5 0.0000 0.0000 0.0000 0.0000 17.3005 -0.2526
# 6 0.0000 0.0000 0.0000 0.0000 -0.2526 15.2044
#
#
#
# Elastic Compliance Matrix: (Units=1/GPa)
#
#
# Indices 1 2 3 4 5 6 
#
# 1 0.022620 -0.010273 -0.005018 0.000480 0.000000 0.000000
# 2 -0.010273 0.022620 -0.005018 -0.000480 0.000000 0.000000
# 3 -0.005018 -0.005018 0.011220 0.000000 0.000000 0.000000
# 4 0.000480 -0.000480 0.000000 0.057816 0.000000 0.000000
# 5 0.000000 0.000000 0.000000 0.000000 0.057816 0.000961
# 6 0.000000 0.000000 0.000000 0.000000 0.000961 0.065786
#
#
# Mechanical properties :
#
#
# Convention : Reuss Voigt Hill
#
# Bulk Modulus (GPa) = 63.12730 69.13706 66.13218
# Shear Modulus (GPa) = 17.61944 18.99112 18.30528
#
# Velocity S-wave (km/s) = 3.25607 3.38043 3.31883
# Velocity P-wave (km/s) = 7.21948 7.53907 7.38101
#
# Compressibility (1/GPa) = 0.01584101
#
# Stress axis : x y z
#
# Youngs Moduli (GPa) = 44.20837 44.20837 89.13016
#
# Poissons Ratio (x) = 0.45416 0.44727
# Poissons Ratio (y) = 0.45416 0.44727
# Poissons Ratio (z) = 0.22185 0.22185
#
# Static dielectric constant tensor:
#      x y z
#    x 2.875460 0.000000 0.000000 
#    y 0.000000 2.875460 0.000000 
#    z 0.000000 0.000000 3.661960 
# 
# 
# High freq. dielectric constant tensor:
#      x y z
#    x 1.616870 0.000000 0.000000 
#    y 0.000000 1.616870 0.000000 
#    z 0.000000 0.000000 1.668970 
# 
# From -- ./inp_files/5411.got.cif
#   From: 2010.03.12/outbox.cif.g09.slc.cpg/sg164_3_cif.got.tgz:5411.got - 2010.04.02 06:32:59.
