data_PCOD8323275
_publ_section_title
;
Structure prediction by ZEFSAII (Michael W. Deem and Ramdas Pophale) SiO2 
 PCOD8323275
Probable space group: P -3 1 C
;
_chemical_formula_sum "Si O2"
_cell_formula_units_Z 84
_cell_length_a 17.093362
_cell_length_b 17.093362
_cell_length_c 16.952266
_cell_angle_alpha 90.000000
_cell_angle_beta 90.000000
_cell_angle_gamma 120.000000
_cell_volume 4289.566157
_symmetry_space_group_name_H-M "P -3 1 C"
_symmetry_group_IT_number 163
_symmetry_cell_setting 'hexagonal'
loop_
_space_group_symop_operation_xyz
x,y,z
-y,x-y,z
-x+y,-x,z
-y,-x,1/2-z
-x+y,y,1/2-z
x,x-y,1/2-z
-x,-y,-z
y,-x+y,-z
x-y,x,-z
y,x,1/2+z
x-y,-y,1/2+z
-x,-x+y,1/2+z
loop_
_atom_site_type_symbol
_atom_site_label
_atom_site_fract_x
_atom_site_fract_y
_atom_site_fract_z
Si Si1 0.327028 0.850104 0.601603
Si Si2 0.058388 0.620181 0.740013
Si Si3 0.151148 0.661629 0.581462
Si Si4 0.837825 0.823107 0.466687
Si Si5 0.740623 0.096807 0.784703
Si Si6 0.964315 0.317834 0.542113
Si Si7 0.158510 0.999474 0.281611
O O1 0.315661 0.873767 0.691741
O O2 0.242030 0.757400 0.573521
O O3 0.410166 0.832238 0.590817
O O4 0.337304 0.934897 0.551719
O O5 0.050104 0.525052 0.750000
O O6 0.098000 0.667732 0.657201
O O7 0.954914 0.597226 0.745499
O O8 0.091838 0.644340 0.503714
O O9 0.830616 0.896905 0.519061
O O10 0.758085 0.725202 0.489622
O O11 0.828937 0.838551 0.375023
O O12 0.800726 0.199275 0.750000
O O13 0.728623 0.092577 0.878855
O O14 0.787396 0.039924 0.762634
O O15 0.055733 0.944268 0.250000
O O16 0.202718 0.101359 0.250000
#
# Coordination Sequence:
#
# PCOD8323275 Si02
#       7
#    12  12  12  12  12  12  12
#     4  10  22  38  59  88 119 148 188 234 291 364
#     4   9  20  37  59  86 116 149 185 233 295 355
#     4  11  21  38  62  88 117 151 186 236 297 354
#     4  12  23  37  55  80 110 148 194 242 290 347
#     4  10  21  38  56  80 111 150 194 235 277 333
#     4  11  23  38  56  83 115 151 194 237 287 346
#     4  11  22  36  53  75 107 145 184 229 280 331
#
# _framework density 19.5824
#
# number of rings (size 3 to 8) (size 9 to 14) (size 15 to 20)
#    0.000    1.429    0.000    6.571    0.000    4.571 
#    0.000    1.429    0.000    0.286    0.000    0.000 
#    0.000    0.000    0.000    0.000    0.000    0.000 
#
# Total GULP energy -1041496.181088 kJ/mol
# GULP energy per Si atom -12398.764061 kJ/mol
# Density = 1.953783 g / cm^3
# Si number density = 19.582400 Si / 1000 Ang^3
#
#
#
# Elastic Constant Matrix: (Units=GPa)
#
#
# Indices 1 2 3 4 5 6 
#
# 1 74.0259 22.0365 41.9774 0.0003 -1.3533 0.0000
# 2 22.0365 74.0259 41.9774 -0.0003 1.3533 0.0000
# 3 41.9774 41.9774 136.1915 0.0000 0.0000 0.0000
# 4 0.0003 -0.0003 0.0000 25.4414 0.0000 1.3533
# 5 -1.3533 1.3533 0.0000 0.0000 25.4414 0.0003
# 6 0.0000 0.0000 0.0000 1.3533 0.0003 25.9947
#
#
#
# Elastic Compliance Matrix: (Units=1/GPa)
#
#
# Indices 1 2 3 4 5 6 
#
# 1 0.016768 -0.002520 -0.004392 0.000000 0.001026 0.000000
# 2 -0.002520 0.016768 -0.004392 0.000000 -0.001026 0.000000
# 3 -0.004392 -0.004392 0.010050 0.000000 0.000000 0.000000
# 4 0.000000 0.000000 0.000000 0.039415 0.000000 -0.002052
# 5 0.001026 -0.001026 0.000000 0.000000 0.039415 0.000000
# 6 0.000000 0.000000 0.000000 -0.002052 0.000000 0.038576
#
#
# Mechanical properties :
#
#
# Convention : Reuss Voigt Hill
#
# Bulk Modulus (GPa) = 47.66570 55.13620 51.40095
# Shear Modulus (GPa) = 26.23407 27.25896 26.74652
#
# Velocity S-wave (km/s) = 3.66413 3.73502 3.69974
# Velocity P-wave (km/s) = 6.50346 6.84234 6.67505
#
# Compressibility (1/GPa) = 0.02097945
#
# Stress axis : x y z
#
# Youngs Moduli (GPa) = 59.63734 59.63734 99.50495
#
# Poissons Ratio (x) = 0.15029 0.43698
# Poissons Ratio (y) = 0.15029 0.43698
# Poissons Ratio (z) = 0.26190 0.26190
#
# Static dielectric constant tensor:
#      x y z
#    x 4.403990 0.000000 0.000000 
#    y 0.000000 4.403990 0.000000 
#    z 0.000000 0.000000 3.693890 
# 
# 
# High freq. dielectric constant tensor:
#      x y z
#    x 1.764700 0.000000 0.000000 
#    y 0.000000 1.764700 0.000000 
#    z 0.000000 0.000000 1.772420 
# 
# From -- ./inp_files/2649.got.cif
#   From: 2010.03.12/outbox.cif.g09.slc.cpg/sg163_2_cif.got.tgz:2649.got - 2010.04.02 06:30:25.
