data_PCOD8323217
_publ_section_title
;
Structure prediction by ZEFSAII (Michael W. Deem and Ramdas Pophale) SiO2 
 PCOD8323217
Probable space group: P -3 1 C
;
_chemical_formula_sum "Si O2"
_cell_formula_units_Z 64
_cell_length_a 14.929922
_cell_length_b 14.929922
_cell_length_c 19.938316
_cell_angle_alpha 90.000000
_cell_angle_beta 90.000000
_cell_angle_gamma 120.000000
_cell_volume 3848.878344
_symmetry_space_group_name_H-M "P -3 1 C"
_symmetry_group_IT_number 163
_symmetry_cell_setting 'hexagonal'
loop_
_space_group_symop_operation_xyz
x,y,z
-y,x-y,z
-x+y,-x,z
-y,-x,1/2-z
-x+y,y,1/2-z
x,x-y,1/2-z
-x,-y,-z
y,-x+y,-z
x-y,x,-z
y,x,1/2+z
x-y,-y,1/2+z
-x,-x+y,1/2+z
loop_
_atom_site_type_symbol
_atom_site_label
_atom_site_fract_x
_atom_site_fract_y
_atom_site_fract_z
Si Si1 0.333334 0.666667 0.329090
Si Si2 0.546646 0.099070 0.669698
Si Si3 0.012319 0.796386 0.508732
Si Si4 0.199200 0.998122 0.239926
Si Si5 0.656385 0.927204 0.381310
Si Si6 0.656823 0.724551 0.364447
O O1 0.333334 0.666667 0.250000
O O2 0.396442 0.783146 0.355130
O O3 0.544059 0.088117 0.750000
O O4 0.431048 0.045210 0.639923
O O5 0.607593 0.046899 0.635361
O O6 0.032339 0.726629 0.456138
O O7 0.911848 0.803123 0.488567
O O8 0.999799 0.742204 0.580323
O O9 0.076105 0.923896 0.250000
O O10 0.231749 0.988321 0.165237
O O11 0.259856 0.965344 0.291151
O O12 0.231281 0.115641 0.250000
O O13 0.614528 0.804439 0.374907
#
# Coordination Sequence:
#
# PCOD8323217 Si02
#       6
#     4  12  12  12  12  12
#     4   9  18  24  51  75 105 138 150 202 278 325
#     4  11  18  31  51  79 107 131 164 210 268 312
#     4  10  21  37  54  74 106 144 178 213 257 308
#     4  10  19  31  48  72 102 134 172 219 263 302
#     4  10  20  32  50  76 103 133 173 213 252 310
#     4  10  20  32  50  76 103 133 173 213 252 310
#
# _framework density 16.628219999999999
#
# number of rings (size 3 to 8) (size 9 to 14) (size 15 to 20)
#    0.000    1.875    3.750    1.500    0.000    0.750 
#    0.000    3.750    0.000    0.000    0.000    0.000 
#   26.250    0.000    0.000    0.000    0.000    0.000 
#
# Total GULP energy -793603.489681 kJ/mol
# GULP energy per Si atom -12400.054526 kJ/mol
# Density = 1.659037 g / cm^3
# Si number density = 16.628220 Si / 1000 Ang^3
#
#
#
# Elastic Constant Matrix: (Units=GPa)
#
#
# Indices 1 2 3 4 5 6 
#
# 1 75.0138 27.2901 12.8311 -0.0001 3.2781 -0.0001
# 2 27.2901 75.0137 12.8310 0.0000 -3.2782 0.0000
# 3 12.8311 12.8310 57.5564 0.0000 0.0000 0.0001
# 4 -0.0001 0.0000 0.0000 15.4938 0.0000 -3.2782
# 5 3.2781 -3.2782 0.0000 0.0000 15.4938 -0.0001
# 6 -0.0001 0.0000 0.0001 -3.2782 -0.0001 23.8618
#
#
#
# Elastic Compliance Matrix: (Units=1/GPa)
#
#
# Indices 1 2 3 4 5 6 
#
# 1 0.015968 -0.005614 -0.002308 0.000000 -0.004566 0.000000
# 2 -0.005614 0.015968 -0.002308 0.000000 0.004566 0.000000
# 3 -0.002308 -0.002308 0.018403 0.000000 0.000000 0.000000
# 4 0.000000 0.000000 0.000000 0.066474 0.000000 0.009132
# 5 -0.004566 0.004566 0.000000 0.000000 0.066474 0.000000
# 6 0.000000 0.000000 0.000000 0.009132 0.000000 0.043163
#
#
# Mechanical properties :
#
#
# Convention : Reuss Voigt Hill
#
# Bulk Modulus (GPa) = 33.46910 34.83201 34.15056
# Shear Modulus (GPa) = 19.46518 21.27867 20.37192
#
# Velocity S-wave (km/s) = 3.42513 3.58113 3.50400
# Velocity P-wave (km/s) = 5.98445 6.17190 6.07890
#
# Compressibility (1/GPa) = 0.02987830
#
# Stress axis : x y z
#
# Youngs Moduli (GPa) = 62.62713 62.62703 54.33779
#
# Poissons Ratio (x) = 0.35157 0.12542
# Poissons Ratio (y) = 0.35157 0.12542
# Poissons Ratio (z) = 0.14455 0.14455
#
# Static dielectric constant tensor:
#      x y z
#    x 2.984690 0.000000 0.000000 
#    y 0.000000 2.984700 0.000000 
#    z 0.000000 0.000000 3.063390 
# 
# 
# High freq. dielectric constant tensor:
#      x y z
#    x 1.629290 0.000000 0.000000 
#    y 0.000000 1.629290 0.000000 
#    z 0.000000 0.000000 1.637720 
# 
# From -- ./inp_files/3073.got.cif
#   From: 2010.03.12/outbox.cif.g09.slc.cpg/sg163_2_cif.got.tgz:3073.got - 2010.04.02 06:30:25.
