data_PCOD8323897
_publ_section_title
;
Structure prediction by ZEFSAII (Michael W. Deem and Ramdas Pophale) SiO2 
 PCOD8323897
Probable space group: P -3 C 1
;
_chemical_formula_sum "Si O2"
_cell_formula_units_Z 66
_cell_length_a 11.633816
_cell_length_b 11.633816
_cell_length_c 27.614408
_cell_angle_alpha 90.000000
_cell_angle_beta 90.000000
_cell_angle_gamma 120.000000
_cell_volume 3236.761878
_symmetry_space_group_name_H-M "P -3 C 1"
_symmetry_group_IT_number 165
_symmetry_cell_setting 'hexagonal'
loop_
_space_group_symop_operation_xyz
x,y,z
-y,x-y,z
-x+y,-x,z
x-y,-y,1/2-z
-x,-x+y,1/2-z
y,x,1/2-z
-x,-y,-z
y,-x+y,-z
x-y,x,-z
-x+y,y,1/2+z
x,x-y,1/2+z
-y,-x,1/2+z
loop_
_atom_site_type_symbol
_atom_site_label
_atom_site_fract_x
_atom_site_fract_y
_atom_site_fract_z
Si Si1 0.940704 0.590249 0.411281
Si Si2 0.986073 0.725693 0.507314
Si Si3 0.366441 0.427286 0.799725
Si Si4 0.000000 0.150013 0.750000
Si Si5 0.399274 0.079094 0.396521
Si Si6 0.092875 0.389596 0.818807
O O1 0.985461 0.625396 0.466858
O O2 0.886058 0.435673 0.403295
O O3 0.821644 0.614084 0.398097
O O4 0.064429 0.685150 0.376434
O O5 0.864812 0.748583 0.499667
O O6 0.978605 0.666336 0.560589
O O7 0.348036 0.348036 0.750000
O O8 0.346539 0.330750 0.844298
O O9 0.248461 0.460211 0.806040
O O10 0.511214 0.557532 0.797966
O O11 0.010929 0.240908 0.796183
O O12 0.130016 0.130016 0.750000
#
# Coordination Sequence:
#
# PCOD8323897 Si02
#       6
#    12  12  12   6  12  12
#     4  10  22  38  61  86 120 149 202 246 300 367
#     4  10  20  38  59  85 116 152 192 244 298 358
#     4  11  24  39  63  85 125 157 206 250 297 367
#     4  10  24  40  62  88 128 164 206 252 298 368
#     4  10  22  37  59  86 114 158 189 250 296 356
#     4  11  23  42  59  93 117 165 204 249 310 352
#
# _framework density 20.390747999999999
#
# number of rings (size 3 to 8) (size 9 to 14) (size 15 to 20)
#    0.182    1.455    0.909    3.091    5.091    0.000 
#    0.000    0.000    0.000   11.636    0.000    0.000 
#    0.000    0.000    0.000    0.000    0.000    0.000 
#
# Total GULP energy -818194.346990 kJ/mol
# GULP energy per Si atom -12396.884045 kJ/mol
# Density = 2.034434 g / cm^3
# Si number density = 20.390748 Si / 1000 Ang^3
#
#
#
# Elastic Constant Matrix: (Units=GPa)
#
#
# Indices 1 2 3 4 5 6 
#
# 1 87.2197 15.1747 46.5825 9.5088 0.0000 0.0000
# 2 15.1747 87.2197 46.5825 -9.5088 0.0000 0.0000
# 3 46.5825 46.5825 176.7598 0.0000 0.0000 0.0000
# 4 9.5088 -9.5088 0.0000 40.2497 0.0000 0.0000
# 5 0.0000 0.0000 0.0000 0.0000 40.2497 9.5088
# 6 0.0000 0.0000 0.0000 0.0000 9.5088 36.0225
#
#
#
# Elastic Compliance Matrix: (Units=1/GPa)
#
#
# Indices 1 2 3 4 5 6 
#
# 1 0.013825 -0.000978 -0.003386 -0.003497 0.000000 0.000000
# 2 -0.000978 0.013825 -0.003386 0.003497 0.000000 0.000000
# 3 -0.003386 -0.003386 0.007442 0.000000 0.000000 0.000000
# 4 -0.003497 0.003497 0.000000 0.026497 0.000000 0.000000
# 5 0.000000 0.000000 0.000000 0.000000 0.026497 -0.006994
# 6 0.000000 0.000000 0.000000 0.000000 -0.006994 0.029607
#
#
# Mechanical properties :
#
#
# Convention : Reuss Voigt Hill
#
# Bulk Modulus (GPa) = 51.03919 63.09763 57.06841
# Shear Modulus (GPa) = 35.78509 39.49499 37.64004
#
# Velocity S-wave (km/s) = 4.19378 4.40581 4.30110
# Velocity P-wave (km/s) = 6.96673 7.54274 7.26045
#
# Compressibility (1/GPa) = 0.01959279
#
# Stress axis : x y z
#
# Youngs Moduli (GPa) = 72.33296 72.33296 134.37596
#
# Poissons Ratio (x) = 0.07077 0.45493
# Poissons Ratio (y) = 0.07077 0.45493
# Poissons Ratio (z) = 0.24488 0.24488
#
# Static dielectric constant tensor:
#      x y z
#    x 3.566650 0.000000 0.000000 
#    y 0.000000 3.566650 0.000000 
#    z 0.000000 0.000000 4.017950 
# 
# 
# High freq. dielectric constant tensor:
#      x y z
#    x 1.796340 0.000000 0.000000 
#    y 0.000000 1.796340 0.000000 
#    z 0.000000 0.000000 1.809790 
# 
# From -- ./inp_files/3302.got.cif
#   From: 2010.03.12/outbox.cif.g09.slc.cpg/sg165_2_cif.got.tgz:3302.got - 2010.04.02 06:36:38.
