data_PCOD8323143
_publ_section_title
;
Structure prediction by ZEFSAII (Michael W. Deem and Ramdas Pophale) SiO2 
 PCOD8323143
Probable space group: P -3 1 M 
;
_chemical_formula_sum "Si O2"
_cell_formula_units_Z 52
_cell_length_a 12.574849
_cell_length_b 12.574849
_cell_length_c 19.023152
_cell_angle_alpha 90.000000
_cell_angle_beta 90.000000
_cell_angle_gamma 120.000000
_cell_volume 2605.065619
_symmetry_space_group_name_H-M "P -3 1 M "
_symmetry_group_IT_number 162
_symmetry_cell_setting 'hexagonal'
loop_
_space_group_symop_operation_xyz
x,y,z
-y,x-y,z
-x+y,-x,z
-y,-x,-z
-x+y,y,-z
x,x-y,-z
-x,-y,-z
y,-x+y,-z
x-y,x,-z
y,x,z
x-y,-y,z
-x,-x+y,z
loop_
_atom_site_type_symbol
_atom_site_label
_atom_site_fract_x
_atom_site_fract_y
_atom_site_fract_z
Si Si1 0.535567 0.858255 0.954595
Si Si2 0.333334 0.666668 0.582539
Si Si3 0.400178 0.259236 0.574035
Si Si4 0.139288 0.276507 0.711026
Si Si5 0.233201 0.717311 0.799077
O O1 0.504957 0.786685 0.881683
O O2 0.626497 0.000000 0.939794
O O3 0.417116 0.834232 0.000000
O O4 0.604769 0.802385 0.000000
O O5 0.333334 0.666667 0.500000
O O6 0.317577 0.536943 0.607500
O O7 0.388368 0.194184 0.500000
O O8 0.367635 0.367635 0.564720
O O9 0.307781 0.157216 0.628294
O O10 0.166874 0.166874 0.726361
O O11 0.236398 0.392729 0.755648
O O12 0.000000 0.232664 0.733037
O O13 0.196153 0.575681 0.780932
#
# Coordination Sequence:
#
# PCOD8323143 Si02
#       5
#    12   4  12  12  12
#     4  11  20  36  61  90 125 159 199 252 306 366
#     4   9  21  36  54  87 126 153 190 254 325 384
#     4  10  22  40  63  90 121 162 211 262 318 375
#     4  11  25  42  63  89 124 168 212 259 314 378
#     4  10  22  40  61  90 126 157 207 258 314 370
#
# _framework density 19.961109
#
# number of rings (size 3 to 8) (size 9 to 14) (size 15 to 20)
#    0.462    1.154    2.308    1.846    3.231    7.846 
#    0.000    0.000    0.000    3.923    0.000    0.000 
#    0.000    0.000    0.000    0.000    0.000    0.000 
#
# Total GULP energy -644429.555247 kJ/mol
# GULP energy per Si atom -12392.876062 kJ/mol
# Density = 1.991568 g / cm^3
# Si number density = 19.961109 Si / 1000 Ang^3
#
#
#
# Elastic Constant Matrix: (Units=GPa)
#
#
# Indices 1 2 3 4 5 6 
#
# 1 114.0163 55.3068 30.5173 0.0001 -5.1190 0.0000
# 2 55.3068 114.0165 30.5173 0.0000 5.1191 0.0001
# 3 30.5173 30.5173 82.4461 0.0001 0.0000 0.0000
# 4 0.0001 0.0000 0.0001 19.3313 0.0001 5.1190
# 5 -5.1190 5.1191 0.0000 0.0001 19.3312 0.0001
# 6 0.0000 0.0001 0.0000 5.1190 0.0001 29.3548
#
#
#
# Elastic Compliance Matrix: (Units=1/GPa)
#
#
# Indices 1 2 3 4 5 6 
#
# 1 0.012336 -0.005521 -0.002523 0.000000 0.004729 0.000000
# 2 -0.005521 0.012336 -0.002523 0.000000 -0.004729 0.000000
# 3 -0.002523 -0.002523 0.013997 0.000000 0.000000 0.000000
# 4 0.000000 0.000000 0.000000 0.054234 0.000000 -0.009458
# 5 0.004729 -0.004729 0.000000 0.000000 0.054234 0.000000
# 6 0.000000 0.000000 0.000000 -0.009458 0.000000 0.035715
#
#
# Mechanical properties :
#
#
# Convention : Reuss Voigt Hill
#
# Bulk Modulus (GPa) = 57.02400 60.35129 58.68764
# Shear Modulus (GPa) = 23.82867 26.54598 25.18732
#
# Velocity S-wave (km/s) = 3.45882 3.65071 3.55606
# Velocity P-wave (km/s) = 6.67689 6.93328 6.80629
#
# Compressibility (1/GPa) = 0.01753648
#
# Stress axis : x y z
#
# Youngs Moduli (GPa) = 81.06087 81.06100 71.44581
#
# Poissons Ratio (x) = 0.44756 0.18023
# Poissons Ratio (y) = 0.44756 0.18023
# Poissons Ratio (z) = 0.20449 0.20449
#
# Static dielectric constant tensor:
#      x y z
#    x 3.670860 0.000000 0.000000 
#    y 0.000000 3.670850 0.000000 
#    z 0.000000 0.000000 3.631910 
# 
# 
# High freq. dielectric constant tensor:
#      x y z
#    x 1.769580 0.000000 0.000000 
#    y 0.000000 1.769580 0.000000 
#    z 0.000000 0.000000 1.787370 
# 
# From -- ./inp_files/3758.got.cif
#   From: 2010.03.12/outbox.cif.g09.slc.cpg/sg162_2_cif.got.tgz:3758.got - 2010.04.02 06:27:41.
