data_PCOD8323050
_publ_section_title
;
Structure prediction by ZEFSAII (Michael W. Deem and Ramdas Pophale) SiO2 
 PCOD8323050
Probable space group: P -3 1 M 
;
_chemical_formula_sum "Si O2"
_cell_formula_units_Z 36
_cell_length_a 18.020921
_cell_length_b 18.020921
_cell_length_c 7.513875
_cell_angle_alpha 90.000000
_cell_angle_beta 90.000000
_cell_angle_gamma 120.000000
_cell_volume 2113.238738
_symmetry_space_group_name_H-M "P -3 1 M "
_symmetry_group_IT_number 162
_symmetry_cell_setting 'hexagonal'
loop_
_space_group_symop_operation_xyz
x,y,z
-y,x-y,z
-x+y,-x,z
-y,-x,-z
-x+y,y,-z
x,x-y,-z
-x,-y,-z
y,-x+y,-z
x-y,x,-z
y,x,z
x-y,-y,z
-x,-x+y,z
loop_
_atom_site_type_symbol
_atom_site_label
_atom_site_fract_x
_atom_site_fract_y
_atom_site_fract_z
Si Si1 0.506092 0.668004 0.000000
Si Si2 0.641884 0.737852 0.296524
Si Si3 0.262148 0.358116 0.296524
O O1 0.560962 0.677446 0.824692
O O2 0.425585 0.574416 0.000000
O O3 0.475227 0.737614 0.000000
O O4 0.560962 0.677446 0.175309
O O5 0.719312 0.719312 0.257754
O O6 0.675743 0.837871 0.252947
O O7 0.610641 0.716157 0.500000
O O8 0.280688 0.280688 0.257754
#
# Coordination Sequence:
#
# PCOD8323050 Si02
#       3
#    12  12  12
#     4  10  20  33  48  67  92 122 155 190 228 269
#     4   9  18  32  49  69  93 121 152 186 226 271
#     4   9  18  32  49  69  93 121 152 186 226 271
#
# _framework density 17.035464000000001
#
# number of rings (size 3 to 8) (size 9 to 14) (size 15 to 20)
#    0.000    2.667    0.000    1.333    0.000    4.000 
#    0.000    3.333    0.000    4.667    0.000    4.667 
#    0.000    8.000    0.000    0.667    0.000    0.000 
#
# Total GULP energy -446317.140274 kJ/mol
# GULP energy per Si atom -12397.698341 kJ/mol
# Density = 1.699669 g / cm^3
# Si number density = 17.035464 Si / 1000 Ang^3
#
#
#
# Elastic Constant Matrix: (Units=GPa)
#
#
# Indices 1 2 3 4 5 6 
#
# 1 125.9956 96.6903 59.9376 0.0000 0.0000 0.0000
# 2 96.6903 125.9956 59.9376 0.0000 0.0000 0.0000
# 3 59.9376 59.9376 96.8836 0.0000 0.0000 0.0000
# 4 0.0000 0.0000 0.0000 23.3059 0.0000 0.0000
# 5 0.0000 0.0000 0.0000 0.0000 23.3059 0.0000
# 6 0.0000 0.0000 0.0000 0.0000 0.0000 14.6526
#
#
#
# Elastic Compliance Matrix: (Units=1/GPa)
#
#
# Indices 1 2 3 4 5 6 
#
# 1 0.020428 -0.013695 -0.004165 0.000000 0.000000 0.000000
# 2 -0.013695 0.020428 -0.004165 0.000000 0.000000 0.000000
# 3 -0.004165 -0.004165 0.015475 0.000000 0.000000 0.000000
# 4 0.000000 0.000000 0.000000 0.042908 0.000000 0.000000
# 5 0.000000 0.000000 0.000000 0.000000 0.042908 0.000000
# 6 0.000000 0.000000 0.000000 0.000000 0.000000 0.068247
#
#
# Mechanical properties :
#
#
# Convention : Reuss Voigt Hill
#
# Bulk Modulus (GPa) = 81.43384 86.88951 84.16167
# Shear Modulus (GPa) = 19.33940 21.07352 20.20646
#
# Velocity S-wave (km/s) = 3.37299 3.52097 3.44778
# Velocity P-wave (km/s) = 7.94202 8.22469 8.08459
#
# Compressibility (1/GPa) = 0.01227991
#
# Stress axis : x y z
#
# Youngs Moduli (GPa) = 48.95184 48.95184 64.61836
#
# Poissons Ratio (x) = 0.67041 0.26916
# Poissons Ratio (y) = 0.67041 0.26916
# Poissons Ratio (z) = 0.20390 0.20390
#
# Static dielectric constant tensor:
#      x y z
#    x 3.153690 0.000000 0.000000 
#    y 0.000000 3.153690 0.000000 
#    z 0.000000 0.000000 3.441910 
# 
# 
# High freq. dielectric constant tensor:
#      x y z
#    x 1.645130 0.000000 0.000000 
#    y 0.000000 1.645130 0.000000 
#    z 0.000000 0.000000 1.678110 
# 
# From -- ./inp_files/1037.got.cif
#   From: 2010.03.12/outbox.cif.g09.slc.cpg/sg162_1_cif.got.tgz:1037.got - 2010.04.02 06:27:41.
