data_PCOD8323843
_publ_section_title
;
Structure prediction by ZEFSAII (Michael W. Deem and Ramdas Pophale) SiO2 
 PCOD8323843
Probable space group: P -3 M 1
;
_chemical_formula_sum "Si O2"
_cell_formula_units_Z 60
_cell_length_a 13.545312
_cell_length_b 13.545312
_cell_length_c 24.202635
_cell_angle_alpha 90.000000
_cell_angle_beta 90.000000
_cell_angle_gamma 120.000000
_cell_volume 3845.663753
_symmetry_space_group_name_H-M "P -3 M 1"
_symmetry_group_IT_number 164
_symmetry_cell_setting 'hexagonal'
loop_
_space_group_symop_operation_xyz
x,y,z
-y,x-y,z
-x+y,-x,z
x-y,-y,-z
-x,-x+y,-z
y,x,-z
-x,-y,-z
y,-x+y,-z
x-y,x,-z
-x+y,y,z
x,x-y,z
-y,-x,z
loop_
_atom_site_type_symbol
_atom_site_label
_atom_site_fract_x
_atom_site_fract_y
_atom_site_fract_z
Si Si1 0.333033 0.439141 0.764011
Si Si2 0.666351 0.560482 0.363648
Si Si3 0.106173 0.667070 0.035905
Si Si4 0.439190 0.106238 0.836187
Si Si5 0.999703 0.227157 0.563820
O O1 0.214698 0.429395 0.781553
O O2 0.432402 0.567598 0.776198
O O3 0.333492 0.407804 0.700179
O O4 0.348796 0.349111 0.800361
O O5 0.765426 0.530852 0.375570
O O6 0.547774 0.452227 0.381293
O O7 0.683032 0.666675 0.399905
O O8 0.133512 0.566756 0.023255
O O9 0.215469 0.784532 0.018002
O O10 0.075995 0.667862 0.099863
O O11 0.000000 0.651810 0.000000
O O12 0.567127 0.134253 0.823737
O O13 0.430258 0.215129 0.818263
O O14 0.881076 0.118924 0.581422
O O15 0.000000 0.258985 0.500000
O O16 0.098745 0.197489 0.575772
#
# Coordination Sequence:
#
# PCOD8323843 Si02
#       5
#    12  12  12  12  12
#     4   9  17  29  45  65  88 113 141 174 212 252
#     4   9  17  29  45  64  86 113 143 174 209 251
#     4   9  17  29  45  65  88 113 141 174 212 252
#     4   9  17  29  45  64  86 113 143 174 209 250
#     4   9  17  29  45  64  85 110 141 178 218 256
#
# _framework density 15.601986999999999
#
# number of rings (size 3 to 8) (size 9 to 14) (size 15 to 20)
#    0.000    3.000    0.000    1.000    0.000    6.000 
#    0.000    0.000    0.000    3.400    0.000    0.000 
#    0.000    0.000    0.000    0.000    0.000    0.000 
#
# Total GULP energy -744101.660046 kJ/mol
# GULP energy per Si atom -12401.694334 kJ/mol
# Density = 1.556648 g / cm^3
# Si number density = 15.601987 Si / 1000 Ang^3
#
#
#
# Elastic Constant Matrix: (Units=GPa)
#
#
# Indices 1 2 3 4 5 6 
#
# 1 120.7789 69.8209 62.4705 -3.8018 0.0000 0.0000
# 2 69.8209 120.7789 62.4705 3.8018 0.0000 0.0000
# 3 62.4705 62.4705 66.5056 0.0000 0.0000 0.0000
# 4 -3.8018 3.8018 0.0000 28.4540 0.0000 0.0000
# 5 0.0000 0.0000 0.0000 0.0000 28.4540 -3.8018
# 6 0.0000 0.0000 0.0000 0.0000 -3.8018 25.4790
#
#
#
# Elastic Compliance Matrix: (Units=1/GPa)
#
#
# Indices 1 2 3 4 5 6 
#
# 1 0.016839 -0.003185 -0.012825 0.002675 0.000000 0.000000
# 2 -0.003185 0.016839 -0.012825 -0.002675 0.000000 0.000000
# 3 -0.012825 -0.012825 0.039131 0.000000 0.000000 0.000000
# 4 0.002675 -0.002675 0.000000 0.035859 0.000000 0.000000
# 5 0.000000 0.000000 0.000000 0.000000 0.035859 0.005351
# 6 0.000000 0.000000 0.000000 0.000000 0.005351 0.040046
#
#
# Mechanical properties :
#
#
# Convention : Reuss Voigt Hill
#
# Bulk Modulus (GPa) = 66.06393 77.50970 71.78682
# Shear Modulus (GPa) = 20.21918 24.03083 22.12501
#
# Velocity S-wave (km/s) = 3.60382 3.92885 3.76984
# Velocity P-wave (km/s) = 7.72993 8.38859 8.06599
#
# Compressibility (1/GPa) = 0.01513685
#
# Stress axis : x y z
#
# Youngs Moduli (GPa) = 59.38754 59.38754 25.55524
#
# Poissons Ratio (x) = 0.18913 0.32776
# Poissons Ratio (y) = 0.18913 0.32776
# Poissons Ratio (z) = 0.76167 0.76167
#
# Static dielectric constant tensor:
#      x y z
#    x 2.934120 0.000000 0.000000 
#    y 0.000000 2.934120 0.000000 
#    z 0.000000 0.000000 2.974110 
# 
# 
# High freq. dielectric constant tensor:
#      x y z
#    x 1.591950 0.000000 0.000000 
#    y 0.000000 1.591950 0.000000 
#    z 0.000000 0.000000 1.596820 
# 
# From -- ./inp_files/4466.got.cif
#   From: 2010.03.12/outbox.cif.g09.slc.cpg/sg164_3_cif.got.tgz:4466.got - 2010.04.02 06:32:59.
