data_PCOD8323747
_publ_section_title
;
Structure prediction by ZEFSAII (Michael W. Deem and Ramdas Pophale) SiO2 
 PCOD8323747
Probable space group: P -3 M 1
;
_chemical_formula_sum "Si O2"
_cell_formula_units_Z 72
_cell_length_a 21.815050
_cell_length_b 21.815050
_cell_length_c 9.861307
_cell_angle_alpha 90.000000
_cell_angle_beta 90.000000
_cell_angle_gamma 120.000000
_cell_volume 4064.223068
_symmetry_space_group_name_H-M "P -3 M 1"
_symmetry_group_IT_number 164
_symmetry_cell_setting 'hexagonal'
loop_
_space_group_symop_operation_xyz
x,y,z
-y,x-y,z
-x+y,-x,z
x-y,-y,-z
-x,-x+y,-z
y,x,-z
-x,-y,-z
y,-x+y,-z
x-y,x,-z
-x+y,y,z
x,x-y,z
-y,-x,z
loop_
_atom_site_type_symbol
_atom_site_label
_atom_site_fract_x
_atom_site_fract_y
_atom_site_fract_z
Si Si1 0.309095 0.997149 0.658376
Si Si2 0.425920 0.283706 0.734051
Si Si3 0.851519 0.565251 0.033734
Si Si4 0.792092 0.065743 0.096908
Si Si5 0.806675 0.335730 0.507877
Si Si6 0.611972 0.086229 0.272117
O O1 0.237337 0.955180 0.747691
O O2 0.363537 0.967400 0.673591
O O3 0.291120 0.000000 0.500000
O O4 0.348757 0.074978 0.719530
O O5 0.413924 0.206962 0.705537
O O6 0.479264 0.339155 0.624454
O O7 0.460496 0.311944 0.881172
O O8 0.772226 0.544451 0.081982
O O9 0.900489 0.649696 0.029638
O O10 0.884843 0.528650 0.124075
O O11 0.876197 0.123804 0.103979
O O12 0.779740 0.000000 0.000000
O O13 0.780449 0.390225 0.546770
O O14 0.741364 0.258637 0.493835
O O15 0.845724 0.354963 0.366039
O O16 0.525957 0.051913 0.267485
#
# Coordination Sequence:
#
# PCOD8323747 Si02
#       6
#    12  12  12  12  12  12
#     4  11  21  35  53  79 113 141 178 219 266 320
#     4  10  20  34  53  75 101 137 176 217 270 320
#     4   9  18  34  54  74 102 137 177 222 266 315
#     4  10  20  35  58  85 112 143 177 215 258 309
#     4  10  20  34  51  72  99 137 184 229 274 321
#     4  10  21  33  50  75 105 141 179 222 275 327
#
# _framework density 17.715564000000001
#
# number of rings (size 3 to 8) (size 9 to 14) (size 15 to 20)
#    0.000    2.000    3.333    0.667    0.000    3.000 
#    0.000    0.833    0.000    0.500    0.000    0.000 
#    0.000    0.667    0.000    0.000    0.000    0.000 
#
# Total GULP energy -892464.235752 kJ/mol
# GULP energy per Si atom -12395.336608 kJ/mol
# Density = 1.767524 g / cm^3
# Si number density = 17.715564 Si / 1000 Ang^3
#
#
#
# Elastic Constant Matrix: (Units=GPa)
#
#
# Indices 1 2 3 4 5 6 
#
# 1 68.6555 34.0131 46.6099 -5.7477 0.0000 0.0000
# 2 34.0131 68.6555 46.6099 5.7477 0.0000 0.0000
# 3 46.6099 46.6099 91.5235 0.0000 0.0000 0.0000
# 4 -5.7477 5.7477 0.0000 23.3149 0.0000 0.0000
# 5 0.0000 0.0000 0.0000 0.0000 23.3149 -5.7477
# 6 0.0000 0.0000 0.0000 0.0000 -5.7477 17.3212
#
#
#
# Elastic Compliance Matrix: (Units=1/GPa)
#
#
# Indices 1 2 3 4 5 6 
#
# 1 0.024778 -0.006660 -0.009227 0.007750 0.000000 0.000000
# 2 -0.006660 0.024778 -0.009227 -0.007750 0.000000 0.000000
# 3 -0.009227 -0.009227 0.020324 0.000000 0.000000 0.000000
# 4 0.007750 -0.007750 0.000000 0.046712 0.000000 0.000000
# 5 0.000000 0.000000 0.000000 0.000000 0.046712 0.015501
# 6 0.000000 0.000000 0.000000 0.000000 0.015501 0.062876
#
#
# Mechanical properties :
#
#
# Convention : Reuss Voigt Hill
#
# Bulk Modulus (GPa) = 50.88462 53.70003 52.29233
# Shear Modulus (GPa) = 17.67038 19.56362 18.61700
#
# Velocity S-wave (km/s) = 3.16167 3.32673 3.24525
# Velocity P-wave (km/s) = 6.48950 6.71821 6.60485
#
# Compressibility (1/GPa) = 0.01965230
#
# Stress axis : x y z
#
# Youngs Moduli (GPa) = 40.35847 40.35847 49.20306
#
# Poissons Ratio (x) = 0.26880 0.45398
# Poissons Ratio (y) = 0.26880 0.45398
# Poissons Ratio (z) = 0.37238 0.37238
#
# Static dielectric constant tensor:
#      x y z
#    x 3.222430 0.000000 0.000000 
#    y 0.000000 3.222430 0.000000 
#    z 0.000000 0.000000 3.455270 
# 
# 
# High freq. dielectric constant tensor:
#      x y z
#    x 1.668050 0.000000 0.000000 
#    y 0.000000 1.668050 0.000000 
#    z 0.000000 0.000000 1.701340 
# 
# From -- ./inp_files/1951.got.cif
#   From: 2010.03.12/outbox.cif.g09.slc.cpg/sg164_1_cif.got.tgz:1951.got - 2010.04.02 06:32:59.
