data_PCOD8323927
_publ_section_title
;
Structure prediction by ZEFSAII (Michael W. Deem and Ramdas Pophale) SiO2 
 PCOD8323927
Probable space group: P -3 C 1
;
_chemical_formula_sum "Si O2"
_cell_formula_units_Z 78
_cell_length_a 17.133059
_cell_length_b 17.133059
_cell_length_c 16.748427
_cell_angle_alpha 90.000000
_cell_angle_beta 90.000000
_cell_angle_gamma 120.000000
_cell_volume 4257.694311
_symmetry_space_group_name_H-M "P -3 C 1"
_symmetry_group_IT_number 165
_symmetry_cell_setting 'hexagonal'
loop_
_space_group_symop_operation_xyz
x,y,z
-y,x-y,z
-x+y,-x,z
x-y,-y,1/2-z
-x,-x+y,1/2-z
y,x,1/2-z
-x,-y,-z
y,-x+y,-z
x-y,x,-z
-x+y,y,1/2+z
x,x-y,1/2+z
-y,-x,1/2+z
loop_
_atom_site_type_symbol
_atom_site_label
_atom_site_fract_x
_atom_site_fract_y
_atom_site_fract_z
Si Si1 0.142993 0.510688 0.873659
Si Si2 0.738247 0.630372 0.007014
Si Si3 0.595337 0.595337 0.750000
Si Si4 0.334735 0.847301 0.167673
Si Si5 0.152394 0.670334 0.140766
Si Si6 0.821295 0.301387 0.157056
Si Si7 0.716790 0.091166 0.981572
O O1 0.183755 0.616901 0.886516
O O2 0.218669 0.498088 0.827875
O O3 0.053810 0.478584 0.819057
O O4 0.120649 0.457304 0.957194
O O5 0.727853 0.604008 0.099394
O O6 0.711537 0.707164 0.996057
O O7 0.672666 0.546392 0.951003
O O8 0.840797 0.664915 0.980734
O O9 0.679901 0.600060 0.800179
O O10 0.255160 0.745961 0.153003
O O11 0.431016 0.855769 0.157850
O O12 0.328767 0.873811 0.258781
O O13 0.324874 0.913896 0.106053
#
# Coordination Sequence:
#
# PCOD8323927 Si02
#       7
#    12  12   6  12  12  12  12
#     4  11  22  36  53  75 108 143 183 215 263 308
#     4  10  23  38  55  77 105 136 170 216 266 315
#     4  12  20  32  58  72 100 150 182 222 252 304
#     4  11  21  34  52  78 106 142 177 221 255 309
#     4  11  22  36  53  75 108 143 183 215 263 308
#     4  11  21  34  52  78 106 142 177 221 255 309
#     4  10  23  38  55  77 105 136 170 216 266 315
#
# _framework density 18.319775
#
# number of rings (size 3 to 8) (size 9 to 14) (size 15 to 20)
#    0.000    1.231    4.615    1.538    2.154    1.846 
#    0.000    3.077    0.000    0.308    0.000    0.000 
#    0.000    0.000    0.000    2.769    0.000    0.000 
#
# Total GULP energy -966496.330777 kJ/mol
# GULP energy per Si atom -12390.978600 kJ/mol
# Density = 1.827808 g / cm^3
# Si number density = 18.319775 Si / 1000 Ang^3
#
#
#
# Elastic Constant Matrix: (Units=GPa)
#
#
# Indices 1 2 3 4 5 6 
#
# 1 62.4201 38.4675 22.2324 1.6626 0.0000 0.0000
# 2 38.4675 62.4201 22.2324 -1.6626 0.0000 0.0000
# 3 22.2324 22.2324 97.3649 0.0000 0.0000 0.0000
# 4 1.6626 -1.6626 0.0000 23.1849 0.0000 0.0000
# 5 0.0000 0.0000 0.0000 0.0000 23.1849 1.6626
# 6 0.0000 0.0000 0.0000 0.0000 1.6626 11.9763
#
#
#
# Elastic Compliance Matrix: (Units=1/GPa)
#
#
# Indices 1 2 3 4 5 6 
#
# 1 0.026595 -0.015574 -0.002517 -0.003024 0.000000 0.000000
# 2 -0.015574 0.026595 -0.002517 0.003024 0.000000 0.000000
# 3 -0.002517 -0.002517 0.011420 0.000000 0.000000 0.000000
# 4 -0.003024 0.003024 0.000000 0.043565 0.000000 0.000000
# 5 0.000000 0.000000 0.000000 0.000000 0.043565 -0.006048
# 6 0.000000 0.000000 0.000000 0.000000 -0.006048 0.084338
#
#
# Mechanical properties :
#
#
# Convention : Reuss Voigt Hill
#
# Bulk Modulus (GPa) = 42.74251 43.11887 42.93069
# Shear Modulus (GPa) = 17.53823 20.95405 19.24614
#
# Velocity S-wave (km/s) = 3.09745 3.38567 3.24476
# Velocity P-wave (km/s) = 6.01450 6.23471 6.12559
#
# Compressibility (1/GPa) = 0.02339591
#
# Stress axis : x y z
#
# Youngs Moduli (GPa) = 37.60091 37.60091 87.56622
#
# Poissons Ratio (x) = 0.58559 0.22037
# Poissons Ratio (y) = 0.58559 0.22037
# Poissons Ratio (z) = 0.09463 0.09463
#
# Static dielectric constant tensor:
#      x y z
#    x 3.276760 0.000000 0.000000 
#    y 0.000000 3.276760 0.000000 
#    z 0.000000 0.000000 3.748440 
# 
# 
# High freq. dielectric constant tensor:
#      x y z
#    x 1.684070 0.000000 0.000000 
#    y 0.000000 1.684070 0.000000 
#    z 0.000000 0.000000 1.737560 
# 
# From -- ./inp_files/2375.got.cif
#   From: 2010.03.12/outbox.cif.g09.slc.cpg/sg165_2_cif.got.tgz:2375.got - 2010.04.02 06:36:38.
