data_PCOD8323631
_publ_section_title
;
Structure prediction by ZEFSAII (Michael W. Deem and Ramdas Pophale) SiO2 
 PCOD8323631
Probable space group: P -3 M 1
;
_chemical_formula_sum "Si O2"
_cell_formula_units_Z 60
_cell_length_a 12.863428
_cell_length_b 12.863428
_cell_length_c 25.135625
_cell_angle_alpha 90.000000
_cell_angle_beta 90.000000
_cell_angle_gamma 120.000000
_cell_volume 3601.917490
_symmetry_space_group_name_H-M "P -3 M 1"
_symmetry_group_IT_number 164
_symmetry_cell_setting 'hexagonal'
loop_
_space_group_symop_operation_xyz
x,y,z
-y,x-y,z
-x+y,-x,z
x-y,-y,-z
-x,-x+y,-z
y,x,-z
-x,-y,-z
y,-x+y,-z
x-y,x,-z
-x+y,y,z
x,x-y,z
-y,-x,z
loop_
_atom_site_type_symbol
_atom_site_label
_atom_site_fract_x
_atom_site_fract_y
_atom_site_fract_z
Si Si1 0.238988 0.000110 0.060444
Si Si2 0.576230 0.665051 0.451956
Si Si3 0.905278 0.572105 0.240133
Si Si4 0.906334 0.572849 0.361938
Si Si5 0.333149 0.423515 0.150736
O O1 0.253181 0.126591 0.076558
O O2 0.324042 0.975781 0.098395
O O3 0.100124 0.899877 0.067728
O O4 0.280529 0.000000 0.000000
O O5 0.647369 0.647369 0.500000
O O6 0.587053 0.793527 0.456958
O O7 0.436516 0.563485 0.453076
O O8 0.638934 0.659982 0.397300
O O9 0.792340 0.584680 0.223597
O O10 0.868922 0.434461 0.231266
O O11 0.943238 0.611252 0.300979
O O12 0.015887 0.659691 0.203187
O O13 0.792927 0.585855 0.378701
O O14 0.869428 0.434714 0.371574
O O15 0.220386 0.440771 0.158231
O O16 0.447944 0.552057 0.143267
#
# Coordination Sequence:
#
# PCOD8323631 Si02
#       5
#    12  12  12  12  12
#     4   9  17  30  49  71  92 115 147 190 237 280
#     4  10  20  33  50  72  97 125 157 194 234 274
#     4   9  17  30  49  72  95 119 150 190 233 273
#     4   9  17  30  50  74  97 121 150 187 231 276
#     4  10  20  32  46  65  92 126 159 189 224 271
#
# _framework density 16.657793000000002
#
# number of rings (size 3 to 8) (size 9 to 14) (size 15 to 20)
#    0.000    2.600    0.000    2.200    0.000    3.600 
#    0.000    2.000    0.000    6.800    0.000    0.000 
#    0.000    0.000    0.000    0.000    0.000    0.000 
#
# Total GULP energy -744094.647699 kJ/mol
# GULP energy per Si atom -12401.577462 kJ/mol
# Density = 1.661988 g / cm^3
# Si number density = 16.657793 Si / 1000 Ang^3
#
#
#
# Elastic Constant Matrix: (Units=GPa)
#
#
# Indices 1 2 3 4 5 6 
#
# 1 114.8656 71.8302 70.3623 1.2771 0.0000 0.0000
# 2 71.8302 114.8656 70.3623 -1.2771 0.0000 0.0000
# 3 70.3623 70.3623 111.4475 0.0000 0.0000 0.0000
# 4 1.2771 -1.2771 0.0000 26.0347 0.0000 0.0000
# 5 0.0000 0.0000 0.0000 0.0000 26.0347 1.2771
# 6 0.0000 0.0000 0.0000 0.0000 1.2771 21.5177
#
#
#
# Elastic Compliance Matrix: (Units=1/GPa)
#
#
# Indices 1 2 3 4 5 6 
#
# 1 0.016762 -0.006542 -0.006452 -0.001143 0.000000 0.000000
# 2 -0.006542 0.016762 -0.006452 0.001143 0.000000 0.000000
# 3 -0.006452 -0.006452 0.017120 0.000000 0.000000 0.000000
# 4 -0.001143 0.001143 0.000000 0.038522 0.000000 0.000000
# 5 0.000000 0.000000 0.000000 0.000000 0.038522 -0.002286
# 6 0.000000 0.000000 0.000000 0.000000 -0.002286 0.046609
#
#
# Mechanical properties :
#
#
# Convention : Reuss Voigt Hill
#
# Bulk Modulus (GPa) = 85.10174 85.14314 85.12244
# Shear Modulus (GPa) = 23.02992 23.29235 23.16113
#
# Velocity S-wave (km/s) = 3.72227 3.74342 3.73286
# Velocity P-wave (km/s) = 8.34703 8.36112 8.35408
#
# Compressibility (1/GPa) = 0.01175064
#
# Stress axis : x y z
#
# Youngs Moduli (GPa) = 59.65825 59.65825 58.41101
#
# Poissons Ratio (x) = 0.39031 0.37688
# Poissons Ratio (y) = 0.39031 0.37688
# Poissons Ratio (z) = 0.38493 0.38493
#
# Static dielectric constant tensor:
#      x y z
#    x 3.014920 0.000000 0.000000 
#    y 0.000000 3.014920 0.000000 
#    z 0.000000 0.000000 3.347160 
# 
# 
# High freq. dielectric constant tensor:
#      x y z
#    x 1.634420 0.000000 0.000000 
#    y 0.000000 1.634420 0.000000 
#    z 0.000000 0.000000 1.654160 
# 
# From -- ./inp_files/5153.got.cif
#   From: 2010.03.12/outbox.cif.g09.slc.cpg/sg164_3_cif.got.tgz:5153.got - 2010.04.02 06:32:59.
