data_PCOD8323579
_publ_section_title
;
Structure prediction by ZEFSAII (Michael W. Deem and Ramdas Pophale) SiO2 
 PCOD8323579
Probable space group: P -3 M 1
;
_chemical_formula_sum "Si O2"
_cell_formula_units_Z 84
_cell_length_a 18.844905
_cell_length_b 18.844905
_cell_length_c 14.357706
_cell_angle_alpha 90.000000
_cell_angle_beta 90.000000
_cell_angle_gamma 120.000000
_cell_volume 4415.741003
_symmetry_space_group_name_H-M "P -3 M 1"
_symmetry_group_IT_number 164
_symmetry_cell_setting 'hexagonal'
loop_
_space_group_symop_operation_xyz
x,y,z
-y,x-y,z
-x+y,-x,z
x-y,-y,-z
-x,-x+y,-z
y,x,-z
-x,-y,-z
y,-x+y,-z
x-y,x,-z
-x+y,y,z
x,x-y,z
-y,-x,z
loop_
_atom_site_type_symbol
_atom_site_label
_atom_site_fract_x
_atom_site_fract_y
_atom_site_fract_z
Si Si1 0.919338 0.672772 0.290788
Si Si2 0.000114 0.160948 0.391003
Si Si3 0.824793 0.489964 0.064107
Si Si4 0.489646 0.823552 0.337195
Si Si5 0.537797 0.692405 0.137621
Si Si6 0.343710 0.020842 0.102817
Si Si7 0.582294 0.584713 0.609586
O O1 0.825011 0.650021 0.306441
O O2 0.940950 0.689684 0.180160
O O3 0.932344 0.600164 0.335370
O O4 0.982689 0.756646 0.340666
O O5 0.087430 0.174860 0.356937
O O6 0.000000 0.176393 0.500000
O O7 0.931510 0.068491 0.365365
O O8 0.753868 0.507735 0.100371
O O9 0.809559 0.404780 0.107925
O O10 0.913897 0.561013 0.092588
O O11 0.824052 0.481394 0.952861
O O12 0.405369 0.810737 0.382189
O O13 0.507445 0.753723 0.377053
O O14 0.478335 0.817349 0.225960
O O15 0.564656 0.912372 0.359835
O O16 0.584562 0.792281 0.133802
O O17 0.603400 0.663085 0.146779
O O18 0.298857 0.000000 0.000000
O O19 0.596831 0.596831 0.500000
O O20 0.489717 0.510284 0.632969
#
# Coordination Sequence:
#
# PCOD8323579 Si02
#       7
#    12  12  12  12  12  12  12
#     4  11  22  37  57  83 111 145 190 237 279 324
#     4   9  18  33  56  87 119 146 173 212 270 338
#     4  10  20  33  51  75 106 141 181 226 275 325
#     4  10  19  32  53  81 112 141 176 219 272 332
#     4   9  18  32  51  77 104 134 172 219 274 333
#     4  10  21  36  53  75 105 144 188 234 279 329
#     4  10  22  39  58  81 112 151 190 230 281 339
#
# _framework density 19.022855
#
# number of rings (size 3 to 8) (size 9 to 14) (size 15 to 20)
#    0.000    2.143    1.429    1.714    0.000    6.571 
#    0.000    1.429    0.000    0.286    0.000    0.000 
#    0.000    2.857    0.000    0.000    0.000    0.000 
#
# Total GULP energy -1040905.562652 kJ/mol
# GULP energy per Si atom -12391.732889 kJ/mol
# Density = 1.897956 g / cm^3
# Si number density = 19.022855 Si / 1000 Ang^3
#
#
#
# Elastic Constant Matrix: (Units=GPa)
#
#
# Indices 1 2 3 4 5 6 
#
# 1 113.7030 65.2252 30.5336 0.1148 0.0000 0.0000
# 2 65.2252 113.7030 30.5336 -0.1148 0.0000 0.0000
# 3 30.5336 30.5336 69.1710 0.0000 0.0000 0.0000
# 4 0.1148 -0.1148 0.0000 20.5543 0.0000 0.0000
# 5 0.0000 0.0000 0.0000 0.0000 20.5543 0.1148
# 6 0.0000 0.0000 0.0000 0.0000 0.1148 24.2389
#
#
#
# Elastic Compliance Matrix: (Units=1/GPa)
#
#
# Indices 1 2 3 4 5 6 
#
# 1 0.013604 -0.007024 -0.002905 -0.000115 0.000000 0.000000
# 2 -0.007024 0.013604 -0.002905 0.000115 0.000000 0.000000
# 3 -0.002905 -0.002905 0.017021 0.000000 0.000000 0.000000
# 4 -0.000115 0.000115 0.000000 0.048653 0.000000 0.000000
# 5 0.000000 0.000000 0.000000 0.000000 0.048653 -0.000230
# 6 0.000000 0.000000 0.000000 0.000000 -0.000230 0.041257
#
#
# Mechanical properties :
#
#
# Convention : Reuss Voigt Hill
#
# Bulk Modulus (GPa) = 53.87041 61.01799 57.44420
# Shear Modulus (GPa) = 23.29401 24.42181 23.85791
#
# Velocity S-wave (km/s) = 3.50312 3.58692 3.54527
# Velocity P-wave (km/s) = 6.68900 7.02143 6.85723
#
# Compressibility (1/GPa) = 0.01856307
#
# Stress axis : x y z
#
# Youngs Moduli (GPa) = 73.50584 73.50584 58.75002
#
# Poissons Ratio (x) = 0.51632 0.17065
# Poissons Ratio (y) = 0.51632 0.17065
# Poissons Ratio (z) = 0.21351 0.21351
#
# Static dielectric constant tensor:
#      x y z
#    x 3.455530 0.000000 0.000000 
#    y 0.000000 3.455530 0.000000 
#    z 0.000000 0.000000 3.570840 
# 
# 
# High freq. dielectric constant tensor:
#      x y z
#    x 1.734310 0.000000 0.000000 
#    y 0.000000 1.734310 0.000000 
#    z 0.000000 0.000000 1.729790 
# 
# From -- ./inp_files/3555.got.cif
#   From: 2010.03.12/outbox.cif.g09.slc.cpg/sg164_2_cif.got.tgz:3555.got - 2010.04.02 06:32:59.
