data_PCOD8323818
_publ_section_title
;
Structure prediction by ZEFSAII (Michael W. Deem and Ramdas Pophale) SiO2 
 PCOD8323818
Probable space group: P -3 M 1
;
_chemical_formula_sum "Si O2"
_cell_formula_units_Z 36
_cell_length_a 19.875984
_cell_length_b 19.875984
_cell_length_c 4.975146
_cell_angle_alpha 90.000000
_cell_angle_beta 90.000000
_cell_angle_gamma 120.000000
_cell_volume 1702.133968
_symmetry_space_group_name_H-M "P -3 M 1"
_symmetry_group_IT_number 164
_symmetry_cell_setting 'hexagonal'
loop_
_space_group_symop_operation_xyz
x,y,z
-y,x-y,z
-x+y,-x,z
x-y,-y,-z
-x,-x+y,-z
y,x,-z
-x,-y,-z
y,-x+y,-z
x-y,x,-z
-x+y,y,z
x,x-y,z
-y,-x,z
loop_
_atom_site_type_symbol
_atom_site_label
_atom_site_fract_x
_atom_site_fract_y
_atom_site_fract_z
Si Si1 0.420224 0.332679 0.557489
Si Si2 0.204202 0.255929 0.258753
Si Si3 0.822092 0.487811 0.051526
O O1 0.401158 0.401158 0.500000
O O2 0.344556 0.253827 0.647072
O O3 0.450658 0.313075 0.288370
O O4 0.484387 0.360547 0.788834
O O5 0.199969 0.199969 0.500000
O O6 0.117629 0.235257 0.183549
O O7 0.244749 0.244749 0.000000
O O8 0.739728 0.479456 0.979896
O O9 0.809569 0.404785 0.142111
#
# Coordination Sequence:
#
# PCOD8323818 Si02
#       3
#    12  12  12
#     4  11  24  41  64  93 121 155 200 258 312 351
#     4  11  22  39  64  92 123 158 201 249 302 361
#     4  12  25  42  63  88 124 165 205 245 295 363
#
# _framework density 21.149920999999999
#
# number of rings (size 3 to 8) (size 9 to 14) (size 15 to 20)
#    0.000    0.667    0.000   10.333    0.000    4.000 
#    0.000    3.333    0.000    6.667    0.000    0.000 
#    0.000    0.000    0.000    0.000    0.000    0.000 
#
# Total GULP energy -446694.888740 kJ/mol
# GULP energy per Si atom -12408.191354 kJ/mol
# Density = 2.110178 g / cm^3
# Si number density = 21.149921 Si / 1000 Ang^3
#
#
#
# Elastic Constant Matrix: (Units=GPa)
#
#
# Indices 1 2 3 4 5 6 
#
# 1 105.7580 75.0288 41.3169 0.1527 0.0000 0.0000
# 2 75.0288 105.7580 41.3169 -0.1527 0.0000 0.0000
# 3 41.3169 41.3169 126.9682 0.0000 0.0000 0.0000
# 4 0.1527 -0.1527 0.0000 18.5940 0.0000 0.0000
# 5 0.0000 0.0000 0.0000 0.0000 18.5940 0.1527
# 6 0.0000 0.0000 0.0000 0.0000 0.1527 15.3646
#
#
#
# Elastic Compliance Matrix: (Units=1/GPa)
#
#
# Indices 1 2 3 4 5 6 
#
# 1 0.019521 -0.013024 -0.002114 -0.000267 0.000000 0.000000
# 2 -0.013024 0.019521 -0.002114 0.000267 0.000000 0.000000
# 3 -0.002114 -0.002114 0.009252 0.000000 0.000000 0.000000
# 4 -0.000267 0.000267 0.000000 0.053785 0.000000 0.000000
# 5 0.000000 0.000000 0.000000 0.000000 0.053785 -0.000535
# 6 0.000000 0.000000 0.000000 0.000000 -0.000535 0.065090
#
#
# Mechanical properties :
#
#
# Convention : Reuss Voigt Hill
#
# Bulk Modulus (GPa) = 72.51660 72.64550 72.58105
# Shear Modulus (GPa) = 19.22656 22.56531 20.89594
#
# Velocity S-wave (km/s) = 3.01833 3.26992 3.14664
# Velocity P-wave (km/s) = 6.81971 6.97703 6.89882
#
# Compressibility (1/GPa) = 0.01378995
#
# Stress axis : x y z
#
# Youngs Moduli (GPa) = 51.22578 51.22578 108.08313
#
# Poissons Ratio (x) = 0.66714 0.22854
# Poissons Ratio (y) = 0.66714 0.22854
# Poissons Ratio (z) = 0.10832 0.10832
#
# Static dielectric constant tensor:
#      x y z
#    x 3.708270 0.000000 0.000000 
#    y 0.000000 3.708270 0.000000 
#    z 0.000000 0.000000 4.065990 
# 
# 
# High freq. dielectric constant tensor:
#      x y z
#    x 1.827740 0.000000 0.000000 
#    y 0.000000 1.827740 0.000000 
#    z 0.000000 0.000000 1.848140 
# 
# From -- ./inp_files/283.got.cif
#   From: 2010.03.12/outbox.cif.g09.slc.cpg/sg164_1_cif.got.tgz:283.got - 2010.04.02 06:32:59.
