data_PCOD8323795
_publ_section_title
;
Structure prediction by ZEFSAII (Michael W. Deem and Ramdas Pophale) SiO2 
 PCOD8323795
Probable space group: P -3 M 1
;
_chemical_formula_sum "Si O2"
_cell_formula_units_Z 84
_cell_length_a 17.457514
_cell_length_b 17.457514
_cell_length_c 14.084784
_cell_angle_alpha 90.000000
_cell_angle_beta 90.000000
_cell_angle_gamma 120.000000
_cell_volume 3717.454151
_symmetry_space_group_name_H-M "P -3 M 1"
_symmetry_group_IT_number 164
_symmetry_cell_setting 'hexagonal'
loop_
_space_group_symop_operation_xyz
x,y,z
-y,x-y,z
-x+y,-x,z
x-y,-y,-z
-x,-x+y,-z
y,x,-z
-x,-y,-z
y,-x+y,-z
x-y,x,-z
-x+y,y,z
x,x-y,z
-y,-x,z
loop_
_atom_site_type_symbol
_atom_site_label
_atom_site_fract_x
_atom_site_fract_y
_atom_site_fract_z
Si Si1 0.554506 0.940266 0.893781
Si Si2 0.164476 0.665402 0.079537
Si Si3 0.665581 0.508835 0.707884
Si Si4 0.664862 0.160137 0.289393
Si Si5 0.955752 0.734034 0.098816
Si Si6 0.000146 0.666417 0.611950
Si Si7 0.000340 0.825840 0.707405
O O1 0.495086 0.990172 0.876832
O O2 0.510482 0.855364 0.824322
O O3 0.659411 0.983033 0.874771
O O4 0.630512 0.084293 0.994216
O O5 0.211219 0.605610 0.075036
O O6 0.234823 0.765178 0.053259
O O7 0.122861 0.657518 0.183481
O O8 0.741393 0.482785 0.701275
O O9 0.574520 0.425481 0.672285
O O10 0.690576 0.593169 0.644324
O O11 0.593430 0.186860 0.324431
O O12 0.762255 0.237746 0.315388
O O13 0.644309 0.071147 0.343226
O O14 0.849094 0.698188 0.095664
O O15 0.999691 0.806424 0.180961
O O16 0.000000 0.781051 0.000000
O O17 0.021928 0.762735 0.644436
O O18 0.000000 0.660719 0.500000
O O19 0.074272 0.925729 0.683850
O O20 0.905745 0.811490 0.677859
#
# Coordination Sequence:
#
# PCOD8323795 Si02
#       7
#    12  12  12  12  12  12  12
#     4  10  21  36  59  94 137 182 222 263 314 375
#     4   9  17  30  52  85 128 173 217 263 313 368
#     4  10  22  41  66  98 135 178 226 275 327 389
#     4  11  23  42  67  97 133 176 225 274 326 389
#     4  11  23  40  64  97 137 178 221 269 322 382
#     4  12  27  47  69  95 131 170 213 275 348 408
#     4  11  25  47  74 103 133 168 212 266 330 402
#
# _framework density 22.596108000000001
#
# number of rings (size 3 to 8) (size 9 to 14) (size 15 to 20)
#    0.000    1.429    1.429    3.571    2.000    4.857 
#    0.000    1.429    0.000    5.143    0.000    0.000 
#    0.000    0.000    0.000    0.000    0.000    0.000 
#
# Total GULP energy -1041314.880043 kJ/mol
# GULP energy per Si atom -12396.605715 kJ/mol
# Density = 2.254468 g / cm^3
# Si number density = 22.596108 Si / 1000 Ang^3
#
#
#
# Elastic Constant Matrix: (Units=GPa)
#
#
# Indices 1 2 3 4 5 6 
#
# 1 103.1224 28.2990 24.3064 -1.4424 0.0000 0.0000
# 2 28.2990 103.1224 24.3064 1.4424 0.0000 0.0000
# 3 24.3064 24.3064 102.9699 0.0000 0.0000 0.0000
# 4 -1.4424 1.4424 0.0000 13.1047 0.0000 0.0000
# 5 0.0000 0.0000 0.0000 0.0000 13.1047 -1.4424
# 6 0.0000 0.0000 0.0000 0.0000 -1.4424 37.4117
#
#
#
# Elastic Compliance Matrix: (Units=1/GPa)
#
#
# Indices 1 2 3 4 5 6 
#
# 1 0.010879 -0.002542 -0.001968 0.001477 0.000000 0.000000
# 2 -0.002542 0.010879 -0.001968 -0.001477 0.000000 0.000000
# 3 -0.001968 -0.001968 0.010641 0.000000 0.000000 0.000000
# 4 0.001477 -0.001477 0.000000 0.076634 0.000000 0.000000
# 5 0.000000 0.000000 0.000000 0.000000 0.076634 0.002955
# 6 0.000000 0.000000 0.000000 0.000000 0.002955 0.026844
#
#
# Mechanical properties :
#
#
# Convention : Reuss Voigt Hill
#
# Bulk Modulus (GPa) = 51.43280 51.44870 51.44075
# Shear Modulus (GPa) = 21.55650 28.21106 24.88378
#
# Velocity S-wave (km/s) = 3.09203 3.53723 3.32210
# Velocity P-wave (km/s) = 5.96311 6.28498 6.12616
#
# Compressibility (1/GPa) = 0.01944285
#
# Stress axis : x y z
#
# Youngs Moduli (GPa) = 91.91671 91.91671 93.97893
#
# Poissons Ratio (x) = 0.23368 0.18495
# Poissons Ratio (y) = 0.23368 0.18495
# Poissons Ratio (z) = 0.18089 0.18089
#
# Static dielectric constant tensor:
#      x y z
#    x 4.063910 0.000000 0.000000 
#    y 0.000000 4.063910 0.000000 
#    z 0.000000 0.000000 4.052740 
# 
# 
# High freq. dielectric constant tensor:
#      x y z
#    x 1.898690 0.000000 0.000000 
#    y 0.000000 1.898690 0.000000 
#    z 0.000000 0.000000 1.876380 
# 
# From -- ./inp_files/3622.got.cif
#   From: 2010.03.12/outbox.cif.g09.slc.cpg/sg164_2_cif.got.tgz:3622.got - 2010.04.02 06:32:59.
