data_PCOD8323235
_publ_section_title
;
Structure prediction by ZEFSAII (Michael W. Deem and Ramdas Pophale) SiO2 
 PCOD8323235
Probable space group: P -3 1 C
;
_chemical_formula_sum "Si O2"
_cell_formula_units_Z 64
_cell_length_a 15.941509
_cell_length_b 15.941509
_cell_length_c 17.031683
_cell_angle_alpha 90.000000
_cell_angle_beta 90.000000
_cell_angle_gamma 120.000000
_cell_volume 3748.409711
_symmetry_space_group_name_H-M "P -3 1 C"
_symmetry_group_IT_number 163
_symmetry_cell_setting 'hexagonal'
loop_
_space_group_symop_operation_xyz
x,y,z
-y,x-y,z
-x+y,-x,z
-y,-x,1/2-z
-x+y,y,1/2-z
x,x-y,1/2-z
-x,-y,-z
y,-x+y,-z
x-y,x,-z
y,x,1/2+z
x-y,-y,1/2+z
-x,-x+y,1/2+z
loop_
_atom_site_type_symbol
_atom_site_label
_atom_site_fract_x
_atom_site_fract_y
_atom_site_fract_z
Si Si1 0.484309 0.180254 0.092812
Si Si2 0.027619 0.432674 0.395957
Si Si3 0.967384 0.592768 0.932222
Si Si4 0.333333 0.666667 0.342829
Si Si5 0.362346 0.524391 0.674631
Si Si6 0.463770 0.226463 0.915953
O O1 0.480497 0.247303 0.162878
O O2 0.584487 0.177717 0.099211
O O3 0.396522 0.069570 0.106641
O O4 0.481659 0.219541 0.007840
O O5 0.061200 0.545232 0.407418
O O6 0.121071 0.421925 0.375458
O O7 0.977155 0.372869 0.474189
O O8 0.949503 0.386235 0.325042
O O9 0.878675 0.609425 0.906530
O O10 0.333334 0.666667 0.250000
O O11 0.303370 0.561187 0.373981
O O12 0.406663 0.593338 0.750000
#
# Coordination Sequence:
#
# PCOD8323235 Si02
#       6
#    12  12  12   4  12  12
#     4  10  20  32  52  71  95 131 182 202 257 318
#     4   9  18  30  47  72  92 125 174 206 257 307
#     4   9  17  31  49  72  89 125 173 221 245 297
#     4  12  24  30  45  69  91 128 175 198 261 309
#     4  11  20  32  48  74 108 136 162 212 265 319
#     4  11  18  35  53  64  98 129 174 223 247 306
#
# _framework density 17.073906999999998
#
# number of rings (size 3 to 8) (size 9 to 14) (size 15 to 20)
#    0.000    1.875    3.750    3.188    0.000    0.750 
#    0.000    0.000    0.000    0.000    0.000    0.000 
#    1.875    3.375    0.000    0.000    1.500    1.312 
#
# Total GULP energy -793109.978972 kJ/mol
# GULP energy per Si atom -12392.343421 kJ/mol
# Density = 1.703505 g / cm^3
# Si number density = 17.073907 Si / 1000 Ang^3
#
#
#
# Elastic Constant Matrix: (Units=GPa)
#
#
# Indices 1 2 3 4 5 6 
#
# 1 116.7040 42.8696 34.2188 -0.0032 2.4164 -0.0052
# 2 42.8696 116.6996 34.2167 0.0046 -2.4178 0.0073
# 3 34.2188 34.2167 55.2966 0.0003 -0.0006 0.0005
# 4 -0.0032 0.0046 0.0003 20.6629 0.0024 -2.4178
# 5 2.4164 -2.4178 -0.0006 0.0024 20.6635 0.0039
# 6 -0.0052 0.0073 0.0005 -2.4178 0.0039 36.9154
#
#
#
# Elastic Compliance Matrix: (Units=1/GPa)
#
#
# Indices 1 2 3 4 5 6 
#
# 1 0.011090 -0.002559 -0.005279 0.000003 -0.001596 0.000002
# 2 -0.002559 0.011090 -0.005279 -0.000003 0.001597 -0.000003
# 3 -0.005279 -0.005279 0.024617 0.000000 0.000000 0.000000
# 4 0.000003 -0.000003 0.000000 0.048770 -0.000007 0.003194
# 5 -0.001596 0.001597 0.000000 -0.000007 0.048768 -0.000006
# 6 0.000002 -0.000003 0.000000 0.003194 -0.000006 0.027298
#
#
# Mechanical properties :
#
#
# Convention : Reuss Voigt Hill
#
# Bulk Modulus (GPa) = 48.62983 56.81226 52.72105
# Shear Modulus (GPa) = 24.42350 27.47469 25.94910
#
# Velocity S-wave (km/s) = 3.78624 4.01579 3.90270
# Velocity P-wave (km/s) = 6.90347 7.40599 7.15914
#
# Compressibility (1/GPa) = 0.02056351
#
# Stress axis : x y z
#
# Youngs Moduli (GPa) = 90.17431 90.17248 40.62161
#
# Poissons Ratio (x) = 0.23075 0.21444
# Poissons Ratio (y) = 0.23076 0.21443
# Poissons Ratio (z) = 0.47603 0.47599
#
# Static dielectric constant tensor:
#      x y z
#    x 3.209440 0.000000 0.000000 
#    y 0.000000 3.209440 0.000000 
#    z 0.000000 0.000000 3.067310 
# 
# 
# High freq. dielectric constant tensor:
#      x y z
#    x 1.635370 0.000000 0.000000 
#    y 0.000000 1.635370 0.000000 
#    z 0.000000 0.000000 1.646470 
# 
# From -- ./inp_files/3069.got.cif
#   From: 2010.03.12/outbox.cif.g09.slc.cpg/sg163_2_cif.got.tgz:3069.got - 2010.04.02 06:30:25.
