data_PCOD8323719
_publ_section_title
;
Structure prediction by ZEFSAII (Michael W. Deem and Ramdas Pophale) SiO2 
 PCOD8323719
Probable space group: P -3 M 1
;
_chemical_formula_sum "Si O2"
_cell_formula_units_Z 60
_cell_length_a 12.731312
_cell_length_b 12.731312
_cell_length_c 25.553842
_cell_angle_alpha 90.000000
_cell_angle_beta 90.000000
_cell_angle_gamma 120.000000
_cell_volume 3587.014725
_symmetry_space_group_name_H-M "P -3 M 1"
_symmetry_group_IT_number 164
_symmetry_cell_setting 'hexagonal'
loop_
_space_group_symop_operation_xyz
x,y,z
-y,x-y,z
-x+y,-x,z
x-y,-y,-z
-x,-x+y,-z
y,x,-z
-x,-y,-z
y,-x+y,-z
x-y,x,-z
-x+y,y,z
x,x-y,z
-y,-x,z
loop_
_atom_site_type_symbol
_atom_site_label
_atom_site_fract_x
_atom_site_fract_y
_atom_site_fract_z
Si Si1 0.000638 0.244901 0.558118
Si Si2 0.665083 0.578479 0.144993
Si Si3 0.909825 0.576281 0.645015
Si Si4 0.579604 0.914931 0.048476
Si Si5 0.576723 0.909942 0.236755
O O1 0.886394 0.113607 0.566150
O O2 0.004220 0.334837 0.602999
O O3 0.000000 0.296213 0.500000
O O4 0.115116 0.230232 0.566564
O O5 0.795101 0.590202 0.137680
O O6 0.562911 0.437090 0.141939
O O7 0.643513 0.654318 0.100584
O O8 0.660876 0.636996 0.200205
O O9 0.776993 0.553986 0.634498
O O10 0.903492 0.451746 0.634276
O O11 0.952202 0.623116 0.704115
O O12 0.438521 0.877042 0.046585
O O13 0.588689 0.794345 0.046630
O O14 0.652050 0.000000 0.000000
O O15 0.435917 0.871833 0.230736
O O16 0.588002 0.794001 0.220483
#
# Coordination Sequence:
#
# PCOD8323719 Si02
#       5
#    12  12  12  12  12
#     4   9  17  29  45  64  86 115 152 192 230 268
#     4  10  20  33  50  71  96 126 158 193 232 274
#     4   9  17  29  46  68  92 118 148 184 229 278
#     4  10  20  34  54  78 102 128 159 197 237 276
#     4   9  17  30  49  71  93 118 150 190 233 276
#
# _framework density 16.727001000000001
#
# number of rings (size 3 to 8) (size 9 to 14) (size 15 to 20)
#    0.000    2.600    0.000    2.200    0.000    3.600 
#    0.000    4.000    0.000    8.000    0.000    0.000 
#    0.000    0.000    0.000    0.000    0.000    0.000 
#
# Total GULP energy -743921.656109 kJ/mol
# GULP energy per Si atom -12398.694268 kJ/mol
# Density = 1.668893 g / cm^3
# Si number density = 16.727001 Si / 1000 Ang^3
#
#
#
# Elastic Constant Matrix: (Units=GPa)
#
#
# Indices 1 2 3 4 5 6 
#
# 1 91.3187 43.4996 56.3406 4.8010 0.0000 0.0000
# 2 43.4996 91.3187 56.3406 -4.8010 0.0000 0.0000
# 3 56.3406 56.3406 125.2294 0.0000 0.0000 0.0000
# 4 4.8010 -4.8010 0.0000 30.1462 0.0000 0.0000
# 5 0.0000 0.0000 0.0000 0.0000 30.1462 4.8010
# 6 0.0000 0.0000 0.0000 0.0000 4.8010 23.9096
#
#
#
# Elastic Compliance Matrix: (Units=1/GPa)
#
#
# Indices 1 2 3 4 5 6 
#
# 1 0.016745 -0.004858 -0.005348 -0.003440 0.000000 0.000000
# 2 -0.004858 0.016745 -0.005348 0.003440 0.000000 0.000000
# 3 -0.005348 -0.005348 0.012798 0.000000 0.000000 0.000000
# 4 -0.003440 0.003440 0.000000 0.034267 0.000000 0.000000
# 5 0.000000 0.000000 0.000000 0.000000 0.034267 -0.006881
# 6 0.000000 0.000000 0.000000 0.000000 -0.006881 0.043206
#
#
# Mechanical properties :
#
#
# Convention : Reuss Voigt Hill
#
# Bulk Modulus (GPa) = 65.87691 68.91426 67.39558
# Shear Modulus (GPa) = 25.74708 26.95280 26.34994
#
# Velocity S-wave (km/s) = 3.92759 4.01850 3.97330
# Velocity P-wave (km/s) = 7.74835 7.92590 7.83763
#
# Compressibility (1/GPa) = 0.01517983
#
# Stress axis : x y z
#
# Youngs Moduli (GPa) = 59.71877 59.71877 78.13981
#
# Poissons Ratio (x) = 0.29010 0.41790
# Poissons Ratio (y) = 0.29010 0.41790
# Poissons Ratio (z) = 0.31938 0.31938
#
# Static dielectric constant tensor:
#      x y z
#    x 2.991820 0.000000 0.000000 
#    y 0.000000 2.991820 0.000000 
#    z 0.000000 0.000000 3.530310 
# 
# 
# High freq. dielectric constant tensor:
#      x y z
#    x 1.631400 0.000000 0.000000 
#    y 0.000000 1.631400 0.000000 
#    z 0.000000 0.000000 1.664150 
# 
# From -- ./inp_files/5150.got.cif
#   From: 2010.03.12/outbox.cif.g09.slc.cpg/sg164_3_cif.got.tgz:5150.got - 2010.04.02 06:32:59.
