data_PCOD8323102
_publ_section_title
;
Structure prediction by ZEFSAII (Michael W. Deem and Ramdas Pophale) SiO2 
 PCOD8323102
Probable space group: P -3 1 M 
;
_chemical_formula_sum "Si O2"
_cell_formula_units_Z 60
_cell_length_a 15.159235
_cell_length_b 15.159235
_cell_length_c 14.043713
_cell_angle_alpha 90.000000
_cell_angle_beta 90.000000
_cell_angle_gamma 120.000000
_cell_volume 2794.905628
_symmetry_space_group_name_H-M "P -3 1 M "
_symmetry_group_IT_number 162
_symmetry_cell_setting 'hexagonal'
loop_
_space_group_symop_operation_xyz
x,y,z
-y,x-y,z
-x+y,-x,z
-y,-x,-z
-x+y,y,-z
x,x-y,-z
-x,-y,-z
y,-x+y,-z
x-y,x,-z
y,x,z
x-y,-y,z
-x,-x+y,z
loop_
_atom_site_type_symbol
_atom_site_label
_atom_site_fract_x
_atom_site_fract_y
_atom_site_fract_z
Si Si1 0.315798 0.197340 0.400274
Si Si2 0.391854 0.511745 0.408175
Si Si3 0.775150 0.554559 0.888062
Si Si4 0.118439 0.563412 0.799256
Si Si5 0.880380 0.116034 0.793408
O O1 0.277749 0.138875 0.500000
O O2 0.266338 0.266338 0.382168
O O3 0.438158 0.269887 0.398718
O O4 0.280205 0.118734 0.312538
O O5 0.415494 0.584507 0.500000
O O6 0.441971 0.441971 0.425198
O O7 0.435509 0.579280 0.313277
O O8 0.663828 0.480260 0.847811
O O9 0.854524 0.525093 0.844074
O O10 0.813432 0.671691 0.863306
O O11 0.770096 0.540191 0.000000
O O12 0.000000 0.483789 0.816774
O O13 0.000000 0.155252 0.794367
O O14 0.821200 0.000000 0.829438
#
# Coordination Sequence:
#
# PCOD8323102 Si02
#       5
#    12  12  12  12  12
#     4  10  20  36  59  90 128 170 216 265 321 392
#     4   9  19  35  59  92 130 166 202 252 317 388
#     4  12  26  44  69  99 129 170 225 278 336 404
#     4  11  24  45  68  96 134 171 209 264 330 394
#     4  11  24  43  66  96 134 178 230 286 341 398
#
# _framework density 21.467631000000001
#
# number of rings (size 3 to 8) (size 9 to 14) (size 15 to 20)
#    0.000    1.400    2.000    3.000    2.800    4.000 
#    0.000    0.000    0.000    4.800    0.000    0.000 
#    0.000    0.000    0.000    0.000    0.000    0.000 
#
# Total GULP energy -744168.759858 kJ/mol
# GULP energy per Si atom -12402.812664 kJ/mol
# Density = 2.141877 g / cm^3
# Si number density = 21.467631 Si / 1000 Ang^3
#
#
#
# Elastic Constant Matrix: (Units=GPa)
#
#
# Indices 1 2 3 4 5 6 
#
# 1 73.9151 17.1379 28.1190 0.0000 -0.4143 0.0000
# 2 17.1379 73.9151 28.1190 0.0000 0.4143 0.0000
# 3 28.1190 28.1190 138.5169 0.0000 0.0000 0.0000
# 4 0.0000 0.0000 0.0000 20.8000 0.0000 0.4143
# 5 -0.4143 0.4143 0.0000 0.0000 20.8000 0.0000
# 6 0.0000 0.0000 0.0000 0.4143 0.0000 28.3886
#
#
#
# Elastic Compliance Matrix: (Units=1/GPa)
#
#
# Indices 1 2 3 4 5 6 
#
# 1 0.015087 -0.002530 -0.002549 0.000000 0.000351 0.000000
# 2 -0.002530 0.015087 -0.002549 0.000000 -0.000351 0.000000
# 3 -0.002549 -0.002549 0.008254 0.000000 0.000000 0.000000
# 4 0.000000 0.000000 0.000000 0.048091 0.000000 -0.000702
# 5 0.000351 -0.000351 0.000000 0.000000 0.048091 0.000000
# 6 0.000000 0.000000 0.000000 -0.000702 0.000000 0.035236
#
#
# Mechanical properties :
#
#
# Convention : Reuss Voigt Hill
#
# Bulk Modulus (GPa) = 43.15557 48.12211 45.63884
# Shear Modulus (GPa) = 25.92988 28.19580 27.06284
#
# Velocity S-wave (km/s) = 3.47920 3.62803 3.55439
# Velocity P-wave (km/s) = 6.02379 6.32574 6.17661
#
# Compressibility (1/GPa) = 0.02317198
#
# Stress axis : x y z
#
# Youngs Moduli (GPa) = 66.28039 66.28039 121.14946
#
# Poissons Ratio (x) = 0.16772 0.30882
# Poissons Ratio (y) = 0.16772 0.30882
# Poissons Ratio (z) = 0.16895 0.16895
#
# Static dielectric constant tensor:
#      x y z
#    x 3.778280 0.000000 0.000000 
#    y 0.000000 3.778280 0.000000 
#    z 0.000000 0.000000 4.062730 
# 
# 
# High freq. dielectric constant tensor:
#      x y z
#    x 1.838590 0.000000 0.000000 
#    y 0.000000 1.838590 0.000000 
#    z 0.000000 0.000000 1.848590 
# 
# From -- ./inp_files/2931.got.cif
#   From: 2010.03.12/outbox.cif.g09.slc.cpg/sg162_2_cif.got.tgz:2931.got - 2010.04.02 06:27:41.
