data_PCOD8323801
_publ_section_title
;
Structure prediction by ZEFSAII (Michael W. Deem and Ramdas Pophale) SiO2 
 PCOD8323801
Probable space group: P -3 M 1
;
_chemical_formula_sum "Si O2"
_cell_formula_units_Z 84
_cell_length_a 17.910664
_cell_length_b 17.910664
_cell_length_c 15.203519
_cell_angle_alpha 90.000000
_cell_angle_beta 90.000000
_cell_angle_gamma 120.000000
_cell_volume 4223.749237
_symmetry_space_group_name_H-M "P -3 M 1"
_symmetry_group_IT_number 164
_symmetry_cell_setting 'hexagonal'
loop_
_space_group_symop_operation_xyz
x,y,z
-y,x-y,z
-x+y,-x,z
x-y,-y,-z
-x,-x+y,-z
y,x,-z
-x,-y,-z
y,-x+y,-z
x-y,x,-z
-x+y,y,z
x,x-y,z
-y,-x,z
loop_
_atom_site_type_symbol
_atom_site_label
_atom_site_fract_x
_atom_site_fract_y
_atom_site_fract_z
Si Si1 0.497745 0.830400 0.145479
Si Si2 0.233754 0.293670 0.582647
Si Si3 0.428401 0.404433 0.354238
Si Si4 0.293672 0.059917 0.082647
Si Si5 0.976032 0.571600 0.145771
Si Si6 0.667345 0.169600 0.645465
Si Si7 0.823888 0.825532 0.750000
O O1 0.402597 0.805193 0.111798
O O2 0.522737 0.761369 0.107036
O O3 0.497263 0.828168 0.250007
O O4 0.565932 0.926458 0.114509
O O5 0.249561 0.249561 0.500000
O O6 0.150483 0.300965 0.564440
O O7 0.311621 0.391823 0.600386
O O8 0.222558 0.233759 0.665773
O O9 0.525145 0.474856 0.386749
O O10 0.429978 0.396226 0.250005
O O11 0.360528 0.434070 0.385504
O O12 0.300969 0.150485 0.064435
O O13 0.391824 0.080203 0.100393
O O14 0.233755 0.011204 0.165770
O O15 0.249568 0.000000 0.000000
O O16 0.949714 0.474857 0.113260
O O17 0.597405 0.194809 0.611785
O O18 0.761370 0.238631 0.607022
O O19 0.908279 0.816557 0.750000
O O20 0.852566 0.926283 0.749996
#
# Coordination Sequence:
#
# PCOD8323801 Si02
#       7
#    12  12  12  12  12  12  12
#     4   8  13  21  37  65 102 141 178 215 263 325
#     4  11  23  39  60  88 118 155 201 251 306 364
#     4   9  18  34  55  82 115 152 191 235 288 346
#     4  11  23  39  60  88 118 155 201 251 306 364
#     4   9  18  34  55  82 115 152 191 235 288 346
#     4   8  13  21  37  65 102 141 178 215 263 325
#     4  10  21  38  59  84 116 154 198 252 313 372
#
# _framework density 19.887543999999998
#
# number of rings (size 3 to 8) (size 9 to 14) (size 15 to 20)
#    0.000    2.571    1.429    3.000    0.000    4.000 
#    0.000    0.000    0.000    5.143    0.000    2.000 
#    0.000    0.000    0.000    0.000    0.000    0.000 
#
# Total GULP energy -1041154.128448 kJ/mol
# GULP energy per Si atom -12394.692005 kJ/mol
# Density = 1.984228 g / cm^3
# Si number density = 19.887544 Si / 1000 Ang^3
#
#
#
# Elastic Constant Matrix: (Units=GPa)
#
#
# Indices 1 2 3 4 5 6 
#
# 1 108.4965 79.6296 46.5028 0.0007 0.0000 0.0000
# 2 79.6296 108.4965 46.5028 -0.0007 0.0000 0.0000
# 3 46.5028 46.5028 84.1518 0.0000 0.0000 0.0000
# 4 0.0007 -0.0007 0.0000 19.3727 0.0000 0.0000
# 5 0.0000 0.0000 0.0000 0.0000 19.3727 0.0007
# 6 0.0000 0.0000 0.0000 0.0000 0.0007 14.4334
#
#
#
# Elastic Compliance Matrix: (Units=1/GPa)
#
#
# Indices 1 2 3 4 5 6 
#
# 1 0.020978 -0.013664 -0.004042 -0.000001 0.000000 0.000000
# 2 -0.013664 0.020978 -0.004042 0.000001 0.000000 0.000000
# 3 -0.004042 -0.004042 0.016350 0.000000 0.000000 0.000000
# 4 -0.000001 0.000001 0.000000 0.051619 0.000000 0.000000
# 5 0.000000 0.000000 0.000000 0.000000 0.051619 -0.000003
# 6 0.000000 0.000000 0.000000 0.000000 -0.000003 0.069284
#
#
# Mechanical properties :
#
#
# Convention : Reuss Voigt Hill
#
# Bulk Modulus (GPa) = 67.51691 71.82392 69.67042
# Shear Modulus (GPa) = 17.90453 19.20305 18.55379
#
# Velocity S-wave (km/s) = 3.00374 3.11075 3.05771
# Velocity P-wave (km/s) = 6.78623 7.00684 6.89742
#
# Compressibility (1/GPa) = 0.01481111
#
# Stress axis : x y z
#
# Youngs Moduli (GPa) = 47.66959 47.66959 61.16176
#
# Poissons Ratio (x) = 0.65136 0.24719
# Poissons Ratio (y) = 0.65136 0.24719
# Poissons Ratio (z) = 0.19266 0.19266
#
# Static dielectric constant tensor:
#      x y z
#    x 3.749670 0.000000 0.000000 
#    y 0.000000 3.749670 0.000000 
#    z 0.000000 0.000000 3.344700 
# 
# 
# High freq. dielectric constant tensor:
#      x y z
#    x 1.771900 0.000000 0.000000 
#    y 0.000000 1.771900 0.000000 
#    z 0.000000 0.000000 1.754660 
# 
# From -- ./inp_files/3599.got.cif
#   From: 2010.03.12/outbox.cif.g09.slc.cpg/sg164_2_cif.got.tgz:3599.got - 2010.04.02 06:32:59.
