data_PCOD8323647
_publ_section_title
;
Structure prediction by ZEFSAII (Michael W. Deem and Ramdas Pophale) SiO2 
 PCOD8323647
Probable space group: P -3 M 1
;
_chemical_formula_sum "Si O2"
_cell_formula_units_Z 42
_cell_length_a 23.149525
_cell_length_b 23.149525
_cell_length_c 5.013496
_cell_angle_alpha 90.000000
_cell_angle_beta 90.000000
_cell_angle_gamma 120.000000
_cell_volume 2326.780808
_symmetry_space_group_name_H-M "P -3 M 1"
_symmetry_group_IT_number 164
_symmetry_cell_setting 'hexagonal'
loop_
_space_group_symop_operation_xyz
x,y,z
-y,x-y,z
-x+y,-x,z
x-y,-y,-z
-x,-x+y,-z
y,x,-z
-x,-y,-z
y,-x+y,-z
x-y,x,-z
-x+y,y,z
x,x-y,z
-y,-x,z
loop_
_atom_site_type_symbol
_atom_site_label
_atom_site_fract_x
_atom_site_fract_y
_atom_site_fract_z
Si Si1 0.177850 0.954051 0.746164
Si Si2 0.075924 0.659144 0.093949
Si Si3 0.523879 0.047758 0.754469
Si Si4 0.123008 0.745653 0.607263
O O1 0.100586 0.899415 0.784044
O O2 0.221329 0.918556 0.713201
O O3 0.183849 0.000000 0.500000
O O4 0.204892 0.000000 0.000000
O O5 0.092525 0.604159 0.220012
O O6 0.090452 0.711582 0.327689
O O7 0.120864 0.694452 0.833182
O O8 0.000000 0.626492 0.000000
O O9 0.500000 0.000000 0.500000
O O10 0.500000 0.000000 0.000000
O O11 0.199875 0.800126 0.556191
#
# Coordination Sequence:
#
# PCOD8323647 Si02
#       4
#    12  12   6  12
#     4  11  22  36  54  75  99 131 169 210 259 313
#     4  11  20  34  53  75 109 142 170 207 255 308
#     4  10  20  32  50  78 106 138 172 202 244 312
#     4  11  22  34  52  78 108 138 175 212 255 311
#
# _framework density 18.050692000000002
#
# number of rings (size 3 to 8) (size 9 to 14) (size 15 to 20)
#    0.000    1.143    0.000   10.286    0.000    4.571 
#    0.000    0.000    0.000    5.714    0.000    0.000 
#   28.571    0.000    0.000    0.000    0.000    0.000 
#
# Total GULP energy -520793.065291 kJ/mol
# GULP energy per Si atom -12399.834888 kJ/mol
# Density = 1.800961 g / cm^3
# Si number density = 18.050692 Si / 1000 Ang^3
#
#
#
# Elastic Constant Matrix: (Units=GPa)
#
#
# Indices 1 2 3 4 5 6 
#
# 1 89.9075 50.0779 40.0533 -1.9555 0.0000 0.0000
# 2 50.0779 89.9075 40.0533 1.9555 0.0000 0.0000
# 3 40.0533 40.0533 139.9866 0.0000 0.0000 0.0000
# 4 -1.9555 1.9555 0.0000 22.3729 0.0000 0.0000
# 5 0.0000 0.0000 0.0000 0.0000 22.3729 -1.9555
# 6 0.0000 0.0000 0.0000 0.0000 -1.9555 19.9148
#
#
#
# Elastic Compliance Matrix: (Units=1/GPa)
#
#
# Indices 1 2 3 4 5 6 
#
# 1 0.016933 -0.008391 -0.002444 0.002214 0.000000 0.000000
# 2 -0.008391 0.016933 -0.002444 -0.002214 0.000000 0.000000
# 3 -0.002444 -0.002444 0.008542 0.000000 0.000000 0.000000
# 4 0.002214 -0.002214 0.000000 0.045084 0.000000 0.000000
# 5 0.000000 0.000000 0.000000 0.000000 0.045084 0.004427
# 6 0.000000 0.000000 0.000000 0.000000 0.004427 0.050649
#
#
# Mechanical properties :
#
#
# Convention : Reuss Voigt Hill
#
# Bulk Modulus (GPa) = 63.09082 64.46342 63.77712
# Shear Modulus (GPa) = 23.24855 25.57325 24.41090
#
# Velocity S-wave (km/s) = 3.59271 3.76805 3.68142
# Velocity P-wave (km/s) = 7.22758 7.39736 7.31296
#
# Compressibility (1/GPa) = 0.01585017
#
# Stress axis : x y z
#
# Youngs Moduli (GPa) = 59.05532 59.05532 117.06609
#
# Poissons Ratio (x) = 0.49553 0.28612
# Poissons Ratio (y) = 0.49553 0.28612
# Poissons Ratio (z) = 0.14434 0.14434
#
# Static dielectric constant tensor:
#      x y z
#    x 6.250920 0.000000 0.000000 
#    y 0.000000 6.250920 0.000000 
#    z 0.000000 0.000000 3.486900 
# 
# 
# High freq. dielectric constant tensor:
#      x y z
#    x 1.681240 0.000000 0.000000 
#    y 0.000000 1.681240 0.000000 
#    z 0.000000 0.000000 1.728370 
# 
# From -- ./inp_files/330.got.cif
#   From: 2010.03.12/outbox.cif.g09.slc.cpg/sg164_1_cif.got.tgz:330.got - 2010.04.02 06:32:59.
