data_PCOD8323109
_publ_section_title
;
Structure prediction by ZEFSAII (Michael W. Deem and Ramdas Pophale) SiO2 
 PCOD8323109
Probable space group: P -3 1 M 
;
_chemical_formula_sum "Si O2"
_cell_formula_units_Z 70
_cell_length_a 14.648626
_cell_length_b 14.648626
_cell_length_c 17.724147
_cell_angle_alpha 90.000000
_cell_angle_beta 90.000000
_cell_angle_gamma 120.000000
_cell_volume 3293.743360
_symmetry_space_group_name_H-M "P -3 1 M "
_symmetry_group_IT_number 162
_symmetry_cell_setting 'hexagonal'
loop_
_space_group_symop_operation_xyz
x,y,z
-y,x-y,z
-x+y,-x,z
-y,-x,-z
-x+y,y,-z
x,x-y,-z
-x,-y,-z
y,-x+y,-z
x-y,x,-z
y,x,z
x-y,-y,z
-x,-x+y,z
loop_
_atom_site_type_symbol
_atom_site_label
_atom_site_fract_x
_atom_site_fract_y
_atom_site_fract_z
Si Si1 0.118333 0.767607 0.284404
Si Si2 0.880053 0.122182 0.418719
Si Si3 0.666668 0.333335 0.409731
Si Si4 0.232674 0.811892 0.875666
Si Si5 0.556332 0.119095 0.674971
Si Si6 0.123495 0.246989 0.000000
Si Si7 0.534861 0.416314 0.846955
O O1 0.177858 0.860057 0.347196
O O2 0.185897 0.806940 0.208672
O O3 0.113282 0.667950 0.323761
O O4 0.000000 0.740493 0.263151
O O5 0.848777 0.151224 0.500000
O O6 0.000000 0.150161 0.422543
O O7 0.807422 0.000000 0.402469
O O8 0.666668 0.333334 0.500000
O O9 0.785314 0.366247 0.380736
O O10 0.185971 0.864857 0.930019
O O11 0.190344 0.689250 0.894900
O O12 0.358810 0.872529 0.880238
O O13 0.604814 0.150306 0.758952
O O14 0.532433 0.000000 0.651151
O O15 0.173205 0.173205 0.980754
O O16 0.442888 0.442888 0.858370
#
# Coordination Sequence:
#
# PCOD8323109 Si02
#       7
#    12  12   4  12  12   6  12
#     4   9  18  34  55  78 110 153 197 239 294 360
#     4   9  17  29  47  73 106 147 200 264 324 368
#     4  12  24  36  54  81 114 157 200 235 288 360
#     4  11  22  40  64  92 125 158 194 244 294 350
#     4   9  19  37  58  81 113 149 189 243 296 347
#     4  12  27  46  66  90 126 168 205 240 282 336
#     4  10  20  37  64  92 114 146 194 244 301 354
#
# _framework density 21.252417000000001
#
# number of rings (size 3 to 8) (size 9 to 14) (size 15 to 20)
#    0.000    2.057    0.000    5.743    0.000    3.771 
#    0.000    2.571    0.000    2.057    0.000    0.000 
#    0.000    0.000    0.000    0.514    0.000    0.171 
#
# Total GULP energy -867503.055496 kJ/mol
# GULP energy per Si atom -12392.900793 kJ/mol
# Density = 2.120405 g / cm^3
# Si number density = 21.252417 Si / 1000 Ang^3
#
#
#
# Elastic Constant Matrix: (Units=GPa)
#
#
# Indices 1 2 3 4 5 6 
#
# 1 78.4774 20.0419 28.2471 0.0000 1.0365 -0.0002
# 2 20.0419 78.4771 28.2468 -0.0001 -1.0365 -0.0002
# 3 28.2471 28.2468 63.3748 0.0000 0.0000 -0.0002
# 4 0.0000 -0.0001 0.0000 24.9223 -0.0001 -1.0366
# 5 1.0365 -1.0365 0.0000 -0.0001 24.9225 0.0000
# 6 -0.0002 -0.0002 -0.0002 -1.0366 0.0000 29.2177
#
#
#
# Elastic Compliance Matrix: (Units=1/GPa)
#
#
# Indices 1 2 3 4 5 6 
#
# 1 0.015387 -0.001751 -0.006077 0.000000 -0.000713 0.000000
# 2 -0.001751 0.015387 -0.006077 0.000000 0.000713 0.000000
# 3 -0.006077 -0.006077 0.021197 0.000000 0.000000 0.000000
# 4 0.000000 0.000000 0.000000 0.040184 0.000000 0.001426
# 5 -0.000713 0.000713 0.000000 0.000000 0.040184 0.000000
# 6 0.000000 0.000000 0.000000 0.001426 0.000000 0.034276
#
#
# Mechanical properties :
#
#
# Convention : Reuss Voigt Hill
#
# Bulk Modulus (GPa) = 41.39483 41.48898 41.44191
# Shear Modulus (GPa) = 24.69388 25.39875 25.04631
#
# Velocity S-wave (km/s) = 3.41241 3.46077 3.43668
# Velocity P-wave (km/s) = 5.91997 5.96101 5.94053
#
# Compressibility (1/GPa) = 0.02415761
#
# Stress axis : x y z
#
# Youngs Moduli (GPa) = 64.99107 64.99089 47.17717
#
# Poissons Ratio (x) = 0.11383 0.28672
# Poissons Ratio (y) = 0.11383 0.28671
# Poissons Ratio (z) = 0.39498 0.39498
#
# Static dielectric constant tensor:
#      x y z
#    x 3.868640 0.000010 0.000000 
#    y 0.000010 3.868650 0.000010 
#    z 0.000000 0.000010 3.794710 
# 
# 
# High freq. dielectric constant tensor:
#      x y z
#    x 1.830750 0.000000 0.000000 
#    y 0.000000 1.830750 0.000000 
#    z 0.000000 0.000000 1.819340 
# 
# From -- ./inp_files/3557.got.cif
#   From: 2010.03.12/outbox.cif.g09.slc.cpg/sg162_2_cif.got.tgz:3557.got - 2010.04.02 06:27:41.
