data_PCOD8323983
_publ_section_title
;
Structure prediction by ZEFSAII (Michael W. Deem and Ramdas Pophale) SiO2 
 PCOD8323983
Probable space group: R -3 M
;
_chemical_formula_sum "Si O2"
_cell_formula_units_Z 216
_cell_length_a 27.267581
_cell_length_b 27.267581
_cell_length_c 22.687393
_cell_angle_alpha 90.000000
_cell_angle_beta 90.000000
_cell_angle_gamma 120.000000
_cell_volume 14608.595017
_symmetry_space_group_name_H-M "R -3 M"
_symmetry_group_IT_number 166
_symmetry_cell_setting 'hexagonal'
loop_
_space_group_symop_operation_xyz
x,y,z
-y,x-y,z
-x+y,-x,z
x-y,-y,-z
-x,-x+y,-z
y,x,-z
-x,-y,-z
y,-x+y,-z
x-y,x,-z
-x+y,y,z
x,x-y,z
-y,-x,z
2/3+x,1/3+y,1/3+z
2/3-y,1/3+x-y,1/3+z
2/3-x+y,1/3-x,1/3+z
2/3+x-y,1/3-y,1/3-z
2/3-x,1/3-x+y,1/3-z
2/3+y,1/3+x,1/3-z
2/3-x,1/3-y,1/3-z
2/3+y,1/3-x+y,1/3-z
2/3+x-y,1/3+x,1/3-z
2/3-x+y,1/3+y,1/3+z
2/3+x,1/3+x-y,1/3+z
2/3-y,1/3-x,1/3+z
1/3+x,2/3+y,2/3+z
1/3-y,2/3+x-y,2/3+z
1/3-x+y,2/3-x,2/3+z
1/3+x-y,2/3-y,2/3-z
1/3-x,2/3-x+y,2/3-z
1/3+y,2/3+x,2/3-z
1/3-x,2/3-y,2/3-z
1/3+y,2/3-x+y,2/3-z
1/3+x-y,2/3+x,2/3-z
1/3-x+y,2/3+y,2/3+z
1/3+x,2/3+x-y,2/3+z
1/3-y,2/3-x,2/3+z
loop_
_atom_site_type_symbol
_atom_site_label
_atom_site_fract_x
_atom_site_fract_y
_atom_site_fract_z
Si Si1 0.776753 0.946624 0.125066
Si Si2 0.064777 0.657462 0.020094
Si Si3 0.885340 0.229374 0.916210
Si Si4 0.999655 0.109571 0.069698
Si Si5 0.199313 0.291482 0.452200
Si Si6 0.511176 0.598124 0.919084
O O1 0.772626 0.886313 0.123710
O O2 0.720029 0.937523 0.093093
O O3 0.783262 0.966654 0.193054
O O4 0.831369 0.994228 0.090798
O O5 0.096295 0.724865 0.031232
O O6 0.072224 0.631475 0.081109
O O7 0.098172 0.643081 0.970541
O O8 0.000000 0.634114 0.000000
O O9 0.827148 0.172853 0.934434
O O10 0.877546 0.254680 0.854817
O O11 0.941276 0.058725 0.094941
O O12 0.051120 0.102239 0.094447
O O13 0.000000 0.108722 0.000000
O O14 0.131452 0.262904 0.441919
O O15 0.227198 0.354658 0.428265
O O16 0.445316 0.554685 0.937084
#
# Coordination Sequence:
#
# PCOD8323983 Si02
#       6
#    36  36  36  36  36  36
#     4   8  15  28  42  54  74 106 134 153 184 234
#     4  10  17  24  39  61  79  99 130 164 195 225
#     4   9  17  28  39  53  78 108 133 158 189 228
#     4   9  16  26  42  63  81  95 118 159 206 241
#     4   8  14  25  41  59  77  97 123 159 198 228
#     4   8  14  25  40  58  79 100 125 157 188 222
#
# _framework density 14.785816000000001
#
# number of rings (size 3 to 8) (size 9 to 14) (size 15 to 20)
#    0.000    3.333    0.000    3.167    0.000    3.333 
#    0.000    0.833    0.000    0.000    0.000    0.000 
#    0.000   13.333    0.000    4.000    0.000   30.000 
#
# Total GULP energy -892116.935858 kJ/mol
# GULP energy per Si atom -12390.512998 kJ/mol
# Density = 1.475216 g / cm^3
# Si number density = 14.785816 Si / 1000 Ang^3
#
#
#
# Elastic Constant Matrix: (Units=GPa)
#
#
# Indices 1 2 3 4 5 6 
#
# 1 65.8929 35.5490 34.7148 -4.5577 0.0000 0.0000
# 2 35.5490 65.8929 34.7148 4.5577 0.0000 0.0000
# 3 34.7148 34.7148 53.3318 0.0000 0.0000 0.0000
# 4 -4.5577 4.5577 0.0000 13.8804 0.0000 0.0000
# 5 0.0000 0.0000 0.0000 0.0000 13.8804 -4.5577
# 6 0.0000 0.0000 0.0000 0.0000 -4.5577 15.1720
#
#
#
# Elastic Compliance Matrix: (Units=1/GPa)
#
#
# Indices 1 2 3 4 5 6 
#
# 1 0.027170 -0.009392 -0.011572 0.012005 0.000000 0.000000
# 2 -0.009392 0.027170 -0.011572 -0.012005 0.000000 0.000000
# 3 -0.011572 -0.011572 0.033816 0.000000 0.000000 0.000000
# 4 0.012005 -0.012005 0.000000 0.079928 0.000000 0.000000
# 5 0.000000 0.000000 0.000000 0.000000 0.079928 0.024010
# 6 0.000000 0.000000 0.000000 0.000000 0.024010 0.073124
#
#
# Mechanical properties :
#
#
# Convention : Reuss Voigt Hill
#
# Bulk Modulus (GPa) = 43.32136 43.89719 43.60928
# Shear Modulus (GPa) = 12.69352 13.92916 13.31134
#
# Velocity S-wave (km/s) = 2.93318 3.07263 3.00372
# Velocity P-wave (km/s) = 6.39017 6.50702 6.44886
#
# Compressibility (1/GPa) = 0.02308330
#
# Stress axis : x y z
#
# Youngs Moduli (GPa) = 36.80524 36.80524 29.57204
#
# Poissons Ratio (x) = 0.34567 0.34221
# Poissons Ratio (y) = 0.34567 0.34221
# Poissons Ratio (z) = 0.42592 0.42592
#
# Static dielectric constant tensor:
#      x y z
#    x 2.796180 0.000000 0.000000 
#    y 0.000000 2.796180 0.000000 
#    z 0.000000 0.000000 3.005240 
# 
# 
# High freq. dielectric constant tensor:
#      x y z
#    x 1.539430 0.000000 0.000000 
#    y 0.000000 1.539430 0.000000 
#    z 0.000000 0.000000 1.560890 
# 
# From -- ./inp_files/8644.got.cif
#   From: 2010.03.12/outbox.cif.g09.slc.cpg/sg166_5_cif.got.tgz:8644.got - 2010.04.02 06:38:31.
