data_PCOD8323307
_publ_section_title
;
Structure prediction by ZEFSAII (Michael W. Deem and Ramdas Pophale) SiO2 
 PCOD8323307
Probable space group: P -3 1 C
;
_chemical_formula_sum "Si O2"
_cell_formula_units_Z 84
_cell_length_a 18.145281
_cell_length_b 18.145281
_cell_length_c 14.005830
_cell_angle_alpha 90.000000
_cell_angle_beta 90.000000
_cell_angle_gamma 120.000000
_cell_volume 3993.621287
_symmetry_space_group_name_H-M "P -3 1 C"
_symmetry_group_IT_number 163
_symmetry_cell_setting 'hexagonal'
loop_
_space_group_symop_operation_xyz
x,y,z
-y,x-y,z
-x+y,-x,z
-y,-x,1/2-z
-x+y,y,1/2-z
x,x-y,1/2-z
-x,-y,-z
y,-x+y,-z
x-y,x,-z
y,x,1/2+z
x-y,-y,1/2+z
-x,-x+y,1/2+z
loop_
_atom_site_type_symbol
_atom_site_label
_atom_site_fract_x
_atom_site_fract_y
_atom_site_fract_z
Si Si1 0.805625 0.194376 0.750000
Si Si2 0.542389 0.018807 0.350293
Si Si3 0.427998 0.564837 0.475462
Si Si4 0.228705 0.469923 0.451102
Si Si5 0.793178 0.790662 0.376915
Si Si6 0.945251 0.890502 0.750000
Si Si7 0.702044 0.702647 0.200212
Si Si8 0.295424 0.113322 0.039619
O O1 0.755518 0.201348 0.659278
O O2 0.769513 0.099898 0.790402
O O3 0.522073 0.044146 0.250000
O O4 0.553212 0.090041 0.424389
O O5 0.465516 0.929128 0.387195
O O6 0.628206 0.016904 0.331564
O O7 0.327440 0.507940 0.470285
O O8 0.456834 0.663091 0.469575
O O9 0.185782 0.394171 0.529962
O O10 0.832553 0.887944 0.337218
O O11 0.751834 0.713300 0.299802
O O12 0.853691 0.771273 0.443557
O O13 0.717035 0.783642 0.439515
O O14 0.903642 0.951821 0.750000
O O15 0.773527 0.730012 0.121182
#
# Coordination Sequence:
#
# PCOD8323307 Si02
#       8
#     6  12  12  12  12   6  12  12
#     4  12  23  42  76 106 148 186 234 298 360 434
#     4  11  25  45  73 102 140 191 233 288 369 433
#     4  11  26  45  73 103 147 181 241 297 354 443
#     4  12  25  47  71 109 144 188 235 300 364 426
#     4  12  28  43  73 102 139 187 245 291 361 425
#     4  10  25  46  64  90 138 180 232 298 348 410
#     4  12  24  46  68 106 141 186 235 293 352 429
#     4  12  28  45  72 103 143 188 238 301 355 424
#
# _framework density 21.033543000000002
#
# number of rings (size 3 to 8) (size 9 to 14) (size 15 to 20)
#    0.143    0.286    4.286    3.714    6.000    0.000 
#    0.000    1.429    0.000    0.000    0.000    0.000 
#    0.000    0.000    0.000    0.000    0.000    0.000 
#
# Total GULP energy -1040693.265693 kJ/mol
# GULP energy per Si atom -12389.205544 kJ/mol
# Density = 2.098567 g / cm^3
# Si number density = 21.033543 Si / 1000 Ang^3
#
#
#
# Elastic Constant Matrix: (Units=GPa)
#
#
# Indices 1 2 3 4 5 6 
#
# 1 107.3702 41.0063 42.6973 0.0002 -8.2784 0.0000
# 2 41.0063 107.3702 42.6973 -0.0002 8.2784 0.0000
# 3 42.6973 42.6973 123.3010 0.0000 0.0000 0.0000
# 4 0.0002 -0.0002 0.0000 27.7624 0.0000 8.2784
# 5 -8.2784 8.2784 0.0000 0.0000 27.7624 0.0002
# 6 0.0000 0.0000 0.0000 8.2784 0.0002 33.1820
#
#
#
# Elastic Compliance Matrix: (Units=1/GPa)
#
#
# Indices 1 2 3 4 5 6 
#
# 1 0.012348 -0.003931 -0.002915 0.000000 0.004854 0.000000
# 2 -0.003931 0.012348 -0.002915 0.000000 -0.004854 0.000000
# 3 -0.002915 -0.002915 0.010129 0.000000 0.000000 0.000000
# 4 0.000000 0.000000 0.000000 0.038915 0.000000 -0.009709
# 5 0.004854 -0.004854 0.000000 0.000000 0.038915 0.000000
# 6 0.000000 0.000000 0.000000 -0.009709 0.000000 0.032559
#
#
# Mechanical properties :
#
#
# Convention : Reuss Voigt Hill
#
# Bulk Modulus (GPa) = 65.34144 65.64925 65.49534
# Shear Modulus (GPa) = 29.43999 31.85073 30.64536
#
# Velocity S-wave (km/s) = 3.74527 3.89560 3.82118
# Velocity P-wave (km/s) = 7.05943 7.17731 7.11861
#
# Compressibility (1/GPa) = 0.01530422
#
# Stress axis : x y z
#
# Youngs Moduli (GPa) = 80.98275 80.98275 98.72749
#
# Poissons Ratio (x) = 0.31836 0.28776
# Poissons Ratio (y) = 0.31836 0.28776
# Poissons Ratio (z) = 0.23604 0.23604
#
# Static dielectric constant tensor:
#      x y z
#    x 3.657060 0.000000 0.000000 
#    y 0.000000 3.657060 0.000000 
#    z 0.000000 0.000000 4.098040 
# 
# 
# High freq. dielectric constant tensor:
#      x y z
#    x 1.831730 0.000000 0.000000 
#    y 0.000000 1.831730 0.000000 
#    z 0.000000 0.000000 1.831320 
# 
# From -- ./inp_files/2688.got.cif
#   From: 2010.03.12/outbox.cif.g09.slc.cpg/sg163_2_cif.got.tgz:2688.got - 2010.04.02 06:30:25.
