data_PCOD8323475
_publ_section_title
;
Structure prediction by ZEFSAII (Michael W. Deem and Ramdas Pophale) SiO2 
 PCOD8323475
Probable space group: P -3 M 1
;
_chemical_formula_sum "Si O2"
_cell_formula_units_Z 84
_cell_length_a 17.179538
_cell_length_b 17.179538
_cell_length_c 21.029097
_cell_angle_alpha 90.000000
_cell_angle_beta 90.000000
_cell_angle_gamma 120.000000
_cell_volume 5374.947378
_symmetry_space_group_name_H-M "P -3 M 1"
_symmetry_group_IT_number 164
_symmetry_cell_setting 'hexagonal'
loop_
_space_group_symop_operation_xyz
x,y,z
-y,x-y,z
-x+y,-x,z
x-y,-y,-z
-x,-x+y,-z
y,x,-z
-x,-y,-z
y,-x+y,-z
x-y,x,-z
-x+y,y,z
x,x-y,z
-y,-x,z
loop_
_atom_site_type_symbol
_atom_site_label
_atom_site_fract_x
_atom_site_fract_y
_atom_site_fract_z
Si Si1 0.736510 0.084911 0.340074
Si Si2 0.481711 0.148392 0.007431
Si Si3 0.413520 0.403182 0.903345
Si Si4 0.583208 0.597442 0.241004
Si Si5 0.491335 0.156152 0.658831
Si Si6 0.416910 0.404903 0.431117
Si Si7 0.820618 0.820591 0.572250
O O1 0.820314 0.179687 0.321786
O O2 0.676918 0.048458 0.276710
O O3 0.676050 0.095700 0.394500
O O4 0.765500 0.018037 0.373090
O O5 0.583525 0.167050 0.006734
O O6 0.484116 0.242058 0.013137
O O7 0.426537 0.095820 0.944051
O O8 0.425189 0.085265 0.066907
O O9 0.507296 0.492705 0.906748
O O10 0.388694 0.370242 0.831120
O O11 0.510662 0.489339 0.246728
O O12 0.537004 0.651139 0.270639
O O13 0.597466 0.194932 0.648718
O O14 0.468149 0.234075 0.649064
O O15 0.435076 0.078720 0.608086
O O16 0.372591 0.372591 0.500000
O O17 0.518937 0.481064 0.437665
O O18 0.785701 0.785701 0.500000
O O19 0.904772 0.809543 0.589997
O O20 0.850135 0.925068 0.575640
#
# Coordination Sequence:
#
# PCOD8323475 Si02
#       7
#    12  12  12  12  12  12  12
#     4  10  19  28  42  64  84 104 138 183 217 241
#     4   9  16  27  45  69  93 116 143 174 207 243
#     4   8  16  30  45  62  88 119 145 171 207 248
#     4   9  18  33  47  59  83 119 149 171 206 254
#     4   9  17  28  44  65  86 109 140 179 219 258
#     4   9  18  32  46  59  80 112 143 172 217 272
#     4   9  17  29  44  62  84 108 132 162 207 261
#
# _framework density 15.628059
#
# number of rings (size 3 to 8) (size 9 to 14) (size 15 to 20)
#    0.000    3.000    0.000    3.000    0.000    4.571 
#    0.000    0.000    0.000    4.000    0.000    0.000 
#    0.000    0.000    0.000   13.714    0.000    0.000 
#
# Total GULP energy -1040757.238299 kJ/mol
# GULP energy per Si atom -12389.967123 kJ/mol
# Density = 1.559249 g / cm^3
# Si number density = 15.628059 Si / 1000 Ang^3
#
#
#
# Elastic Constant Matrix: (Units=GPa)
#
#
# Indices 1 2 3 4 5 6 
#
# 1 65.2098 32.6177 25.9074 3.4432 0.0000 0.0000
# 2 32.6177 65.2098 25.9074 -3.4432 0.0000 0.0000
# 3 25.9074 25.9074 113.5696 0.0000 0.0000 0.0000
# 4 3.4432 -3.4432 0.0000 12.8069 0.0000 0.0000
# 5 0.0000 0.0000 0.0000 0.0000 12.8069 3.4432
# 6 0.0000 0.0000 0.0000 0.0000 3.4432 16.2960
#
#
#
# Elastic Compliance Matrix: (Units=1/GPa)
#
#
# Indices 1 2 3 4 5 6 
#
# 1 0.022079 -0.010452 -0.002652 -0.008746 0.000000 0.000000
# 2 -0.010452 0.022079 -0.002652 0.008746 0.000000 0.000000
# 3 -0.002652 -0.002652 0.010015 0.000000 0.000000 0.000000
# 4 -0.008746 0.008746 0.000000 0.082786 0.000000 0.000000
# 5 0.000000 0.000000 0.000000 0.000000 0.082786 -0.017492
# 6 0.000000 0.000000 0.000000 0.000000 -0.017492 0.065060
#
#
# Mechanical properties :
#
#
# Convention : Reuss Voigt Hill
#
# Bulk Modulus (GPa) = 44.13107 45.87269 45.00188
# Shear Modulus (GPa) = 15.43827 19.01907 17.22867
#
# Velocity S-wave (km/s) = 3.14643 3.49231 3.32387
# Velocity P-wave (km/s) = 6.44202 6.75856 6.60219
#
# Compressibility (1/GPa) = 0.02265977
#
# Stress axis : x y z
#
# Youngs Moduli (GPa) = 45.29281 45.29281 99.84768
#
# Poissons Ratio (x) = 0.47339 0.26483
# Poissons Ratio (y) = 0.47339 0.26483
# Poissons Ratio (z) = 0.12013 0.12013
#
# Static dielectric constant tensor:
#      x y z
#    x 2.874970 0.000000 0.000000 
#    y 0.000000 2.874970 0.000000 
#    z 0.000000 0.000000 3.456690 
# 
# 
# High freq. dielectric constant tensor:
#      x y z
#    x 1.586360 0.000000 0.000000 
#    y 0.000000 1.586360 0.000000 
#    z 0.000000 0.000000 1.600070 
# 
# From -- ./inp_files/4648.got.cif
#   From: 2010.03.12/outbox.cif.g09.slc.cpg/sg164_3_cif.got.tgz:4648.got - 2010.04.02 06:32:59.
