data_PCOD8323891
_publ_section_title
;
Structure prediction by ZEFSAII (Michael W. Deem and Ramdas Pophale) SiO2 
 PCOD8323891
Probable space group: P -3 C 1
;
_chemical_formula_sum "Si O2"
_cell_formula_units_Z 54
_cell_length_a 25.079219
_cell_length_b 25.079219
_cell_length_c 5.436647
_cell_angle_alpha 90.000000
_cell_angle_beta 90.000000
_cell_angle_gamma 120.000000
_cell_volume 2961.350295
_symmetry_space_group_name_H-M "P -3 C 1"
_symmetry_group_IT_number 165
_symmetry_cell_setting 'hexagonal'
loop_
_space_group_symop_operation_xyz
x,y,z
-y,x-y,z
-x+y,-x,z
x-y,-y,1/2-z
-x,-x+y,1/2-z
y,x,1/2-z
-x,-y,-z
y,-x+y,-z
x-y,x,-z
-x+y,y,1/2+z
x,x-y,1/2+z
-y,-x,1/2+z
loop_
_atom_site_type_symbol
_atom_site_label
_atom_site_fract_x
_atom_site_fract_y
_atom_site_fract_z
Si Si1 0.931060 0.486763 0.468554
Si Si2 0.333895 0.391305 0.916834
Si Si3 0.724739 0.724739 0.750000
Si Si4 0.221837 0.822249 0.296939
Si Si5 0.889621 0.151445 0.643783
O O1 0.898170 0.454701 0.729306
O O2 0.928560 0.549141 0.422692
O O3 0.000000 0.500000 0.500000
O O4 0.378158 0.378158 0.750000
O O5 0.288026 0.404863 0.757006
O O6 0.290353 0.332742 0.079996
O O7 0.784892 0.737903 0.595754
O O8 0.220477 0.788713 0.555975
O O9 0.168101 0.838692 0.316066
O O10 0.879614 0.107919 0.405404
#
# Coordination Sequence:
#
# PCOD8323891 Si02
#       5
#    12  12   6  12  12
#     4  10  20  36  45  68 106 123 171 228 236 292
#     4  12  22  30  56  72  94 150 184 196 266 306
#     4  12  22  30  56  72  94 150 184 196 266 306
#     4  10  20  36  45  68 106 123 171 228 236 292
#     4  10  20  36  45  68 106 123 171 228 236 292
#
# _framework density 18.234925
#
# number of rings (size 3 to 8) (size 9 to 14) (size 15 to 20)
#    0.000    1.333    6.667    4.000    0.000    0.000 
#    0.000    0.000    0.000    0.000    0.000    0.000 
#    0.000    0.000    0.000   20.000    4.000    0.000 
#
# Total GULP energy -669096.247578 kJ/mol
# GULP energy per Si atom -12390.671251 kJ/mol
# Density = 1.819342 g / cm^3
# Si number density = 18.234925 Si / 1000 Ang^3
#
#
#
# Elastic Constant Matrix: (Units=GPa)
#
#
# Indices 1 2 3 4 5 6 
#
# 1 56.0742 38.1279 18.5809 6.2858 0.0000 0.0000
# 2 38.1279 56.0742 18.5809 -6.2858 0.0000 0.0000
# 3 18.5809 18.5809 164.4585 0.0000 0.0000 0.0000
# 4 6.2858 -6.2858 0.0000 20.0502 0.0000 0.0000
# 5 0.0000 0.0000 0.0000 0.0000 20.0502 6.2858
# 6 0.0000 0.0000 0.0000 0.0000 6.2858 8.9731
#
#
#
# Elastic Compliance Matrix: (Units=1/GPa)
#
#
# Indices 1 2 3 4 5 6 
#
# 1 0.041257 -0.030146 -0.001255 -0.022385 0.000000 0.000000
# 2 -0.030146 0.041257 -0.001255 0.022385 0.000000 0.000000
# 3 -0.001255 -0.001255 0.006364 0.000000 0.000000 0.000000
# 4 -0.022385 0.022385 0.000000 0.063910 0.000000 0.000000
# 5 0.000000 0.000000 0.000000 0.000000 0.063910 -0.044770
# 6 0.000000 0.000000 0.000000 0.000000 -0.044770 0.142805
#
#
# Mechanical properties :
#
#
# Convention : Reuss Voigt Hill
#
# Bulk Modulus (GPa) = 42.43703 47.46516 44.95110
# Shear Modulus (GPa) = 11.55611 23.23586 17.39598
#
# Velocity S-wave (km/s) = 2.52014 3.57354 3.09203
# Velocity P-wave (km/s) = 5.63836 6.56606 6.11981
#
# Compressibility (1/GPa) = 0.02356432
#
# Stress axis : x y z
#
# Youngs Moduli (GPa) = 24.23850 24.23850 157.12852
#
# Poissons Ratio (x) = 0.73069 0.19724
# Poissons Ratio (y) = 0.73069 0.19724
# Poissons Ratio (z) = 0.03043 0.03043
#
# Static dielectric constant tensor:
#      x y z
#    x 3.349710 0.000000 0.000000 
#    y 0.000000 3.349710 0.000000 
#    z 0.000000 0.000000 5.831220 
# 
# 
# High freq. dielectric constant tensor:
#      x y z
#    x 1.656440 0.000000 0.000000 
#    y 0.000000 1.656440 0.000000 
#    z 0.000000 0.000000 1.735660 
# 
# From -- ./inp_files/152.got.cif
#   From: 2010.03.12/outbox.cif.g09.slc.cpg/sg165_1_cif.got.tgz:152.got - 2010.04.02 06:36:38.
