data_PCOD8323933
_publ_section_title
;
Structure prediction by ZEFSAII (Michael W. Deem and Ramdas Pophale) SiO2 
 PCOD8323933
Probable space group: P -3 C 1
;
_chemical_formula_sum "Si O2"
_cell_formula_units_Z 28
_cell_length_a 9.287187
_cell_length_b 9.287187
_cell_length_c 16.896550
_cell_angle_alpha 90.000000
_cell_angle_beta 90.000000
_cell_angle_gamma 120.000000
_cell_volume 1262.109542
_symmetry_space_group_name_H-M "P -3 C 1"
_symmetry_group_IT_number 165
_symmetry_cell_setting 'hexagonal'
loop_
_space_group_symop_operation_xyz
x,y,z
-y,x-y,z
-x+y,-x,z
x-y,-y,1/2-z
-x,-x+y,1/2-z
y,x,1/2-z
-x,-y,-z
y,-x+y,-z
x-y,x,-z
-x+y,y,1/2+z
x,x-y,1/2+z
-y,-x,1/2+z
loop_
_atom_site_type_symbol
_atom_site_label
_atom_site_fract_x
_atom_site_fract_y
_atom_site_fract_z
Si Si1 0.000000 0.000000 0.843348
Si Si2 0.022914 0.740615 0.948327
Si Si3 0.872978 0.481378 0.679925
O O1 0.830805 0.983840 0.875324
O O2 0.000000 0.000000 0.750000
O O3 0.039246 0.592083 0.905952
O O4 0.853632 0.668532 0.998120
O O5 0.717247 0.517077 0.685369
O O6 0.000000 0.573986 0.750000
#
# Coordination Sequence:
#
# PCOD8323933 Si02
#       3
#     4  12  12
#     4   9  16  29  58  93 124 170 214 261 310 383
#     4   9  19  36  61  97 134 168 216 266 329 395
#     4  10  24  43  64  96 129 174 221 268 328 386
#
# _framework density 22.185075999999999
#
# number of rings (size 3 to 8) (size 9 to 14) (size 15 to 20)
#    0.857    1.714    0.000    3.000    0.000   10.286 
#    0.000    0.000    0.000    0.857    0.000    0.000 
#    0.000    0.000    0.000    0.000    0.000    0.000 
#
# Total GULP energy -346945.439729 kJ/mol
# GULP energy per Si atom -12390.908562 kJ/mol
# Density = 2.213458 g / cm^3
# Si number density = 22.185076 Si / 1000 Ang^3
#
#
#
# Elastic Constant Matrix: (Units=GPa)
#
#
# Indices 1 2 3 4 5 6 
#
# 1 48.2239 0.1781 27.8302 13.2889 0.0000 0.0000
# 2 0.1781 48.2239 27.8302 -13.2889 0.0000 0.0000
# 3 27.8302 27.8302 157.1662 0.0000 0.0000 0.0000
# 4 13.2889 -13.2889 0.0000 28.4833 0.0000 0.0000
# 5 0.0000 0.0000 0.0000 0.0000 28.4833 13.2889
# 6 0.0000 0.0000 0.0000 0.0000 13.2889 24.0229
#
#
#
# Elastic Compliance Matrix: (Units=1/GPa)
#
#
# Indices 1 2 3 4 5 6 
#
# 1 0.026998 -0.001055 -0.004594 -0.013088 0.000000 0.000000
# 2 -0.001055 0.026998 -0.004594 0.013088 0.000000 0.000000
# 3 -0.004594 -0.004594 0.007990 0.000000 0.000000 0.000000
# 4 -0.013088 0.013088 0.000000 0.047321 0.000000 0.000000
# 5 0.000000 0.000000 0.000000 0.000000 0.047321 -0.026177
# 6 0.000000 0.000000 0.000000 0.000000 -0.026177 0.056107
#
#
# Mechanical properties :
#
#
# Convention : Reuss Voigt Hill
#
# Bulk Modulus (GPa) = 24.09623 40.58790 32.34206
# Shear Modulus (GPa) = 20.23833 29.38290 24.81061
#
# Velocity S-wave (km/s) = 3.02362 3.64324 3.34780
# Velocity P-wave (km/s) = 4.80362 6.00270 5.43632
#
# Compressibility (1/GPa) = 0.04150027
#
# Stress axis : x y z
#
# Youngs Moduli (GPa) = 37.03922 37.03922 125.16246
#
# Poissons Ratio (x) = 0.03909 0.57498
# Poissons Ratio (y) = 0.03909 0.57498
# Poissons Ratio (z) = 0.17015 0.17015
#
# Static dielectric constant tensor:
#      x y z
#    x 3.786560 0.000000 0.000000 
#    y 0.000000 3.786560 0.000000 
#    z 0.000000 0.000000 3.877550 
# 
# 
# High freq. dielectric constant tensor:
#      x y z
#    x 1.854470 0.000000 0.000000 
#    y 0.000000 1.854470 0.000000 
#    z 0.000000 0.000000 1.883000 
# 
# From -- ./inp_files/1300.got.cif
#   From: 2010.03.12/outbox.cif.g09.slc.cpg/sg165_1_cif.got.tgz:1300.got - 2010.04.02 06:36:38.
