data_PCOD8323731
_publ_section_title
;
Structure prediction by ZEFSAII (Michael W. Deem and Ramdas Pophale) SiO2 
 PCOD8323731
Probable space group: P -3 M 1
;
_chemical_formula_sum "Si O2"
_cell_formula_units_Z 60
_cell_length_a 12.609216
_cell_length_b 12.609216
_cell_length_c 25.518655
_cell_angle_alpha 90.000000
_cell_angle_beta 90.000000
_cell_angle_gamma 120.000000
_cell_volume 3513.699210
_symmetry_space_group_name_H-M "P -3 M 1"
_symmetry_group_IT_number 164
_symmetry_cell_setting 'hexagonal'
loop_
_space_group_symop_operation_xyz
x,y,z
-y,x-y,z
-x+y,-x,z
x-y,-y,-z
-x,-x+y,-z
y,x,-z
-x,-y,-z
y,-x+y,-z
x-y,x,-z
-x+y,y,z
x,x-y,z
-y,-x,z
loop_
_atom_site_type_symbol
_atom_site_label
_atom_site_fract_x
_atom_site_fract_y
_atom_site_fract_z
Si Si1 0.332230 0.420357 0.543686
Si Si2 0.666668 0.578542 0.338789
Si Si3 0.084944 0.418379 0.049323
Si Si4 0.246598 0.998106 0.147697
Si Si5 0.085985 0.419137 0.244722
O O1 0.324000 0.324000 0.500000
O O2 0.221709 0.443418 0.534424
O O3 0.451751 0.548250 0.533888
O O4 0.329419 0.371110 0.602501
O O5 0.795264 0.590527 0.323023
O O6 0.564031 0.435970 0.334807
O O7 0.637169 0.660601 0.300287
O O8 0.216517 0.433033 0.039040
O O9 0.103341 0.551671 0.058942
O O10 0.019438 0.336881 0.099697
O O11 0.000000 0.351510 0.000000
O O12 0.103699 0.896302 0.146754
O O13 0.309910 0.990266 0.200728
O O14 0.260186 0.130093 0.143635
O O15 0.225585 0.451169 0.246761
O O16 0.084577 0.542289 0.231274
#
# Coordination Sequence:
#
# PCOD8323731 Si02
#       5
#    12  12  12  12  12
#     4   9  17  29  46  68  93 122 156 194 237 283
#     4   9  17  30  48  69  93 122 157 197 239 283
#     4  10  20  34  53  76 103 135 169 205 245 290
#     4  10  20  34  52  73  97 126 162 203 244 285
#     4  10  20  33  50  72  99 129 159 193 235 285
#
# _framework density 17.07602
#
# number of rings (size 3 to 8) (size 9 to 14) (size 15 to 20)
#    0.000    2.400    0.000    2.800    0.000    2.400 
#    0.000    2.000    0.000   11.800    0.000    0.000 
#    0.000    0.000    0.000    0.000    0.000    0.000 
#
# Total GULP energy -744042.650140 kJ/mol
# GULP energy per Si atom -12400.710836 kJ/mol
# Density = 1.703715 g / cm^3
# Si number density = 17.076020 Si / 1000 Ang^3
#
#
#
# Elastic Constant Matrix: (Units=GPa)
#
#
# Indices 1 2 3 4 5 6 
#
# 1 95.4872 49.3302 56.3658 -0.0799 0.0000 0.0000
# 2 49.3302 95.4872 56.3658 0.0799 0.0000 0.0000
# 3 56.3658 56.3658 117.2331 0.0000 0.0000 0.0000
# 4 -0.0799 0.0799 0.0000 26.3969 0.0000 0.0000
# 5 0.0000 0.0000 0.0000 0.0000 26.3969 -0.0799
# 6 0.0000 0.0000 0.0000 0.0000 -0.0799 23.0785
#
#
#
# Elastic Compliance Matrix: (Units=1/GPa)
#
#
# Indices 1 2 3 4 5 6 
#
# 1 0.016351 -0.005315 -0.005306 0.000066 0.000000 0.000000
# 2 -0.005315 0.016351 -0.005306 -0.000066 0.000000 0.000000
# 3 -0.005306 -0.005306 0.013632 0.000000 0.000000 0.000000
# 4 0.000066 -0.000066 0.000000 0.037884 0.000000 0.000000
# 5 0.000000 0.000000 0.000000 0.000000 0.037884 0.000131
# 6 0.000000 0.000000 0.000000 0.000000 0.000131 0.043331
#
#
# Mechanical properties :
#
#
# Convention : Reuss Voigt Hill
#
# Bulk Modulus (GPa) = 69.06229 70.25903 69.66066
# Shear Modulus (GPa) = 24.73881 24.91748 24.82815
#
# Velocity S-wave (km/s) = 3.81037 3.82410 3.81724
# Velocity P-wave (km/s) = 7.73889 7.79311 7.76604
#
# Compressibility (1/GPa) = 0.01447968
#
# Stress axis : x y z
#
# Youngs Moduli (GPa) = 61.16017 61.16017 73.35569
#
# Poissons Ratio (x) = 0.32506 0.38922
# Poissons Ratio (y) = 0.32506 0.38922
# Poissons Ratio (z) = 0.32451 0.32451
#
# Static dielectric constant tensor:
#      x y z
#    x 3.121200 0.000000 0.000000 
#    y 0.000000 3.121200 0.000000 
#    z 0.000000 0.000000 3.475930 
# 
# 
# High freq. dielectric constant tensor:
#      x y z
#    x 1.655930 0.000000 0.000000 
#    y 0.000000 1.655930 0.000000 
#    z 0.000000 0.000000 1.675160 
# 
# From -- ./inp_files/5187.got.cif
#   From: 2010.03.12/outbox.cif.g09.slc.cpg/sg164_3_cif.got.tgz:5187.got - 2010.04.02 06:32:59.
