data_PCOD8323658
_publ_section_title
;
Structure prediction by ZEFSAII (Michael W. Deem and Ramdas Pophale) SiO2 
 PCOD8323658
Probable space group: P -3 M 1
;
_chemical_formula_sum "Si O2"
_cell_formula_units_Z 66
_cell_length_a 12.514624
_cell_length_b 12.514624
_cell_length_c 28.391620
_cell_angle_alpha 90.000000
_cell_angle_beta 90.000000
_cell_angle_gamma 120.000000
_cell_volume 3850.848359
_symmetry_space_group_name_H-M "P -3 M 1"
_symmetry_group_IT_number 164
_symmetry_cell_setting 'hexagonal'
loop_
_space_group_symop_operation_xyz
x,y,z
-y,x-y,z
-x+y,-x,z
x-y,-y,-z
-x,-x+y,-z
y,x,-z
-x,-y,-z
y,-x+y,-z
x-y,x,-z
-x+y,y,z
x,x-y,z
-y,-x,z
loop_
_atom_site_type_symbol
_atom_site_label
_atom_site_fract_x
_atom_site_fract_y
_atom_site_fract_z
Si Si1 0.000000 0.754158 0.000000
Si Si2 0.418165 0.084035 0.188728
Si Si3 0.249647 0.249812 0.366466
Si Si4 0.333419 0.417417 0.277497
Si Si5 0.083125 0.666874 0.544432
Si Si6 0.750102 0.001178 0.101654
O O1 0.988246 0.684718 0.049776
O O2 0.887063 0.774126 0.990967
O O3 0.559456 0.118911 0.186382
O O4 0.413827 0.206914 0.199436
O O5 0.353907 0.021947 0.139564
O O6 0.344222 0.986725 0.229385
O O7 0.120523 0.241045 0.376858
O O8 0.311651 0.322640 0.318962
O O9 0.339822 0.322551 0.409138
O O10 0.226062 0.113031 0.361105
O O11 0.222395 0.444790 0.272511
O O12 0.455705 0.544296 0.289207
O O13 0.100777 0.550389 0.550267
O O14 0.215614 0.784387 0.536466
O O15 0.000000 0.655498 0.500000
O O16 0.893742 0.106259 0.105754
O O17 0.738466 0.869233 0.110791
#
# Coordination Sequence:
#
# PCOD8323658 Si02
#       6
#     6  12  12  12  12  12
#     4   8  13  22  39  64  92 118 144 178 224 276
#     4  10  20  33  48  66  90 122 158 193 228 269
#     4  10  20  34  52  74 100 129 160 194 233 278
#     4  10  20  34  52  73  96 122 153 191 235 281
#     4  10  20  34  52  74 100 130 164 201 240 281
#     4   9  16  27  45  69  94 118 146 184 231 279
#
# _framework density 17.13908
#
# number of rings (size 3 to 8) (size 9 to 14) (size 15 to 20)
#    0.000    2.364    0.000    3.182    0.000    1.455 
#    0.000    0.455    0.000   20.727    0.000    0.000 
#    0.000    0.000    0.000    0.000    0.000    0.000 
#
# Total GULP energy -818210.768701 kJ/mol
# GULP energy per Si atom -12397.132859 kJ/mol
# Density = 1.710007 g / cm^3
# Si number density = 17.139080 Si / 1000 Ang^3
#
#
#
# Elastic Constant Matrix: (Units=GPa)
#
#
# Indices 1 2 3 4 5 6 
#
# 1 64.4435 30.0311 48.5870 -4.3546 0.0000 0.0000
# 2 30.0311 64.4435 48.5870 4.3546 0.0000 0.0000
# 3 48.5870 48.5870 121.5401 0.0000 0.0000 0.0000
# 4 -4.3546 4.3546 0.0000 25.9411 0.0000 0.0000
# 5 0.0000 0.0000 0.0000 0.0000 25.9411 -4.3546
# 6 0.0000 0.0000 0.0000 0.0000 -4.3546 17.2062
#
#
#
# Elastic Compliance Matrix: (Units=1/GPa)
#
#
# Indices 1 2 3 4 5 6 
#
# 1 0.024163 -0.006186 -0.007186 0.005094 0.000000 0.000000
# 2 -0.006186 0.024163 -0.007186 -0.005094 0.000000 0.000000
# 3 -0.007186 -0.007186 0.013973 0.000000 0.000000 0.000000
# 4 0.005094 -0.005094 0.000000 0.040259 0.000000 0.000000
# 5 0.000000 0.000000 0.000000 0.000000 0.040259 0.010189
# 6 0.000000 0.000000 0.000000 0.000000 0.010189 0.060697
#
#
# Mechanical properties :
#
#
# Convention : Reuss Voigt Hill
#
# Bulk Modulus (GPa) = 47.21182 56.09303 51.65243
# Shear Modulus (GPa) = 19.86555 22.03248 20.94901
#
# Velocity S-wave (km/s) = 3.40822 3.58929 3.49993
# Velocity P-wave (km/s) = 6.56460 7.06941 6.82168
#
# Compressibility (1/GPa) = 0.02118114
#
# Stress axis : x y z
#
# Youngs Moduli (GPa) = 41.38630 41.38630 71.56465
#
# Poissons Ratio (x) = 0.25602 0.51429
# Poissons Ratio (y) = 0.25602 0.51429
# Poissons Ratio (z) = 0.29742 0.29742
#
# Static dielectric constant tensor:
#      x y z
#    x 3.112100 0.000000 0.000000 
#    y 0.000000 3.112100 0.000000 
#    z 0.000000 0.000000 3.392660 
# 
# 
# High freq. dielectric constant tensor:
#      x y z
#    x 1.657840 0.000000 0.000000 
#    y 0.000000 1.657840 0.000000 
#    z 0.000000 0.000000 1.683160 
# 
# From -- ./inp_files/5511.got.cif
#   From: 2010.03.12/outbox.cif.g09.slc.cpg/sg164_3_cif.got.tgz:5511.got - 2010.04.02 06:32:59.
