data_PCOD8323510
_publ_section_title
;
Structure prediction by ZEFSAII (Michael W. Deem and Ramdas Pophale) SiO2 
 PCOD8323510
Probable space group: P -3 M 1
;
_chemical_formula_sum "Si O2"
_cell_formula_units_Z 96
_cell_length_a 18.155800
_cell_length_b 18.155800
_cell_length_c 19.962721
_cell_angle_alpha 90.000000
_cell_angle_beta 90.000000
_cell_angle_gamma 120.000000
_cell_volume 5698.770255
_symmetry_space_group_name_H-M "P -3 M 1"
_symmetry_group_IT_number 164
_symmetry_cell_setting 'hexagonal'
loop_
_space_group_symop_operation_xyz
x,y,z
-y,x-y,z
-x+y,-x,z
x-y,-y,-z
-x,-x+y,-z
y,x,-z
-x,-y,-z
y,-x+y,-z
x-y,x,-z
-x+y,y,z
x,x-y,z
-y,-x,z
loop_
_atom_site_type_symbol
_atom_site_label
_atom_site_fract_x
_atom_site_fract_y
_atom_site_fract_z
Si Si1 0.910470 0.540634 0.521628
Si Si2 0.504307 0.668494 0.340396
Si Si3 0.667327 0.503605 0.159008
Si Si4 0.332181 0.498386 0.617376
Si Si5 0.758141 0.078495 0.910356
Si Si6 0.101253 0.733709 0.946095
Si Si7 0.742647 0.090510 0.759594
Si Si8 0.097180 0.362357 0.723207
O O1 0.926868 0.463434 0.536226
O O2 0.874526 0.556841 0.590426
O O3 0.843160 0.518217 0.462051
O O4 0.000000 0.622576 0.500000
O O5 0.472035 0.736018 0.338676
O O6 0.424448 0.575553 0.333961
O O7 0.564633 0.681193 0.277777
O O8 0.736973 0.473946 0.151126
O O9 0.577327 0.422674 0.174510
O O10 0.659867 0.549913 0.091665
O O11 0.690819 0.569975 0.218348
O O12 0.261937 0.523874 0.638452
O O13 0.425101 0.574900 0.637683
O O14 0.313012 0.412076 0.655273
O O15 0.862002 0.137999 0.913581
O O16 0.725742 0.092824 0.839115
O O17 0.722419 0.978762 0.921890
O O18 0.719330 0.104266 0.973914
O O19 0.178449 0.821552 0.920406
O O20 0.841910 0.158091 0.742658
O O21 0.719184 0.996211 0.735408
O O22 0.164289 0.328578 0.719073
#
# Coordination Sequence:
#
# PCOD8323510 Si02
#       8
#    12  12  12  12  12  12  12  12
#     4   9  17  29  45  65  90 123 164 208 250 289
#     4  10  20  33  49  68  94 130 171 210 245 283
#     4  10  19  31  47  68  96 128 160 192 229 277
#     4  10  19  30  46  69  99 132 166 203 245 294
#     4   9  17  31  50  71  94 121 157 199 244 291
#     4   9  17  31  51  72  96 125 156 193 241 295
#     4  10  20  34  51  72  96 124 159 199 241 285
#     4  10  20  33  50  72  97 126 156 192 239 291
#
# _framework density 16.845739999999999
#
# number of rings (size 3 to 8) (size 9 to 14) (size 15 to 20)
#    0.000    2.375    1.250    1.875    0.000    2.000 
#    0.000    4.375    0.000    0.500    0.000    3.500 
#    0.000    0.000    0.000    0.000    0.000   26.000 
#
# Total GULP energy -1189582.730057 kJ/mol
# GULP energy per Si atom -12391.486771 kJ/mol
# Density = 1.680740 g / cm^3
# Si number density = 16.845740 Si / 1000 Ang^3
#
#
#
# Elastic Constant Matrix: (Units=GPa)
#
#
# Indices 1 2 3 4 5 6 
#
# 1 78.5919 46.2350 34.8810 0.0600 0.0000 0.0000
# 2 46.2350 78.5919 34.8810 -0.0600 0.0000 0.0000
# 3 34.8810 34.8810 108.9178 0.0000 0.0000 0.0000
# 4 0.0600 -0.0600 0.0000 21.6422 0.0000 0.0000
# 5 0.0000 0.0000 0.0000 0.0000 21.6422 0.0600
# 6 0.0000 0.0000 0.0000 0.0000 0.0600 16.1785
#
#
#
# Elastic Compliance Matrix: (Units=1/GPa)
#
#
# Indices 1 2 3 4 5 6 
#
# 1 0.020332 -0.010574 -0.003125 -0.000086 0.000000 0.000000
# 2 -0.010574 0.020332 -0.003125 0.000086 0.000000 0.000000
# 3 -0.003125 -0.003125 0.011183 0.000000 0.000000 0.000000
# 4 -0.000086 0.000086 0.000000 0.046207 0.000000 0.000000
# 5 0.000000 0.000000 0.000000 0.000000 0.046207 -0.000171
# 6 0.000000 0.000000 0.000000 0.000000 -0.000171 0.061811
#
#
# Mechanical properties :
#
#
# Convention : Reuss Voigt Hill
#
# Bulk Modulus (GPa) = 54.95018 55.34393 55.14706
# Shear Modulus (GPa) = 20.34310 21.89955 21.12132
#
# Velocity S-wave (km/s) = 3.47884 3.60947 3.54476
# Velocity P-wave (km/s) = 6.98762 7.09195 7.03998
#
# Compressibility (1/GPa) = 0.01819830
#
# Stress axis : x y z
#
# Youngs Moduli (GPa) = 49.18468 49.18468 89.42387
#
# Poissons Ratio (x) = 0.52008 0.27943
# Poissons Ratio (y) = 0.52008 0.27943
# Poissons Ratio (z) = 0.15369 0.15369
#
# Static dielectric constant tensor:
#      x y z
#    x 3.092500 0.000000 0.000000 
#    y 0.000000 3.092500 0.000000 
#    z 0.000000 0.000000 3.473420 
# 
# 
# High freq. dielectric constant tensor:
#      x y z
#    x 1.627660 0.000000 0.000000 
#    y 0.000000 1.627660 0.000000 
#    z 0.000000 0.000000 1.669680 
# 
# From -- ./inp_files/4780.got.cif
#   From: 2010.03.12/outbox.cif.g09.slc.cpg/sg164_3_cif.got.tgz:4780.got - 2010.04.02 06:32:59.
