data_PCOD8323767
_publ_section_title
;
Structure prediction by ZEFSAII (Michael W. Deem and Ramdas Pophale) SiO2 
 PCOD8323767
Probable space group: P -3 M 1
;
_chemical_formula_sum "Si O2"
_cell_formula_units_Z 84
_cell_length_a 20.813959
_cell_length_b 20.813959
_cell_length_c 11.050895
_cell_angle_alpha 90.000000
_cell_angle_beta 90.000000
_cell_angle_gamma 120.000000
_cell_volume 4146.078052
_symmetry_space_group_name_H-M "P -3 M 1"
_symmetry_group_IT_number 164
_symmetry_cell_setting 'hexagonal'
loop_
_space_group_symop_operation_xyz
x,y,z
-y,x-y,z
-x+y,-x,z
x-y,-y,-z
-x,-x+y,-z
y,x,-z
-x,-y,-z
y,-x+y,-z
x-y,x,-z
-x+y,y,z
x,x-y,z
-y,-x,z
loop_
_atom_site_type_symbol
_atom_site_label
_atom_site_fract_x
_atom_site_fract_y
_atom_site_fract_z
Si Si1 0.813946 0.482745 0.428464
Si Si2 0.812153 0.331990 0.935167
Si Si3 0.513278 0.634493 0.819937
Si Si4 0.445968 0.406857 0.827576
Si Si5 0.999995 0.848854 0.862697
Si Si6 0.756778 0.803412 0.375033
Si Si7 0.932178 0.329843 0.589248
O O1 0.726594 0.453187 0.433860
O O2 0.826173 0.413087 0.444482
O O3 0.847590 0.527703 0.303192
O O4 0.854212 0.543094 0.532127
O O5 0.802267 0.401134 0.894277
O O6 0.742670 0.257331 0.884113
O O7 0.888695 0.337994 0.888365
O O8 0.814951 0.326888 0.080122
O O9 0.448602 0.551399 0.792618
O O10 0.583204 0.624694 0.863867
O O11 0.521194 0.478807 0.869469
O O12 0.442292 0.394282 0.685358
O O13 0.931865 0.863729 0.853484
O O14 0.996065 0.795711 0.751098
O O15 0.074361 0.925640 0.841857
O O16 0.000000 0.817513 0.000000
O O17 0.786551 0.786551 0.500000
O O18 0.769586 0.884793 0.392555
O O19 0.669910 0.744921 0.355429
O O20 0.000000 0.365522 0.500000
#
# Coordination Sequence:
#
# PCOD8323767 Si02
#       7
#    12  12  12  12  12  12  12
#     4  11  22  36  58  87 119 148 185 239 299 355
#     4  10  20  34  54  82 117 153 186 228 287 349
#     4   9  18  34  57  82 109 144 188 235 282 341
#     4  10  20  36  59  83 107 143 192 238 281 333
#     4   9  17  32  57  88 121 155 193 238 292 353
#     4  10  21  36  56  81 114 155 198 242 293 348
#     4  11  22  38  59  80 108 149 193 239 283 344
#
# _framework density 20.260110000000001
#
# number of rings (size 3 to 8) (size 9 to 14) (size 15 to 20)
#    0.000    2.000    1.429    2.571    0.000    4.000 
#    0.000    2.857    0.000    5.714    0.000    0.000 
#    0.000    0.000    0.000    0.000    0.000    0.000 
#
# Total GULP energy -1040806.144258 kJ/mol
# GULP energy per Si atom -12390.549336 kJ/mol
# Density = 2.021400 g / cm^3
# Si number density = 20.260110 Si / 1000 Ang^3
#
#
#
# Elastic Constant Matrix: (Units=GPa)
#
#
# Indices 1 2 3 4 5 6 
#
# 1 89.0210 36.5062 34.8010 -0.5210 0.0000 0.0000
# 2 36.5062 89.0210 34.8010 0.5210 0.0000 0.0000
# 3 34.8010 34.8010 85.4319 0.0000 0.0000 0.0000
# 4 -0.5210 0.5210 0.0000 24.1465 0.0000 0.0000
# 5 0.0000 0.0000 0.0000 0.0000 24.1465 -0.5210
# 6 0.0000 0.0000 0.0000 0.0000 -0.5210 26.2574
#
#
#
# Elastic Compliance Matrix: (Units=1/GPa)
#
#
# Indices 1 2 3 4 5 6 
#
# 1 0.014671 -0.004380 -0.004192 0.000411 0.000000 0.000000
# 2 -0.004380 0.014671 -0.004192 -0.000411 0.000000 0.000000
# 3 -0.004192 -0.004192 0.015120 0.000000 0.000000 0.000000
# 4 0.000411 -0.000411 0.000000 0.041432 0.000000 0.000000
# 5 0.000000 0.000000 0.000000 0.000000 0.041432 0.000822
# 6 0.000000 0.000000 0.000000 0.000000 0.000822 0.038101
#
#
# Mechanical properties :
#
#
# Convention : Reuss Voigt Hill
#
# Bulk Modulus (GPa) = 52.81483 52.85446 52.83465
# Shear Modulus (GPa) = 25.34665 25.40110 25.37387
#
# Velocity S-wave (km/s) = 3.54087 3.54467 3.54277
# Velocity P-wave (km/s) = 6.54538 6.54962 6.54750
#
# Compressibility (1/GPa) = 0.01893408
#
# Stress axis : x y z
#
# Youngs Moduli (GPa) = 68.16358 68.16358 66.13550
#
# Poissons Ratio (x) = 0.29854 0.27724
# Poissons Ratio (y) = 0.29854 0.27724
# Poissons Ratio (z) = 0.28574 0.28574
#
# Static dielectric constant tensor:
#      x y z
#    x 3.659140 0.000000 0.000000 
#    y 0.000000 3.659140 0.000000 
#    z 0.000000 0.000000 3.918180 
# 
# 
# High freq. dielectric constant tensor:
#      x y z
#    x 1.778890 0.000000 0.000000 
#    y 0.000000 1.778890 0.000000 
#    z 0.000000 0.000000 1.800250 
# 
# From -- ./inp_files/2948.got.cif
#   From: 2010.03.12/outbox.cif.g09.slc.cpg/sg164_2_cif.got.tgz:2948.got - 2010.04.02 06:32:59.
