data_PCOD8323858
_publ_section_title
;
Structure prediction by ZEFSAII (Michael W. Deem and Ramdas Pophale) SiO2 
 PCOD8323858
Probable space group: P -3 C 1
;
_chemical_formula_sum "Si O2"
_cell_formula_units_Z 72
_cell_length_a 22.055702
_cell_length_b 22.055702
_cell_length_c 9.173905
_cell_angle_alpha 90.000000
_cell_angle_beta 90.000000
_cell_angle_gamma 120.000000
_cell_volume 3864.796585
_symmetry_space_group_name_H-M "P -3 C 1"
_symmetry_group_IT_number 165
_symmetry_cell_setting 'hexagonal'
loop_
_space_group_symop_operation_xyz
x,y,z
-y,x-y,z
-x+y,-x,z
x-y,-y,1/2-z
-x,-x+y,1/2-z
y,x,1/2-z
-x,-y,-z
y,-x+y,-z
x-y,x,-z
-x+y,y,1/2+z
x,x-y,1/2+z
-y,-x,1/2+z
loop_
_atom_site_type_symbol
_atom_site_label
_atom_site_fract_x
_atom_site_fract_y
_atom_site_fract_z
Si Si1 0.253491 0.989045 0.419638
Si Si2 0.941380 0.414284 0.138380
Si Si3 0.140466 0.740690 0.855306
Si Si4 0.040192 0.596229 0.382730
Si Si5 0.113511 0.130778 0.920118
Si Si6 0.617001 0.874139 0.516574
O O1 0.264943 0.923888 0.452271
O O2 0.173784 0.964862 0.453705
O O3 0.267379 0.000000 0.250000
O O4 0.304955 0.059019 0.512250
O O5 0.870261 0.337770 0.139514
O O6 0.922814 0.475121 0.175032
O O7 0.000000 0.416600 0.250000
O O8 0.974804 0.428987 0.980855
O O9 0.143814 0.759351 0.685719
O O10 0.210108 0.803811 0.925140
O O11 0.099697 0.663771 0.466051
O O12 0.000000 0.610480 0.250000
O O13 0.109799 0.109799 0.750000
O O14 0.126254 0.083863 0.033936
#
# Coordination Sequence:
#
# PCOD8323858 Si02
#       6
#    12  12  12  12  12  12
#     4   9  19  37  55  75 107 143 178 220 280 330
#     4  10  18  38  61  82 115 155 186 244 293 337
#     4  11  21  36  56  82 120 153 184 231 287 338
#     4  10  21  34  60  89 112 146 201 238 286 346
#     4  11  22  37  54  72  93 128 174 222 269 324
#     4  11  22  36  55  86 119 152 186 234 284 344
#
# _framework density 18.6297
#
# number of rings (size 3 to 8) (size 9 to 14) (size 15 to 20)
#    0.000    1.667    3.333    2.167    2.333    0.000 
#    0.000    3.333    0.000    0.667    0.000    0.000 
#    0.000    0.000    0.000    0.000    0.000    0.000 
#
# Total GULP energy -891971.019026 kJ/mol
# GULP energy per Si atom -12388.486375 kJ/mol
# Density = 1.858730 g / cm^3
# Si number density = 18.629700 Si / 1000 Ang^3
#
#
#
# Elastic Constant Matrix: (Units=GPa)
#
#
# Indices 1 2 3 4 5 6 
#
# 1 80.9118 40.5306 24.5063 -3.8816 0.0000 0.0000
# 2 40.5306 80.9118 24.5063 3.8816 0.0000 0.0000
# 3 24.5063 24.5063 80.9998 0.0000 0.0000 0.0000
# 4 -3.8816 3.8816 0.0000 25.7265 0.0000 0.0000
# 5 0.0000 0.0000 0.0000 0.0000 25.7265 -3.8816
# 6 0.0000 0.0000 0.0000 0.0000 -3.8816 20.1906
#
#
#
# Elastic Compliance Matrix: (Units=1/GPa)
#
#
# Indices 1 2 3 4 5 6 
#
# 1 0.017442 -0.008062 -0.002838 0.003848 0.000000 0.000000
# 2 -0.008062 0.017442 -0.002838 -0.003848 0.000000 0.000000
# 3 -0.002838 -0.002838 0.014063 0.000000 0.000000 0.000000
# 4 0.003848 -0.003848 0.000000 0.040032 0.000000 0.000000
# 5 0.000000 0.000000 0.000000 0.000000 0.040032 0.007696
# 6 0.000000 0.000000 0.000000 0.000000 0.007696 0.051008
#
#
# Mechanical properties :
#
#
# Convention : Reuss Voigt Hill
#
# Bulk Modulus (GPa) = 46.57449 46.87887 46.72668
# Shear Modulus (GPa) = 23.29380 24.54739 23.92059
#
# Velocity S-wave (km/s) = 3.53988 3.63388 3.58719
# Velocity P-wave (km/s) = 6.46236 6.54408 6.50334
#
# Compressibility (1/GPa) = 0.02147098
#
# Stress axis : x y z
#
# Youngs Moduli (GPa) = 57.33382 57.33382 71.10938
#
# Poissons Ratio (x) = 0.46223 0.20179
# Poissons Ratio (y) = 0.46223 0.20179
# Poissons Ratio (z) = 0.16270 0.16270
#
# Static dielectric constant tensor:
#      x y z
#    x 3.499910 0.000000 0.000000 
#    y 0.000000 3.499910 0.000000 
#    z 0.000000 0.000000 3.347500 
# 
# 
# High freq. dielectric constant tensor:
#      x y z
#    x 1.707640 0.000000 0.000000 
#    y 0.000000 1.707640 0.000000 
#    z 0.000000 0.000000 1.728080 
# 
# From -- ./inp_files/782.got.cif
#   From: 2010.03.12/outbox.cif.g09.slc.cpg/sg165_1_cif.got.tgz:782.got - 2010.04.02 06:36:38.
