data_PCOD8323729
_publ_section_title
;
Structure prediction by ZEFSAII (Michael W. Deem and Ramdas Pophale) SiO2 
 PCOD8323729
Probable space group: P -3 M 1
;
_chemical_formula_sum "Si O2"
_cell_formula_units_Z 60
_cell_length_a 13.041834
_cell_length_b 13.041834
_cell_length_c 25.178623
_cell_angle_alpha 90.000000
_cell_angle_beta 90.000000
_cell_angle_gamma 120.000000
_cell_volume 3708.855755
_symmetry_space_group_name_H-M "P -3 M 1"
_symmetry_group_IT_number 164
_symmetry_cell_setting 'hexagonal'
loop_
_space_group_symop_operation_xyz
x,y,z
-y,x-y,z
-x+y,-x,z
x-y,-y,-z
-x,-x+y,-z
y,x,-z
-x,-y,-z
y,-x+y,-z
x-y,x,-z
-x+y,y,z
x,x-y,z
-y,-x,z
loop_
_atom_site_type_symbol
_atom_site_label
_atom_site_fract_x
_atom_site_fract_y
_atom_site_fract_z
Si Si1 0.904199 0.570563 0.864677
Si Si2 0.664558 0.574584 0.047308
Si Si3 0.667383 0.097323 0.743111
Si Si4 0.666290 0.095365 0.338564
Si Si5 0.333773 0.904844 0.541670
O O1 0.791628 0.583256 0.881560
O O2 0.867874 0.433937 0.874080
O O3 0.940276 0.608741 0.803844
O O4 0.019932 0.656903 0.898719
O O5 0.792399 0.584798 0.043195
O O6 0.563626 0.436375 0.045644
O O7 0.646194 0.646194 0.000000
O O8 0.560209 0.120418 0.732215
O O9 0.784219 0.215782 0.728158
O O10 0.661197 0.998022 0.703677
O O11 0.560729 0.121457 0.327917
O O12 0.785052 0.214949 0.327973
O O13 0.660480 0.048094 0.398425
O O14 0.438908 0.877816 0.531153
O O15 0.214133 0.785868 0.530851
O O16 0.338756 0.000000 0.500000
#
# Coordination Sequence:
#
# PCOD8323729 Si02
#       5
#    12  12  12  12  12
#     4   9  17  30  49  71  94 121 152 186 224 267
#     4  10  20  33  50  72  97 123 151 186 227 269
#     4   9  17  29  46  69  95 121 149 183 224 267
#     4   9  17  29  45  65  89 118 150 183 221 266
#     4   9  17  29  45  65  89 116 146 181 222 269
#
# _framework density 16.177496999999999
#
# number of rings (size 3 to 8) (size 9 to 14) (size 15 to 20)
#    0.000    2.800    0.000    1.600    0.000    4.800 
#    0.000    2.000    0.000    9.000    0.000    0.000 
#    0.000    0.000    0.000    0.000    0.000    0.000 
#
# Total GULP energy -743913.962335 kJ/mol
# GULP energy per Si atom -12398.566039 kJ/mol
# Density = 1.614068 g / cm^3
# Si number density = 16.177497 Si / 1000 Ang^3
#
#
#
# Elastic Constant Matrix: (Units=GPa)
#
#
# Indices 1 2 3 4 5 6 
#
# 1 94.4978 49.4853 63.6908 -0.3201 0.0000 0.0000
# 2 49.4853 94.4978 63.6908 0.3201 0.0000 0.0000
# 3 63.6908 63.6908 109.0675 0.0000 0.0000 0.0000
# 4 -0.3201 0.3201 0.0000 28.2727 0.0000 0.0000
# 5 0.0000 0.0000 0.0000 0.0000 28.2727 -0.3201
# 6 0.0000 0.0000 0.0000 0.0000 -0.3201 22.5062
#
#
#
# Elastic Compliance Matrix: (Units=1/GPa)
#
#
# Indices 1 2 3 4 5 6 
#
# 1 0.018294 -0.003926 -0.008390 0.000252 0.000000 0.000000
# 2 -0.003926 0.018294 -0.008390 -0.000252 0.000000 0.000000
# 3 -0.008390 -0.008390 0.018968 0.000000 0.000000 0.000000
# 4 0.000252 -0.000252 0.000000 0.035376 0.000000 0.000000
# 5 0.000000 0.000000 0.000000 0.000000 0.035376 0.000503
# 6 0.000000 0.000000 0.000000 0.000000 0.000503 0.044439
#
#
# Mechanical properties :
#
#
# Convention : Reuss Voigt Hill
#
# Bulk Modulus (GPa) = 70.70791 72.42188 71.56490
# Shear Modulus (GPa) = 23.05486 23.89004 23.47245
#
# Velocity S-wave (km/s) = 3.77917 3.84701 3.81324
# Velocity P-wave (km/s) = 7.92750 8.03722 7.98255
#
# Compressibility (1/GPa) = 0.01414269
#
# Stress axis : x y z
#
# Youngs Moduli (GPa) = 54.66276 54.66276 52.72033
#
# Poissons Ratio (x) = 0.21459 0.44235
# Poissons Ratio (y) = 0.21459 0.44235
# Poissons Ratio (z) = 0.45865 0.45865
#
# Static dielectric constant tensor:
#      x y z
#    x 2.947240 0.000000 0.000000 
#    y 0.000000 2.947240 0.000000 
#    z 0.000000 0.000000 3.326450 
# 
# 
# High freq. dielectric constant tensor:
#      x y z
#    x 1.607560 0.000000 0.000000 
#    y 0.000000 1.607560 0.000000 
#    z 0.000000 0.000000 1.636630 
# 
# From -- ./inp_files/5166.got.cif
#   From: 2010.03.12/outbox.cif.g09.slc.cpg/sg164_3_cif.got.tgz:5166.got - 2010.04.02 06:32:59.
