data_PCOD8323571
_publ_section_title
;
Structure prediction by ZEFSAII (Michael W. Deem and Ramdas Pophale) SiO2 
 PCOD8323571
Probable space group: P -3 M 1
;
_chemical_formula_sum "Si O2"
_cell_formula_units_Z 84
_cell_length_a 19.251336
_cell_length_b 19.251336
_cell_length_c 13.426086
_cell_angle_alpha 90.000000
_cell_angle_beta 90.000000
_cell_angle_gamma 120.000000
_cell_volume 4309.251131
_symmetry_space_group_name_H-M "P -3 M 1"
_symmetry_group_IT_number 164
_symmetry_cell_setting 'hexagonal'
loop_
_space_group_symop_operation_xyz
x,y,z
-y,x-y,z
-x+y,-x,z
x-y,-y,-z
-x,-x+y,-z
y,x,-z
-x,-y,-z
y,-x+y,-z
x-y,x,-z
-x+y,y,z
x,x-y,z
-y,-x,z
loop_
_atom_site_type_symbol
_atom_site_label
_atom_site_fract_x
_atom_site_fract_y
_atom_site_fract_z
Si Si1 0.090526 0.335741 0.784992
Si Si2 0.260576 0.051339 0.909302
Si Si3 0.046097 0.361719 0.592258
Si Si4 0.382407 0.919318 0.290770
Si Si5 0.700862 0.144020 0.914101
Si Si6 0.175702 0.666195 0.480336
Si Si7 0.171331 0.505889 0.873829
O O1 0.162209 0.324417 0.828686
O O2 0.095019 0.333724 0.663127
O O3 0.105715 0.423546 0.819576
O O4 0.006530 0.259734 0.818729
O O5 0.239162 0.119581 0.874124
O O6 0.351178 0.093175 0.950421
O O7 0.202524 0.000000 0.000000
O O8 0.098749 0.449074 0.544565
O O9 0.000000 0.300868 0.500000
O O10 0.985809 0.362013 0.674602
O O11 0.477106 0.954212 0.301570
O O12 0.359196 0.897024 0.176583
O O13 0.335484 0.842036 0.362698
O O14 0.768940 0.231061 0.876706
O O15 0.654637 0.152401 0.008396
O O16 0.198133 0.599066 0.508898
O O17 0.248161 0.751840 0.510677
O O18 0.260880 0.521759 0.852817
O O19 0.164545 0.582273 0.834850
#
# Coordination Sequence:
#
# PCOD8323571 Si02
#       7
#    12  12  12  12  12  12  12
#     4  11  22  40  61  87 119 153 191 237 291 346
#     4  11  21  38  61  88 118 151 188 229 287 348
#     4  10  21  37  55  79 108 142 186 236 292 337
#     4  10  19  32  51  75 108 143 187 239 289 337
#     4  10  19  33  53  80 114 149 189 234 284 339
#     4  10  20  34  51  73 103 145 192 241 290 338
#     4  10  21  36  56  83 122 167 210 247 284 332
#
# _framework density 19.492947000000001
#
# number of rings (size 3 to 8) (size 9 to 14) (size 15 to 20)
#    0.000    1.714    2.857    2.429    0.000    2.857 
#    0.000    1.429    0.000    8.857    0.000    0.000 
#    0.000    0.571    0.000    0.429    0.000    0.000 
#
# Total GULP energy -1041213.704309 kJ/mol
# GULP energy per Si atom -12395.401242 kJ/mol
# Density = 1.944858 g / cm^3
# Si number density = 19.492947 Si / 1000 Ang^3
#
#
#
# Elastic Constant Matrix: (Units=GPa)
#
#
# Indices 1 2 3 4 5 6 
#
# 1 84.0469 35.2700 28.6295 -0.2912 0.0000 0.0000
# 2 35.2700 84.0469 28.6295 0.2912 0.0000 0.0000
# 3 28.6295 28.6295 99.8723 0.0000 0.0000 0.0000
# 4 -0.2912 0.2912 0.0000 22.5290 0.0000 0.0000
# 5 0.0000 0.0000 0.0000 0.0000 22.5290 -0.2912
# 6 0.0000 0.0000 0.0000 0.0000 -0.2912 24.3884
#
#
#
# Elastic Compliance Matrix: (Units=1/GPa)
#
#
# Indices 1 2 3 4 5 6 
#
# 1 0.015111 -0.005393 -0.002786 0.000265 0.000000 0.000000
# 2 -0.005393 0.015111 -0.002786 -0.000265 0.000000 0.000000
# 3 -0.002786 -0.002786 0.011610 0.000000 0.000000 0.000000
# 4 0.000265 -0.000265 0.000000 0.044394 0.000000 0.000000
# 5 0.000000 0.000000 0.000000 0.000000 0.044394 0.000530
# 6 0.000000 0.000000 0.000000 0.000000 0.000530 0.041009
#
#
# Mechanical properties :
#
#
# Convention : Reuss Voigt Hill
#
# Bulk Modulus (GPa) = 50.24434 50.33600 50.29017
# Shear Modulus (GPa) = 24.97575 25.58507 25.28041
#
# Velocity S-wave (km/s) = 3.58337 3.62682 3.60516
# Velocity P-wave (km/s) = 6.55380 6.58917 6.57151
#
# Compressibility (1/GPa) = 0.01990274
#
# Stress axis : x y z
#
# Youngs Moduli (GPa) = 66.17569 66.17569 86.13327
#
# Poissons Ratio (x) = 0.35691 0.23994
# Poissons Ratio (y) = 0.35691 0.23994
# Poissons Ratio (z) = 0.18435 0.18435
#
# Static dielectric constant tensor:
#      x y z
#    x 3.440090 0.000000 0.000000 
#    y 0.000000 3.440090 0.000000 
#    z 0.000000 0.000000 3.571580 
# 
# 
# High freq. dielectric constant tensor:
#      x y z
#    x 1.744000 0.000000 0.000000 
#    y 0.000000 1.744000 0.000000 
#    z 0.000000 0.000000 1.764540 
# 
# From -- ./inp_files/3561.got.cif
#   From: 2010.03.12/outbox.cif.g09.slc.cpg/sg164_2_cif.got.tgz:3561.got - 2010.04.02 06:32:59.
