data_PCOD8323063
_publ_section_title
;
Structure prediction by ZEFSAII (Michael W. Deem and Ramdas Pophale) SiO2 
 PCOD8323063
Probable space group: P -3 1 M 
;
_chemical_formula_sum "Si O2"
_cell_formula_units_Z 84
_cell_length_a 18.092535
_cell_length_b 18.092535
_cell_length_c 15.842054
_cell_angle_alpha 90.000000
_cell_angle_beta 90.000000
_cell_angle_gamma 120.000000
_cell_volume 4490.978375
_symmetry_space_group_name_H-M "P -3 1 M "
_symmetry_group_IT_number 162
_symmetry_cell_setting 'hexagonal'
loop_
_space_group_symop_operation_xyz
x,y,z
-y,x-y,z
-x+y,-x,z
-y,-x,-z
-x+y,y,-z
x,x-y,-z
-x,-y,-z
y,-x+y,-z
x-y,x,-z
y,x,z
x-y,-y,z
-x,-x+y,z
loop_
_atom_site_type_symbol
_atom_site_label
_atom_site_fract_x
_atom_site_fract_y
_atom_site_fract_z
Si Si1 0.904560 0.387926 0.552480
Si Si2 0.202680 0.831884 0.750972
Si Si3 0.549129 0.901025 0.804111
Si Si4 0.099139 0.630886 0.991715
Si Si5 0.322169 0.101713 0.568207
Si Si6 0.095699 0.603777 0.255281
Si Si7 0.101402 0.321006 0.928863
O O1 0.854854 0.427427 0.500000
O O2 0.863943 0.285825 0.546145
O O3 0.906516 0.417490 0.647095
O O4 0.000000 0.428218 0.515402
O O5 0.141927 0.730395 0.744697
O O6 0.189315 0.872600 0.665313
O O7 0.297008 0.846716 0.761608
O O8 0.181486 0.870776 0.833991
O O9 0.560098 0.882792 0.901105
O O10 0.448129 0.864963 0.790741
O O11 0.598177 0.000000 0.780132
O O12 0.000000 0.567371 0.005303
O O13 0.144168 0.572084 0.000000
O O14 0.129690 0.707862 0.058837
O O15 0.287792 0.143896 0.500000
O O16 0.264415 0.000000 0.561727
O O17 0.000000 0.574110 0.221969
O O18 0.000000 0.260290 0.940084
O O19 0.146282 0.292563 0.000000
#
# Coordination Sequence:
#
# PCOD8323063 Si02
#       7
#    12  12  12  12  12  12  12
#     4   8  15  29  51  75 101 135 178 223 276 334
#     4  11  21  36  57  82 116 153 195 243 296 353
#     4  10  20  33  53  84 113 146 194 242 288 338
#     4   9  17  31  52  77 107 141 184 232 277 332
#     4  10  22  38  58  86 115 148 194 245 299 358
#     4   9  18  33  51  73 106 150 190 225 281 348
#     4  11  21  35  56  81 112 151 195 243 294 347
#
# _framework density 18.704166000000001
#
# number of rings (size 3 to 8) (size 9 to 14) (size 15 to 20)
#    0.000    2.286    1.429    3.000    2.000    2.857 
#    0.857    0.000    0.000    0.857    0.000    0.000 
#    0.000    0.000    0.000    0.000    0.000    0.000 
#
# Total GULP energy -1040964.189194 kJ/mol
# GULP energy per Si atom -12392.430824 kJ/mol
# Density = 1.866159 g / cm^3
# Si number density = 18.704166 Si / 1000 Ang^3
#
#
#
# Elastic Constant Matrix: (Units=GPa)
#
#
# Indices 1 2 3 4 5 6 
#
# 1 67.2363 27.5520 35.8089 0.0001 0.2127 0.0000
# 2 27.5520 67.2363 35.8089 -0.0001 -0.2127 0.0000
# 3 35.8089 35.8089 110.1745 0.0000 0.0000 0.0000
# 4 0.0001 -0.0001 0.0000 25.6153 0.0000 -0.2127
# 5 0.2127 -0.2127 0.0000 0.0000 25.6153 0.0001
# 6 0.0000 0.0000 0.0000 -0.2127 0.0001 19.8421
#
#
#
# Elastic Compliance Matrix: (Units=1/GPa)
#
#
# Indices 1 2 3 4 5 6 
#
# 1 0.019593 -0.005609 -0.004545 0.000000 -0.000209 0.000000
# 2 -0.005609 0.019593 -0.004545 0.000000 0.000209 0.000000
# 3 -0.004545 -0.004545 0.012031 0.000000 0.000000 0.000000
# 4 0.000000 0.000000 0.000000 0.039043 0.000000 0.000419
# 5 -0.000209 0.000209 0.000000 0.000000 0.039043 0.000000
# 6 0.000000 0.000000 0.000000 0.000419 0.000000 0.050402
#
#
# Mechanical properties :
#
#
# Convention : Reuss Voigt Hill
#
# Bulk Modulus (GPa) = 45.83257 49.22074 47.52665
# Shear Modulus (GPa) = 23.10816 23.91304 23.51060
#
# Velocity S-wave (km/s) = 3.51872 3.57947 3.54923
# Velocity P-wave (km/s) = 6.40825 6.59212 6.50083
#
# Compressibility (1/GPa) = 0.02181855
#
# Stress axis : x y z
#
# Youngs Moduli (GPa) = 51.03992 51.03992 83.11884
#
# Poissons Ratio (x) = 0.28627 0.37778
# Poissons Ratio (y) = 0.28627 0.37778
# Poissons Ratio (z) = 0.23198 0.23198
#
# Static dielectric constant tensor:
#      x y z
#    x 3.229010 0.000000 0.000000 
#    y 0.000000 3.229010 0.000000 
#    z 0.000000 0.000000 3.588030 
# 
# 
# High freq. dielectric constant tensor:
#      x y z
#    x 1.696460 0.000000 0.000000 
#    y 0.000000 1.696460 0.000000 
#    z 0.000000 0.000000 1.741590 
# 
# From -- ./inp_files/3217.got.cif
#   From: 2010.03.12/outbox.cif.g09.slc.cpg/sg162_2_cif.got.tgz:3217.got - 2010.04.02 06:27:41.
