data_PCOD8323186
_publ_section_title
;
Structure prediction by ZEFSAII (Michael W. Deem and Ramdas Pophale) SiO2 
 PCOD8323186
Probable space group: P -3 1 C
;
_chemical_formula_sum "Si O2"
_cell_formula_units_Z 96
_cell_length_a 17.388872
_cell_length_b 17.388872
_cell_length_c 22.565728
_cell_angle_alpha 90.000000
_cell_angle_beta 90.000000
_cell_angle_gamma 120.000000
_cell_volume 5909.119897
_symmetry_space_group_name_H-M "P -3 1 C"
_symmetry_group_IT_number 163
_symmetry_cell_setting 'hexagonal'
loop_
_space_group_symop_operation_xyz
x,y,z
-y,x-y,z
-x+y,-x,z
-y,-x,1/2-z
-x+y,y,1/2-z
x,x-y,1/2-z
-x,-y,-z
y,-x+y,-z
x-y,x,-z
y,x,1/2+z
x-y,-y,1/2+z
-x,-x+y,1/2+z
loop_
_atom_site_type_symbol
_atom_site_label
_atom_site_fract_x
_atom_site_fract_y
_atom_site_fract_z
Si Si1 0.168970 0.000202 0.145307
Si Si2 0.724874 0.952080 0.243329
Si Si3 0.537830 0.631719 0.249196
Si Si4 0.767400 0.678901 0.961534
Si Si5 0.157814 0.500875 0.119796
Si Si6 0.170014 0.997464 0.372307
Si Si7 0.323995 0.061860 0.553895
Si Si8 0.676130 0.163162 0.620233
O O1 0.193601 0.095316 0.120117
O O2 0.205088 0.010270 0.211986
O O3 0.062907 0.933835 0.144526
O O4 0.212316 0.955527 0.106711
O O5 0.693907 0.846954 0.250000
O O6 0.643879 0.970987 0.256363
O O7 0.758268 0.987762 0.177999
O O8 0.477256 0.522745 0.250000
O O9 0.507460 0.662175 0.190978
O O10 0.524865 0.674787 0.308955
O O11 0.807807 0.776761 0.934183
O O12 0.850283 0.664895 0.981058
O O13 0.703448 0.604071 0.914583
O O14 0.708163 0.680685 0.015804
O O15 0.082920 0.415380 0.085161
O O16 0.143543 0.580555 0.097642
O O17 0.254876 0.519023 0.102965
#
# Coordination Sequence:
#
# PCOD8323186 Si02
#       8
#    12  12  12  12  12  12  12  12
#     4  10  19  30  46  66  91 122 158 197 233 271
#     4  10  17  29  46  66  93 122 150 183 231 279
#     4  10  18  29  48  72  97 122 146 177 223 275
#     4  10  20  33  48  65  90 124 160 195 232 270
#     4  10  19  31  49  71  95 121 149 184 226 278
#     4  10  19  30  46  66  91 122 158 197 233 271
#     4  10  20  33  48  65  90 124 160 195 232 270
#     4  10  19  31  49  71  95 121 149 184 226 278
#
# _framework density 16.246074
#
# number of rings (size 3 to 8) (size 9 to 14) (size 15 to 20)
#    0.000    2.000    2.500    2.750    0.000    0.500 
#    0.000    2.500    0.000    4.250    0.000    0.000 
#    0.000    0.000    0.000    8.000    0.000    0.000 
#
# Total GULP energy -1189740.656930 kJ/mol
# GULP energy per Si atom -12393.131843 kJ/mol
# Density = 1.620910 g / cm^3
# Si number density = 16.246074 Si / 1000 Ang^3
#
#
#
# Elastic Constant Matrix: (Units=GPa)
#
#
# Indices 1 2 3 4 5 6 
#
# 1 73.9650 28.0129 11.7571 0.0000 -2.3805 0.0000
# 2 28.0129 73.9650 11.7571 0.0000 2.3805 0.0000
# 3 11.7571 11.7571 47.9722 0.0000 0.0000 0.0000
# 4 0.0000 0.0000 0.0000 20.8987 0.0000 2.3805
# 5 -2.3805 2.3805 0.0000 0.0000 20.8987 0.0000
# 6 0.0000 0.0000 0.0000 2.3805 0.0000 22.9761
#
#
#
# Elastic Compliance Matrix: (Units=1/GPa)
#
#
# Indices 1 2 3 4 5 6 
#
# 1 0.016208 -0.005814 -0.002547 0.000000 0.002508 0.000000
# 2 -0.005814 0.016208 -0.002547 0.000000 -0.002508 0.000000
# 3 -0.002547 -0.002547 0.022094 0.000000 0.000000 0.000000
# 4 0.000000 0.000000 0.000000 0.048421 0.000000 -0.005017
# 5 0.002508 -0.002508 0.000000 0.000000 0.048421 0.000000
# 6 0.000000 0.000000 0.000000 -0.005017 0.000000 0.044043
#
#
# Mechanical properties :
#
#
# Convention : Reuss Voigt Hill
#
# Bulk Modulus (GPa) = 30.58869 33.21739 31.90304
# Shear Modulus (GPa) = 21.91928 22.57969 22.24949
#
# Velocity S-wave (km/s) = 3.67714 3.73212 3.70473
# Velocity P-wave (km/s) = 6.07435 6.24999 6.16280
#
# Compressibility (1/GPa) = 0.03269182
#
# Stress axis : x y z
#
# Youngs Moduli (GPa) = 61.69970 61.69970 45.26122
#
# Poissons Ratio (x) = 0.35873 0.11529
# Poissons Ratio (y) = 0.35873 0.11529
# Poissons Ratio (z) = 0.15716 0.15716
#
# Static dielectric constant tensor:
#      x y z
#    x 3.008850 0.000000 0.000000 
#    y 0.000000 3.008850 0.000000 
#    z 0.000000 0.000000 2.959990 
# 
# 
# High freq. dielectric constant tensor:
#      x y z
#    x 1.611230 0.000000 0.000000 
#    y 0.000000 1.611230 0.000000 
#    z 0.000000 0.000000 1.617840 
# 
# From -- ./inp_files/3698.got.cif
#   From: 2010.03.12/outbox.cif.g09.slc.cpg/sg163_2_cif.got.tgz:3698.got - 2010.04.02 06:30:25.
