data_PCOD8323105
_publ_section_title
;
Structure prediction by ZEFSAII (Michael W. Deem and Ramdas Pophale) SiO2 
 PCOD8323105
Probable space group: P -3 1 M 
;
_chemical_formula_sum "Si O2"
_cell_formula_units_Z 84
_cell_length_a 20.268685
_cell_length_b 20.268685
_cell_length_c 12.057169
_cell_angle_alpha 90.000000
_cell_angle_beta 90.000000
_cell_angle_gamma 120.000000
_cell_volume 4289.702031
_symmetry_space_group_name_H-M "P -3 1 M "
_symmetry_group_IT_number 162
_symmetry_cell_setting 'hexagonal'
loop_
_space_group_symop_operation_xyz
x,y,z
-y,x-y,z
-x+y,-x,z
-y,-x,-z
-x+y,y,-z
x,x-y,-z
-x,-y,-z
y,-x+y,-z
x-y,x,-z
y,x,z
x-y,-y,z
-x,-x+y,z
loop_
_atom_site_type_symbol
_atom_site_label
_atom_site_fract_x
_atom_site_fract_y
_atom_site_fract_z
Si Si1 0.914505 0.400375 0.074879
Si Si2 0.086440 0.662364 0.523830
Si Si3 0.504491 0.703932 0.677908
Si Si4 0.911032 0.187736 0.399783
Si Si5 0.158353 0.811440 0.193076
Si Si6 0.168504 0.631703 0.703054
Si Si7 0.656285 0.736539 0.012728
O O1 0.860531 0.357705 0.178806
O O2 0.919099 0.341146 0.991560
O O3 0.000000 0.462530 0.116394
O O4 0.877587 0.438794 0.000000
O O5 0.151417 0.692342 0.432334
O O6 0.094925 0.737091 0.583402
O O7 0.102292 0.612194 0.612452
O O8 0.000000 0.610928 0.476841
O O9 0.573670 0.742429 0.763842
O O10 0.436612 0.622618 0.716266
O O11 0.467911 0.758021 0.661756
O O12 0.872544 0.127457 0.500000
O O13 0.861581 0.147964 0.288698
O O14 0.000000 0.210578 0.387516
O O15 0.226987 0.861531 0.111937
O O16 0.088622 0.777207 0.106021
O O17 0.721345 0.721345 0.060913
#
# Coordination Sequence:
#
# PCOD8323105 Si02
#       7
#    12  12  12  12  12  12  12
#     4  10  20  37  59  83 110 149 203 260 319 373
#     4  11  23  40  63  87 120 164 211 268 329 384
#     4  12  24  39  58  86 124 163 215 261 321 387
#     4  11  21  39  66  95 129 169 210 261 319 382
#     4  11  21  38  61  86 124 160 206 259 315 381
#     4  12  23  39  58  82 120 165 209 264 323 388
#     4  10  21  37  60  88 118 157 200 254 319 376
#
# _framework density 19.581779000000001
#
# number of rings (size 3 to 8) (size 9 to 14) (size 15 to 20)
#    0.000    1.000    4.286    2.857    0.000    5.143 
#    0.000    1.429    0.000    0.143    0.000    0.000 
#    0.000    0.000    0.000    7.286    0.000    0.000 
#
# Total GULP energy -1040799.655245 kJ/mol
# GULP energy per Si atom -12390.472086 kJ/mol
# Density = 1.953721 g / cm^3
# Si number density = 19.581779 Si / 1000 Ang^3
#
#
#
# Elastic Constant Matrix: (Units=GPa)
#
#
# Indices 1 2 3 4 5 6 
#
# 1 89.4818 39.8743 48.3691 0.0005 10.8715 0.0000
# 2 39.8743 89.4818 48.3691 -0.0005 -10.8715 0.0000
# 3 48.3691 48.3691 137.0332 0.0000 0.0000 0.0000
# 4 0.0005 -0.0005 0.0000 83.3571 0.0000 -10.8715
# 5 10.8715 -10.8715 0.0000 0.0000 83.3571 0.0005
# 6 0.0000 0.0000 0.0000 -10.8715 0.0005 24.8038
#
#
#
# Elastic Compliance Matrix: (Units=1/GPa)
#
#
# Indices 1 2 3 4 5 6 
#
# 1 0.015942 -0.005439 -0.003707 0.000000 -0.002788 0.000000
# 2 -0.005439 0.015942 -0.003707 0.000000 0.002788 0.000000
# 3 -0.003707 -0.003707 0.009915 0.000000 0.000000 0.000000
# 4 0.000000 0.000000 0.000000 0.012724 0.000000 0.005577
# 5 -0.002788 0.002788 0.000000 0.000000 0.012724 0.000000
# 6 0.000000 0.000000 0.000000 0.005577 0.000000 0.042761
#
#
# Mechanical properties :
#
#
# Convention : Reuss Voigt Hill
#
# Bulk Modulus (GPa) = 62.14423 65.46908 63.80666
# Shear Modulus (GPa) = 35.44155 50.26254 42.85205
#
# Velocity S-wave (km/s) = 4.25894 5.07186 4.68307
# Velocity P-wave (km/s) = 7.48260 8.23435 7.86746
#
# Compressibility (1/GPa) = 0.01609160
#
# Stress axis : x y z
#
# Youngs Moduli (GPa) = 62.72834 62.72834 100.86059
#
# Poissons Ratio (x) = 0.34116 0.37392
# Poissons Ratio (y) = 0.34116 0.37392
# Poissons Ratio (z) = 0.23255 0.23255
#
# Static dielectric constant tensor:
#      x y z
#    x 3.679730 0.000000 0.000000 
#    y 0.000000 3.679730 0.000000 
#    z 0.000000 0.000000 3.596770 
# 
# 
# High freq. dielectric constant tensor:
#      x y z
#    x 1.754410 0.000000 0.000000 
#    y 0.000000 1.754410 0.000000 
#    z 0.000000 0.000000 1.767490 
# 
# From -- ./inp_files/2490.got.cif
#   From: 2010.03.12/outbox.cif.g09.slc.cpg/sg162_2_cif.got.tgz:2490.got - 2010.04.02 06:27:41.
