data_PCOD8323409
_publ_section_title
;
Structure prediction by ZEFSAII (Michael W. Deem and Ramdas Pophale) SiO2 
 PCOD8323409
Probable space group: P -3 M 1
;
_chemical_formula_sum "Si O2"
_cell_formula_units_Z 84
_cell_length_a 16.641442
_cell_length_b 16.641442
_cell_length_c 22.425811
_cell_angle_alpha 90.000000
_cell_angle_beta 90.000000
_cell_angle_gamma 120.000000
_cell_volume 5378.494152
_symmetry_space_group_name_H-M "P -3 M 1"
_symmetry_group_IT_number 164
_symmetry_cell_setting 'hexagonal'
loop_
_space_group_symop_operation_xyz
x,y,z
-y,x-y,z
-x+y,-x,z
x-y,-y,-z
-x,-x+y,-z
y,x,-z
-x,-y,-z
y,-x+y,-z
x-y,x,-z
-x+y,y,z
x,x-y,z
-y,-x,z
loop_
_atom_site_type_symbol
_atom_site_label
_atom_site_fract_x
_atom_site_fract_y
_atom_site_fract_z
Si Si1 0.902210 0.624836 0.018363
Si Si2 0.999766 0.812317 0.566796
Si Si3 0.631121 0.962338 0.854396
Si Si4 0.703121 0.756729 0.679298
Si Si5 0.150046 0.666420 0.098332
Si Si6 0.812598 0.812830 0.206461
Si Si7 0.520897 0.855853 0.741097
O O1 0.831098 0.662195 0.015672
O O2 0.906666 0.589394 0.084182
O O3 0.875577 0.542087 0.971232
O O4 0.000000 0.712703 0.000000
O O5 0.082914 0.917087 0.574555
O O6 0.008560 0.743421 0.613703
O O7 0.000000 0.775885 0.500000
O O8 0.906515 0.813029 0.580930
O O9 0.731545 0.972976 0.841851
O O10 0.555167 0.901374 0.805612
O O11 0.642839 0.064010 0.858451
O O12 0.703507 0.851754 0.683494
O O13 0.774817 0.761737 0.729638
O O14 0.598191 0.675329 0.692710
O O15 0.180518 0.590259 0.106970
O O16 0.234604 0.765397 0.118194
O O17 0.919735 0.839469 0.208466
O O18 0.807228 0.903614 0.188940
O O19 0.425133 0.850266 0.723656
O O20 0.506102 0.753051 0.741037
#
# Coordination Sequence:
#
# PCOD8323409 Si02
#       7
#    12  12  12  12  12  12  12
#     4   9  18  31  46  62  82 108 136 167 207 256
#     4   9  15  23  38  62  92 123 152 179 207 244
#     4  10  19  32  47  64  87 114 140 169 213 265
#     4   8  16  28  40  58  85 116 145 174 211 252
#     4  10  20  33  49  67  85 106 134 170 211 257
#     4  10  18  28  43  63  89 119 151 182 208 241
#     4  10  19  31  47  65  85 109 141 181 221 260
#
# _framework density 15.617754
#
# number of rings (size 3 to 8) (size 9 to 14) (size 15 to 20)
#    0.000    2.571    0.000    4.000    0.000    4.286 
#    0.000    1.429    0.000    2.286    0.000    0.000 
#    0.000    0.000    0.000    0.429    0.000    7.286 
#
# Total GULP energy -1041332.871818 kJ/mol
# GULP energy per Si atom -12396.819903 kJ/mol
# Density = 1.558221 g / cm^3
# Si number density = 15.617754 Si / 1000 Ang^3
#
#
#
# Elastic Constant Matrix: (Units=GPa)
#
#
# Indices 1 2 3 4 5 6 
#
# 1 78.5950 30.3437 24.6967 0.6021 0.0000 0.0000
# 2 30.3437 78.5950 24.6967 -0.6021 0.0000 0.0000
# 3 24.6967 24.6967 79.2015 0.0000 0.0000 0.0000
# 4 0.6021 -0.6021 0.0000 15.9603 0.0000 0.0000
# 5 0.0000 0.0000 0.0000 0.0000 15.9603 0.6021
# 6 0.0000 0.0000 0.0000 0.0000 0.6021 24.1256
#
#
#
# Elastic Compliance Matrix: (Units=1/GPa)
#
#
# Indices 1 2 3 4 5 6 
#
# 1 0.015718 -0.005027 -0.003334 -0.000783 0.000000 0.000000
# 2 -0.005027 0.015718 -0.003334 0.000783 0.000000 0.000000
# 3 -0.003334 -0.003334 0.014705 0.000000 0.000000 0.000000
# 4 -0.000783 0.000783 0.000000 0.062714 0.000000 0.000000
# 5 0.000000 0.000000 0.000000 0.000000 0.062714 -0.001565
# 6 0.000000 0.000000 0.000000 0.000000 -0.001565 0.041489
#
#
# Mechanical properties :
#
#
# Convention : Reuss Voigt Hill
#
# Bulk Modulus (GPa) = 43.95156 43.98506 43.96831
# Shear Modulus (GPa) = 20.48926 21.65287 21.07107
#
# Velocity S-wave (km/s) = 3.62597 3.72751 3.67710
# Velocity P-wave (km/s) = 6.76265 6.83743 6.80014
#
# Compressibility (1/GPa) = 0.02275232
#
# Stress axis : x y z
#
# Youngs Moduli (GPa) = 63.62260 63.62260 68.00392
#
# Poissons Ratio (x) = 0.31981 0.22670
# Poissons Ratio (y) = 0.31981 0.22670
# Poissons Ratio (z) = 0.21210 0.21210
#
# Static dielectric constant tensor:
#      x y z
#    x 2.906990 0.000000 0.000000 
#    y 0.000000 2.906990 0.000000 
#    z 0.000000 0.000000 3.118530 
# 
# 
# High freq. dielectric constant tensor:
#      x y z
#    x 1.588440 0.000000 0.000000 
#    y 0.000000 1.588440 0.000000 
#    z 0.000000 0.000000 1.587990 
# 
# From -- ./inp_files/4668.got.cif
#   From: 2010.03.12/outbox.cif.g09.slc.cpg/sg164_3_cif.got.tgz:4668.got - 2010.04.02 06:32:59.
