data_PCOD8323045
_publ_section_title
;
Structure prediction by ZEFSAII (Michael W. Deem and Ramdas Pophale) SiO2 
 PCOD8323045
Probable space group: P -3 1 M 
;
_chemical_formula_sum "Si O2"
_cell_formula_units_Z 60
_cell_length_a 17.614040
_cell_length_b 17.614040
_cell_length_c 12.817910
_cell_angle_alpha 90.000000
_cell_angle_beta 90.000000
_cell_angle_gamma 120.000000
_cell_volume 3444.021120
_symmetry_space_group_name_H-M "P -3 1 M "
_symmetry_group_IT_number 162
_symmetry_cell_setting 'hexagonal'
loop_
_space_group_symop_operation_xyz
x,y,z
-y,x-y,z
-x+y,-x,z
-y,-x,-z
-x+y,y,-z
x,x-y,-z
-x,-y,-z
y,-x+y,-z
x-y,x,-z
y,x,z
x-y,-y,z
-x,-x+y,z
loop_
_atom_site_type_symbol
_atom_site_label
_atom_site_fract_x
_atom_site_fract_y
_atom_site_fract_z
Si Si1 0.103278 0.639201 0.106647
Si Si2 0.471781 0.367876 0.876551
Si Si3 0.900424 0.631148 0.687353
Si Si4 0.332143 0.843448 0.506420
Si Si5 0.733716 0.100451 0.302140
O O1 0.142648 0.576320 0.137852
O O2 0.129627 0.715877 0.189761
O O3 0.000000 0.576958 0.104608
O O4 0.134608 0.678733 0.990200
O O5 0.420885 0.420885 0.867099
O O6 0.435168 0.296041 0.785385
O O7 0.897995 0.576369 0.586786
O O8 0.836798 0.672403 0.672074
O O9 0.000000 0.709713 0.704608
O O10 0.258416 0.741585 0.500000
O O11 0.426610 0.853219 0.500000
O O12 0.326547 0.886829 0.614025
O O13 0.712287 0.000000 0.302514
#
# Coordination Sequence:
#
# PCOD8323045 Si02
#       5
#    12  12  12  12  12
#     4   8  14  26  45  68  92 117 146 181 222 271
#     4   8  14  26  45  68  92 117 146 181 222 271
#     4  10  20  32  47  68  93 122 157 197 237 274
#     4  10  20  33  50  73 100 126 149 176 216 269
#     4  10  20  32  47  68  93 122 157 197 237 274
#
# _framework density 17.421496000000001
#
# number of rings (size 3 to 8) (size 9 to 14) (size 15 to 20)
#    0.000    2.800    0.000    3.200    0.000    4.000 
#    0.000    0.000    0.000    1.200    0.000    0.000 
#    0.000    4.800    0.000   10.000    0.000    0.000 
#
# Total GULP energy -743629.999920 kJ/mol
# GULP energy per Si atom -12393.833332 kJ/mol
# Density = 1.738184 g / cm^3
# Si number density = 17.421496 Si / 1000 Ang^3
#
#
#
# Elastic Constant Matrix: (Units=GPa)
#
#
# Indices 1 2 3 4 5 6 
#
# 1 63.9265 37.1191 8.5467 0.0000 2.3400 0.0000
# 2 37.1191 63.9265 8.5467 0.0000 -2.3400 0.0000
# 3 8.5467 8.5467 69.6018 0.0000 0.0000 0.0000
# 4 0.0000 0.0000 0.0000 15.3438 0.0000 -2.3400
# 5 2.3400 -2.3400 0.0000 0.0000 15.3438 0.0000
# 6 0.0000 0.0000 0.0000 -2.3400 0.0000 13.4037
#
#
#
# Elastic Compliance Matrix: (Units=1/GPa)
#
#
# Indices 1 2 3 4 5 6 
#
# 1 0.024215 -0.014109 -0.001241 0.000000 -0.005845 0.000000
# 2 -0.014109 0.024215 -0.001241 0.000000 0.005845 0.000000
# 3 -0.001241 -0.001241 0.014672 0.000000 0.000000 0.000000
# 4 0.000000 0.000000 0.000000 0.066956 0.000000 0.011689
# 5 -0.005845 0.005845 0.000000 0.000000 0.066956 0.000000
# 6 0.000000 0.000000 0.000000 0.011689 0.000000 0.076647
#
#
# Mechanical properties :
#
#
# Convention : Reuss Voigt Hill
#
# Bulk Modulus (GPa) = 33.42128 33.98667 33.70397
# Shear Modulus (GPa) = 15.78207 18.36773 17.07490
#
# Velocity S-wave (km/s) = 3.01308 3.25054 3.13406
# Velocity P-wave (km/s) = 5.59736 5.79990 5.69953
#
# Compressibility (1/GPa) = 0.02992106
#
# Stress axis : x y z
#
# Youngs Moduli (GPa) = 41.29673 41.29673 68.15596
#
# Poissons Ratio (x) = 0.58264 0.08458
# Poissons Ratio (y) = 0.58264 0.08458
# Poissons Ratio (z) = 0.05125 0.05125
#
# Static dielectric constant tensor:
#      x y z
#    x 2.975220 0.000000 0.000000 
#    y 0.000000 2.975220 0.000000 
#    z 0.000000 0.000000 3.655230 
# 
# 
# High freq. dielectric constant tensor:
#      x y z
#    x 1.644240 0.000000 0.000000 
#    y 0.000000 1.644240 0.000000 
#    z 0.000000 0.000000 1.696170 
# 
# From -- ./inp_files/2305.got.cif
#   From: 2010.03.12/outbox.cif.g09.slc.cpg/sg162_2_cif.got.tgz:2305.got - 2010.04.02 06:27:41.
