data_PCOD8323771
_publ_section_title
;
Structure prediction by ZEFSAII (Michael W. Deem and Ramdas Pophale) SiO2 
 PCOD8323771
Probable space group: P -3 M 1
;
_chemical_formula_sum "Si O2"
_cell_formula_units_Z 72
_cell_length_a 31.252213
_cell_length_b 31.252213
_cell_length_c 4.961822
_cell_angle_alpha 90.000000
_cell_angle_beta 90.000000
_cell_angle_gamma 120.000000
_cell_volume 4196.945825
_symmetry_space_group_name_H-M "P -3 M 1"
_symmetry_group_IT_number 164
_symmetry_cell_setting 'hexagonal'
loop_
_space_group_symop_operation_xyz
x,y,z
-y,x-y,z
-x+y,-x,z
x-y,-y,-z
-x,-x+y,-z
y,x,-z
-x,-y,-z
y,-x+y,-z
x-y,x,-z
-x+y,y,z
x,x-y,z
-y,-x,z
loop_
_atom_site_type_symbol
_atom_site_label
_atom_site_fract_x
_atom_site_fract_y
_atom_site_fract_z
Si Si1 0.695564 0.644453 0.629506
Si Si2 0.172161 0.344321 0.765374
Si Si3 0.860785 0.721569 0.753579
Si Si4 0.332957 0.764745 0.484908
Si Si5 0.503129 0.202569 0.015852
Si Si6 0.751300 0.967608 0.269125
Si Si7 0.886478 0.598961 0.138649
O O1 0.652023 0.652023 0.500000
O O2 0.746207 0.696133 0.626615
O O3 0.697622 0.603987 0.440355
O O4 0.689736 0.623415 0.933950
O O5 0.162696 0.325392 0.454646
O O6 0.228627 0.374715 0.859437
O O7 0.147755 0.295510 0.939732
O O8 0.919520 0.756753 0.740803
O O9 0.386454 0.772908 0.419535
O O10 0.293301 0.706700 0.458243
O O11 0.319417 0.796187 0.282038
O O12 0.332576 0.784594 0.781609
O O13 0.484927 0.242464 0.050179
O O14 0.458261 0.147913 0.067523
O O15 0.789382 0.000000 0.500000
O O16 0.763734 0.000000 0.000000
#
# Coordination Sequence:
#
# PCOD8323771 Si02
#       7
#    12   6   6  12  12  12  12
#     4  11  22  34  49  71 102 137 175 214 256 297
#     4  12  20  32  48  76  96 140 176 207 248 308
#     4  12  22  34  50  72  96 138 184 207 242 312
#     4  10  20  35  53  76 107 141 171 201 243 304
#     4  10  21  33  51  78 105 133 171 213 251 296
#     4  11  21  34  48  69  97 131 173 216 247 285
#     4  12  20  35  51  72 106 136 174 215 255 295
#
# _framework density 17.155334
#
# number of rings (size 3 to 8) (size 9 to 14) (size 15 to 20)
#    0.000    1.000    4.167    5.167    0.000    0.000 
#    0.000    1.667    0.000    0.000    0.000    0.000 
#    0.000   46.667    0.000    5.000    0.000    0.000 
#
# Total GULP energy -892512.166156 kJ/mol
# GULP energy per Si atom -12396.002308 kJ/mol
# Density = 1.711629 g / cm^3
# Si number density = 17.155334 Si / 1000 Ang^3
#
#
#
# Elastic Constant Matrix: (Units=GPa)
#
#
# Indices 1 2 3 4 5 6 
#
# 1 94.4298 1.7902 6.8847 -15.5996 0.0000 0.0000
# 2 1.7902 94.4298 6.8847 15.5996 0.0000 0.0000
# 3 6.8847 6.8847 71.5911 0.0000 0.0000 0.0000
# 4 -15.5996 15.5996 0.0000 29.6272 0.0000 0.0000
# 5 0.0000 0.0000 0.0000 0.0000 29.6272 -15.5996
# 6 0.0000 0.0000 0.0000 0.0000 -15.5996 46.3198
#
#
#
# Elastic Compliance Matrix: (Units=1/GPa)
#
#
# Indices 1 2 3 4 5 6 
#
# 1 0.011830 -0.001292 -0.001013 0.006909 0.000000 0.000000
# 2 -0.001292 0.011830 -0.001013 -0.006909 0.000000 0.000000
# 3 -0.001013 -0.001013 0.014163 0.000000 0.000000 0.000000
# 4 0.006909 -0.006909 0.000000 0.041028 0.000000 0.000000
# 5 0.000000 0.000000 0.000000 0.000000 0.041028 0.013817
# 6 0.000000 0.000000 0.000000 0.000000 0.013817 0.026242
#
#
# Mechanical properties :
#
#
# Convention : Reuss Voigt Hill
#
# Bulk Modulus (GPa) = 32.06641 32.39666 32.23154
# Shear Modulus (GPa) = 30.64607 37.44090 34.04349
#
# Velocity S-wave (km/s) = 4.23115 4.67675 4.45952
# Velocity P-wave (km/s) = 6.52707 6.93455 6.73389
#
# Compressibility (1/GPa) = 0.03118528
#
# Stress axis : x y z
#
# Youngs Moduli (GPa) = 84.53404 84.53404 70.60582
#
# Poissons Ratio (x) = 0.10919 0.07155
# Poissons Ratio (y) = 0.10919 0.07155
# Poissons Ratio (z) = 0.08567 0.08567
#
# Static dielectric constant tensor:
#      x y z
#    x 2.975610 0.000000 0.000000 
#    y 0.000000 2.975610 0.000000 
#    z 0.000000 0.000000 3.416980 
# 
# 
# High freq. dielectric constant tensor:
#      x y z
#    x 1.635250 0.000000 0.000000 
#    y 0.000000 1.635250 0.000000 
#    z 0.000000 0.000000 1.688000 
# 
# From -- ./inp_files/831.got.cif
#   From: 2010.03.12/outbox.cif.g09.slc.cpg/sg164_1_cif.got.tgz:831.got - 2010.04.02 06:32:59.
