data_PCOD8323803
_publ_section_title
;
Structure prediction by ZEFSAII (Michael W. Deem and Ramdas Pophale) SiO2 
 PCOD8323803
Probable space group: P -3 M 1
;
_chemical_formula_sum "Si O2"
_cell_formula_units_Z 60
_cell_length_a 17.619793
_cell_length_b 17.619793
_cell_length_c 11.788185
_cell_angle_alpha 90.000000
_cell_angle_beta 90.000000
_cell_angle_gamma 120.000000
_cell_volume 3169.415507
_symmetry_space_group_name_H-M "P -3 M 1"
_symmetry_group_IT_number 164
_symmetry_cell_setting 'hexagonal'
loop_
_space_group_symop_operation_xyz
x,y,z
-y,x-y,z
-x+y,-x,z
x-y,-y,-z
-x,-x+y,-z
y,x,-z
-x,-y,-z
y,-x+y,-z
x-y,x,-z
-x+y,y,z
x,x-y,z
-y,-x,z
loop_
_atom_site_type_symbol
_atom_site_label
_atom_site_fract_x
_atom_site_fract_y
_atom_site_fract_z
Si Si1 0.626232 0.813116 0.077102
Si Si2 0.551805 0.616692 0.095063
Si Si3 0.900540 0.801080 0.769904
Si Si4 0.071134 0.620248 0.713008
Si Si5 0.385346 0.192673 0.189033
Si Si6 0.129247 0.870753 0.479948
Si Si7 0.903358 0.806715 0.274690
Si Si8 0.000000 0.327328 0.500000
O O1 0.566470 0.712661 0.111418
O O2 0.716055 0.858028 0.149557
O O3 0.642561 0.821281 0.942501
O O4 0.451063 0.548938 0.058204
O O5 0.572504 0.587400 0.211965
O O6 0.618205 0.618205 0.000000
O O7 0.896726 0.793451 0.635687
O O8 0.850363 0.854797 0.791522
O O9 0.108848 0.554424 0.690964
O O10 0.147102 0.705775 0.775802
O O11 0.034322 0.637146 0.599160
O O12 0.297110 0.148555 0.260353
O O13 0.094678 0.905322 0.586552
O O14 0.233866 0.915678 0.472458
#
# Coordination Sequence:
#
# PCOD8323803 Si02
#       8
#     6  12   6  12   6   6   6   6
#     4  12  24  37  67  91 118 172 207 261 312 385
#     4  10  21  39  61  89 121 155 201 255 307 363
#     4  12  25  38  58  94 126 173 226 256 318 363
#     4  11  23  40  63  90 125 157 203 259 310 378
#     4  12  22  41  63  87 122 165 207 255 317 371
#     4  12  20  36  63  88 124 162 209 261 303 371
#     4  12  23  40  58  86 130 170 210 271 307 367
#     4  12  21  38  62  95 120 160 206 253 310 370
#
# _framework density 18.930935000000002
#
# number of rings (size 3 to 8) (size 9 to 14) (size 15 to 20)
#    0.000    0.600    6.000    2.900    0.000    0.000 
#    1.200    1.000    0.000    1.200    0.000    0.000 
#    0.000    0.000    0.000    0.000    0.000    0.000 
#
# Total GULP energy -743689.793234 kJ/mol
# GULP energy per Si atom -12394.829887 kJ/mol
# Density = 1.888785 g / cm^3
# Si number density = 18.930935 Si / 1000 Ang^3
#
#
#
# Elastic Constant Matrix: (Units=GPa)
#
#
# Indices 1 2 3 4 5 6 
#
# 1 140.5283 73.3381 29.0723 -0.8260 0.0000 0.0000
# 2 73.3381 140.5283 29.0723 0.8260 0.0000 0.0000
# 3 29.0723 29.0723 69.3111 0.0000 0.0000 0.0000
# 4 -0.8260 0.8260 0.0000 24.3069 0.0000 0.0000
# 5 0.0000 0.0000 0.0000 0.0000 24.3069 -0.8260
# 6 0.0000 0.0000 0.0000 0.0000 -0.8260 33.5951
#
#
#
# Elastic Compliance Matrix: (Units=1/GPa)
#
#
# Indices 1 2 3 4 5 6 
#
# 1 0.010087 -0.004809 -0.002214 0.000506 0.000000 0.000000
# 2 -0.004809 0.010087 -0.002214 -0.000506 0.000000 0.000000
# 3 -0.002214 -0.002214 0.016285 0.000000 0.000000 0.000000
# 4 0.000506 -0.000506 0.000000 0.041175 0.000000 0.000000
# 5 0.000000 0.000000 0.000000 0.000000 0.041175 0.001012
# 6 0.000000 0.000000 0.000000 0.000000 0.001012 0.029791
#
#
# Mechanical properties :
#
#
# Convention : Reuss Voigt Hill
#
# Bulk Modulus (GPa) = 55.60096 68.14812 61.87454
# Shear Modulus (GPa) = 28.89053 31.03409 29.96231
#
# Velocity S-wave (km/s) = 3.91077 4.05326 3.98265
# Velocity P-wave (km/s) = 7.05878 7.61457 7.34194
#
# Compressibility (1/GPa) = 0.01798530
#
# Stress axis : x y z
#
# Youngs Moduli (GPa) = 99.14123 99.14123 61.40707
#
# Poissons Ratio (x) = 0.47677 0.13594
# Poissons Ratio (y) = 0.47677 0.13594
# Poissons Ratio (z) = 0.21947 0.21947
#
# Static dielectric constant tensor:
#      x y z
#    x 3.398150 0.000000 0.000000 
#    y 0.000000 3.398150 0.000000 
#    z 0.000000 0.000000 3.561350 
# 
# 
# High freq. dielectric constant tensor:
#      x y z
#    x 1.734960 0.000000 0.000000 
#    y 0.000000 1.734960 0.000000 
#    z 0.000000 0.000000 1.745610 
# 
# From -- ./inp_files/2796.got.cif
#   From: 2010.03.12/outbox.cif.g09.slc.cpg/sg164_2_cif.got.tgz:2796.got - 2010.04.02 06:32:59.
