data_PCOD8323723
_publ_section_title
;
Structure prediction by ZEFSAII (Michael W. Deem and Ramdas Pophale) SiO2 
 PCOD8323723
Probable space group: P -3 M 1
;
_chemical_formula_sum "Si O2"
_cell_formula_units_Z 66
_cell_length_a 12.477699
_cell_length_b 12.477699
_cell_length_c 28.070383
_cell_angle_alpha 90.000000
_cell_angle_beta 90.000000
_cell_angle_gamma 120.000000
_cell_volume 3784.843965
_symmetry_space_group_name_H-M "P -3 M 1"
_symmetry_group_IT_number 164
_symmetry_cell_setting 'hexagonal'
loop_
_space_group_symop_operation_xyz
x,y,z
-y,x-y,z
-x+y,-x,z
x-y,-y,-z
-x,-x+y,-z
y,x,-z
-x,-y,-z
y,-x+y,-z
x-y,x,-z
-x+y,y,z
x,x-y,z
-y,-x,z
loop_
_atom_site_type_symbol
_atom_site_label
_atom_site_fract_x
_atom_site_fract_y
_atom_site_fract_z
Si Si1 0.082393 0.665259 0.181383
Si Si2 0.251704 0.000000 0.000000
Si Si3 0.584306 0.918045 0.909635
Si Si4 0.917330 0.582434 0.270946
Si Si5 0.245859 0.000141 0.553789
Si Si6 0.914992 0.333618 0.639825
O O1 0.121449 0.560725 0.181365
O O2 0.203588 0.796413 0.176621
O O3 0.993330 0.648418 0.137775
O O4 0.013277 0.661804 0.229860
O O5 0.330553 0.007905 0.046037
O O6 0.117803 0.882198 0.005593
O O7 0.451008 0.902016 0.918041
O O8 0.567034 0.783517 0.904243
O O9 0.797382 0.594763 0.265579
O O10 0.877680 0.438840 0.266401
O O11 0.980308 0.637954 0.321405
O O12 0.201853 0.100927 0.558504
O O13 0.359833 0.031527 0.588377
O O14 0.291329 0.000000 0.500000
O O15 0.131667 0.868334 0.568327
O O16 0.877656 0.438828 0.638719
O O17 0.794196 0.205805 0.653396
#
# Coordination Sequence:
#
# PCOD8323723 Si02
#       6
#    12   6  12  12  12  12
#     4  10  20  34  53  76 102 132 165 201 241 288
#     4  10  20  34  52  74 102 136 172 208 248 296
#     4  10  20  34  53  76 102 132 167 208 252 296
#     4  10  20  34  53  75  99 127 160 200 244 290
#     4   9  17  30  49  72  97 126 161 201 244 289
#     4  10  20  33  50  71  97 129 163 200 241 288
#
# _framework density 17.43797
#
# number of rings (size 3 to 8) (size 9 to 14) (size 15 to 20)
#    0.000    2.182    0.000    3.455    0.000    1.091 
#    0.000    3.636    0.000   14.909    0.000    0.000 
#    0.000    0.000    0.000    0.000    0.000    0.000 
#
# Total GULP energy -818638.014616 kJ/mol
# GULP energy per Si atom -12403.606282 kJ/mol
# Density = 1.739828 g / cm^3
# Si number density = 17.437970 Si / 1000 Ang^3
#
#
#
# Elastic Constant Matrix: (Units=GPa)
#
#
# Indices 1 2 3 4 5 6 
#
# 1 65.6735 31.8648 36.2980 -3.1644 0.0000 0.0000
# 2 31.8648 65.6735 36.2980 3.1644 0.0000 0.0000
# 3 36.2980 36.2980 109.6273 0.0000 0.0000 0.0000
# 4 -3.1644 3.1644 0.0000 24.7664 0.0000 0.0000
# 5 0.0000 0.0000 0.0000 0.0000 24.7664 -3.1644
# 6 0.0000 0.0000 0.0000 0.0000 -3.1644 16.9044
#
#
#
# Elastic Compliance Matrix: (Units=1/GPa)
#
#
# Indices 1 2 3 4 5 6 
#
# 1 0.021954 -0.008349 -0.004505 0.003872 0.000000 0.000000
# 2 -0.008349 0.021954 -0.004505 -0.003872 0.000000 0.000000
# 3 -0.004505 -0.004505 0.012105 0.000000 0.000000 0.000000
# 4 0.003872 -0.003872 0.000000 0.041367 0.000000 0.000000
# 5 0.000000 0.000000 0.000000 0.000000 0.041367 0.007744
# 6 0.000000 0.000000 0.000000 0.000000 0.007744 0.060606
#
#
# Mechanical properties :
#
#
# Convention : Reuss Voigt Hill
#
# Bulk Modulus (GPa) = 46.95648 49.98846 48.47247
# Shear Modulus (GPa) = 20.73247 22.38833 21.56040
#
# Velocity S-wave (km/s) = 3.45182 3.58702 3.52007
# Velocity P-wave (km/s) = 6.54774 6.77379 6.66173
#
# Compressibility (1/GPa) = 0.02129632
#
# Stress axis : x y z
#
# Youngs Moduli (GPa) = 45.54969 45.54969 82.61126
#
# Poissons Ratio (x) = 0.38029 0.37214
# Poissons Ratio (y) = 0.38029 0.37214
# Poissons Ratio (z) = 0.20519 0.20519
#
# Static dielectric constant tensor:
#      x y z
#    x 3.164340 0.000000 0.000000 
#    y 0.000000 3.164340 0.000000 
#    z 0.000000 0.000000 3.455070 
# 
# 
# High freq. dielectric constant tensor:
#      x y z
#    x 1.674730 0.000000 0.000000 
#    y 0.000000 1.674730 0.000000 
#    z 0.000000 0.000000 1.690680 
# 
# From -- ./inp_files/5456.got.cif
#   From: 2010.03.12/outbox.cif.g09.slc.cpg/sg164_3_cif.got.tgz:5456.got - 2010.04.02 06:32:59.
