data_PCOD8323408
_publ_section_title
;
Structure prediction by ZEFSAII (Michael W. Deem and Ramdas Pophale) SiO2 
 PCOD8323408
Probable space group: P -3 M 1
;
_chemical_formula_sum "Si O2"
_cell_formula_units_Z 96
_cell_length_a 17.778824
_cell_length_b 17.778824
_cell_length_c 24.861012
_cell_angle_alpha 90.000000
_cell_angle_beta 90.000000
_cell_angle_gamma 120.000000
_cell_volume 6805.428825
_symmetry_space_group_name_H-M "P -3 M 1"
_symmetry_group_IT_number 164
_symmetry_cell_setting 'hexagonal'
loop_
_space_group_symop_operation_xyz
x,y,z
-y,x-y,z
-x+y,-x,z
x-y,-y,-z
-x,-x+y,-z
y,x,-z
-x,-y,-z
y,-x+y,-z
x-y,x,-z
-x+y,y,z
x,x-y,z
-y,-x,z
loop_
_atom_site_type_symbol
_atom_site_label
_atom_site_fract_x
_atom_site_fract_y
_atom_site_fract_z
Si Si1 0.175140 0.175510 0.561343
Si Si2 0.502337 0.835727 0.093565
Si Si3 0.287126 0.231214 0.766640
Si Si4 0.999802 0.828665 0.863083
Si Si5 0.069407 0.312857 0.047088
Si Si6 0.501925 0.835823 0.329232
Si Si7 0.895904 0.365489 0.788110
Si Si8 0.933401 0.690913 0.647570
O O1 0.203921 0.203921 0.500000
O O2 0.086918 0.173836 0.575524
O O3 0.250788 0.247351 0.599569
O O4 0.158819 0.079410 0.572335
O O5 0.426435 0.852869 0.072930
O O6 0.479764 0.739882 0.075810
O O7 0.591115 0.906694 0.065392
O O8 0.509521 0.839586 0.158051
O O9 0.316722 0.158361 0.773813
O O10 0.202856 0.205462 0.802602
O O11 0.365636 0.325882 0.785256
O O12 0.262829 0.236208 0.704779
O O13 0.093236 0.906765 0.879161
O O14 0.930972 0.861944 0.867096
O O15 0.974598 0.749055 0.902403
O O16 0.154808 0.309615 0.028215
O O17 0.000000 0.282012 0.000000
O O18 0.424632 0.849263 0.351547
O O19 0.486774 0.743387 0.349526
O O20 0.503893 0.834596 0.264308
O O21 0.592285 0.915905 0.352190
O O22 0.944305 0.472153 0.788260
O O23 0.841264 0.682528 0.638138
#
# Coordination Sequence:
#
# PCOD8323408 Si02
#       8
#    12  12  12  12  12  12  12  12
#     4   9  16  26  40  57  76 100 133 171 206 238
#     4  10  18  28  43  63  85 106 128 155 189 230
#     4   9  15  26  40  55  80 108 130 154 191 234
#     4  10  19  30  44  59  76  99 130 167 203 237
#     4  10  20  33  47  60  77 102 132 166 201 235
#     4   9  15  22  35  55  81 109 136 159 182 218
#     4   9  15  23  38  59  82 107 130 153 182 221
#     4   8  15  25  37  54  78 106 131 158 193 232
#
# _framework density 14.106385
#
# number of rings (size 3 to 8) (size 9 to 14) (size 15 to 20)
#    0.000    2.750    1.250    2.750    0.000    1.250 
#    0.000    1.250    0.000    4.125    0.000    0.000 
#    0.000    0.000    0.000    2.125    0.000   14.625 
#
# Total GULP energy -1189676.782202 kJ/mol
# GULP energy per Si atom -12392.466481 kJ/mol
# Density = 1.407428 g / cm^3
# Si number density = 14.106385 Si / 1000 Ang^3
#
#
#
# Elastic Constant Matrix: (Units=GPa)
#
#
# Indices 1 2 3 4 5 6 
#
# 1 80.0503 42.5789 41.4846 2.4728 0.0000 0.0000
# 2 42.5789 80.0503 41.4846 -2.4728 0.0000 0.0000
# 3 41.4846 41.4846 71.9639 0.0000 0.0000 0.0000
# 4 2.4728 -2.4728 0.0000 18.6770 0.0000 0.0000
# 5 0.0000 0.0000 0.0000 0.0000 18.6770 2.4728
# 6 0.0000 0.0000 0.0000 0.0000 2.4728 18.7357
#
#
#
# Elastic Compliance Matrix: (Units=1/GPa)
#
#
# Indices 1 2 3 4 5 6 
#
# 1 0.020265 -0.006896 -0.007707 -0.003596 0.000000 0.000000
# 2 -0.006896 0.020265 -0.007707 0.003596 0.000000 0.000000
# 3 -0.007707 -0.007707 0.022781 0.000000 0.000000 0.000000
# 4 -0.003596 0.003596 0.000000 0.054494 0.000000 0.000000
# 5 0.000000 0.000000 0.000000 0.000000 0.054494 -0.007192
# 6 0.000000 0.000000 0.000000 0.000000 -0.007192 0.054323
#
#
# Mechanical properties :
#
#
# Convention : Reuss Voigt Hill
#
# Bulk Modulus (GPa) = 53.49837 53.68452 53.59144
# Shear Modulus (GPa) = 18.01975 18.31903 18.16939
#
# Velocity S-wave (km/s) = 3.57798 3.60757 3.59280
# Velocity P-wave (km/s) = 7.42135 7.44931 7.43534
#
# Compressibility (1/GPa) = 0.01869216
#
# Stress axis : x y z
#
# Youngs Moduli (GPa) = 49.34543 49.34543 43.89601
#
# Poissons Ratio (x) = 0.34031 0.33829
# Poissons Ratio (y) = 0.34031 0.33829
# Poissons Ratio (z) = 0.38029 0.38029
#
# Static dielectric constant tensor:
#      x y z
#    x 2.722740 0.000000 0.000000 
#    y 0.000000 2.722740 0.000000 
#    z 0.000000 0.000000 2.769790 
# 
# 
# High freq. dielectric constant tensor:
#      x y z
#    x 1.519720 0.000000 0.000000 
#    y 0.000000 1.519720 0.000000 
#    z 0.000000 0.000000 1.526820 
# 
# From -- ./inp_files/5119.got.cif
#   From: 2010.03.12/outbox.cif.g09.slc.cpg/sg164_3_cif.got.tgz:5119.got - 2010.04.02 06:32:59.
