data_PCOD8323921
_publ_section_title
;
Structure prediction by ZEFSAII (Michael W. Deem and Ramdas Pophale) SiO2 
 PCOD8323921
Probable space group: P -3 C 1
;
_chemical_formula_sum "Si O2"
_cell_formula_units_Z 60
_cell_length_a 15.565984
_cell_length_b 15.565984
_cell_length_c 15.232588
_cell_angle_alpha 90.000000
_cell_angle_beta 90.000000
_cell_angle_gamma 120.000000
_cell_volume 3196.373246
_symmetry_space_group_name_H-M "P -3 C 1"
_symmetry_group_IT_number 165
_symmetry_cell_setting 'hexagonal'
loop_
_space_group_symop_operation_xyz
x,y,z
-y,x-y,z
-x+y,-x,z
x-y,-y,1/2-z
-x,-x+y,1/2-z
y,x,1/2-z
-x,-y,-z
y,-x+y,-z
x-y,x,-z
-x+y,y,1/2+z
x,x-y,1/2+z
-y,-x,1/2+z
loop_
_atom_site_type_symbol
_atom_site_label
_atom_site_fract_x
_atom_site_fract_y
_atom_site_fract_z
Si Si1 0.737236 0.121340 0.054870
Si Si2 0.568518 0.112375 0.523436
Si Si3 0.597511 0.113465 0.721309
Si Si4 0.378353 0.110706 0.930986
Si Si5 0.742607 0.182161 0.247209
O O1 0.770096 0.149537 0.156046
O O2 0.685151 0.003888 0.043590
O O3 0.663264 0.162655 0.025202
O O4 0.831561 0.169578 0.990689
O O5 0.618231 0.123186 0.617947
O O6 0.658583 0.154967 0.453370
O O7 0.500000 0.000000 0.500000
O O8 0.524022 0.152491 0.747635
O O9 0.702030 0.184445 0.767515
O O10 0.553080 0.000000 0.750000
O O11 0.365979 0.124529 0.827991
#
# Coordination Sequence:
#
# PCOD8323921 Si02
#       5
#    12  12  12  12  12
#     4  10  22  40  57  86 114 155 200 251 303 356
#     4   9  19  36  56  79 115 152 194 246 296 350
#     4  11  22  38  58  85 124 161 209 258 307 367
#     4  11  22  37  61  81 119 156 200 250 300 361
#     4  11  23  37  57  87 123 161 203 255 312 362
#
# _framework density 18.771274999999999
#
# number of rings (size 3 to 8) (size 9 to 14) (size 15 to 20)
#    0.000    1.600    2.000    4.600    8.400    0.000 
#    1.200    0.000    0.000    0.400    0.000    0.000 
#    0.000    0.000    0.000    0.000    0.000    0.000 
#
# Total GULP energy -743749.751377 kJ/mol
# GULP energy per Si atom -12395.829190 kJ/mol
# Density = 1.872855 g / cm^3
# Si number density = 18.771275 Si / 1000 Ang^3
#
#
#
# Elastic Constant Matrix: (Units=GPa)
#
#
# Indices 1 2 3 4 5 6 
#
# 1 52.0046 60.6391 38.8666 -2.9299 0.0000 0.0000
# 2 60.6391 52.0046 38.8666 2.9299 0.0000 0.0000
# 3 38.8666 38.8666 117.9572 0.0000 0.0000 0.0000
# 4 -2.9299 2.9299 0.0000 27.7298 0.0000 0.0000
# 5 0.0000 0.0000 0.0000 0.0000 27.7298 -2.9299
# 6 0.0000 0.0000 0.0000 0.0000 -2.9299 -4.3172
#
#
#
# Elastic Compliance Matrix: (Units=1/GPa)
#
#
# Indices 1 2 3 4 5 6 
#
# 1 -0.048288 0.059778 -0.003786 -0.011418 0.000000 0.000000
# 2 0.059778 -0.048288 -0.003786 0.011418 0.000000 0.000000
# 3 -0.003786 -0.003786 0.010973 0.000000 0.000000 0.000000
# 4 -0.011418 0.011418 0.000000 0.033649 0.000000 0.000000
# 5 0.000000 0.000000 0.000000 0.000000 0.033649 -0.022836
# 6 0.000000 0.000000 0.000000 0.000000 -0.022836 -0.216132
#
#
# Mechanical properties :
#
#
# Convention : Reuss Voigt Hill
#
# Bulk Modulus (GPa) = 53.16598 55.41233 54.28916
# Shear Modulus (GPa) = -15.03400 15.80143 0.38371
#
# Velocity S-wave (km/s) = -2.83310 2.90451 0.45261
# Velocity P-wave (km/s) = 4.20507 6.38999 5.40900
#
# Compressibility (1/GPa) = 0.01880902
#
# Stress axis : x y z
#
# Youngs Moduli (GPa) = -20.70910 -20.70910 91.13605
#
# Poissons Ratio (x) = 1.23795 0.34504
# Poissons Ratio (y) = 1.23795 0.34504
# Poissons Ratio (z) = -0.07840 -0.07840
#
# Static dielectric constant tensor:
#      x y z
#    x 3.422030 0.000000 0.000000 
#    y 0.000000 3.422030 0.000000 
#    z 0.000000 0.000000 3.677370 
# 
# 
# High freq. dielectric constant tensor:
#      x y z
#    x 1.707300 0.000000 0.000000 
#    y 0.000000 1.707300 0.000000 
#    z 0.000000 0.000000 1.747880 
# 
# From -- ./inp_files/1670.got.cif
#   From: 2010.03.12/outbox.cif.g09.slc.cpg/sg165_1_cif.got.tgz:1670.got - 2010.04.02 06:36:38.
