data_PCOD8323131
_publ_section_title
;
Structure prediction by ZEFSAII (Michael W. Deem and Ramdas Pophale) SiO2 
 PCOD8323131
Probable space group: P -3 1 M 
;
_chemical_formula_sum "Si O2"
_cell_formula_units_Z 84
_cell_length_a 18.287164
_cell_length_b 18.287164
_cell_length_c 14.039006
_cell_angle_alpha 90.000000
_cell_angle_beta 90.000000
_cell_angle_gamma 120.000000
_cell_volume 4065.928252
_symmetry_space_group_name_H-M "P -3 1 M "
_symmetry_group_IT_number 162
_symmetry_cell_setting 'hexagonal'
loop_
_space_group_symop_operation_xyz
x,y,z
-y,x-y,z
-x+y,-x,z
-y,-x,-z
-x+y,y,-z
x,x-y,-z
-x,-y,-z
y,-x+y,-z
x-y,x,-z
y,x,z
x-y,-y,z
-x,-x+y,z
loop_
_atom_site_type_symbol
_atom_site_label
_atom_site_fract_x
_atom_site_fract_y
_atom_site_fract_z
Si Si1 0.175175 0.509920 0.537668
Si Si2 0.203976 0.825134 0.890475
Si Si3 0.503040 0.904108 0.084514
Si Si4 0.668679 0.905216 0.548791
Si Si5 0.697143 0.097493 0.740674
Si Si6 0.904154 0.462784 0.295200
Si Si7 0.905941 0.095422 0.886741
O O1 0.270173 0.540345 0.500000
O O2 0.142621 0.571311 0.500000
O O3 0.112983 0.415600 0.506166
O O4 0.162666 0.515492 0.652797
O O5 0.303425 0.862984 0.887396
O O6 0.158048 0.737193 0.832050
O O7 0.163605 0.880167 0.848799
O O8 0.183959 0.816042 0.000000
O O9 0.454620 0.895675 0.181387
O O10 0.567473 0.000000 0.053712
O O11 0.431364 0.862727 0.000000
O O12 0.707584 0.853792 0.500000
O O13 0.651942 0.883541 0.661091
O O14 0.738561 0.000000 0.532761
O O15 0.632149 0.116361 0.681314
O O16 0.650129 0.000000 0.775463
O O17 0.000000 0.532742 0.324634
O O18 0.000000 0.125420 0.848401
O O19 0.841301 0.000000 0.848756
O O20 0.905937 0.094064 0.000000
#
# Coordination Sequence:
#
# PCOD8323131 Si02
#       7
#    12  12  12  12  12  12  12
#     4  11  22  36  57  89 127 162 202 251 319 389
#     4  11  22  35  57  84 116 155 208 261 313 368
#     4  10  22  39  58  83 116 158 212 264 309 369
#     4  10  22  39  63  92 125 163 206 261 319 385
#     4  10  21  39  62  88 120 162 207 259 318 385
#     4  10  21  37  60  84 114 159 208 256 319 385
#     4   9  17  30  50  79 114 152 191 242 310 379
#
# _framework density 20.659490000000002
#
# number of rings (size 3 to 8) (size 9 to 14) (size 15 to 20)
#    0.000    1.857    1.429    2.429    4.000    4.000 
#    0.000    0.714    0.000    5.286    0.000    0.000 
#    0.000    0.000    0.000    0.000    0.000    0.000 
#
# Total GULP energy -1040638.178526 kJ/mol
# GULP energy per Si atom -12388.549744 kJ/mol
# Density = 2.061247 g / cm^3
# Si number density = 20.659490 Si / 1000 Ang^3
#
#
#
# Elastic Constant Matrix: (Units=GPa)
#
#
# Indices 1 2 3 4 5 6 
#
# 1 110.9549 46.2653 40.2894 -0.0001 -4.0502 0.0000
# 2 46.2653 110.9549 40.2894 0.0001 4.0502 0.0000
# 3 40.2894 40.2894 97.5597 0.0000 0.0000 0.0000
# 4 -0.0001 0.0001 0.0000 32.1165 0.0000 4.0502
# 5 -4.0502 4.0502 0.0000 0.0000 32.1165 -0.0001
# 6 0.0000 0.0000 0.0000 4.0502 -0.0001 32.3448
#
#
#
# Elastic Compliance Matrix: (Units=1/GPa)
#
#
# Indices 1 2 3 4 5 6 
#
# 1 0.011887 -0.003819 -0.003332 0.000000 0.001981 0.000000
# 2 -0.003819 0.011887 -0.003332 0.000000 -0.001981 0.000000
# 3 -0.003332 -0.003332 0.013002 0.000000 0.000000 0.000000
# 4 0.000000 0.000000 0.000000 0.031636 0.000000 -0.003961
# 5 0.001981 -0.001981 0.000000 0.000000 0.031636 0.000000
# 6 0.000000 0.000000 0.000000 -0.003961 0.000000 0.031413
#
#
# Mechanical properties :
#
#
# Convention : Reuss Voigt Hill
#
# Bulk Modulus (GPa) = 63.24804 63.68421 63.46612
# Shear Modulus (GPa) = 31.70608 32.15725 31.93166
#
# Velocity S-wave (km/s) = 3.92177 3.94958 3.93570
# Velocity P-wave (km/s) = 7.15458 7.18968 7.17215
#
# Compressibility (1/GPa) = 0.01581077
#
# Stress axis : x y z
#
# Youngs Moduli (GPa) = 84.12315 84.12315 76.91052
#
# Poissons Ratio (x) = 0.32128 0.25626
# Poissons Ratio (y) = 0.32128 0.25626
# Poissons Ratio (z) = 0.28029 0.28029
#
# Static dielectric constant tensor:
#      x y z
#    x 3.709040 0.000000 0.000000 
#    y 0.000000 3.709040 0.000000 
#    z 0.000000 0.000000 3.619500 
# 
# 
# High freq. dielectric constant tensor:
#      x y z
#    x 1.797710 0.000000 0.000000 
#    y 0.000000 1.797710 0.000000 
#    z 0.000000 0.000000 1.802490 
# 
# From -- ./inp_files/3178.got.cif
#   From: 2010.03.12/outbox.cif.g09.slc.cpg/sg162_2_cif.got.tgz:3178.got - 2010.04.02 06:27:41.
