data_PCOD8323014
_publ_section_title
;
Structure prediction by ZEFSAII (Michael W. Deem and Ramdas Pophale) SiO2 
 PCOD8323014
Probable space group: P -3 1 M 
;
_chemical_formula_sum "Si O2"
_cell_formula_units_Z 72
_cell_length_a 22.851883
_cell_length_b 22.851883
_cell_length_c 9.305550
_cell_angle_alpha 90.000000
_cell_angle_beta 90.000000
_cell_angle_gamma 120.000000
_cell_volume 4208.396613
_symmetry_space_group_name_H-M "P -3 1 M "
_symmetry_group_IT_number 162
_symmetry_cell_setting 'hexagonal'
loop_
_space_group_symop_operation_xyz
x,y,z
-y,x-y,z
-x+y,-x,z
-y,-x,-z
-x+y,y,-z
x,x-y,-z
-x,-y,-z
y,-x+y,-z
x-y,x,-z
y,x,z
x-y,-y,z
-x,-x+y,z
loop_
_atom_site_type_symbol
_atom_site_label
_atom_site_fract_x
_atom_site_fract_y
_atom_site_fract_z
Si Si1 0.820468 0.641386 0.169639
Si Si2 0.736067 0.486762 0.168963
Si Si3 0.815564 0.401255 0.830933
Si Si4 0.807822 0.079561 0.589856
Si Si5 0.290921 0.367625 0.359917
Si Si6 0.499649 0.578921 0.628973
O O1 0.761447 0.565058 0.206600
O O2 0.810684 0.698388 0.253546
O O3 0.888393 0.644558 0.223306
O O4 0.828845 0.657689 0.000000
O O5 0.661172 0.441679 0.232312
O O6 0.778997 0.454105 0.231690
O O7 0.739711 0.479421 0.000000
O O8 0.891977 0.434281 0.775520
O O9 0.817222 0.408611 0.000000
O O10 0.878841 0.121159 0.500000
O O11 0.751615 0.087467 0.503679
O O12 0.786321 0.000000 0.605786
O O13 0.332250 0.332250 0.311393
O O14 0.341994 0.446046 0.393055
O O15 0.446020 0.553981 0.500000
O O16 0.534470 0.534470 0.640196
#
# Coordination Sequence:
#
# PCOD8323014 Si02
#       6
#    12  12  12  12  12  12
#     4  10  19  32  52  79 107 132 168 216 262 306
#     4   9  18  31  48  70  93 126 169 216 268 314
#     4  10  19  34  53  68  93 128 168 213 261 315
#     4   9  19  35  57  82 109 144 178 206 245 299
#     4   9  18  35  53  71 100 138 172 209 258 310
#     4  10  21  35  49  69  96 127 166 212 263 310
#
# _framework density 17.108654999999999
#
# number of rings (size 3 to 8) (size 9 to 14) (size 15 to 20)
#    0.000    2.500    1.667    0.333    2.333    2.333 
#    0.000    0.833    0.000    0.167    0.000    0.000 
#    0.000    0.667    0.000    0.000    0.000    0.000 
#
# Total GULP energy -892181.513923 kJ/mol
# GULP energy per Si atom -12391.409916 kJ/mol
# Density = 1.706971 g / cm^3
# Si number density = 17.108655 Si / 1000 Ang^3
#
#
#
# Elastic Constant Matrix: (Units=GPa)
#
#
# Indices 1 2 3 4 5 6 
#
# 1 91.2627 47.5128 46.5902 -0.0003 -2.7616 0.0000
# 2 47.5128 91.2627 46.5902 0.0003 2.7616 0.0000
# 3 46.5902 46.5902 76.4033 0.0000 0.0000 0.0000
# 4 -0.0003 0.0003 0.0000 19.1521 0.0000 2.7616
# 5 -2.7616 2.7616 0.0000 0.0000 19.1521 -0.0003
# 6 0.0000 0.0000 0.0000 2.7616 -0.0003 21.8749
#
#
#
# Elastic Compliance Matrix: (Units=1/GPa)
#
#
# Indices 1 2 3 4 5 6 
#
# 1 0.017741 -0.005540 -0.007441 0.000000 0.003357 0.000000
# 2 -0.005540 0.017741 -0.007441 0.000000 -0.003357 0.000000
# 3 -0.007441 -0.007441 0.022163 0.000000 0.000000 0.000000
# 4 0.000000 0.000000 0.000000 0.053182 0.000000 -0.006714
# 5 0.003357 -0.003357 0.000000 0.000000 0.053182 0.000001
# 6 0.000000 0.000000 0.000000 -0.006714 0.000001 0.046562
#
#
# Mechanical properties :
#
#
# Convention : Reuss Voigt Hill
#
# Bulk Modulus (GPa) = 59.50901 60.03504 59.77202
# Shear Modulus (GPa) = 19.45418 19.91819 19.68619
#
# Velocity S-wave (km/s) = 3.37574 3.41576 3.39581
# Velocity P-wave (km/s) = 7.07479 7.12202 7.09845
#
# Compressibility (1/GPa) = 0.01680418
#
# Stress axis : x y z
#
# Youngs Moduli (GPa) = 56.36523 56.36523 45.12037
#
# Poissons Ratio (x) = 0.31224 0.33572
# Poissons Ratio (y) = 0.31224 0.33572
# Poissons Ratio (z) = 0.41939 0.41939
#
# Static dielectric constant tensor:
#      x y z
#    x 3.309200 0.000000 0.000000 
#    y 0.000000 3.309200 0.000000 
#    z 0.000000 0.000000 3.015150 
# 
# 
# High freq. dielectric constant tensor:
#      x y z
#    x 1.656990 0.000000 0.000000 
#    y 0.000000 1.656990 0.000000 
#    z 0.000000 0.000000 1.643960 
# 
# From -- ./inp_files/1695.got.cif
#   From: 2010.03.12/outbox.cif.g09.slc.cpg/sg162_1_cif.got.tgz:1695.got - 2010.04.02 06:27:41.
