data_PCOD8323733
_publ_section_title
;
Structure prediction by ZEFSAII (Michael W. Deem and Ramdas Pophale) SiO2 
 PCOD8323733
Probable space group: P -3 M 1
;
_chemical_formula_sum "Si O2"
_cell_formula_units_Z 66
_cell_length_a 12.555896
_cell_length_b 12.555896
_cell_length_c 28.137630
_cell_angle_alpha 90.000000
_cell_angle_beta 90.000000
_cell_angle_gamma 120.000000
_cell_volume 3841.612588
_symmetry_space_group_name_H-M "P -3 M 1"
_symmetry_group_IT_number 164
_symmetry_cell_setting 'hexagonal'
loop_
_space_group_symop_operation_xyz
x,y,z
-y,x-y,z
-x+y,-x,z
x-y,-y,-z
-x,-x+y,-z
y,x,-z
-x,-y,-z
y,-x+y,-z
x-y,x,-z
-x+y,y,z
x,x-y,z
-y,-x,z
loop_
_atom_site_type_symbol
_atom_site_label
_atom_site_fract_x
_atom_site_fract_y
_atom_site_fract_z
Si Si1 0.419279 0.332072 0.460027
Si Si2 0.749969 0.751701 0.178964
Si Si3 0.000000 0.751080 0.000000
Si Si4 0.913932 0.580980 0.732177
Si Si5 0.668390 0.085095 0.909704
Si Si6 0.579555 0.912789 0.646366
O O1 0.322651 0.322651 0.500000
O O2 0.444692 0.222346 0.468086
O O3 0.546748 0.453253 0.468638
O O4 0.368750 0.328420 0.406779
O O5 0.870494 0.740988 0.175451
O O6 0.683290 0.694695 0.228481
O O7 0.658128 0.672915 0.137016
O O8 0.788334 0.894167 0.174425
O O9 0.018373 0.685556 0.045178
O O10 0.884098 0.768196 0.009559
O O11 0.772622 0.545244 0.730114
O O12 0.918966 0.459483 0.745184
O O13 0.975593 0.636668 0.681563
O O14 0.537359 0.074717 0.912951
O O15 0.772040 0.227961 0.907678
O O16 0.436321 0.872641 0.649417
O O17 0.591258 0.795629 0.660852
#
# Coordination Sequence:
#
# PCOD8323733 Si02
#       6
#    12  12   6  12  12  12
#     4   9  17  29  46  68  93 122 156 194 236 281
#     4  10  20  34  53  75  99 128 163 204 245 285
#     4  10  20  34  54  78 104 134 168 208 250 292
#     4  10  20  33  50  72  99 129 159 193 235 285
#     4  10  20  34  53  76 103 135 169 204 243 290
#     4   9  17  30  48  69  93 122 157 196 237 281
#
# _framework density 17.180284
#
# number of rings (size 3 to 8) (size 9 to 14) (size 15 to 20)
#    0.000    2.364    0.000    2.909    0.000    2.182 
#    0.000    3.636    0.000   11.455    0.000    0.000 
#    0.000    0.000    0.000    0.000    0.000    0.000 
#
# Total GULP energy -818461.066012 kJ/mol
# GULP energy per Si atom -12400.925243 kJ/mol
# Density = 1.714118 g / cm^3
# Si number density = 17.180284 Si / 1000 Ang^3
#
#
#
# Elastic Constant Matrix: (Units=GPa)
#
#
# Indices 1 2 3 4 5 6 
#
# 1 98.7167 52.7204 50.3307 2.4427 0.0000 0.0000
# 2 52.7204 98.7167 50.3307 -2.4427 0.0000 0.0000
# 3 50.3307 50.3307 110.9658 0.0000 0.0000 0.0000
# 4 2.4427 -2.4427 0.0000 24.9842 0.0000 0.0000
# 5 0.0000 0.0000 0.0000 0.0000 24.9842 2.4427
# 6 0.0000 0.0000 0.0000 0.0000 2.4427 22.9982
#
#
#
# Elastic Compliance Matrix: (Units=1/GPa)
#
#
# Indices 1 2 3 4 5 6 
#
# 1 0.015711 -0.006258 -0.004288 -0.002148 0.000000 0.000000
# 2 -0.006258 0.015711 -0.004288 0.002148 0.000000 0.000000
# 3 -0.004288 -0.004288 0.012901 0.000000 0.000000 0.000000
# 4 -0.002148 0.002148 0.000000 0.040445 0.000000 0.000000
# 5 0.000000 0.000000 0.000000 0.000000 0.040445 -0.004296
# 6 0.000000 0.000000 0.000000 0.000000 -0.004296 0.043938
#
#
# Mechanical properties :
#
#
# Convention : Reuss Voigt Hill
#
# Bulk Modulus (GPa) = 68.22589 68.35145 68.28867
# Shear Modulus (GPa) = 24.54528 24.92781 24.73654
#
# Velocity S-wave (km/s) = 3.78390 3.81327 3.79861
# Velocity P-wave (km/s) = 7.67388 7.69800 7.68595
#
# Compressibility (1/GPa) = 0.01465719
#
# Stress axis : x y z
#
# Youngs Moduli (GPa) = 63.64853 63.64853 77.51060
#
# Poissons Ratio (x) = 0.39829 0.33235
# Poissons Ratio (y) = 0.39829 0.33235
# Poissons Ratio (z) = 0.27292 0.27292
#
# Static dielectric constant tensor:
#      x y z
#    x 3.111570 0.000000 0.000000 
#    y 0.000000 3.111570 0.000000 
#    z 0.000000 0.000000 3.509150 
# 
# 
# High freq. dielectric constant tensor:
#      x y z
#    x 1.657950 0.000000 0.000000 
#    y 0.000000 1.657950 0.000000 
#    z 0.000000 0.000000 1.681630 
# 
# From -- ./inp_files/5487.got.cif
#   From: 2010.03.12/outbox.cif.g09.slc.cpg/sg164_3_cif.got.tgz:5487.got - 2010.04.02 06:32:59.
