data_PCOD8323192
_publ_section_title
;
Structure prediction by ZEFSAII (Michael W. Deem and Ramdas Pophale) SiO2 
 PCOD8323192
Probable space group: P -3 1 C
;
_chemical_formula_sum "Si O2"
_cell_formula_units_Z 96
_cell_length_a 19.826533
_cell_length_b 19.826533
_cell_length_c 18.263160
_cell_angle_alpha 90.000000
_cell_angle_beta 90.000000
_cell_angle_gamma 120.000000
_cell_volume 6217.275468
_symmetry_space_group_name_H-M "P -3 1 C"
_symmetry_group_IT_number 163
_symmetry_cell_setting 'hexagonal'
loop_
_space_group_symop_operation_xyz
x,y,z
-y,x-y,z
-x+y,-x,z
-y,-x,1/2-z
-x+y,y,1/2-z
x,x-y,1/2-z
-x,-y,-z
y,-x+y,-z
x-y,x,-z
y,x,1/2+z
x-y,-y,1/2+z
-x,-x+y,1/2+z
loop_
_atom_site_type_symbol
_atom_site_label
_atom_site_fract_x
_atom_site_fract_y
_atom_site_fract_z
Si Si1 0.571817 0.861831 0.908003
Si Si2 0.709986 0.138169 0.091997
Si Si3 0.309107 0.231524 0.963368
Si Si4 0.021553 0.368911 0.333045
Si Si5 0.922417 0.690893 0.536632
Si Si6 0.978447 0.347358 0.666955
Si Si7 0.474889 0.525111 0.393122
Si Si8 0.560628 0.439372 0.458230
O O1 0.577763 0.788882 0.877680
O O2 0.606049 0.928780 0.846992
O O3 0.482217 0.834376 0.926224
O O4 0.616861 0.893773 0.984231
O O5 0.677268 0.071220 0.153008
O O6 0.647841 0.165624 0.073776
O O7 0.723089 0.106227 0.015769
O O8 0.281244 0.140622 0.955685
O O9 0.333989 0.271505 0.884238
O O10 0.238320 0.238320 0.000000
O O11 0.036936 0.354366 0.250000
O O12 0.062484 0.333989 0.384238
O O13 0.057773 0.461433 0.344605
O O14 0.942227 0.403660 0.655395
O O15 0.516254 0.483746 0.432351
O O16 0.440310 0.559690 0.453316
#
# Coordination Sequence:
#
# PCOD8323192 Si02
#       8
#    12  12  12  12  12  12  12  12
#     4   9  17  29  44  62  86 117 152 188 222 257
#     4   9  17  29  44  62  86 117 152 188 222 257
#     4   9  17  30  47  66  89 116 146 182 225 271
#     4  10  18  27  43  66  90 116 145 182 228 272
#     4   9  17  30  47  66  89 116 146 182 225 271
#     4  10  18  27  43  66  90 116 145 182 228 272
#     4   9  15  26  42  64  86 112 148 182 220 266
#     4   9  14  26  46  60  82 114 150 190 218 250
#
# _framework density 15.440848000000001
#
# number of rings (size 3 to 8) (size 9 to 14) (size 15 to 20)
#    0.000    2.750    2.500    0.375    0.000    1.000 
#    0.750    0.000    0.000    0.250    0.000    0.000 
#    0.000    0.000    0.750    0.750    0.000    0.000 
#
# Total GULP energy -1190116.090253 kJ/mol
# GULP energy per Si atom -12397.042607 kJ/mol
# Density = 1.540570 g / cm^3
# Si number density = 15.440848 Si / 1000 Ang^3
#
#
#
# Elastic Constant Matrix: (Units=GPa)
#
#
# Indices 1 2 3 4 5 6 
#
# 1 75.4357 41.1374 27.6627 0.0000 0.0000 0.0000
# 2 41.1374 75.4357 27.6627 0.0000 0.0000 0.0000
# 3 27.6627 27.6627 96.3711 0.0000 0.0000 0.0000
# 4 0.0000 0.0000 0.0000 12.9929 0.0000 0.0000
# 5 0.0000 0.0000 0.0000 0.0000 12.9929 0.0000
# 6 0.0000 0.0000 0.0000 0.0000 0.0000 17.1492
#
#
#
# Elastic Compliance Matrix: (Units=1/GPa)
#
#
# Indices 1 2 3 4 5 6 
#
# 1 0.019544 -0.009612 -0.002851 0.000000 0.000000 0.000000
# 2 -0.009612 0.019544 -0.002851 0.000000 0.000000 0.000000
# 3 -0.002851 -0.002851 0.012013 0.000000 0.000000 0.000000
# 4 0.000000 0.000000 0.000000 0.076965 0.000000 0.000000
# 5 0.000000 0.000000 0.000000 0.000000 0.076965 0.000000
# 6 0.000000 0.000000 0.000000 0.000000 0.000000 0.058312
#
#
# Mechanical properties :
#
#
# Convention : Reuss Voigt Hill
#
# Bulk Modulus (GPa) = 48.84532 48.90759 48.87645
# Shear Modulus (GPa) = 16.62267 18.67898 17.65083
#
# Velocity S-wave (km/s) = 3.28462 3.48186 3.38468
# Velocity P-wave (km/s) = 6.78878 6.92152 6.85547
#
# Compressibility (1/GPa) = 0.02047279
#
# Stress axis : x y z
#
# Youngs Moduli (GPa) = 51.16768 51.16768 83.24240
#
# Poissons Ratio (x) = 0.49184 0.23730
# Poissons Ratio (y) = 0.49184 0.23730
# Poissons Ratio (z) = 0.14586 0.14586
#
# Static dielectric constant tensor:
#      x y z
#    x 2.871000 0.000000 0.000000 
#    y 0.000000 2.871000 0.000000 
#    z 0.000000 0.000000 2.781360 
# 
# 
# High freq. dielectric constant tensor:
#      x y z
#    x 1.571790 0.000000 0.000000 
#    y 0.000000 1.571790 0.000000 
#    z 0.000000 0.000000 1.584110 
# 
# From -- ./inp_files/3318.got.cif
#   From: 2010.03.12/outbox.cif.g09.slc.cpg/sg163_2_cif.got.tgz:3318.got - 2010.04.02 06:30:25.
