data_PCOD8323698
_publ_section_title
;
Structure prediction by ZEFSAII (Michael W. Deem and Ramdas Pophale) SiO2 
 PCOD8323698
Probable space group: P -3 M 1
;
_chemical_formula_sum "Si O2"
_cell_formula_units_Z 66
_cell_length_a 12.483704
_cell_length_b 12.483704
_cell_length_c 28.019440
_cell_angle_alpha 90.000000
_cell_angle_beta 90.000000
_cell_angle_gamma 120.000000
_cell_volume 3781.612354
_symmetry_space_group_name_H-M "P -3 M 1"
_symmetry_group_IT_number 164
_symmetry_cell_setting 'hexagonal'
loop_
_space_group_symop_operation_xyz
x,y,z
-y,x-y,z
-x+y,-x,z
x-y,-y,-z
-x,-x+y,-z
y,x,-z
-x,-y,-z
y,-x+y,-z
x-y,x,-z
-x+y,y,z
x,x-y,z
-y,-x,z
loop_
_atom_site_type_symbol
_atom_site_label
_atom_site_fract_x
_atom_site_fract_y
_atom_site_fract_z
Si Si1 0.666598 0.084395 0.770924
Si Si2 0.749157 0.750789 0.319194
Si Si3 0.754311 0.754448 0.946105
Si Si4 0.333672 0.419029 0.860051
Si Si5 0.667997 0.584543 0.591009
Si Si6 0.000000 0.749334 0.500000
O O1 0.541457 0.082914 0.757397
O O2 0.774520 0.225481 0.774470
O O3 0.693990 0.010687 0.730717
O O4 0.656746 0.018765 0.820993
O O5 0.869879 0.739757 0.323008
O O6 0.657199 0.671877 0.361410
O O7 0.788025 0.894013 0.323719
O O8 0.798338 0.899169 0.941345
O O9 0.640577 0.671936 0.911426
O O10 0.868509 0.737018 0.931484
O O11 0.708926 0.708926 0.000000
O O12 0.205834 0.411667 0.846421
O O13 0.438650 0.561351 0.861930
O O14 0.773687 0.547374 0.591806
O O15 0.537825 0.462176 0.587870
O O16 0.681451 0.668496 0.545961
O O17 0.883226 0.766452 0.492287
#
# Coordination Sequence:
#
# PCOD8323698 Si02
#       6
#    12  12  12  12  12   6
#     4  10  20  34  53  75  99 127 160 200 244 290
#     4  10  20  34  53  76 102 131 163 201 244 290
#     4   9  17  30  49  72  96 122 155 198 247 294
#     4  10  20  33  49  69  96 130 165 199 236 283
#     4  10  20  34  53  76 103 135 170 208 249 294
#     4  10  20  34  54  78 104 134 168 208 252 298
#
# _framework density 17.452873
#
# number of rings (size 3 to 8) (size 9 to 14) (size 15 to 20)
#    0.000    2.182    0.000    3.455    0.000    1.091 
#    0.000    3.636    0.000   14.909    0.000    0.000 
#    0.000    0.000    0.000    0.000    0.000    0.000 
#
# Total GULP energy -818640.784615 kJ/mol
# GULP energy per Si atom -12403.648252 kJ/mol
# Density = 1.741315 g / cm^3
# Si number density = 17.452873 Si / 1000 Ang^3
#
#
#
# Elastic Constant Matrix: (Units=GPa)
#
#
# Indices 1 2 3 4 5 6 
#
# 1 95.0105 52.5925 46.0809 -3.3256 0.0000 0.0000
# 2 52.5925 95.0105 46.0809 3.3256 0.0000 0.0000
# 3 46.0809 46.0809 105.4902 0.0000 0.0000 0.0000
# 4 -3.3256 3.3256 0.0000 23.7731 0.0000 0.0000
# 5 0.0000 0.0000 0.0000 0.0000 23.7731 -3.3256
# 6 0.0000 0.0000 0.0000 0.0000 -3.3256 21.2090
#
#
#
# Elastic Compliance Matrix: (Units=1/GPa)
#
#
# Indices 1 2 3 4 5 6 
#
# 1 0.016710 -0.007394 -0.004069 0.003372 0.000000 0.000000
# 2 -0.007394 0.016710 -0.004069 -0.003372 0.000000 0.000000
# 3 -0.004069 -0.004069 0.013035 0.000000 0.000000 0.000000
# 4 0.003372 -0.003372 0.000000 0.043008 0.000000 0.000000
# 5 0.000000 0.000000 0.000000 0.000000 0.043008 0.006744
# 6 0.000000 0.000000 0.000000 0.000000 0.006744 0.048207
#
#
# Mechanical properties :
#
#
# Convention : Reuss Voigt Hill
#
# Bulk Modulus (GPa) = 64.98214 65.00222 64.99218
# Shear Modulus (GPa) = 23.05509 23.80151 23.42830
#
# Velocity S-wave (km/s) = 3.63849 3.69692 3.66782
# Velocity P-wave (km/s) = 7.41385 7.45307 7.43348
#
# Compressibility (1/GPa) = 0.01538884
#
# Stress axis : x y z
#
# Youngs Moduli (GPa) = 59.84539 59.84539 76.71771
#
# Poissons Ratio (x) = 0.44249 0.31220
# Poissons Ratio (y) = 0.44249 0.31220
# Poissons Ratio (z) = 0.24353 0.24353
#
# Static dielectric constant tensor:
#      x y z
#    x 3.182820 0.000000 0.000000 
#    y 0.000000 3.182820 0.000000 
#    z 0.000000 0.000000 3.432960 
# 
# 
# High freq. dielectric constant tensor:
#      x y z
#    x 1.675150 0.000000 0.000000 
#    y 0.000000 1.675150 0.000000 
#    z 0.000000 0.000000 1.690460 
# 
# From -- ./inp_files/5460.got.cif
#   From: 2010.03.12/outbox.cif.g09.slc.cpg/sg164_3_cif.got.tgz:5460.got - 2010.04.02 06:32:59.
