data_PCOD8323354
_publ_section_title
;
Structure prediction by ZEFSAII (Michael W. Deem and Ramdas Pophale) SiO2 
 PCOD8323354
Probable space group: P -3 1 C
;
_chemical_formula_sum "Si O2"
_cell_formula_units_Z 72
_cell_length_a 17.061709
_cell_length_b 17.061709
_cell_length_c 17.501331
_cell_angle_alpha 90.000000
_cell_angle_beta 90.000000
_cell_angle_gamma 120.000000
_cell_volume 4412.114468
_symmetry_space_group_name_H-M "P -3 1 C"
_symmetry_group_IT_number 163
_symmetry_cell_setting 'hexagonal'
loop_
_space_group_symop_operation_xyz
x,y,z
-y,x-y,z
-x+y,-x,z
-y,-x,1/2-z
-x+y,y,1/2-z
x,x-y,1/2-z
-x,-y,-z
y,-x+y,-z
x-y,x,-z
y,x,1/2+z
x-y,-y,1/2+z
-x,-x+y,1/2+z
loop_
_atom_site_type_symbol
_atom_site_label
_atom_site_fract_x
_atom_site_fract_y
_atom_site_fract_z
Si Si1 0.155283 0.487958 0.478247
Si Si2 0.757418 0.063064 0.432724
Si Si3 0.630938 0.905542 0.163614
Si Si4 0.305646 0.063064 0.432724
Si Si5 0.630938 0.905542 0.336386
Si Si6 0.844717 0.512042 0.978247
O O1 0.103515 0.409000 0.539921
O O2 0.117876 0.452000 0.393174
O O3 0.262209 0.524417 0.481147
O O4 0.136806 0.568403 0.499325
O O5 0.858300 0.141700 0.413802
O O6 0.760622 0.000000 0.500000
O O7 0.715694 0.003743 0.356617
O O8 0.599395 0.906879 0.250000
O O9 0.662080 0.831040 0.153070
O O10 0.715694 0.003743 0.143383
O O11 0.409000 0.103515 0.460080
O O12 0.548000 0.882124 0.393174
#
# Coordination Sequence:
#
# PCOD8323354 Si02
#       6
#    12  12  12  12  12  12
#     4   9  17  29  45  65  89 116 145 176 211 251
#     4   9  17  29  46  66  86 112 145 178 214 256
#     4   9  18  31  45  63  88 115 142 175 215 257
#     4   9  17  29  46  66  86 112 145 178 214 256
#     4   9  18  31  45  63  88 115 142 175 215 257
#     4   9  17  29  45  65  89 116 145 176 211 251
#
# _framework density 16.318705999999999
#
# number of rings (size 3 to 8) (size 9 to 14) (size 15 to 20)
#    0.000    3.000    0.000    3.333    0.000    7.333 
#    0.000    0.000    0.000    8.000    0.000    0.000 
#    0.000    2.667    0.000    0.000    0.000    0.000 
#
# Total GULP energy -892606.650074 kJ/mol
# GULP energy per Si atom -12397.314584 kJ/mol
# Density = 1.628156 g / cm^3
# Si number density = 16.318706 Si / 1000 Ang^3
#
#
#
# Elastic Constant Matrix: (Units=GPa)
#
#
# Indices 1 2 3 4 5 6 
#
# 1 76.1487 42.3258 15.2356 0.0000 0.0000 0.0000
# 2 42.3258 76.1487 15.2356 0.0000 0.0000 0.0000
# 3 15.2356 15.2356 51.7722 0.0000 0.0000 0.0000
# 4 0.0000 0.0000 0.0000 16.4757 0.0000 0.0000
# 5 0.0000 0.0000 0.0000 0.0000 16.4757 0.0000
# 6 0.0000 0.0000 0.0000 0.0000 0.0000 16.9115
#
#
#
# Elastic Compliance Matrix: (Units=1/GPa)
#
#
# Indices 1 2 3 4 5 6 
#
# 1 0.019349 -0.010217 -0.002687 0.000000 0.000000 0.000000
# 2 -0.010217 0.019349 -0.002687 0.000000 0.000000 0.000000
# 3 -0.002687 -0.002687 0.020897 0.000000 0.000000 0.000000
# 4 0.000000 0.000000 0.000000 0.060696 0.000000 0.000000
# 5 0.000000 0.000000 0.000000 0.000000 0.060696 0.000000
# 6 0.000000 0.000000 0.000000 0.000000 0.000000 0.059131
#
#
# Mechanical properties :
#
#
# Convention : Reuss Voigt Hill
#
# Bulk Modulus (GPa) = 35.19716 38.85149 37.02433
# Shear Modulus (GPa) = 17.80812 18.72407 18.26610
#
# Velocity S-wave (km/s) = 3.30702 3.39100 3.34928
# Velocity P-wave (km/s) = 6.01642 6.26031 6.13958
#
# Compressibility (1/GPa) = 0.02841138
#
# Stress axis : x y z
#
# Youngs Moduli (GPa) = 51.68286 51.68286 47.85367
#
# Poissons Ratio (x) = 0.52804 0.12860
# Poissons Ratio (y) = 0.52804 0.12860
# Poissons Ratio (z) = 0.13889 0.13889
#
# Static dielectric constant tensor:
#      x y z
#    x 3.033910 0.000000 0.000000 
#    y 0.000000 3.033910 0.000000 
#    z 0.000000 0.000000 3.012810 
# 
# 
# High freq. dielectric constant tensor:
#      x y z
#    x 1.621620 0.000000 0.000000 
#    y 0.000000 1.621620 0.000000 
#    z 0.000000 0.000000 1.610760 
# 
# From -- ./inp_files/3212.got.cif
#   From: 2010.03.12/outbox.cif.g09.slc.cpg/sg163_2_cif.got.tgz:3212.got - 2010.04.02 06:30:25.
