data_PCOD8323583
_publ_section_title
;
Structure prediction by ZEFSAII (Michael W. Deem and Ramdas Pophale) SiO2 
 PCOD8323583
Probable space group: P -3 M 1
;
_chemical_formula_sum "Si O2"
_cell_formula_units_Z 60
_cell_length_a 21.058635
_cell_length_b 21.058635
_cell_length_c 8.819223
_cell_angle_alpha 90.000000
_cell_angle_beta 90.000000
_cell_angle_gamma 120.000000
_cell_volume 3387.048304
_symmetry_space_group_name_H-M "P -3 M 1"
_symmetry_group_IT_number 164
_symmetry_cell_setting 'hexagonal'
loop_
_space_group_symop_operation_xyz
x,y,z
-y,x-y,z
-x+y,-x,z
x-y,-y,-z
-x,-x+y,-z
y,x,-z
-x,-y,-z
y,-x+y,-z
x-y,x,-z
-x+y,y,z
x,x-y,z
-y,-x,z
loop_
_atom_site_type_symbol
_atom_site_label
_atom_site_fract_x
_atom_site_fract_y
_atom_site_fract_z
Si Si1 0.538690 0.461311 0.575641
Si Si2 0.461311 0.922621 0.075643
Si Si3 0.165568 0.331136 0.928685
Si Si4 0.920121 0.323088 0.928577
Si Si5 0.919415 0.838829 0.430491
Si Si6 0.080586 0.161172 0.930492
Si Si7 0.834433 0.668865 0.428685
Si Si8 0.323087 0.920121 0.428577
O O1 0.500000 0.500000 0.500000
O O2 0.529140 0.470861 0.749999
O O3 0.625907 0.508475 0.536627
O O4 0.374094 0.882568 0.036629
O O5 0.500000 0.000000 0.000000
O O6 0.123143 0.246285 0.979024
O O7 0.168566 0.337131 0.750000
O O8 0.127264 0.373556 0.993338
O O9 0.924935 0.311848 0.750000
O O10 0.000000 0.360369 0.000000
O O11 0.876105 0.876105 0.500000
O O12 0.924563 0.849125 0.250000
O O13 0.876858 0.753716 0.479023
O O14 0.123896 0.123896 0.000000
O O15 0.753709 0.626445 0.493338
O O16 0.360369 0.000000 0.500000
#
# Coordination Sequence:
#
# PCOD8323583 Si02
#       8
#     6   6   6  12   6   6   6  12
#     4   8  16  30  50  75 100 127 160 196 241 295
#     4   8  16  30  50  75 100 127 160 196 241 295
#     4  11  23  36  52  78 108 140 178 221 268 318
#     4  10  19  33  53  77 105 136 170 211 258 311
#     4  11  24  40  57  75 101 137 180 227 276 329
#     4  11  24  40  57  75 101 137 180 227 276 329
#     4  11  23  36  52  78 108 140 178 221 268 318
#     4  10  19  33  53  77 105 136 170 211 258 311
#
# _framework density 17.714538999999998
#
# number of rings (size 3 to 8) (size 9 to 14) (size 15 to 20)
#    0.000    2.000    0.000    3.800    0.000    8.000 
#    0.000    0.000    0.000    0.800    0.000    2.800 
#    0.000    0.000    0.000    0.000    0.000    0.000 
#
# Total GULP energy -743322.227179 kJ/mol
# GULP energy per Si atom -12388.703786 kJ/mol
# Density = 1.767422 g / cm^3
# Si number density = 17.714539 Si / 1000 Ang^3
#
#
#
# Elastic Constant Matrix: (Units=GPa)
#
#
# Indices 1 2 3 4 5 6 
#
# 1 150.4771 93.9460 59.0663 0.0002 0.0000 0.0000
# 2 93.9460 150.4771 59.0663 -0.0002 0.0000 0.0000
# 3 59.0663 59.0663 75.7648 0.0000 0.0000 0.0000
# 4 0.0002 -0.0002 0.0000 22.6703 0.0000 0.0000
# 5 0.0000 0.0000 0.0000 0.0000 22.6703 0.0002
# 6 0.0000 0.0000 0.0000 0.0000 0.0002 28.2656
#
#
#
# Elastic Compliance Matrix: (Units=1/GPa)
#
#
# Indices 1 2 3 4 5 6 
#
# 1 0.012127 -0.005562 -0.005118 0.000000 0.000000 0.000000
# 2 -0.005562 0.012127 -0.005118 0.000000 0.000000 0.000000
# 3 -0.005118 -0.005118 0.021179 0.000000 0.000000 0.000000
# 4 0.000000 0.000000 0.000000 0.044111 0.000000 0.000000
# 5 0.000000 0.000000 0.000000 0.000000 0.044111 0.000000
# 6 0.000000 0.000000 0.000000 0.000000 0.000000 0.035379
#
#
# Mechanical properties :
#
#
# Convention : Reuss Voigt Hill
#
# Bulk Modulus (GPa) = 72.27244 88.98623 80.62934
# Shear Modulus (GPa) = 24.36158 25.69727 25.02942
#
# Velocity S-wave (km/s) = 3.71243 3.81285 3.76298
# Velocity P-wave (km/s) = 7.69826 8.35022 8.03086
#
# Compressibility (1/GPa) = 0.01383653
#
# Stress axis : x y z
#
# Youngs Moduli (GPa) = 82.45998 82.45998 47.21735
#
# Poissons Ratio (x) = 0.45866 0.24166
# Poissons Ratio (y) = 0.45866 0.24166
# Poissons Ratio (z) = 0.42203 0.42203
#
# Static dielectric constant tensor:
#      x y z
#    x 3.635280 0.000000 0.000000 
#    y 0.000000 3.635280 0.000000 
#    z 0.000000 0.000000 3.593240 
# 
# 
# High freq. dielectric constant tensor:
#      x y z
#    x 1.682870 0.000000 0.000000 
#    y 0.000000 1.682870 0.000000 
#    z 0.000000 0.000000 1.703800 
# 
# From -- ./inp_files/1663.got.cif
#   From: 2010.03.12/outbox.cif.g09.slc.cpg/sg164_1_cif.got.tgz:1663.got - 2010.04.02 06:32:59.
