data_PCOD8323092
_publ_section_title
;
Structure prediction by ZEFSAII (Michael W. Deem and Ramdas Pophale) SiO2 
 PCOD8323092
Probable space group: P -3 1 M 
;
_chemical_formula_sum "Si O2"
_cell_formula_units_Z 60
_cell_length_a 17.301785
_cell_length_b 17.301785
_cell_length_c 12.075695
_cell_angle_alpha 90.000000
_cell_angle_beta 90.000000
_cell_angle_gamma 120.000000
_cell_volume 3130.578433
_symmetry_space_group_name_H-M "P -3 1 M "
_symmetry_group_IT_number 162
_symmetry_cell_setting 'hexagonal'
loop_
_space_group_symop_operation_xyz
x,y,z
-y,x-y,z
-x+y,-x,z
-y,-x,-z
-x+y,y,-z
x,x-y,-z
-x,-y,-z
y,-x+y,-z
x-y,x,-z
y,x,z
x-y,-y,z
-x,-x+y,z
loop_
_atom_site_type_symbol
_atom_site_label
_atom_site_fract_x
_atom_site_fract_y
_atom_site_fract_z
Si Si1 0.477776 0.160603 0.935990
Si Si2 0.734415 0.630970 0.724632
Si Si3 0.098992 0.598939 0.848536
Si Si4 0.899993 0.273436 0.322579
Si Si5 0.332059 0.840936 0.524515
O O1 0.394626 0.126398 0.853410
O O2 0.560419 0.166483 0.864233
O O3 0.505809 0.252905 0.000000
O O4 0.451298 0.088116 0.033386
O O5 0.705345 0.705345 0.710646
O O6 0.837016 0.670622 0.685734
O O7 0.672743 0.542918 0.650273
O O8 0.138387 0.677992 0.757826
O O9 0.000000 0.520881 0.811578
O O10 0.900122 0.306283 0.446657
O O11 0.000000 0.299383 0.288116
O O12 0.263383 0.736618 0.500000
O O13 0.431717 0.863434 0.500000
#
# Coordination Sequence:
#
# PCOD8323092 Si02
#       5
#    12  12  12  12  12
#     4  11  20  34  51  78 109 142 187 224 269 324
#     4  11  22  37  56  81 110 142 183 230 283 336
#     4  10  20  36  55  75 107 146 183 228 276 323
#     4  10  21  38  58  82 109 143 189 233 280 336
#     4  10  21  36  57  84 116 153 188 225 267 319
#
# _framework density 19.165787999999999
#
# number of rings (size 3 to 8) (size 9 to 14) (size 15 to 20)
#    0.000    1.600    2.000    4.400    0.000    3.200 
#    4.800    0.000    0.000    0.400    0.000    0.000 
#    0.000    5.600    0.000    0.000    0.000    0.000 
#
# Total GULP energy -743691.997005 kJ/mol
# GULP energy per Si atom -12394.866617 kJ/mol
# Density = 1.912217 g / cm^3
# Si number density = 19.165788 Si / 1000 Ang^3
#
#
#
# Elastic Constant Matrix: (Units=GPa)
#
#
# Indices 1 2 3 4 5 6 
#
# 1 97.8182 67.2437 21.5598 0.0000 3.6306 0.0000
# 2 67.2437 97.8182 21.5598 0.0000 -3.6306 0.0000
# 3 21.5598 21.5598 83.1568 0.0000 0.0000 0.0000
# 4 0.0000 0.0000 0.0000 22.2730 0.0000 -3.6306
# 5 3.6306 -3.6306 0.0000 0.0000 22.2730 0.0000
# 6 0.0000 0.0000 0.0000 -3.6306 0.0000 15.2873
#
#
#
# Elastic Compliance Matrix: (Units=1/GPa)
#
#
# Indices 1 2 3 4 5 6 
#
# 1 0.020261 -0.013763 -0.001685 0.000000 -0.005546 0.000000
# 2 -0.013763 0.020261 -0.001685 0.000000 0.005546 0.000000
# 3 -0.001685 -0.001685 0.012899 0.000000 0.000000 0.000000
# 4 0.000000 0.000000 0.000000 0.046706 0.000000 0.011092
# 5 -0.005546 0.005546 0.000000 0.000000 0.046706 0.000000
# 6 0.000000 0.000000 0.000000 0.011092 0.000000 0.068048
#
#
# Mechanical properties :
#
#
# Convention : Reuss Voigt Hill
#
# Bulk Modulus (GPa) = 52.20104 55.50219 53.85162
# Shear Modulus (GPa) = 19.56704 23.19530 21.38117
#
# Velocity S-wave (km/s) = 3.19868 3.48263 3.34367
# Velocity P-wave (km/s) = 6.39826 6.72261 6.56244
#
# Compressibility (1/GPa) = 0.01915671
#
# Stress axis : x y z
#
# Youngs Moduli (GPa) = 49.35515 49.35515 77.52469
#
# Poissons Ratio (x) = 0.67927 0.13062
# Poissons Ratio (y) = 0.67927 0.13062
# Poissons Ratio (z) = 0.08316 0.08316
#
# Static dielectric constant tensor:
#      x y z
#    x 3.300550 0.000000 0.000000 
#    y 0.000000 3.300550 0.000000 
#    z 0.000000 0.000000 3.785770 
# 
# 
# High freq. dielectric constant tensor:
#      x y z
#    x 1.716370 0.000000 0.000000 
#    y 0.000000 1.716370 0.000000 
#    z 0.000000 0.000000 1.769910 
# 
# From -- ./inp_files/2329.got.cif
#   From: 2010.03.12/outbox.cif.g09.slc.cpg/sg162_2_cif.got.tgz:2329.got - 2010.04.02 06:27:41.
