data_PCOD8323696
_publ_section_title
;
Structure prediction by ZEFSAII (Michael W. Deem and Ramdas Pophale) SiO2 
 PCOD8323696
Probable space group: P -3 M 1
;
_chemical_formula_sum "Si O2"
_cell_formula_units_Z 60
_cell_length_a 12.683963
_cell_length_b 12.683963
_cell_length_c 25.258922
_cell_angle_alpha 90.000000
_cell_angle_beta 90.000000
_cell_angle_gamma 120.000000
_cell_volume 3519.292601
_symmetry_space_group_name_H-M "P -3 M 1"
_symmetry_group_IT_number 164
_symmetry_cell_setting 'hexagonal'
loop_
_space_group_symop_operation_xyz
x,y,z
-y,x-y,z
-x+y,-x,z
x-y,-y,-z
-x,-x+y,-z
y,x,-z
-x,-y,-z
y,-x+y,-z
x-y,x,-z
-x+y,y,z
x,x-y,z
-y,-x,z
loop_
_atom_site_type_symbol
_atom_site_label
_atom_site_fract_x
_atom_site_fract_y
_atom_site_fract_z
Si Si1 0.754873 0.999748 0.146253
Si Si2 0.091697 0.666571 0.761244
Si Si3 0.087260 0.421857 0.451522
Si Si4 0.333583 0.909131 0.640939
Si Si5 0.912648 0.333236 0.951066
O O1 0.877066 0.122935 0.131822
O O2 0.698144 0.009052 0.201677
O O3 0.786784 0.893392 0.151310
O O4 0.657661 0.974225 0.100890
O O5 0.074923 0.537462 0.778446
O O6 0.233865 0.766136 0.767039
O O7 0.048122 0.664175 0.701171
O O8 0.205083 0.410166 0.456826
O O9 0.126322 0.563161 0.452886
O O10 0.000000 0.350354 0.500000
O O11 0.021196 0.360134 0.396607
O O12 0.434391 0.868782 0.632631
O O13 0.204461 0.795540 0.625357
O O14 0.892368 0.446184 0.941577
O O15 0.783742 0.216259 0.963499
O O16 0.000000 0.353555 0.000000
#
# Coordination Sequence:
#
# PCOD8323696 Si02
#       5
#    12  12  12  12  12
#     4  10  20  33  49  69  95 128 164 199 234 275
#     4   9  17  30  49  73  98 124 156 195 238 279
#     4  10  20  33  50  71  95 123 155 193 235 279
#     4   9  17  30  50  74  98 124 155 193 235 279
#     4  10  20  34  52  73  97 124 155 193 237 285
#
# _framework density 17.04888
#
# number of rings (size 3 to 8) (size 9 to 14) (size 15 to 20)
#    0.000    2.400    0.000    2.800    0.000    2.400 
#    0.000    2.000    0.000   13.600    0.000    0.000 
#    0.000    0.000    0.000    0.000    0.000    0.000 
#
# Total GULP energy -744166.727438 kJ/mol
# GULP energy per Si atom -12402.778791 kJ/mol
# Density = 1.701008 g / cm^3
# Si number density = 17.048880 Si / 1000 Ang^3
#
#
#
# Elastic Constant Matrix: (Units=GPa)
#
#
# Indices 1 2 3 4 5 6 
#
# 1 112.8579 74.2123 66.0506 -0.8732 0.0000 0.0000
# 2 74.2123 112.8579 66.0506 0.8732 0.0000 0.0000
# 3 66.0506 66.0506 112.3192 0.0000 0.0000 0.0000
# 4 -0.8732 0.8732 0.0000 24.3532 0.0000 0.0000
# 5 0.0000 0.0000 0.0000 0.0000 24.3532 -0.8732
# 6 0.0000 0.0000 0.0000 0.0000 -0.8732 19.3228
#
#
#
# Elastic Compliance Matrix: (Units=1/GPa)
#
#
# Indices 1 2 3 4 5 6 
#
# 1 0.017530 -0.008388 -0.005376 0.000929 0.000000 0.000000
# 2 -0.008388 0.017530 -0.005376 -0.000929 0.000000 0.000000
# 3 -0.005376 -0.005376 0.015226 0.000000 0.000000 0.000000
# 4 0.000929 -0.000929 0.000000 0.041129 0.000000 0.000000
# 5 0.000000 0.000000 0.000000 0.000000 0.041129 0.001859
# 6 0.000000 0.000000 0.000000 0.000000 0.001859 0.051836
#
#
# Mechanical properties :
#
#
# Convention : Reuss Voigt Hill
#
# Bulk Modulus (GPa) = 83.29288 83.40692 83.34990
# Shear Modulus (GPa) = 22.05924 22.38729 22.22327
#
# Velocity S-wave (km/s) = 3.60096 3.62764 3.61432
# Velocity P-wave (km/s) = 8.13945 8.15934 8.14940
#
# Compressibility (1/GPa) = 0.01200583
#
# Stress axis : x y z
#
# Youngs Moduli (GPa) = 57.04501 57.04501 65.67696
#
# Poissons Ratio (x) = 0.47850 0.35308
# Poissons Ratio (y) = 0.47850 0.35308
# Poissons Ratio (z) = 0.30667 0.30667
#
# Static dielectric constant tensor:
#      x y z
#    x 3.095020 0.000000 0.000000 
#    y 0.000000 3.095020 0.000000 
#    z 0.000000 0.000000 3.391040 
# 
# 
# High freq. dielectric constant tensor:
#      x y z
#    x 1.654800 0.000000 0.000000 
#    y 0.000000 1.654800 0.000000 
#    z 0.000000 0.000000 1.671350 
# 
# From -- ./inp_files/5160.got.cif
#   From: 2010.03.12/outbox.cif.g09.slc.cpg/sg164_3_cif.got.tgz:5160.got - 2010.04.02 06:32:59.
