data_PCOD8323498
_publ_section_title
;
Structure prediction by ZEFSAII (Michael W. Deem and Ramdas Pophale) SiO2 
 PCOD8323498
Probable space group: P -3 M 1
;
_chemical_formula_sum "Si O2"
_cell_formula_units_Z 60
_cell_length_a 16.895706
_cell_length_b 16.895706
_cell_length_c 13.243019
_cell_angle_alpha 90.000000
_cell_angle_beta 90.000000
_cell_angle_gamma 120.000000
_cell_volume 3273.937026
_symmetry_space_group_name_H-M "P -3 M 1"
_symmetry_group_IT_number 164
_symmetry_cell_setting 'hexagonal'
loop_
_space_group_symop_operation_xyz
x,y,z
-y,x-y,z
-x+y,-x,z
x-y,-y,-z
-x,-x+y,-z
y,x,-z
-x,-y,-z
y,-x+y,-z
x-y,x,-z
-x+y,y,z
x,x-y,z
-y,-x,z
loop_
_atom_site_type_symbol
_atom_site_label
_atom_site_fract_x
_atom_site_fract_y
_atom_site_fract_z
Si Si1 0.002870 0.183785 0.739545
Si Si2 0.850535 0.516786 0.026146
Si Si3 0.754114 0.692664 0.914694
Si Si4 0.849838 0.517084 0.256602
Si Si5 0.253333 0.327923 0.580088
O O1 0.916607 0.083394 0.735105
O O2 0.986061 0.253994 0.807334
O O3 0.088660 0.177320 0.783106
O O4 0.025787 0.227339 0.629007
O O5 0.747963 0.495925 0.010613
O O6 0.852221 0.426111 0.000417
O O7 0.883380 0.551107 0.141487
O O8 0.920507 0.592226 0.946484
O O9 0.842929 0.685858 0.915910
O O10 0.764757 0.764757 0.000000
O O11 0.743752 0.487504 0.266010
O O12 0.859758 0.429879 0.283168
O O13 0.909589 0.596297 0.336438
O O14 0.323533 0.323533 0.500000
O O15 0.173783 0.347565 0.535598
#
# Coordination Sequence:
#
# PCOD8323498 Si02
#       5
#    12  12  12  12  12
#     4  10  20  34  51  70  94 126 165 206 246 289
#     4   9  17  30  49  73 100 130 163 198 236 279
#     4  10  19  30  45  66  94 126 157 193 237 283
#     4   9  17  30  50  75 101 129 161 197 237 282
#     4  10  20  34  52  73  97 125 158 200 249 295
#
# _framework density 18.326557999999999
#
# number of rings (size 3 to 8) (size 9 to 14) (size 15 to 20)
#    0.000    2.400    0.000    3.000    0.000    5.600 
#    0.000    1.000    0.000    6.400    0.000    0.000 
#    0.000    3.200    0.000    0.000    0.000    0.000 
#
# Total GULP energy -743416.007615 kJ/mol
# GULP energy per Si atom -12390.266794 kJ/mol
# Density = 1.828485 g / cm^3
# Si number density = 18.326558 Si / 1000 Ang^3
#
#
#
# Elastic Constant Matrix: (Units=GPa)
#
#
# Indices 1 2 3 4 5 6 
#
# 1 108.2155 18.5115 40.1989 11.0348 0.0000 0.0000
# 2 18.5115 108.2155 40.1989 -11.0348 0.0000 0.0000
# 3 40.1989 40.1989 60.8131 0.0000 0.0000 0.0000
# 4 11.0348 -11.0348 0.0000 32.2791 0.0000 0.0000
# 5 0.0000 0.0000 0.0000 0.0000 32.2791 11.0348
# 6 0.0000 0.0000 0.0000 0.0000 11.0348 44.8520
#
#
#
# Elastic Compliance Matrix: (Units=1/GPa)
#
#
# Indices 1 2 3 4 5 6 
#
# 1 0.012881 0.000709 -0.008984 -0.004161 0.000000 0.000000
# 2 0.000709 0.012881 -0.008984 0.004161 0.000000 0.000000
# 3 -0.008984 -0.008984 0.028320 0.000000 0.000000 0.000000
# 4 -0.004161 0.004161 0.000000 0.033825 0.000000 0.000000
# 5 0.000000 0.000000 0.000000 0.000000 0.033825 -0.008322
# 6 0.000000 0.000000 0.000000 0.000000 -0.008322 0.024343
#
#
# Mechanical properties :
#
#
# Convention : Reuss Voigt Hill
#
# Bulk Modulus (GPa) = 51.10645 52.78474 51.94560
# Shear Modulus (GPa) = 26.72194 33.77102 30.24648
#
# Velocity S-wave (km/s) = 3.82265 4.29737 4.06694
# Velocity P-wave (km/s) = 6.88699 7.31355 7.10347
#
# Compressibility (1/GPa) = 0.01956700
#
# Stress axis : x y z
#
# Youngs Moduli (GPa) = 77.63447 77.63447 35.31012
#
# Poissons Ratio (x) = -0.05507 0.31721
# Poissons Ratio (y) = -0.05507 0.31721
# Poissons Ratio (z) = 0.69743 0.69743
#
# Static dielectric constant tensor:
#      x y z
#    x 3.452360 0.000000 0.000000 
#    y 0.000000 3.452360 0.000000 
#    z 0.000000 0.000000 3.390560 
# 
# 
# High freq. dielectric constant tensor:
#      x y z
#    x 1.714950 0.000000 0.000000 
#    y 0.000000 1.714950 0.000000 
#    z 0.000000 0.000000 1.685920 
# 
# From -- ./inp_files/2665.got.cif
#   From: 2010.03.12/outbox.cif.g09.slc.cpg/sg164_2_cif.got.tgz:2665.got - 2010.04.02 06:32:59.
