data_PCOD8323711
_publ_section_title
;
Structure prediction by ZEFSAII (Michael W. Deem and Ramdas Pophale) SiO2 
 PCOD8323711
Probable space group: P -3 M 1
;
_chemical_formula_sum "Si O2"
_cell_formula_units_Z 66
_cell_length_a 12.621596
_cell_length_b 12.621596
_cell_length_c 27.887810
_cell_angle_alpha 90.000000
_cell_angle_beta 90.000000
_cell_angle_gamma 120.000000
_cell_volume 3847.455384
_symmetry_space_group_name_H-M "P -3 M 1"
_symmetry_group_IT_number 164
_symmetry_cell_setting 'hexagonal'
loop_
_space_group_symop_operation_xyz
x,y,z
-y,x-y,z
-x+y,-x,z
x-y,-y,-z
-x,-x+y,-z
y,x,-z
-x,-y,-z
y,-x+y,-z
x-y,x,-z
-x+y,y,z
x,x-y,z
-y,-x,z
loop_
_atom_site_type_symbol
_atom_site_label
_atom_site_fract_x
_atom_site_fract_y
_atom_site_fract_z
Si Si1 0.000000 0.752585 0.000000
Si Si2 0.419729 0.332348 0.911178
Si Si3 0.086918 0.666298 0.366595
Si Si4 0.335068 0.419526 0.544304
Si Si5 0.244122 0.243969 0.827080
Si Si6 0.242801 0.243122 0.282132
O O1 0.986155 0.672731 0.953629
O O2 0.884526 0.769051 0.008467
O O3 0.458621 0.229311 0.911989
O O4 0.537953 0.462048 0.918150
O O5 0.357128 0.331621 0.860781
O O6 0.121118 0.560559 0.363696
O O7 0.208764 0.791237 0.379520
O O8 0.030434 0.672880 0.315792
O O9 0.987426 0.640280 0.407026
O O10 0.343662 0.343662 0.500000
O O11 0.204923 0.409846 0.543352
O O12 0.438874 0.561127 0.540395
O O13 0.206618 0.103309 0.835312
O O14 0.284784 0.285106 0.772380
O O15 0.128180 0.256360 0.841237
O O16 0.100527 0.201054 0.288656
O O17 0.259459 0.129730 0.296788
#
# Coordination Sequence:
#
# PCOD8323711 Si02
#       6
#     6  12  12  12  12  12
#     4  10  20  34  54  78 100 122 152 196 246 290
#     4  10  20  33  49  70  98 132 166 197 232 279
#     4  10  20  33  50  72  99 131 165 201 240 284
#     4  10  20  34  53  75  99 128 162 200 240 284
#     4   9  17  30  50  74  98 125 159 202 248 290
#     4   9  17  30  49  73  99 127 160 199 245 293
#
# _framework density 17.154195999999999
#
# number of rings (size 3 to 8) (size 9 to 14) (size 15 to 20)
#    0.000    2.364    0.000    2.909    0.000    2.182 
#    0.000    3.636    0.000   10.909    0.000    0.000 
#    0.000    0.000    0.000    0.000    0.000    0.000 
#
# Total GULP energy -818570.101402 kJ/mol
# GULP energy per Si atom -12402.577294 kJ/mol
# Density = 1.711515 g / cm^3
# Si number density = 17.154196 Si / 1000 Ang^3
#
#
#
# Elastic Constant Matrix: (Units=GPa)
#
#
# Indices 1 2 3 4 5 6 
#
# 1 111.8814 72.1419 59.8540 1.8764 0.0000 0.0000
# 2 72.1419 111.8814 59.8540 -1.8764 0.0000 0.0000
# 3 59.8540 59.8540 108.4336 0.0000 0.0000 0.0000
# 4 1.8764 -1.8764 0.0000 22.7170 0.0000 0.0000
# 5 0.0000 0.0000 0.0000 0.0000 22.7170 1.8764
# 6 0.0000 0.0000 0.0000 0.0000 1.8764 19.8697
#
#
#
# Elastic Compliance Matrix: (Units=1/GPa)
#
#
# Indices 1 2 3 4 5 6 
#
# 1 0.016920 -0.008442 -0.004680 -0.002095 0.000000 0.000000
# 2 -0.008442 0.016920 -0.004680 0.002095 0.000000 0.000000
# 3 -0.004680 -0.004680 0.014389 0.000000 0.000000 0.000000
# 4 -0.002095 0.002095 0.000000 0.044366 0.000000 0.000000
# 5 0.000000 0.000000 0.000000 0.000000 0.044366 -0.004190
# 6 0.000000 0.000000 0.000000 0.000000 -0.004190 0.050723
#
#
# Mechanical properties :
#
#
# Convention : Reuss Voigt Hill
#
# Bulk Modulus (GPa) = 79.20329 79.54406 79.37368
# Shear Modulus (GPa) = 21.97840 22.41720 22.19780
#
# Velocity S-wave (km/s) = 3.58330 3.61890 3.60115
# Velocity P-wave (km/s) = 7.96189 7.99579 7.97886
#
# Compressibility (1/GPa) = 0.01262574
#
# Stress axis : x y z
#
# Youngs Moduli (GPa) = 59.10136 59.10136 69.49833
#
# Poissons Ratio (x) = 0.49891 0.32525
# Poissons Ratio (y) = 0.49891 0.32525
# Poissons Ratio (z) = 0.27659 0.27659
#
# Static dielectric constant tensor:
#      x y z
#    x 3.090860 0.000000 0.000000 
#    y 0.000000 3.090860 0.000000 
#    z 0.000000 0.000000 3.434480 
# 
# 
# High freq. dielectric constant tensor:
#      x y z
#    x 1.656940 0.000000 0.000000 
#    y 0.000000 1.656940 0.000000 
#    z 0.000000 0.000000 1.678240 
# 
# From -- ./inp_files/5433.got.cif
#   From: 2010.03.12/outbox.cif.g09.slc.cpg/sg164_3_cif.got.tgz:5433.got - 2010.04.02 06:32:59.
