data_PCOD8323600
_publ_section_title
;
Structure prediction by ZEFSAII (Michael W. Deem and Ramdas Pophale) SiO2 
 PCOD8323600
Probable space group: P -3 M 1
;
_chemical_formula_sum "Si O2"
_cell_formula_units_Z 84
_cell_length_a 17.309403
_cell_length_b 17.309403
_cell_length_c 17.503645
_cell_angle_alpha 90.000000
_cell_angle_beta 90.000000
_cell_angle_gamma 120.000000
_cell_volume 4541.750859
_symmetry_space_group_name_H-M "P -3 M 1"
_symmetry_group_IT_number 164
_symmetry_cell_setting 'hexagonal'
loop_
_space_group_symop_operation_xyz
x,y,z
-y,x-y,z
-x+y,-x,z
x-y,-y,-z
-x,-x+y,-z
y,x,-z
-x,-y,-z
y,-x+y,-z
x-y,x,-z
-x+y,y,z
x,x-y,z
-y,-x,z
loop_
_atom_site_type_symbol
_atom_site_label
_atom_site_fract_x
_atom_site_fract_y
_atom_site_fract_z
Si Si1 0.102854 0.636665 0.009707
Si Si2 0.000539 0.820271 0.910748
Si Si3 0.363539 0.268583 0.844195
Si Si4 0.333688 0.850941 0.293991
Si Si5 0.164567 0.495712 0.853757
Si Si6 0.484368 0.330756 0.311940
Si Si7 0.588064 0.993851 0.415131
O O1 0.148466 0.574233 0.019989
O O2 0.133768 0.696183 0.931463
O O3 0.127133 0.700643 0.081664
O O4 0.000000 0.572384 0.000000
O O5 0.919495 0.838990 0.893918
O O6 0.989916 0.734130 0.863407
O O7 0.093021 0.906980 0.885962
O O8 0.000000 0.798066 0.000000
O O9 0.344668 0.172334 0.819384
O O10 0.418002 0.333651 0.773735
O O11 0.420469 0.840937 0.282680
O O12 0.246792 0.753208 0.294226
O O13 0.338463 0.900321 0.373919
O O14 0.271682 0.543364 0.846845
O O15 0.131403 0.565702 0.863910
O O16 0.124536 0.443220 0.774212
O O17 0.491861 0.245931 0.338195
O O18 0.582891 0.417110 0.314110
O O19 0.414436 0.337449 0.367333
O O20 0.502389 0.004778 0.420010
O O21 0.627651 0.000000 0.500000
#
# Coordination Sequence:
#
# PCOD8323600 Si02
#       7
#    12  12  12  12  12  12  12
#     4  10  20  30  43  63  91 130 173 209 246 294
#     4   9  17  31  51  74 100 134 176 221 266 315
#     4  10  20  33  49  71 100 134 170 214 263 303
#     4  10  21  37  58  79 103 137 179 222 260 304
#     4   9  17  29  45  66  91 123 162 206 251 296
#     4   9  17  30  50  76 105 135 168 206 253 309
#     4   9  19  35  54  76 103 133 164 206 262 316
#
# _framework density 18.495069999999998
#
# number of rings (size 3 to 8) (size 9 to 14) (size 15 to 20)
#    0.000    2.571    0.000    1.857    2.000    2.286 
#    0.000    1.429    0.000    6.286    0.000    0.000 
#    0.000    0.000    0.000    3.857    0.000   22.286 
#
# Total GULP energy -1040599.351485 kJ/mol
# GULP energy per Si atom -12388.087518 kJ/mol
# Density = 1.845297 g / cm^3
# Si number density = 18.495070 Si / 1000 Ang^3
#
#
#
# Elastic Constant Matrix: (Units=GPa)
#
#
# Indices 1 2 3 4 5 6 
#
# 1 79.8509 37.3391 47.8784 -3.5789 0.0000 0.0000
# 2 37.3391 79.8509 47.8784 3.5789 0.0000 0.0000
# 3 47.8784 47.8784 148.0073 0.0000 0.0000 0.0000
# 4 -3.5789 3.5789 0.0000 24.5075 0.0000 0.0000
# 5 0.0000 0.0000 0.0000 0.0000 24.5075 -3.5789
# 6 0.0000 0.0000 0.0000 0.0000 -3.5789 21.2559
#
#
#
# Elastic Compliance Matrix: (Units=1/GPa)
#
#
# Indices 1 2 3 4 5 6 
#
# 1 0.017857 -0.006258 -0.003752 0.003522 0.000000 0.000000
# 2 -0.006258 0.017857 -0.003752 -0.003522 0.000000 0.000000
# 3 -0.003752 -0.003752 0.009184 0.000000 0.000000 0.000000
# 4 0.003522 -0.003522 0.000000 0.041832 0.000000 0.000000
# 5 0.000000 0.000000 0.000000 0.000000 0.041832 0.007043
# 6 0.000000 0.000000 0.000000 0.000000 0.007043 0.048232
#
#
# Mechanical properties :
#
#
# Convention : Reuss Voigt Hill
#
# Bulk Modulus (GPa) = 57.55891 63.76678 60.66284
# Shear Modulus (GPa) = 23.79684 25.69505 24.74594
#
# Velocity S-wave (km/s) = 3.59089 3.73136 3.66180
# Velocity P-wave (km/s) = 6.95568 7.28812 7.12384
#
# Compressibility (1/GPa) = 0.01737350
#
# Stress axis : x y z
#
# Youngs Moduli (GPa) = 55.99902 55.99902 108.88551
#
# Poissons Ratio (x) = 0.35046 0.40855
# Poissons Ratio (y) = 0.35046 0.40855
# Poissons Ratio (z) = 0.21012 0.21012
#
# Static dielectric constant tensor:
#      x y z
#    x 3.301120 0.000000 0.000000 
#    y 0.000000 3.301120 0.000000 
#    z 0.000000 0.000000 3.684870 
# 
# 
# High freq. dielectric constant tensor:
#      x y z
#    x 1.704140 0.000000 0.000000 
#    y 0.000000 1.704140 0.000000 
#    z 0.000000 0.000000 1.707210 
# 
# From -- ./inp_files/3626.got.cif
#   From: 2010.03.12/outbox.cif.g09.slc.cpg/sg164_2_cif.got.tgz:3626.got - 2010.04.02 06:32:59.
