data_PCOD8323414
_publ_section_title
;
Structure prediction by ZEFSAII (Michael W. Deem and Ramdas Pophale) SiO2 
 PCOD8323414
Probable space group: P -3 M 1
;
_chemical_formula_sum "Si O2"
_cell_formula_units_Z 84
_cell_length_a 16.292029
_cell_length_b 16.292029
_cell_length_c 22.383964
_cell_angle_alpha 90.000000
_cell_angle_beta 90.000000
_cell_angle_gamma 120.000000
_cell_volume 5145.386223
_symmetry_space_group_name_H-M "P -3 M 1"
_symmetry_group_IT_number 164
_symmetry_cell_setting 'hexagonal'
loop_
_space_group_symop_operation_xyz
x,y,z
-y,x-y,z
-x+y,-x,z
x-y,-y,-z
-x,-x+y,-z
y,x,-z
-x,-y,-z
y,-x+y,-z
x-y,x,-z
-x+y,y,z
x,x-y,z
-y,-x,z
loop_
_atom_site_type_symbol
_atom_site_label
_atom_site_fract_x
_atom_site_fract_y
_atom_site_fract_z
Si Si1 0.851884 0.332647 0.342621
Si Si2 0.333660 0.855178 0.858290
Si Si3 0.981525 0.641852 0.245262
Si Si4 0.192442 0.999416 0.171112
Si Si5 0.687667 0.750756 0.943405
Si Si6 0.140220 0.665985 0.330527
Si Si7 0.408253 0.005199 0.565169
O O1 0.864215 0.432108 0.319344
O O2 0.741855 0.258145 0.350183
O O3 0.900404 0.295734 0.295687
O O4 0.901176 0.346346 0.406686
O O5 0.414391 0.828782 0.871057
O O6 0.238366 0.761635 0.835016
O O7 0.370007 0.939131 0.809952
O O8 0.310648 0.890911 0.919721
O O9 0.007709 0.746735 0.225278
O O10 0.075291 0.645650 0.271711
O O11 0.189918 0.094959 0.179268
O O12 0.239326 0.998754 0.108029
O O13 0.087275 0.912726 0.174160
O O14 0.710290 0.855145 0.962854
O O15 0.697193 0.697193 0.000000
O O16 0.163937 0.581969 0.336745
O O17 0.236052 0.763949 0.322702
O O18 0.084676 0.672414 0.389356
O O19 0.516335 0.032669 0.555712
O O20 0.361538 0.000000 0.500000
#
# Coordination Sequence:
#
# PCOD8323414 Si02
#       7
#    12  12  12  12  12  12  12
#     4  10  18  28  44  65  89 115 146 184 224 268
#     4  10  19  31  48  69  93 120 153 192 231 273
#     4  10  19  32  46  65  92 123 151 182 228 278
#     4  10  19  31  48  69  93 119 150 188 228 272
#     4   9  18  31  47  67  91 119 150 184 225 274
#     4  10  19  31  48  68  91 120 156 195 231 271
#     4   8  16  30  44  60  86 117 145 178 222 266
#
# _framework density 16.325305
#
# number of rings (size 3 to 8) (size 9 to 14) (size 15 to 20)
#    0.000    2.429    0.000    5.714    0.000    0.857 
#    0.000    1.429    0.000    4.000    0.000    0.000 
#    0.000    9.143    0.000    0.000    0.000   48.714 
#
# Total GULP energy -1041323.350206 kJ/mol
# GULP energy per Si atom -12396.706550 kJ/mol
# Density = 1.628815 g / cm^3
# Si number density = 16.325305 Si / 1000 Ang^3
#
#
#
# Elastic Constant Matrix: (Units=GPa)
#
#
# Indices 1 2 3 4 5 6 
#
# 1 80.8845 24.7726 38.2848 0.1914 0.0000 0.0000
# 2 24.7726 80.8845 38.2848 -0.1914 0.0000 0.0000
# 3 38.2848 38.2848 97.0594 0.0000 0.0000 0.0000
# 4 0.1914 -0.1914 0.0000 17.7818 0.0000 0.0000
# 5 0.0000 0.0000 0.0000 0.0000 17.7818 0.1914
# 6 0.0000 0.0000 0.0000 0.0000 0.1914 28.0560
#
#
#
# Elastic Compliance Matrix: (Units=1/GPa)
#
#
# Indices 1 2 3 4 5 6 
#
# 1 0.015538 -0.002285 -0.005228 -0.000192 0.000000 0.000000
# 2 -0.002285 0.015538 -0.005228 0.000192 0.000000 0.000000
# 3 -0.005228 -0.005228 0.014427 0.000000 0.000000 0.000000
# 4 -0.000192 0.000192 0.000000 0.056241 0.000000 0.000000
# 5 0.000000 0.000000 0.000000 0.000000 0.056241 -0.000384
# 6 0.000000 0.000000 0.000000 0.000000 -0.000384 0.035646
#
#
# Mechanical properties :
#
#
# Convention : Reuss Voigt Hill
#
# Bulk Modulus (GPa) = 49.94359 51.27920 50.61140
# Shear Modulus (GPa) = 22.14487 23.22299 22.68393
#
# Velocity S-wave (km/s) = 3.68703 3.77572 3.73164
# Velocity P-wave (km/s) = 6.98461 7.10543 7.04528
#
# Compressibility (1/GPa) = 0.02002259
#
# Stress axis : x y z
#
# Youngs Moduli (GPa) = 64.35860 64.35860 69.31437
#
# Poissons Ratio (x) = 0.14705 0.36235
# Poissons Ratio (y) = 0.14705 0.36235
# Poissons Ratio (z) = 0.33644 0.33644
#
# Static dielectric constant tensor:
#      x y z
#    x 2.996550 0.000000 0.000000 
#    y 0.000000 2.996550 0.000000 
#    z 0.000000 0.000000 3.129090 
# 
# 
# High freq. dielectric constant tensor:
#      x y z
#    x 1.619670 0.000000 0.000000 
#    y 0.000000 1.619670 0.000000 
#    z 0.000000 0.000000 1.625170 
# 
# From -- ./inp_files/4620.got.cif
#   From: 2010.03.12/outbox.cif.g09.slc.cpg/sg164_3_cif.got.tgz:4620.got - 2010.04.02 06:32:59.
