data_PCOD8323876
_publ_section_title
;
Structure prediction by ZEFSAII (Michael W. Deem and Ramdas Pophale) SiO2 
 PCOD8323876
Probable space group: P -3 C 1
;
_chemical_formula_sum "Si O2"
_cell_formula_units_Z 72
_cell_length_a 22.744194
_cell_length_b 22.744194
_cell_length_c 9.111131
_cell_angle_alpha 90.000000
_cell_angle_beta 90.000000
_cell_angle_gamma 120.000000
_cell_volume 4081.727663
_symmetry_space_group_name_H-M "P -3 C 1"
_symmetry_group_IT_number 165
_symmetry_cell_setting 'hexagonal'
loop_
_space_group_symop_operation_xyz
x,y,z
-y,x-y,z
-x+y,-x,z
x-y,-y,1/2-z
-x,-x+y,1/2-z
y,x,1/2-z
-x,-y,-z
y,-x+y,-z
x-y,x,-z
-x+y,y,1/2+z
x,x-y,1/2+z
-y,-x,1/2+z
loop_
_atom_site_type_symbol
_atom_site_label
_atom_site_fract_x
_atom_site_fract_y
_atom_site_fract_z
Si Si1 0.818092 0.071828 0.819423
Si Si2 0.465166 0.414530 0.120032
Si Si3 0.848087 0.580449 0.104364
Si Si4 0.265987 0.411506 0.736279
Si Si5 0.931646 0.193984 0.659905
Si Si6 0.592737 0.047911 0.618633
O O1 0.766497 0.097109 0.768909
O O2 0.890806 0.125739 0.754643
O O3 0.795368 0.000000 0.750000
O O4 0.824280 0.061830 0.992495
O O5 0.448958 0.448958 0.250000
O O6 0.461425 0.344222 0.165979
O O7 0.542583 0.466750 0.063487
O O8 0.406398 0.401864 0.000931
O O9 0.776756 0.559289 0.180873
O O10 0.896492 0.657398 0.150602
O O11 0.838001 0.563780 0.931059
O O12 0.333937 0.441898 0.833624
O O13 0.000000 0.237444 0.750000
O O14 0.553875 0.000000 0.750000
#
# Coordination Sequence:
#
# PCOD8323876 Si02
#       6
#    12  12  12  12  12  12
#     4  10  20  33  52  76 104 141 174 214 262 311
#     4  10  21  33  55  82 107 139 185 225 271 324
#     4  10  21  35  50  79 107 142 175 217 265 322
#     4  10  21  34  53  75 110 140 177 214 269 319
#     4  10  20  34  52  76 106 138 175 215 260 314
#     4  10  19  36  55  78 108 144 178 226 276 318
#
# _framework density 17.639589000000001
#
# number of rings (size 3 to 8) (size 9 to 14) (size 15 to 20)
#    0.000    2.000    1.667    2.000    4.667    1.333 
#    0.000    0.000    0.000    1.000    0.000    2.333 
#    0.000    0.000    0.000    0.000    0.000    0.000 
#
# Total GULP energy -891996.040494 kJ/mol
# GULP energy per Si atom -12388.833896 kJ/mol
# Density = 1.759944 g / cm^3
# Si number density = 17.639589 Si / 1000 Ang^3
#
#
#
# Elastic Constant Matrix: (Units=GPa)
#
#
# Indices 1 2 3 4 5 6 
#
# 1 95.3880 34.9199 33.1560 4.9491 0.0000 0.0000
# 2 34.9199 95.3880 33.1560 -4.9491 0.0000 0.0000
# 3 33.1560 33.1560 93.5112 0.0000 0.0000 0.0000
# 4 4.9491 -4.9491 0.0000 28.4957 0.0000 0.0000
# 5 0.0000 0.0000 0.0000 0.0000 28.4957 4.9491
# 6 0.0000 0.0000 0.0000 0.0000 4.9491 30.2341
#
#
#
# Elastic Compliance Matrix: (Units=1/GPa)
#
#
# Indices 1 2 3 4 5 6 
#
# 1 0.013193 -0.003829 -0.003320 -0.002956 0.000000 0.000000
# 2 -0.003829 0.013193 -0.003320 0.002956 0.000000 0.000000
# 3 -0.003320 -0.003320 0.013048 0.000000 0.000000 0.000000
# 4 -0.002956 0.002956 0.000000 0.036120 0.000000 0.000000
# 5 0.000000 0.000000 0.000000 0.000000 0.036120 -0.005913
# 6 0.000000 0.000000 0.000000 0.000000 -0.005913 0.034043
#
#
# Mechanical properties :
#
#
# Convention : Reuss Voigt Hill
#
# Bulk Modulus (GPa) = 54.06749 54.08343 54.07546
# Shear Modulus (GPa) = 28.93189 29.64877 29.29033
#
# Velocity S-wave (km/s) = 4.05429 4.10421 4.07933
# Velocity P-wave (km/s) = 7.25494 7.29289 7.27394
#
# Compressibility (1/GPa) = 0.01849540
#
# Stress axis : x y z
#
# Youngs Moduli (GPa) = 75.80004 75.80004 76.63861
#
# Poissons Ratio (x) = 0.29023 0.25444
# Poissons Ratio (y) = 0.29023 0.25444
# Poissons Ratio (z) = 0.25166 0.25166
#
# Static dielectric constant tensor:
#      x y z
#    x 3.323910 0.000000 0.000000 
#    y 0.000000 3.323910 0.000000 
#    z 0.000000 0.000000 3.405920 
# 
# 
# High freq. dielectric constant tensor:
#      x y z
#    x 1.664910 0.000000 0.000000 
#    y 0.000000 1.664910 0.000000 
#    z 0.000000 0.000000 1.701090 
# 
# From -- ./inp_files/769.got.cif
#   From: 2010.03.12/outbox.cif.g09.slc.cpg/sg165_1_cif.got.tgz:769.got - 2010.04.02 06:36:38.
