data_PCOD8323490
_publ_section_title
;
Structure prediction by ZEFSAII (Michael W. Deem and Ramdas Pophale) SiO2 
 PCOD8323490
Probable space group: P -3 M 1
;
_chemical_formula_sum "Si O2"
_cell_formula_units_Z 84
_cell_length_a 21.409744
_cell_length_b 21.409744
_cell_length_c 14.000167
_cell_angle_alpha 90.000000
_cell_angle_beta 90.000000
_cell_angle_gamma 120.000000
_cell_volume 5557.593739
_symmetry_space_group_name_H-M "P -3 M 1"
_symmetry_group_IT_number 164
_symmetry_cell_setting 'hexagonal'
loop_
_space_group_symop_operation_xyz
x,y,z
-y,x-y,z
-x+y,-x,z
x-y,-y,-z
-x,-x+y,-z
y,x,-z
-x,-y,-z
y,-x+y,-z
x-y,x,-z
-x+y,y,z
x,x-y,z
-y,-x,z
loop_
_atom_site_type_symbol
_atom_site_label
_atom_site_fract_x
_atom_site_fract_y
_atom_site_fract_z
Si Si1 0.529428 0.916609 0.178899
Si Si2 0.862121 0.277513 0.654819
Si Si3 0.919931 0.531250 0.169553
Si Si4 0.472034 0.804005 0.503032
Si Si5 0.723172 0.135849 0.335680
Si Si6 0.079196 0.300229 0.505866
Si Si7 0.186056 0.520812 0.003072
O O1 0.452699 0.905398 0.216880
O O2 0.576979 0.908751 0.261649
O O3 0.515370 0.857422 0.099305
O O4 0.575957 0.997109 0.135520
O O5 0.800030 0.199971 0.695543
O O6 0.823711 0.314286 0.599375
O O7 0.913110 0.266342 0.580808
O O8 0.904746 0.452373 0.204450
O O9 0.907939 0.575562 0.252590
O O10 0.866804 0.522186 0.083783
O O11 0.414782 0.829564 0.506099
O O12 0.436201 0.718101 0.518255
O O13 0.526335 0.845280 0.587173
O O14 0.791669 0.208332 0.294244
O O15 0.750808 0.088133 0.390757
O O16 0.136945 0.273889 0.494260
O O17 0.000000 0.230626 0.500000
O O18 0.256530 0.513060 0.997961
O O19 0.210076 0.605038 0.999023
#
# Coordination Sequence:
#
# PCOD8323490 Si02
#       7
#    12  12  12  12  12  12  12
#     4  10  19  30  44  61  81 105 133 167 205 242
#     4   9  17  28  42  60  82 108 137 167 199 235
#     4  10  19  30  44  61  81 105 133 167 205 242
#     4   9  16  25  37  55  80 110 142 174 205 235
#     4   9  17  28  42  60  82 108 137 167 199 235
#     4   9  17  29  45  64  85 108 133 161 193 233
#     4  10  20  33  47  61  78 101 132 168 205 244
#
# _framework density 15.114455
#
# number of rings (size 3 to 8) (size 9 to 14) (size 15 to 20)
#    0.000    2.571    0.000    5.000    0.000    1.714 
#    0.000    0.000    0.000   16.143    0.000    0.000 
#    0.000    0.000    0.000    0.000    0.000    0.000 
#
# Total GULP energy -1041138.529643 kJ/mol
# GULP energy per Si atom -12394.506305 kJ/mol
# Density = 1.508005 g / cm^3
# Si number density = 15.114455 Si / 1000 Ang^3
#
#
#
# Elastic Constant Matrix: (Units=GPa)
#
#
# Indices 1 2 3 4 5 6 
#
# 1 73.4422 32.5326 22.8927 0.5075 0.0000 0.0000
# 2 32.5326 73.4422 22.8927 -0.5075 0.0000 0.0000
# 3 22.8927 22.8927 61.9697 0.0000 0.0000 0.0000
# 4 0.5075 -0.5075 0.0000 10.4069 0.0000 0.0000
# 5 0.0000 0.0000 0.0000 0.0000 10.4069 0.5075
# 6 0.0000 0.0000 0.0000 0.0000 0.5075 20.4548
#
#
#
# Elastic Compliance Matrix: (Units=1/GPa)
#
#
# Indices 1 2 3 4 5 6 
#
# 1 0.017851 -0.006623 -0.004148 -0.001193 0.000000 0.000000
# 2 -0.006623 0.017851 -0.004148 0.001193 0.000000 0.000000
# 3 -0.004148 -0.004148 0.019202 0.000000 0.000000 0.000000
# 4 -0.001193 0.001193 0.000000 0.096206 0.000000 0.000000
# 5 0.000000 0.000000 0.000000 0.000000 0.096206 -0.002387
# 6 0.000000 0.000000 0.000000 0.000000 -0.002387 0.048948
#
#
# Mechanical properties :
#
#
# Convention : Reuss Voigt Hill
#
# Bulk Modulus (GPa) = 39.89404 40.61002 40.25203
# Shear Modulus (GPa) = 14.94964 16.95613 15.95288
#
# Velocity S-wave (km/s) = 3.14840 3.35303 3.25233
# Velocity P-wave (km/s) = 6.29829 6.47434 6.38692
#
# Compressibility (1/GPa) = 0.02506640
#
# Stress axis : x y z
#
# Youngs Moduli (GPa) = 56.01919 56.01919 52.07911
#
# Poissons Ratio (x) = 0.37100 0.21602
# Poissons Ratio (y) = 0.37100 0.21602
# Poissons Ratio (z) = 0.23236 0.23236
#
# Static dielectric constant tensor:
#      x y z
#    x 2.809820 0.000000 0.000000 
#    y 0.000000 2.809820 0.000000 
#    z 0.000000 0.000000 2.941300 
# 
# 
# High freq. dielectric constant tensor:
#      x y z
#    x 1.567300 0.000000 0.000000 
#    y 0.000000 1.567300 0.000000 
#    z 0.000000 0.000000 1.572430 
# 
# From -- ./inp_files/2872.got.cif
#   From: 2010.03.12/outbox.cif.g09.slc.cpg/sg164_2_cif.got.tgz:2872.got - 2010.04.02 06:32:59.
