data_PCOD8323573
_publ_section_title
;
Structure prediction by ZEFSAII (Michael W. Deem and Ramdas Pophale) SiO2 
 PCOD8323573
Probable space group: P -3 M 1
;
_chemical_formula_sum "Si O2"
_cell_formula_units_Z 84
_cell_length_a 20.947465
_cell_length_b 20.947465
_cell_length_c 12.246910
_cell_angle_alpha 90.000000
_cell_angle_beta 90.000000
_cell_angle_gamma 120.000000
_cell_volume 4653.932767
_symmetry_space_group_name_H-M "P -3 M 1"
_symmetry_group_IT_number 164
_symmetry_cell_setting 'hexagonal'
loop_
_space_group_symop_operation_xyz
x,y,z
-y,x-y,z
-x+y,-x,z
x-y,-y,-z
-x,-x+y,-z
y,x,-z
-x,-y,-z
y,-x+y,-z
x-y,x,-z
-x+y,y,z
x,x-y,z
-y,-x,z
loop_
_atom_site_type_symbol
_atom_site_label
_atom_site_fract_x
_atom_site_fract_y
_atom_site_fract_z
Si Si1 0.615895 0.972361 0.119425
Si Si2 0.113837 0.371171 0.520317
Si Si3 0.668268 0.189418 0.391093
Si Si4 0.485080 0.817028 0.059014
Si Si5 0.145458 0.145531 0.626633
Si Si6 0.293101 0.018054 0.676841
Si Si7 0.877053 0.511652 0.169362
O O1 0.542678 0.891409 0.124155
O O2 0.674867 0.972191 0.202096
O O3 0.597654 0.034606 0.160887
O O4 0.653392 0.000000 0.000000
O O5 0.174504 0.349008 0.553101
O O6 0.149363 0.459770 0.515427
O O7 0.088040 0.344583 0.397643
O O8 0.052206 0.337639 0.613409
O O9 0.585319 0.170637 0.411724
O O10 0.722556 0.277445 0.392989
O O11 0.681681 0.156690 0.278698
O O12 0.402673 0.805345 0.071151
O O13 0.485212 0.742606 0.098979
O O14 0.515787 0.832998 0.935430
O O15 0.166580 0.166580 0.500000
O O16 0.076485 0.152969 0.662495
O O17 0.214849 0.202216 0.697014
O O18 0.124877 0.062439 0.649910
O O19 0.857514 0.428757 0.177585
#
# Coordination Sequence:
#
# PCOD8323573 Si02
#       7
#    12  12  12  12  12  12  12
#     4  10  21  37  55  81 112 147 185 232 287 337
#     4  10  20  34  54  78 108 142 179 225 275 325
#     4  10  19  32  51  77 108 143 181 226 278 334
#     4  10  20  34  53  77 106 144 190 240 292 343
#     4  10  19  32  53  82 113 142 172 214 269 325
#     4  11  20  34  56  82 108 144 186 225 270 330
#     4   9  17  32  53  77 105 139 180 230 283 338
#
# _framework density 18.049250000000001
#
# number of rings (size 3 to 8) (size 9 to 14) (size 15 to 20)
#    0.000    2.000    2.857    2.143    0.000    3.429 
#    0.000    5.000    0.000    0.000    0.000    2.000 
#    0.000    1.143    0.000    0.000    0.000    0.000 
#
# Total GULP energy -1041100.758238 kJ/mol
# GULP energy per Si atom -12394.056646 kJ/mol
# Density = 1.800817 g / cm^3
# Si number density = 18.049250 Si / 1000 Ang^3
#
#
#
# Elastic Constant Matrix: (Units=GPa)
#
#
# Indices 1 2 3 4 5 6 
#
# 1 105.7713 49.2281 33.8469 1.9879 0.0000 0.0000
# 2 49.2281 105.7713 33.8469 -1.9879 0.0000 0.0000
# 3 33.8469 33.8469 55.0833 0.0000 0.0000 0.0000
# 4 1.9879 -1.9879 0.0000 19.8743 0.0000 0.0000
# 5 0.0000 0.0000 0.0000 0.0000 19.8743 1.9879
# 6 0.0000 0.0000 0.0000 0.0000 1.9879 28.2716
#
#
#
# Elastic Compliance Matrix: (Units=1/GPa)
#
#
# Indices 1 2 3 4 5 6 
#
# 1 0.013314 -0.004496 -0.005418 -0.001782 0.000000 0.000000
# 2 -0.004496 0.013314 -0.005418 0.001782 0.000000 0.000000
# 3 -0.005418 -0.005418 0.024813 0.000000 0.000000 0.000000
# 4 -0.001782 0.001782 0.000000 0.050673 0.000000 0.000000
# 5 0.000000 0.000000 0.000000 0.000000 0.050673 -0.003563
# 6 0.000000 0.000000 0.000000 0.000000 -0.003563 0.035622
#
#
# Mechanical properties :
#
#
# Convention : Reuss Voigt Hill
#
# Bulk Modulus (GPa) = 48.13321 55.60772 51.87046
# Shear Modulus (GPa) = 22.12381 23.58430 22.85405
#
# Velocity S-wave (km/s) = 3.50486 3.61870 3.56224
# Velocity P-wave (km/s) = 6.56539 6.95239 6.76166
#
# Compressibility (1/GPa) = 0.02077568
#
# Stress axis : x y z
#
# Youngs Moduli (GPa) = 75.10636 75.10636 40.30114
#
# Poissons Ratio (x) = 0.33771 0.21837
# Poissons Ratio (y) = 0.33771 0.21837
# Poissons Ratio (z) = 0.40696 0.40696
#
# Static dielectric constant tensor:
#      x y z
#    x 3.339720 0.000000 0.000000 
#    y 0.000000 3.339720 0.000000 
#    z 0.000000 0.000000 3.219600 
# 
# 
# High freq. dielectric constant tensor:
#      x y z
#    x 1.704460 0.000000 0.000000 
#    y 0.000000 1.704460 0.000000 
#    z 0.000000 0.000000 1.664940 
# 
# From -- ./inp_files/2878.got.cif
#   From: 2010.03.12/outbox.cif.g09.slc.cpg/sg164_2_cif.got.tgz:2878.got - 2010.04.02 06:32:59.
