data_PCOD8323768
_publ_section_title
;
Structure prediction by ZEFSAII (Michael W. Deem and Ramdas Pophale) SiO2 
 PCOD8323768
Probable space group: P -3 M 1
;
_chemical_formula_sum "Si O2"
_cell_formula_units_Z 78
_cell_length_a 22.606241
_cell_length_b 22.606241
_cell_length_c 9.844940
_cell_angle_alpha 90.000000
_cell_angle_beta 90.000000
_cell_angle_gamma 120.000000
_cell_volume 4357.128936
_symmetry_space_group_name_H-M "P -3 M 1"
_symmetry_group_IT_number 164
_symmetry_cell_setting 'hexagonal'
loop_
_space_group_symop_operation_xyz
x,y,z
-y,x-y,z
-x+y,-x,z
x-y,-y,-z
-x,-x+y,-z
y,x,-z
-x,-y,-z
y,-x+y,-z
x-y,x,-z
-x+y,y,z
x,x-y,z
-y,-x,z
loop_
_atom_site_type_symbol
_atom_site_label
_atom_site_fract_x
_atom_site_fract_y
_atom_site_fract_z
Si Si1 0.967083 0.415672 0.855210
Si Si2 0.737583 0.126872 0.510798
Si Si3 0.867307 0.601399 0.826237
Si Si4 0.795515 0.071636 0.035064
Si Si5 0.595283 0.058867 0.391322
Si Si6 0.000000 0.140162 0.500000
Si Si7 0.797567 0.064571 0.338155
O O1 0.948888 0.474444 0.826049
O O2 0.893700 0.345636 0.849616
O O3 0.023401 0.421171 0.746555
O O4 0.000000 0.421521 0.000000
O O5 0.797216 0.202785 0.469382
O O6 0.740285 0.115148 0.671083
O O7 0.667186 0.118887 0.450745
O O8 0.743794 0.064852 0.444678
O O9 0.785550 0.571099 0.852380
O O10 0.910055 0.662955 0.930484
O O11 0.874995 0.125006 0.027851
O O12 0.767682 0.062839 0.188792
O O13 0.789398 0.000000 0.000000
O O14 0.545088 0.090176 0.366407
O O15 0.561772 0.000000 0.500000
O O16 0.993324 0.181550 0.369991
O O17 0.065852 0.131703 0.477115
O O18 0.865057 0.134944 0.364337
#
# Coordination Sequence:
#
# PCOD8323768 Si02
#       7
#    12  12  12  12  12   6  12
#     4  10  21  36  54  80 112 144 180 221 266 318
#     4  10  21  35  53  79 109 140 175 220 268 316
#     4  10  21  35  53  79 107 139 175 215 266 317
#     4  10  22  36  51  73 101 135 173 215 267 320
#     4  10  20  34  55  80 107 144 180 217 266 318
#     4  10  21  36  56  78 103 134 176 226 274 324
#     4   9  21  36  50  73 101 133 172 213 261 315
#
# _framework density 17.901695
#
# number of rings (size 3 to 8) (size 9 to 14) (size 15 to 20)
#    0.000    2.154    1.538    0.538    7.538    0.615 
#    0.000    0.000    0.000    0.769    0.000    0.000 
#    0.000    0.000    0.000    0.000    0.000    0.000 
#
# Total GULP energy -966362.009720 kJ/mol
# GULP energy per Si atom -12389.256535 kJ/mol
# Density = 1.786095 g / cm^3
# Si number density = 17.901695 Si / 1000 Ang^3
#
#
#
# Elastic Constant Matrix: (Units=GPa)
#
#
# Indices 1 2 3 4 5 6 
#
# 1 102.5907 49.0190 44.8390 -0.8353 0.0000 0.0000
# 2 49.0190 102.5907 44.8390 0.8353 0.0000 0.0000
# 3 44.8390 44.8390 117.6308 0.0000 0.0000 0.0000
# 4 -0.8353 0.8353 0.0000 25.3974 0.0000 0.0000
# 5 0.0000 0.0000 0.0000 0.0000 25.3974 -0.8353
# 6 0.0000 0.0000 0.0000 0.0000 -0.8353 26.7859
#
#
#
# Elastic Compliance Matrix: (Units=1/GPa)
#
#
# Indices 1 2 3 4 5 6 
#
# 1 0.013601 -0.005085 -0.003246 0.000615 0.000000 0.000000
# 2 -0.005085 0.013601 -0.003246 -0.000615 0.000000 0.000000
# 3 -0.003246 -0.003246 0.010976 0.000000 0.000000 0.000000
# 4 0.000615 -0.000615 0.000000 0.039415 0.000000 0.000000
# 5 0.000000 0.000000 0.000000 0.000000 0.039415 0.001229
# 6 0.000000 0.000000 0.000000 0.000000 0.001229 0.037371
#
#
# Mechanical properties :
#
#
# Convention : Reuss Voigt Hill
#
# Bulk Modulus (GPa) = 66.56329 66.68959 66.62644
# Shear Modulus (GPa) = 27.39119 27.79047 27.59083
#
# Velocity S-wave (km/s) = 3.91588 3.94432 3.93012
# Velocity P-wave (km/s) = 7.59664 7.62087 7.60876
#
# Compressibility (1/GPa) = 0.01502330
#
# Stress axis : x y z
#
# Youngs Moduli (GPa) = 73.52471 73.52471 91.10820
#
# Poissons Ratio (x) = 0.37386 0.29575
# Poissons Ratio (y) = 0.37386 0.29575
# Poissons Ratio (z) = 0.23867 0.23867
#
# Static dielectric constant tensor:
#      x y z
#    x 3.442140 0.000000 0.000000 
#    y 0.000000 3.442140 0.000000 
#    z 0.000000 0.000000 3.806100 
# 
# 
# High freq. dielectric constant tensor:
#      x y z
#    x 1.676870 0.000000 0.000000 
#    y 0.000000 1.676870 0.000000 
#    z 0.000000 0.000000 1.711250 
# 
# From -- ./inp_files/2026.got.cif
#   From: 2010.03.12/outbox.cif.g09.slc.cpg/sg164_2_cif.got.tgz:2026.got - 2010.04.02 06:32:59.
