data_PCOD8323868
_publ_section_title
;
Structure prediction by ZEFSAII (Michael W. Deem and Ramdas Pophale) SiO2 
 PCOD8323868
Probable space group: P -3 C 1
;
_chemical_formula_sum "Si O2"
_cell_formula_units_Z 52
_cell_length_a 12.378022
_cell_length_b 12.378022
_cell_length_c 22.004952
_cell_angle_alpha 90.000000
_cell_angle_beta 90.000000
_cell_angle_gamma 120.000000
_cell_volume 2919.803049
_symmetry_space_group_name_H-M "P -3 C 1"
_symmetry_group_IT_number 165
_symmetry_cell_setting 'hexagonal'
loop_
_space_group_symop_operation_xyz
x,y,z
-y,x-y,z
-x+y,-x,z
x-y,-y,1/2-z
-x,-x+y,1/2-z
y,x,1/2-z
-x,-y,-z
y,-x+y,-z
x-y,x,-z
-x+y,y,1/2+z
x,x-y,1/2+z
-y,-x,1/2+z
loop_
_atom_site_type_symbol
_atom_site_label
_atom_site_fract_x
_atom_site_fract_y
_atom_site_fract_z
Si Si1 0.000000 0.000000 0.430310
Si Si2 0.000073 0.205626 0.357403
Si Si3 0.588945 0.916244 0.552728
Si Si4 0.340715 0.417307 0.064861
Si Si5 0.262283 0.010051 0.816254
O O1 0.964201 0.101072 0.409039
O O2 0.000000 0.000000 0.500000
O O3 0.130316 0.246599 0.325587
O O4 0.999566 0.320488 0.391944
O O5 0.884903 0.134096 0.310646
O O6 0.455264 0.899190 0.566638
O O7 0.576501 0.781977 0.550763
O O8 0.641695 0.979113 0.487598
O O9 0.333914 0.355396 0.130273
O O10 0.314615 0.000000 0.750000
#
# Coordination Sequence:
#
# PCOD8323868 Si02
#       5
#     4  12  12  12  12
#     4   9  18  24  46  83 109 126 153 211 251 304
#     4   9  19  30  51  76 104 133 161 206 259 303
#     4  10  20  35  53  76 100 130 172 210 258 298
#     4  10  21  34  53  74 100 133 166 214 251 299
#     4  10  19  33  50  76 105 133 165 204 254 310
#
# _framework density 17.809421
#
# number of rings (size 3 to 8) (size 9 to 14) (size 15 to 20)
#    0.000    2.308    0.000    3.000    9.692    0.000 
#    0.000    4.615    0.000    0.923    0.000    0.000 
#    0.000    0.000    0.000    0.000    0.000    0.000 
#
# Total GULP energy -644618.729998 kJ/mol
# GULP energy per Si atom -12396.514038 kJ/mol
# Density = 1.776889 g / cm^3
# Si number density = 17.809421 Si / 1000 Ang^3
#
#
#
# Elastic Constant Matrix: (Units=GPa)
#
#
# Indices 1 2 3 4 5 6 
#
# 1 80.0613 37.2454 52.4111 -1.1164 0.0000 0.0000
# 2 37.2454 80.0613 52.4111 1.1164 0.0000 0.0000
# 3 52.4111 52.4111 148.3280 0.0000 0.0000 0.0000
# 4 -1.1164 1.1164 0.0000 17.6389 0.0000 0.0000
# 5 0.0000 0.0000 0.0000 0.0000 17.6389 -1.1164
# 6 0.0000 0.0000 0.0000 0.0000 -1.1164 21.4080
#
#
#
# Elastic Compliance Matrix: (Units=1/GPa)
#
#
# Indices 1 2 3 4 5 6 
#
# 1 0.017946 -0.005487 -0.004402 0.001483 0.000000 0.000000
# 2 -0.005487 0.017946 -0.004402 -0.001483 0.000000 0.000000
# 3 -0.004402 -0.004402 0.009853 0.000000 0.000000 0.000000
# 4 0.001483 -0.001483 0.000000 0.056881 0.000000 0.000000
# 5 0.000000 0.000000 0.000000 0.000000 0.056881 0.002966
# 6 0.000000 0.000000 0.000000 0.000000 0.002966 0.046866
#
#
# Mechanical properties :
#
#
# Convention : Reuss Voigt Hill
#
# Bulk Modulus (GPa) = 58.27190 65.84286 62.05738
# Shear Modulus (GPa) = 20.77490 22.42936 21.60213
#
# Velocity S-wave (km/s) = 3.41913 3.55267 3.48654
# Velocity P-wave (km/s) = 6.95543 7.34028 7.15044
#
# Compressibility (1/GPa) = 0.01716093
#
# Stress axis : x y z
#
# Youngs Moduli (GPa) = 55.72367 55.72367 101.49476
#
# Poissons Ratio (x) = 0.30578 0.44679
# Poissons Ratio (y) = 0.30578 0.44679
# Poissons Ratio (z) = 0.24530 0.24530
#
# Static dielectric constant tensor:
#      x y z
#    x 3.231060 0.000000 0.000000 
#    y 0.000000 3.231060 0.000000 
#    z 0.000000 0.000000 3.298380 
# 
# 
# High freq. dielectric constant tensor:
#      x y z
#    x 1.680500 0.000000 0.000000 
#    y 0.000000 1.680500 0.000000 
#    z 0.000000 0.000000 1.692190 
# 
# From -- ./inp_files/2585.got.cif
#   From: 2010.03.12/outbox.cif.g09.slc.cpg/sg165_2_cif.got.tgz:2585.got - 2010.04.02 06:36:38.
