data_PCOD8323203
_publ_section_title
;
Structure prediction by ZEFSAII (Michael W. Deem and Ramdas Pophale) SiO2 
 PCOD8323203
Probable space group: P -3 1 C
;
_chemical_formula_sum "Si O2"
_cell_formula_units_Z 64
_cell_length_a 14.460248
_cell_length_b 14.460248
_cell_length_c 20.039206
_cell_angle_alpha 90.000000
_cell_angle_beta 90.000000
_cell_angle_gamma 120.000000
_cell_volume 3628.796585
_symmetry_space_group_name_H-M "P -3 1 C"
_symmetry_group_IT_number 163
_symmetry_cell_setting 'hexagonal'
loop_
_space_group_symop_operation_xyz
x,y,z
-y,x-y,z
-x+y,-x,z
-y,-x,1/2-z
-x+y,y,1/2-z
x,x-y,1/2-z
-x,-y,-z
y,-x+y,-z
x-y,x,-z
y,x,1/2+z
x-y,-y,1/2+z
-x,-x+y,1/2+z
loop_
_atom_site_type_symbol
_atom_site_label
_atom_site_fract_x
_atom_site_fract_y
_atom_site_fract_z
Si Si1 0.000000 0.000000 0.577724
Si Si2 0.539103 0.085646 0.441881
Si Si3 0.530956 0.615407 0.805416
Si Si4 0.786275 0.559632 0.090266
Si Si5 0.268168 0.029272 0.757372
Si Si6 0.901876 0.781411 0.358365
O O1 0.887340 0.905485 0.602687
O O2 0.000000 0.000000 0.500000
O O3 0.493075 0.030688 0.369651
O O4 0.490347 0.162441 0.459948
O O5 0.665751 0.154028 0.432625
O O6 0.500000 0.000000 0.500000
O O7 0.439405 0.560596 0.750000
O O8 0.532721 0.723861 0.832953
O O9 0.643863 0.636937 0.776635
O O10 0.848191 0.688252 0.086769
O O11 0.311448 0.155724 0.750000
O O12 0.223053 0.970646 0.687398
O O13 0.177302 0.981969 0.814135
#
# Coordination Sequence:
#
# PCOD8323203 Si02
#       6
#     4  12  12  12  12  12
#     4  12  24  34  50  79 120 156 199 236 274 342
#     4  10  21  39  59  85 121 152 194 245 301 371
#     4   9  20  37  59  92 118 141 198 249 300 352
#     4   9  21  38  59  86 117 154 197 239 311 348
#     4  10  18  33  60  79 117 149 186 233 296 344
#     4  10  20  35  51  83 110 151 192 237 282 346
#
# _framework density 17.636700000000001
#
# number of rings (size 3 to 8) (size 9 to 14) (size 15 to 20)
#    1.125    1.125    1.875    1.500    0.000    3.750 
#    0.000    3.750    0.000    0.375    0.000    0.000 
#    0.000    0.000    0.000    0.000    0.000    0.000 
#
# Total GULP energy -792860.980018 kJ/mol
# GULP energy per Si atom -12388.452813 kJ/mol
# Density = 1.759656 g / cm^3
# Si number density = 17.636700 Si / 1000 Ang^3
#
#
#
# Elastic Constant Matrix: (Units=GPa)
#
#
# Indices 1 2 3 4 5 6 
#
# 1 111.3932 60.5885 48.9936 0.0001 2.6254 0.0000
# 2 60.5885 111.3932 48.9936 -0.0001 -2.6254 0.0000
# 3 48.9936 48.9936 97.0008 0.0000 0.0000 0.0000
# 4 0.0001 -0.0001 0.0000 16.7458 0.0000 -2.6254
# 5 2.6254 -2.6254 0.0000 0.0000 16.7458 0.0001
# 6 0.0000 0.0000 0.0000 -2.6254 0.0001 25.4024
#
#
#
# Elastic Compliance Matrix: (Units=1/GPa)
#
#
# Indices 1 2 3 4 5 6 
#
# 1 0.014086 -0.005922 -0.004123 0.000000 -0.003137 0.000000
# 2 -0.005922 0.014086 -0.004123 0.000000 0.003137 0.000000
# 3 -0.004123 -0.004123 0.014475 0.000000 0.000000 0.000000
# 4 0.000000 0.000000 0.000000 0.060700 0.000000 0.006273
# 5 -0.003137 0.003137 0.000000 0.000000 0.060700 0.000000
# 6 0.000000 0.000000 0.000000 0.006273 0.000000 0.040015
#
#
# Mechanical properties :
#
#
# Convention : Reuss Voigt Hill
#
# Bulk Modulus (GPa) = 69.88821 70.77096 70.32959
# Shear Modulus (GPa) = 21.08216 22.52625 21.80420
#
# Velocity S-wave (km/s) = 3.46115 3.57772 3.51992
# Velocity P-wave (km/s) = 7.46226 7.56842 7.51553
#
# Compressibility (1/GPa) = 0.01430857
#
# Stress axis : x y z
#
# Youngs Moduli (GPa) = 70.99418 70.99418 69.08662
#
# Poissons Ratio (x) = 0.42041 0.28488
# Poissons Ratio (y) = 0.42041 0.28488
# Poissons Ratio (z) = 0.29274 0.29274
#
# Static dielectric constant tensor:
#      x y z
#    x 2.499630 0.000000 0.000000 
#    y 0.000000 2.499630 0.000000 
#    z 0.000000 0.000000 3.094790 
# 
# 
# High freq. dielectric constant tensor:
#      x y z
#    x 1.672100 0.000000 0.000000 
#    y 0.000000 1.672100 0.000000 
#    z 0.000000 0.000000 1.662060 
# 
# From -- ./inp_files/3057.got.cif
#   From: 2010.03.12/outbox.cif.g09.slc.cpg/sg163_2_cif.got.tgz:3057.got - 2010.04.02 06:30:25.
