data_PCOD8324371
_publ_section_title
;
Structure prediction by ZEFSAII (Michael W. Deem and Ramdas Pophale) SiO2 
 PCOD8324371
Probable space group: R -3 C 
;
_chemical_formula_sum "Si O2"
_cell_formula_units_Z 90
_cell_length_a 23.268743
_cell_length_b 23.268743
_cell_length_c 9.235599
_cell_angle_alpha 90.000000
_cell_angle_beta 90.000000
_cell_angle_gamma 120.000000
_cell_volume 4330.534926
_symmetry_space_group_name_H-M "R -3 C "
_symmetry_group_IT_number 167
_symmetry_cell_setting 'hexagonal'
loop_
_space_group_symop_operation_xyz
x,y,z
-y,x-y,z
-x+y,-x,z
x-y,-y,1/2-z
-x,-x+y,1/2-z
y,x,1/2-z
-x,-y,-z
y,-x+y,-z
x-y,x,-z
-x+y,y,1/2+z
x,x-y,1/2+z
-y,-x,1/2+z
2/3+x,1/3+y,1/3+z
2/3-y,1/3+x-y,1/3+z
2/3-x+y,1/3-x,1/3+z
2/3+x-y,1/3-y,5/6-z
2/3-x,1/3-x+y,5/6-z
2/3+y,1/3+x,5/6-z
2/3-x,1/3-y,1/3-z
2/3+y,1/3-x+y,1/3-z
2/3+x-y,1/3+x,1/3-z
2/3-x+y,1/3+y,5/6+z
2/3+x,1/3+x-y,5/6+z
2/3-y,1/3-x,5/6+z
1/3+x,2/3+y,2/3+z
1/3-y,2/3+x-y,2/3+z
1/3-x+y,2/3-x,2/3+z
1/3+x-y,2/3-y,1/6-z
1/3-x,2/3-x+y,1/6-z
1/3+y,2/3+x,1/6-z
1/3-x,2/3-y,2/3-z
1/3+y,2/3-x+y,2/3-z
1/3+x-y,2/3+x,2/3-z
1/3-x+y,2/3+y,1/6+z
1/3+x,2/3+x-y,1/6+z
1/3-y,2/3-x,1/6+z
loop_
_atom_site_type_symbol
_atom_site_label
_atom_site_fract_x
_atom_site_fract_y
_atom_site_fract_z
Si Si1 0.238193 0.828864 0.542581
Si Si2 0.489150 0.624474 0.593594
Si Si3 0.073696 0.073696 0.250000
O O1 0.194960 0.861627 0.583334
O O2 0.310732 0.872505 0.617375
O O3 0.245958 0.824607 0.370495
O O4 0.200728 0.752629 0.596565
O O5 0.442884 0.656700 0.556205
O O6 0.065347 0.000000 0.250000
#
# Coordination Sequence:
#
# PCOD8324371 Si02
#       3
#    36  36  18
#     4  10  22  42  59  88 123 160 211 253 297 366
#     4  10  23  37  63  92 120 163 203 248 312 370
#     4   8  18  34  56  92 130 154 186 234 308 382
#
# _framework density 20.782653
#
# number of rings (size 3 to 8) (size 9 to 14) (size 15 to 20)
#    0.400    2.400    0.000    1.200   11.200    0.000 
#    7.200    8.000    0.000    0.000    0.000    0.000 
#    0.000    0.000    0.000    0.000    0.000    0.000 
#
# Total GULP energy -371690.306456 kJ/mol
# GULP energy per Si atom -12389.676882 kJ/mol
# Density = 2.073535 g / cm^3
# Si number density = 20.782653 Si / 1000 Ang^3
#
#
#
# Elastic Constant Matrix: (Units=GPa)
#
#
# Indices 1 2 3 4 5 6 
#
# 1 99.9831 41.4073 12.7136 -3.7071 -0.0069 -0.0049
# 2 41.4073 99.9918 12.7237 3.7120 -0.0036 -0.0011
# 3 12.7136 12.7237 22.7414 0.0088 -0.0091 -0.0037
# 4 -3.7071 3.7120 0.0088 17.7175 0.0047 0.0007
# 5 -0.0069 -0.0036 -0.0091 0.0047 17.7119 -3.7136
# 6 -0.0049 -0.0011 -0.0037 0.0007 -3.7136 29.2871
#
#
#
# Elastic Compliance Matrix: (Units=1/GPa)
#
#
# Indices 1 2 3 4 5 6 
#
# 1 0.012700 -0.004836 -0.004395 0.003673 0.000001 0.000001
# 2 -0.004836 0.012700 -0.004400 -0.003670 -0.000001 -0.000001
# 3 -0.004395 -0.004400 0.048892 -0.000022 0.000024 0.000008
# 4 0.003673 -0.003670 -0.000022 0.057979 -0.000015 -0.000003
# 5 0.000001 -0.000001 0.000024 -0.000015 0.058001 0.007355
# 6 0.000001 -0.000001 0.000008 -0.000003 0.007355 0.035077
#
#
# Mechanical properties :
#
#
# Convention : Reuss Voigt Hill
#
# Bulk Modulus (GPa) = 21.26410 39.60059 30.43235
# Shear Modulus (GPa) = 18.63668 23.33474 20.98571
#
# Velocity S-wave (km/s) = 2.99781 3.35445 3.18114
# Velocity P-wave (km/s) = 4.71555 5.83945 5.30733
#
# Compressibility (1/GPa) = 0.04702762
#
# Stress axis : x y z
#
# Youngs Moduli (GPa) = 78.74282 78.74237 20.45324
#
# Poissons Ratio (x) = 0.38080 0.08990
# Poissons Ratio (y) = 0.38080 0.09000
# Poissons Ratio (z) = 0.34611 0.34650
#
# Static dielectric constant tensor:
#      x y z
#    x 3.774320 0.000000 0.000000 
#    y 0.000000 3.774320 0.000000 
#    z 0.000000 0.000000 3.477250 
# 
# 
# High freq. dielectric constant tensor:
#      x y z
#    x 1.809740 0.000000 0.000000 
#    y 0.000000 1.809740 0.000000 
#    z 0.000000 0.000000 1.791890 
# 
# From -- ./inp_files/524.got.cif
#   From: 2010.03.12/outbox.cif.g09.slc.cpg/sg167_1_cif.got.tgz:524.got - 2010.04.02 06:42:56.
