data_PCOD8324923
_publ_section_title
;
Structure prediction by ZEFSAII (Michael W. Deem and Ramdas Pophale) SiO2 
 PCOD8324923
Probable space group: P -6
;
_chemical_formula_sum "Si O2"
_cell_formula_units_Z 48
_cell_length_a 17.928852
_cell_length_b 17.928852
_cell_length_c 9.073602
_cell_angle_alpha 90.000000
_cell_angle_beta 90.000000
_cell_angle_gamma 120.000000
_cell_volume 2525.895166
_symmetry_space_group_name_H-M "P -6"
_symmetry_group_IT_number 174
_symmetry_cell_setting 'hexagonal'
loop_
_space_group_symop_operation_xyz
x,y,z
-x+y,-x,-z
-y,x-y,z
x,y,-z
-x+y,-x,z
-y,x-y,-z
loop_
_atom_site_type_symbol
_atom_site_label
_atom_site_fract_x
_atom_site_fract_y
_atom_site_fract_z
Si Si1 0.819009 0.774353 0.328389
Si Si2 0.423330 0.131619 0.329998
Si Si3 0.710827 0.155857 0.828055
Si Si4 0.245928 0.199956 0.168425
Si Si5 0.450281 0.864734 0.824305
Si Si6 0.525663 0.745436 0.174877
Si Si7 0.536068 0.046641 0.672791
Si Si8 0.719016 0.849489 0.828235
O O1 0.827367 0.792382 0.500000
O O2 0.750533 0.676391 0.287153
O O3 0.912603 0.798365 0.267300
O O4 0.788835 0.835298 0.254889
O O5 0.435225 0.160341 0.500000
O O6 0.467825 0.218078 0.231728
O O7 0.463762 0.072036 0.294622
O O8 0.741850 0.087880 0.794511
O O9 0.623187 0.123750 0.739553
O O10 0.695302 0.163032 0.000000
O O11 0.205002 0.258972 0.204257
O O12 0.231545 0.169065 0.000000
O O13 0.483348 0.800983 0.768140
O O14 0.352246 0.823795 0.767622
O O15 0.509726 0.957278 0.752301
O O16 0.457192 0.876161 0.000000
O O17 0.623137 0.786801 0.234208
O O18 0.525254 0.747132 0.000000
O O19 0.547760 0.037308 0.500000
O O20 0.723941 0.832675 0.000000
#
# Coordination Sequence:
#
# PCOD8324923 Si02
#       8
#     6   6   6   6   6   6   6   6
#     4  10  20  35  55  78 104 134 175 222 266 314
#     4   9  20  38  56  76 107 145 178 215 270 332
#     4  10  20  36  59  83 106 135 179 230 273 318
#     4   9  19  36  56  77 104 139 175 216 268 324
#     4  10  19  34  56  82 114 151 193 236 279 324
#     4   9  18  32  54  83 113 147 187 233 276 318
#     4  11  22  36  55  81 113 149 185 222 274 337
#     4  10  19  33  53  78 107 140 178 216 264 325
#
# _framework density 19.003164000000002
#
# number of rings (size 3 to 8) (size 9 to 14) (size 15 to 20)
#    0.000    2.250    0.000    2.875    0.000    5.500 
#    1.500    2.500    0.000    0.000    0.000    0.000 
#    0.000    0.000    0.000    0.000    0.000    0.000 
#
# Total GULP energy -595368.324066 kJ/mol
# GULP energy per Si atom -12403.506751 kJ/mol
# Density = 1.895991 g / cm^3
# Si number density = 19.003164 Si / 1000 Ang^3
#
#
#
# Elastic Constant Matrix: (Units=GPa)
#
#
# Indices 1 2 3 4 5 6 
#
# 1 62.5041 7.1187 25.5044 0.0000 0.0000 0.0000
# 2 7.1187 62.5041 25.5044 0.0000 0.0000 0.0000
# 3 25.5044 25.5044 59.8683 0.0000 0.0000 0.0000
# 4 0.0000 0.0000 0.0000 24.1653 0.0000 0.0000
# 5 0.0000 0.0000 0.0000 0.0000 24.1653 0.0000
# 6 0.0000 0.0000 0.0000 0.0000 0.0000 27.6927
#
#
#
# Elastic Compliance Matrix: (Units=1/GPa)
#
#
# Indices 1 2 3 4 5 6 
#
# 1 0.019468 0.001412 -0.008895 0.000000 0.000000 0.000000
# 2 0.001412 0.019468 -0.008895 0.000000 0.000000 0.000000
# 3 -0.008895 -0.008895 0.024282 0.000000 0.000000 0.000000
# 4 0.000000 0.000000 0.000000 0.041382 0.000000 0.000000
# 5 0.000000 0.000000 0.000000 0.000000 0.041382 0.000000
# 6 0.000000 0.000000 0.000000 0.000000 0.000000 0.036111
#
#
# Mechanical properties :
#
#
# Convention : Reuss Voigt Hill
#
# Bulk Modulus (GPa) = 32.82791 33.45905 33.14348
# Shear Modulus (GPa) = 22.22213 23.65458 22.93835
#
# Velocity S-wave (km/s) = 3.42335 3.53196 3.47808
# Velocity P-wave (km/s) = 5.73918 5.85477 5.79726
#
# Compressibility (1/GPa) = 0.03046188
#
# Stress axis : x y z
#
# Youngs Moduli (GPa) = 51.36721 51.36721 41.18264
#
# Poissons Ratio (x) = -0.07255 0.36632
# Poissons Ratio (y) = -0.07255 0.36632
# Poissons Ratio (z) = 0.45691 0.45691
#
# Static dielectric constant tensor:
#      x y z
#    x 3.522120 0.000000 0.000000 
#    y 0.000000 3.522120 0.000000 
#    z 0.000000 0.000000 3.331100 
# 
# 
# High freq. dielectric constant tensor:
#      x y z
#    x 1.742130 0.000000 0.000000 
#    y 0.000000 1.742130 0.000000 
#    z 0.000000 0.000000 1.723950 
# 
# From -- ./inp_files/524.got.cif
#   From: 2010.03.12/outbox.cif.g09.slc.cpg/sg174_cif.got.tgz:524.got - 2010.04.02 06:54:58.
