data_PCOD8324303
_publ_section_title
;
Structure prediction by ZEFSAII (Michael W. Deem and Ramdas Pophale) SiO2 
 PCOD8324303
Probable space group: R -3 C 
;
_chemical_formula_sum "Si O2"
_cell_formula_units_Z 270
_cell_length_a 25.810180
_cell_length_b 25.810180
_cell_length_c 30.125575
_cell_angle_alpha 90.000000
_cell_angle_beta 90.000000
_cell_angle_gamma 120.000000
_cell_volume 17379.930814
_symmetry_space_group_name_H-M "R -3 C "
_symmetry_group_IT_number 167
_symmetry_cell_setting 'hexagonal'
loop_
_space_group_symop_operation_xyz
x,y,z
-y,x-y,z
-x+y,-x,z
x-y,-y,1/2-z
-x,-x+y,1/2-z
y,x,1/2-z
-x,-y,-z
y,-x+y,-z
x-y,x,-z
-x+y,y,1/2+z
x,x-y,1/2+z
-y,-x,1/2+z
2/3+x,1/3+y,1/3+z
2/3-y,1/3+x-y,1/3+z
2/3-x+y,1/3-x,1/3+z
2/3+x-y,1/3-y,5/6-z
2/3-x,1/3-x+y,5/6-z
2/3+y,1/3+x,5/6-z
2/3-x,1/3-y,1/3-z
2/3+y,1/3-x+y,1/3-z
2/3+x-y,1/3+x,1/3-z
2/3-x+y,1/3+y,5/6+z
2/3+x,1/3+x-y,5/6+z
2/3-y,1/3-x,5/6+z
1/3+x,2/3+y,2/3+z
1/3-y,2/3+x-y,2/3+z
1/3-x+y,2/3-x,2/3+z
1/3+x-y,2/3-y,1/6-z
1/3-x,2/3-x+y,1/6-z
1/3+y,2/3+x,1/6-z
1/3-x,2/3-y,2/3-z
1/3+y,2/3-x+y,2/3-z
1/3+x-y,2/3+x,2/3-z
1/3-x+y,2/3+y,1/6+z
1/3+x,2/3+x-y,1/6+z
1/3-y,2/3-x,1/6+z
loop_
_atom_site_type_symbol
_atom_site_label
_atom_site_fract_x
_atom_site_fract_y
_atom_site_fract_z
Si Si1 0.783514 0.186009 0.667080
Si Si2 0.916899 0.555697 0.989467
Si Si3 0.099847 0.364995 0.403158
Si Si4 0.430422 0.946064 0.782692
Si Si5 0.311430 0.145525 0.021813
Si Si6 0.811677 0.079305 0.435465
Si Si7 0.384731 0.051398 0.583334
Si Si8 0.210011 0.263438 0.419677
O O1 0.833334 0.166667 0.666667
O O2 0.817677 0.257908 0.673490
O O3 0.749091 0.162605 0.620146
O O4 0.735157 0.152176 0.704784
O O5 0.872196 0.566619 0.958713
O O6 0.981527 0.589719 0.966080
O O7 0.917299 0.578133 0.039186
O O8 0.064601 0.397935 0.416667
O O9 0.116589 0.338466 0.445084
O O10 0.459797 0.911238 0.758295
O O11 0.438685 0.000000 0.750000
O O12 0.463384 0.970800 0.829713
O O13 0.269078 0.164696 0.047187
O O14 0.271076 0.093732 0.987432
O O15 0.762721 0.096054 0.416667
O O16 0.792538 0.010424 0.431691
O O17 0.321007 0.046065 0.578604
#
# Coordination Sequence:
#
# PCOD8324303 Si02
#       8
#    36  36  36  36  36  36  18  36
#     4  10  20  34  44  74 104 130 174 207 242 303
#     4  11  20  33  49  70 103 137 173 209 245 298
#     4  11  22  31  48  74 104 138 170 208 250 302
#     4   9  20  34  47  72  99 129 174 214 249 303
#     4  10  20  34  47  74 100 135 173 213 243 303
#     4   9  22  33  50  74 100 134 175 209 258 308
#     4  12  20  26  54  74  92 156 170 190 258 304
#     4  12  19  35  51  70 105 139 174 208 247 311
#
# _framework density 15.535159
#
# number of rings (size 3 to 8) (size 9 to 14) (size 15 to 20)
#    0.000    1.867    7.333    0.400    5.600    2.133 
#    0.000    0.000    0.000    0.000    0.000    0.000 
#    1.333    1.067    2.267    0.000    0.000    0.000 
#
# Total GULP energy -1115409.540933 kJ/mol
# GULP energy per Si atom -12393.439344 kJ/mol
# Density = 1.549980 g / cm^3
# Si number density = 15.535159 Si / 1000 Ang^3
#
#
#
# Elastic Constant Matrix: (Units=GPa)
#
#
# Indices 1 2 3 4 5 6 
#
# 1 94.6034 43.6559 43.5401 -4.0143 -0.0003 0.0000
# 2 43.6559 94.6034 43.5401 4.0143 0.0003 0.0000
# 3 43.5401 43.5401 106.1788 0.0000 0.0000 0.0000
# 4 -4.0143 4.0143 0.0000 21.7524 0.0000 0.0003
# 5 -0.0003 0.0003 0.0000 0.0000 21.7524 -4.0143
# 6 0.0000 0.0000 0.0000 0.0003 -4.0143 25.4738
#
#
#
# Elastic Compliance Matrix: (Units=1/GPa)
#
#
# Indices 1 2 3 4 5 6 
#
# 1 0.014984 -0.005232 -0.003999 0.003731 0.000000 0.000000
# 2 -0.005232 0.014984 -0.003999 -0.003731 0.000000 0.000000
# 3 -0.003999 -0.003999 0.012697 0.000000 0.000000 0.000000
# 4 0.003731 -0.003731 0.000000 0.047349 0.000000 -0.000001
# 5 0.000000 0.000000 0.000000 0.000000 0.047349 0.007462
# 6 0.000000 0.000000 0.000000 -0.000001 0.007462 0.040432
#
#
# Mechanical properties :
#
#
# Convention : Reuss Voigt Hill
#
# Bulk Modulus (GPa) = 61.70772 61.87311 61.79042
# Shear Modulus (GPa) = 23.84865 24.77236 24.31051
#
# Velocity S-wave (km/s) = 3.92234 3.99758 3.96014
# Velocity P-wave (km/s) = 7.76663 7.82443 7.79558
#
# Compressibility (1/GPa) = 0.01620543
#
# Stress axis : x y z
#
# Youngs Moduli (GPa) = 66.73961 66.73961 78.75584
#
# Poissons Ratio (x) = 0.34920 0.31492
# Poissons Ratio (y) = 0.34920 0.31492
# Poissons Ratio (z) = 0.26687 0.26687
#
# Static dielectric constant tensor:
#      x y z
#    x 2.952770 0.000000 0.000000 
#    y 0.000000 2.952770 0.000000 
#    z 0.000000 0.000000 3.314890 
# 
# 
# High freq. dielectric constant tensor:
#      x y z
#    x 1.569260 0.000000 0.000000 
#    y 0.000000 1.569260 0.000000 
#    z 0.000000 0.000000 1.620250 
# 
# From -- ./inp_files/7293.got.cif
#   From: 2010.03.12/outbox.cif.g09.slc.cpg/sg167_4_cif.got.tgz:7293.got - 2010.04.02 06:42:56.
