data_PCOD8324781
_publ_section_title
;
Structure prediction by ZEFSAII (Michael W. Deem and Ramdas Pophale) SiO2 
 PCOD8324781
Probable space group: P 62
;
_chemical_formula_sum "Si O2"
_cell_formula_units_Z 42
_cell_length_a 11.077648
_cell_length_b 11.077648
_cell_length_c 19.837694
_cell_angle_alpha 90.000000
_cell_angle_beta 90.000000
_cell_angle_gamma 120.000000
_cell_volume 2108.224911
_symmetry_space_group_name_H-M "P 62"
_symmetry_group_IT_number 171
_symmetry_cell_setting 'hexagonal'
loop_
_space_group_symop_operation_xyz
x,y,z
x-y,x,1/3+z
-y,x-y,2/3+z
-x,-y,z
-x+y,-x,1/3+z
y,-x+y,2/3+z
loop_
_atom_site_type_symbol
_atom_site_label
_atom_site_fract_x
_atom_site_fract_y
_atom_site_fract_z
Si Si1 0.348068 0.651932 0.346610
Si Si2 0.119168 0.880832 0.346610
Si Si3 0.572438 0.663203 0.434486
Si Si4 0.572438 0.909234 0.925401
Si Si5 0.872852 0.529151 0.920037
Si Si6 0.656299 0.529151 0.106516
Si Si7 1.000000 0.186181 0.679943
O O1 0.502191 0.715439 0.378543
O O2 0.284561 0.497809 0.314677
O O3 0.348842 0.742651 0.283871
O O4 0.257350 0.651158 0.409349
O O5 0.219641 0.886334 0.287347
O O6 0.113666 0.780359 0.405874
O O7 0.958547 0.821651 0.328187
O O8 0.178349 0.041453 0.365033
O O9 0.500000 0.500000 0.429292
O O10 0.551004 0.704153 0.509160
O O11 0.734552 0.725123 0.413846
O O12 0.551004 0.846851 0.850727
O O13 0.500000 0.000000 0.930595
O O14 0.734552 0.009429 0.946040
O O15 0.000000 0.500000 0.930322
O O16 0.500000 0.500000 0.096231
#
# Coordination Sequence:
#
# PCOD8324781 Si02
#       7
#     6   6   6   6   6   6   6
#     4  11  19  39  59  89 121 158 212 266 315 381
#     4  10  24  41  59  94 124 174 198 270 336 374
#     4  11  21  37  64  94 117 170 215 265 318 386
#     4  11  21  37  64  94 117 170 215 265 318 386
#     4  10  23  38  60  89 127 161 213 259 326 391
#     4  10  23  38  60  89 127 161 213 259 326 391
#     4  11  21  40  64  84 133 159 216 264 316 403
#
# _framework density 19.921970999999999
#
# number of rings (size 3 to 8) (size 9 to 14) (size 15 to 20)
#    0.000    1.429    2.857    2.571    0.000    2.286 
#    0.000    2.857    0.000    5.143    0.000    0.000 
#    0.000    0.000    0.000    0.000    0.000    0.000 
#
# Total GULP energy -520326.979731 kJ/mol
# GULP energy per Si atom -12388.737613 kJ/mol
# Density = 1.987663 g / cm^3
# Si number density = 19.921971 Si / 1000 Ang^3
#
#
#
# Elastic Constant Matrix: (Units=GPa)
#
#
# Indices 1 2 3 4 5 6 
#
# 1 108.6150 43.1703 58.6937 0.0000 0.0000 0.0000
# 2 43.1703 108.6150 58.6937 0.0000 0.0000 0.0000
# 3 58.6937 58.6937 158.8424 0.0000 0.0000 0.0000
# 4 0.0000 0.0000 0.0000 12.3844 0.0000 0.0000
# 5 0.0000 0.0000 0.0000 0.0000 12.3844 0.0000
# 6 0.0000 0.0000 0.0000 0.0000 0.0000 32.7223
#
#
#
# Elastic Compliance Matrix: (Units=1/GPa)
#
#
# Indices 1 2 3 4 5 6 
#
# 1 0.012252 -0.003028 -0.003408 0.000000 0.000000 0.000000
# 2 -0.003028 0.012252 -0.003408 0.000000 0.000000 0.000000
# 3 -0.003408 -0.003408 0.008814 0.000000 0.000000 0.000000
# 4 0.000000 0.000000 0.000000 0.080747 0.000000 0.000000
# 5 0.000000 0.000000 0.000000 0.000000 0.080747 0.000000
# 6 0.000000 0.000000 0.000000 0.000000 0.000000 0.030560
#
#
# Mechanical properties :
#
#
# Convention : Reuss Voigt Hill
#
# Bulk Modulus (GPa) = 73.37192 77.46533 75.41862
# Shear Modulus (GPa) = 20.03165 25.86587 22.94876
#
# Velocity S-wave (km/s) = 3.17441 3.60718 3.39769
# Velocity P-wave (km/s) = 7.09545 7.50452 7.30285
#
# Compressibility (1/GPa) = 0.01362919
#
# Stress axis : x y z
#
# Youngs Moduli (GPa) = 81.61813 81.61813 113.44996
#
# Poissons Ratio (x) = 0.24713 0.38669
# Poissons Ratio (y) = 0.24713 0.38669
# Poissons Ratio (z) = 0.27819 0.27819
#
# Static dielectric constant tensor:
#      x y z
#    x 3.952470 0.000000 0.000000 
#    y 0.000000 3.952470 0.000000 
#    z 0.000000 0.000000 4.032290 
# 
# 
# High freq. dielectric constant tensor:
#      x y z
#    x 1.783710 0.000000 0.000000 
#    y 0.000000 1.783710 0.000000 
#    z 0.000000 0.000000 1.776530 
# 
# From -- ./inp_files/3976.got.cif
#   From: 2010.03.12/outbox.cif.g09.slc.cpg/sg171_2_cif.got.tgz:3976.got - 2010.04.02 06:49:11.
