data_PCOD8324119
_publ_section_title
;
Structure prediction by ZEFSAII (Michael W. Deem and Ramdas Pophale) SiO2 
 PCOD8324119
Probable space group: R -3 M
;
_chemical_formula_sum "Si O2"
_cell_formula_units_Z 108
_cell_length_a 21.567484
_cell_length_b 21.567484
_cell_length_c 14.651471
_cell_angle_alpha 90.000000
_cell_angle_beta 90.000000
_cell_angle_gamma 120.000000
_cell_volume 5902.157990
_symmetry_space_group_name_H-M "R -3 M"
_symmetry_group_IT_number 166
_symmetry_cell_setting 'hexagonal'
loop_
_space_group_symop_operation_xyz
x,y,z
-y,x-y,z
-x+y,-x,z
x-y,-y,-z
-x,-x+y,-z
y,x,-z
-x,-y,-z
y,-x+y,-z
x-y,x,-z
-x+y,y,z
x,x-y,z
-y,-x,z
2/3+x,1/3+y,1/3+z
2/3-y,1/3+x-y,1/3+z
2/3-x+y,1/3-x,1/3+z
2/3+x-y,1/3-y,1/3-z
2/3-x,1/3-x+y,1/3-z
2/3+y,1/3+x,1/3-z
2/3-x,1/3-y,1/3-z
2/3+y,1/3-x+y,1/3-z
2/3+x-y,1/3+x,1/3-z
2/3-x+y,1/3+y,1/3+z
2/3+x,1/3+x-y,1/3+z
2/3-y,1/3-x,1/3+z
1/3+x,2/3+y,2/3+z
1/3-y,2/3+x-y,2/3+z
1/3-x+y,2/3-x,2/3+z
1/3+x-y,2/3-y,2/3-z
1/3-x,2/3-x+y,2/3-z
1/3+y,2/3+x,2/3-z
1/3-x,2/3-y,2/3-z
1/3+y,2/3-x+y,2/3-z
1/3+x-y,2/3+x,2/3-z
1/3-x+y,2/3+y,2/3+z
1/3+x,2/3+x-y,2/3+z
1/3-y,2/3-x,2/3+z
loop_
_atom_site_type_symbol
_atom_site_label
_atom_site_fract_x
_atom_site_fract_y
_atom_site_fract_z
Si Si1 0.937794 0.539480 0.764685
Si Si2 0.954802 0.769884 0.909317
Si Si3 0.605392 0.539604 0.560252
O O1 0.907742 0.453871 0.770665
O O2 0.892778 0.559445 0.833334
O O3 0.930096 0.564208 0.662563
O O4 0.021199 0.580889 0.789373
O O5 0.898848 0.797695 0.925460
O O6 0.008299 0.813999 0.826483
O O7 0.000000 0.781142 0.000000
O O8 0.600953 0.600953 0.500000
O O9 0.526682 0.473319 0.569489
#
# Coordination Sequence:
#
# PCOD8324119 Si02
#       3
#    36  36  36
#     4  10  22  36  55  83 113 146 183 226 278 330
#     4  11  21  33  53  82 111 144 183 224 276 331
#     4  10  19  35  56  77 106 147 188 224 269 328
#
# _framework density 18.298392
#
# number of rings (size 3 to 8) (size 9 to 14) (size 15 to 20)
#    0.000    1.667    3.333    2.000    0.000    1.333 
#    0.000    3.333    0.000    6.333    0.000    0.000 
#    0.000    0.000    0.000    0.000    0.000    0.000 
#
# Total GULP energy -446283.274339 kJ/mol
# GULP energy per Si atom -12396.757621 kJ/mol
# Density = 1.825674 g / cm^3
# Si number density = 18.298392 Si / 1000 Ang^3
#
#
#
# Elastic Constant Matrix: (Units=GPa)
#
#
# Indices 1 2 3 4 5 6 
#
# 1 59.5434 19.0000 38.7029 2.5373 0.0000 0.0000
# 2 19.0000 59.5434 38.7029 -2.5373 0.0000 0.0000
# 3 38.7029 38.7029 156.5021 0.0000 0.0000 0.0000
# 4 2.5373 -2.5373 0.0000 28.7217 0.0000 0.0000
# 5 0.0000 0.0000 0.0000 0.0000 28.7217 2.5373
# 6 0.0000 0.0000 0.0000 0.0000 2.5373 20.2717
#
#
#
# Elastic Compliance Matrix: (Units=1/GPa)
#
#
# Indices 1 2 3 4 5 6 
#
# 1 0.020888 -0.004053 -0.004163 -0.002203 0.000000 0.000000
# 2 -0.004053 0.020888 -0.004163 0.002203 0.000000 0.000000
# 3 -0.004163 -0.004163 0.008449 0.000000 0.000000 0.000000
# 4 -0.002203 0.002203 0.000000 0.035206 0.000000 0.000000
# 5 0.000000 0.000000 0.000000 0.000000 0.035206 -0.004407
# 6 0.000000 0.000000 0.000000 0.000000 -0.004407 0.049881
#
#
# Mechanical properties :
#
#
# Convention : Reuss Voigt Hill
#
# Bulk Modulus (GPa) = 39.26897 52.04451 45.65674
# Shear Modulus (GPa) = 24.53803 27.48856 26.01329
#
# Velocity S-wave (km/s) = 3.66593 3.88008 3.77452
# Velocity P-wave (km/s) = 6.27899 6.96973 6.63336
#
# Compressibility (1/GPa) = 0.02546540
#
# Stress axis : x y z
#
# Youngs Moduli (GPa) = 47.87498 47.87498 118.35973
#
# Poissons Ratio (x) = 0.19404 0.49276
# Poissons Ratio (y) = 0.19404 0.49276
# Poissons Ratio (z) = 0.19931 0.19931
#
# Static dielectric constant tensor:
#      x y z
#    x 3.289500 0.000000 0.000000 
#    y 0.000000 3.289500 0.000000 
#    z 0.000000 0.000000 3.544750 
# 
# 
# High freq. dielectric constant tensor:
#      x y z
#    x 1.687680 0.000000 0.000000 
#    y 0.000000 1.687680 0.000000 
#    z 0.000000 0.000000 1.722360 
# 
# From -- ./inp_files/2542.got.cif
#   From: 2010.03.12/outbox.cif.g09.slc.cpg/sg166_2_cif.got.tgz:2542.got - 2010.04.02 06:38:31.
