data_PCOD8324822
_publ_section_title
;
Structure prediction by ZEFSAII (Michael W. Deem and Ramdas Pophale) SiO2 
 PCOD8324822
Probable space group: P 64
;
_chemical_formula_sum "Si O2"
_cell_formula_units_Z 39
_cell_length_a 13.979553
_cell_length_b 13.979553
_cell_length_c 13.270904
_cell_angle_alpha 90.000000
_cell_angle_beta 90.000000
_cell_angle_gamma 120.000000
_cell_volume 2246.041152
_symmetry_space_group_name_H-M "P 64"
_symmetry_group_IT_number 172
_symmetry_cell_setting 'hexagonal'
loop_
_space_group_symop_operation_xyz
x,y,z
x-y,x,2/3+z
-y,x-y,1/3+z
-x,-y,z
-x+y,-x,2/3+z
y,-x+y,1/3+z
loop_
_atom_site_type_symbol
_atom_site_label
_atom_site_fract_x
_atom_site_fract_y
_atom_site_fract_z
Si Si1 0.000000 0.000000 0.914310
Si Si2 0.167937 0.605444 0.418181
Si Si3 0.664282 0.328563 0.914311
Si Si4 0.909020 0.090981 0.080977
Si Si5 0.663522 0.638866 0.463936
Si Si6 0.394557 0.832063 0.743774
Si Si7 0.336478 0.975343 0.031352
O O1 0.893754 0.924600 0.844860
O O2 0.030846 0.924600 0.983760
O O3 0.217706 0.623851 0.529622
O O4 0.256349 0.680882 0.333535
O O5 0.130609 0.479800 0.386081
O O6 0.074967 0.639502 0.425127
O O7 0.680881 0.256349 0.828419
O O8 0.782294 0.406144 0.965666
O O9 0.962422 0.221723 0.094323
O O10 0.778277 0.037580 0.067631
O O11 0.650810 0.520201 0.442541
O O12 0.564534 0.639501 0.403493
O O13 0.648307 0.648308 0.580977
#
# Coordination Sequence:
#
# PCOD8324822 Si02
#       7
#     3   6   6   6   6   6   6
#     4  10  24  40  52  84 100 144 196 242 260 342
#     4  10  20  33  55  85 118 136 193 213 280 343
#     4  10  18  32  54  82 114 152 164 230 274 334
#     4  11  22  38  60  74 112 142 190 231 290 308
#     4  11  20  36  57  85 107 149 186 239 271 336
#     4  10  20  33  55  85 118 136 193 213 280 343
#     4  11  20  36  57  85 107 149 186 239 271 336
#
# _framework density 17.363885
#
# number of rings (size 3 to 8) (size 9 to 14) (size 15 to 20)
#    0.000    1.538    4.615    2.769    0.000    1.231 
#    0.000    0.000    0.000   14.769    0.000    0.000 
#    0.000    0.000    0.000    0.000    0.000    0.000 
#
# Total GULP energy -483508.024060 kJ/mol
# GULP energy per Si atom -12397.641643 kJ/mol
# Density = 1.732436 g / cm^3
# Si number density = 17.363885 Si / 1000 Ang^3
#
#
#
# Elastic Constant Matrix: (Units=GPa)
#
#
# Indices 1 2 3 4 5 6 
#
# 1 119.0154 63.8639 62.4236 0.0000 0.0000 0.0000
# 2 63.8639 119.0154 62.4236 0.0000 0.0000 0.0000
# 3 62.4236 62.4236 121.7822 0.0000 0.0000 0.0000
# 4 0.0000 0.0000 0.0000 30.5165 0.0000 0.0000
# 5 0.0000 0.0000 0.0000 0.0000 30.5165 0.0000
# 6 0.0000 0.0000 0.0000 0.0000 0.0000 27.5757
#
#
#
# Elastic Compliance Matrix: (Units=1/GPa)
#
#
# Indices 1 2 3 4 5 6 
#
# 1 0.013272 -0.004860 -0.004312 0.000000 0.000000 0.000000
# 2 -0.004860 0.013272 -0.004312 0.000000 0.000000 0.000000
# 3 -0.004312 -0.004312 0.012632 0.000000 0.000000 0.000000
# 4 0.000000 0.000000 0.000000 0.032769 0.000000 0.000000
# 5 0.000000 0.000000 0.000000 0.000000 0.032769 0.000000
# 6 0.000000 0.000000 0.000000 0.000000 0.000000 0.036264
#
#
# Mechanical properties :
#
#
# Convention : Reuss Voigt Hill
#
# Bulk Modulus (GPa) = 81.91282 81.91503 81.91392
# Shear Modulus (GPa) = 29.06755 29.12854 29.09805
#
# Velocity S-wave (km/s) = 4.09592 4.10022 4.09807
# Velocity P-wave (km/s) = 8.34538 8.34827 8.34683
#
# Compressibility (1/GPa) = 0.01220810
#
# Stress axis : x y z
#
# Youngs Moduli (GPa) = 75.34827 75.34827 79.16703
#
# Poissons Ratio (x) = 0.36621 0.34134
# Poissons Ratio (y) = 0.36621 0.34134
# Poissons Ratio (z) = 0.32487 0.32487
#
# Static dielectric constant tensor:
#      x y z
#    x 3.324430 0.000000 0.000000 
#    y 0.000000 3.324430 0.000000 
#    z 0.000000 0.000000 3.264140 
# 
# 
# High freq. dielectric constant tensor:
#      x y z
#    x 1.670060 0.000000 0.000000 
#    y 0.000000 1.670060 0.000000 
#    z 0.000000 0.000000 1.671520 
# 
# From -- ./inp_files/1060.got.cif
#   From: 2010.03.12/outbox.cif.g09.slc.cpg/sg172_1_cif.got.tgz:1060.got - 2010.04.02 06:52:29.
