data_PCOD8324893
_publ_section_title
;
Structure prediction by ZEFSAII (Michael W. Deem and Ramdas Pophale) SiO2 
 PCOD8324893
Probable space group: P 63
;
_chemical_formula_sum "Si O2"
_cell_formula_units_Z 36
_cell_length_a 8.597356
_cell_length_b 8.597356
_cell_length_c 26.517666
_cell_angle_alpha 90.000000
_cell_angle_beta 90.000000
_cell_angle_gamma 120.000000
_cell_volume 1697.445146
_symmetry_space_group_name_H-M "P 63"
_symmetry_group_IT_number 173
_symmetry_cell_setting 'hexagonal'
loop_
_space_group_symop_operation_xyz
x,y,z
x-y,x,1/2+z
-y,x-y,z
-x,-y,1/2+z
-x+y,-x,z
y,-x+y,1/2+z
loop_
_atom_site_type_symbol
_atom_site_label
_atom_site_fract_x
_atom_site_fract_y
_atom_site_fract_z
Si Si1 0.466905 0.896076 0.445200
Si Si2 0.642000 0.004054 0.343854
Si Si3 0.637945 0.995945 0.154831
Si Si4 0.683599 0.685242 0.306372
Si Si5 0.316402 0.001644 0.192313
Si Si6 0.103924 0.533094 0.553485
O O1 0.249258 0.785017 0.442102
O O2 0.569354 0.027381 0.398641
O O3 0.499561 0.999123 0.499343
O O4 0.619224 0.809130 0.334308
O O5 0.517764 0.034393 0.304142
O O6 0.848374 0.152165 0.337804
O O7 0.541974 0.972619 0.100044
O O8 0.810093 0.190869 0.164377
O O9 0.483370 0.965607 0.194543
O O10 0.696209 0.847835 0.160881
O O11 0.749516 0.749515 0.249343
O O12 0.249258 0.464241 0.556583
#
# Coordination Sequence:
#
# PCOD8324893 Si02
#       6
#     6   6   6   6   6   6
#     4   8  15  35  68  91 116 160 203 261 332 388
#     4  12  23  42  63  94 130 173 220 272 329 392
#     4  12  23  42  63  94 130 173 220 272 329 392
#     4  12  24  39  61  91 130 174 221 267 325 393
#     4  12  24  39  61  91 130 174 221 267 325 393
#     4   8  15  35  68  91 116 160 203 261 332 388
#
# _framework density 21.208341999999998
#
# number of rings (size 3 to 8) (size 9 to 14) (size 15 to 20)
#    0.667    0.667    3.333    5.000    0.000    0.000 
#    0.000    1.667    0.000    0.000    0.000    0.000 
#    0.000    0.000    0.000    0.000    0.000    0.000 
#
# Total GULP energy -445999.172603 kJ/mol
# GULP energy per Si atom -12388.865906 kJ/mol
# Density = 2.116007 g / cm^3
# Si number density = 21.208342 Si / 1000 Ang^3
#
#
#
# Elastic Constant Matrix: (Units=GPa)
#
#
# Indices 1 2 3 4 5 6 
#
# 1 75.3205 13.4472 29.8641 0.0000 0.0000 0.0000
# 2 13.4472 75.3205 29.8641 0.0000 0.0000 0.0000
# 3 29.8641 29.8641 178.8609 0.0000 0.0000 0.0000
# 4 0.0000 0.0000 0.0000 26.6839 0.0000 0.0000
# 5 0.0000 0.0000 0.0000 0.0000 26.6839 0.0000
# 6 0.0000 0.0000 0.0000 0.0000 0.0000 30.9367
#
#
#
# Elastic Compliance Matrix: (Units=1/GPa)
#
#
# Indices 1 2 3 4 5 6 
#
# 1 0.014427 -0.001735 -0.002119 0.000000 0.000000 0.000000
# 2 -0.001735 0.014427 -0.002119 0.000000 0.000000 0.000000
# 3 -0.002119 -0.002119 0.006299 0.000000 0.000000 0.000000
# 4 0.000000 0.000000 0.000000 0.037476 0.000000 0.000000
# 5 0.000000 0.000000 0.000000 0.000000 0.037476 0.000000
# 6 0.000000 0.000000 0.000000 0.000000 0.000000 0.032324
#
#
# Mechanical properties :
#
#
# Convention : Reuss Voigt Hill
#
# Bulk Modulus (GPa) = 43.09456 52.87253 47.98355
# Shear Modulus (GPa) = 30.84335 33.94930 32.39633
#
# Velocity S-wave (km/s) = 3.81767 4.00528 3.91260
# Velocity P-wave (km/s) = 6.30845 6.80984 6.56393
#
# Compressibility (1/GPa) = 0.02320478
#
# Stress axis : x y z
#
# Youngs Moduli (GPa) = 69.31637 69.31637 158.76653
#
# Poissons Ratio (x) = 0.12030 0.33643
# Poissons Ratio (y) = 0.12030 0.33643
# Poissons Ratio (z) = 0.14688 0.14688
#
# Static dielectric constant tensor:
#      x y z
#    x 3.470270 0.000000 0.000000 
#    y 0.000000 3.470270 0.000000 
#    z 0.000000 0.000000 3.911940 
# 
# 
# High freq. dielectric constant tensor:
#      x y z
#    x 1.804380 0.000000 0.000000 
#    y 0.000000 1.804380 0.000000 
#    z 0.000000 0.000000 1.844760 
# 
# From -- ./inp_files/1484.got.cif
#   From: 2010.03.12/outbox.cif.g09.slc.cpg/sg173_cif.got.tgz:1484.got - 2010.04.02 06:54:12.
