data_PCOD8324206
_publ_section_title
;
Structure prediction by ZEFSAII (Michael W. Deem and Ramdas Pophale) SiO2 
 PCOD8324206
Probable space group: R -3 M
;
_chemical_formula_sum "Si O2"
_cell_formula_units_Z 144
_cell_length_a 19.420484
_cell_length_b 19.420484
_cell_length_c 19.318777
_cell_angle_alpha 90.000000
_cell_angle_beta 90.000000
_cell_angle_gamma 120.000000
_cell_volume 6310.014534
_symmetry_space_group_name_H-M "R -3 M"
_symmetry_group_IT_number 166
_symmetry_cell_setting 'hexagonal'
loop_
_space_group_symop_operation_xyz
x,y,z
-y,x-y,z
-x+y,-x,z
x-y,-y,-z
-x,-x+y,-z
y,x,-z
-x,-y,-z
y,-x+y,-z
x-y,x,-z
-x+y,y,z
x,x-y,z
-y,-x,z
2/3+x,1/3+y,1/3+z
2/3-y,1/3+x-y,1/3+z
2/3-x+y,1/3-x,1/3+z
2/3+x-y,1/3-y,1/3-z
2/3-x,1/3-x+y,1/3-z
2/3+y,1/3+x,1/3-z
2/3-x,1/3-y,1/3-z
2/3+y,1/3-x+y,1/3-z
2/3+x-y,1/3+x,1/3-z
2/3-x+y,1/3+y,1/3+z
2/3+x,1/3+x-y,1/3+z
2/3-y,1/3-x,1/3+z
1/3+x,2/3+y,2/3+z
1/3-y,2/3+x-y,2/3+z
1/3-x+y,2/3-x,2/3+z
1/3+x-y,2/3-y,2/3-z
1/3-x,2/3-x+y,2/3-z
1/3+y,2/3+x,2/3-z
1/3-x,2/3-y,2/3-z
1/3+y,2/3-x+y,2/3-z
1/3+x-y,2/3+x,2/3-z
1/3-x+y,2/3+y,2/3+z
1/3+x,2/3+x-y,2/3+z
1/3-y,2/3-x,2/3+z
loop_
_atom_site_type_symbol
_atom_site_label
_atom_site_fract_x
_atom_site_fract_y
_atom_site_fract_z
Si Si1 0.611823 0.977733 0.594878
Si Si2 0.803841 0.975982 0.700293
Si Si3 0.335692 0.511449 0.816100
Si Si4 0.872553 0.590806 0.770010
O O1 0.598650 0.931983 0.666667
O O2 0.558357 0.910733 0.539559
O O3 0.588507 0.044575 0.609695
O O4 0.703228 0.029220 0.569457
O O5 0.830626 0.915313 0.672164
O O6 0.853569 0.019456 0.768597
O O7 0.820758 0.036036 0.637716
O O8 0.261743 0.523486 0.796104
O O9 0.417060 0.582941 0.781732
O O10 0.812203 0.624405 0.786275
O O11 0.866039 0.532705 0.833334
#
# Coordination Sequence:
#
# PCOD8324206 Si02
#       4
#    36  36  36  36
#     4  10  23  39  60  90 124 160 206 262 318 375
#     4  10  21  38  60  86 119 161 207 255 309 370
#     4  11  23  40  63  92 128 170 216 266 320 378
#     4  11  23  39  62  93 126 161 204 255 312 374
#
# _framework density 22.820867
#
# number of rings (size 3 to 8) (size 9 to 14) (size 15 to 20)
#    0.000    1.500    0.000    4.750    0.000   15.500 
#    0.000    0.000    0.000    7.500    0.000    0.000 
#    0.000    0.000    0.000    0.000    0.000    0.000 
#
# Total GULP energy -594652.765402 kJ/mol
# GULP energy per Si atom -12388.599279 kJ/mol
# Density = 2.276893 g / cm^3
# Si number density = 22.820867 Si / 1000 Ang^3
#
#
#
# Elastic Constant Matrix: (Units=GPa)
#
#
# Indices 1 2 3 4 5 6 
#
# 1 86.8392 70.4251 19.3937 -3.2950 0.0012 0.0000
# 2 70.4251 86.8392 19.3937 3.2950 -0.0012 0.0000
# 3 19.3937 19.3937 98.1995 0.0000 0.0000 0.0000
# 4 -3.2950 3.2950 0.0000 22.1425 0.0000 -0.0012
# 5 0.0012 -0.0012 0.0000 0.0000 22.1425 -3.2950
# 6 0.0000 0.0000 0.0000 -0.0012 -3.2950 8.2071
#
#
#
# Elastic Compliance Matrix: (Units=1/GPa)
#
#
# Indices 1 2 3 4 5 6 
#
# 1 0.035739 -0.029055 -0.001320 0.009642 -0.000004 0.000000
# 2 -0.029055 0.035739 -0.001320 -0.009642 0.000004 0.000000
# 3 -0.001320 -0.001320 0.010705 0.000000 0.000000 0.000000
# 4 0.009642 -0.009642 0.000000 0.048032 0.000000 0.000007
# 5 -0.000004 0.000004 0.000000 0.000000 0.048032 0.019284
# 6 0.000000 0.000000 0.000000 0.000007 0.019284 0.129588
#
#
# Mechanical properties :
#
#
# Convention : Reuss Voigt Hill
#
# Bulk Modulus (GPa) = 53.21139 54.47813 53.84476
# Shear Modulus (GPa) = 13.24540 21.34278 17.29409
#
# Velocity S-wave (km/s) = 2.41178 3.06147 2.75584
# Velocity P-wave (km/s) = 5.57881 6.03496 5.81136
#
# Compressibility (1/GPa) = 0.01879297
#
# Stress axis : x y z
#
# Youngs Moduli (GPa) = 27.98046 27.98046 93.41630
#
# Poissons Ratio (x) = 0.81297 0.12332
# Poissons Ratio (y) = 0.81297 0.12332
# Poissons Ratio (z) = 0.03694 0.03694
#
# Static dielectric constant tensor:
#      x y z
#    x 3.896310 0.000000 0.000000 
#    y 0.000000 3.896310 0.000000 
#    z 0.000000 0.000000 4.332990 
# 
# 
# High freq. dielectric constant tensor:
#      x y z
#    x 1.892060 0.000000 0.000000 
#    y 0.000000 1.892060 0.000000 
#    z 0.000000 0.000000 1.908800 
# 
# From -- ./inp_files/6605.got.cif
#   From: 2010.03.12/outbox.cif.g09.slc.cpg/sg166_4_cif.got.tgz:6605.got - 2010.04.02 06:38:31.
