data_PCOD8324897
_publ_section_title
;
Structure prediction by ZEFSAII (Michael W. Deem and Ramdas Pophale) SiO2 
 PCOD8324897
Probable space group: P -6
;
_chemical_formula_sum "Si O2"
_cell_formula_units_Z 32
_cell_length_a 16.541659
_cell_length_b 16.541659
_cell_length_c 8.809565
_cell_angle_alpha 90.000000
_cell_angle_beta 90.000000
_cell_angle_gamma 120.000000
_cell_volume 2087.580462
_symmetry_space_group_name_H-M "P -6"
_symmetry_group_IT_number 174
_symmetry_cell_setting 'hexagonal'
loop_
_space_group_symop_operation_xyz
x,y,z
-x+y,-x,-z
-y,x-y,z
x,y,-z
-x+y,-x,z
-y,x-y,-z
loop_
_atom_site_type_symbol
_atom_site_label
_atom_site_fract_x
_atom_site_fract_y
_atom_site_fract_z
Si Si1 0.002539 0.816973 0.819207
Si Si2 0.726850 0.615943 0.821958
Si Si3 0.999846 0.177307 0.821714
Si Si4 0.903281 0.622419 0.678982
Si Si5 0.553059 0.429838 0.821656
Si Si6 0.666668 0.333334 0.820280
O O1 0.922468 0.839408 0.764928
O O2 0.983402 0.720547 0.745490
O O3 0.100620 0.900413 0.753605
O O4 0.001919 0.806254 0.000000
O O5 0.742797 0.717697 0.775805
O O6 0.800528 0.595139 0.738043
O O7 0.620067 0.539594 0.781752
O O8 0.746450 0.612077 0.000000
O O9 0.008514 0.172004 0.000000
O O10 0.904878 0.628602 0.500000
O O11 0.929569 0.544657 0.732470
O O12 0.606903 0.378182 0.760070
O O13 0.531952 0.415152 0.000000
O O14 0.666667 0.333334 0.000000
#
# Coordination Sequence:
#
# PCOD8324897 Si02
#       6
#     6   6   6   6   6   2
#     4   9  16  29  47  65  87 114 145 180 220 258
#     4   9  17  30  47  65  85 112 147 183 221 261
#     4   8  14  25  45  68  84 106 143 181 211 251
#     4  11  21  29  39  61  91 119 149 180 210 251
#     4  10  17  29  45  61  84 117 151 179 213 257
#     4   9  15  24  43  62  79 114 151 173 205 252
#
# _framework density 15.328749999999999
#
# number of rings (size 3 to 8) (size 9 to 14) (size 15 to 20)
#    0.000    2.625    1.875    3.188    0.000    2.250 
#    0.000    3.750    0.000    0.000    0.000    0.000 
#    1.875    0.000    3.375    0.000    1.125    0.000 
#
# Total GULP energy -396619.471733 kJ/mol
# GULP energy per Si atom -12394.358492 kJ/mol
# Density = 1.529386 g / cm^3
# Si number density = 15.328750 Si / 1000 Ang^3
#
#
#
# Elastic Constant Matrix: (Units=GPa)
#
#
# Indices 1 2 3 4 5 6 
#
# 1 118.0331 63.5629 31.2248 0.0000 0.0000 0.0003
# 2 63.5629 118.0330 31.2248 0.0000 0.0000 0.0000
# 3 31.2248 31.2248 50.0029 0.0000 0.0000 0.0000
# 4 0.0000 0.0000 0.0000 7.9354 0.0001 0.0000
# 5 0.0000 0.0000 0.0000 0.0001 7.9356 0.0000
# 6 0.0003 0.0000 0.0000 0.0000 0.0000 27.2352
#
#
#
# Elastic Compliance Matrix: (Units=1/GPa)
#
#
# Indices 1 2 3 4 5 6 
#
# 1 0.012686 -0.005673 -0.004379 0.000000 0.000000 0.000000
# 2 -0.005673 0.012686 -0.004379 0.000000 0.000000 0.000000
# 3 -0.004379 -0.004379 0.025468 0.000000 0.000000 0.000000
# 4 0.000000 0.000000 0.000000 0.126017 -0.000001 0.000000
# 5 0.000000 0.000000 0.000000 -0.000001 0.126015 0.000000
# 6 0.000000 0.000000 0.000000 0.000000 0.000000 0.036717
#
#
# Mechanical properties :
#
#
# Convention : Reuss Voigt Hill
#
# Bulk Modulus (GPa) = 45.50243 59.78821 52.64532
# Shear Modulus (GPa) = 13.30577 19.29167 16.29872
#
# Velocity S-wave (km/s) = 2.94943 3.55142 3.26433
# Velocity P-wave (km/s) = 6.43021 7.47699 6.97327
#
# Compressibility (1/GPa) = 0.02197685
#
# Stress axis : x y z
#
# Youngs Moduli (GPa) = 78.82904 78.82904 39.26492
#
# Poissons Ratio (x) = 0.44720 0.17195
# Poissons Ratio (y) = 0.44720 0.17195
# Poissons Ratio (z) = 0.34520 0.34520
#
# Static dielectric constant tensor:
#      x y z
#    x 3.046780 -0.000010 0.000000 
#    y -0.000010 3.046780 0.000000 
#    z 0.000000 0.000000 2.646990 
# 
# 
# High freq. dielectric constant tensor:
#      x y z
#    x 1.571490 0.000000 0.000000 
#    y 0.000000 1.571490 0.000000 
#    z 0.000000 0.000000 1.561630 
# 
# From -- ./inp_files/334.got.cif
#   From: 2010.03.12/outbox.cif.g09.slc.cpg/sg174_cif.got.tgz:334.got - 2010.04.02 06:54:58.
