data_PCOD8324214
_publ_section_title
;
Structure prediction by ZEFSAII (Michael W. Deem and Ramdas Pophale) SiO2 
 PCOD8324214
Probable space group: R -3 M
;
_chemical_formula_sum "Si O2"
_cell_formula_units_Z 162
_cell_length_a 21.825850
_cell_length_b 21.825850
_cell_length_c 20.005046
_cell_angle_alpha 90.000000
_cell_angle_beta 90.000000
_cell_angle_gamma 120.000000
_cell_volume 8253.012794
_symmetry_space_group_name_H-M "R -3 M"
_symmetry_group_IT_number 166
_symmetry_cell_setting 'hexagonal'
loop_
_space_group_symop_operation_xyz
x,y,z
-y,x-y,z
-x+y,-x,z
x-y,-y,-z
-x,-x+y,-z
y,x,-z
-x,-y,-z
y,-x+y,-z
x-y,x,-z
-x+y,y,z
x,x-y,z
-y,-x,z
2/3+x,1/3+y,1/3+z
2/3-y,1/3+x-y,1/3+z
2/3-x+y,1/3-x,1/3+z
2/3+x-y,1/3-y,1/3-z
2/3-x,1/3-x+y,1/3-z
2/3+y,1/3+x,1/3-z
2/3-x,1/3-y,1/3-z
2/3+y,1/3-x+y,1/3-z
2/3+x-y,1/3+x,1/3-z
2/3-x+y,1/3+y,1/3+z
2/3+x,1/3+x-y,1/3+z
2/3-y,1/3-x,1/3+z
1/3+x,2/3+y,2/3+z
1/3-y,2/3+x-y,2/3+z
1/3-x+y,2/3-x,2/3+z
1/3+x-y,2/3-y,2/3-z
1/3-x,2/3-x+y,2/3-z
1/3+y,2/3+x,2/3-z
1/3-x,2/3-y,2/3-z
1/3+y,2/3-x+y,2/3-z
1/3+x-y,2/3+x,2/3-z
1/3-x+y,2/3+y,2/3+z
1/3+x,2/3+x-y,2/3+z
1/3-y,2/3-x,2/3+z
loop_
_atom_site_type_symbol
_atom_site_label
_atom_site_fract_x
_atom_site_fract_y
_atom_site_fract_z
Si Si1 0.616527 0.091808 0.599115
Si Si2 0.879373 0.258107 0.351946
Si Si3 0.862605 0.861088 0.383631
Si Si4 0.440233 0.333334 0.833334
Si Si5 0.117855 0.375094 0.491660
O O1 0.543615 0.087229 0.573563
O O2 0.660593 0.160273 0.644931
O O3 0.666063 0.099738 0.536148
O O4 0.599620 0.023055 0.642448
O O5 0.799190 0.200811 0.334904
O O6 0.888476 0.333334 0.333334
O O7 0.895336 0.259910 0.429688
O O8 0.843516 0.921758 0.397865
O O9 0.830535 0.801091 0.440499
O O10 0.947059 0.894118 0.384424
O O11 0.430610 0.394848 0.868694
O O12 0.197704 0.395407 0.471799
#
# Coordination Sequence:
#
# PCOD8324214 Si02
#       5
#    36  36  36  18  36
#     4  10  22  39  60  88 120 152 198 252 300 355
#     4  10  21  39  60  87 119 153 190 242 301 358
#     4  11  22  37  55  80 115 158 202 245 294 352
#     4  12  22  36  56  82 120 154 200 252 296 348
#     4  11  22  38  61  88 120 158 199 248 303 358
#
# _framework density 19.629194999999999
#
# number of rings (size 3 to 8) (size 9 to 14) (size 15 to 20)
#    0.000    1.333    2.222    4.222    0.000    0.889 
#    0.000    6.111    0.000    0.667    0.000    0.000 
#    0.000    0.000    0.000    0.000    0.000    0.000 
#
# Total GULP energy -669607.891236 kJ/mol
# GULP energy per Si atom -12400.146134 kJ/mol
# Density = 1.958452 g / cm^3
# Si number density = 19.629195 Si / 1000 Ang^3
#
#
#
# Elastic Constant Matrix: (Units=GPa)
#
#
# Indices 1 2 3 4 5 6 
#
# 1 122.1932 62.6973 41.1114 0.3237 0.0001 0.0000
# 2 62.6973 122.1932 41.1114 -0.3237 -0.0001 0.0000
# 3 41.1114 41.1114 45.7873 0.0000 0.0000 0.0000
# 4 0.3237 -0.3237 0.0000 32.9793 0.0000 -0.0001
# 5 0.0001 -0.0001 0.0000 0.0000 32.9793 0.3237
# 6 0.0000 0.0000 0.0000 -0.0001 0.3237 29.7480
#
#
#
# Elastic Compliance Matrix: (Units=1/GPa)
#
#
# Indices 1 2 3 4 5 6 
#
# 1 0.012907 -0.003903 -0.008084 -0.000165 0.000000 0.000000
# 2 -0.003903 0.012907 -0.008084 0.000165 0.000000 0.000000
# 3 -0.008084 -0.008084 0.036358 0.000000 0.000000 0.000000
# 4 -0.000165 0.000165 0.000000 0.030325 0.000000 0.000000
# 5 0.000000 0.000000 0.000000 0.000000 0.030325 -0.000330
# 6 0.000000 0.000000 0.000000 0.000000 -0.000330 0.033619
#
#
# Mechanical properties :
#
#
# Convention : Reuss Voigt Hill
#
# Bulk Modulus (GPa) = 45.39693 64.44600 54.92146
# Shear Modulus (GPa) = 24.51863 28.82491 26.67177
#
# Velocity S-wave (km/s) = 3.53808 3.83622 3.69016
# Velocity P-wave (km/s) = 6.31412 7.24742 6.79681
#
# Compressibility (1/GPa) = 0.02202792
#
# Stress axis : x y z
#
# Youngs Moduli (GPa) = 77.47902 77.47902 27.50459
#
# Poissons Ratio (x) = 0.30240 0.22236
# Poissons Ratio (y) = 0.30240 0.22236
# Poissons Ratio (z) = 0.62636 0.62636
#
# Static dielectric constant tensor:
#      x y z
#    x 3.547610 0.000000 0.000000 
#    y 0.000000 3.547610 0.000000 
#    z 0.000000 0.000000 3.417700 
# 
# 
# High freq. dielectric constant tensor:
#      x y z
#    x 1.765770 0.000000 0.000000 
#    y 0.000000 1.765770 0.000000 
#    z 0.000000 0.000000 1.755150 
# 
# From -- ./inp_files/5399.got.cif
#   From: 2010.03.12/outbox.cif.g09.slc.cpg/sg166_3_cif.got.tgz:5399.got - 2010.04.02 06:38:31.
