data_PCOD8324019
_publ_section_title
;
Structure prediction by ZEFSAII (Michael W. Deem and Ramdas Pophale) SiO2 
 PCOD8324019
Probable space group: R -3 M
;
_chemical_formula_sum "Si O2"
_cell_formula_units_Z 180
_cell_length_a 21.835537
_cell_length_b 21.835537
_cell_length_c 26.862409
_cell_angle_alpha 90.000000
_cell_angle_beta 90.000000
_cell_angle_gamma 120.000000
_cell_volume 11091.833530
_symmetry_space_group_name_H-M "R -3 M"
_symmetry_group_IT_number 166
_symmetry_cell_setting 'hexagonal'
loop_
_space_group_symop_operation_xyz
x,y,z
-y,x-y,z
-x+y,-x,z
x-y,-y,-z
-x,-x+y,-z
y,x,-z
-x,-y,-z
y,-x+y,-z
x-y,x,-z
-x+y,y,z
x,x-y,z
-y,-x,z
2/3+x,1/3+y,1/3+z
2/3-y,1/3+x-y,1/3+z
2/3-x+y,1/3-x,1/3+z
2/3+x-y,1/3-y,1/3-z
2/3-x,1/3-x+y,1/3-z
2/3+y,1/3+x,1/3-z
2/3-x,1/3-y,1/3-z
2/3+y,1/3-x+y,1/3-z
2/3+x-y,1/3+x,1/3-z
2/3-x+y,1/3+y,1/3+z
2/3+x,1/3+x-y,1/3+z
2/3-y,1/3-x,1/3+z
1/3+x,2/3+y,2/3+z
1/3-y,2/3+x-y,2/3+z
1/3-x+y,2/3-x,2/3+z
1/3+x-y,2/3-y,2/3-z
1/3-x,2/3-x+y,2/3-z
1/3+y,2/3+x,2/3-z
1/3-x,2/3-y,2/3-z
1/3+y,2/3-x+y,2/3-z
1/3+x-y,2/3+x,2/3-z
1/3-x+y,2/3+y,2/3+z
1/3+x,2/3+x-y,2/3+z
1/3-y,2/3-x,2/3+z
loop_
_atom_site_type_symbol
_atom_site_label
_atom_site_fract_x
_atom_site_fract_y
_atom_site_fract_z
Si Si1 0.334075 0.526711 0.019368
Si Si2 0.458651 0.055274 0.042150
Si Si3 0.927630 0.211200 0.021816
Si Si4 0.406137 0.948171 0.265368
Si Si5 0.687500 0.023292 0.110243
O O1 0.266847 0.533694 0.001812
O O2 0.397264 0.602737 0.037890
O O3 0.311342 0.470063 0.064340
O O4 0.360970 0.497996 0.974218
O O5 0.516187 0.032374 0.055795
O O6 0.414834 0.048046 0.091771
O O7 0.405994 0.000000 0.000000
O O8 0.871508 0.128493 0.023321
O O9 0.939240 0.241948 0.077248
O O10 0.902017 0.255016 0.987458
O O11 0.000000 0.219327 0.000000
O O12 0.483572 0.967144 0.246487
O O13 0.376669 0.981596 0.226019
O O14 0.712017 0.045350 0.166667
#
# Coordination Sequence:
#
# PCOD8324019 Si02
#       5
#    36  36  36  36  36
#     4  10  18  29  49  72  94 120 160 208 248 284
#     4  10  18  31  49  67  91 127 168 205 241 284
#     4   9  17  32  51  70  92 124 163 200 242 289
#     4   9  17  31  48  64  90 128 164 197 238 286
#     4  11  20  29  44  72 104 127 158 199 245 302
#
# _framework density 16.228155999999998
#
# number of rings (size 3 to 8) (size 9 to 14) (size 15 to 20)
#    0.000    2.200    4.000    0.800    0.000    1.200 
#    0.000    0.000    0.000    0.200    0.000    0.000 
#    0.000    5.600    0.000    0.000    0.000    0.000 
#
# Total GULP energy -743878.727831 kJ/mol
# GULP energy per Si atom -12397.978797 kJ/mol
# Density = 1.619122 g / cm^3
# Si number density = 16.228156 Si / 1000 Ang^3
#
#
#
# Elastic Constant Matrix: (Units=GPa)
#
#
# Indices 1 2 3 4 5 6 
#
# 1 98.9581 46.6444 22.2129 -1.4713 -0.0001 0.0000
# 2 46.6444 98.9581 22.2129 1.4713 0.0001 0.0000
# 3 22.2129 22.2129 76.7358 0.0000 0.0000 0.0000
# 4 -1.4713 1.4713 0.0000 15.4134 0.0000 0.0001
# 5 -0.0001 0.0001 0.0000 0.0000 15.4134 -1.4713
# 6 0.0000 0.0000 0.0000 0.0001 -1.4713 26.1568
#
#
#
# Elastic Compliance Matrix: (Units=1/GPa)
#
#
# Indices 1 2 3 4 5 6 
#
# 1 0.013376 -0.005843 -0.002181 0.001835 0.000000 0.000000
# 2 -0.005843 0.013376 -0.002181 -0.001835 0.000000 0.000000
# 3 -0.002181 -0.002181 0.014294 0.000000 0.000000 0.000000
# 4 0.001835 -0.001835 0.000000 0.065229 0.000000 0.000000
# 5 0.000000 0.000000 0.000000 0.000000 0.065229 0.003669
# 6 0.000000 0.000000 0.000000 0.000000 0.003669 0.038437
#
#
# Mechanical properties :
#
#
# Convention : Reuss Voigt Hill
#
# Bulk Modulus (GPa) = 48.45389 50.75470 49.60429
# Shear Modulus (GPa) = 21.07672 23.63552 22.35612
#
# Velocity S-wave (km/s) = 3.60776 3.82049 3.71565
# Velocity P-wave (km/s) = 6.87585 7.12777 7.00294
#
# Compressibility (1/GPa) = 0.02063818
#
# Stress axis : x y z
#
# Youngs Moduli (GPa) = 74.76067 74.76067 69.95825
#
# Poissons Ratio (x) = 0.43680 0.15256
# Poissons Ratio (y) = 0.43680 0.15256
# Poissons Ratio (z) = 0.16303 0.16303
#
# Static dielectric constant tensor:
#      x y z
#    x 3.170830 0.000000 0.000000 
#    y 0.000000 3.170830 0.000000 
#    z 0.000000 0.000000 2.595910 
# 
# 
# High freq. dielectric constant tensor:
#      x y z
#    x 1.629420 0.000000 0.000000 
#    y 0.000000 1.629420 0.000000 
#    z 0.000000 0.000000 1.574110 
# 
# From -- ./inp_files/10686.got.cif
#   From: 2010.03.12/outbox.cif.g09.slc.cpg/sg166_6_cif.got.tgz:10686.got - 2010.04.02 06:38:31.
