data_PCOD8324705
_publ_section_title
;
Structure prediction by ZEFSAII (Michael W. Deem and Ramdas Pophale) SiO2 
 PCOD8324705
Probable space group: P 65
;
_chemical_formula_sum "Si O2"
_cell_formula_units_Z 48
_cell_length_a 12.072136
_cell_length_b 12.072136
_cell_length_c 16.243121
_cell_angle_alpha 90.000000
_cell_angle_beta 90.000000
_cell_angle_gamma 120.000000
_cell_volume 2050.068393
_symmetry_space_group_name_H-M "P 65"
_symmetry_group_IT_number 170
_symmetry_cell_setting 'hexagonal'
loop_
_space_group_symop_operation_xyz
x,y,z
x-y,x,5/6+z
-y,x-y,2/3+z
-x,-y,1/2+z
-x+y,-x,1/3+z
y,-x+y,1/6+z
loop_
_atom_site_type_symbol
_atom_site_label
_atom_site_fract_x
_atom_site_fract_y
_atom_site_fract_z
Si Si1 0.618278 0.867388 0.107430
Si Si2 0.090818 0.469442 0.546604
Si Si3 0.271523 0.454077 0.136851
Si Si4 0.575296 0.398770 0.183694
Si Si5 0.909887 0.001154 0.751079
Si Si6 0.510871 0.368001 0.893209
Si Si7 0.370346 0.298925 0.054147
Si Si8 0.730382 0.861610 0.944079
O O1 0.602584 0.761307 0.173328
O O2 0.499109 0.893130 0.108718
O O3 0.755554 0.985965 0.129399
O O4 0.624579 0.833452 0.012835
O O5 0.182398 0.619715 0.527403
O O6 0.062576 0.445696 0.644368
O O7 0.949586 0.412698 0.509394
O O8 0.178777 0.499371 0.097781
O O9 0.344657 0.417384 0.067442
O O10 0.177445 0.331274 0.188832
O O11 0.713478 0.412921 0.190512
O O12 0.494530 0.317471 0.104478
O O13 0.954140 0.019971 0.654979
O O14 0.844582 0.850798 0.776399
O O15 0.824168 0.068765 0.757032
O O16 0.397265 0.285041 0.958119
#
# Coordination Sequence:
#
# PCOD8324705 Si02
#       8
#     6   6   6   6   6   6   6   6
#     4  12  26  46  76 110 148 202 263 319 392 451
#     4  11  26  45  67 109 153 190 249 317 383 466
#     4  11  22  45  76 106 139 197 250 313 361 453
#     4  11  26  46  74 104 151 198 249 309 385 463
#     4  12  25  50  75 113 149 199 263 316 386 455
#     4  12  26  48  70 107 153 199 249 312 391 469
#     4  11  26  43  76 108 148 194 248 321 374 463
#     4  12  25  45  80 107 143 199 263 317 370 466
#
# _framework density 23.413855000000002
#
# number of rings (size 3 to 8) (size 9 to 14) (size 15 to 20)
#    0.000    0.500    5.000    2.250    8.750    2.000 
#    4.500    0.000    0.000    0.000    0.000    0.000 
#    0.000    0.000    0.000    0.000    0.000    0.000 
#
# Total GULP energy -594885.367415 kJ/mol
# GULP energy per Si atom -12393.445154 kJ/mol
# Density = 2.336056 g / cm^3
# Si number density = 23.413855 Si / 1000 Ang^3
#
#
#
# Elastic Constant Matrix: (Units=GPa)
#
#
# Indices 1 2 3 4 5 6 
#
# 1 81.1421 20.9615 24.7113 0.0000 0.0000 0.0000
# 2 20.9615 81.1421 24.7113 0.0000 0.0000 0.0000
# 3 24.7113 24.7113 135.6438 0.0000 0.0000 0.0000
# 4 0.0000 0.0000 0.0000 39.4671 0.0000 0.0000
# 5 0.0000 0.0000 0.0000 0.0000 39.4671 0.0000
# 6 0.0000 0.0000 0.0000 0.0000 0.0000 30.0903
#
#
#
# Elastic Compliance Matrix: (Units=1/GPa)
#
#
# Indices 1 2 3 4 5 6 
#
# 1 0.013679 -0.002938 -0.001957 0.000000 0.000000 0.000000
# 2 -0.002938 0.013679 -0.001957 0.000000 0.000000 0.000000
# 3 -0.001957 -0.001957 0.008085 0.000000 0.000000 0.000000
# 4 0.000000 0.000000 0.000000 0.025338 0.000000 0.000000
# 5 0.000000 0.000000 0.000000 0.000000 0.025338 0.000000
# 6 0.000000 0.000000 0.000000 0.000000 0.000000 0.033233
#
#
# Mechanical properties :
#
#
# Convention : Reuss Voigt Hill
#
# Bulk Modulus (GPa) = 45.99749 48.74404 47.37077
# Shear Modulus (GPa) = 35.63770 36.97450 36.30610
#
# Velocity S-wave (km/s) = 3.90561 3.97819 3.94207
# Velocity P-wave (km/s) = 6.32665 6.47804 6.40279
#
# Compressibility (1/GPa) = 0.02174032
#
# Stress axis : x y z
#
# Youngs Moduli (GPa) = 73.10531 73.10531 123.68244
#
# Poissons Ratio (x) = 0.21476 0.24202
# Poissons Ratio (y) = 0.21476 0.24202
# Poissons Ratio (z) = 0.14305 0.14305
#
# Static dielectric constant tensor:
#      x y z
#    x 4.119650 0.000000 0.000000 
#    y 0.000000 4.119650 0.000000 
#    z 0.000000 0.000000 4.493850 
# 
# 
# High freq. dielectric constant tensor:
#      x y z
#    x 1.915380 0.000000 0.000000 
#    y 0.000000 1.915380 0.000000 
#    z 0.000000 0.000000 1.940570 
# 
# From -- ./inp_files/1471.got.cif
#   From: 2010.03.12/outbox.cif.g09.slc.cpg/sg170_cif.got.tgz:1471.got - 2010.04.02 06:47:37.
