data_PCOD8324599
_publ_section_title
;
Structure prediction by ZEFSAII (Michael W. Deem and Ramdas Pophale) SiO2 
 PCOD8324599
Probable space group: P 61
;
_chemical_formula_sum "Si O2"
_cell_formula_units_Z 42
_cell_length_a 8.912202
_cell_length_b 8.912202
_cell_length_c 27.324818
_cell_angle_alpha 90.000000
_cell_angle_beta 90.000000
_cell_angle_gamma 120.000000
_cell_volume 1879.567611
_symmetry_space_group_name_H-M "P 61"
_symmetry_group_IT_number 169
_symmetry_cell_setting 'hexagonal'
loop_
_space_group_symop_operation_xyz
x,y,z
x-y,x,1/6+z
-y,x-y,1/3+z
-x,-y,1/2+z
-x+y,-x,2/3+z
y,-x+y,5/6+z
loop_
_atom_site_type_symbol
_atom_site_label
_atom_site_fract_x
_atom_site_fract_y
_atom_site_fract_z
Si Si1 0.302766 0.355817 0.959640
Si Si2 0.085819 0.861396 0.323052
Si Si3 0.175116 0.418307 0.754969
Si Si4 0.796642 0.400054 0.574390
Si Si5 0.720507 0.791148 0.766163
Si Si6 0.496616 0.424201 0.802469
Si Si7 0.163815 0.062788 0.880052
O O1 0.509072 0.443835 0.952230
O O2 0.229318 0.482825 0.942192
O O3 0.224402 0.176862 0.928847
O O4 0.261169 0.315427 0.017079
O O5 0.173067 0.810860 0.366474
O O6 0.012303 0.714352 0.279651
O O7 0.224747 0.053239 0.304576
O O8 0.917078 0.860615 0.342421
O O9 0.215103 0.616676 0.750576
O O10 0.324594 0.428554 0.789701
O O11 0.756428 0.204893 0.569322
O O12 0.896741 0.510345 0.526862
O O13 0.670745 0.605271 0.790478
O O14 0.868952 0.845313 0.726913
#
# Coordination Sequence:
#
# PCOD8324599 Si02
#       7
#     6   6   6   6   6   6   6
#     4  12  23  44  69  95 136 183 231 288 359 432
#     4  12  20  43  74 102 134 187 240 290 361 436
#     4  11  25  43  73 101 137 192 239 293 372 440
#     4  11  27  44  63 104 140 180 237 300 369 424
#     4  11  25  41  69 102 140 178 234 297 355 433
#     4  11  23  45  67  97 144 183 227 302 360 438
#     4  12  21  42  73  95 125 185 236 278 350 441
#
# _framework density 22.345568
#
# number of rings (size 3 to 8) (size 9 to 14) (size 15 to 20)
#    0.000    0.571    7.143    0.857    2.000    2.286 
#    2.571    0.000    0.000    0.000    0.000    0.000 
#    0.000    0.000    0.000    0.000    0.000    0.000 
#
# Total GULP energy -520517.701375 kJ/mol
# GULP energy per Si atom -12393.278604 kJ/mol
# Density = 2.229471 g / cm^3
# Si number density = 22.345568 Si / 1000 Ang^3
#
#
#
# Elastic Constant Matrix: (Units=GPa)
#
#
# Indices 1 2 3 4 5 6 
#
# 1 114.5349 33.1062 38.3568 0.0000 0.0000 0.0000
# 2 33.1062 114.5349 38.3568 0.0000 0.0000 0.0000
# 3 38.3568 38.3568 98.5189 0.0000 0.0000 0.0000
# 4 0.0000 0.0000 0.0000 29.3346 0.0000 0.0000
# 5 0.0000 0.0000 0.0000 0.0000 29.3346 0.0000
# 6 0.0000 0.0000 0.0000 0.0000 0.0000 40.7144
#
#
#
# Elastic Compliance Matrix: (Units=1/GPa)
#
#
# Indices 1 2 3 4 5 6 
#
# 1 0.010386 -0.001895 -0.003306 0.000000 0.000000 0.000000
# 2 -0.001895 0.010386 -0.003306 0.000000 0.000000 0.000000
# 3 -0.003306 -0.003306 0.012724 0.000000 0.000000 0.000000
# 4 0.000000 0.000000 0.000000 0.034089 0.000000 0.000000
# 5 0.000000 0.000000 0.000000 0.000000 0.034089 0.000000
# 6 0.000000 0.000000 0.000000 0.000000 0.000000 0.024561
#
#
# Mechanical properties :
#
#
# Convention : Reuss Voigt Hill
#
# Bulk Modulus (GPa) = 60.66847 60.80313 60.73580
# Shear Modulus (GPa) = 33.61494 34.39466 34.00480
#
# Velocity S-wave (km/s) = 3.88277 3.92754 3.90522
# Velocity P-wave (km/s) = 6.87824 6.91642 6.89736
#
# Compressibility (1/GPa) = 0.01648303
#
# Stress axis : x y z
#
# Youngs Moduli (GPa) = 96.28565 96.28565 78.58890
#
# Poissons Ratio (x) = 0.18245 0.25980
# Poissons Ratio (y) = 0.18245 0.25980
# Poissons Ratio (z) = 0.31830 0.31830
#
# Static dielectric constant tensor:
#      x y z
#    x 4.202370 0.000000 0.000000 
#    y 0.000000 4.202370 0.000000 
#    z 0.000000 0.000000 3.943840 
# 
# 
# High freq. dielectric constant tensor:
#      x y z
#    x 1.881280 0.000000 0.000000 
#    y 0.000000 1.881280 0.000000 
#    z 0.000000 0.000000 1.873630 
# 
# From -- ./inp_files/1845.got.cif
#   From: 2010.03.12/outbox.cif.g09.slc.cpg/sg169_cif.got.tgz:1845.got - 2010.04.02 06:46:06.
