data_PCOD8324203
_publ_section_title
;
Structure prediction by ZEFSAII (Michael W. Deem and Ramdas Pophale) SiO2 
 PCOD8324203
Probable space group: R -3 M
;
_chemical_formula_sum "Si O2"
_cell_formula_units_Z 144
_cell_length_a 28.262196
_cell_length_b 28.262196
_cell_length_c 10.050596
_cell_angle_alpha 90.000000
_cell_angle_beta 90.000000
_cell_angle_gamma 120.000000
_cell_volume 6952.392073
_symmetry_space_group_name_H-M "R -3 M"
_symmetry_group_IT_number 166
_symmetry_cell_setting 'hexagonal'
loop_
_space_group_symop_operation_xyz
x,y,z
-y,x-y,z
-x+y,-x,z
x-y,-y,-z
-x,-x+y,-z
y,x,-z
-x,-y,-z
y,-x+y,-z
x-y,x,-z
-x+y,y,z
x,x-y,z
-y,-x,z
2/3+x,1/3+y,1/3+z
2/3-y,1/3+x-y,1/3+z
2/3-x+y,1/3-x,1/3+z
2/3+x-y,1/3-y,1/3-z
2/3-x,1/3-x+y,1/3-z
2/3+y,1/3+x,1/3-z
2/3-x,1/3-y,1/3-z
2/3+y,1/3-x+y,1/3-z
2/3+x-y,1/3+x,1/3-z
2/3-x+y,1/3+y,1/3+z
2/3+x,1/3+x-y,1/3+z
2/3-y,1/3-x,1/3+z
1/3+x,2/3+y,2/3+z
1/3-y,2/3+x-y,2/3+z
1/3-x+y,2/3-x,2/3+z
1/3+x-y,2/3-y,2/3-z
1/3-x,2/3-x+y,2/3-z
1/3+y,2/3+x,2/3-z
1/3-x,2/3-y,2/3-z
1/3+y,2/3-x+y,2/3-z
1/3+x-y,2/3+x,2/3-z
1/3-x+y,2/3+y,2/3+z
1/3+x,2/3+x-y,2/3+z
1/3-y,2/3-x,2/3+z
loop_
_atom_site_type_symbol
_atom_site_label
_atom_site_fract_x
_atom_site_fract_y
_atom_site_fract_z
Si Si1 0.188079 0.703271 0.784145
Si Si2 0.571961 0.606680 0.629937
Si Si3 0.428607 0.967679 0.121391
Si Si4 0.145328 0.179834 0.382094
O O1 0.247924 0.752077 0.820498
O O2 0.192571 0.666667 0.666667
O O3 0.151726 0.728023 0.726193
O O4 0.162562 0.667075 0.915677
O O5 0.586882 0.586882 0.500000
O O6 0.619553 0.666667 0.666667
O O7 0.569625 0.565939 0.741823
O O8 0.485728 0.971456 0.103517
O O9 0.382204 0.904689 0.112074
O O10 0.419727 0.000000 0.000000
O O11 0.136869 0.136869 0.500000
O O12 0.087531 0.175062 0.346183
#
# Coordination Sequence:
#
# PCOD8324203 Si02
#       4
#    36  36  36  36
#     4  11  23  41  65  91 120 157 202 250 303 362
#     4  11  24  38  57  87 124 163 202 245 292 345
#     4  10  21  38  59  85 119 157 199 245 294 352
#     4  11  23  40  63  89 119 159 205 251 302 361
#
# _framework density 20.712295999999998
#
# number of rings (size 3 to 8) (size 9 to 14) (size 15 to 20)
#    0.000    1.250    0.000    6.750    0.000   10.000 
#    0.000    0.000    0.000   10.000    0.000    0.000 
#    0.000    0.000    0.000    0.000    0.000    0.000 
#
# Total GULP energy -595126.511797 kJ/mol
# GULP energy per Si atom -12398.468996 kJ/mol
# Density = 2.066515 g / cm^3
# Si number density = 20.712296 Si / 1000 Ang^3
#
#
#
# Elastic Constant Matrix: (Units=GPa)
#
#
# Indices 1 2 3 4 5 6 
#
# 1 116.5294 29.5804 49.6719 42.9817 -0.0874 -0.1395
# 2 29.5804 116.3616 49.4491 -42.8358 0.0685 0.1416
# 3 49.6719 49.4491 171.5373 0.1535 -0.1502 -0.0612
# 4 42.9817 -42.8358 0.1535 111.3795 -0.2734 -0.3136
# 5 -0.0874 0.0685 -0.1502 -0.2734 111.2298 42.7594
# 6 -0.1395 0.1416 -0.0612 -0.3136 42.7594 43.2784
#
#
#
# Elastic Compliance Matrix: (Units=1/GPa)
#
#
# Indices 1 2 3 4 5 6 
#
# 1 0.013553 -0.005034 -0.002467 -0.007163 -0.000015 0.000019
# 2 -0.005034 0.013552 -0.002455 0.007158 0.000011 -0.000023
# 3 -0.002467 -0.002455 0.007252 -0.000002 0.000009 0.000002
# 4 -0.007163 0.007158 -0.000002 0.014495 0.000005 0.000054
# 5 -0.000015 0.000011 0.000009 0.000005 0.014496 -0.014323
# 6 0.000019 -0.000023 0.000002 0.000054 -0.014323 0.037258
#
#
# Mechanical properties :
#
#
# Convention : Reuss Voigt Hill
#
# Bulk Modulus (GPa) = 69.23083 73.53679 71.38381
# Shear Modulus (GPa) = 39.89378 71.55933 55.72656
#
# Velocity S-wave (km/s) = 4.39349 5.88423 5.19264
# Velocity P-wave (km/s) = 7.69640 9.04138 8.39587
#
# Compressibility (1/GPa) = 0.01444443
#
# Stress axis : x y z
#
# Youngs Moduli (GPa) = 73.78558 73.78993 137.89574
#
# Poissons Ratio (x) = 0.37143 0.34019
# Poissons Ratio (y) = 0.37141 0.33860
# Poissons Ratio (z) = 0.18203 0.18119
#
# Static dielectric constant tensor:
#      x y z
#    x 3.826280 -0.000040 0.000140 
#    y -0.000040 3.826370 -0.000010 
#    z 0.000140 -0.000010 3.769140 
# 
# 
# High freq. dielectric constant tensor:
#      x y z
#    x 1.806070 0.000000 -0.000010 
#    y 0.000000 1.806080 0.000000 
#    z -0.000010 0.000000 1.835910 
# 
# From -- ./inp_files/1786.got.cif
#   From: 2010.03.12/outbox.cif.g09.slc.cpg/sg166_1_cif.got.tgz:1786.got - 2010.04.02 06:38:31.
