data_PCOD8324093
_publ_section_title
;
Structure prediction by ZEFSAII (Michael W. Deem and Ramdas Pophale) SiO2 
 PCOD8324093
Probable space group: R -3 M
;
_chemical_formula_sum "Si O2"
_cell_formula_units_Z 144
_cell_length_a 22.526199
_cell_length_b 22.526199
_cell_length_c 19.816221
_cell_angle_alpha 90.000000
_cell_angle_beta 90.000000
_cell_angle_gamma 120.000000
_cell_volume 8708.178079
_symmetry_space_group_name_H-M "R -3 M"
_symmetry_group_IT_number 166
_symmetry_cell_setting 'hexagonal'
loop_
_space_group_symop_operation_xyz
x,y,z
-y,x-y,z
-x+y,-x,z
x-y,-y,-z
-x,-x+y,-z
y,x,-z
-x,-y,-z
y,-x+y,-z
x-y,x,-z
-x+y,y,z
x,x-y,z
-y,-x,z
2/3+x,1/3+y,1/3+z
2/3-y,1/3+x-y,1/3+z
2/3-x+y,1/3-x,1/3+z
2/3+x-y,1/3-y,1/3-z
2/3-x,1/3-x+y,1/3-z
2/3+y,1/3+x,1/3-z
2/3-x,1/3-y,1/3-z
2/3+y,1/3-x+y,1/3-z
2/3+x-y,1/3+x,1/3-z
2/3-x+y,1/3+y,1/3+z
2/3+x,1/3+x-y,1/3+z
2/3-y,1/3-x,1/3+z
1/3+x,2/3+y,2/3+z
1/3-y,2/3+x-y,2/3+z
1/3-x+y,2/3-x,2/3+z
1/3+x-y,2/3-y,2/3-z
1/3-x,2/3-x+y,2/3-z
1/3+y,2/3+x,2/3-z
1/3-x,2/3-y,2/3-z
1/3+y,2/3-x+y,2/3-z
1/3+x-y,2/3+x,2/3-z
1/3-x+y,2/3+y,2/3+z
1/3+x,2/3+x-y,2/3+z
1/3-y,2/3-x,2/3+z
loop_
_atom_site_type_symbol
_atom_site_label
_atom_site_fract_x
_atom_site_fract_y
_atom_site_fract_z
Si Si1 0.370321 0.294086 0.482443
Si Si2 0.255248 0.375278 0.020304
Si Si3 0.815913 0.048982 0.055154
Si Si4 0.468909 0.068935 0.040173
O O1 0.350488 0.350488 0.500000
O O2 0.313144 0.240045 0.430520
O O3 0.446852 0.335256 0.452662
O O4 0.379824 0.259450 0.548539
O O5 0.199806 0.399611 0.019056
O O6 0.233022 0.309538 0.973307
O O7 0.323564 0.439938 0.989456
O O8 0.890328 0.109673 0.075609
O O9 0.822663 0.000000 0.000000
O O10 0.551468 0.102935 0.029141
O O11 0.428768 0.000000 0.000000
#
# Coordination Sequence:
#
# PCOD8324093 Si02
#       4
#    36  36  36  36
#     4  11  18  31  49  73 105 127 159 198 246 293
#     4  10  19  33  50  73 100 131 164 198 241 293
#     4   9  18  31  51  75 102 132 162 196 238 289
#     4  11  21  33  49  72 101 132 163 202 248 294
#
# _framework density 16.536180999999999
#
# number of rings (size 3 to 8) (size 9 to 14) (size 15 to 20)
#    0.000    1.750    5.000    1.500    0.000    2.500 
#    0.000    0.000    0.000    0.750    0.000    1.750 
#    0.000    1.000    0.000    0.000    0.000    0.000 
#
# Total GULP energy -594850.329272 kJ/mol
# GULP energy per Si atom -12392.715193 kJ/mol
# Density = 1.649854 g / cm^3
# Si number density = 16.536181 Si / 1000 Ang^3
#
#
#
# Elastic Constant Matrix: (Units=GPa)
#
#
# Indices 1 2 3 4 5 6 
#
# 1 78.1955 36.4461 35.2793 -11.2724 0.0000 0.0000
# 2 36.4461 78.1955 35.2793 11.2724 0.0000 0.0000
# 3 35.2793 35.2793 113.6551 0.0000 0.0000 0.0000
# 4 -11.2724 11.2724 0.0000 -6.7601 0.0000 0.0000
# 5 0.0000 0.0000 0.0000 0.0000 -6.7601 -11.2724
# 6 0.0000 0.0000 0.0000 0.0000 -11.2724 20.8747
#
#
#
# Elastic Compliance Matrix: (Units=1/GPa)
#
#
# Indices 1 2 3 4 5 6 
#
# 1 0.011693 -0.000910 -0.003347 -0.021016 0.000000 0.000000
# 2 -0.000910 0.011693 -0.003347 0.021016 0.000000 0.000000
# 3 -0.003347 -0.003347 0.010876 0.000000 0.000000 0.000000
# 4 -0.021016 0.021016 0.000000 -0.077838 0.000000 0.000000
# 5 0.000000 0.000000 0.000000 0.000000 -0.077838 -0.042033
# 6 0.000000 0.000000 0.000000 0.000000 -0.042033 0.025207
#
#
# Mechanical properties :
#
#
# Convention : Reuss Voigt Hill
#
# Bulk Modulus (GPa) = 52.48273 53.78396 53.13334
# Shear Modulus (GPa) = -66.98367 12.34032 -27.32168
#
# Velocity S-wave (km/s) = -6.37144 2.73474 -4.06918
# Velocity P-wave (km/s) = 4.72441 6.52437 3.18177
#
# Compressibility (1/GPa) = 0.01905389
#
# Stress axis : x y z
#
# Youngs Moduli (GPa) = 85.51979 85.51979 91.94164
#
# Poissons Ratio (x) = 0.07785 0.30774
# Poissons Ratio (y) = 0.07785 0.30774
# Poissons Ratio (z) = 0.28624 0.28624
#
# Static dielectric constant tensor:
#      x y z
#    x 3.071940 0.000000 0.000000 
#    y 0.000000 3.071940 0.000000 
#    z 0.000000 0.000000 3.379500 
# 
# 
# High freq. dielectric constant tensor:
#      x y z
#    x 1.614560 0.000000 0.000000 
#    y 0.000000 1.614560 0.000000 
#    z 0.000000 0.000000 1.652040 
# 
# From -- ./inp_files/5243.got.cif
#   From: 2010.03.12/outbox.cif.g09.slc.cpg/sg166_3_cif.got.tgz:5243.got - 2010.04.02 06:38:31.
