data_PCOD8324729
_publ_section_title
;
Structure prediction by ZEFSAII (Michael W. Deem and Ramdas Pophale) SiO2 
 PCOD8324729
Probable space group: P 62
;
_chemical_formula_sum "Si O2"
_cell_formula_units_Z 39
_cell_length_a 12.376827
_cell_length_b 12.376827
_cell_length_c 13.172987
_cell_angle_alpha 90.000000
_cell_angle_beta 90.000000
_cell_angle_gamma 120.000000
_cell_volume 1747.565796
_symmetry_space_group_name_H-M "P 62"
_symmetry_group_IT_number 171
_symmetry_cell_setting 'hexagonal'
loop_
_space_group_symop_operation_xyz
x,y,z
x-y,x,1/3+z
-y,x-y,2/3+z
-x,-y,z
-x+y,-x,1/3+z
y,-x+y,2/3+z
loop_
_atom_site_type_symbol
_atom_site_label
_atom_site_fract_x
_atom_site_fract_y
_atom_site_fract_z
Si Si1 0.312246 0.583577 0.424160
Si Si2 0.088740 0.229192 0.706565
Si Si3 0.500000 0.500000 0.139145
Si Si4 0.293481 0.814145 0.948041
Si Si5 0.545257 0.793487 0.747886
Si Si6 0.154158 0.337809 0.300799
Si Si7 0.879918 0.118528 0.278974
O O1 0.309779 0.557069 0.544649
O O2 0.440872 0.613532 0.372778
O O3 0.315236 0.716550 0.410868
O O4 0.197523 0.458432 0.372660
O O5 0.190675 0.361572 0.659696
O O6 0.123672 0.127317 0.665215
O O7 0.092338 0.230968 0.827304
O O8 0.958884 0.213810 0.669647
O O9 0.448318 0.377965 0.209164
O O10 0.614119 0.526952 0.066759
O O11 0.627113 0.777937 0.659215
O O12 0.613220 0.803404 0.853724
O O13 0.007423 0.242111 0.307942
#
# Coordination Sequence:
#
# PCOD8324729 Si02
#       7
#     6   6   3   6   6   6   6
#     4  11  23  42  72  99 131 181 237 289 336 409
#     4  12  27  43  70 101 142 182 224 288 353 416
#     4  10  18  42  72  94 128 182 236 280 326 412
#     4  11  22  40  66 100 136 178 230 286 344 412
#     4  11  23  43  67 102 132 178 235 281 339 411
#     4  12  24  45  72  97 135 179 235 281 340 417
#     4  12  27  44  67 103 140 181 223 288 352 414
#
# _framework density 22.316755000000001
#
# number of rings (size 3 to 8) (size 9 to 14) (size 15 to 20)
#    0.000    0.615    6.154    3.231    4.308    1.231 
#    0.000    0.769    0.000    0.000    0.000    0.000 
#    0.000    0.000    0.000    0.000    0.000    0.000 
#
# Total GULP energy -483215.931022 kJ/mol
# GULP energy per Si atom -12390.152077 kJ/mol
# Density = 2.226596 g / cm^3
# Si number density = 22.316755 Si / 1000 Ang^3
#
#
#
# Elastic Constant Matrix: (Units=GPa)
#
#
# Indices 1 2 3 4 5 6 
#
# 1 77.2136 24.3672 31.4845 0.0000 0.0000 0.0000
# 2 24.3672 77.2136 31.4845 0.0000 0.0000 0.0000
# 3 31.4845 31.4845 132.4593 0.0000 0.0000 0.0000
# 4 0.0000 0.0000 0.0000 17.3501 0.0000 0.0000
# 5 0.0000 0.0000 0.0000 0.0000 17.3501 0.0000
# 6 0.0000 0.0000 0.0000 0.0000 0.0000 26.4232
#
#
#
# Elastic Compliance Matrix: (Units=1/GPa)
#
#
# Indices 1 2 3 4 5 6 
#
# 1 0.015234 -0.003689 -0.002744 0.000000 0.000000 0.000000
# 2 -0.003689 0.015234 -0.002744 0.000000 0.000000 0.000000
# 3 -0.002744 -0.002744 0.008854 0.000000 0.000000 0.000000
# 4 0.000000 0.000000 0.000000 0.057637 0.000000 0.000000
# 5 0.000000 0.000000 0.000000 0.000000 0.057637 0.000000
# 6 0.000000 0.000000 0.000000 0.000000 0.000000 0.037846
#
#
# Mechanical properties :
#
#
# Convention : Reuss Voigt Hill
#
# Bulk Modulus (GPa) = 47.69164 51.28429 49.48796
# Shear Modulus (GPa) = 22.95843 25.52802 24.24323
#
# Velocity S-wave (km/s) = 3.21090 3.38582 3.29952
# Velocity P-wave (km/s) = 5.92986 6.18992 6.06128
#
# Compressibility (1/GPa) = 0.02096804
#
# Stress axis : x y z
#
# Youngs Moduli (GPa) = 65.64198 65.64198 112.94240
#
# Poissons Ratio (x) = 0.24213 0.30995
# Poissons Ratio (y) = 0.24213 0.30995
# Poissons Ratio (z) = 0.18014 0.18014
#
# Static dielectric constant tensor:
#      x y z
#    x 4.150120 0.000000 0.000000 
#    y 0.000000 4.150120 0.000000 
#    z 0.000000 0.000000 4.103700 
# 
# 
# High freq. dielectric constant tensor:
#      x y z
#    x 1.874620 0.000000 0.000000 
#    y 0.000000 1.874620 0.000000 
#    z 0.000000 0.000000 1.885290 
# 
# From -- ./inp_files/2012.got.cif
#   From: 2010.03.12/outbox.cif.g09.slc.cpg/sg171_2_cif.got.tgz:2012.got - 2010.04.02 06:49:11.
