data_PCOD8324454
_publ_section_title
;
Structure prediction by ZEFSAII (Michael W. Deem and Ramdas Pophale) SiO2 
 PCOD8324454
Probable space group: P 61
;
_chemical_formula_sum "Si O2"
_cell_formula_units_Z 48
_cell_length_a 14.893078
_cell_length_b 14.893078
_cell_length_c 10.943038
_cell_angle_alpha 90.000000
_cell_angle_beta 90.000000
_cell_angle_gamma 120.000000
_cell_volume 2102.023017
_symmetry_space_group_name_H-M "P 61"
_symmetry_group_IT_number 169
_symmetry_cell_setting 'hexagonal'
loop_
_space_group_symop_operation_xyz
x,y,z
x-y,x,1/6+z
-y,x-y,1/3+z
-x,-y,1/2+z
-x+y,-x,2/3+z
y,-x+y,5/6+z
loop_
_atom_site_type_symbol
_atom_site_label
_atom_site_fract_x
_atom_site_fract_y
_atom_site_fract_z
Si Si1 0.099254 0.693430 0.974460
Si Si2 0.189903 0.103701 0.475406
Si Si3 0.772251 0.655278 0.329130
Si Si4 0.550487 0.444552 0.006775
Si Si5 0.406722 0.306350 0.817320
Si Si6 0.640045 0.760618 0.791516
Si Si7 0.885101 0.439573 0.286405
Si Si8 0.519890 0.258923 0.474304
O O1 0.157345 0.661628 0.873422
O O2 0.987879 0.655938 0.909886
O O3 0.082339 0.629752 0.098901
O O4 0.162752 0.816205 0.010981
O O5 0.110391 0.131111 0.537287
O O6 0.237852 0.071581 0.586758
O O7 0.280910 0.198732 0.404699
O O8 0.671173 0.657901 0.371364
O O9 0.831583 0.647791 0.450428
O O10 0.745717 0.560278 0.241455
O O11 0.493274 0.341341 0.922842
O O12 0.466247 0.472074 0.059423
O O13 0.616415 0.417646 0.104773
O O14 0.456393 0.368709 0.693199
O O15 0.528250 0.723913 0.850361
O O16 0.788119 0.412035 0.194643
#
# Coordination Sequence:
#
# PCOD8324454 Si02
#       8
#     6   6   6   6   6   6   6   6
#     4  10  20  33  59  92 137 175 231 279 347 409
#     4  11  20  32  60 100 142 176 222 270 330 401
#     4  10  18  32  56  97 129 173 228 279 326 413
#     4  10  19  35  57  91 126 184 229 288 344 409
#     4  10  20  33  59  92 137 175 231 279 347 409
#     4  10  18  32  56  97 129 173 228 279 326 413
#     4  10  19  35  57  91 126 184 229 288 344 409
#     4   9  18  30  58  88 126 172 232 282 340 405
#
# _framework density 22.835142999999999
#
# number of rings (size 3 to 8) (size 9 to 14) (size 15 to 20)
#    0.000    2.000    5.000    0.000    0.000    0.000 
#    0.000    1.250    0.000   13.500    0.000    0.000 
#    0.000    0.000    0.000    0.000    0.000    0.000 
#
# Total GULP energy -594733.273723 kJ/mol
# GULP energy per Si atom -12390.276536 kJ/mol
# Density = 2.278317 g / cm^3
# Si number density = 22.835143 Si / 1000 Ang^3
#
#
#
# Elastic Constant Matrix: (Units=GPa)
#
#
# Indices 1 2 3 4 5 6 
#
# 1 88.8934 43.9774 53.6380 0.0000 0.0000 0.0000
# 2 43.9774 88.8934 53.6380 0.0000 0.0000 0.0000
# 3 53.6380 53.6380 87.3672 0.0000 0.0000 0.0000
# 4 0.0000 0.0000 0.0000 40.3772 0.0000 0.0000
# 5 0.0000 0.0000 0.0000 0.0000 40.3772 0.0000
# 6 0.0000 0.0000 0.0000 0.0000 0.0000 22.4580
#
#
#
# Elastic Compliance Matrix: (Units=1/GPa)
#
#
# Indices 1 2 3 4 5 6 
#
# 1 0.018593 -0.003670 -0.009162 0.000000 0.000000 0.000000
# 2 -0.003670 0.018593 -0.009162 0.000000 0.000000 0.000000
# 3 -0.009162 -0.009162 0.022696 0.000000 0.000000 0.000000
# 4 0.000000 0.000000 0.000000 0.024766 0.000000 0.000000
# 5 0.000000 0.000000 0.000000 0.000000 0.024766 0.000000
# 6 0.000000 0.000000 0.000000 0.000000 0.000000 0.044528
#
#
# Mechanical properties :
#
#
# Convention : Reuss Voigt Hill
#
# Bulk Modulus (GPa) = 62.91543 63.07345 62.99444
# Shear Modulus (GPa) = 24.60275 28.23586 26.41931
#
# Velocity S-wave (km/s) = 3.28595 3.52022 3.40510
# Velocity P-wave (km/s) = 6.48139 6.64859 6.56552
#
# Compressibility (1/GPa) = 0.01589435
#
# Stress axis : x y z
#
# Youngs Moduli (GPa) = 53.78234 53.78234 44.06136
#
# Poissons Ratio (x) = 0.19740 0.40369
# Poissons Ratio (y) = 0.19740 0.40369
# Poissons Ratio (z) = 0.49275 0.49275
#
# Static dielectric constant tensor:
#      x y z
#    x 3.982830 0.000000 0.000000 
#    y 0.000000 3.982830 0.000000 
#    z 0.000000 0.000000 4.000470 
# 
# 
# High freq. dielectric constant tensor:
#      x y z
#    x 1.886410 0.000000 0.000000 
#    y 0.000000 1.886410 0.000000 
#    z 0.000000 0.000000 1.891590 
# 
# From -- ./inp_files/1044.got.cif
#   From: 2010.03.12/outbox.cif.g09.slc.cpg/sg169_cif.got.tgz:1044.got - 2010.04.02 06:46:06.
