data_PCOD8324179
_publ_section_title
;
Structure prediction by ZEFSAII (Michael W. Deem and Ramdas Pophale) SiO2 
 PCOD8324179
Probable space group: R -3 M
;
_chemical_formula_sum "Si O2"
_cell_formula_units_Z 144
_cell_length_a 28.921953
_cell_length_b 28.921953
_cell_length_c 9.760467
_cell_angle_alpha 90.000000
_cell_angle_beta 90.000000
_cell_angle_gamma 120.000000
_cell_volume 7070.603131
_symmetry_space_group_name_H-M "R -3 M"
_symmetry_group_IT_number 166
_symmetry_cell_setting 'hexagonal'
loop_
_space_group_symop_operation_xyz
x,y,z
-y,x-y,z
-x+y,-x,z
x-y,-y,-z
-x,-x+y,-z
y,x,-z
-x,-y,-z
y,-x+y,-z
x-y,x,-z
-x+y,y,z
x,x-y,z
-y,-x,z
2/3+x,1/3+y,1/3+z
2/3-y,1/3+x-y,1/3+z
2/3-x+y,1/3-x,1/3+z
2/3+x-y,1/3-y,1/3-z
2/3-x,1/3-x+y,1/3-z
2/3+y,1/3+x,1/3-z
2/3-x,1/3-y,1/3-z
2/3+y,1/3-x+y,1/3-z
2/3+x-y,1/3+x,1/3-z
2/3-x+y,1/3+y,1/3+z
2/3+x,1/3+x-y,1/3+z
2/3-y,1/3-x,1/3+z
1/3+x,2/3+y,2/3+z
1/3-y,2/3+x-y,2/3+z
1/3-x+y,2/3-x,2/3+z
1/3+x-y,2/3-y,2/3-z
1/3-x,2/3-x+y,2/3-z
1/3+y,2/3+x,2/3-z
1/3-x,2/3-y,2/3-z
1/3+y,2/3-x+y,2/3-z
1/3+x-y,2/3+x,2/3-z
1/3-x+y,2/3+y,2/3+z
1/3+x,2/3+x-y,2/3+z
1/3-y,2/3-x,2/3+z
loop_
_atom_site_type_symbol
_atom_site_label
_atom_site_fract_x
_atom_site_fract_y
_atom_site_fract_z
Si Si1 0.958298 0.813057 0.881678
Si Si2 0.302150 0.805205 0.025814
Si Si3 0.965200 0.398737 0.128142
Si Si4 0.368034 0.426437 0.302593
O O1 0.912257 0.824514 0.936781
O O2 0.928878 0.752970 0.821295
O O3 0.989928 0.854305 0.760252
O O4 0.000000 0.820655 0.000000
O O5 0.254836 0.745164 0.024935
O O6 0.333334 0.817620 0.166667
O O7 0.278585 0.845030 0.997705
O O8 0.999246 0.415988 0.269818
O O9 0.944910 0.336411 0.091263
O O10 0.000000 0.436318 0.000000
O O11 0.333334 0.411648 0.166667
#
# Coordination Sequence:
#
# PCOD8324179 Si02
#       4
#    36  36  36  36
#     4  11  24  41  61  85 115 155 197 239 293 352
#     4  10  20  37  61  86 113 148 191 244 305 358
#     4   9  18  32  54  83 116 156 196 232 273 328
#     4   8  16  30  49  77 112 150 186 222 267 323
#
# _framework density 20.366012999999999
#
# number of rings (size 3 to 8) (size 9 to 14) (size 15 to 20)
#    0.000    2.500    0.000    3.000    0.000    6.500 
#    0.000    3.750    0.000   17.500    0.000    0.000 
#    0.000    0.000    0.000    0.000    0.000    0.000 
#
# Total GULP energy -594943.763007 kJ/mol
# GULP energy per Si atom -12394.661729 kJ/mol
# Density = 2.031966 g / cm^3
# Si number density = 20.366013 Si / 1000 Ang^3
#
#
#
# Elastic Constant Matrix: (Units=GPa)
#
#
# Indices 1 2 3 4 5 6 
#
# 1 94.7303 62.8133 28.9014 7.1975 0.0539 0.0014
# 2 62.8133 94.6886 28.8507 -6.8947 -0.0795 0.0031
# 3 28.9014 28.8507 73.1421 0.3879 0.0498 0.0184
# 4 7.1975 -6.8947 0.3879 117.6752 0.7134 0.0079
# 5 0.0539 -0.0795 0.0498 0.7134 118.6355 6.9000
# 6 0.0014 0.0031 0.0184 0.0079 6.9000 15.9286
#
#
#
# Elastic Compliance Matrix: (Units=1/GPa)
#
#
# Indices 1 2 3 4 5 6 
#
# 1 0.019813 -0.012391 -0.002931 -0.001928 -0.000005 0.000007
# 2 -0.012391 0.019813 -0.002930 0.001928 0.000009 -0.000004
# 3 -0.002931 -0.002930 0.015986 -0.000045 -0.000006 -0.000015
# 4 -0.001928 0.001928 -0.000045 0.008729 -0.000051 0.000018
# 5 -0.000005 0.000009 -0.000006 -0.000051 0.008647 -0.003746
# 6 0.000007 -0.000004 -0.000015 0.000018 -0.003746 0.064403
#
#
# Mechanical properties :
#
#
# Convention : Reuss Voigt Hill
#
# Bulk Modulus (GPa) = 52.32938 55.96574 54.14756
# Shear Modulus (GPa) = 27.73698 59.91422 43.82560
#
# Velocity S-wave (km/s) = 3.69443 5.42979 4.64389
# Velocity P-wave (km/s) = 6.62938 8.17617 7.44306
#
# Compressibility (1/GPa) = 0.01910972
#
# Stress axis : x y z
#
# Youngs Moduli (GPa) = 50.47204 50.47074 62.55435
#
# Poissons Ratio (x) = 0.62536 0.18336
# Poissons Ratio (y) = 0.62538 0.18326
# Poissons Ratio (z) = 0.14795 0.14786
#
# Static dielectric constant tensor:
#      x y z
#    x 3.559290 0.000000 -0.000130 
#    y 0.000000 3.559300 -0.000080 
#    z -0.000130 -0.000080 3.719570 
# 
# 
# High freq. dielectric constant tensor:
#      x y z
#    x 1.774880 0.000000 -0.000010 
#    y 0.000000 1.774880 0.000000 
#    z -0.000010 0.000000 1.790980 
# 
# From -- ./inp_files/1758.got.cif
#   From: 2010.03.12/outbox.cif.g09.slc.cpg/sg166_1_cif.got.tgz:1758.got - 2010.04.02 06:38:31.
