data_PCOD8324025
_publ_section_title
;
Structure prediction by ZEFSAII (Michael W. Deem and Ramdas Pophale) SiO2 
 PCOD8324025
Probable space group: R -3 M
;
_chemical_formula_sum "Si O2"
_cell_formula_units_Z 216
_cell_length_a 23.247362
_cell_length_b 23.247362
_cell_length_c 25.971468
_cell_angle_alpha 90.000000
_cell_angle_beta 90.000000
_cell_angle_gamma 120.000000
_cell_volume 12155.546432
_symmetry_space_group_name_H-M "R -3 M"
_symmetry_group_IT_number 166
_symmetry_cell_setting 'hexagonal'
loop_
_space_group_symop_operation_xyz
x,y,z
-y,x-y,z
-x+y,-x,z
x-y,-y,-z
-x,-x+y,-z
y,x,-z
-x,-y,-z
y,-x+y,-z
x-y,x,-z
-x+y,y,z
x,x-y,z
-y,-x,z
2/3+x,1/3+y,1/3+z
2/3-y,1/3+x-y,1/3+z
2/3-x+y,1/3-x,1/3+z
2/3+x-y,1/3-y,1/3-z
2/3-x,1/3-x+y,1/3-z
2/3+y,1/3+x,1/3-z
2/3-x,1/3-y,1/3-z
2/3+y,1/3-x+y,1/3-z
2/3+x-y,1/3+x,1/3-z
2/3-x+y,1/3+y,1/3+z
2/3+x,1/3+x-y,1/3+z
2/3-y,1/3-x,1/3+z
1/3+x,2/3+y,2/3+z
1/3-y,2/3+x-y,2/3+z
1/3-x+y,2/3-x,2/3+z
1/3+x-y,2/3-y,2/3-z
1/3-x,2/3-x+y,2/3-z
1/3+y,2/3+x,2/3-z
1/3-x,2/3-y,2/3-z
1/3+y,2/3-x+y,2/3-z
1/3+x-y,2/3+x,2/3-z
1/3-x+y,2/3+y,2/3+z
1/3+x,2/3+x-y,2/3+z
1/3-y,2/3-x,2/3+z
loop_
_atom_site_type_symbol
_atom_site_label
_atom_site_fract_x
_atom_site_fract_y
_atom_site_fract_z
Si Si1 0.273116 0.073964 0.520238
Si Si2 0.950921 0.652286 0.226980
Si Si3 0.036688 0.750789 0.377896
Si Si4 0.939356 0.187944 0.859225
Si Si5 0.749110 0.939200 0.701374
Si Si6 0.466094 0.800323 0.889935
O O1 0.251684 0.125842 0.497858
O O2 0.263127 0.074565 0.582626
O O3 0.350554 0.101236 0.506763
O O4 0.224820 0.000000 0.500000
O O5 0.948243 0.666667 0.166667
O O6 0.911941 0.571561 0.234254
O O7 0.918224 0.686710 0.260354
O O8 0.023959 0.679882 0.248767
O O9 0.085653 0.752320 0.333334
O O10 0.972523 0.745593 0.351349
O O11 0.875340 0.124661 0.885151
O O12 0.977225 0.161196 0.823990
O O13 0.745292 0.872646 0.682649
O O14 0.818890 0.987884 0.728708
O O15 0.392666 0.785331 0.905236
O O16 0.463802 0.731901 0.874855
#
# Coordination Sequence:
#
# PCOD8324025 Si02
#       6
#    36  36  36  36  36  36
#     4  11  21  35  56  81 106 137 179 225 273 320
#     4  11  17  33  53  75 108 134 169 217 264 316
#     4  10  19  32  49  72 108 139 170 213 264 320
#     4  10  18  30  53  79 103 131 170 216 262 313
#     4  10  22  33  50  77 104 142 179 214 262 317
#     4  10  20  34  50  72 101 137 178 217 257 304
#
# _framework density 17.769666000000001
#
# number of rings (size 3 to 8) (size 9 to 14) (size 15 to 20)
#    0.000    1.667    5.000    1.167    0.000    3.333 
#    0.000    0.000    0.000    0.167    0.000    1.167 
#    0.000    0.000    0.000    0.000    0.000   53.000 
#
# Total GULP energy -892028.336904 kJ/mol
# GULP energy per Si atom -12389.282457 kJ/mol
# Density = 1.772922 g / cm^3
# Si number density = 17.769666 Si / 1000 Ang^3
#
#
#
# Elastic Constant Matrix: (Units=GPa)
#
#
# Indices 1 2 3 4 5 6 
#
# 1 89.1335 36.4901 20.0675 -3.2345 0.0001 0.0000
# 2 36.4901 89.1335 20.0675 3.2345 -0.0001 0.0000
# 3 20.0675 20.0675 51.0520 0.0000 0.0000 0.0000
# 4 -3.2345 3.2345 0.0000 12.1213 0.0000 -0.0001
# 5 0.0001 -0.0001 0.0000 0.0000 12.1213 -3.2345
# 6 0.0000 0.0000 0.0000 -0.0001 -3.2345 26.3217
#
#
#
# Elastic Compliance Matrix: (Units=1/GPa)
#
#
# Indices 1 2 3 4 5 6 
#
# 1 0.014372 -0.005268 -0.003578 0.005241 0.000000 0.000000
# 2 -0.005268 0.014372 -0.003578 -0.005241 0.000000 0.000000
# 3 -0.003578 -0.003578 0.022401 0.000000 0.000000 0.000000
# 4 0.005241 -0.005241 0.000000 0.085296 0.000000 0.000000
# 5 0.000000 0.000000 0.000000 0.000000 0.085296 0.010481
# 6 0.000000 0.000000 0.000000 0.000000 0.010481 0.039280
#
#
# Mechanical properties :
#
#
# Convention : Reuss Voigt Hill
#
# Bulk Modulus (GPa) = 38.03080 42.50770 40.26925
# Shear Modulus (GPa) = 16.97041 20.29246 18.63143
#
# Velocity S-wave (km/s) = 3.09369 3.38297 3.24156
# Velocity P-wave (km/s) = 5.84892 6.26361 6.05981
#
# Compressibility (1/GPa) = 0.02629448
#
# Stress axis : x y z
#
# Youngs Moduli (GPa) = 69.58144 69.58144 44.64073
#
# Poissons Ratio (x) = 0.36656 0.15974
# Poissons Ratio (y) = 0.36656 0.15974
# Poissons Ratio (z) = 0.24899 0.24899
#
# Static dielectric constant tensor:
#      x y z
#    x 3.448540 0.000000 0.000000 
#    y 0.000000 3.448540 0.000000 
#    z 0.000000 0.000000 3.319970 
# 
# 
# High freq. dielectric constant tensor:
#      x y z
#    x 1.684900 0.000000 0.000000 
#    y 0.000000 1.684900 0.000000 
#    z 0.000000 0.000000 1.665490 
# 
# From -- ./inp_files/8465.got.cif
#   From: 2010.03.12/outbox.cif.g09.slc.cpg/sg166_5_cif.got.tgz:8465.got - 2010.04.02 06:38:31.
