data_PCOD8324314
_publ_section_title
;
Structure prediction by ZEFSAII (Michael W. Deem and Ramdas Pophale) SiO2 
 PCOD8324314
Probable space group: R -3 C 
;
_chemical_formula_sum "Si O2"
_cell_formula_units_Z 216
_cell_length_a 22.316520
_cell_length_b 22.316520
_cell_length_c 23.546713
_cell_angle_alpha 90.000000
_cell_angle_beta 90.000000
_cell_angle_gamma 120.000000
_cell_volume 10155.793623
_symmetry_space_group_name_H-M "R -3 C "
_symmetry_group_IT_number 167
_symmetry_cell_setting 'hexagonal'
loop_
_space_group_symop_operation_xyz
x,y,z
-y,x-y,z
-x+y,-x,z
x-y,-y,1/2-z
-x,-x+y,1/2-z
y,x,1/2-z
-x,-y,-z
y,-x+y,-z
x-y,x,-z
-x+y,y,1/2+z
x,x-y,1/2+z
-y,-x,1/2+z
2/3+x,1/3+y,1/3+z
2/3-y,1/3+x-y,1/3+z
2/3-x+y,1/3-x,1/3+z
2/3+x-y,1/3-y,5/6-z
2/3-x,1/3-x+y,5/6-z
2/3+y,1/3+x,5/6-z
2/3-x,1/3-y,1/3-z
2/3+y,1/3-x+y,1/3-z
2/3+x-y,1/3+x,1/3-z
2/3-x+y,1/3+y,5/6+z
2/3+x,1/3+x-y,5/6+z
2/3-y,1/3-x,5/6+z
1/3+x,2/3+y,2/3+z
1/3-y,2/3+x-y,2/3+z
1/3-x+y,2/3-x,2/3+z
1/3+x-y,2/3-y,1/6-z
1/3-x,2/3-x+y,1/6-z
1/3+y,2/3+x,1/6-z
1/3-x,2/3-y,2/3-z
1/3+y,2/3-x+y,2/3-z
1/3+x-y,2/3+x,2/3-z
1/3-x+y,2/3+y,1/6+z
1/3+x,2/3+x-y,1/6+z
1/3-y,2/3-x,1/6+z
loop_
_atom_site_type_symbol
_atom_site_label
_atom_site_fract_x
_atom_site_fract_y
_atom_site_fract_z
Si Si1 0.003846 0.132534 0.978245
Si Si2 0.654096 0.591037 0.856259
Si Si3 0.202705 0.540462 0.512533
Si Si4 0.710972 0.904951 0.637843
Si Si5 0.659130 0.191833 0.147918
Si Si6 0.713597 0.606603 0.980236
O O1 0.014335 0.204387 0.003574
O O2 0.983904 0.121953 0.912097
O O3 0.072919 0.129278 0.985412
O O4 0.577514 0.580916 0.856860
O O5 0.677209 0.597615 0.920466
O O6 0.708655 0.661718 0.822107
O O7 0.273433 0.555815 0.481585
O O8 0.184058 0.600012 0.503538
O O9 0.139784 0.467514 0.487495
O O10 0.666667 0.907149 0.583334
O O11 0.791575 0.965049 0.643957
O O12 0.704959 0.831287 0.639368
O O13 0.666667 0.172501 0.083334
#
# Coordination Sequence:
#
# PCOD8324314 Si02
#       6
#    36  36  36  36  36  36
#     4  11  22  33  59  97 136 168 210 273 345 402
#     4  10  20  36  65  85 127 166 211 250 328 384
#     4  10  22  40  63  92 131 172 220 269 327 399
#     4  11  23  40  66  95 128 169 217 270 329 396
#     4  11  24  42  67  93 127 175 226 271 327 388
#     4   9  20  41  63  89 127 167 206 266 321 390
#
# _framework density 21.268649
#
# number of rings (size 3 to 8) (size 9 to 14) (size 15 to 20)
#    0.000    1.667    1.667    3.000    9.333    0.000 
#    0.000    4.167    0.000    0.000    0.000    0.000 
#    0.000    0.000    0.000    0.000    0.000    0.000 
#
# Total GULP energy -892274.507727 kJ/mol
# GULP energy per Si atom -12392.701496 kJ/mol
# Density = 2.122024 g / cm^3
# Si number density = 21.268649 Si / 1000 Ang^3
#
#
#
# Elastic Constant Matrix: (Units=GPa)
#
#
# Indices 1 2 3 4 5 6 
#
# 1 152.0384 75.1576 22.5314 7.5767 0.0000 0.0000
# 2 75.1576 152.0384 22.5314 -7.5767 0.0000 0.0000
# 3 22.5314 22.5314 51.2639 0.0000 0.0000 0.0000
# 4 7.5767 -7.5767 0.0000 21.4927 0.0000 0.0000
# 5 0.0000 0.0000 0.0000 0.0000 21.4927 7.5767
# 6 0.0000 0.0000 0.0000 0.0000 7.5767 38.4404
#
#
#
# Elastic Compliance Matrix: (Units=1/GPa)
#
#
# Indices 1 2 3 4 5 6 
#
# 1 0.009400 -0.004578 -0.002119 -0.004928 0.000000 0.000000
# 2 -0.004578 0.009400 -0.002119 0.004928 0.000000 0.000000
# 3 -0.002119 -0.002119 0.021370 0.000000 0.000000 0.000000
# 4 -0.004928 0.004928 0.000000 0.050002 0.000000 0.000000
# 5 0.000000 0.000000 0.000000 0.000000 0.050002 -0.009855
# 6 0.000000 0.000000 0.000000 0.000000 -0.009855 0.027957
#
#
# Mechanical properties :
#
#
# Convention : Reuss Voigt Hill
#
# Bulk Modulus (GPa) = 44.37270 66.19792 55.28531
# Shear Modulus (GPa) = 25.86975 31.95987 28.91481
#
# Velocity S-wave (km/s) = 3.49138 3.88064 3.69114
# Velocity P-wave (km/s) = 6.09600 7.16040 6.64953
#
# Compressibility (1/GPa) = 0.02253638
#
# Stress axis : x y z
#
# Youngs Moduli (GPa) = 106.38158 106.38158 46.79493
#
# Poissons Ratio (x) = 0.48705 0.09917
# Poissons Ratio (y) = 0.48705 0.09917
# Poissons Ratio (z) = 0.22545 0.22545
#
# Static dielectric constant tensor:
#      x y z
#    x 4.517040 0.000000 0.000000 
#    y 0.000000 4.517040 0.000000 
#    z 0.000000 0.000000 3.537480 
# 
# 
# High freq. dielectric constant tensor:
#      x y z
#    x 1.845640 0.000000 0.000000 
#    y 0.000000 1.845640 0.000000 
#    z 0.000000 0.000000 1.800900 
# 
# From -- ./inp_files/5528.got.cif
#   From: 2010.03.12/outbox.cif.g09.slc.cpg/sg167_3_cif.got.tgz:5528.got - 2010.04.02 06:42:56.
