data_PCOD8324321
_publ_section_title
;
Structure prediction by ZEFSAII (Michael W. Deem and Ramdas Pophale) SiO2 
 PCOD8324321
Probable space group: R -3 C 
;
_chemical_formula_sum "Si O2"
_cell_formula_units_Z 234
_cell_length_a 26.007131
_cell_length_b 26.007131
_cell_length_c 20.258248
_cell_angle_alpha 90.000000
_cell_angle_beta 90.000000
_cell_angle_gamma 120.000000
_cell_volume 11866.356881
_symmetry_space_group_name_H-M "R -3 C "
_symmetry_group_IT_number 167
_symmetry_cell_setting 'hexagonal'
loop_
_space_group_symop_operation_xyz
x,y,z
-y,x-y,z
-x+y,-x,z
x-y,-y,1/2-z
-x,-x+y,1/2-z
y,x,1/2-z
-x,-y,-z
y,-x+y,-z
x-y,x,-z
-x+y,y,1/2+z
x,x-y,1/2+z
-y,-x,1/2+z
2/3+x,1/3+y,1/3+z
2/3-y,1/3+x-y,1/3+z
2/3-x+y,1/3-x,1/3+z
2/3+x-y,1/3-y,5/6-z
2/3-x,1/3-x+y,5/6-z
2/3+y,1/3+x,5/6-z
2/3-x,1/3-y,1/3-z
2/3+y,1/3-x+y,1/3-z
2/3+x-y,1/3+x,1/3-z
2/3-x+y,1/3+y,5/6+z
2/3+x,1/3+x-y,5/6+z
2/3-y,1/3-x,5/6+z
1/3+x,2/3+y,2/3+z
1/3-y,2/3+x-y,2/3+z
1/3-x+y,2/3-x,2/3+z
1/3+x-y,2/3-y,1/6-z
1/3-x,2/3-x+y,1/6-z
1/3+y,2/3+x,1/6-z
1/3-x,2/3-y,2/3-z
1/3+y,2/3-x+y,2/3-z
1/3+x-y,2/3+x,2/3-z
1/3-x+y,2/3+y,1/6+z
1/3+x,2/3+x-y,1/6+z
1/3-y,2/3-x,1/6+z
loop_
_atom_site_type_symbol
_atom_site_label
_atom_site_fract_x
_atom_site_fract_y
_atom_site_fract_z
Si Si1 0.530420 0.263602 0.332554
Si Si2 0.262133 0.458792 0.415011
Si Si3 0.093433 0.333334 0.583334
Si Si4 0.139962 0.934907 0.872512
Si Si5 0.804946 0.543752 0.455799
Si Si6 0.318104 0.991869 0.005818
Si Si7 0.425563 0.998042 0.570166
O O1 0.571186 0.332006 0.314674
O O2 0.489803 0.231551 0.270451
O O3 0.488930 0.253547 0.394020
O O4 0.333334 0.492590 0.416667
O O5 0.238547 0.482395 0.355557
O O6 0.238877 0.469164 0.483612
O O7 0.232946 0.389062 0.402425
O O8 0.157001 0.387020 0.562271
O O9 0.066714 0.349795 0.647225
O O10 0.176427 0.900476 0.882404
O O11 0.186872 0.003749 0.859832
O O12 0.318242 0.984909 0.083334
O O13 0.258890 0.935451 0.976961
O O14 0.377041 0.993548 0.980902
#
# Coordination Sequence:
#
# PCOD8324321 Si02
#       7
#    36  36  18  36  36  36  36
#     4  10  23  43  66  92 123 164 215 278 334 389
#     4  12  25  42  62  93 133 172 219 274 334 390
#     4  10  22  40  58 102 130 166 234 254 334 406
#     4  11  23  42  65  92 128 168 222 269 329 398
#     4  11  24  41  65  94 129 169 221 276 329 400
#     4  10  20  38  67  85 138 174 205 270 327 386
#     4  10  22  42  56 101 125 168 222 253 322 406
#
# _framework density 19.719615999999998
#
# number of rings (size 3 to 8) (size 9 to 14) (size 15 to 20)
#    0.000    1.538    4.615    2.000    4.308    2.462 
#    0.000    0.000    0.000    4.308    0.000    0.000 
#    0.000    0.000    0.000    0.000    0.000    0.000 
#
# Total GULP energy -967391.235766 kJ/mol
# GULP energy per Si atom -12402.451741 kJ/mol
# Density = 1.967473 g / cm^3
# Si number density = 19.719616 Si / 1000 Ang^3
#
#
#
# Elastic Constant Matrix: (Units=GPa)
#
#
# Indices 1 2 3 4 5 6 
#
# 1 88.2198 66.0726 39.0739 -11.6016 0.0012 0.0000
# 2 66.0726 88.2198 39.0739 11.6016 -0.0012 0.0000
# 3 39.0739 39.0739 118.2339 0.0000 0.0000 0.0000
# 4 -11.6016 11.6016 0.0000 19.3330 0.0000 -0.0012
# 5 0.0012 -0.0012 0.0000 0.0000 19.3330 -11.6016
# 6 0.0000 0.0000 0.0000 -0.0012 -11.6016 11.0736
#
#
#
# Elastic Compliance Matrix: (Units=1/GPa)
#
#
# Indices 1 2 3 4 5 6 
#
# 1 0.064696 -0.056912 -0.002573 0.072975 -0.000007 0.000000
# 2 -0.056912 0.064696 -0.002573 -0.072975 0.000007 0.000000
# 3 -0.002573 -0.002573 0.010158 0.000000 0.000000 0.000000
# 4 0.072975 -0.072975 0.000000 0.139308 0.000000 0.000015
# 5 -0.000007 0.000007 0.000000 0.000000 0.139308 0.145951
# 6 0.000000 0.000000 0.000000 0.000015 0.145951 0.243215
#
#
# Mechanical properties :
#
#
# Convention : Reuss Voigt Hill
#
# Bulk Modulus (GPa) = 64.78187 64.79049 64.78618
# Shear Modulus (GPa) = 6.32399 19.97814 13.15106
#
# Velocity S-wave (km/s) = 1.79274 3.18639 2.58525
# Velocity P-wave (km/s) = 6.09984 6.81650 6.46810
#
# Compressibility (1/GPa) = 0.01543642
#
# Stress axis : x y z
#
# Youngs Moduli (GPa) = 15.45697 15.45697 98.44327
#
# Poissons Ratio (x) = 0.87968 0.25325
# Poissons Ratio (y) = 0.87968 0.25325
# Poissons Ratio (z) = 0.03976 0.03976
#
# Static dielectric constant tensor:
#      x y z
#    x 3.637400 0.000000 0.000000 
#    y 0.000000 3.637400 0.000000 
#    z 0.000000 0.000000 3.596360 
# 
# 
# High freq. dielectric constant tensor:
#      x y z
#    x 1.773130 0.000000 0.000000 
#    y 0.000000 1.773130 0.000000 
#    z 0.000000 0.000000 1.773680 
# 
# From -- ./inp_files/4713.got.cif
#   From: 2010.03.12/outbox.cif.g09.slc.cpg/sg167_3_cif.got.tgz:4713.got - 2010.04.02 06:42:56.
