data_PCOD8324170
_publ_section_title
;
Structure prediction by ZEFSAII (Michael W. Deem and Ramdas Pophale) SiO2 
 PCOD8324170
Probable space group: R -3 M
;
_chemical_formula_sum "Si O2"
_cell_formula_units_Z 216
_cell_length_a 22.449443
_cell_length_b 22.449443
_cell_length_c 24.400070
_cell_angle_alpha 90.000000
_cell_angle_beta 90.000000
_cell_angle_gamma 120.000000
_cell_volume 10649.588920
_symmetry_space_group_name_H-M "R -3 M"
_symmetry_group_IT_number 166
_symmetry_cell_setting 'hexagonal'
loop_
_space_group_symop_operation_xyz
x,y,z
-y,x-y,z
-x+y,-x,z
x-y,-y,-z
-x,-x+y,-z
y,x,-z
-x,-y,-z
y,-x+y,-z
x-y,x,-z
-x+y,y,z
x,x-y,z
-y,-x,z
2/3+x,1/3+y,1/3+z
2/3-y,1/3+x-y,1/3+z
2/3-x+y,1/3-x,1/3+z
2/3+x-y,1/3-y,1/3-z
2/3-x,1/3-x+y,1/3-z
2/3+y,1/3+x,1/3-z
2/3-x,1/3-y,1/3-z
2/3+y,1/3-x+y,1/3-z
2/3+x-y,1/3+x,1/3-z
2/3-x+y,1/3+y,1/3+z
2/3+x,1/3+x-y,1/3+z
2/3-y,1/3-x,1/3+z
1/3+x,2/3+y,2/3+z
1/3-y,2/3+x-y,2/3+z
1/3-x+y,2/3-x,2/3+z
1/3+x-y,2/3-y,2/3-z
1/3-x,2/3-x+y,2/3-z
1/3+y,2/3+x,2/3-z
1/3-x,2/3-y,2/3-z
1/3+y,2/3-x+y,2/3-z
1/3+x-y,2/3+x,2/3-z
1/3-x+y,2/3+y,2/3+z
1/3+x,2/3+x-y,2/3+z
1/3-y,2/3-x,2/3+z
loop_
_atom_site_type_symbol
_atom_site_label
_atom_site_fract_x
_atom_site_fract_y
_atom_site_fract_z
Si Si1 0.487230 0.843488 0.923516
Si Si2 0.534973 0.332350 0.196391
Si Si3 0.192313 0.242893 0.950692
Si Si4 0.961083 0.322938 0.607903
Si Si5 0.386551 0.915324 0.118427
Si Si6 0.128871 0.999308 0.625947
O O1 0.439614 0.879227 0.921014
O O2 0.478769 0.802069 0.868267
O O3 0.565653 0.896956 0.931667
O O4 0.464267 0.792593 0.975004
O O5 0.563070 0.281535 0.213651
O O6 0.590558 0.409443 0.213246
O O7 0.465138 0.311115 0.227983
O O8 0.130194 0.260387 0.961959
O O9 0.267092 0.307653 0.939552
O O10 0.197324 0.197324 0.000000
O O11 0.955339 0.288672 0.666667
O O12 0.954462 0.269860 0.559821
O O13 0.465706 0.931411 0.130632
O O14 0.333334 0.871281 0.166667
O O15 0.357822 0.871391 0.063052
O O16 0.105125 0.052563 0.605794
O O17 0.075422 0.924579 0.601868
#
# Coordination Sequence:
#
# PCOD8324170 Si02
#       6
#    36  36  36  36  36  36
#     4  10  21  36  57  86 120 159 203 252 306 365
#     4  10  21  38  61  89 120 155 198 249 307 371
#     4  10  23  42  63  90 124 161 204 254 312 377
#     4  11  23  42  62  90 120 161 207 252 310 361
#     4  11  24  41  63  92 127 165 212 259 307 370
#     4  10  20  36  58  86 121 161 206 255 308 364
#
# _framework density 20.282474000000001
#
# number of rings (size 3 to 8) (size 9 to 14) (size 15 to 20)
#    0.000    1.667    1.667    2.333    2.333    2.000 
#    0.000    5.000    0.000    5.333    0.000    0.000 
#    0.000    0.000    0.000    0.000    0.000    0.000 
#
# Total GULP energy -892124.203320 kJ/mol
# GULP energy per Si atom -12390.613935 kJ/mol
# Density = 2.023631 g / cm^3
# Si number density = 20.282474 Si / 1000 Ang^3
#
#
#
# Elastic Constant Matrix: (Units=GPa)
#
#
# Indices 1 2 3 4 5 6 
#
# 1 108.2836 53.6648 23.4391 -2.9729 -0.0003 0.0000
# 2 53.6648 108.2836 23.4391 2.9729 0.0003 0.0000
# 3 23.4391 23.4391 72.6918 0.0000 0.0000 0.0000
# 4 -2.9729 2.9729 0.0000 28.3663 0.0000 0.0003
# 5 -0.0003 0.0003 0.0000 0.0000 28.3663 -2.9729
# 6 0.0000 0.0000 0.0000 0.0003 -2.9729 27.3094
#
#
#
# Elastic Compliance Matrix: (Units=1/GPa)
#
#
# Indices 1 2 3 4 5 6 
#
# 1 0.012665 -0.005855 -0.002196 0.001941 0.000000 0.000000
# 2 -0.005855 0.012665 -0.002196 -0.001941 0.000000 0.000000
# 3 -0.002196 -0.002196 0.015173 0.000000 0.000000 0.000000
# 4 0.001941 -0.001941 0.000000 0.035660 0.000000 0.000000
# 5 0.000000 0.000000 0.000000 0.000000 0.035660 0.003882
# 6 0.000000 0.000000 0.000000 0.000000 0.003882 0.037040
#
#
# Mechanical properties :
#
#
# Convention : Reuss Voigt Hill
#
# Bulk Modulus (GPa) = 49.97545 54.48278 52.22911
# Shear Modulus (GPa) = 28.40476 29.38946 28.89711
#
# Velocity S-wave (km/s) = 3.74633 3.81071 3.77866
# Velocity P-wave (km/s) = 6.58836 6.80311 6.69660
#
# Compressibility (1/GPa) = 0.02000982
#
# Stress axis : x y z
#
# Youngs Moduli (GPa) = 78.95620 78.95620 65.90700
#
# Poissons Ratio (x) = 0.46227 0.14473
# Poissons Ratio (y) = 0.46227 0.14473
# Poissons Ratio (z) = 0.17339 0.17339
#
# Static dielectric constant tensor:
#      x y z
#    x 3.702650 0.000000 0.000000 
#    y 0.000000 3.702650 0.000000 
#    z 0.000000 0.000000 3.871540 
# 
# 
# High freq. dielectric constant tensor:
#      x y z
#    x 1.794140 0.000000 0.000000 
#    y 0.000000 1.794140 0.000000 
#    z 0.000000 0.000000 1.792340 
# 
# From -- ./inp_files/8420.got.cif
#   From: 2010.03.12/outbox.cif.g09.slc.cpg/sg166_5_cif.got.tgz:8420.got - 2010.04.02 06:38:31.
