data_PCOD8324873
_publ_section_title
;
Structure prediction by ZEFSAII (Michael W. Deem and Ramdas Pophale) SiO2 
 PCOD8324873
Probable space group: P 63
;
_chemical_formula_sum "Si O2"
_cell_formula_units_Z 36
_cell_length_a 8.265118
_cell_length_b 8.265118
_cell_length_c 29.043921
_cell_angle_alpha 90.000000
_cell_angle_beta 90.000000
_cell_angle_gamma 120.000000
_cell_volume 1718.240673
_symmetry_space_group_name_H-M "P 63"
_symmetry_group_IT_number 173
_symmetry_cell_setting 'hexagonal'
loop_
_space_group_symop_operation_xyz
x,y,z
x-y,x,1/2+z
-y,x-y,z
-x,-y,1/2+z
-x+y,-x,z
y,-x+y,1/2+z
loop_
_atom_site_type_symbol
_atom_site_label
_atom_site_fract_x
_atom_site_fract_y
_atom_site_fract_z
Si Si1 0.315164 0.449590 0.411560
Si Si2 0.669176 0.993681 0.311545
Si Si3 0.333950 0.875410 0.084706
Si Si4 0.663484 0.658410 0.272294
Si Si5 0.462760 0.121316 0.171173
Si Si6 0.206669 0.209702 0.499454
O O1 0.508341 0.650427 0.412787
O O2 0.303978 0.334608 0.366270
O O3 0.309466 0.322035 0.453678
O O4 0.586255 0.795120 0.285973
O O5 0.542802 0.080413 0.295493
O O6 0.878172 0.130946 0.294316
O O7 0.149934 0.667264 0.083687
O O8 0.337914 0.988239 0.130042
O O9 0.331425 0.997242 0.041869
O O10 0.662193 0.642376 0.217505
O O11 0.674145 0.153400 0.168914
O O12 0.185100 0.002676 0.500871
#
# Coordination Sequence:
#
# PCOD8324873 Si02
#       6
#     6   6   6   6   6   6
#     4  10  23  42  68  96 128 180 225 267 340 401
#     4  12  24  44  67 100 142 183 227 282 336 415
#     4  10  26  42  67  96 128 169 225 278 345 412
#     4  12  24  44  67 100 142 183 226 279 342 412
#     4  10  23  42  68  94 129 176 219 268 339 400
#     4  10  26  42  67  94 133 169 222 288 342 406
#
# _framework density 20.951661000000001
#
# number of rings (size 3 to 8) (size 9 to 14) (size 15 to 20)
#    1.333    0.000    3.333    1.000    9.333    0.000 
#    0.000    0.000    0.000    0.000    0.000    0.000 
#    0.000    0.000    0.000    0.000    0.000    0.000 
#
# Total GULP energy -446227.458777 kJ/mol
# GULP energy per Si atom -12395.207188 kJ/mol
# Density = 2.090397 g / cm^3
# Si number density = 20.951661 Si / 1000 Ang^3
#
#
#
# Elastic Constant Matrix: (Units=GPa)
#
#
# Indices 1 2 3 4 5 6 
#
# 1 66.9719 28.4629 61.7537 0.0000 0.0000 0.0000
# 2 28.4629 66.9719 61.7537 0.0000 0.0000 0.0000
# 3 61.7537 61.7537 234.0643 0.0000 0.0000 0.0000
# 4 0.0000 0.0000 0.0000 31.8027 0.0000 0.0000
# 5 0.0000 0.0000 0.0000 0.0000 31.8027 0.0000
# 6 0.0000 0.0000 0.0000 0.0000 0.0000 19.2545
#
#
#
# Elastic Compliance Matrix: (Units=1/GPa)
#
#
# Indices 1 2 3 4 5 6 
#
# 1 0.020940 -0.005029 -0.004198 0.000000 0.000000 0.000000
# 2 -0.005029 0.020940 -0.004198 0.000000 0.000000 0.000000
# 3 -0.004198 -0.004198 0.006487 0.000000 0.000000 0.000000
# 4 0.000000 0.000000 0.000000 0.031444 0.000000 0.000000
# 5 0.000000 0.000000 0.000000 0.000000 0.031444 0.000000
# 6 0.000000 0.000000 0.000000 0.000000 0.000000 0.051936
#
#
# Mechanical properties :
#
#
# Convention : Reuss Voigt Hill
#
# Bulk Modulus (GPa) = 46.47262 74.66096 60.56679
# Shear Modulus (GPa) = 25.35353 30.97447 28.16400
#
# Velocity S-wave (km/s) = 3.48242 3.84914 3.67036
# Velocity P-wave (km/s) = 6.19667 7.44760 6.85074
#
# Compressibility (1/GPa) = 0.02151805
#
# Stress axis : x y z
#
# Youngs Moduli (GPa) = 47.75662 47.75662 154.14544
#
# Poissons Ratio (x) = 0.24014 0.64708
# Poissons Ratio (y) = 0.24014 0.64708
# Poissons Ratio (z) = 0.20047 0.20047
#
# Static dielectric constant tensor:
#      x y z
#    x 3.517520 0.000000 0.000000 
#    y 0.000000 3.517520 0.000000 
#    z 0.000000 0.000000 3.616960 
# 
# 
# High freq. dielectric constant tensor:
#      x y z
#    x 1.807170 0.000000 0.000000 
#    y 0.000000 1.807170 0.000000 
#    z 0.000000 0.000000 1.827630 
# 
# From -- ./inp_files/1483.got.cif
#   From: 2010.03.12/outbox.cif.g09.slc.cpg/sg173_cif.got.tgz:1483.got - 2010.04.02 06:54:12.
