data_PCOD8324040
_publ_section_title
;
Structure prediction by ZEFSAII (Michael W. Deem and Ramdas Pophale) SiO2 
 PCOD8324040
Probable space group: R -3 M
;
_chemical_formula_sum "Si O2"
_cell_formula_units_Z 144
_cell_length_a 28.493098
_cell_length_b 28.493098
_cell_length_c 10.890476
_cell_angle_alpha 90.000000
_cell_angle_beta 90.000000
_cell_angle_gamma 120.000000
_cell_volume 7656.968097
_symmetry_space_group_name_H-M "R -3 M"
_symmetry_group_IT_number 166
_symmetry_cell_setting 'hexagonal'
loop_
_space_group_symop_operation_xyz
x,y,z
-y,x-y,z
-x+y,-x,z
x-y,-y,-z
-x,-x+y,-z
y,x,-z
-x,-y,-z
y,-x+y,-z
x-y,x,-z
-x+y,y,z
x,x-y,z
-y,-x,z
2/3+x,1/3+y,1/3+z
2/3-y,1/3+x-y,1/3+z
2/3-x+y,1/3-x,1/3+z
2/3+x-y,1/3-y,1/3-z
2/3-x,1/3-x+y,1/3-z
2/3+y,1/3+x,1/3-z
2/3-x,1/3-y,1/3-z
2/3+y,1/3-x+y,1/3-z
2/3+x-y,1/3+x,1/3-z
2/3-x+y,1/3+y,1/3+z
2/3+x,1/3+x-y,1/3+z
2/3-y,1/3-x,1/3+z
1/3+x,2/3+y,2/3+z
1/3-y,2/3+x-y,2/3+z
1/3-x+y,2/3-x,2/3+z
1/3+x-y,2/3-y,2/3-z
1/3-x,2/3-x+y,2/3-z
1/3+y,2/3+x,2/3-z
1/3-x,2/3-y,2/3-z
1/3+y,2/3-x+y,2/3-z
1/3+x-y,2/3+x,2/3-z
1/3-x+y,2/3+y,2/3+z
1/3+x,2/3+x-y,2/3+z
1/3-y,2/3-x,2/3+z
loop_
_atom_site_type_symbol
_atom_site_label
_atom_site_fract_x
_atom_site_fract_y
_atom_site_fract_z
Si Si1 0.988097 0.192345 0.203645
Si Si2 0.107124 0.107449 0.639998
Si Si3 0.185276 0.921018 0.031689
Si Si4 0.274754 0.963041 0.699728
O O1 0.980782 0.229380 0.307269
O O2 0.981546 0.139672 0.270246
O O3 0.047562 0.224271 0.143876
O O4 0.943485 0.176682 0.097273
O O5 0.125893 0.125893 0.500000
O O6 0.116474 0.058237 0.678670
O O7 0.043615 0.087230 0.653166
O O8 0.142213 0.857788 0.040824
O O9 0.245002 0.928504 0.052717
O O10 0.274557 0.941224 0.833334
O O11 0.333334 0.014097 0.666667
#
# Coordination Sequence:
#
# PCOD8324040 Si02
#       4
#    36  36  36  36
#     4  10  20  34  56  82 109 141 182 227 275 329
#     4  10  21  38  58  80 108 145 187 229 275 328
#     4  10  19  33  54  82 111 141 178 228 279 324
#     4  10  18  34  53  77 105 145 185 218 269 324
#
# _framework density 18.806398999999999
#
# number of rings (size 3 to 8) (size 9 to 14) (size 15 to 20)
#    0.000    2.000    5.000    1.750    0.000    7.500 
#    0.000    0.000    0.000    1.500    0.000    8.750 
#    0.000    0.000    0.000    0.000    0.000    0.000 
#
# Total GULP energy -595062.934887 kJ/mol
# GULP energy per Si atom -12397.144477 kJ/mol
# Density = 1.876359 g / cm^3
# Si number density = 18.806399 Si / 1000 Ang^3
#
#
#
# Elastic Constant Matrix: (Units=GPa)
#
#
# Indices 1 2 3 4 5 6 
#
# 1 90.2910 43.7727 26.9679 1.7264 0.0294 -0.0048
# 2 43.7727 90.2674 26.9386 -1.7250 0.0025 -0.0011
# 3 26.9679 26.9386 48.7855 -0.0004 0.0720 -0.0095
# 4 1.7264 -1.7250 -0.0004 23.4272 -0.0016 0.0027
# 5 0.0294 0.0025 0.0720 -0.0016 23.4694 1.7161
# 6 -0.0048 -0.0011 -0.0095 0.0027 1.7161 23.2544
#
#
#
# Elastic Compliance Matrix: (Units=1/GPa)
#
#
# Indices 1 2 3 4 5 6 
#
# 1 0.015606 -0.006015 -0.005306 -0.001593 -0.000003 0.000001
# 2 -0.006015 0.015605 -0.005292 0.001592 0.000023 -0.000005
# 3 -0.005306 -0.005292 0.026353 0.000002 -0.000075 0.000015
# 4 -0.001593 0.001592 0.000002 0.042920 0.000005 -0.000006
# 5 -0.000003 0.000023 -0.000075 0.000005 0.042840 -0.003161
# 6 0.000001 -0.000005 0.000015 -0.000006 -0.003161 0.043236
#
#
# Mechanical properties :
#
#
# Convention : Reuss Voigt Hill
#
# Bulk Modulus (GPa) = 41.08569 47.18913 44.13741
# Shear Modulus (GPa) = 21.93966 22.80785 22.37375
#
# Velocity S-wave (km/s) = 3.41927 3.48626 3.45293
# Velocity P-wave (km/s) = 6.12230 6.43055 6.27832
#
# Compressibility (1/GPa) = 0.02433938
#
# Stress axis : x y z
#
# Youngs Moduli (GPa) = 64.07589 64.08351 37.94652
#
# Poissons Ratio (x) = 0.38546 0.20133
# Poissons Ratio (y) = 0.38542 0.20080
# Poissons Ratio (z) = 0.33996 0.33911
#
# Static dielectric constant tensor:
#      x y z
#    x 3.445000 0.000010 -0.000050 
#    y 0.000010 3.445010 0.000010 
#    z -0.000050 0.000010 3.321390 
# 
# 
# High freq. dielectric constant tensor:
#      x y z
#    x 1.728320 0.000000 0.000000 
#    y 0.000000 1.728320 0.000000 
#    z 0.000000 0.000000 1.710460 
# 
# From -- ./inp_files/1753.got.cif
#   From: 2010.03.12/outbox.cif.g09.slc.cpg/sg166_1_cif.got.tgz:1753.got - 2010.04.02 06:38:31.
