data_PCOD8324735
_publ_section_title
;
Structure prediction by ZEFSAII (Michael W. Deem and Ramdas Pophale) SiO2 
 PCOD8324735
Probable space group: P 62
;
_chemical_formula_sum "Si O2"
_cell_formula_units_Z 18
_cell_length_a 13.781560
_cell_length_b 13.781560
_cell_length_c 5.029274
_cell_angle_alpha 90.000000
_cell_angle_beta 90.000000
_cell_angle_gamma 120.000000
_cell_volume 827.242216
_symmetry_space_group_name_H-M "P 62"
_symmetry_group_IT_number 171
_symmetry_cell_setting 'hexagonal'
loop_
_space_group_symop_operation_xyz
x,y,z
x-y,x,1/3+z
-y,x-y,2/3+z
-x,-y,z
-x+y,-x,1/3+z
y,-x+y,2/3+z
loop_
_atom_site_type_symbol
_atom_site_label
_atom_site_fract_x
_atom_site_fract_y
_atom_site_fract_z
Si Si1 0.607460 0.395193 0.530450
Si Si2 0.263395 0.363134 0.529640
Si Si3 0.377147 0.230368 0.699311
O O1 0.577379 0.308030 0.293076
O O2 0.629445 0.517202 0.435961
O O3 0.503328 0.337392 0.738832
O O4 0.296649 0.267710 0.554591
O O5 0.237068 0.379843 0.830614
O O6 0.162757 0.329861 0.315568
#
# Coordination Sequence:
#
# PCOD8324735 Si02
#       3
#     6   6   6
#     4  10  19  36  58  92 134 164 203 248 328 406
#     4  11  23  39  62  90 126 168 216 266 321 387
#     4  11  23  39  62  90 126 168 216 266 321 387
#
# _framework density 21.759043999999999
#
# number of rings (size 3 to 8) (size 9 to 14) (size 15 to 20)
#    0.000    1.333    3.333    3.000    0.000    0.000 
#    0.000    6.667    0.000   10.000    0.000    0.000 
#    0.000    0.000    0.000    0.000    0.000    0.000 
#
# Total GULP energy -222997.005538 kJ/mol
# GULP energy per Si atom -12388.722530 kJ/mol
# Density = 2.170952 g / cm^3
# Si number density = 21.759044 Si / 1000 Ang^3
#
#
#
# Elastic Constant Matrix: (Units=GPa)
#
#
# Indices 1 2 3 4 5 6 
#
# 1 79.0959 37.4000 19.4090 0.0000 0.0000 0.0000
# 2 37.4000 79.0959 19.4090 0.0000 0.0000 0.0000
# 3 19.4090 19.4090 91.2554 0.0000 0.0000 0.0000
# 4 0.0000 0.0000 0.0000 35.1360 0.0000 0.0000
# 5 0.0000 0.0000 0.0000 0.0000 35.1360 0.0000
# 6 0.0000 0.0000 0.0000 0.0000 0.0000 20.8479
#
#
#
# Elastic Compliance Matrix: (Units=1/GPa)
#
#
# Indices 1 2 3 4 5 6 
#
# 1 0.016611 -0.007372 -0.001965 0.000000 0.000000 0.000000
# 2 -0.007372 0.016611 -0.001965 0.000000 0.000000 0.000000
# 3 -0.001965 -0.001965 0.011794 0.000000 0.000000 0.000000
# 4 0.000000 0.000000 0.000000 0.028461 0.000000 0.000000
# 5 0.000000 0.000000 0.000000 0.000000 0.028461 0.000000
# 6 0.000000 0.000000 0.000000 0.000000 0.000000 0.047966
#
#
# Mechanical properties :
#
#
# Convention : Reuss Voigt Hill
#
# Bulk Modulus (GPa) = 44.61954 44.65368 44.63661
# Shear Modulus (GPa) = 27.78102 29.77262 28.77682
#
# Velocity S-wave (km/s) = 3.57705 3.70305 3.64060
# Velocity P-wave (km/s) = 6.13279 6.23297 6.18308
#
# Compressibility (1/GPa) = 0.02241171
#
# Stress axis : x y z
#
# Youngs Moduli (GPa) = 60.20118 60.20118 84.78811
#
# Poissons Ratio (x) = 0.44382 0.16661
# Poissons Ratio (y) = 0.44382 0.16661
# Poissons Ratio (z) = 0.11829 0.11829
#
# Static dielectric constant tensor:
#      x y z
#    x 3.951400 0.000000 0.000000 
#    y 0.000000 3.951400 0.000000 
#    z 0.000000 0.000000 3.609840 
# 
# 
# High freq. dielectric constant tensor:
#      x y z
#    x 1.837800 0.000000 0.000000 
#    y 0.000000 1.837800 0.000000 
#    z 0.000000 0.000000 1.846310 
# 
# From -- ./inp_files/114.got.cif
#   From: 2010.03.12/outbox.cif.g09.slc.cpg/sg171_1_cif.got.tgz:114.got - 2010.04.02 06:49:11.
