data_PCOD8324404
_publ_section_title
;
Structure prediction by ZEFSAII (Michael W. Deem and Ramdas Pophale) SiO2 
 PCOD8324404
Probable space group: R -3 C 
;
_chemical_formula_sum "Si O2"
_cell_formula_units_Z 252
_cell_length_a 30.228587
_cell_length_b 30.228587
_cell_length_c 17.372681
_cell_angle_alpha 90.000000
_cell_angle_beta 90.000000
_cell_angle_gamma 120.000000
_cell_volume 13747.798907
_symmetry_space_group_name_H-M "R -3 C "
_symmetry_group_IT_number 167
_symmetry_cell_setting 'hexagonal'
loop_
_space_group_symop_operation_xyz
x,y,z
-y,x-y,z
-x+y,-x,z
x-y,-y,1/2-z
-x,-x+y,1/2-z
y,x,1/2-z
-x,-y,-z
y,-x+y,-z
x-y,x,-z
-x+y,y,1/2+z
x,x-y,1/2+z
-y,-x,1/2+z
2/3+x,1/3+y,1/3+z
2/3-y,1/3+x-y,1/3+z
2/3-x+y,1/3-x,1/3+z
2/3+x-y,1/3-y,5/6-z
2/3-x,1/3-x+y,5/6-z
2/3+y,1/3+x,5/6-z
2/3-x,1/3-y,1/3-z
2/3+y,1/3-x+y,1/3-z
2/3+x-y,1/3+x,1/3-z
2/3-x+y,1/3+y,5/6+z
2/3+x,1/3+x-y,5/6+z
2/3-y,1/3-x,5/6+z
1/3+x,2/3+y,2/3+z
1/3-y,2/3+x-y,2/3+z
1/3-x+y,2/3-x,2/3+z
1/3+x-y,2/3-y,1/6-z
1/3-x,2/3-x+y,1/6-z
1/3+y,2/3+x,1/6-z
1/3-x,2/3-y,2/3-z
1/3+y,2/3-x+y,2/3-z
1/3+x-y,2/3+x,2/3-z
1/3-x+y,2/3+y,1/6+z
1/3+x,2/3+x-y,1/6+z
1/3-y,2/3-x,1/6+z
loop_
_atom_site_type_symbol
_atom_site_label
_atom_site_fract_x
_atom_site_fract_y
_atom_site_fract_z
Si Si1 0.386322 0.950811 0.458145
Si Si2 0.789068 0.860155 0.472006
Si Si3 0.526417 0.061404 0.510581
Si Si4 0.827799 0.289239 0.373943
Si Si5 0.971997 0.399500 0.326627
Si Si6 0.299229 0.045874 0.535129
Si Si7 0.794567 0.743443 0.300149
O O1 0.333334 0.914925 0.416667
O O2 0.413801 0.917684 0.472618
O O3 0.378076 0.971544 0.538963
O O4 0.424536 0.998775 0.405096
O O5 0.762791 0.858270 0.390941
O O6 0.833924 0.845573 0.468267
O O7 0.810079 0.913393 0.517997
O O8 0.745282 0.814262 0.520018
O O9 0.502397 0.071583 0.584373
O O10 0.500000 0.000000 0.500000
O O11 0.863454 0.276194 0.319837
O O12 0.841832 0.287587 0.462216
O O13 0.961056 0.341824 0.332571
O O14 0.000000 0.427034 0.250000
O O15 0.354025 0.086899 0.500737
O O16 0.766856 0.766856 0.250000
#
# Coordination Sequence:
#
# PCOD8324404 Si02
#       7
#    36  36  36  36  36  36  36
#     4  12  24  38  57  82 121 170 206 255 302 360
#     4  11  23  42  60  86 118 157 198 257 311 370
#     4  12  22  40  60  84 123 167 206 253 308 356
#     4  11  25  41  64  88 122 155 210 255 317 379
#     4  11  23  34  54  86 119 158 207 250 291 358
#     4  11  23  37  56  85 121 164 210 250 297 353
#     4  12  24  39  61  88 119 170 212 261 301 356
#
# _framework density 18.330207000000001
#
# number of rings (size 3 to 8) (size 9 to 14) (size 15 to 20)
#    0.000    0.571    7.143    0.857    4.000    0.000 
#    0.000    0.000    0.000    0.286    0.000    0.000 
#    0.000    0.000    0.000    0.000    0.000    0.000 
#
# Total GULP energy -1041310.789750 kJ/mol
# GULP energy per Si atom -12396.557021 kJ/mol
# Density = 1.828849 g / cm^3
# Si number density = 18.330207 Si / 1000 Ang^3
#
#
#
# Elastic Constant Matrix: (Units=GPa)
#
#
# Indices 1 2 3 4 5 6 
#
# 1 102.0391 56.6465 34.6030 -2.8829 0.0000 0.0000
# 2 56.6465 102.0391 34.6030 2.8829 0.0000 0.0000
# 3 34.6030 34.6030 80.6483 0.0000 0.0000 0.0000
# 4 -2.8829 2.8829 0.0000 27.7194 0.0000 0.0000
# 5 0.0000 0.0000 0.0000 0.0000 27.7194 -2.8829
# 6 0.0000 0.0000 0.0000 0.0000 -2.8829 22.6963
#
#
#
# Elastic Compliance Matrix: (Units=1/GPa)
#
#
# Indices 1 2 3 4 5 6 
#
# 1 0.015039 -0.007286 -0.003326 0.002322 0.000000 0.000000
# 2 -0.007286 0.015039 -0.003326 -0.002322 0.000000 0.000000
# 3 -0.003326 -0.003326 0.015254 0.000000 0.000000 0.000000
# 4 0.002322 -0.002322 0.000000 0.036559 0.000000 0.000000
# 5 0.000000 0.000000 0.000000 0.000000 0.036559 0.004644
# 6 0.000000 0.000000 0.000000 0.000000 0.004644 0.044650
#
#
# Mechanical properties :
#
#
# Convention : Reuss Voigt Hill
#
# Bulk Modulus (GPa) = 57.29459 59.60352 58.44906
# Shear Modulus (GPa) = 25.40726 26.21861 25.81294
#
# Velocity S-wave (km/s) = 3.72706 3.78610 3.75669
# Velocity P-wave (km/s) = 7.06017 7.19026 7.12552
#
# Compressibility (1/GPa) = 0.01745365
#
# Stress axis : x y z
#
# Youngs Moduli (GPa) = 66.49519 66.49520 65.55717
#
# Poissons Ratio (x) = 0.48450 0.21806
# Poissons Ratio (y) = 0.48450 0.21806
# Poissons Ratio (z) = 0.22118 0.22118
#
# Static dielectric constant tensor:
#      x y z
#    x 3.167170 0.000000 0.000000 
#    y 0.000000 3.167170 0.000000 
#    z 0.000000 0.000000 3.544430 
# 
# 
# High freq. dielectric constant tensor:
#      x y z
#    x 1.693480 0.000000 0.000000 
#    y 0.000000 1.693480 0.000000 
#    z 0.000000 0.000000 1.726990 
# 
# From -- ./inp_files/3669.got.cif
#   From: 2010.03.12/outbox.cif.g09.slc.cpg/sg167_2_cif.got.tgz:3669.got - 2010.04.02 06:42:56.
