data_PCOD8324459
_publ_section_title
;
Structure prediction by ZEFSAII (Michael W. Deem and Ramdas Pophale) SiO2 
 PCOD8324459
Probable space group: P 61
;
_chemical_formula_sum "Si O2"
_cell_formula_units_Z 36
_cell_length_a 9.159043
_cell_length_b 9.159043
_cell_length_c 26.280135
_cell_angle_alpha 90.000000
_cell_angle_beta 90.000000
_cell_angle_gamma 120.000000
_cell_volume 1909.230745
_symmetry_space_group_name_H-M "P 61"
_symmetry_group_IT_number 169
_symmetry_cell_setting 'hexagonal'
loop_
_space_group_symop_operation_xyz
x,y,z
x-y,x,1/6+z
-y,x-y,1/3+z
-x,-y,1/2+z
-x+y,-x,2/3+z
y,-x+y,5/6+z
loop_
_atom_site_type_symbol
_atom_site_label
_atom_site_fract_x
_atom_site_fract_y
_atom_site_fract_z
Si Si1 0.004782 0.627229 0.341170
Si Si2 0.307799 0.301606 0.967295
Si Si3 0.998764 0.473828 0.954220
Si Si4 0.992764 0.185674 0.021051
Si Si5 0.667153 0.370681 0.618904
Si Si6 0.692187 0.328976 0.166452
O O1 0.975054 0.529046 0.394029
O O2 0.982754 0.792261 0.348732
O O3 0.874047 0.501535 0.300109
O O4 0.190107 0.687133 0.320017
O O5 0.257710 0.236709 0.910436
O O6 0.482029 0.307430 0.982187
O O7 0.345165 0.492036 0.970558
O O8 0.156293 0.169924 0.004981
O O9 0.161437 0.638972 0.978186
O O10 0.815814 0.457136 0.965193
O O11 0.998528 0.316350 0.979943
O O12 0.694801 0.404112 0.559129
#
# Coordination Sequence:
#
# PCOD8324459 Si02
#       6
#     6   6   6   6   6   6
#     4  10  20  36  60  90 117 156 205 251 311 370
#     4  11  19  37  61  87 119 160 206 248 303 378
#     4   9  18  36  59  83 119 157 202 253 302 362
#     4  10  18  35  62  84 119 163 200 246 309 370
#     4  10  21  35  58  92 115 159 206 248 312 378
#     4  10  20  37  60  86 121 157 205 252 301 374
#
# _framework density 18.855761000000001
#
# number of rings (size 3 to 8) (size 9 to 14) (size 15 to 20)
#    0.000    2.000    6.667    0.000    0.000    1.333 
#    0.000    1.667    3.667    0.000    0.000    0.000 
#    0.000    0.000    0.000    0.000    0.000    0.000 
#
# Total GULP energy -445993.415128 kJ/mol
# GULP energy per Si atom -12388.705976 kJ/mol
# Density = 1.881284 g / cm^3
# Si number density = 18.855761 Si / 1000 Ang^3
#
#
#
# Elastic Constant Matrix: (Units=GPa)
#
#
# Indices 1 2 3 4 5 6 
#
# 1 96.3689 29.8540 14.2734 0.0000 0.0000 0.0000
# 2 29.8540 96.3689 14.2734 0.0000 0.0000 0.0000
# 3 14.2734 14.2734 72.3978 0.0000 0.0000 0.0000
# 4 0.0000 0.0000 0.0000 22.3729 0.0000 0.0000
# 5 0.0000 0.0000 0.0000 0.0000 22.3729 0.0000
# 6 0.0000 0.0000 0.0000 0.0000 0.0000 33.2575
#
#
#
# Elastic Compliance Matrix: (Units=1/GPa)
#
#
# Indices 1 2 3 4 5 6 
#
# 1 0.011663 -0.003371 -0.001635 0.000000 0.000000 0.000000
# 2 -0.003371 0.011663 -0.001635 0.000000 0.000000 0.000000
# 3 -0.001635 -0.001635 0.014457 0.000000 0.000000 0.000000
# 4 0.000000 0.000000 0.000000 0.044697 0.000000 0.000000
# 5 0.000000 0.000000 0.000000 0.000000 0.044697 0.000000
# 6 0.000000 0.000000 0.000000 0.000000 0.000000 0.030068
#
#
# Mechanical properties :
#
#
# Convention : Reuss Voigt Hill
#
# Bulk Modulus (GPa) = 40.81243 42.43745 41.62494
# Shear Modulus (GPa) = 27.98072 29.38301 28.68186
#
# Velocity S-wave (km/s) = 3.85637 3.95182 3.90438
# Velocity P-wave (km/s) = 6.44362 6.58618 6.51529
#
# Compressibility (1/GPa) = 0.02450234
#
# Stress axis : x y z
#
# Youngs Moduli (GPa) = 85.73963 85.73963 69.16974
#
# Poissons Ratio (x) = 0.28903 0.11308
# Poissons Ratio (y) = 0.28903 0.11308
# Poissons Ratio (z) = 0.14017 0.14017
#
# Static dielectric constant tensor:
#      x y z
#    x 3.835240 0.000000 0.000000 
#    y 0.000000 3.835240 0.000000 
#    z 0.000000 0.000000 3.504070 
# 
# 
# High freq. dielectric constant tensor:
#      x y z
#    x 1.716700 0.000000 0.000000 
#    y 0.000000 1.716700 0.000000 
#    z 0.000000 0.000000 1.737790 
# 
# From -- ./inp_files/1749.got.cif
#   From: 2010.03.12/outbox.cif.g09.slc.cpg/sg169_cif.got.tgz:1749.got - 2010.04.02 06:46:06.
