data_PCOD8324731
_publ_section_title
;
Structure prediction by ZEFSAII (Michael W. Deem and Ramdas Pophale) SiO2 
 PCOD8324731
Probable space group: P 62
;
_chemical_formula_sum "Si O2"
_cell_formula_units_Z 36
_cell_length_a 18.577260
_cell_length_b 18.577260
_cell_length_c 7.806338
_cell_angle_alpha 90.000000
_cell_angle_beta 90.000000
_cell_angle_gamma 120.000000
_cell_volume 2333.142700
_symmetry_space_group_name_H-M "P 62"
_symmetry_group_IT_number 171
_symmetry_cell_setting 'hexagonal'
loop_
_space_group_symop_operation_xyz
x,y,z
x-y,x,1/3+z
-y,x-y,2/3+z
-x,-y,z
-x+y,-x,1/3+z
y,-x+y,2/3+z
loop_
_atom_site_type_symbol
_atom_site_label
_atom_site_fract_x
_atom_site_fract_y
_atom_site_fract_z
Si Si1 0.549512 0.676563 0.926380
Si Si2 0.634353 0.416180 0.544253
Si Si3 0.595376 0.062370 0.248385
Si Si4 0.590183 0.237544 0.577343
Si Si5 0.530445 0.818325 0.889568
Si Si6 0.415221 0.411242 0.225976
O O1 0.574547 0.644754 0.756308
O O2 0.450626 0.640810 0.950580
O O3 0.589079 0.776674 0.908133
O O4 0.584857 0.653968 0.092113
O O5 0.537593 0.385386 0.515905
O O6 0.649732 0.337300 0.545585
O O7 0.660453 0.459985 0.731895
O O8 0.684775 0.480752 0.399356
O O9 0.500000 0.000000 0.293547
O O10 0.622989 0.027064 0.087051
O O11 0.528831 0.226253 0.729198
O O12 0.581666 0.915914 0.853057
O O13 0.500000 0.500000 0.207945
#
# Coordination Sequence:
#
# PCOD8324731 Si02
#       6
#     6   6   6   6   6   6
#     4  11  23  33  51  67  96 126 167 210 260 292
#     4  11  22  30  46  67  98 121 163 211 256 283
#     4  10  19  35  45  67  90 128 159 199 247 299
#     4  11  21  30  45  71  94 121 160 214 252 289
#     4  12  23  34  48  72  91 128 168 210 257 299
#     4  11  21  35  52  65  95 129 164 206 258 306
#
# _framework density 15.429831999999999
#
# number of rings (size 3 to 8) (size 9 to 14) (size 15 to 20)
#    0.000    1.000    8.333    1.500    7.000    0.000 
#    0.000    0.000    0.000    0.000    0.000    0.000 
#    0.000    0.000    0.000    0.000    0.000    8.333 
#
# Total GULP energy -446116.809679 kJ/mol
# GULP energy per Si atom -12392.133602 kJ/mol
# Density = 1.539471 g / cm^3
# Si number density = 15.429832 Si / 1000 Ang^3
#
#
#
# Elastic Constant Matrix: (Units=GPa)
#
#
# Indices 1 2 3 4 5 6 
#
# 1 65.4081 23.0003 23.1152 0.0000 0.0000 0.0000
# 2 23.0003 65.4081 23.1152 0.0000 0.0000 0.0000
# 3 23.1152 23.1152 90.6516 0.0000 0.0000 0.0000
# 4 0.0000 0.0000 0.0000 17.9328 0.0000 0.0000
# 5 0.0000 0.0000 0.0000 0.0000 17.9328 0.0000
# 6 0.0000 0.0000 0.0000 0.0000 0.0000 21.2039
#
#
#
# Elastic Compliance Matrix: (Units=1/GPa)
#
#
# Indices 1 2 3 4 5 6 
#
# 1 0.018316 -0.005265 -0.003328 0.000000 0.000000 0.000000
# 2 -0.005265 0.018316 -0.003328 0.000000 0.000000 0.000000
# 3 -0.003328 -0.003328 0.012728 0.000000 0.000000 0.000000
# 4 0.000000 0.000000 0.000000 0.055764 0.000000 0.000000
# 5 0.000000 0.000000 0.000000 0.000000 0.055764 0.000000
# 6 0.000000 0.000000 0.000000 0.000000 0.000000 0.047161
#
#
# Mechanical properties :
#
#
# Convention : Reuss Voigt Hill
#
# Bulk Modulus (GPa) = 39.18591 39.99212 39.58901
# Shear Modulus (GPa) = 20.79895 21.56302 21.18099
#
# Velocity S-wave (km/s) = 3.67545 3.74236 3.70906
# Velocity P-wave (km/s) = 6.59267 6.68196 6.63747
#
# Compressibility (1/GPa) = 0.02551938
#
# Stress axis : x y z
#
# Youngs Moduli (GPa) = 54.59711 54.59711 78.56416
#
# Poissons Ratio (x) = 0.28743 0.26146
# Poissons Ratio (y) = 0.28743 0.26146
# Poissons Ratio (z) = 0.18170 0.18170
#
# Static dielectric constant tensor:
#      x y z
#    x 2.863270 0.000000 0.000000 
#    y 0.000000 2.863270 0.000000 
#    z 0.000000 0.000000 3.427250 
# 
# 
# High freq. dielectric constant tensor:
#      x y z
#    x 1.547120 0.000000 0.000000 
#    y 0.000000 1.547120 0.000000 
#    z 0.000000 0.000000 1.629590 
# 
# From -- ./inp_files/718.got.cif
#   From: 2010.03.12/outbox.cif.g09.slc.cpg/sg171_1_cif.got.tgz:718.got - 2010.04.02 06:49:11.
