data_PCOD8324389
_publ_section_title
;
Structure prediction by ZEFSAII (Michael W. Deem and Ramdas Pophale) SiO2 
 PCOD8324389
Probable space group: R -3 C 
;
_chemical_formula_sum "Si O2"
_cell_formula_units_Z 126
_cell_length_a 24.778071
_cell_length_b 24.778071
_cell_length_c 10.655919
_cell_angle_alpha 90.000000
_cell_angle_beta 90.000000
_cell_angle_gamma 120.000000
_cell_volume 5665.738532
_symmetry_space_group_name_H-M "R -3 C "
_symmetry_group_IT_number 167
_symmetry_cell_setting 'hexagonal'
loop_
_space_group_symop_operation_xyz
x,y,z
-y,x-y,z
-x+y,-x,z
x-y,-y,1/2-z
-x,-x+y,1/2-z
y,x,1/2-z
-x,-y,-z
y,-x+y,-z
x-y,x,-z
-x+y,y,1/2+z
x,x-y,1/2+z
-y,-x,1/2+z
2/3+x,1/3+y,1/3+z
2/3-y,1/3+x-y,1/3+z
2/3-x+y,1/3-x,1/3+z
2/3+x-y,1/3-y,5/6-z
2/3-x,1/3-x+y,5/6-z
2/3+y,1/3+x,5/6-z
2/3-x,1/3-y,1/3-z
2/3+y,1/3-x+y,1/3-z
2/3+x-y,1/3+x,1/3-z
2/3-x+y,1/3+y,5/6+z
2/3+x,1/3+x-y,5/6+z
2/3-y,1/3-x,5/6+z
1/3+x,2/3+y,2/3+z
1/3-y,2/3+x-y,2/3+z
1/3-x+y,2/3-x,2/3+z
1/3+x-y,2/3-y,1/6-z
1/3-x,2/3-x+y,1/6-z
1/3+y,2/3+x,1/6-z
1/3-x,2/3-y,2/3-z
1/3+y,2/3-x+y,2/3-z
1/3+x-y,2/3+x,2/3-z
1/3-x+y,2/3+y,1/6+z
1/3+x,2/3+x-y,1/6+z
1/3-y,2/3-x,1/6+z
loop_
_atom_site_type_symbol
_atom_site_label
_atom_site_fract_x
_atom_site_fract_y
_atom_site_fract_z
Si Si1 0.948269 0.132272 0.841457
Si Si2 0.203090 0.170662 0.944567
Si Si3 0.426431 0.958467 0.507416
Si Si4 0.275109 0.000000 0.250000
O O1 0.887557 0.063616 0.847634
O O2 0.932348 0.184490 0.788158
O O3 0.000000 0.130912 0.750000
O O4 0.972527 0.149001 0.984617
O O5 0.247507 0.232664 0.870630
O O6 0.243933 0.160747 0.048755
O O7 0.500000 0.000000 0.500000
O O8 0.387723 0.993565 0.541212
#
# Coordination Sequence:
#
# PCOD8324389 Si02
#       4
#    36  36  36  18
#     4  10  24  43  67  96 136 180 229 290 348 419
#     4  11  24  41  65  99 133 179 232 285 348 411
#     4  11  23  42  64  98 145 182 229 284 339 420
#     4  12  24  36  70 100 138 192 226 272 348 414
#
# _framework density 22.238938000000001
#
# number of rings (size 3 to 8) (size 9 to 14) (size 15 to 20)
#    0.000    1.143    2.857    2.571    4.000   10.286 
#    0.000    0.000    0.000    0.571    3.714    0.000 
#    0.000    0.000    0.000    0.000    0.000    0.000 
#
# Total GULP energy -520602.606067 kJ/mol
# GULP energy per Si atom -12395.300144 kJ/mol
# Density = 2.218832 g / cm^3
# Si number density = 22.238938 Si / 1000 Ang^3
#
#
#
# Elastic Constant Matrix: (Units=GPa)
#
#
# Indices 1 2 3 4 5 6 
#
# 1 82.4394 32.9446 22.9779 3.8163 0.0084 0.0014
# 2 32.9446 82.4357 22.9612 -3.8137 0.0002 0.0005
# 3 22.9779 22.9612 91.2358 0.0039 0.0207 0.0072
# 4 3.8163 -3.8137 0.0039 37.4917 0.0028 0.0008
# 5 0.0084 0.0002 0.0207 0.0028 37.5031 3.8180
# 6 0.0014 0.0005 0.0072 0.0008 3.8180 24.7449
#
#
#
# Elastic Compliance Matrix: (Units=1/GPa)
#
#
# Indices 1 2 3 4 5 6 
#
# 1 0.015080 -0.005447 -0.002427 -0.002089 -0.000002 0.000000
# 2 -0.005447 0.015079 -0.002423 0.002089 0.000002 0.000000
# 3 -0.002427 -0.002423 0.012182 -0.000001 -0.000006 -0.000002
# 4 -0.002089 0.002089 -0.000001 0.027098 -0.000001 -0.000001
# 5 -0.000002 0.000002 -0.000006 -0.000001 0.027090 -0.004180
# 6 0.000000 0.000000 -0.000002 -0.000001 -0.004180 0.041057
#
#
# Mechanical properties :
#
#
# Convention : Reuss Voigt Hill
#
# Bulk Modulus (GPa) = 45.98498 45.98648 45.98573
# Shear Modulus (GPa) = 30.22439 31.76310 30.99375
#
# Velocity S-wave (km/s) = 3.69056 3.78334 3.73724
# Velocity P-wave (km/s) = 6.23562 6.30937 6.27260
#
# Compressibility (1/GPa) = 0.02174623
#
# Stress axis : x y z
#
# Youngs Moduli (GPa) = 66.31250 66.31669 82.09055
#
# Poissons Ratio (x) = 0.36124 0.19923
# Poissons Ratio (y) = 0.36122 0.19892
# Poissons Ratio (z) = 0.16094 0.16070
#
# Static dielectric constant tensor:
#      x y z
#    x 3.989690 0.000000 -0.000010 
#    y 0.000000 3.989690 0.000000 
#    z -0.000010 0.000000 4.286120 
# 
# 
# High freq. dielectric constant tensor:
#      x y z
#    x 1.862740 0.000000 0.000000 
#    y 0.000000 1.862740 0.000000 
#    z 0.000000 0.000000 1.892620 
# 
# From -- ./inp_files/1412.got.cif
#   From: 2010.03.12/outbox.cif.g09.slc.cpg/sg167_1_cif.got.tgz:1412.got - 2010.04.02 06:42:56.
