data_PCOD8324146
_publ_section_title
;
Structure prediction by ZEFSAII (Michael W. Deem and Ramdas Pophale) SiO2 
 PCOD8324146
Probable space group: R -3 M
;
_chemical_formula_sum "Si O2"
_cell_formula_units_Z 252
_cell_length_a 30.175812
_cell_length_b 30.175812
_cell_length_c 17.326135
_cell_angle_alpha 90.000000
_cell_angle_beta 90.000000
_cell_angle_gamma 120.000000
_cell_volume 13663.131757
_symmetry_space_group_name_H-M "R -3 M"
_symmetry_group_IT_number 166
_symmetry_cell_setting 'hexagonal'
loop_
_space_group_symop_operation_xyz
x,y,z
-y,x-y,z
-x+y,-x,z
x-y,-y,-z
-x,-x+y,-z
y,x,-z
-x,-y,-z
y,-x+y,-z
x-y,x,-z
-x+y,y,z
x,x-y,z
-y,-x,z
2/3+x,1/3+y,1/3+z
2/3-y,1/3+x-y,1/3+z
2/3-x+y,1/3-x,1/3+z
2/3+x-y,1/3-y,1/3-z
2/3-x,1/3-x+y,1/3-z
2/3+y,1/3+x,1/3-z
2/3-x,1/3-y,1/3-z
2/3+y,1/3-x+y,1/3-z
2/3+x-y,1/3+x,1/3-z
2/3-x+y,1/3+y,1/3+z
2/3+x,1/3+x-y,1/3+z
2/3-y,1/3-x,1/3+z
1/3+x,2/3+y,2/3+z
1/3-y,2/3+x-y,2/3+z
1/3-x+y,2/3-x,2/3+z
1/3+x-y,2/3-y,2/3-z
1/3-x,2/3-x+y,2/3-z
1/3+y,2/3+x,2/3-z
1/3-x,2/3-y,2/3-z
1/3+y,2/3-x+y,2/3-z
1/3+x-y,2/3+x,2/3-z
1/3-x+y,2/3+y,2/3+z
1/3+x,2/3+x-y,2/3+z
1/3-y,2/3-x,2/3+z
loop_
_atom_site_type_symbol
_atom_site_label
_atom_site_fract_x
_atom_site_fract_y
_atom_site_fract_z
Si Si1 0.598935 0.724289 0.677180
Si Si2 0.609033 0.049889 0.631162
Si Si3 0.121503 0.611162 0.501912
Si Si4 0.197961 0.147569 0.596079
Si Si5 0.274453 0.823216 0.091264
Si Si6 0.892392 0.396057 0.180266
Si Si7 0.944041 0.225053 0.709088
O O1 0.587403 0.666667 0.666667
O O2 0.658015 0.758855 0.699256
O O3 0.569030 0.731844 0.746893
O O4 0.580798 0.739873 0.600209
O O5 0.596368 0.078398 0.563537
O O6 0.609289 0.072001 0.715351
O O7 0.665980 0.058390 0.619106
O O8 0.144580 0.572290 0.491833
O O9 0.162753 0.672442 0.497265
O O10 0.173918 0.086959 0.609676
O O11 0.228760 0.164443 0.515134
O O12 0.152728 0.160985 0.593684
O O13 0.236029 0.178448 0.663691
O O14 0.228675 0.771326 0.057964
O O15 0.874672 0.437336 0.161320
O O16 0.941527 0.406036 0.128388
O O17 0.905379 0.238712 0.666667
#
# Coordination Sequence:
#
# PCOD8324146 Si02
#       7
#    36  36  36  36  36  36  36
#     4  10  21  36  53  77 106 139 174 212 255 302
#     4  10  20  34  52  76 103 135 174 212 251 295
#     4  10  21  37  56  77 103 136 173 215 264 312
#     4   9  18  32  48  67  95 129 163 202 249 298
#     4   9  18  31  48  71  95 123 163 207 251 296
#     4  10  22  37  54  78 106 137 173 215 263 312
#     4  10  21  35  50  73 104 141 174 206 249 300
#
# _framework density 18.443795000000001
#
# number of rings (size 3 to 8) (size 9 to 14) (size 15 to 20)
#    0.000    2.286    0.000    2.143    2.000    4.000 
#    0.000    1.429    0.000    0.571    0.000    2.000 
#    0.000   10.286    0.000    0.286    0.000    1.143 
#
# Total GULP energy -1040929.872526 kJ/mol
# GULP energy per Si atom -12392.022292 kJ/mol
# Density = 1.840182 g / cm^3
# Si number density = 18.443795 Si / 1000 Ang^3
#
#
#
# Elastic Constant Matrix: (Units=GPa)
#
#
# Indices 1 2 3 4 5 6 
#
# 1 73.9558 45.5431 10.5008 -0.5517 0.0000 0.0000
# 2 45.5431 73.9558 10.5008 0.5517 0.0000 0.0000
# 3 10.5008 10.5008 73.5569 0.0000 0.0000 0.0000
# 4 -0.5517 0.5517 0.0000 19.5883 0.0000 0.0000
# 5 0.0000 0.0000 0.0000 0.0000 19.5883 -0.5517
# 6 0.0000 0.0000 0.0000 0.0000 -0.5517 14.2064
#
#
#
# Elastic Compliance Matrix: (Units=1/GPa)
#
#
# Indices 1 2 3 4 5 6 
#
# 1 0.021909 -0.013325 -0.001225 0.000992 0.000000 0.000000
# 2 -0.013325 0.021909 -0.001225 -0.000992 0.000000 0.000000
# 3 -0.001225 -0.001225 0.013945 0.000000 0.000000 0.000000
# 4 0.000992 -0.000992 0.000000 0.051107 0.000000 0.000000
# 5 0.000000 0.000000 0.000000 0.000000 0.051107 0.001985
# 6 0.000000 0.000000 0.000000 0.000000 0.001985 0.070468
#
#
# Mechanical properties :
#
#
# Convention : Reuss Voigt Hill
#
# Bulk Modulus (GPa) = 38.15261 39.39533 38.77397
# Shear Modulus (GPa) = 18.46840 21.00486 19.73663
#
# Velocity S-wave (km/s) = 3.16782 3.37836 3.27478
# Velocity P-wave (km/s) = 5.84045 6.05176 5.94704
#
# Compressibility (1/GPa) = 0.02621053
#
# Stress axis : x y z
#
# Youngs Moduli (GPa) = 45.64370 45.64370 71.71145
#
# Poissons Ratio (x) = 0.60821 0.08787
# Poissons Ratio (y) = 0.60821 0.08787
# Poissons Ratio (z) = 0.05593 0.05593
#
# Static dielectric constant tensor:
#      x y z
#    x 3.377060 0.000000 0.000000 
#    y 0.000000 3.377060 0.000000 
#    z 0.000000 0.000000 3.647140 
# 
# 
# High freq. dielectric constant tensor:
#      x y z
#    x 1.695320 0.000000 0.000000 
#    y 0.000000 1.695320 0.000000 
#    z 0.000000 0.000000 1.741700 
# 
# From -- ./inp_files/5809.got.cif
#   From: 2010.03.12/outbox.cif.g09.slc.cpg/sg166_3_cif.got.tgz:5809.got - 2010.04.02 06:38:31.
