data_PCOD8324151
_publ_section_title
;
Structure prediction by ZEFSAII (Michael W. Deem and Ramdas Pophale) SiO2 
 PCOD8324151
Probable space group: R -3 M
;
_chemical_formula_sum "Si O2"
_cell_formula_units_Z 216
_cell_length_a 23.707656
_cell_length_b 23.707656
_cell_length_c 21.324814
_cell_angle_alpha 90.000000
_cell_angle_beta 90.000000
_cell_angle_gamma 120.000000
_cell_volume 10379.898755
_symmetry_space_group_name_H-M "R -3 M"
_symmetry_group_IT_number 166
_symmetry_cell_setting 'hexagonal'
loop_
_space_group_symop_operation_xyz
x,y,z
-y,x-y,z
-x+y,-x,z
x-y,-y,-z
-x,-x+y,-z
y,x,-z
-x,-y,-z
y,-x+y,-z
x-y,x,-z
-x+y,y,z
x,x-y,z
-y,-x,z
2/3+x,1/3+y,1/3+z
2/3-y,1/3+x-y,1/3+z
2/3-x+y,1/3-x,1/3+z
2/3+x-y,1/3-y,1/3-z
2/3-x,1/3-x+y,1/3-z
2/3+y,1/3+x,1/3-z
2/3-x,1/3-y,1/3-z
2/3+y,1/3-x+y,1/3-z
2/3+x-y,1/3+x,1/3-z
2/3-x+y,1/3+y,1/3+z
2/3+x,1/3+x-y,1/3+z
2/3-y,1/3-x,1/3+z
1/3+x,2/3+y,2/3+z
1/3-y,2/3+x-y,2/3+z
1/3-x+y,2/3-x,2/3+z
1/3+x-y,2/3-y,2/3-z
1/3-x,2/3-x+y,2/3-z
1/3+y,2/3+x,2/3-z
1/3-x,2/3-y,2/3-z
1/3+y,2/3-x+y,2/3-z
1/3+x-y,2/3+x,2/3-z
1/3-x+y,2/3+y,2/3+z
1/3+x,2/3+x-y,2/3+z
1/3-y,2/3-x,2/3+z
loop_
_atom_site_type_symbol
_atom_site_label
_atom_site_fract_x
_atom_site_fract_y
_atom_site_fract_z
Si Si1 0.872959 0.872644 0.699799
Si Si2 0.156707 0.640547 0.232482
Si Si3 0.332981 0.790566 0.740220
Si Si4 0.736690 0.600379 0.582965
Si Si5 0.040410 0.372363 0.095380
Si Si6 0.735531 0.598298 0.435231
O O1 0.943842 0.887683 0.722633
O O2 0.872321 0.869398 0.624168
O O3 0.817842 0.804745 0.730228
O O4 0.860437 0.930219 0.723447
O O5 0.123039 0.561520 0.232275
O O6 0.194721 0.666667 0.166667
O O7 0.105658 0.664647 0.241158
O O8 0.392605 0.785210 0.771018
O O9 0.265310 0.734691 0.769664
O O10 0.333334 0.780910 0.666667
O O11 0.341067 0.860260 0.755960
O O12 0.806604 0.613207 0.610355
O O13 0.716493 0.652903 0.607999
O O14 0.744553 0.610206 0.508945
O O15 0.017970 0.351303 0.166667
O O16 0.051756 0.315375 0.066948
O O17 0.802323 0.604646 0.406745
#
# Coordination Sequence:
#
# PCOD8324151 Si02
#       6
#    36  36  36  36  36  36
#     4  10  21  37  55  77 106 139 175 218 268 318
#     4  10  20  34  54  80 107 137 175 218 266 320
#     4   9  17  30  48  72  99 130 168 213 260 305
#     4   9  19  35  54  77 104 137 177 218 258 305
#     4   9  18  33  54  76 103 138 172 211 262 307
#     4   9  17  32  53  75 104 138 173 213 258 310
#
# _framework density 20.809452
#
# number of rings (size 3 to 8) (size 9 to 14) (size 15 to 20)
#    0.000    2.667    0.000    1.333    0.000    6.667 
#    3.000    2.500    0.000    7.667    0.000    0.000 
#    0.000    0.000    0.000    0.000    0.000    0.000 
#
# Total GULP energy -892304.286097 kJ/mol
# GULP energy per Si atom -12393.115085 kJ/mol
# Density = 2.076209 g / cm^3
# Si number density = 20.809452 Si / 1000 Ang^3
#
#
#
# Elastic Constant Matrix: (Units=GPa)
#
#
# Indices 1 2 3 4 5 6 
#
# 1 146.5898 83.7239 10.2489 -0.3291 0.0006 0.0000
# 2 83.7239 146.5898 10.2489 0.3291 -0.0006 0.0000
# 3 10.2489 10.2489 18.9069 0.0000 0.0000 0.0000
# 4 -0.3291 0.3291 0.0000 19.3758 0.0000 -0.0006
# 5 0.0006 -0.0006 0.0000 0.0000 19.3758 -0.3291
# 6 0.0000 0.0000 0.0000 -0.0006 -0.3291 31.4329
#
#
#
# Elastic Compliance Matrix: (Units=1/GPa)
#
#
# Indices 1 2 3 4 5 6 
#
# 1 0.010236 -0.005674 -0.002473 0.000270 0.000000 0.000000
# 2 -0.005674 0.010236 -0.002473 -0.000270 0.000000 0.000000
# 3 -0.002473 -0.002473 0.055572 0.000000 0.000000 0.000000
# 4 0.000270 -0.000270 0.000000 0.051620 0.000000 0.000001
# 5 0.000000 0.000000 0.000000 0.000000 0.051620 0.000541
# 6 0.000000 0.000000 0.000000 0.000001 0.000541 0.031819
#
#
# Mechanical properties :
#
#
# Convention : Reuss Voigt Hill
#
# Bulk Modulus (GPa) = 18.24684 57.83663 38.04174
# Shear Modulus (GPa) = 19.95130 27.89456 23.92293
#
# Velocity S-wave (km/s) = 3.09975 3.66522 3.39428
# Velocity P-wave (km/s) = 4.64745 6.76503 5.80364
#
# Compressibility (1/GPa) = 0.05480401
#
# Stress axis : x y z
#
# Youngs Moduli (GPa) = 97.69584 97.69584 17.99477
#
# Poissons Ratio (x) = 0.55431 0.04450
# Poissons Ratio (y) = 0.55431 0.04450
# Poissons Ratio (z) = 0.24159 0.24159
#
# Static dielectric constant tensor:
#      x y z
#    x 3.926490 0.000000 0.000000 
#    y 0.000000 3.926490 0.000000 
#    z 0.000000 0.000000 3.498210 
# 
# 
# High freq. dielectric constant tensor:
#      x y z
#    x 1.812160 0.000000 0.000000 
#    y 0.000000 1.812160 0.000000 
#    z 0.000000 0.000000 1.787940 
# 
# From -- ./inp_files/8454.got.cif
#   From: 2010.03.12/outbox.cif.g09.slc.cpg/sg166_5_cif.got.tgz:8454.got - 2010.04.02 06:38:31.
