data_PCOD8324277
_publ_section_title
;
Structure prediction by ZEFSAII (Michael W. Deem and Ramdas Pophale) SiO2 
 PCOD8324277
Probable space group: R -3 C 
;
_chemical_formula_sum "Si O2"
_cell_formula_units_Z 252
_cell_length_a 30.960312
_cell_length_b 30.960312
_cell_length_c 16.655801
_cell_angle_alpha 90.000000
_cell_angle_beta 90.000000
_cell_angle_gamma 120.000000
_cell_volume 13826.326627
_symmetry_space_group_name_H-M "R -3 C "
_symmetry_group_IT_number 167
_symmetry_cell_setting 'hexagonal'
loop_
_space_group_symop_operation_xyz
x,y,z
-y,x-y,z
-x+y,-x,z
x-y,-y,1/2-z
-x,-x+y,1/2-z
y,x,1/2-z
-x,-y,-z
y,-x+y,-z
x-y,x,-z
-x+y,y,1/2+z
x,x-y,1/2+z
-y,-x,1/2+z
2/3+x,1/3+y,1/3+z
2/3-y,1/3+x-y,1/3+z
2/3-x+y,1/3-x,1/3+z
2/3+x-y,1/3-y,5/6-z
2/3-x,1/3-x+y,5/6-z
2/3+y,1/3+x,5/6-z
2/3-x,1/3-y,1/3-z
2/3+y,1/3-x+y,1/3-z
2/3+x-y,1/3+x,1/3-z
2/3-x+y,1/3+y,5/6+z
2/3+x,1/3+x-y,5/6+z
2/3-y,1/3-x,5/6+z
1/3+x,2/3+y,2/3+z
1/3-y,2/3+x-y,2/3+z
1/3-x+y,2/3-x,2/3+z
1/3+x-y,2/3-y,1/6-z
1/3-x,2/3-x+y,1/6-z
1/3+y,2/3+x,1/6-z
1/3-x,2/3-y,2/3-z
1/3+y,2/3-x+y,2/3-z
1/3+x-y,2/3+x,2/3-z
1/3-x+y,2/3+y,1/6+z
1/3+x,2/3+x-y,1/6+z
1/3-y,2/3-x,1/6+z
loop_
_atom_site_type_symbol
_atom_site_label
_atom_site_fract_x
_atom_site_fract_y
_atom_site_fract_z
Si Si1 0.731277 0.164942 0.715323
Si Si2 0.168797 0.417425 0.711167
Si Si3 0.456156 0.904973 0.800520
Si Si4 0.124309 0.312873 0.767171
Si Si5 0.159273 0.694494 0.622198
Si Si6 0.988364 0.087140 0.516481
Si Si7 0.315349 0.523357 0.996954
O O1 0.782807 0.216420 0.733362
O O2 0.740673 0.131350 0.650164
O O3 0.710556 0.137560 0.801306
O O4 0.689462 0.173574 0.677334
O O5 0.181579 0.421801 0.616714
O O6 0.124667 0.360910 0.729082
O O7 0.147553 0.453184 0.737546
O O8 0.483966 0.952037 0.859758
O O9 0.400643 0.896097 0.782950
O O10 0.451998 0.857777 0.847146
O O11 0.166667 0.333334 0.833334
O O12 0.211982 0.699091 0.647492
O O13 0.031752 0.087816 0.462106
O O14 0.018558 0.109222 0.598880
O O15 0.333334 0.556688 0.916667
#
# Coordination Sequence:
#
# PCOD8324277 Si02
#       7
#    36  36  36  36  36  36  36
#     4   9  18  32  53  80 111 140 182 232 275 331
#     4  10  19  34  56  86 110 142 184 237 280 344
#     4  11  19  33  57  87 110 145 192 238 278 347
#     4  10  21  35  52  83 112 141 184 232 291 337
#     4  10  18  34  57  86 112 143 194 236 283 341
#     4  11  20  35  55  81 119 162 204 240 285 336
#     4  11  19  32  56  83 113 147 194 239 284 327
#
# _framework density 18.226099999999999
#
# number of rings (size 3 to 8) (size 9 to 14) (size 15 to 20)
#    0.000    1.714    5.714    2.286    0.000    0.000 
#    0.000    3.571    0.000    0.000   33.429    0.000 
#    0.000    0.000    0.000    0.000    0.000    0.000 
#
# Total GULP energy -1040875.287076 kJ/mol
# GULP energy per Si atom -12391.372465 kJ/mol
# Density = 1.818462 g / cm^3
# Si number density = 18.226100 Si / 1000 Ang^3
#
#
#
# Elastic Constant Matrix: (Units=GPa)
#
#
# Indices 1 2 3 4 5 6 
#
# 1 74.8594 25.7466 24.1433 0.3717 0.0000 0.0000
# 2 25.7466 74.8594 24.1433 -0.3717 0.0000 0.0000
# 3 24.1433 24.1433 65.7236 0.0000 0.0000 0.0000
# 4 0.3717 -0.3717 0.0000 23.8833 0.0000 0.0000
# 5 0.0000 0.0000 0.0000 0.0000 23.8833 0.3717
# 6 0.0000 0.0000 0.0000 0.0000 0.3717 24.5564
#
#
#
# Elastic Compliance Matrix: (Units=1/GPa)
#
#
# Indices 1 2 3 4 5 6 
#
# 1 0.016217 -0.004149 -0.004433 -0.000317 0.000000 0.000000
# 2 -0.004149 0.016217 -0.004433 0.000317 0.000000 0.000000
# 3 -0.004433 -0.004433 0.018472 0.000000 0.000000 0.000000
# 4 -0.000317 0.000317 0.000000 0.041880 0.000000 0.000000
# 5 0.000000 0.000000 0.000000 0.000000 0.041880 -0.000634
# 6 0.000000 0.000000 0.000000 0.000000 -0.000634 0.040732
#
#
# Mechanical properties :
#
#
# Convention : Reuss Voigt Hill
#
# Bulk Modulus (GPa) = 40.20070 40.38987 40.29529
# Shear Modulus (GPa) = 23.84131 23.89188 23.86659
#
# Velocity S-wave (km/s) = 3.62067 3.62451 3.62259
# Velocity P-wave (km/s) = 6.29155 6.30275 6.29715
#
# Compressibility (1/GPa) = 0.02487519
#
# Stress axis : x y z
#
# Youngs Moduli (GPa) = 61.66474 61.66474 54.13590
#
# Poissons Ratio (x) = 0.25587 0.23998
# Poissons Ratio (y) = 0.25587 0.23998
# Poissons Ratio (z) = 0.27335 0.27335
#
# Static dielectric constant tensor:
#      x y z
#    x 3.403100 0.000000 0.000000 
#    y 0.000000 3.403100 0.000000 
#    z 0.000000 0.000000 3.811460 
# 
# 
# High freq. dielectric constant tensor:
#      x y z
#    x 1.687690 0.000000 0.000000 
#    y 0.000000 1.687690 0.000000 
#    z 0.000000 0.000000 1.711970 
# 
# From -- ./inp_files/3699.got.cif
#   From: 2010.03.12/outbox.cif.g09.slc.cpg/sg167_2_cif.got.tgz:3699.got - 2010.04.02 06:42:56.
