data_PCOD8324181
_publ_section_title
;
Structure prediction by ZEFSAII (Michael W. Deem and Ramdas Pophale) SiO2 
 PCOD8324181
Probable space group: R -3 M
;
_chemical_formula_sum "Si O2"
_cell_formula_units_Z 126
_cell_length_a 17.284000
_cell_length_b 17.284000
_cell_length_c 22.187561
_cell_angle_alpha 90.000000
_cell_angle_beta 90.000000
_cell_angle_gamma 120.000000
_cell_volume 5740.222298
_symmetry_space_group_name_H-M "R -3 M"
_symmetry_group_IT_number 166
_symmetry_cell_setting 'hexagonal'
loop_
_space_group_symop_operation_xyz
x,y,z
-y,x-y,z
-x+y,-x,z
x-y,-y,-z
-x,-x+y,-z
y,x,-z
-x,-y,-z
y,-x+y,-z
x-y,x,-z
-x+y,y,z
x,x-y,z
-y,-x,z
2/3+x,1/3+y,1/3+z
2/3-y,1/3+x-y,1/3+z
2/3-x+y,1/3-x,1/3+z
2/3+x-y,1/3-y,1/3-z
2/3-x,1/3-x+y,1/3-z
2/3+y,1/3+x,1/3-z
2/3-x,1/3-y,1/3-z
2/3+y,1/3-x+y,1/3-z
2/3+x-y,1/3+x,1/3-z
2/3-x+y,1/3+y,1/3+z
2/3+x,1/3+x-y,1/3+z
2/3-y,1/3-x,1/3+z
1/3+x,2/3+y,2/3+z
1/3-y,2/3+x-y,2/3+z
1/3-x+y,2/3-x,2/3+z
1/3+x-y,2/3-y,2/3-z
1/3-x,2/3-x+y,2/3-z
1/3+y,2/3+x,2/3-z
1/3-x,2/3-y,2/3-z
1/3+y,2/3-x+y,2/3-z
1/3+x-y,2/3+x,2/3-z
1/3-x+y,2/3+y,2/3+z
1/3+x,2/3+x-y,2/3+z
1/3-y,2/3-x,2/3+z
loop_
_atom_site_type_symbol
_atom_site_label
_atom_site_fract_x
_atom_site_fract_y
_atom_site_fract_z
Si Si1 0.837254 0.504020 0.610368
Si Si2 0.666406 0.502585 0.751297
Si Si3 0.980103 0.652956 0.234216
Si Si4 0.333334 0.851825 0.666667
O O1 0.750702 0.501404 0.580388
O O2 0.849736 0.424868 0.581450
O O3 0.824015 0.490083 0.680660
O O4 0.922516 0.600139 0.602424
O O5 0.764041 0.528082 0.776997
O O6 0.591479 0.408522 0.779410
O O7 0.638002 0.574132 0.770366
O O8 0.952208 0.666667 0.166667
O O9 0.900629 0.572740 0.272194
O O10 0.421108 0.842215 0.670147
#
# Coordination Sequence:
#
# PCOD8324181 Si02
#       4
#    36  36  36  18
#     4  10  20  37  62  93 127 164 208 264 329 396
#     4  10  20  37  62  94 131 171 215 266 328 401
#     4  12  25  42  68  99 132 175 229 285 341 405
#     4  12  27  50  75 102 138 184 238 292 349 414
#
# _framework density 21.950368999999998
#
# number of rings (size 3 to 8) (size 9 to 14) (size 15 to 20)
#    0.000    1.143    2.857    3.286    0.000   11.429 
#    0.000    0.000    0.000    5.143    0.000    0.000 
#    0.000    0.000    0.000    0.000    0.000    0.000 
#
# Total GULP energy -520568.334396 kJ/mol
# GULP energy per Si atom -12394.484152 kJ/mol
# Density = 2.190041 g / cm^3
# Si number density = 21.950369 Si / 1000 Ang^3
#
#
#
# Elastic Constant Matrix: (Units=GPa)
#
#
# Indices 1 2 3 4 5 6 
#
# 1 136.7641 58.9633 44.4673 4.8037 -0.0017 0.0000
# 2 58.9633 136.7641 44.4673 -4.8037 0.0017 0.0000
# 3 44.4673 44.4673 92.9330 0.0000 0.0000 0.0000
# 4 4.8037 -4.8037 0.0000 -19.2775 0.0000 0.0017
# 5 -0.0017 0.0017 0.0000 0.0000 -19.2775 4.8037
# 6 0.0000 0.0000 0.0000 0.0017 4.8037 38.9004
#
#
#
# Elastic Compliance Matrix: (Units=1/GPa)
#
#
# Indices 1 2 3 4 5 6 
#
# 1 0.009499 -0.002971 -0.003124 0.003107 -0.000001 0.000000
# 2 -0.002971 0.009499 -0.003124 -0.003107 0.000001 0.000000
# 3 -0.003124 -0.003124 0.013750 0.000000 0.000000 0.000000
# 4 0.003107 -0.003107 0.000000 -0.050325 0.000000 0.000002
# 5 -0.000001 0.000001 0.000000 0.000000 -0.050325 0.006215
# 6 0.000000 0.000000 0.000000 0.000002 0.006215 0.024939
#
#
# Mechanical properties :
#
#
# Convention : Reuss Voigt Hill
#
# Bulk Modulus (GPa) = 69.87316 73.58412 71.72864
# Shear Modulus (GPa) = -253.07891 14.63999 -119.21946
#
# Velocity S-wave (km/s) = -10.74924 2.58536 -7.37774
# Velocity P-wave (km/s) = 11.05261 6.51980 6.31080
#
# Compressibility (1/GPa) = 0.01431165
#
# Stress axis : x y z
#
# Youngs Moduli (GPa) = 105.27324 105.27324 72.72795
#
# Poissons Ratio (x) = 0.31272 0.22719
# Poissons Ratio (y) = 0.31272 0.22719
# Poissons Ratio (z) = 0.32886 0.32886
#
# Static dielectric constant tensor:
#      x y z
#    x 4.141100 0.000000 0.000000 
#    y 0.000000 4.141100 0.000000 
#    z 0.000000 0.000000 3.984230 
# 
# 
# High freq. dielectric constant tensor:
#      x y z
#    x 1.871030 0.000000 0.000000 
#    y 0.000000 1.871030 0.000000 
#    z 0.000000 0.000000 1.854190 
# 
# From -- ./inp_files/7812.got.cif
#   From: 2010.03.12/outbox.cif.g09.slc.cpg/sg166_4_cif.got.tgz:7812.got - 2010.04.02 06:38:31.
