data_PCOD8324615
_publ_section_title
;
Structure prediction by ZEFSAII (Michael W. Deem and Ramdas Pophale) SiO2 
 PCOD8324615
Probable space group: P 61
;
_chemical_formula_sum "Si O2"
_cell_formula_units_Z 30
_cell_length_a 16.906542
_cell_length_b 16.906542
_cell_length_c 4.869006
_cell_angle_alpha 90.000000
_cell_angle_beta 90.000000
_cell_angle_gamma 120.000000
_cell_volume 1205.259371
_symmetry_space_group_name_H-M "P 61"
_symmetry_group_IT_number 169
_symmetry_cell_setting 'hexagonal'
loop_
_space_group_symop_operation_xyz
x,y,z
x-y,x,1/6+z
-y,x-y,1/3+z
-x,-y,1/2+z
-x+y,-x,2/3+z
y,-x+y,5/6+z
loop_
_atom_site_type_symbol
_atom_site_label
_atom_site_fract_x
_atom_site_fract_y
_atom_site_fract_z
Si Si1 0.643784 0.463207 0.427650
Si Si2 0.536790 0.356214 0.940974
Si Si3 0.360850 0.000003 0.767625
Si Si4 0.082645 0.814495 0.946319
Si Si5 0.185511 0.917363 0.422258
O O1 0.577958 0.422056 0.684331
O O2 0.747764 0.495526 0.517625
O O3 0.631679 0.546638 0.317228
O O4 0.611895 0.388089 0.184328
O O5 0.453353 0.368313 0.051371
O O6 0.331043 0.041910 0.016695
O O7 0.289140 0.958102 0.518542
O O8 0.118774 0.881235 0.684291
O O9 0.159908 0.840099 0.184290
O O10 0.000003 0.820305 0.100954
#
# Coordination Sequence:
#
# PCOD8324615 Si02
#       5
#     6   6   6   6   6
#     4  12  28  49  77 110 159 212 266 326 403 477
#     4  12  28  49  77 110 159 212 266 326 403 477
#     4  12  28  46  82 116 158 198 276 330 396 464
#     4  12  25  45  75 117 159 199 257 324 398 466
#     4  12  25  45  75 117 159 199 257 324 398 466
#
# _framework density 24.890906000000001
#
# number of rings (size 3 to 8) (size 9 to 14) (size 15 to 20)
#    0.000    0.000    4.000    4.800    5.600    0.000 
#    0.000    0.000    0.000    2.400    5.200    0.000 
#    0.000    0.000    0.000    0.000    0.000    0.000 
#
# Total GULP energy -371898.567264 kJ/mol
# GULP energy per Si atom -12396.618909 kJ/mol
# Density = 2.483425 g / cm^3
# Si number density = 24.890906 Si / 1000 Ang^3
#
#
#
# Elastic Constant Matrix: (Units=GPa)
#
#
# Indices 1 2 3 4 5 6 
#
# 1 125.0102 77.6316 50.4180 0.0000 0.0000 0.0000
# 2 77.6316 125.0102 50.4180 0.0000 0.0000 0.0000
# 3 50.4180 50.4180 182.3164 0.0000 0.0000 0.0000
# 4 0.0000 0.0000 0.0000 42.1752 0.0000 0.0000
# 5 0.0000 0.0000 0.0000 0.0000 42.1752 0.0000
# 6 0.0000 0.0000 0.0000 0.0000 0.0000 23.6893
#
#
#
# Elastic Compliance Matrix: (Units=1/GPa)
#
#
# Indices 1 2 3 4 5 6 
#
# 1 0.013414 -0.007692 -0.001582 0.000000 0.000000 0.000000
# 2 -0.007692 0.013414 -0.001582 0.000000 0.000000 0.000000
# 3 -0.001582 -0.001582 0.006360 0.000000 0.000000 0.000000
# 4 0.000000 0.000000 0.000000 0.023711 0.000000 0.000000
# 5 0.000000 0.000000 0.000000 0.000000 0.023711 0.000000
# 6 0.000000 0.000000 0.000000 0.000000 0.000000 0.042213
#
#
# Mechanical properties :
#
#
# Convention : Reuss Voigt Hill
#
# Bulk Modulus (GPa) = 87.14646 87.69689 87.42167
# Shear Modulus (GPa) = 33.70125 38.53256 36.11690
#
# Velocity S-wave (km/s) = 3.68361 3.93880 3.81334
# Velocity P-wave (km/s) = 7.29242 7.48295 7.38830
#
# Compressibility (1/GPa) = 0.01147494
#
# Stress axis : x y z
#
# Youngs Moduli (GPa) = 74.54668 74.54668 157.22813
#
# Poissons Ratio (x) = 0.57343 0.24880
# Poissons Ratio (y) = 0.57343 0.24880
# Poissons Ratio (z) = 0.11797 0.11797
#
# Static dielectric constant tensor:
#      x y z
#    x 4.671120 0.000000 0.000000 
#    y 0.000000 4.671120 0.000000 
#    z 0.000000 0.000000 4.743660 
# 
# 
# High freq. dielectric constant tensor:
#      x y z
#    x 1.984200 0.000000 0.000000 
#    y 0.000000 1.984200 0.000000 
#    z 0.000000 0.000000 2.014480 
# 
# From -- ./inp_files/145.got.cif
#   From: 2010.03.12/outbox.cif.g09.slc.cpg/sg169_cif.got.tgz:145.got - 2010.04.02 06:46:06.
