data_PCOD8324787
_publ_section_title
;
Structure prediction by ZEFSAII (Michael W. Deem and Ramdas Pophale) SiO2 
 PCOD8324787
Probable space group: P 62
;
_chemical_formula_sum "Si O2"
_cell_formula_units_Z 15
_cell_length_a 6.780186
_cell_length_b 6.780186
_cell_length_c 14.209461
_cell_angle_alpha 90.000000
_cell_angle_beta 90.000000
_cell_angle_gamma 120.000000
_cell_volume 565.706869
_symmetry_space_group_name_H-M "P 62"
_symmetry_group_IT_number 171
_symmetry_cell_setting 'hexagonal'
loop_
_space_group_symop_operation_xyz
x,y,z
x-y,x,1/3+z
-y,x-y,2/3+z
-x,-y,z
-x+y,-x,1/3+z
y,-x+y,2/3+z
loop_
_atom_site_type_symbol
_atom_site_label
_atom_site_fract_x
_atom_site_fract_y
_atom_site_fract_z
Si Si1 0.037229 0.240864 0.625000
Si Si2 0.286187 0.514244 0.460218
Si Si3 0.500000 0.000000 0.404434
O O1 0.068776 0.372797 0.526956
O O2 0.270734 0.354644 0.681294
O O3 0.166099 0.761017 0.687049
O O4 0.000000 0.000000 0.594777
O O5 0.500000 0.500000 0.502788
O O6 0.331098 0.773370 0.463912
#
# Coordination Sequence:
#
# PCOD8324787 Si02
#       3
#     6   6   3
#     4  11  23  48  76 115 158 208 274 334 414 492
#     4  10  23  49  76 115 156 216 269 334 416 487
#     4  10  24  50  70 110 160 206 268 338 402 498
#
# _framework density 26.515499999999999
#
# number of rings (size 3 to 8) (size 9 to 14) (size 15 to 20)
#    0.000    1.600    2.000    1.200    0.000    1.600 
#   64.800    0.000    0.000    0.000    0.000    0.000 
#    0.000    0.000    0.000    0.000    0.000    0.000 
#
# Total GULP energy -185840.973281 kJ/mol
# GULP energy per Si atom -12389.398219 kJ/mol
# Density = 2.645515 g / cm^3
# Si number density = 26.515500 Si / 1000 Ang^3
#
#
#
# Elastic Constant Matrix: (Units=GPa)
#
#
# Indices 1 2 3 4 5 6 
#
# 1 149.6929 53.4110 42.8155 0.0000 0.0000 0.0000
# 2 53.4110 149.6929 42.8155 0.0000 0.0000 0.0000
# 3 42.8155 42.8155 151.9847 0.0000 0.0000 0.0000
# 4 0.0000 0.0000 0.0000 36.7932 0.0000 0.0000
# 5 0.0000 0.0000 0.0000 0.0000 36.7932 0.0000
# 6 0.0000 0.0000 0.0000 0.0000 0.0000 48.1410
#
#
#
# Elastic Compliance Matrix: (Units=1/GPa)
#
#
# Indices 1 2 3 4 5 6 
#
# 1 0.007987 -0.002399 -0.001574 0.000000 0.000000 0.000000
# 2 -0.002399 0.007987 -0.001574 0.000000 0.000000 0.000000
# 3 -0.001574 -0.001574 0.007466 0.000000 0.000000 0.000000
# 4 0.000000 0.000000 0.000000 0.027179 0.000000 0.000000
# 5 0.000000 0.000000 0.000000 0.000000 0.027179 0.000000
# 6 0.000000 0.000000 0.000000 0.000000 0.000000 0.020772
#
#
# Mechanical properties :
#
#
# Convention : Reuss Voigt Hill
#
# Bulk Modulus (GPa) = 81.00486 81.05049 81.02768
# Shear Modulus (GPa) = 43.94452 45.16736 44.55594
#
# Velocity S-wave (km/s) = 4.07543 4.13174 4.10368
# Velocity P-wave (km/s) = 7.26373 7.30721 7.28550
#
# Compressibility (1/GPa) = 0.01234494
#
# Stress axis : x y z
#
# Youngs Moduli (GPa) = 125.20853 125.20853 133.93318
#
# Poissons Ratio (x) = 0.30044 0.21081
# Poissons Ratio (y) = 0.30044 0.21081
# Poissons Ratio (z) = 0.19707 0.19707
#
# Static dielectric constant tensor:
#      x y z
#    x 5.238850 0.000000 0.000000 
#    y 0.000000 5.238850 0.000000 
#    z 0.000000 0.000000 4.747440 
# 
# 
# High freq. dielectric constant tensor:
#      x y z
#    x 2.078680 0.000000 0.000000 
#    y 0.000000 2.078680 0.000000 
#    z 0.000000 0.000000 2.049190 
# 
# From -- ./inp_files/2226.got.cif
#   From: 2010.03.12/outbox.cif.g09.slc.cpg/sg171_2_cif.got.tgz:2226.got - 2010.04.02 06:49:11.
