data_PCOD8324711
_publ_section_title
;
Structure prediction by ZEFSAII (Michael W. Deem and Ramdas Pophale) SiO2 
 PCOD8324711
Probable space group: P 65
;
_chemical_formula_sum "Si O2"
_cell_formula_units_Z 48
_cell_length_a 11.527403
_cell_length_b 11.527403
_cell_length_c 16.100808
_cell_angle_alpha 90.000000
_cell_angle_beta 90.000000
_cell_angle_gamma 120.000000
_cell_volume 1852.854240
_symmetry_space_group_name_H-M "P 65"
_symmetry_group_IT_number 170
_symmetry_cell_setting 'hexagonal'
loop_
_space_group_symop_operation_xyz
x,y,z
x-y,x,5/6+z
-y,x-y,2/3+z
-x,-y,1/2+z
-x+y,-x,1/3+z
y,-x+y,1/6+z
loop_
_atom_site_type_symbol
_atom_site_label
_atom_site_fract_x
_atom_site_fract_y
_atom_site_fract_z
Si Si1 0.939033 0.619026 0.882400
Si Si2 0.115364 0.806894 0.014758
Si Si3 0.883798 0.353935 0.233350
Si Si4 0.402444 0.690756 0.531813
Si Si5 0.021137 0.605372 0.144866
Si Si6 0.511542 0.860580 0.810116
Si Si7 0.126240 0.036544 0.110814
Si Si8 0.402076 0.261162 0.163146
O O1 0.796823 0.607863 0.869364
O O2 0.917864 0.488669 0.929896
O O3 0.995694 0.623132 0.792328
O O4 0.036898 0.762578 0.927492
O O5 0.072055 0.881581 0.083334
O O6 0.074095 0.660693 0.053002
O O7 0.270502 0.905938 0.005116
O O8 0.790080 0.399246 0.283136
O O9 0.947431 0.444626 0.151173
O O10 0.252103 0.666488 0.544327
O O11 0.457885 0.648563 0.611609
O O12 0.513437 0.847366 0.534300
O O13 0.563656 0.788389 0.747020
O O14 0.640245 0.984750 0.852401
O O15 0.083822 0.029540 0.208304
O O16 0.286996 0.136656 0.108805
#
# Coordination Sequence:
#
# PCOD8324711 Si02
#       8
#     6   6   6   6   6   6   6   6
#     4  11  26  47  71 111 157 199 258 327 410 480
#     4  12  24  42  76 119 152 196 277 333 404 492
#     4  11  25  49  71 112 154 206 254 327 406 476
#     4  11  24  43  71 115 150 202 261 319 412 472
#     4  12  24  44  76 117 154 199 264 330 392 493
#     4  11  27  46  73 111 159 204 264 343 413 496
#     4  12  25  45  81 121 160 216 282 348 411 503
#     4  12  23  48  79 112 162 208 280 339 412 508
#
# _framework density 25.905978999999999
#
# number of rings (size 3 to 8) (size 9 to 14) (size 15 to 20)
#    0.000    0.500    6.250    1.500    1.750    0.000 
#   15.750    1.250    2.750    0.000    0.000    0.000 
#    0.000    0.000    0.000    0.000    0.000    0.000 
#
# Total GULP energy -594664.510391 kJ/mol
# GULP energy per Si atom -12388.843966 kJ/mol
# Density = 2.584702 g / cm^3
# Si number density = 25.905979 Si / 1000 Ang^3
#
#
#
# Elastic Constant Matrix: (Units=GPa)
#
#
# Indices 1 2 3 4 5 6 
#
# 1 146.7227 80.1151 48.2931 0.0000 0.0000 0.0000
# 2 80.1151 146.7227 48.2931 0.0000 0.0000 0.0000
# 3 48.2931 48.2931 36.4488 0.0000 0.0000 0.0000
# 4 0.0000 0.0000 0.0000 37.3127 0.0000 0.0000
# 5 0.0000 0.0000 0.0000 0.0000 37.3127 0.0000
# 6 0.0000 0.0000 0.0000 0.0000 0.0000 33.3038
#
#
#
# Elastic Compliance Matrix: (Units=1/GPa)
#
#
# Indices 1 2 3 4 5 6 
#
# 1 0.012564 -0.002449 -0.013402 0.000000 0.000000 0.000000
# 2 -0.002449 0.012564 -0.013402 0.000000 0.000000 0.000000
# 3 -0.013402 -0.013402 0.062949 0.000000 0.000000 0.000000
# 4 0.000000 0.000000 0.000000 0.026801 0.000000 0.000000
# 5 0.000000 0.000000 0.000000 0.000000 0.026801 0.000000
# 6 0.000000 0.000000 0.000000 0.000000 0.000000 0.030027
#
#
# Mechanical properties :
#
#
# Convention : Reuss Voigt Hill
#
# Bulk Modulus (GPa) = 33.81579 75.92185 54.86882
# Shear Modulus (GPa) = 20.82747 31.79867 26.31307
#
# Velocity S-wave (km/s) = 2.83850 3.50732 3.19048
# Velocity P-wave (km/s) = 4.88102 6.76550 5.89900
#
# Compressibility (1/GPa) = 0.02957198
#
# Stress axis : x y z
#
# Youngs Moduli (GPa) = 79.59212 79.59212 15.88584
#
# Poissons Ratio (x) = 0.19494 0.21290
# Poissons Ratio (y) = 0.19494 0.21290
# Poissons Ratio (z) = 1.06667 1.06667
#
# Static dielectric constant tensor:
#      x y z
#    x 4.952040 0.000000 0.000000 
#    y 0.000000 4.952040 0.000000 
#    z 0.000000 0.000000 4.480460 
# 
# 
# High freq. dielectric constant tensor:
#      x y z
#    x 2.043410 0.000000 0.000000 
#    y 0.000000 2.043410 0.000000 
#    z 0.000000 0.000000 2.023260 
# 
# From -- ./inp_files/1484.got.cif
#   From: 2010.03.12/outbox.cif.g09.slc.cpg/sg170_cif.got.tgz:1484.got - 2010.04.02 06:47:37.
