data_PCOD8324753
_publ_section_title
;
Structure prediction by ZEFSAII (Michael W. Deem and Ramdas Pophale) SiO2 
 PCOD8324753
Probable space group: P 62
;
_chemical_formula_sum "Si O2"
_cell_formula_units_Z 39
_cell_length_a 18.871125
_cell_length_b 18.871125
_cell_length_c 6.497758
_cell_angle_alpha 90.000000
_cell_angle_beta 90.000000
_cell_angle_gamma 120.000000
_cell_volume 2003.963223
_symmetry_space_group_name_H-M "P 62"
_symmetry_group_IT_number 171
_symmetry_cell_setting 'hexagonal'
loop_
_space_group_symop_operation_xyz
x,y,z
x-y,x,1/3+z
-y,x-y,2/3+z
-x,-y,z
-x+y,-x,1/3+z
y,-x+y,2/3+z
loop_
_atom_site_type_symbol
_atom_site_label
_atom_site_fract_x
_atom_site_fract_y
_atom_site_fract_z
Si Si1 0.667366 0.539842 0.135920
Si Si2 0.198090 0.798470 0.805950
Si Si3 0.000000 0.500000 0.657794
Si Si4 0.901761 0.685739 0.093020
Si Si5 0.291237 0.698495 0.310074
Si Si6 0.330951 0.864468 0.140873
Si Si7 0.313508 0.085066 0.514755
O O1 0.717424 0.542024 0.340659
O O2 0.574794 0.514212 0.181532
O O3 0.669866 0.474103 0.985843
O O4 0.707049 0.625681 0.016197
O O5 0.198798 0.866075 0.655776
O O6 0.286219 0.840321 0.918372
O O7 0.127635 0.768601 0.973408
O O8 0.945754 0.526006 0.796077
O O9 0.996040 0.751833 0.113601
O O10 0.882077 0.601489 0.980331
O O11 0.860851 0.727193 0.954922
O O12 0.329962 0.702764 0.529010
O O13 0.340775 0.787662 0.205044
#
# Coordination Sequence:
#
# PCOD8324753 Si02
#       7
#     6   6   3   6   6   6   6
#     4  11  24  42  59  90 119 170 211 274 318 377
#     4  10  20  42  64  82 127 160 214 253 318 378
#     4  12  26  36  66  96 124 158 222 276 326 354
#     4  10  21  39  65  93 123 160 204 254 316 381
#     4  12  27  40  60  83 122 176 222 259 324 385
#     4  11  24  42  59  90 119 170 211 274 318 377
#     4  10  21  39  65  93 123 160 204 254 316 381
#
# _framework density 19.461435000000002
#
# number of rings (size 3 to 8) (size 9 to 14) (size 15 to 20)
#    0.000    1.231    4.615    2.769    6.462    6.154 
#    0.000    1.538    0.000    0.000    0.000    5.385 
#    0.000    0.000    0.000    0.000    0.000    0.000 
#
# Total GULP energy -483599.811952 kJ/mol
# GULP energy per Si atom -12399.995178 kJ/mol
# Density = 1.941714 g / cm^3
# Si number density = 19.461435 Si / 1000 Ang^3
#
#
#
# Elastic Constant Matrix: (Units=GPa)
#
#
# Indices 1 2 3 4 5 6 
#
# 1 111.6872 34.3697 25.4949 0.0000 0.0000 0.0000
# 2 34.3697 111.6872 25.4949 0.0000 0.0000 0.0000
# 3 25.4949 25.4949 90.8356 0.0000 0.0000 0.0000
# 4 0.0000 0.0000 0.0000 19.4067 0.0000 0.0000
# 5 0.0000 0.0000 0.0000 0.0000 19.4067 0.0000
# 6 0.0000 0.0000 0.0000 0.0000 0.0000 38.6587
#
#
#
# Elastic Compliance Matrix: (Units=1/GPa)
#
#
# Indices 1 2 3 4 5 6 
#
# 1 0.010262 -0.002672 -0.002130 0.000000 0.000000 0.000000
# 2 -0.002672 0.010262 -0.002130 0.000000 0.000000 0.000000
# 3 -0.002130 -0.002130 0.012205 0.000000 0.000000 0.000000
# 4 0.000000 0.000000 0.000000 0.051529 0.000000 0.000000
# 5 0.000000 0.000000 0.000000 0.000000 0.051529 0.000000
# 6 0.000000 0.000000 0.000000 0.000000 0.000000 0.025867
#
#
# Mechanical properties :
#
#
# Convention : Reuss Voigt Hill
#
# Bulk Modulus (GPa) = 53.01117 53.88102 53.44610
# Shear Modulus (GPa) = 27.50180 30.75112 29.12646
#
# Velocity S-wave (km/s) = 3.76326 3.97937 3.87282
# Velocity P-wave (km/s) = 6.79566 6.98999 6.89351
#
# Compressibility (1/GPa) = 0.01886395
#
# Stress axis : x y z
#
# Youngs Moduli (GPa) = 97.44649 97.44649 81.93510
#
# Poissons Ratio (x) = 0.26034 0.17455
# Poissons Ratio (y) = 0.26034 0.17455
# Poissons Ratio (z) = 0.20760 0.20760
#
# Static dielectric constant tensor:
#      x y z
#    x 3.544400 0.000000 0.000000 
#    y 0.000000 3.544400 0.000000 
#    z 0.000000 0.000000 3.653500 
# 
# 
# High freq. dielectric constant tensor:
#      x y z
#    x 1.748450 0.000000 0.000000 
#    y 0.000000 1.748450 0.000000 
#    z 0.000000 0.000000 1.771600 
# 
# From -- ./inp_files/758.got.cif
#   From: 2010.03.12/outbox.cif.g09.slc.cpg/sg171_1_cif.got.tgz:758.got - 2010.04.02 06:49:11.
