data_PCOD8324160
_publ_section_title
;
Structure prediction by ZEFSAII (Michael W. Deem and Ramdas Pophale) SiO2 
 PCOD8324160
Probable space group: R -3 M
;
_chemical_formula_sum "Si O2"
_cell_formula_units_Z 162
_cell_length_a 24.838740
_cell_length_b 24.838740
_cell_length_c 15.671016
_cell_angle_alpha 90.000000
_cell_angle_beta 90.000000
_cell_angle_gamma 120.000000
_cell_volume 8373.112160
_symmetry_space_group_name_H-M "R -3 M"
_symmetry_group_IT_number 166
_symmetry_cell_setting 'hexagonal'
loop_
_space_group_symop_operation_xyz
x,y,z
-y,x-y,z
-x+y,-x,z
x-y,-y,-z
-x,-x+y,-z
y,x,-z
-x,-y,-z
y,-x+y,-z
x-y,x,-z
-x+y,y,z
x,x-y,z
-y,-x,z
2/3+x,1/3+y,1/3+z
2/3-y,1/3+x-y,1/3+z
2/3-x+y,1/3-x,1/3+z
2/3+x-y,1/3-y,1/3-z
2/3-x,1/3-x+y,1/3-z
2/3+y,1/3+x,1/3-z
2/3-x,1/3-y,1/3-z
2/3+y,1/3-x+y,1/3-z
2/3+x-y,1/3+x,1/3-z
2/3-x+y,1/3+y,1/3+z
2/3+x,1/3+x-y,1/3+z
2/3-y,1/3-x,1/3+z
1/3+x,2/3+y,2/3+z
1/3-y,2/3+x-y,2/3+z
1/3-x+y,2/3-x,2/3+z
1/3+x-y,2/3-y,2/3-z
1/3-x,2/3-x+y,2/3-z
1/3+y,2/3+x,2/3-z
1/3-x,2/3-y,2/3-z
1/3+y,2/3-x+y,2/3-z
1/3+x-y,2/3+x,2/3-z
1/3-x+y,2/3+y,2/3+z
1/3+x,2/3+x-y,2/3+z
1/3-y,2/3-x,2/3+z
loop_
_atom_site_type_symbol
_atom_site_label
_atom_site_fract_x
_atom_site_fract_y
_atom_site_fract_z
Si Si1 0.330706 0.165353 0.317500
Si Si2 0.426950 0.853900 0.376627
Si Si3 0.121576 0.878425 0.409711
Si Si4 0.521588 0.478413 0.157545
Si Si5 0.859226 0.310599 0.603858
Si Si6 0.999675 0.614720 0.597938
Si Si7 0.528702 0.264351 0.865397
O O1 0.256861 0.128430 0.325279
O O2 0.357936 0.178968 0.412033
O O3 0.354847 0.229818 0.266245
O O4 0.363671 0.841765 0.425685
O O5 0.402518 0.805036 0.300125
O O6 0.158737 0.841264 0.426129
O O7 0.160423 0.941890 0.357216
O O8 0.104632 0.895368 0.500192
O O9 0.595449 0.510097 0.139947
O O10 0.930411 0.343965 0.631402
O O11 0.042614 0.666667 0.666667
O O12 0.000000 0.636437 0.500000
O O13 0.564045 0.333334 0.833334
#
# Coordination Sequence:
#
# PCOD8324160 Si02
#       7
#    18  18  18  18  36  36  18
#     4  10  22  36  57  80 110 143 189 242 301 350
#     4  10  20  36  52  78 112 157 186 246 300 358
#     4  11  20  33  57  81 116 151 197 254 295 357
#     4  11  20  35  56  86 110 152 197 259 297 359
#     4  10  21  35  53  80 114 149 199 238 302 354
#     4  11  22  38  57  83 115 154 192 240 295 366
#     4  12  22  36  54  80 117 165 205 242 293 362
#
# _framework density 19.347643999999999
#
# number of rings (size 3 to 8) (size 9 to 14) (size 15 to 20)
#    0.000    1.333    3.333    4.444    0.000    0.000 
#    0.000    0.000    0.000    0.444    0.000    0.000 
#    0.000    0.000    0.000   11.111    0.000    0.000 
#
# Total GULP energy -669163.321865 kJ/mol
# GULP energy per Si atom -12391.913368 kJ/mol
# Density = 1.930361 g / cm^3
# Si number density = 19.347644 Si / 1000 Ang^3
#
#
#
# Elastic Constant Matrix: (Units=GPa)
#
#
# Indices 1 2 3 4 5 6 
#
# 1 112.0015 50.0703 24.5121 0.6608 -0.0004 0.0000
# 2 50.0703 112.0015 24.5121 -0.6608 0.0004 0.0000
# 3 24.5121 24.5121 89.6186 0.0000 0.0000 0.0000
# 4 0.6608 -0.6608 0.0000 24.2012 0.0000 0.0004
# 5 -0.0004 0.0004 0.0000 0.0000 24.2012 0.6608
# 6 0.0000 0.0000 0.0000 0.0004 0.6608 30.9656
#
#
#
# Elastic Compliance Matrix: (Units=1/GPa)
#
#
# Indices 1 2 3 4 5 6 
#
# 1 0.011441 -0.004715 -0.001840 -0.000441 0.000000 0.000000
# 2 -0.004715 0.011441 -0.001840 0.000441 0.000000 0.000000
# 3 -0.001840 -0.001840 0.012165 0.000000 0.000000 0.000000
# 4 -0.000441 0.000441 0.000000 0.041344 0.000000 -0.000001
# 5 0.000000 0.000000 0.000000 0.000000 0.041344 -0.000882
# 6 0.000000 0.000000 0.000000 -0.000001 -0.000882 0.032313
#
#
# Mechanical properties :
#
#
# Convention : Reuss Voigt Hill
#
# Bulk Modulus (GPa) = 54.76826 56.86784 55.81805
# Shear Modulus (GPa) = 28.91431 30.17539 29.54485
#
# Velocity S-wave (km/s) = 3.87002 3.95351 3.91199
# Velocity P-wave (km/s) = 6.95258 7.09202 7.02265
#
# Compressibility (1/GPa) = 0.01825875
#
# Stress axis : x y z
#
# Youngs Moduli (GPa) = 87.40114 87.40114 82.20411
#
# Poissons Ratio (x) = 0.41209 0.15124
# Poissons Ratio (y) = 0.41209 0.15124
# Poissons Ratio (z) = 0.16080 0.16080
#
# Static dielectric constant tensor:
#      x y z
#    x 3.749500 0.000000 0.000000 
#    y 0.000000 3.749500 0.000000 
#    z 0.000000 0.000000 3.240030 
# 
# 
# High freq. dielectric constant tensor:
#      x y z
#    x 1.756600 0.000000 0.000000 
#    y 0.000000 1.756600 0.000000 
#    z 0.000000 0.000000 1.730480 
# 
# From -- ./inp_files/5511.got.cif
#   From: 2010.03.12/outbox.cif.g09.slc.cpg/sg166_3_cif.got.tgz:5511.got - 2010.04.02 06:38:31.
