data_PCOD8324256
_publ_section_title
;
Structure prediction by ZEFSAII (Michael W. Deem and Ramdas Pophale) SiO2 
 PCOD8324256
Probable space group: R -3 M
;
_chemical_formula_sum "Si O2"
_cell_formula_units_Z 72
_cell_length_a 21.715910
_cell_length_b 21.715910
_cell_length_c 9.240615
_cell_angle_alpha 90.000000
_cell_angle_beta 90.000000
_cell_angle_gamma 120.000000
_cell_volume 3773.875547
_symmetry_space_group_name_H-M "R -3 M"
_symmetry_group_IT_number 166
_symmetry_cell_setting 'hexagonal'
loop_
_space_group_symop_operation_xyz
x,y,z
-y,x-y,z
-x+y,-x,z
x-y,-y,-z
-x,-x+y,-z
y,x,-z
-x,-y,-z
y,-x+y,-z
x-y,x,-z
-x+y,y,z
x,x-y,z
-y,-x,z
2/3+x,1/3+y,1/3+z
2/3-y,1/3+x-y,1/3+z
2/3-x+y,1/3-x,1/3+z
2/3+x-y,1/3-y,1/3-z
2/3-x,1/3-x+y,1/3-z
2/3+y,1/3+x,1/3-z
2/3-x,1/3-y,1/3-z
2/3+y,1/3-x+y,1/3-z
2/3+x-y,1/3+x,1/3-z
2/3-x+y,1/3+y,1/3+z
2/3+x,1/3+x-y,1/3+z
2/3-y,1/3-x,1/3+z
1/3+x,2/3+y,2/3+z
1/3-y,2/3+x-y,2/3+z
1/3-x+y,2/3-x,2/3+z
1/3+x-y,2/3-y,2/3-z
1/3-x,2/3-x+y,2/3-z
1/3+y,2/3+x,2/3-z
1/3-x,2/3-y,2/3-z
1/3+y,2/3-x+y,2/3-z
1/3+x-y,2/3+x,2/3-z
1/3-x+y,2/3+y,2/3+z
1/3+x,2/3+x-y,2/3+z
1/3-y,2/3-x,2/3+z
loop_
_atom_site_type_symbol
_atom_site_label
_atom_site_fract_x
_atom_site_fract_y
_atom_site_fract_z
Si Si1 0.861608 0.282615 0.965014
Si Si2 0.617363 0.876124 0.474031
O O1 0.781094 0.218907 0.981963
O O2 0.864835 0.333334 0.833334
O O3 0.916163 0.252848 0.939256
O O4 0.886807 0.327327 0.115401
O O5 0.583491 0.791746 0.499685
O O6 0.666667 0.899503 0.333334
#
# Coordination Sequence:
#
# PCOD8324256 Si02
#       2
#    36  36
#     4   9  15  24  40  57  75 103 131 157 193 230
#     4   8  14  24  39  57  75 101 131 157 192 231
#
# _framework density 19.078531000000002
#
# number of rings (size 3 to 8) (size 9 to 14) (size 15 to 20)
#    0.000    3.500    0.000    4.500    0.000    0.000 
#    0.000    0.000    0.000   49.500    0.000    0.000 
#    0.000    0.000    0.000    0.000    0.000 1020.000 
#
# Total GULP energy -297320.531253 kJ/mol
# GULP energy per Si atom -12388.355469 kJ/mol
# Density = 1.903511 g / cm^3
# Si number density = 19.078531 Si / 1000 Ang^3
#
#
#
# Elastic Constant Matrix: (Units=GPa)
#
#
# Indices 1 2 3 4 5 6 
#
# 1 140.2976 81.6168 32.7338 -12.2132 -0.0006 0.0001
# 2 81.6168 140.2981 32.7358 12.2136 0.0005 0.0002
# 3 32.7338 32.7358 14.9640 0.0020 -0.0019 0.0003
# 4 -12.2132 12.2136 0.0020 9.5901 0.0007 0.0006
# 5 -0.0006 0.0005 -0.0019 0.0007 9.5901 -12.2133
# 6 0.0001 0.0002 0.0003 0.0006 -12.2133 29.3409
#
#
#
# Elastic Compliance Matrix: (Units=1/GPa)
#
#
# Indices 1 2 3 4 5 6 
#
# 1 0.024491 -0.011780 -0.027808 0.046198 -0.000015 -0.000007
# 2 -0.011780 0.024485 -0.027788 -0.046180 -0.000006 -0.000001
# 3 -0.027808 -0.027788 0.188447 -0.000064 0.000072 0.000028
# 4 0.046198 -0.046180 -0.000064 0.221921 -0.000033 -0.000018
# 5 -0.000015 -0.000006 0.000072 -0.000033 0.221915 0.092373
# 6 -0.000007 -0.000001 0.000028 -0.000018 0.092373 0.072533
#
#
# Mechanical properties :
#
#
# Convention : Reuss Voigt Hill
#
# Bulk Modulus (GPa) = 9.73998 65.52585 37.63291
# Shear Modulus (GPa) = 5.41848 19.60245 12.51046
#
# Velocity S-wave (km/s) = 1.68709 3.20888 2.56351
# Velocity P-wave (km/s) = 2.98518 6.93896 5.34137
#
# Compressibility (1/GPa) = 0.10266963
#
# Stress axis : x y z
#
# Youngs Moduli (GPa) = 40.83192 40.84179 5.30653
#
# Poissons Ratio (x) = 0.48113 0.14757
# Poissons Ratio (y) = 0.48102 0.14746
# Poissons Ratio (z) = 1.13546 1.13490
#
# Static dielectric constant tensor:
#      x y z
#    x 3.553020 0.000000 0.000000 
#    y 0.000000 3.553030 0.000000 
#    z 0.000000 0.000000 3.385730 
# 
# 
# High freq. dielectric constant tensor:
#      x y z
#    x 1.723320 0.000000 0.000000 
#    y 0.000000 1.723320 0.000000 
#    z 0.000000 0.000000 1.703840 
# 
# From -- ./inp_files/842.got.cif
#   From: 2010.03.12/outbox.cif.g09.slc.cpg/sg166_1_cif.got.tgz:842.got - 2010.04.02 06:38:31.
