data_PCOD8324926
_publ_section_title
;
Structure prediction by ZEFSAII (Michael W. Deem and Ramdas Pophale) SiO2 
 PCOD8324926
Probable space group: P -6
;
_chemical_formula_sum "Si O2"
_cell_formula_units_Z 45
_cell_length_a 18.335871
_cell_length_b 18.335871
_cell_length_c 7.646026
_cell_angle_alpha 90.000000
_cell_angle_beta 90.000000
_cell_angle_gamma 120.000000
_cell_volume 2226.227237
_symmetry_space_group_name_H-M "P -6"
_symmetry_group_IT_number 174
_symmetry_cell_setting 'hexagonal'
loop_
_space_group_symop_operation_xyz
x,y,z
-x+y,-x,-z
-y,x-y,z
x,y,-z
-x+y,-x,z
-y,x-y,-z
loop_
_atom_site_type_symbol
_atom_site_label
_atom_site_fract_x
_atom_site_fract_y
_atom_site_fract_z
Si Si1 0.501656 0.917748 0.204384
Si Si2 0.842305 0.613783 0.291262
Si Si3 0.566946 0.666688 0.200907
Si Si4 0.790341 0.001841 0.300364
Si Si5 0.911302 0.338142 0.291731
Si Si6 0.898914 0.491372 0.304050
Si Si7 0.617986 0.846664 0.795153
Si Si8 0.005446 0.909026 0.000000
O O1 0.406235 0.882805 0.275657
O O2 0.533994 0.852493 0.239906
O O3 0.562865 0.002560 0.307349
O O4 0.505437 0.940350 0.000000
O O5 0.844660 0.611103 0.500000
O O6 0.754364 0.601274 0.220044
O O7 0.851929 0.536353 0.212185
O O8 0.918075 0.703219 0.226864
O O9 0.638648 0.641885 0.226401
O O10 0.597516 0.757307 0.289160
O O11 0.554426 0.679566 0.000000
O O12 0.824794 0.017107 0.500000
O O13 0.698120 0.920182 0.301600
O O14 0.853324 0.989313 0.175693
O O15 0.912067 0.341988 0.500000
O O16 0.885402 0.405165 0.213793
O O17 0.864237 0.468193 0.500000
O O18 0.640249 0.854872 0.000000
O O19 0.085440 0.004909 0.000000
#
# Coordination Sequence:
#
# PCOD8324926 Si02
#       8
#     6   6   6   6   6   6   6   3
#     4   9  17  31  52  75 105 145 185 227 279 341
#     4   9  18  33  53  83 113 143 191 239 284 350
#     4   9  19  34  50  77 110 143 186 235 290 347
#     4  11  22  39  66  93 119 157 206 252 303 364
#     4   9  18  33  51  75 107 141 180 228 284 341
#     4   9  16  30  52  73 103 141 174 221 274 329
#     4  10  19  34  56  83 117 153 197 250 296 354
#     4  10  26  48  64  88 124 156 196 252 312 372
#
# _framework density 20.213571999999999
#
# number of rings (size 3 to 8) (size 9 to 14) (size 15 to 20)
#    0.133    2.400    2.000    0.000    0.000    2.133 
#    2.800    1.333    0.000    0.000    0.000    0.000 
#    0.000    0.000    0.000    0.000    0.000    0.000 
#
# Total GULP energy -557687.993499 kJ/mol
# GULP energy per Si atom -12393.066522 kJ/mol
# Density = 2.016756 g / cm^3
# Si number density = 20.213572 Si / 1000 Ang^3
#
#
#
# Elastic Constant Matrix: (Units=GPa)
#
#
# Indices 1 2 3 4 5 6 
#
# 1 154.7131 84.8901 13.1756 0.0000 0.0000 0.0000
# 2 84.8901 154.7131 13.1756 0.0000 0.0000 0.0000
# 3 13.1756 13.1756 45.0175 0.0000 0.0000 0.0000
# 4 0.0000 0.0000 0.0000 16.0521 0.0000 0.0000
# 5 0.0000 0.0000 0.0000 0.0000 16.0521 0.0000
# 6 0.0000 0.0000 0.0000 0.0000 0.0000 34.9115
#
#
#
# Elastic Compliance Matrix: (Units=1/GPa)
#
#
# Indices 1 2 3 4 5 6 
#
# 1 0.009317 -0.005005 -0.001262 0.000000 0.000000 0.000000
# 2 -0.005005 0.009317 -0.001262 0.000000 0.000000 0.000000
# 3 -0.001262 -0.001262 0.022952 0.000000 0.000000 0.000000
# 4 0.000000 0.000000 0.000000 0.062297 0.000000 0.000000
# 5 0.000000 0.000000 0.000000 0.000000 0.062297 0.000000
# 6 0.000000 0.000000 0.000000 0.000000 0.000000 0.028644
#
#
# Mechanical properties :
#
#
# Convention : Reuss Voigt Hill
#
# Bulk Modulus (GPa) = 37.69520 64.10294 50.89907
# Shear Modulus (GPa) = 22.85966 29.61662 26.23814
#
# Velocity S-wave (km/s) = 3.36654 3.83193 3.60675
# Velocity P-wave (km/s) = 5.81381 7.16658 6.52535
#
# Compressibility (1/GPa) = 0.02652858
#
# Stress axis : x y z
#
# Youngs Moduli (GPa) = 107.32888 107.32888 43.56849
#
# Poissons Ratio (x) = 0.53716 0.05499
# Poissons Ratio (y) = 0.53716 0.05499
# Poissons Ratio (z) = 0.13546 0.13546
#
# Static dielectric constant tensor:
#      x y z
#    x 3.780150 0.000000 0.000000 
#    y 0.000000 3.780150 0.000000 
#    z 0.000000 0.000000 3.396290 
# 
# 
# High freq. dielectric constant tensor:
#      x y z
#    x 1.784760 0.000000 0.000000 
#    y 0.000000 1.784760 0.000000 
#    z 0.000000 0.000000 1.769900 
# 
# From -- ./inp_files/504.got.cif
#   From: 2010.03.12/outbox.cif.g09.slc.cpg/sg174_cif.got.tgz:504.got - 2010.04.02 06:54:58.
