data_PCOD8324589
_publ_section_title
;
Structure prediction by ZEFSAII (Michael W. Deem and Ramdas Pophale) SiO2 
 PCOD8324589
Probable space group: P 61
;
_chemical_formula_sum "Si O2"
_cell_formula_units_Z 24
_cell_length_a 9.429794
_cell_length_b 9.429794
_cell_length_c 13.829044
_cell_angle_alpha 90.000000
_cell_angle_beta 90.000000
_cell_angle_gamma 120.000000
_cell_volume 1064.945054
_symmetry_space_group_name_H-M "P 61"
_symmetry_group_IT_number 169
_symmetry_cell_setting 'hexagonal'
loop_
_space_group_symop_operation_xyz
x,y,z
x-y,x,1/6+z
-y,x-y,1/3+z
-x,-y,1/2+z
-x+y,-x,2/3+z
y,-x+y,5/6+z
loop_
_atom_site_type_symbol
_atom_site_label
_atom_site_fract_x
_atom_site_fract_y
_atom_site_fract_z
Si Si1 0.048651 0.824277 0.936490
Si Si2 0.419496 0.364041 0.983914
Si Si3 0.538887 0.530662 0.274071
Si Si4 0.220666 0.579739 0.777212
O O1 0.213098 0.937528 0.874876
O O2 0.902485 0.828787 0.877152
O O3 0.011021 0.639925 0.950349
O O4 0.577235 0.341239 0.980822
O O5 0.448846 0.527426 0.036606
O O6 0.378542 0.377276 0.873124
O O7 0.529116 0.661758 0.205141
O O8 0.662474 0.477543 0.227327
#
# Coordination Sequence:
#
# PCOD8324589 Si02
#       4
#     6   6   6   6
#     4  11  23  46  71 104 144 198 237 301 375 435
#     4  11  22  40  70  99 144 187 232 289 358 432
#     4  11  24  42  72 104 140 190 241 296 355 441
#     4  11  25  42  71 105 142 187 240 296 358 428
#
# _framework density 22.536373999999999
#
# number of rings (size 3 to 8) (size 9 to 14) (size 15 to 20)
#    0.000    1.000    5.000    3.000    7.000    0.000 
#    0.000    5.000    0.000    0.000    0.000    0.000 
#    0.000    0.000    0.000    0.000    0.000    0.000 
#
# Total GULP energy -297497.841152 kJ/mol
# GULP energy per Si atom -12395.743381 kJ/mol
# Density = 2.248508 g / cm^3
# Si number density = 22.536374 Si / 1000 Ang^3
#
#
#
# Elastic Constant Matrix: (Units=GPa)
#
#
# Indices 1 2 3 4 5 6 
#
# 1 86.1694 52.4858 9.9540 0.0000 0.0000 0.0000
# 2 52.4858 86.1694 9.9540 0.0000 0.0000 0.0000
# 3 9.9540 9.9540 68.7645 0.0000 0.0000 0.0000
# 4 0.0000 0.0000 0.0000 31.8564 0.0000 0.0000
# 5 0.0000 0.0000 0.0000 0.0000 31.8564 0.0000
# 6 0.0000 0.0000 0.0000 0.0000 0.0000 16.8418
#
#
#
# Elastic Compliance Matrix: (Units=1/GPa)
#
#
# Indices 1 2 3 4 5 6 
#
# 1 0.018527 -0.011161 -0.001066 0.000000 0.000000 0.000000
# 2 -0.011161 0.018527 -0.001066 0.000000 0.000000 0.000000
# 3 -0.001066 -0.001066 0.014851 0.000000 0.000000 0.000000
# 4 0.000000 0.000000 0.000000 0.031391 0.000000 0.000000
# 5 0.000000 0.000000 0.000000 0.000000 0.031391 0.000000
# 6 0.000000 0.000000 0.000000 0.000000 0.000000 0.059376
#
#
# Mechanical properties :
#
#
# Convention : Reuss Voigt Hill
#
# Bulk Modulus (GPa) = 39.49936 42.87677 41.18806
# Shear Modulus (GPa) = 23.91332 27.35821 25.63577
#
# Velocity S-wave (km/s) = 3.26099 3.48797 3.37639
# Velocity P-wave (km/s) = 5.63415 5.94038 5.78929
#
# Compressibility (1/GPa) = 0.02531687
#
# Stress axis : x y z
#
# Youngs Moduli (GPa) = 53.97641 53.97641 67.33535
#
# Poissons Ratio (x) = 0.60245 0.07179
# Poissons Ratio (y) = 0.60245 0.07179
# Poissons Ratio (z) = 0.05755 0.05755
#
# Static dielectric constant tensor:
#      x y z
#    x 4.061190 0.000000 0.000000 
#    y 0.000000 4.061190 0.000000 
#    z 0.000000 0.000000 4.293630 
# 
# 
# High freq. dielectric constant tensor:
#      x y z
#    x 1.881500 0.000000 0.000000 
#    y 0.000000 1.881500 0.000000 
#    z 0.000000 0.000000 1.893990 
# 
# From -- ./inp_files/1301.got.cif
#   From: 2010.03.12/outbox.cif.g09.slc.cpg/sg169_cif.got.tgz:1301.got - 2010.04.02 06:46:06.
