data_PCOD8324415
_publ_section_title
;
Structure prediction by ZEFSAII (Michael W. Deem and Ramdas Pophale) SiO2 
 PCOD8324415
Probable space group: R -3 C 
;
_chemical_formula_sum "Si O2"
_cell_formula_units_Z 84
_cell_length_a 17.568782
_cell_length_b 17.568782
_cell_length_c 13.080361
_cell_angle_alpha 90.000000
_cell_angle_beta 90.000000
_cell_angle_gamma 120.000000
_cell_volume 3496.501104
_symmetry_space_group_name_H-M "R -3 C "
_symmetry_group_IT_number 167
_symmetry_cell_setting 'hexagonal'
loop_
_space_group_symop_operation_xyz
x,y,z
-y,x-y,z
-x+y,-x,z
x-y,-y,1/2-z
-x,-x+y,1/2-z
y,x,1/2-z
-x,-y,-z
y,-x+y,-z
x-y,x,-z
-x+y,y,1/2+z
x,x-y,1/2+z
-y,-x,1/2+z
2/3+x,1/3+y,1/3+z
2/3-y,1/3+x-y,1/3+z
2/3-x+y,1/3-x,1/3+z
2/3+x-y,1/3-y,5/6-z
2/3-x,1/3-x+y,5/6-z
2/3+y,1/3+x,5/6-z
2/3-x,1/3-y,1/3-z
2/3+y,1/3-x+y,1/3-z
2/3+x-y,1/3+x,1/3-z
2/3-x+y,1/3+y,5/6+z
2/3+x,1/3+x-y,5/6+z
2/3-y,1/3-x,5/6+z
1/3+x,2/3+y,2/3+z
1/3-y,2/3+x-y,2/3+z
1/3-x+y,2/3-x,2/3+z
1/3+x-y,2/3-y,1/6-z
1/3-x,2/3-x+y,1/6-z
1/3+y,2/3+x,1/6-z
1/3-x,2/3-y,2/3-z
1/3+y,2/3-x+y,2/3-z
1/3+x-y,2/3+x,2/3-z
1/3-x+y,2/3+y,1/6+z
1/3+x,2/3+x-y,1/6+z
1/3-y,2/3-x,1/6+z
loop_
_atom_site_type_symbol
_atom_site_label
_atom_site_fract_x
_atom_site_fract_y
_atom_site_fract_z
Si Si1 0.087441 0.335746 0.705244
Si Si2 0.666668 0.333334 0.451957
Si Si3 0.472352 0.218153 0.650151
O O1 0.086704 0.333334 0.583334
O O2 0.174131 0.423641 0.742920
O O3 0.083160 0.249357 0.751582
O O4 0.000000 0.333722 0.750000
O O5 0.666668 0.333335 0.333334
O O6 0.601602 0.366404 0.492169
O O7 0.478176 0.144842 0.583334
#
# Coordination Sequence:
#
# PCOD8324415 Si02
#       3
#    36  12  36
#     4  11  26  46  74 107 149 198 253 310 377 449
#     4  12  28  47  79 112 149 193 253 311 376 445
#     4  11  26  47  72 109 149 195 249 313 377 451
#
# _framework density 24.024017000000001
#
# number of rings (size 3 to 8) (size 9 to 14) (size 15 to 20)
#    0.000    0.857    0.000    5.143   12.000    5.143 
#    0.000    0.000    0.000    0.000    0.000    0.000 
#    0.000    0.000    0.000    0.000    0.000    0.000 
#
# Total GULP energy -347206.829681 kJ/mol
# GULP energy per Si atom -12400.243917 kJ/mol
# Density = 2.396934 g / cm^3
# Si number density = 24.024017 Si / 1000 Ang^3
#
#
#
# Elastic Constant Matrix: (Units=GPa)
#
#
# Indices 1 2 3 4 5 6 
#
# 1 87.0792 68.3748 48.3551 -17.0030 0.0012 0.0000
# 2 68.3748 87.0799 48.3536 17.0044 -0.0012 0.0000
# 3 48.3551 48.3536 239.2659 0.0009 0.0000 0.0000
# 4 -17.0030 17.0044 0.0009 14.8257 0.0000 -0.0012
# 5 0.0012 -0.0012 0.0000 0.0000 14.8266 -17.0030
# 6 0.0000 0.0000 0.0000 -0.0012 -17.0030 9.3520
#
#
#
# Elastic Compliance Matrix: (Units=1/GPa)
#
#
# Indices 1 2 3 4 5 6 
#
# 1 -0.020953 0.028311 -0.001487 -0.056502 0.000004 0.000000
# 2 0.028311 -0.020953 -0.001487 0.056502 -0.000004 0.000000
# 3 -0.001487 -0.001487 0.004780 0.000001 0.000000 0.000000
# 4 -0.056502 0.056502 0.000001 -0.062154 0.000000 -0.000008
# 5 0.000004 -0.000004 0.000000 0.000000 -0.062163 -0.113019
# 6 0.000000 0.000000 0.000000 -0.000008 -0.113019 -0.098552
#
#
# Mechanical properties :
#
#
# Convention : Reuss Voigt Hill
#
# Bulk Modulus (GPa) = 73.81059 82.62133 78.21596
# Shear Modulus (GPa) = -16.33168 24.35697 4.01264
#
# Velocity S-wave (km/s) = -2.61014 3.18757 1.29379
# Velocity P-wave (km/s) = 4.65903 6.92916 5.90423
#
# Compressibility (1/GPa) = 0.01354819
#
# Stress axis : x y z
#
# Youngs Moduli (GPa) = -47.72570 -47.72477 209.18444
#
# Poissons Ratio (x) = 1.35114 0.31098
# Poissons Ratio (y) = 1.35117 0.31112
# Poissons Ratio (z) = -0.07095 -0.07098
#
# Static dielectric constant tensor:
#      x y z
#    x 4.541960 0.000000 0.000000 
#    y 0.000000 4.541990 0.000000 
#    z 0.000000 0.000000 4.454750 
# 
# 
# High freq. dielectric constant tensor:
#      x y z
#    x 1.961520 0.000000 0.000000 
#    y 0.000000 1.961520 0.000000 
#    z 0.000000 0.000000 1.968070 
# 
# From -- ./inp_files/1859.got.cif
#   From: 2010.03.12/outbox.cif.g09.slc.cpg/sg167_1_cif.got.tgz:1859.got - 2010.04.02 06:42:56.
