data_PCOD8324447
_publ_section_title
;
Structure prediction by ZEFSAII (Michael W. Deem and Ramdas Pophale) SiO2 
 PCOD8324447
Probable space group: P 61
;
_chemical_formula_sum "Si O2"
_cell_formula_units_Z 36
_cell_length_a 26.167594
_cell_length_b 26.167594
_cell_length_c 5.394242
_cell_angle_alpha 90.000000
_cell_angle_beta 90.000000
_cell_angle_gamma 120.000000
_cell_volume 3198.811463
_symmetry_space_group_name_H-M "P 61"
_symmetry_group_IT_number 169
_symmetry_cell_setting 'hexagonal'
loop_
_space_group_symop_operation_xyz
x,y,z
x-y,x,1/6+z
-y,x-y,1/3+z
-x,-y,1/2+z
-x+y,-x,2/3+z
y,-x+y,5/6+z
loop_
_atom_site_type_symbol
_atom_site_label
_atom_site_fract_x
_atom_site_fract_y
_atom_site_fract_z
Si Si1 0.469233 0.001917 0.561320
Si Si2 0.832298 0.485450 0.890158
Si Si3 0.367778 0.875936 0.554491
Si Si4 0.131259 0.613189 0.354413
Si Si5 0.632566 0.450122 0.685691
Si Si6 0.299716 0.605880 0.370965
O O1 0.468314 0.062240 0.513169
O O2 0.497744 0.989385 0.322056
O O3 0.404019 0.946285 0.590326
O O4 0.847116 0.521602 0.629335
O O5 0.762745 0.448954 0.943535
O O6 0.860904 0.529132 0.127212
O O7 0.862458 0.445109 0.853236
O O8 0.407804 0.845394 0.518897
O O9 0.162217 0.651302 0.105858
O O10 0.160627 0.650998 0.604321
O O11 0.666808 0.413164 0.670586
O O12 0.342920 0.630742 0.605835
#
# Coordination Sequence:
#
# PCOD8324447 Si02
#       6
#     6   6   6   6   6   6
#     4  12  16  24  44  50  60  76  84 106 166 170
#     4  10  19  28  36  45  66  72  98 119 130 153
#     4  10  17  30  36  52  61  72  89 125 134 176
#     4  10  17  30  36  52  61  72  89 125 134 176
#     4  10  19  28  36  45  66  72  98 119 130 153
#     4  12  22  28  38  46  58  92 106 118 136 156
#
# _framework density 11.25418
#
# number of rings (size 3 to 8) (size 9 to 14) (size 15 to 20)
#    0.000    1.333   10.000    2.000    0.000    0.000 
#    0.000    0.000    0.000    0.000    0.000    0.000 
#    0.000    0.000    0.000    0.000    0.000    0.000 
#
# Total GULP energy -446014.368027 kJ/mol
# GULP energy per Si atom -12389.288001 kJ/mol
# Density = 1.122856 g / cm^3
# Si number density = 11.254180 Si / 1000 Ang^3
#
#
#
# Elastic Constant Matrix: (Units=GPa)
#
#
# Indices 1 2 3 4 5 6 
#
# 1 20.3733 16.2412 5.8924 0.0000 0.0000 0.0000
# 2 16.2412 20.3733 5.8924 0.0000 0.0000 0.0000
# 3 5.8924 5.8924 103.5498 0.0000 0.0000 0.0000
# 4 0.0000 0.0000 0.0000 11.2910 0.0000 0.0000
# 5 0.0000 0.0000 0.0000 0.0000 11.2910 0.0000
# 6 0.0000 0.0000 0.0000 0.0000 0.0000 2.0661
#
#
#
# Elastic Compliance Matrix: (Units=1/GPa)
#
#
# Indices 1 2 3 4 5 6 
#
# 1 0.134912 -0.107091 -0.001583 0.000000 0.000000 0.000000
# 2 -0.107091 0.134912 -0.001583 0.000000 0.000000 0.000000
# 3 -0.001583 -0.001583 0.009837 0.000000 0.000000 0.000000
# 4 0.000000 0.000000 0.000000 0.088566 0.000000 0.000000
# 5 0.000000 0.000000 0.000000 0.000000 0.088566 0.000000
# 6 0.000000 0.000000 0.000000 0.000000 0.000000 0.484007
#
#
# Mechanical properties :
#
#
# Convention : Reuss Voigt Hill
#
# Bulk Modulus (GPa) = 16.90701 22.26094 19.58398
# Shear Modulus (GPa) = 4.23359 12.68098 8.45728
#
# Velocity S-wave (km/s) = 1.94164 3.36039 2.74429
# Velocity P-wave (km/s) = 4.48130 5.90588 5.24221
#
# Compressibility (1/GPa) = 0.05914706
#
# Stress axis : x y z
#
# Youngs Moduli (GPa) = 7.41222 7.41222 101.65327
#
# Poissons Ratio (x) = 0.79378 0.16093
# Poissons Ratio (y) = 0.79378 0.16093
# Poissons Ratio (z) = 0.01173 0.01173
#
# Static dielectric constant tensor:
#      x y z
#    x 2.139530 0.000000 0.000000 
#    y 0.000000 2.139530 0.000000 
#    z 0.000000 0.000000 3.376640 
# 
# 
# High freq. dielectric constant tensor:
#      x y z
#    x 1.372560 0.000000 0.000000 
#    y 0.000000 1.372560 0.000000 
#    z 0.000000 0.000000 1.463850 
# 
# From -- ./inp_files/318.got.cif
#   From: 2010.03.12/outbox.cif.g09.slc.cpg/sg169_cif.got.tgz:318.got - 2010.04.02 06:46:06.
