data_PCOD8324609
_publ_section_title
;
Structure prediction by ZEFSAII (Michael W. Deem and Ramdas Pophale) SiO2 
 PCOD8324609
Probable space group: P 61
;
_chemical_formula_sum "Si O2"
_cell_formula_units_Z 48
_cell_length_a 14.917111
_cell_length_b 14.917111
_cell_length_c 11.986134
_cell_angle_alpha 90.000000
_cell_angle_beta 90.000000
_cell_angle_gamma 120.000000
_cell_volume 2309.825668
_symmetry_space_group_name_H-M "P 61"
_symmetry_group_IT_number 169
_symmetry_cell_setting 'hexagonal'
loop_
_space_group_symop_operation_xyz
x,y,z
x-y,x,1/6+z
-y,x-y,1/3+z
-x,-y,1/2+z
-x+y,-x,2/3+z
y,-x+y,5/6+z
loop_
_atom_site_type_symbol
_atom_site_label
_atom_site_fract_x
_atom_site_fract_y
_atom_site_fract_z
Si Si1 0.924046 0.367473 0.293860
Si Si2 0.842767 0.224111 0.087925
Si Si3 0.406899 0.447132 0.552131
Si Si4 0.245629 0.581016 0.810836
Si Si5 0.719687 0.713965 0.225432
Si Si6 0.040380 0.356269 0.503666
Si Si7 0.178235 0.105833 0.424283
Si Si8 0.257151 0.534140 0.561695
O O1 0.880723 0.272138 0.208991
O O2 0.830529 0.377357 0.349966
O O3 0.002268 0.472596 0.229479
O O4 0.985618 0.343566 0.386416
O O5 0.742739 0.231861 0.056607
O O6 0.812458 0.103772 0.093173
O O7 0.934567 0.287141 0.999940
O O8 0.374910 0.354305 0.640999
O O9 0.382338 0.404133 0.427704
O O10 0.342247 0.501943 0.583751
O O11 0.217271 0.547958 0.681924
O O12 0.363582 0.672242 0.819937
O O13 0.827759 0.748425 0.164821
O O14 0.033257 0.248165 0.531348
O O15 0.159201 0.446693 0.494969
O O16 0.095049 0.113137 0.501569
#
# Coordination Sequence:
#
# PCOD8324609 Si02
#       8
#     6   6   6   6   6   6   6   6
#     4  12  29  44  68 106 150 192 235 303 370 430
#     4  12  25  46  71 102 145 185 243 301 364 426
#     4  12  23  43  75  99 135 195 244 289 356 436
#     4  12  23  43  65 103 142 186 241 291 349 433
#     4  12  22  44  79 102 131 187 249 298 351 438
#     4  12  24  47  69 104 146 187 241 302 370 436
#     4  12  24  50  78 108 136 185 253 312 370 445
#     4  12  24  41  71 100 137 187 244 294 344 438
#
# _framework density 20.780788000000001
#
# number of rings (size 3 to 8) (size 9 to 14) (size 15 to 20)
#    0.000    0.000    8.750    0.750    3.500    1.000 
#    9.000    0.000    0.000    0.000    0.000    0.000 
#    0.000    0.000    0.000    0.000    0.000    0.000 
#
# Total GULP energy -595635.851290 kJ/mol
# GULP energy per Si atom -12409.080235 kJ/mol
# Density = 2.073349 g / cm^3
# Si number density = 20.780788 Si / 1000 Ang^3
#
#
#
# Elastic Constant Matrix: (Units=GPa)
#
#
# Indices 1 2 3 4 5 6 
#
# 1 90.7150 26.3133 47.8953 0.0000 0.0000 0.0000
# 2 26.3133 90.7150 47.8953 0.0000 0.0000 0.0000
# 3 47.8953 47.8953 124.1159 0.0000 0.0000 0.0000
# 4 0.0000 0.0000 0.0000 36.3363 0.0000 0.0000
# 5 0.0000 0.0000 0.0000 0.0000 36.3363 0.0000
# 6 0.0000 0.0000 0.0000 0.0000 0.0000 32.2008
#
#
#
# Elastic Compliance Matrix: (Units=1/GPa)
#
#
# Indices 1 2 3 4 5 6 
#
# 1 0.014009 -0.001519 -0.004820 0.000000 0.000000 0.000000
# 2 -0.001519 0.014009 -0.004820 0.000000 0.000000 0.000000
# 3 -0.004820 -0.004820 0.011777 0.000000 0.000000 0.000000
# 4 0.000000 0.000000 0.000000 0.027521 0.000000 0.000000
# 5 0.000000 0.000000 0.000000 0.000000 0.027521 0.000000
# 6 0.000000 0.000000 0.000000 0.000000 0.000000 0.031055
#
#
# Mechanical properties :
#
#
# Convention : Reuss Voigt Hill
#
# Bulk Modulus (GPa) = 57.21567 61.08375 59.14971
# Shear Modulus (GPa) = 32.46045 33.20415 32.83230
#
# Velocity S-wave (km/s) = 3.95655 4.00162 3.97915
# Velocity P-wave (km/s) = 6.96169 7.12803 7.04535
#
# Compressibility (1/GPa) = 0.01747773
#
# Stress axis : x y z
#
# Youngs Moduli (GPa) = 71.38364 71.38364 84.91245
#
# Poissons Ratio (x) = 0.10841 0.40926
# Poissons Ratio (y) = 0.10841 0.40926
# Poissons Ratio (z) = 0.34406 0.34406
#
# Static dielectric constant tensor:
#      x y z
#    x 3.848260 0.000000 0.000000 
#    y 0.000000 3.848260 0.000000 
#    z 0.000000 0.000000 3.645610 
# 
# 
# High freq. dielectric constant tensor:
#      x y z
#    x 1.819720 0.000000 0.000000 
#    y 0.000000 1.819720 0.000000 
#    z 0.000000 0.000000 1.806290 
# 
# From -- ./inp_files/1028.got.cif
#   From: 2010.03.12/outbox.cif.g09.slc.cpg/sg169_cif.got.tgz:1028.got - 2010.04.02 06:46:06.
