data_PCOD8324769
_publ_section_title
;
Structure prediction by ZEFSAII (Michael W. Deem and Ramdas Pophale) SiO2 
 PCOD8324769
Probable space group: P 62
;
_chemical_formula_sum "Si O2"
_cell_formula_units_Z 30
_cell_length_a 17.967051
_cell_length_b 17.967051
_cell_length_c 4.945871
_cell_angle_alpha 90.000000
_cell_angle_beta 90.000000
_cell_angle_gamma 120.000000
_cell_volume 1382.696990
_symmetry_space_group_name_H-M "P 62"
_symmetry_group_IT_number 171
_symmetry_cell_setting 'hexagonal'
loop_
_space_group_symop_operation_xyz
x,y,z
x-y,x,1/3+z
-y,x-y,2/3+z
-x,-y,z
-x+y,-x,1/3+z
y,-x+y,2/3+z
loop_
_atom_site_type_symbol
_atom_site_label
_atom_site_fract_x
_atom_site_fract_y
_atom_site_fract_z
Si Si1 0.402270 0.496236 0.651390
Si Si2 0.005060 0.684948 0.275189
Si Si3 0.825889 0.646776 0.156240
Si Si4 0.594076 0.090103 0.827765
Si Si5 0.769884 0.532449 0.656340
O O1 0.452469 0.514339 0.367283
O O2 0.333084 0.528533 0.645940
O O3 0.348846 0.394105 0.712339
O O4 0.475737 0.553218 0.866124
O O5 0.930720 0.702456 0.153963
O O6 0.963933 0.608698 0.502593
O O7 0.078823 0.776053 0.399359
O O8 0.796021 0.613225 0.458177
O O9 0.799331 0.565687 0.960664
O O10 0.663891 0.188174 0.897210
#
# Coordination Sequence:
#
# PCOD8324769 Si02
#       5
#     6   6   6   6   6
#     4  11  23  38  60  86 120 162 209 255 300 360
#     4  10  23  40  62  90 124 157 208 262 322 371
#     4  10  22  38  62  84 120 155 190 256 308 379
#     4  11  23  38  60  86 120 162 209 255 300 360
#     4  10  22  40  54  82 124 159 206 249 304 352
#
# _framework density 21.696726999999999
#
# number of rings (size 3 to 8) (size 9 to 14) (size 15 to 20)
#    0.000    1.600    0.000    5.400    0.000   19.200 
#    3.600    0.000    0.000    0.000    0.000    0.000 
#    0.000  153.600    0.000    0.000    0.000    0.000 
#
# Total GULP energy -371691.599860 kJ/mol
# GULP energy per Si atom -12389.719995 kJ/mol
# Density = 2.164734 g / cm^3
# Si number density = 21.696727 Si / 1000 Ang^3
#
#
#
# Elastic Constant Matrix: (Units=GPa)
#
#
# Indices 1 2 3 4 5 6 
#
# 1 145.7038 50.8844 9.1959 0.0000 0.0000 0.0000
# 2 50.8844 145.7038 9.1959 0.0000 0.0000 0.0000
# 3 9.1959 9.1959 67.3957 0.0000 0.0000 0.0000
# 4 0.0000 0.0000 0.0000 29.8966 0.0000 0.0000
# 5 0.0000 0.0000 0.0000 0.0000 29.8966 0.0000
# 6 0.0000 0.0000 0.0000 0.0000 0.0000 47.4097
#
#
#
# Elastic Compliance Matrix: (Units=1/GPa)
#
#
# Indices 1 2 3 4 5 6 
#
# 1 0.007849 -0.002697 -0.000703 0.000000 0.000000 0.000000
# 2 -0.002697 0.007849 -0.000703 0.000000 0.000000 0.000000
# 3 -0.000703 -0.000703 0.015030 0.000000 0.000000 0.000000
# 4 0.000000 0.000000 0.000000 0.033449 0.000000 0.000000
# 5 0.000000 0.000000 0.000000 0.000000 0.033449 0.000000
# 6 0.000000 0.000000 0.000000 0.000000 0.000000 0.021093
#
#
# Mechanical properties :
#
#
# Convention : Reuss Voigt Hill
#
# Bulk Modulus (GPa) = 44.40001 55.26172 49.83087
# Shear Modulus (GPa) = 37.19355 40.74241 38.96798
#
# Velocity S-wave (km/s) = 4.14484 4.33808 4.24256
# Velocity P-wave (km/s) = 6.58898 7.11458 6.85682
#
# Compressibility (1/GPa) = 0.02252252
#
# Stress axis : x y z
#
# Youngs Moduli (GPa) = 127.39739 127.39739 66.53540
#
# Poissons Ratio (x) = 0.34358 0.04678
# Poissons Ratio (y) = 0.34358 0.04678
# Poissons Ratio (z) = 0.08957 0.08957
#
# Static dielectric constant tensor:
#      x y z
#    x 4.088900 0.000000 0.000000 
#    y 0.000000 4.088900 0.000000 
#    z 0.000000 0.000000 3.947480 
# 
# 
# High freq. dielectric constant tensor:
#      x y z
#    x 1.834850 0.000000 0.000000 
#    y 0.000000 1.834850 0.000000 
#    z 0.000000 0.000000 1.863600 
# 
# From -- ./inp_files/313.got.cif
#   From: 2010.03.12/outbox.cif.g09.slc.cpg/sg171_1_cif.got.tgz:313.got - 2010.04.02 06:49:11.
