data_PCOD8324338
_publ_section_title
;
Structure prediction by ZEFSAII (Michael W. Deem and Ramdas Pophale) SiO2 
 PCOD8324338
Probable space group: R -3 C 
;
_chemical_formula_sum "Si O2"
_cell_formula_units_Z 270
_cell_length_a 22.976669
_cell_length_b 22.976669
_cell_length_c 27.506549
_cell_angle_alpha 90.000000
_cell_angle_beta 90.000000
_cell_angle_gamma 120.000000
_cell_volume 12575.952091
_symmetry_space_group_name_H-M "R -3 C "
_symmetry_group_IT_number 167
_symmetry_cell_setting 'hexagonal'
loop_
_space_group_symop_operation_xyz
x,y,z
-y,x-y,z
-x+y,-x,z
x-y,-y,1/2-z
-x,-x+y,1/2-z
y,x,1/2-z
-x,-y,-z
y,-x+y,-z
x-y,x,-z
-x+y,y,1/2+z
x,x-y,1/2+z
-y,-x,1/2+z
2/3+x,1/3+y,1/3+z
2/3-y,1/3+x-y,1/3+z
2/3-x+y,1/3-x,1/3+z
2/3+x-y,1/3-y,5/6-z
2/3-x,1/3-x+y,5/6-z
2/3+y,1/3+x,5/6-z
2/3-x,1/3-y,1/3-z
2/3+y,1/3-x+y,1/3-z
2/3+x-y,1/3+x,1/3-z
2/3-x+y,1/3+y,5/6+z
2/3+x,1/3+x-y,5/6+z
2/3-y,1/3-x,5/6+z
1/3+x,2/3+y,2/3+z
1/3-y,2/3+x-y,2/3+z
1/3-x+y,2/3-x,2/3+z
1/3+x-y,2/3-y,1/6-z
1/3-x,2/3-x+y,1/6-z
1/3+y,2/3+x,1/6-z
1/3-x,2/3-y,2/3-z
1/3+y,2/3-x+y,2/3-z
1/3+x-y,2/3+x,2/3-z
1/3-x+y,2/3+y,1/6+z
1/3+x,2/3+x-y,1/6+z
1/3-y,2/3-x,1/6+z
loop_
_atom_site_type_symbol
_atom_site_label
_atom_site_fract_x
_atom_site_fract_y
_atom_site_fract_z
Si Si1 0.751740 0.174091 0.638919
Si Si2 0.546688 0.056812 0.635477
Si Si3 0.072752 0.454312 0.133559
Si Si4 0.371590 0.000000 0.250000
Si Si5 0.874633 0.604684 0.193018
Si Si6 0.036303 0.895148 0.021120
Si Si7 0.966973 0.799289 0.380950
Si Si8 0.603750 0.004525 0.162251
O O1 0.749749 0.181714 0.580227
O O2 0.813857 0.245563 0.655491
O O3 0.759329 0.109824 0.649552
O O4 0.689607 0.163652 0.671660
O O5 0.566082 0.106663 0.681817
O O6 0.574684 0.005715 0.647837
O O7 0.465219 0.012118 0.632789
O O8 0.081880 0.487220 0.080693
O O9 0.117167 0.514844 0.169271
O O10 0.092378 0.395062 0.136410
O O11 0.441980 0.069027 0.243867
O O12 0.334535 0.010882 0.294363
O O13 0.926753 0.577603 0.190420
O O14 0.024161 0.880314 0.079555
O O15 0.971296 0.879844 0.989860
#
# Coordination Sequence:
#
# PCOD8324338 Si02
#       8
#    36  36  36  18  36  36  36  36
#     4  10  21  40  64  89 128 170 222 265 330 402
#     4  11  24  39  65 100 130 175 223 268 333 411
#     4  11  22  39  61  94 133 176 217 262 328 399
#     4  12  22  38  62  94 134 180 204 264 334 402
#     4  10  21  35  59  92 129 175 211 260 320 396
#     4  12  27  46  69  93 125 170 232 287 337 396
#     4  12  23  44  66  92 130 173 217 274 336 398
#     4  12  22  37  59  93 139 169 214 271 323 395
#
# _framework density 21.469546999999999
#
# number of rings (size 3 to 8) (size 9 to 14) (size 15 to 20)
#    0.000    0.800    4.000    3.333    5.600    2.133 
#    2.400    0.000    0.000    0.000    0.000    0.000 
#    0.000    0.000    0.000    0.000    0.000    0.000 
#
# Total GULP energy -1115057.950701 kJ/mol
# GULP energy per Si atom -12389.532786 kJ/mol
# Density = 2.142068 g / cm^3
# Si number density = 21.469547 Si / 1000 Ang^3
#
#
#
# Elastic Constant Matrix: (Units=GPa)
#
#
# Indices 1 2 3 4 5 6 
#
# 1 65.2041 8.0847 40.1735 -13.3054 0.0000 0.0000
# 2 8.0847 65.2041 40.1735 13.3054 0.0000 0.0000
# 3 40.1735 40.1735 122.5933 0.0000 0.0000 0.0000
# 4 -13.3054 13.3054 0.0000 50.6910 0.0000 0.0000
# 5 0.0000 0.0000 0.0000 0.0000 50.6910 -13.3054
# 6 0.0000 0.0000 0.0000 0.0000 -13.3054 28.5597
#
#
#
# Elastic Compliance Matrix: (Units=1/GPa)
#
#
# Indices 1 2 3 4 5 6 
#
# 1 0.020621 0.000674 -0.006978 0.005235 0.000000 0.000000
# 2 0.000674 0.020621 -0.006978 -0.005235 0.000000 0.000000
# 3 -0.006978 -0.006978 0.012731 0.000000 0.000000 0.000000
# 4 0.005235 -0.005235 0.000000 0.022476 0.000000 0.000000
# 5 0.000000 0.000000 0.000000 0.000000 0.022476 0.010471
# 6 0.000000 0.000000 0.000000 0.000000 0.010471 0.039893
#
#
# Mechanical properties :
#
#
# Convention : Reuss Voigt Hill
#
# Bulk Modulus (GPa) = 36.48652 47.76277 42.12465
# Shear Modulus (GPa) = 28.65060 36.95967 32.80514
#
# Velocity S-wave (km/s) = 3.65701 4.15359 3.91318
# Velocity P-wave (km/s) = 5.90450 6.73039 6.33092
#
# Compressibility (1/GPa) = 0.02740738
#
# Stress axis : x y z
#
# Youngs Moduli (GPa) = 48.49506 48.49506 78.55081
#
# Poissons Ratio (x) = -0.03270 0.54815
# Poissons Ratio (y) = -0.03270 0.54815
# Poissons Ratio (z) = 0.33841 0.33841
#
# Static dielectric constant tensor:
#      x y z
#    x 3.737210 0.000000 0.000000 
#    y 0.000000 3.737210 0.000000 
#    z 0.000000 0.000000 4.129230 
# 
# 
# High freq. dielectric constant tensor:
#      x y z
#    x 1.819980 0.000000 0.000000 
#    y 0.000000 1.819980 0.000000 
#    z 0.000000 0.000000 1.863070 
# 
# From -- ./inp_files/7247.got.cif
#   From: 2010.03.12/outbox.cif.g09.slc.cpg/sg167_4_cif.got.tgz:7247.got - 2010.04.02 06:42:56.
