data_PCOD8324760
_publ_section_title
;
Structure prediction by ZEFSAII (Michael W. Deem and Ramdas Pophale) SiO2 
 PCOD8324760
Probable space group: P 62
;
_chemical_formula_sum "Si O2"
_cell_formula_units_Z 36
_cell_length_a 8.867254
_cell_length_b 8.867254
_cell_length_c 26.200377
_cell_angle_alpha 90.000000
_cell_angle_beta 90.000000
_cell_angle_gamma 120.000000
_cell_volume 1784.088813
_symmetry_space_group_name_H-M "P 62"
_symmetry_group_IT_number 171
_symmetry_cell_setting 'hexagonal'
loop_
_space_group_symop_operation_xyz
x,y,z
x-y,x,1/3+z
-y,x-y,2/3+z
-x,-y,z
-x+y,-x,1/3+z
y,-x+y,2/3+z
loop_
_atom_site_type_symbol
_atom_site_label
_atom_site_fract_x
_atom_site_fract_y
_atom_site_fract_z
Si Si1 0.828532 0.511860 0.302730
Si Si2 0.146929 0.951266 0.805860
Si Si3 0.856929 0.314590 0.873184
Si Si4 0.163092 0.190034 0.365395
Si Si5 0.513111 0.834779 0.864002
Si Si6 0.513204 0.831736 0.326265
O O1 0.844976 0.688053 0.322824
O O2 0.807930 0.533329 0.242581
O O3 0.671968 0.345248 0.331051
O O4 0.000000 0.500000 0.312117
O O5 0.090811 0.822106 0.853113
O O6 0.129809 0.855516 0.751996
O O7 0.343007 0.112357 0.818800
O O8 0.000000 0.000000 0.802834
O O9 0.683493 0.288403 0.843832
O O10 0.848594 0.288007 0.933561
O O11 0.000000 0.500000 0.854906
O O12 0.341656 0.181889 0.360402
O O13 0.000000 0.000000 0.356824
O O14 0.500000 0.000000 0.886165
O O15 0.500000 0.000000 0.344541
#
# Coordination Sequence:
#
# PCOD8324760 Si02
#       6
#     6   6   6   6   6   6
#     4  11  22  36  62  94 118 154 200 245 303 362
#     4  10  22  37  55  81 115 157 197 238 295 352
#     4   9  19  36  59  86 112 148 193 241 301 356
#     4  11  23  39  56  84 123 163 202 244 299 357
#     4   9  19  38  59  80 113 151 192 242 292 348
#     4  10  21  40  63  89 121 153 198 254 302 357
#
# _framework density 20.178370000000001
#
# number of rings (size 3 to 8) (size 9 to 14) (size 15 to 20)
#    0.000    2.000    0.000    4.500    0.000   10.000 
#    0.000    3.333    0.000    0.000    0.000    0.000 
#    0.000    0.000    0.000    0.000    0.000    0.000 
#
# Total GULP energy -445974.585487 kJ/mol
# GULP energy per Si atom -12388.182930 kJ/mol
# Density = 2.013244 g / cm^3
# Si number density = 20.178370 Si / 1000 Ang^3
#
#
#
# Elastic Constant Matrix: (Units=GPa)
#
#
# Indices 1 2 3 4 5 6 
#
# 1 119.3679 43.1213 32.6874 0.0000 0.0000 0.0000
# 2 43.1213 119.3679 32.6874 0.0000 0.0000 0.0000
# 3 32.6874 32.6874 47.7656 0.0000 0.0000 0.0000
# 4 0.0000 0.0000 0.0000 18.8051 0.0000 0.0000
# 5 0.0000 0.0000 0.0000 0.0000 18.8051 0.0000
# 6 0.0000 0.0000 0.0000 0.0000 0.0000 38.1233
#
#
#
# Elastic Compliance Matrix: (Units=1/GPa)
#
#
# Indices 1 2 3 4 5 6 
#
# 1 0.010804 -0.002311 -0.005812 0.000000 0.000000 0.000000
# 2 -0.002311 0.010804 -0.005812 0.000000 0.000000 0.000000
# 3 -0.005812 -0.005812 0.028890 0.000000 0.000000 0.000000
# 4 0.000000 0.000000 0.000000 0.053177 0.000000 0.000000
# 5 0.000000 0.000000 0.000000 0.000000 0.053177 0.000000
# 6 0.000000 0.000000 0.000000 0.000000 0.000000 0.026231
#
#
# Mechanical properties :
#
#
# Convention : Reuss Voigt Hill
#
# Bulk Modulus (GPa) = 44.19283 55.94370 50.06826
# Shear Modulus (GPa) = 22.88389 27.01374 24.94882
#
# Velocity S-wave (km/s) = 3.37126 3.66286 3.52008
# Velocity P-wave (km/s) = 6.09118 6.75822 6.43335
#
# Compressibility (1/GPa) = 0.02262811
#
# Stress axis : x y z
#
# Youngs Moduli (GPa) = 92.55913 92.55913 34.61436
#
# Poissons Ratio (x) = 0.21394 0.20117
# Poissons Ratio (y) = 0.21394 0.20117
# Poissons Ratio (z) = 0.53792 0.53792
#
# Static dielectric constant tensor:
#      x y z
#    x 4.034830 0.000000 0.000000 
#    y 0.000000 4.034830 0.000000 
#    z 0.000000 0.000000 3.789500 
# 
# 
# High freq. dielectric constant tensor:
#      x y z
#    x 1.797860 0.000000 0.000000 
#    y 0.000000 1.797860 0.000000 
#    z 0.000000 0.000000 1.766380 
# 
# From -- ./inp_files/5747.got.cif
#   From: 2010.03.12/outbox.cif.g09.slc.cpg/sg171_3_cif.got.tgz:5747.got - 2010.04.02 06:49:11.
