data_PCOD8324382
_publ_section_title
;
Structure prediction by ZEFSAII (Michael W. Deem and Ramdas Pophale) SiO2 
 PCOD8324382
Probable space group: R -3 C 
;
_chemical_formula_sum "Si O2"
_cell_formula_units_Z 144
_cell_length_a 18.193657
_cell_length_b 18.193657
_cell_length_c 20.997886
_cell_angle_alpha 90.000000
_cell_angle_beta 90.000000
_cell_angle_gamma 120.000000
_cell_volume 6019.303076
_symmetry_space_group_name_H-M "R -3 C "
_symmetry_group_IT_number 167
_symmetry_cell_setting 'hexagonal'
loop_
_space_group_symop_operation_xyz
x,y,z
-y,x-y,z
-x+y,-x,z
x-y,-y,1/2-z
-x,-x+y,1/2-z
y,x,1/2-z
-x,-y,-z
y,-x+y,-z
x-y,x,-z
-x+y,y,1/2+z
x,x-y,1/2+z
-y,-x,1/2+z
2/3+x,1/3+y,1/3+z
2/3-y,1/3+x-y,1/3+z
2/3-x+y,1/3-x,1/3+z
2/3+x-y,1/3-y,5/6-z
2/3-x,1/3-x+y,5/6-z
2/3+y,1/3+x,5/6-z
2/3-x,1/3-y,1/3-z
2/3+y,1/3-x+y,1/3-z
2/3+x-y,1/3+x,1/3-z
2/3-x+y,1/3+y,5/6+z
2/3+x,1/3+x-y,5/6+z
2/3-y,1/3-x,5/6+z
1/3+x,2/3+y,2/3+z
1/3-y,2/3+x-y,2/3+z
1/3-x+y,2/3-x,2/3+z
1/3+x-y,2/3-y,1/6-z
1/3-x,2/3-x+y,1/6-z
1/3+y,2/3+x,1/6-z
1/3-x,2/3-y,2/3-z
1/3+y,2/3-x+y,2/3-z
1/3+x-y,2/3+x,2/3-z
1/3-x+y,2/3+y,1/6+z
1/3+x,2/3+x-y,1/6+z
1/3-y,2/3-x,1/6+z
loop_
_atom_site_type_symbol
_atom_site_label
_atom_site_fract_x
_atom_site_fract_y
_atom_site_fract_z
Si Si1 0.091258 0.666667 0.416667
Si Si2 0.172011 0.028544 0.474742
Si Si3 0.906758 0.000000 0.250000
Si Si4 0.332957 0.305269 0.512008
Si Si5 0.212394 0.764256 0.007400
O O1 0.175252 0.743232 0.447019
O O2 0.019708 0.628232 0.471772
O O3 0.255701 0.025218 0.494777
O O4 0.090264 0.933739 0.478674
O O5 0.187033 0.062894 0.402825
O O6 0.861390 0.005546 0.314932
O O7 0.000000 0.084272 0.250000
O O8 0.365329 0.333334 0.583334
O O9 0.365021 0.244108 0.481704
#
# Coordination Sequence:
#
# PCOD8324382 Si02
#       5
#    18  36  18  36  36
#     4  12  25  48  78 107 152 206 254 320 394 475
#     4  12  29  50  79 113 161 210 264 326 404 481
#     4  10  23  42  70 109 146 192 252 330 372 451
#     4  12  26  49  76 113 160 200 257 331 402 471
#     4  12  26  49  78 114 150 204 269 327 393 475
#
# _framework density 23.923034999999999
#
# number of rings (size 3 to 8) (size 9 to 14) (size 15 to 20)
#    0.250    0.000    5.000    3.250    3.500    1.000 
#    4.500    0.000    0.000    0.000    0.000    0.000 
#    0.000    0.000    0.000    0.000    0.000    0.000 
#
# Total GULP energy -594967.493622 kJ/mol
# GULP energy per Si atom -12395.156117 kJ/mol
# Density = 2.386859 g / cm^3
# Si number density = 23.923035 Si / 1000 Ang^3
#
#
#
# Elastic Constant Matrix: (Units=GPa)
#
#
# Indices 1 2 3 4 5 6 
#
# 1 119.8964 48.4815 62.3977 9.4204 -0.0001 0.0000
# 2 48.4815 119.8964 62.3977 -9.4204 0.0001 0.0000
# 3 62.3977 62.3977 165.3635 0.0000 0.0000 0.0000
# 4 9.4204 -9.4204 0.0000 45.6666 0.0000 0.0001
# 5 -0.0001 0.0001 0.0000 0.0000 45.6666 9.4204
# 6 0.0000 0.0000 0.0000 0.0001 9.4204 35.7074
#
#
#
# Elastic Compliance Matrix: (Units=1/GPa)
#
#
# Indices 1 2 3 4 5 6 
#
# 1 0.011527 -0.003282 -0.003111 -0.003055 0.000000 0.000000
# 2 -0.003282 0.011527 -0.003111 0.003055 0.000000 0.000000
# 3 -0.003111 -0.003111 0.008395 0.000000 0.000000 0.000000
# 4 -0.003055 0.003055 0.000000 0.023158 0.000000 0.000000
# 5 0.000000 0.000000 0.000000 0.000000 0.023158 -0.006110
# 6 0.000000 0.000000 0.000000 0.000000 -0.006110 0.029617
#
#
# Mechanical properties :
#
#
# Convention : Reuss Voigt Hill
#
# Bulk Modulus (GPa) = 80.38270 83.52336 81.95303
# Shear Modulus (GPa) = 38.30329 40.86675 39.58502
#
# Velocity S-wave (km/s) = 4.00572 4.13759 4.07219
# Velocity P-wave (km/s) = 7.42077 7.60364 7.51277
#
# Compressibility (1/GPa) = 0.01244049
#
# Stress axis : x y z
#
# Youngs Moduli (GPa) = 86.75486 86.75486 119.11657
#
# Poissons Ratio (x) = 0.28472 0.37058
# Poissons Ratio (y) = 0.28472 0.37058
# Poissons Ratio (z) = 0.26990 0.26990
#
# Static dielectric constant tensor:
#      x y z
#    x 4.473370 0.000000 0.000000 
#    y 0.000000 4.473370 0.000000 
#    z 0.000000 0.000000 4.268130 
# 
# 
# High freq. dielectric constant tensor:
#      x y z
#    x 1.957450 0.000000 0.000000 
#    y 0.000000 1.957450 0.000000 
#    z 0.000000 0.000000 1.950100 
# 
# From -- ./inp_files/4358.got.cif
#   From: 2010.03.12/outbox.cif.g09.slc.cpg/sg167_3_cif.got.tgz:4358.got - 2010.04.02 06:42:56.
