data_PCOD8324981
_publ_section_title
;
Structure prediction by ZEFSAII (Michael W. Deem and Ramdas Pophale) SiO2 
 PCOD8324981
Probable space group: P -6
;
_chemical_formula_sum "Si O2"
_cell_formula_units_Z 42
_cell_length_a 8.600044
_cell_length_b 8.600044
_cell_length_c 32.060188
_cell_angle_alpha 90.000000
_cell_angle_beta 90.000000
_cell_angle_gamma 120.000000
_cell_volume 2053.515772
_symmetry_space_group_name_H-M "P -6"
_symmetry_group_IT_number 174
_symmetry_cell_setting 'hexagonal'
loop_
_space_group_symop_operation_xyz
x,y,z
-x+y,-x,-z
-y,x-y,z
x,y,-z
-x+y,-x,z
-y,x-y,-z
loop_
_atom_site_type_symbol
_atom_site_label
_atom_site_fract_x
_atom_site_fract_y
_atom_site_fract_z
Si Si1 0.332871 0.345265 0.701873
Si Si2 0.682294 0.667654 0.330803
Si Si3 0.336138 0.015981 0.830906
Si Si4 0.822066 0.784545 0.000000
Si Si5 0.215528 0.037545 0.500000
Si Si6 0.451028 0.154890 0.079781
Si Si7 0.657368 0.986510 0.201659
Si Si8 0.845612 0.296543 0.420164
O O1 0.141451 0.275240 0.680142
O O2 0.477187 0.527104 0.679664
O O3 0.323163 0.386271 0.750126
O O4 0.385308 0.191322 0.696570
O O5 0.723825 0.664650 0.379427
O O6 0.334693 0.060186 0.879437
O O7 0.279935 0.137351 0.803719
O O8 0.532494 0.058205 0.817215
O O9 0.191648 0.809551 0.823034
O O10 0.721801 0.669035 0.040300
O O11 0.033666 0.842287 0.000000
O O12 0.033671 0.842297 0.500000
O O13 0.331548 0.052946 0.540223
O O14 0.633588 0.142236 0.079057
O O15 0.857386 0.491422 0.420623
#
# Coordination Sequence:
#
# PCOD8324981 Si02
#       8
#     6   6   6   3   3   6   6   6
#     4  12  24  42  64  95 136 179 235 295 353 415
#     4  12  25  43  67  99 133 186 235 289 355 419
#     4  12  25  43  67  99 133 186 235 289 355 419
#     4  10  24  36  68 106 130 168 220 284 332 410
#     4  10  24  36  68 106 130 168 220 284 332 410
#     4  10  21  44  68  96 132 183 221 273 348 414
#     4  12  24  42  64  95 136 179 235 295 353 415
#     4  10  21  44  68  96 132 183 221 273 348 414
#
# _framework density 20.452726999999999
#
# number of rings (size 3 to 8) (size 9 to 14) (size 15 to 20)
#    0.857    0.000    2.857    5.143    4.000    0.000 
#    0.000    0.000    0.000    4.571    0.000    0.000 
#    0.000    0.000    0.000    0.000    0.000    0.000 
#
# Total GULP energy -520954.449274 kJ/mol
# GULP energy per Si atom -12403.677364 kJ/mol
# Density = 2.040618 g / cm^3
# Si number density = 20.452727 Si / 1000 Ang^3
#
#
#
# Elastic Constant Matrix: (Units=GPa)
#
#
# Indices 1 2 3 4 5 6 
#
# 1 82.2472 10.3991 50.1206 0.0000 0.0000 0.0000
# 2 10.3991 82.2472 50.1206 0.0000 0.0000 0.0000
# 3 50.1206 50.1206 186.1087 0.0000 0.0000 0.0000
# 4 0.0000 0.0000 0.0000 32.5943 0.0000 0.0000
# 5 0.0000 0.0000 0.0000 0.0000 32.5943 0.0000
# 6 0.0000 0.0000 0.0000 0.0000 0.0000 35.9240
#
#
#
# Elastic Compliance Matrix: (Units=1/GPa)
#
#
# Indices 1 2 3 4 5 6 
#
# 1 0.014575 0.000657 -0.004102 0.000000 0.000000 0.000000
# 2 0.000657 0.014575 -0.004102 0.000000 0.000000 0.000000
# 3 -0.004102 -0.004102 0.007583 0.000000 0.000000 0.000000
# 4 0.000000 0.000000 0.000000 0.030680 0.000000 0.000000
# 5 0.000000 0.000000 0.000000 0.000000 0.030680 0.000000
# 6 0.000000 0.000000 0.000000 0.000000 0.000000 0.027837
#
#
# Mechanical properties :
#
#
# Convention : Reuss Voigt Hill
#
# Bulk Modulus (GPa) = 46.21402 63.54264 54.87833
# Shear Modulus (GPa) = 33.72965 36.22005 34.97485
#
# Velocity S-wave (km/s) = 4.06538 4.21279 4.13974
# Velocity P-wave (km/s) = 6.68439 7.40263 7.05266
#
# Compressibility (1/GPa) = 0.02163845
#
# Stress axis : x y z
#
# Youngs Moduli (GPa) = 68.60957 68.60957 131.87924
#
# Poissons Ratio (x) = -0.04507 0.54099
# Poissons Ratio (y) = -0.04507 0.54099
# Poissons Ratio (z) = 0.28145 0.28145
#
# Static dielectric constant tensor:
#      x y z
#    x 3.540170 0.000000 0.000000 
#    y 0.000000 3.540170 0.000000 
#    z 0.000000 0.000000 3.639280 
# 
# 
# High freq. dielectric constant tensor:
#      x y z
#    x 1.792940 0.000000 0.000000 
#    y 0.000000 1.792940 0.000000 
#    z 0.000000 0.000000 1.810040 
# 
# From -- ./inp_files/1108.got.cif
#   From: 2010.03.12/outbox.cif.g09.slc.cpg/sg174_cif.got.tgz:1108.got - 2010.04.02 06:54:58.
