data_PCOD8324715
_publ_section_title
;
Structure prediction by ZEFSAII (Michael W. Deem and Ramdas Pophale) SiO2 
 PCOD8324715
Probable space group: P 65
;
_chemical_formula_sum "Si O2"
_cell_formula_units_Z 48
_cell_length_a 12.236856
_cell_length_b 12.236856
_cell_length_c 15.888631
_cell_angle_alpha 90.000000
_cell_angle_beta 90.000000
_cell_angle_gamma 120.000000
_cell_volume 2060.424994
_symmetry_space_group_name_H-M "P 65"
_symmetry_group_IT_number 170
_symmetry_cell_setting 'hexagonal'
loop_
_space_group_symop_operation_xyz
x,y,z
x-y,x,5/6+z
-y,x-y,2/3+z
-x,-y,1/2+z
-x+y,-x,1/3+z
y,-x+y,1/6+z
loop_
_atom_site_type_symbol
_atom_site_label
_atom_site_fract_x
_atom_site_fract_y
_atom_site_fract_z
Si Si1 0.727486 0.695350 0.203050
Si Si2 0.413456 0.685740 0.092125
Si Si3 0.168048 0.370941 0.961657
Si Si4 0.285785 0.858374 0.597726
Si Si5 0.413899 0.100789 0.301359
Si Si6 0.638405 0.478703 0.323971
Si Si7 0.994809 0.892939 0.242345
Si Si8 0.632538 0.890027 0.189817
O O1 0.644426 0.597721 0.276092
O O2 0.707751 0.814287 0.191180
O O3 0.691869 0.616028 0.117538
O O4 0.874527 0.753813 0.227340
O O5 0.411655 0.564129 0.134563
O O6 0.271021 0.662194 0.091227
O O7 0.495442 0.806550 0.150156
O O8 0.472713 0.708397 0.999728
O O9 0.260640 0.479602 0.898757
O O10 0.117799 0.236380 0.918402
O O11 0.049628 0.391517 0.978104
O O12 0.236839 0.377009 0.047805
O O13 0.155285 0.781817 0.547149
O O14 0.400828 0.900612 0.531960
O O15 0.289567 0.980598 0.637410
O O16 0.976196 0.960389 0.324478
#
# Coordination Sequence:
#
# PCOD8324715 Si02
#       8
#     6   6   6   6   6   6   6   6
#     4  12  25  46  77 112 146 195 258 310 384 451
#     4  11  27  47  72 105 149 196 246 307 375 445
#     4  12  23  46  73 108 144 193 248 309 375 447
#     4  11  27  51  68 110 152 192 245 305 382 455
#     4  11  27  44  72 107 144 190 250 301 376 448
#     4  11  26  47  78 105 146 195 253 314 370 450
#     4  12  24  44  70 112 149 192 255 317 380 457
#     4  12  27  47  74 109 154 197 247 311 380 459
#
# _framework density 23.296164000000001
#
# number of rings (size 3 to 8) (size 9 to 14) (size 15 to 20)
#    0.000    0.500    6.250    0.000    7.000    5.000 
#    0.000    0.000    0.000    0.000    0.000    0.000 
#    0.000    0.000    0.000    0.000    0.000    0.000 
#
# Total GULP energy -595341.693302 kJ/mol
# GULP energy per Si atom -12402.951944 kJ/mol
# Density = 2.324314 g / cm^3
# Si number density = 23.296164 Si / 1000 Ang^3
#
#
#
# Elastic Constant Matrix: (Units=GPa)
#
#
# Indices 1 2 3 4 5 6 
#
# 1 73.0755 19.9298 31.4541 0.0000 0.0000 0.0000
# 2 19.9298 73.0755 31.4541 0.0000 0.0000 0.0000
# 3 31.4541 31.4541 135.8846 0.0000 0.0000 0.0000
# 4 0.0000 0.0000 0.0000 35.7614 0.0000 0.0000
# 5 0.0000 0.0000 0.0000 0.0000 35.7614 0.0000
# 6 0.0000 0.0000 0.0000 0.0000 0.0000 26.5728
#
#
#
# Elastic Compliance Matrix: (Units=1/GPa)
#
#
# Indices 1 2 3 4 5 6 
#
# 1 0.015782 -0.003034 -0.002951 0.000000 0.000000 0.000000
# 2 -0.003034 0.015782 -0.002951 0.000000 0.000000 0.000000
# 3 -0.002951 -0.002951 0.008725 0.000000 0.000000 0.000000
# 4 0.000000 0.000000 0.000000 0.027963 0.000000 0.000000
# 5 0.000000 0.000000 0.000000 0.000000 0.027963 0.000000
# 6 0.000000 0.000000 0.000000 0.000000 0.000000 0.037632
#
#
# Mechanical properties :
#
#
# Convention : Reuss Voigt Hill
#
# Bulk Modulus (GPa) = 44.60726 49.74571 47.17648
# Shear Modulus (GPa) = 31.40853 32.89898 32.15376
#
# Velocity S-wave (km/s) = 3.67581 3.76201 3.71916
# Velocity P-wave (km/s) = 6.09958 6.34588 6.22395
#
# Compressibility (1/GPa) = 0.02241788
#
# Stress axis : x y z
#
# Youngs Moduli (GPa) = 63.36286 63.36286 114.60926
#
# Poissons Ratio (x) = 0.19225 0.33820
# Poissons Ratio (y) = 0.19225 0.33820
# Poissons Ratio (z) = 0.18698 0.18698
#
# Static dielectric constant tensor:
#      x y z
#    x 4.147330 0.000000 0.000000 
#    y 0.000000 4.147330 0.000000 
#    z 0.000000 0.000000 4.496560 
# 
# 
# High freq. dielectric constant tensor:
#      x y z
#    x 1.914340 0.000000 0.000000 
#    y 0.000000 1.914340 0.000000 
#    z 0.000000 0.000000 1.941720 
# 
# From -- ./inp_files/1444.got.cif
#   From: 2010.03.12/outbox.cif.g09.slc.cpg/sg170_cif.got.tgz:1444.got - 2010.04.02 06:47:37.
