data_PCOD8324524
_publ_section_title
;
Structure prediction by ZEFSAII (Michael W. Deem and Ramdas Pophale) SiO2 
 PCOD8324524
Probable space group: P 61
;
_chemical_formula_sum "Si O2"
_cell_formula_units_Z 30
_cell_length_a 11.930483
_cell_length_b 11.930483
_cell_length_c 11.251087
_cell_angle_alpha 90.000000
_cell_angle_beta 90.000000
_cell_angle_gamma 120.000000
_cell_volume 1386.887287
_symmetry_space_group_name_H-M "P 61"
_symmetry_group_IT_number 169
_symmetry_cell_setting 'hexagonal'
loop_
_space_group_symop_operation_xyz
x,y,z
x-y,x,1/6+z
-y,x-y,1/3+z
-x,-y,1/2+z
-x+y,-x,2/3+z
y,-x+y,5/6+z
loop_
_atom_site_type_symbol
_atom_site_label
_atom_site_fract_x
_atom_site_fract_y
_atom_site_fract_z
Si Si1 0.889659 0.373014 0.849140
Si Si2 0.498877 0.865828 0.530630
Si Si3 0.035141 0.820792 0.442779
Si Si4 0.262124 0.677746 0.111811
Si Si5 0.223425 0.073796 0.978404
O O1 0.888360 0.255248 0.918605
O O2 0.813020 0.318130 0.727042
O O3 0.819296 0.431907 0.929170
O O4 0.036225 0.486028 0.824666
O O5 0.425630 0.736383 0.453255
O O6 0.473386 0.835797 0.669481
O O7 0.650815 0.936244 0.504266
O O8 0.965345 0.829374 0.322647
O O9 0.928191 0.744951 0.545057
O O10 0.110205 0.934899 0.931995
#
# Coordination Sequence:
#
# PCOD8324524 Si02
#       5
#     6   6   6   6   6
#     4  11  23  41  64  93 127 164 206 260 315 369
#     4  11  22  41  65  89 125 166 205 257 314 371
#     4  10  22  42  66  92 126 169 209 255 311 371
#     4  10  24  40  61  96 123 159 213 257 305 374
#     4  10  21  40  62  88 121 166 211 255 311 369
#
# _framework density 21.631174000000001
#
# number of rings (size 3 to 8) (size 9 to 14) (size 15 to 20)
#    0.000    1.600    0.000    4.800    0.000   11.200 
#    0.000   22.000    0.000    0.000    0.000    0.000 
#    0.000    0.000    0.000    0.000    0.000    0.000 
#
# Total GULP energy -372137.328933 kJ/mol
# GULP energy per Si atom -12404.577631 kJ/mol
# Density = 2.158194 g / cm^3
# Si number density = 21.631174 Si / 1000 Ang^3
#
#
#
# Elastic Constant Matrix: (Units=GPa)
#
#
# Indices 1 2 3 4 5 6 
#
# 1 94.3108 22.6704 40.2032 0.0000 0.0000 0.0000
# 2 22.6704 94.3108 40.2032 0.0000 0.0000 0.0000
# 3 40.2032 40.2032 88.7020 0.0000 0.0000 0.0000
# 4 0.0000 0.0000 0.0000 35.8406 0.0000 0.0000
# 5 0.0000 0.0000 0.0000 0.0000 35.8406 0.0000
# 6 0.0000 0.0000 0.0000 0.0000 0.0000 35.8202
#
#
#
# Elastic Compliance Matrix: (Units=1/GPa)
#
#
# Indices 1 2 3 4 5 6 
#
# 1 0.013188 -0.000771 -0.005628 0.000000 0.000000 0.000000
# 2 -0.000771 0.013188 -0.005628 0.000000 0.000000 0.000000
# 3 -0.005628 -0.005628 0.016375 0.000000 0.000000 0.000000
# 4 0.000000 0.000000 0.000000 0.027901 0.000000 0.000000
# 5 0.000000 0.000000 0.000000 0.000000 0.027901 0.000000
# 6 0.000000 0.000000 0.000000 0.000000 0.000000 0.027917
#
#
# Mechanical properties :
#
#
# Convention : Reuss Voigt Hill
#
# Bulk Modulus (GPa) = 53.48315 53.71969 53.60142
# Shear Modulus (GPa) = 31.89687 33.11674 32.50681
#
# Velocity S-wave (km/s) = 3.84419 3.91701 3.88077
# Velocity P-wave (km/s) = 6.66952 6.73391 6.70179
#
# Compressibility (1/GPa) = 0.01869748
#
# Stress axis : x y z
#
# Youngs Moduli (GPa) = 75.82900 75.82900 61.06848
#
# Poissons Ratio (x) = 0.05847 0.34367
# Poissons Ratio (y) = 0.05847 0.34367
# Poissons Ratio (z) = 0.42674 0.42674
#
# Static dielectric constant tensor:
#      x y z
#    x 3.913890 0.000000 0.000000 
#    y 0.000000 3.913890 0.000000 
#    z 0.000000 0.000000 3.890760 
# 
# 
# High freq. dielectric constant tensor:
#      x y z
#    x 1.852180 0.000000 0.000000 
#    y 0.000000 1.852180 0.000000 
#    z 0.000000 0.000000 1.846020 
# 
# From -- ./inp_files/877.got.cif
#   From: 2010.03.12/outbox.cif.g09.slc.cpg/sg169_cif.got.tgz:877.got - 2010.04.02 06:46:06.
