data_PCOD8324974
_publ_section_title
;
Structure prediction by ZEFSAII (Michael W. Deem and Ramdas Pophale) SiO2 
 PCOD8324974
Probable space group: P -6
;
_chemical_formula_sum "Si O2"
_cell_formula_units_Z 48
_cell_length_a 17.684895
_cell_length_b 17.684895
_cell_length_c 9.135244
_cell_angle_alpha 90.000000
_cell_angle_beta 90.000000
_cell_angle_gamma 120.000000
_cell_volume 2474.319368
_symmetry_space_group_name_H-M "P -6"
_symmetry_group_IT_number 174
_symmetry_cell_setting 'hexagonal'
loop_
_space_group_symop_operation_xyz
x,y,z
-x+y,-x,-z
-y,x-y,z
x,y,-z
-x+y,-x,z
-y,x-y,-z
loop_
_atom_site_type_symbol
_atom_site_label
_atom_site_fract_x
_atom_site_fract_y
_atom_site_fract_z
Si Si1 0.826800 0.776638 0.331893
Si Si2 0.422489 0.128037 0.331912
Si Si3 0.713822 0.160306 0.832703
Si Si4 0.241382 0.205746 0.167000
Si Si5 0.455215 0.867067 0.829350
Si Si6 0.533914 0.744980 0.170911
Si Si7 0.539676 0.046623 0.671041
Si Si8 0.710496 0.857914 0.671639
O O1 0.856005 0.784296 0.500000
O O2 0.750235 0.679461 0.294787
O O3 0.912254 0.803776 0.234324
O O4 0.790359 0.841163 0.295500
O O5 0.438519 0.158711 0.500000
O O6 0.468195 0.214675 0.232730
O O7 0.462020 0.066219 0.295797
O O8 0.748555 0.093027 0.817715
O O9 0.625904 0.124970 0.741505
O O10 0.695941 0.173615 0.000000
O O11 0.215552 0.267357 0.254566
O O12 0.210856 0.198415 0.000000
O O13 0.484830 0.797696 0.788538
O O14 0.354842 0.825673 0.783082
O O15 0.516109 0.954711 0.741065
O O16 0.468835 0.890775 0.000000
O O17 0.622088 0.780032 0.262195
O O18 0.557256 0.753879 0.000000
O O19 0.555742 0.042519 0.500000
O O20 0.696607 0.862587 0.500000
#
# Coordination Sequence:
#
# PCOD8324974 Si02
#       8
#     6   6   6   6   6   6   6   6
#     4   9  19  37  58  79 106 141 180 223 274 330
#     4   9  19  37  58  79 106 141 180 223 274 330
#     4  10  21  37  57  81 109 142 182 227 275 327
#     4  10  21  37  57  81 109 142 182 227 275 327
#     4  10  21  37  57  82 115 155 197 240 285 333
#     4  10  21  37  57  82 115 155 197 240 285 333
#     4  11  22  36  57  85 114 147 186 229 279 339
#     4  11  22  36  57  85 114 147 186 229 279 339
#
# _framework density 19.399272
#
# number of rings (size 3 to 8) (size 9 to 14) (size 15 to 20)
#    0.000    2.000    0.000    3.250    0.000    9.500 
#    1.500    2.500    0.000    1.500    0.000    0.000 
#    0.000    0.000    0.000    0.000    0.000    0.000 
#
# Total GULP energy -595445.979905 kJ/mol
# GULP energy per Si atom -12405.124581 kJ/mol
# Density = 1.935512 g / cm^3
# Si number density = 19.399272 Si / 1000 Ang^3
#
#
#
# Elastic Constant Matrix: (Units=GPa)
#
#
# Indices 1 2 3 4 5 6 
#
# 1 55.8047 4.3182 29.7113 0.0000 0.0000 0.0000
# 2 4.3182 55.8047 29.7113 0.0000 0.0000 0.0000
# 3 29.7113 29.7113 82.4251 0.0000 0.0000 0.0000
# 4 0.0000 0.0000 0.0000 30.0078 0.0000 0.0000
# 5 0.0000 0.0000 0.0000 0.0000 30.0078 0.0000
# 6 0.0000 0.0000 0.0000 0.0000 0.0000 25.7433
#
#
#
# Elastic Compliance Matrix: (Units=1/GPa)
#
#
# Indices 1 2 3 4 5 6 
#
# 1 0.022630 0.003208 -0.009314 0.000000 0.000000 0.000000
# 2 0.003208 0.022630 -0.009314 0.000000 0.000000 0.000000
# 3 -0.009314 -0.009314 0.018847 0.000000 0.000000 0.000000
# 4 0.000000 0.000000 0.000000 0.033325 0.000000 0.000000
# 5 0.000000 0.000000 0.000000 0.000000 0.033325 0.000000
# 6 0.000000 0.000000 0.000000 0.000000 0.000000 0.038845
#
#
# Mechanical properties :
#
#
# Convention : Reuss Voigt Hill
#
# Bulk Modulus (GPa) = 30.05914 35.72400 32.89157
# Shear Modulus (GPa) = 23.63736 25.83804 24.73770
#
# Velocity S-wave (km/s) = 3.49444 3.65349 3.57485
# Velocity P-wave (km/s) = 5.64005 6.02100 5.83363
#
# Compressibility (1/GPa) = 0.03326775
#
# Stress axis : x y z
#
# Youngs Moduli (GPa) = 44.18892 44.18892 53.05985
#
# Poissons Ratio (x) = -0.14174 0.49418
# Poissons Ratio (y) = -0.14174 0.49418
# Poissons Ratio (z) = 0.41156 0.41156
#
# Static dielectric constant tensor:
#      x y z
#    x 3.536230 0.000000 0.000000 
#    y 0.000000 3.536230 0.000000 
#    z 0.000000 0.000000 3.589930 
# 
# 
# High freq. dielectric constant tensor:
#      x y z
#    x 1.756190 0.000000 0.000000 
#    y 0.000000 1.756190 0.000000 
#    z 0.000000 0.000000 1.758470 
# 
# From -- ./inp_files/523.got.cif
#   From: 2010.03.12/outbox.cif.g09.slc.cpg/sg174_cif.got.tgz:523.got - 2010.04.02 06:54:58.
