data_PCOD8324868
_publ_section_title
;
Structure prediction by ZEFSAII (Michael W. Deem and Ramdas Pophale) SiO2 
 PCOD8324868
Probable space group: P 63
;
_chemical_formula_sum "Si O2"
_cell_formula_units_Z 16
_cell_length_a 6.838600
_cell_length_b 6.838600
_cell_length_c 18.912246
_cell_angle_alpha 90.000000
_cell_angle_beta 90.000000
_cell_angle_gamma 120.000000
_cell_volume 765.963622
_symmetry_space_group_name_H-M "P 63"
_symmetry_group_IT_number 173
_symmetry_cell_setting 'hexagonal'
loop_
_space_group_symop_operation_xyz
x,y,z
x-y,x,1/2+z
-y,x-y,z
-x,-y,1/2+z
-x+y,-x,z
y,-x+y,1/2+z
loop_
_atom_site_type_symbol
_atom_site_label
_atom_site_fract_x
_atom_site_fract_y
_atom_site_fract_z
Si Si1 0.124118 0.735139 0.020710
Si Si2 0.875882 0.611021 0.159806
Si Si3 0.000000 0.000000 0.423678
Si Si4 0.000000 0.000000 0.756838
O O1 0.085898 0.480805 0.019116
O O2 1.000000 0.759539 0.090258
O O3 0.015052 0.785274 0.952601
O O4 0.605093 0.519195 0.161400
O O5 0.984949 0.770222 0.227915
O O6 0.000000 0.000000 0.340258
#
# Coordination Sequence:
#
# PCOD8324868 Si02
#       4
#     6   6   2   2
#     4  10  22  41  69  91 123 159 215 268 311 363
#     4  10  22  41  69  91 123 159 215 268 311 363
#     4  12  25  41  58  90 136 170 202 252 316 389
#     4  12  25  41  58  90 136 170 202 252 316 389
#
# _framework density 20.888718999999998
#
# number of rings (size 3 to 8) (size 9 to 14) (size 15 to 20)
#    1.500    0.000    0.000    6.750    0.000    3.000 
#    4.500    0.000    0.000    0.000    0.000    0.000 
#    0.000    0.000    0.000    0.000    0.000    0.000 
#
# Total GULP energy -198237.574085 kJ/mol
# GULP energy per Si atom -12389.848380 kJ/mol
# Density = 2.084118 g / cm^3
# Si number density = 20.888719 Si / 1000 Ang^3
#
#
#
# Elastic Constant Matrix: (Units=GPa)
#
#
# Indices 1 2 3 4 5 6 
#
# 1 102.5658 44.8940 69.4295 0.0000 0.0000 0.0000
# 2 44.8940 102.5658 69.4295 0.0000 0.0000 0.0000
# 3 69.4295 69.4295 225.3991 0.0000 0.0000 0.0000
# 4 0.0000 0.0000 0.0000 19.6465 0.0000 0.0000
# 5 0.0000 0.0000 0.0000 0.0000 19.6465 0.0000
# 6 0.0000 0.0000 0.0000 0.0000 0.0000 28.8359
#
#
#
# Elastic Compliance Matrix: (Units=1/GPa)
#
#
# Indices 1 2 3 4 5 6 
#
# 1 0.013446 -0.003894 -0.002942 0.000000 0.000000 0.000000
# 2 -0.003894 0.013446 -0.002942 0.000000 0.000000 0.000000
# 3 -0.002942 -0.002942 0.006249 0.000000 0.000000 0.000000
# 4 0.000000 0.000000 0.000000 0.050900 0.000000 0.000000
# 5 0.000000 0.000000 0.000000 0.000000 0.050900 0.000000
# 6 0.000000 0.000000 0.000000 0.000000 0.000000 0.034679
#
#
# Mechanical properties :
#
#
# Convention : Reuss Voigt Hill
#
# Bulk Modulus (GPa) = 73.61452 88.67075 81.14264
# Shear Modulus (GPa) = 25.81256 30.07763 27.94510
#
# Velocity S-wave (km/s) = 3.51909 3.79872 3.66157
# Velocity P-wave (km/s) = 7.19929 7.86013 7.53695
#
# Compressibility (1/GPa) = 0.01358428
#
# Stress axis : x y z
#
# Youngs Moduli (GPa) = 74.37225 74.37225 160.01919
#
# Poissons Ratio (x) = 0.28958 0.47084
# Poissons Ratio (y) = 0.28958 0.47084
# Poissons Ratio (z) = 0.21883 0.21883
#
# Static dielectric constant tensor:
#      x y z
#    x 3.662550 0.000000 0.000000 
#    y 0.000000 3.662550 0.000000 
#    z 0.000000 0.000000 3.261100 
# 
# 
# High freq. dielectric constant tensor:
#      x y z
#    x 1.821070 0.000000 0.000000 
#    y 0.000000 1.821070 0.000000 
#    z 0.000000 0.000000 1.777680 
# 
# From -- ./inp_files/1172.got.cif
#   From: 2010.03.12/outbox.cif.g09.slc.cpg/sg173_cif.got.tgz:1172.got - 2010.04.02 06:54:12.
