data_PCOD8324518
_publ_section_title
;
Structure prediction by ZEFSAII (Michael W. Deem and Ramdas Pophale) SiO2 
 PCOD8324518
Probable space group: P 61
;
_chemical_formula_sum "Si O2"
_cell_formula_units_Z 36
_cell_length_a 8.998462
_cell_length_b 8.998462
_cell_length_c 23.974615
_cell_angle_alpha 90.000000
_cell_angle_beta 90.000000
_cell_angle_gamma 120.000000
_cell_volume 1681.197933
_symmetry_space_group_name_H-M "P 61"
_symmetry_group_IT_number 169
_symmetry_cell_setting 'hexagonal'
loop_
_space_group_symop_operation_xyz
x,y,z
x-y,x,1/6+z
-y,x-y,1/3+z
-x,-y,1/2+z
-x+y,-x,2/3+z
y,-x+y,5/6+z
loop_
_atom_site_type_symbol
_atom_site_label
_atom_site_fract_x
_atom_site_fract_y
_atom_site_fract_z
Si Si1 0.374460 0.363435 0.198280
Si Si2 0.502102 0.225840 0.373599
Si Si3 0.433614 0.086204 0.249555
Si Si4 0.343494 0.260959 0.854211
Si Si5 0.359292 0.302115 0.077986
Si Si6 0.275642 0.848741 0.558619
O O1 0.423562 0.220153 0.209192
O O2 0.290120 0.323917 0.137144
O O3 0.236442 0.359869 0.241604
O O4 0.551255 0.548193 0.200034
O O5 0.436492 0.148484 0.312291
O O6 0.366644 0.264806 0.405821
O O7 0.536142 0.088147 0.405234
O O8 0.678078 0.404188 0.371351
O O9 0.606846 0.087353 0.232095
O O10 0.410095 0.295860 0.791247
O O11 0.168520 0.270642 0.864792
O O12 0.303290 0.069286 0.864636
#
# Coordination Sequence:
#
# PCOD8324518 Si02
#       6
#     6   6   6   6   6   6
#     4  11  22  39  61  90 126 166 209 263 332 401
#     4  10  21  38  61  92 124 167 215 268 336 405
#     4  11  21  39  64  90 124 167 219 273 326 402
#     4  11  21  39  64  90 124 167 219 273 326 402
#     4  11  22  39  61  90 126 166 209 263 332 401
#     4  10  21  38  61  92 124 167 215 268 336 405
#
# _framework density 21.413301000000001
#
# number of rings (size 3 to 8) (size 9 to 14) (size 15 to 20)
#    0.000    1.333    0.000   10.000    0.000    0.000 
#    0.000    6.667    0.000    0.000    0.000    0.000 
#    0.000    0.000    0.000    0.000    0.000    0.000 
#
# Total GULP energy -446173.638273 kJ/mol
# GULP energy per Si atom -12393.712174 kJ/mol
# Density = 2.136456 g / cm^3
# Si number density = 21.413301 Si / 1000 Ang^3
#
#
#
# Elastic Constant Matrix: (Units=GPa)
#
#
# Indices 1 2 3 4 5 6 
#
# 1 107.8999 42.3202 17.2963 0.0000 0.0000 0.0000
# 2 42.3202 107.8999 17.2963 0.0000 0.0000 0.0000
# 3 17.2963 17.2963 99.4182 0.0000 0.0000 0.0000
# 4 0.0000 0.0000 0.0000 31.0707 0.0000 0.0000
# 5 0.0000 0.0000 0.0000 0.0000 31.0707 0.0000
# 6 0.0000 0.0000 0.0000 0.0000 0.0000 32.7899
#
#
#
# Elastic Compliance Matrix: (Units=1/GPa)
#
#
# Indices 1 2 3 4 5 6 
#
# 1 0.011092 -0.004157 -0.001206 0.000000 0.000000 0.000000
# 2 -0.004157 0.011092 -0.001206 0.000000 0.000000 0.000000
# 3 -0.001206 -0.001206 0.010478 0.000000 0.000000 0.000000
# 4 0.000000 0.000000 0.000000 0.032185 0.000000 0.000000
# 5 0.000000 0.000000 0.000000 0.000000 0.032185 0.000000
# 6 0.000000 0.000000 0.000000 0.000000 0.000000 0.030497
#
#
# Mechanical properties :
#
#
# Convention : Reuss Voigt Hill
#
# Bulk Modulus (GPa) = 51.22454 52.11592 51.67023
# Shear Modulus (GPa) = 33.97309 34.87326 34.42317
#
# Velocity S-wave (km/s) = 3.98746 4.03994 4.01379
# Velocity P-wave (km/s) = 6.72113 6.79356 6.75744
#
# Compressibility (1/GPa) = 0.01952189
#
# Stress axis : x y z
#
# Youngs Moduli (GPa) = 90.15774 90.15774 95.43521
#
# Poissons Ratio (x) = 0.37478 0.11514
# Poissons Ratio (y) = 0.37478 0.11514
# Poissons Ratio (z) = 0.10877 0.10877
#
# Static dielectric constant tensor:
#      x y z
#    x 4.085160 0.000000 0.000000 
#    y 0.000000 4.085160 0.000000 
#    z 0.000000 0.000000 3.809540 
# 
# 
# High freq. dielectric constant tensor:
#      x y z
#    x 1.834850 0.000000 0.000000 
#    y 0.000000 1.834850 0.000000 
#    z 0.000000 0.000000 1.845680 
# 
# From -- ./inp_files/1721.got.cif
#   From: 2010.03.12/outbox.cif.g09.slc.cpg/sg169_cif.got.tgz:1721.got - 2010.04.02 06:46:06.
