data_PCOD8324219
_publ_section_title
;
Structure prediction by ZEFSAII (Michael W. Deem and Ramdas Pophale) SiO2 
 PCOD8324219
Probable space group: R -3 M
;
_chemical_formula_sum "Si O2"
_cell_formula_units_Z 180
_cell_length_a 25.788154
_cell_length_b 25.788154
_cell_length_c 17.076558
_cell_angle_alpha 90.000000
_cell_angle_beta 90.000000
_cell_angle_gamma 120.000000
_cell_volume 9834.934668
_symmetry_space_group_name_H-M "R -3 M"
_symmetry_group_IT_number 166
_symmetry_cell_setting 'hexagonal'
loop_
_space_group_symop_operation_xyz
x,y,z
-y,x-y,z
-x+y,-x,z
x-y,-y,-z
-x,-x+y,-z
y,x,-z
-x,-y,-z
y,-x+y,-z
x-y,x,-z
-x+y,y,z
x,x-y,z
-y,-x,z
2/3+x,1/3+y,1/3+z
2/3-y,1/3+x-y,1/3+z
2/3-x+y,1/3-x,1/3+z
2/3+x-y,1/3-y,1/3-z
2/3-x,1/3-x+y,1/3-z
2/3+y,1/3+x,1/3-z
2/3-x,1/3-y,1/3-z
2/3+y,1/3-x+y,1/3-z
2/3+x-y,1/3+x,1/3-z
2/3-x+y,1/3+y,1/3+z
2/3+x,1/3+x-y,1/3+z
2/3-y,1/3-x,1/3+z
1/3+x,2/3+y,2/3+z
1/3-y,2/3+x-y,2/3+z
1/3-x+y,2/3-x,2/3+z
1/3+x-y,2/3-y,2/3-z
1/3-x,2/3-x+y,2/3-z
1/3+y,2/3+x,2/3-z
1/3-x,2/3-y,2/3-z
1/3+y,2/3-x+y,2/3-z
1/3+x-y,2/3+x,2/3-z
1/3-x+y,2/3+y,2/3+z
1/3+x,2/3+x-y,2/3+z
1/3-y,2/3-x,2/3+z
loop_
_atom_site_type_symbol
_atom_site_label
_atom_site_fract_x
_atom_site_fract_y
_atom_site_fract_z
Si Si1 0.663816 0.666667 0.166667
Si Si2 0.509565 0.019129 0.655651
Si Si3 0.875748 0.751496 0.170051
Si Si4 0.544647 0.575213 0.083614
Si Si5 0.425376 0.850752 0.344668
Si Si6 0.282856 0.892934 0.721283
Si Si7 0.525521 0.168598 0.919599
O O1 0.600443 0.607400 0.143859
O O2 0.691619 0.649876 0.240177
O O3 0.512950 0.025900 0.559481
O O4 0.541651 0.083302 0.698295
O O5 0.438704 0.983429 0.672037
O O6 0.904577 0.809154 0.227958
O O7 0.825650 0.755394 0.118856
O O8 0.489287 0.510714 0.115747
O O9 0.523003 0.622657 0.070499
O O10 0.565962 0.565962 0.000000
O O11 0.357581 0.817364 0.318343
O O12 0.333334 0.892572 0.666667
O O13 0.590595 0.181190 0.938799
O O14 0.524423 0.191090 0.833334
#
# Coordination Sequence:
#
# PCOD8324219 Si02
#       7
#    18  18  18  36  18  36  36
#     4  12  20  33  60  84 110 157 206 232 290 370
#     4   9  20  40  60  81 120 160 196 246 298 349
#     4   9  20  42  60  81 124 154 198 248 302 347
#     4  10  24  39  52  78 122 158 190 239 288 355
#     4  10  22  37  67  80 109 163 190 242 308 352
#     4  11  21  35  59  91 115 150 205 253 287 351
#     4  11  22  40  59  86 115 149 197 245 298 351
#
# _framework density 18.302105000000001
#
# number of rings (size 3 to 8) (size 9 to 14) (size 15 to 20)
#    0.600    1.000    4.000    1.200    8.400    0.000 
#    4.200    0.500    4.400    0.000    0.000    0.000 
#    0.000    0.800    0.000    0.000    0.000    0.000 
#
# Total GULP energy -743673.903037 kJ/mol
# GULP energy per Si atom -12394.565051 kJ/mol
# Density = 1.826045 g / cm^3
# Si number density = 18.302105 Si / 1000 Ang^3
#
#
#
# Elastic Constant Matrix: (Units=GPa)
#
#
# Indices 1 2 3 4 5 6 
#
# 1 104.8628 54.3769 27.5478 0.7018 0.0002 0.0000
# 2 54.3769 104.8628 27.5478 -0.7018 -0.0002 0.0000
# 3 27.5478 27.5478 39.8322 0.0000 0.0000 0.0000
# 4 0.7018 -0.7018 0.0000 33.3675 0.0000 -0.0002
# 5 0.0002 -0.0002 0.0000 0.0000 33.3675 0.7018
# 6 0.0000 0.0000 0.0000 -0.0002 0.7018 25.2429
#
#
#
# Elastic Compliance Matrix: (Units=1/GPa)
#
#
# Indices 1 2 3 4 5 6 
#
# 1 0.014037 -0.005782 -0.005709 -0.000417 0.000000 0.000000
# 2 -0.005782 0.014037 -0.005709 0.000417 0.000000 0.000000
# 3 -0.005709 -0.005709 0.033002 0.000000 0.000000 0.000000
# 4 -0.000417 0.000417 0.000000 0.029987 0.000000 0.000000
# 5 0.000000 0.000000 0.000000 0.000000 0.029987 -0.000834
# 6 0.000000 0.000000 0.000000 0.000000 -0.000834 0.039638
#
#
# Mechanical properties :
#
#
# Convention : Reuss Voigt Hill
#
# Bulk Modulus (GPa) = 37.48737 52.05587 44.77162
# Shear Modulus (GPa) = 24.51205 27.73460 26.12332
#
# Velocity S-wave (km/s) = 3.66362 3.89701 3.78211
# Velocity P-wave (km/s) = 6.19864 6.98235 6.60213
#
# Compressibility (1/GPa) = 0.02667565
#
# Stress axis : x y z
#
# Youngs Moduli (GPa) = 71.23950 71.23950 30.30093
#
# Poissons Ratio (x) = 0.41190 0.17300
# Poissons Ratio (y) = 0.41190 0.17300
# Poissons Ratio (z) = 0.40672 0.40672
#
# Static dielectric constant tensor:
#      x y z
#    x 3.399760 0.000000 0.000000 
#    y 0.000000 3.399760 0.000000 
#    z 0.000000 0.000000 3.216590 
# 
# 
# High freq. dielectric constant tensor:
#      x y z
#    x 1.706920 0.000000 0.000000 
#    y 0.000000 1.706920 0.000000 
#    z 0.000000 0.000000 1.699690 
# 
# From -- ./inp_files/5685.got.cif
#   From: 2010.03.12/outbox.cif.g09.slc.cpg/sg166_3_cif.got.tgz:5685.got - 2010.04.02 06:38:31.
