data_PCOD8324438
_publ_section_title
;
Structure prediction by ZEFSAII (Michael W. Deem and Ramdas Pophale) SiO2 
 PCOD8324438
Probable space group: P 6
;
_chemical_formula_sum "Si O2"
_cell_formula_units_Z 40
_cell_length_a 18.614559
_cell_length_b 18.614559
_cell_length_c 7.592514
_cell_angle_alpha 90.000000
_cell_angle_beta 90.000000
_cell_angle_gamma 120.000000
_cell_volume 2278.356796
_symmetry_space_group_name_H-M "P 6"
_symmetry_group_IT_number 168
_symmetry_cell_setting 'hexagonal'
loop_
_space_group_symop_operation_xyz
x,y,z
x-y,x,z
-y,x-y,z
-x,-y,z
-x+y,-x,z
y,-x+y,z
loop_
_atom_site_type_symbol
_atom_site_label
_atom_site_fract_x
_atom_site_fract_y
_atom_site_fract_z
Si Si1 0.269058 0.785051 0.926800
Si Si2 0.594084 0.033942 0.325946
Si Si3 0.594084 0.033944 0.921478
Si Si4 0.686461 0.686270 0.623712
Si Si5 0.817032 0.638813 0.623713
Si Si6 0.785053 0.515995 0.320626
Si Si7 0.666668 0.333334 0.831161
Si Si8 0.666668 0.333334 0.416263
O O1 0.357731 0.867094 0.892960
O O2 0.201270 0.782481 0.795086
O O3 0.279215 0.705433 0.901869
O O4 0.236813 0.784510 0.123712
O O5 0.642270 0.132903 0.354469
O O6 0.500000 0.000000 0.384863
O O7 0.634607 0.994182 0.449526
O O8 0.599108 0.009730 0.123712
O O9 0.500000 0.000000 0.862560
O O10 0.634608 0.994186 0.797898
O O11 0.779305 0.700221 0.623715
O O12 0.692992 0.776069 0.623710
O O13 0.782480 0.581212 0.452340
O O14 0.705438 0.426218 0.345554
O O15 0.666668 0.333334 0.623712
#
# Coordination Sequence:
#
# PCOD8324438 Si02
#       8
#     6   6   6   6   6   6   2   2
#     4  10  21  35  49  72 104 139 180 218 255 300
#     4   9  19  33  51  74 100 136 176 212 255 302
#     4   9  19  33  51  74 100 136 176 212 255 302
#     4  10  21  36  56  75 104 130 170 216 268 317
#     4  10  22  38  56  79 100 134 169 218 266 328
#     4  10  21  35  49  72 104 139 180 218 255 300
#     4  12  22  32  49  73 107 145 190 221 256 286
#     4  12  22  32  49  73 107 145 190 221 256 286
#
# _framework density 17.556514
#
# number of rings (size 3 to 8) (size 9 to 14) (size 15 to 20)
#    0.000    2.100    1.500    1.350    4.200    1.200 
#    0.000    0.000    0.000    0.300    0.000    0.000 
#    0.000    0.000    0.000   15.000    0.000    0.000 
#
# Total GULP energy -496075.018698 kJ/mol
# GULP energy per Si atom -12401.875467 kJ/mol
# Density = 1.751655 g / cm^3
# Si number density = 17.556514 Si / 1000 Ang^3
#
#
#
# Elastic Constant Matrix: (Units=GPa)
#
#
# Indices 1 2 3 4 5 6 
#
# 1 92.1968 52.3347 34.8423 0.0000 0.0000 -0.0014
# 2 52.3347 92.1945 34.8417 0.0000 0.0000 -0.0007
# 3 34.8423 34.8417 110.5573 0.0000 0.0000 0.0004
# 4 0.0000 0.0000 0.0000 10.9943 0.0001 0.0000
# 5 0.0000 0.0000 0.0000 0.0001 10.9942 0.0000
# 6 -0.0014 -0.0007 0.0004 0.0000 0.0000 19.9332
#
#
#
# Elastic Compliance Matrix: (Units=1/GPa)
#
#
# Indices 1 2 3 4 5 6 
#
# 1 0.016623 -0.008464 -0.002571 0.000000 0.000000 0.000001
# 2 -0.008464 0.016623 -0.002571 0.000000 0.000000 0.000000
# 3 -0.002571 -0.002571 0.010666 0.000000 0.000000 0.000000
# 4 0.000000 0.000000 0.000000 0.090956 -0.000001 0.000000
# 5 0.000000 0.000000 0.000000 -0.000001 0.090957 0.000000
# 6 0.000001 0.000000 0.000000 0.000000 0.000000 0.050167
#
#
# Mechanical properties :
#
#
# Convention : Reuss Voigt Hill
#
# Bulk Modulus (GPa) = 59.88657 59.88731 59.88694
# Shear Modulus (GPa) = 16.19322 19.91303 18.05313
#
# Velocity S-wave (km/s) = 3.04031 3.37148 3.21017
# Velocity P-wave (km/s) = 6.81979 7.02432 6.92281
#
# Compressibility (1/GPa) = 0.01669824
#
# Stress axis : x y z
#
# Youngs Moduli (GPa) = 60.15864 60.15724 93.75858
#
# Poissons Ratio (x) = 0.50919 0.24107
# Poissons Ratio (y) = 0.50920 0.24107
# Poissons Ratio (z) = 0.15468 0.15467
#
# Static dielectric constant tensor:
#      x y z
#    x 3.139460 0.000050 0.000000 
#    y 0.000050 3.139520 0.000000 
#    z 0.000000 0.000000 3.538450 
# 
# 
# High freq. dielectric constant tensor:
#      x y z
#    x 1.653590 0.000000 0.000000 
#    y 0.000000 1.653590 0.000000 
#    z 0.000000 0.000000 1.702970 
# 
# From -- ./inp_files/325.got.cif
#   From: 2010.03.12/outbox.cif.g09.slc.cpg/sg168_cif.got.tgz:325.got - 2010.04.02 06:45:48.
