data_PCOD8324310
_publ_section_title
;
Structure prediction by ZEFSAII (Michael W. Deem and Ramdas Pophale) SiO2 
 PCOD8324310
Probable space group: R -3 C 
;
_chemical_formula_sum "Si O2"
_cell_formula_units_Z 144
_cell_length_a 21.080520
_cell_length_b 21.080520
_cell_length_c 20.104625
_cell_angle_alpha 90.000000
_cell_angle_beta 90.000000
_cell_angle_gamma 120.000000
_cell_volume 7737.296642
_symmetry_space_group_name_H-M "R -3 C "
_symmetry_group_IT_number 167
_symmetry_cell_setting 'hexagonal'
loop_
_space_group_symop_operation_xyz
x,y,z
-y,x-y,z
-x+y,-x,z
x-y,-y,1/2-z
-x,-x+y,1/2-z
y,x,1/2-z
-x,-y,-z
y,-x+y,-z
x-y,x,-z
-x+y,y,1/2+z
x,x-y,1/2+z
-y,-x,1/2+z
2/3+x,1/3+y,1/3+z
2/3-y,1/3+x-y,1/3+z
2/3-x+y,1/3-x,1/3+z
2/3+x-y,1/3-y,5/6-z
2/3-x,1/3-x+y,5/6-z
2/3+y,1/3+x,5/6-z
2/3-x,1/3-y,1/3-z
2/3+y,1/3-x+y,1/3-z
2/3+x-y,1/3+x,1/3-z
2/3-x+y,1/3+y,5/6+z
2/3+x,1/3+x-y,5/6+z
2/3-y,1/3-x,5/6+z
1/3+x,2/3+y,2/3+z
1/3-y,2/3+x-y,2/3+z
1/3-x+y,2/3-x,2/3+z
1/3+x-y,2/3-y,1/6-z
1/3-x,2/3-x+y,1/6-z
1/3+y,2/3+x,1/6-z
1/3-x,2/3-y,2/3-z
1/3+y,2/3-x+y,2/3-z
1/3+x-y,2/3+x,2/3-z
1/3-x+y,2/3+y,1/6+z
1/3+x,2/3+x-y,1/6+z
1/3-y,2/3-x,1/6+z
loop_
_atom_site_type_symbol
_atom_site_label
_atom_site_fract_x
_atom_site_fract_y
_atom_site_fract_z
Si Si1 0.587086 0.063733 0.704666
Si Si2 0.398033 0.399794 0.462112
Si Si3 0.788379 0.636239 0.759547
Si Si4 0.167556 0.550705 0.183604
O O1 0.651155 0.045361 0.693135
O O2 0.610083 0.142706 0.738060
O O3 0.524215 0.000000 0.750000
O O4 0.554011 0.049615 0.629855
O O5 0.333334 0.398507 0.416667
O O6 0.403428 0.439439 0.531731
O O7 0.477853 0.437408 0.428912
O O8 0.734499 0.570322 0.807404
O O9 0.198629 0.635012 0.166778
#
# Coordination Sequence:
#
# PCOD8324310 Si02
#       4
#    36  36  36  36
#     4   9  19  36  54  82 110 144 183 228 286 332
#     4  10  20  36  57  86 115 144 186 228 293 347
#     4  10  21  36  57  85 115 147 183 235 284 352
#     4  11  22  38  57  80 112 152 198 238 281 335
#
# _framework density 18.611149999999999
#
# number of rings (size 3 to 8) (size 9 to 14) (size 15 to 20)
#    0.000    2.000    2.500    1.000    3.500    0.000 
#    0.000    0.000    0.000    0.000    0.000    0.000 
#    0.000    0.000    0.000    0.000    0.000    0.000 
#
# Total GULP energy -594705.826756 kJ/mol
# GULP energy per Si atom -12389.704724 kJ/mol
# Density = 1.856879 g / cm^3
# Si number density = 18.611150 Si / 1000 Ang^3
#
#
#
# Elastic Constant Matrix: (Units=GPa)
#
#
# Indices 1 2 3 4 5 6 
#
# 1 72.0722 28.0017 37.6601 0.8935 -0.0008 0.0000
# 2 28.0017 72.0722 37.6601 -0.8935 0.0008 0.0000
# 3 37.6601 37.6601 95.3430 0.0000 0.0000 0.0000
# 4 0.8935 -0.8935 0.0000 20.7807 0.0000 0.0008
# 5 -0.0008 0.0008 0.0000 0.0000 20.7807 0.8935
# 6 0.0000 0.0000 0.0000 0.0008 0.8935 22.0353
#
#
#
# Elastic Compliance Matrix: (Units=1/GPa)
#
#
# Indices 1 2 3 4 5 6 
#
# 1 0.018475 -0.004255 -0.005617 -0.000977 0.000001 0.000000
# 2 -0.004255 0.018475 -0.005617 0.000977 -0.000001 0.000000
# 3 -0.005617 -0.005617 0.014926 0.000000 0.000000 0.000000
# 4 -0.000977 0.000977 0.000000 0.048205 0.000000 -0.000002
# 5 0.000001 -0.000001 0.000000 0.000000 0.048205 -0.001955
# 6 0.000000 0.000000 0.000000 -0.000002 -0.001955 0.045461
#
#
# Mechanical properties :
#
#
# Convention : Reuss Voigt Hill
#
# Bulk Modulus (GPa) = 47.85043 49.57012 48.71028
# Shear Modulus (GPa) = 21.58032 21.79706 21.68869
#
# Velocity S-wave (km/s) = 3.40889 3.42597 3.41744
# Velocity P-wave (km/s) = 6.42343 6.50708 6.46539
#
# Compressibility (1/GPa) = 0.02089845
#
# Stress axis : x y z
#
# Youngs Moduli (GPa) = 54.12623 54.12623 66.99831
#
# Poissons Ratio (x) = 0.23032 0.37632
# Poissons Ratio (y) = 0.23032 0.37632
# Poissons Ratio (z) = 0.30402 0.30402
#
# Static dielectric constant tensor:
#      x y z
#    x 3.295020 0.000000 0.000000 
#    y 0.000000 3.295020 0.000000 
#    z 0.000000 0.000000 3.672030 
# 
# 
# High freq. dielectric constant tensor:
#      x y z
#    x 1.710750 0.000000 0.000000 
#    y 0.000000 1.710750 0.000000 
#    z 0.000000 0.000000 1.726850 
# 
# From -- ./inp_files/4321.got.cif
#   From: 2010.03.12/outbox.cif.g09.slc.cpg/sg167_3_cif.got.tgz:4321.got - 2010.04.02 06:42:56.
