data_PCOD8324270
_publ_section_title
;
Structure prediction by ZEFSAII (Michael W. Deem and Ramdas Pophale) SiO2 
 PCOD8324270
Probable space group: R -3 C 
;
_chemical_formula_sum "Si O2"
_cell_formula_units_Z 252
_cell_length_a 29.393104
_cell_length_b 29.393104
_cell_length_c 21.433047
_cell_angle_alpha 90.000000
_cell_angle_beta 90.000000
_cell_angle_gamma 120.000000
_cell_volume 16036.347203
_symmetry_space_group_name_H-M "R -3 C "
_symmetry_group_IT_number 167
_symmetry_cell_setting 'hexagonal'
loop_
_space_group_symop_operation_xyz
x,y,z
-y,x-y,z
-x+y,-x,z
x-y,-y,1/2-z
-x,-x+y,1/2-z
y,x,1/2-z
-x,-y,-z
y,-x+y,-z
x-y,x,-z
-x+y,y,1/2+z
x,x-y,1/2+z
-y,-x,1/2+z
2/3+x,1/3+y,1/3+z
2/3-y,1/3+x-y,1/3+z
2/3-x+y,1/3-x,1/3+z
2/3+x-y,1/3-y,5/6-z
2/3-x,1/3-x+y,5/6-z
2/3+y,1/3+x,5/6-z
2/3-x,1/3-y,1/3-z
2/3+y,1/3-x+y,1/3-z
2/3+x-y,1/3+x,1/3-z
2/3-x+y,1/3+y,5/6+z
2/3+x,1/3+x-y,5/6+z
2/3-y,1/3-x,5/6+z
1/3+x,2/3+y,2/3+z
1/3-y,2/3+x-y,2/3+z
1/3-x+y,2/3-x,2/3+z
1/3+x-y,2/3-y,1/6-z
1/3-x,2/3-x+y,1/6-z
1/3+y,2/3+x,1/6-z
1/3-x,2/3-y,2/3-z
1/3+y,2/3-x+y,2/3-z
1/3+x-y,2/3+x,2/3-z
1/3-x+y,2/3+y,1/6+z
1/3+x,2/3+x-y,1/6+z
1/3-y,2/3-x,1/6+z
loop_
_atom_site_type_symbol
_atom_site_label
_atom_site_fract_x
_atom_site_fract_y
_atom_site_fract_z
Si Si1 0.778724 0.615389 0.957887
Si Si2 0.930467 0.724356 0.902853
Si Si3 0.479038 0.539534 0.516924
Si Si4 0.124079 0.620016 0.685321
Si Si5 0.186397 0.738552 0.692695
Si Si6 0.285919 0.883606 0.769956
Si Si7 0.604893 0.554108 0.080901
O O1 0.800726 0.666667 0.916667
O O2 0.827865 0.606995 0.976215
O O3 0.734022 0.567262 0.919529
O O4 0.753547 0.623718 0.018608
O O5 0.920834 0.666667 0.916667
O O6 0.987878 0.757135 0.871594
O O7 0.923075 0.744936 0.968717
O O8 0.500000 0.500000 0.500000
O O9 0.497637 0.571796 0.582085
O O10 0.415675 0.502763 0.522531
O O11 0.501782 0.582929 0.462317
O O12 0.172188 0.678223 0.699339
O O13 0.143648 0.582303 0.654716
O O14 0.081783 0.620137 0.637041
O O15 0.262897 0.922873 0.778716
O O16 0.666667 0.579988 0.083334
#
# Coordination Sequence:
#
# PCOD8324270 Si02
#       7
#    36  36  36  36  36  36  36
#     4  10  18  30  47  67  90 121 155 196 231 275
#     4   9  18  28  49  67  90 117 159 193 228 268
#     4   9  19  30  46  62  95 124 152 184 241 280
#     4   9  16  29  48  67  89 117 158 192 234 276
#     4   9  17  30  47  68  88 122 153 193 230 286
#     4   9  17  32  45  65  91 122 152 194 233 271
#     4  11  20  30  48  66  92 124 157 194 233 277
#
# _framework density 15.714302
#
# number of rings (size 3 to 8) (size 9 to 14) (size 15 to 20)
#    0.000    2.571    1.429    1.286    6.000    0.000 
#    0.000    0.714    0.000    0.286    0.000    0.000 
#    0.000    0.000    0.000    2.857    0.000    2.286 
#
# Total GULP energy -1040680.575005 kJ/mol
# GULP energy per Si atom -12389.054464 kJ/mol
# Density = 1.567854 g / cm^3
# Si number density = 15.714302 Si / 1000 Ang^3
#
#
#
# Elastic Constant Matrix: (Units=GPa)
#
#
# Indices 1 2 3 4 5 6 
#
# 1 104.5406 55.2224 29.8108 -3.0335 0.0000 0.0000
# 2 55.2224 104.5406 29.8108 3.0335 0.0000 0.0000
# 3 29.8108 29.8108 47.8752 0.0000 0.0000 0.0000
# 4 -3.0335 3.0335 0.0000 18.1694 0.0000 0.0000
# 5 0.0000 0.0000 0.0000 0.0000 18.1694 -3.0335
# 6 0.0000 0.0000 0.0000 0.0000 -3.0335 24.6591
#
#
#
# Elastic Compliance Matrix: (Units=1/GPa)
#
#
# Indices 1 2 3 4 5 6 
#
# 1 0.014428 -0.006274 -0.005077 0.003456 0.000000 0.000000
# 2 -0.006274 0.014428 -0.005077 -0.003456 0.000000 0.000000
# 3 -0.005077 -0.005077 0.027211 0.000000 0.000000 0.000000
# 4 0.003456 -0.003456 0.000000 0.056192 0.000000 0.000000
# 5 0.000000 0.000000 0.000000 0.000000 0.056192 0.006913
# 6 0.000000 0.000000 0.000000 0.000000 0.006913 0.041403
#
#
# Mechanical properties :
#
#
# Convention : Reuss Voigt Hill
#
# Bulk Modulus (GPa) = 43.08587 54.07162 48.57875
# Shear Modulus (GPa) = 19.96433 21.67375 20.81904
#
# Velocity S-wave (km/s) = 3.56821 3.71784 3.64379
# Velocity P-wave (km/s) = 6.66738 7.27418 6.97738
#
# Compressibility (1/GPa) = 0.02320946
#
# Stress axis : x y z
#
# Youngs Moduli (GPa) = 69.31030 69.31030 36.75015
#
# Poissons Ratio (x) = 0.43484 0.18659
# Poissons Ratio (y) = 0.43484 0.18659
# Poissons Ratio (z) = 0.35191 0.35191
#
# Static dielectric constant tensor:
#      x y z
#    x 3.179230 0.000000 0.000000 
#    y 0.000000 3.179230 0.000000 
#    z 0.000000 0.000000 3.044430 
# 
# 
# High freq. dielectric constant tensor:
#      x y z
#    x 1.593840 0.000000 0.000000 
#    y 0.000000 1.593840 0.000000 
#    z 0.000000 0.000000 1.592020 
# 
# From -- ./inp_files/3702.got.cif
#   From: 2010.03.12/outbox.cif.g09.slc.cpg/sg167_2_cif.got.tgz:3702.got - 2010.04.02 06:42:56.
