data_PCOD8324858
_publ_section_title
;
Structure prediction by ZEFSAII (Michael W. Deem and Ramdas Pophale) SiO2 
 PCOD8324858
Probable space group: P 63
;
_chemical_formula_sum "Si O2"
_cell_formula_units_Z 36
_cell_length_a 8.481088
_cell_length_b 8.481088
_cell_length_c 29.095931
_cell_angle_alpha 90.000000
_cell_angle_beta 90.000000
_cell_angle_gamma 120.000000
_cell_volume 1812.449976
_symmetry_space_group_name_H-M "P 63"
_symmetry_group_IT_number 173
_symmetry_cell_setting 'hexagonal'
loop_
_space_group_symop_operation_xyz
x,y,z
x-y,x,1/2+z
-y,x-y,z
-x,-y,1/2+z
-x+y,-x,z
y,-x+y,1/2+z
loop_
_atom_site_type_symbol
_atom_site_label
_atom_site_fract_x
_atom_site_fract_y
_atom_site_fract_z
Si Si1 0.448688 0.150763 0.294720
Si Si2 0.814619 0.783919 0.383898
Si Si3 0.783126 0.968825 0.705570
Si Si4 0.857937 0.312859 0.471131
Si Si5 0.661548 0.988468 0.608187
Si Si6 0.673965 0.663453 0.570867
O O1 0.635009 0.140449 0.294660
O O2 0.332239 0.048335 0.339142
O O3 0.329412 0.046473 0.250784
O O4 0.704236 0.667389 0.427757
O O5 0.808588 0.972370 0.384181
O O6 0.657602 0.952806 0.662569
O O7 0.836385 0.808769 0.704514
O O8 0.854479 0.502734 0.470219
O O9 0.962836 0.311157 0.516366
O O10 0.734446 0.870710 0.581887
O O11 0.461948 0.933356 0.590538
O O12 0.799294 0.197952 0.596187
#
# Coordination Sequence:
#
# PCOD8324858 Si02
#       6
#     6   6   6   6   6   6
#     4  10  22  37  64  92 123 165 211 270 335 399
#     4  10  22  37  64  94 118 167 214 270 328 407
#     4  10  21  40  63  92 126 171 214 273 327 402
#     4  10  21  40  63  90 127 167 212 271 337 395
#     4  12  24  42  63  95 134 180 227 279 339 402
#     4  12  24  42  63  95 134 180 226 281 338 405
#
# _framework density 19.862615000000002
#
# number of rings (size 3 to 8) (size 9 to 14) (size 15 to 20)
#    1.333    0.000    3.333    3.000    4.667    0.000 
#    0.000    0.000    0.000   12.000    0.000    0.000 
#    0.000    0.000    0.000    0.000    0.000    0.000 
#
# Total GULP energy -446294.065965 kJ/mol
# GULP energy per Si atom -12397.057388 kJ/mol
# Density = 1.981741 g / cm^3
# Si number density = 19.862615 Si / 1000 Ang^3
#
#
#
# Elastic Constant Matrix: (Units=GPa)
#
#
# Indices 1 2 3 4 5 6 
#
# 1 50.9181 4.3094 36.1340 0.0000 0.0000 0.0000
# 2 4.3094 50.9181 36.1340 0.0000 0.0000 0.0000
# 3 36.1340 36.1340 199.6657 0.0000 0.0000 0.0000
# 4 0.0000 0.0000 0.0000 28.0567 0.0000 0.0000
# 5 0.0000 0.0000 0.0000 0.0000 28.0567 0.0000
# 6 0.0000 0.0000 0.0000 0.0000 0.0000 23.3044
#
#
#
# Elastic Compliance Matrix: (Units=1/GPa)
#
#
# Indices 1 2 3 4 5 6 
#
# 1 0.022590 0.001135 -0.004294 0.000000 0.000000 0.000000
# 2 0.001135 0.022590 -0.004294 0.000000 0.000000 0.000000
# 3 -0.004294 -0.004294 0.006562 0.000000 0.000000 0.000000
# 4 0.000000 0.000000 0.000000 0.035642 0.000000 0.000000
# 5 0.000000 0.000000 0.000000 0.000000 0.035642 0.000000
# 6 0.000000 0.000000 0.000000 0.000000 0.000000 0.042910
#
#
# Mechanical properties :
#
#
# Convention : Reuss Voigt Hill
#
# Bulk Modulus (GPa) = 27.14544 50.51739 38.83142
# Shear Modulus (GPa) = 25.89043 30.87852 28.38448
#
# Velocity S-wave (km/s) = 3.61428 3.94713 3.78437
# Velocity P-wave (km/s) = 5.57796 6.80159 6.21994
#
# Compressibility (1/GPa) = 0.03683860
#
# Stress axis : x y z
#
# Youngs Moduli (GPa) = 44.26684 44.26684 152.38260
#
# Poissons Ratio (x) = -0.05025 0.65427
# Poissons Ratio (y) = -0.05025 0.65427
# Poissons Ratio (z) = 0.19007 0.19007
#
# Static dielectric constant tensor:
#      x y z
#    x 3.398930 0.000000 0.000000 
#    y 0.000000 3.398930 0.000000 
#    z 0.000000 0.000000 3.552810 
# 
# 
# High freq. dielectric constant tensor:
#      x y z
#    x 1.758860 0.000000 0.000000 
#    y 0.000000 1.758860 0.000000 
#    z 0.000000 0.000000 1.787220 
# 
# From -- ./inp_files/1477.got.cif
#   From: 2010.03.12/outbox.cif.g09.slc.cpg/sg173_cif.got.tgz:1477.got - 2010.04.02 06:54:12.
