data_PCOD8324817
_publ_section_title
;
Structure prediction by ZEFSAII (Michael W. Deem and Ramdas Pophale) SiO2 
 PCOD8324817
Probable space group: P 62
;
_chemical_formula_sum "Si O2"
_cell_formula_units_Z 18
_cell_length_a 13.624740
_cell_length_b 13.624740
_cell_length_c 4.704023
_cell_angle_alpha 90.000000
_cell_angle_beta 90.000000
_cell_angle_gamma 120.000000
_cell_volume 756.234550
_symmetry_space_group_name_H-M "P 62"
_symmetry_group_IT_number 171
_symmetry_cell_setting 'hexagonal'
loop_
_space_group_symop_operation_xyz
x,y,z
x-y,x,1/3+z
-y,x-y,2/3+z
-x,-y,z
-x+y,-x,1/3+z
y,-x+y,2/3+z
loop_
_atom_site_type_symbol
_atom_site_label
_atom_site_fract_x
_atom_site_fract_y
_atom_site_fract_z
Si Si1 0.800391 0.999940 0.032560
Si Si2 0.537359 0.268725 0.199144
Si Si3 0.617210 0.808538 0.699179
O O1 0.761068 0.064656 0.249263
O O2 0.827008 0.913460 0.199195
O O3 0.696333 0.935198 0.815927
O O4 0.612877 0.387191 0.365825
O O5 0.458376 0.182362 0.444439
O O6 0.458448 0.276195 0.953778
#
# Coordination Sequence:
#
# PCOD8324817 Si02
#       3
#     6   6   6
#     4  12  28  49  79 114 162 204 249 316 379 466
#     4  12  24  50  86 108 150 208 256 320 386 438
#     4  12  26  47  82 118 150 201 262 308 378 476
#
# _framework density 23.802142
#
# number of rings (size 3 to 8) (size 9 to 14) (size 15 to 20)
#    0.000    0.000    6.667    2.000    0.000    6.667 
#    0.000    1.667   29.333    0.000    0.000    0.000 
#    0.000    0.000    0.000    0.000    0.000    0.000 
#
# Total GULP energy -223079.756061 kJ/mol
# GULP energy per Si atom -12393.319781 kJ/mol
# Density = 2.374797 g / cm^3
# Si number density = 23.802142 Si / 1000 Ang^3
#
#
#
# Elastic Constant Matrix: (Units=GPa)
#
#
# Indices 1 2 3 4 5 6 
#
# 1 126.2079 104.5965 105.1116 0.0000 0.0000 0.0000
# 2 104.5965 126.2079 105.1116 0.0000 0.0000 0.0000
# 3 105.1116 105.1116 236.0253 0.0000 0.0000 0.0000
# 4 0.0000 0.0000 0.0000 73.2446 0.0000 0.0000
# 5 0.0000 0.0000 0.0000 0.0000 73.2446 0.0000
# 6 0.0000 0.0000 0.0000 0.0000 0.0000 10.8057
#
#
#
# Elastic Compliance Matrix: (Units=1/GPa)
#
#
# Indices 1 2 3 4 5 6 
#
# 1 0.026781 -0.019491 -0.003246 0.000000 0.000000 0.000000
# 2 -0.019491 0.026781 -0.003246 0.000000 0.000000 0.000000
# 3 -0.003246 -0.003246 0.007128 0.000000 0.000000 0.000000
# 4 0.000000 0.000000 0.000000 0.013653 0.000000 0.000000
# 5 0.000000 0.000000 0.000000 0.000000 0.013653 0.000000
# 6 0.000000 0.000000 0.000000 0.000000 0.000000 0.092544
#
#
# Mechanical properties :
#
#
# Convention : Reuss Voigt Hill
#
# Bulk Modulus (GPa) = 114.65222 124.23114 119.44168
# Shear Modulus (GPa) = 21.23920 43.03373 32.13646
#
# Velocity S-wave (km/s) = 2.99042 4.25664 3.67842
# Velocity P-wave (km/s) = 7.75867 8.74444 8.26626
#
# Compressibility (1/GPa) = 0.00872203
#
# Stress axis : x y z
#
# Youngs Moduli (GPa) = 37.34039 37.34039 140.28668
#
# Poissons Ratio (x) = 0.72781 0.45541
# Poissons Ratio (y) = 0.72781 0.45541
# Poissons Ratio (z) = 0.12122 0.12122
#
# Static dielectric constant tensor:
#      x y z
#    x 4.327820 0.000000 0.000000 
#    y 0.000000 4.327820 0.000000 
#    z 0.000000 0.000000 5.202520 
# 
# 
# High freq. dielectric constant tensor:
#      x y z
#    x 1.923240 0.000000 0.000000 
#    y 0.000000 1.923240 0.000000 
#    z 0.000000 0.000000 1.994060 
# 
# From -- ./inp_files/101.got.cif
#   From: 2010.03.12/outbox.cif.g09.slc.cpg/sg171_1_cif.got.tgz:101.got - 2010.04.02 06:49:11.
