data_PCOD8324233
_publ_section_title
;
Structure prediction by ZEFSAII (Michael W. Deem and Ramdas Pophale) SiO2 
 PCOD8324233
Probable space group: R -3 M
;
_chemical_formula_sum "Si O2"
_cell_formula_units_Z 144
_cell_length_a 29.856884
_cell_length_b 29.856884
_cell_length_c 9.465911
_cell_angle_alpha 90.000000
_cell_angle_beta 90.000000
_cell_angle_gamma 120.000000
_cell_volume 7307.721875
_symmetry_space_group_name_H-M "R -3 M"
_symmetry_group_IT_number 166
_symmetry_cell_setting 'hexagonal'
loop_
_space_group_symop_operation_xyz
x,y,z
-y,x-y,z
-x+y,-x,z
x-y,-y,-z
-x,-x+y,-z
y,x,-z
-x,-y,-z
y,-x+y,-z
x-y,x,-z
-x+y,y,z
x,x-y,z
-y,-x,z
2/3+x,1/3+y,1/3+z
2/3-y,1/3+x-y,1/3+z
2/3-x+y,1/3-x,1/3+z
2/3+x-y,1/3-y,1/3-z
2/3-x,1/3-x+y,1/3-z
2/3+y,1/3+x,1/3-z
2/3-x,1/3-y,1/3-z
2/3+y,1/3-x+y,1/3-z
2/3+x-y,1/3+x,1/3-z
2/3-x+y,1/3+y,1/3+z
2/3+x,1/3+x-y,1/3+z
2/3-y,1/3-x,1/3+z
1/3+x,2/3+y,2/3+z
1/3-y,2/3+x-y,2/3+z
1/3-x+y,2/3-x,2/3+z
1/3+x-y,2/3-y,2/3-z
1/3-x,2/3-x+y,2/3-z
1/3+y,2/3+x,2/3-z
1/3-x,2/3-y,2/3-z
1/3+y,2/3-x+y,2/3-z
1/3+x-y,2/3+x,2/3-z
1/3-x+y,2/3+y,2/3+z
1/3+x,2/3+x-y,2/3+z
1/3-y,2/3-x,2/3+z
loop_
_atom_site_type_symbol
_atom_site_label
_atom_site_fract_x
_atom_site_fract_y
_atom_site_fract_z
Si Si1 0.138973 0.277945 0.268236
Si Si2 0.940021 0.372493 0.461645
Si Si3 0.123829 0.477724 0.008872
Si Si4 0.283541 0.141771 0.064971
Si Si5 0.666777 0.434025 0.001985
O O1 0.166667 0.333334 0.333334
O O2 0.081254 0.247205 0.327760
O O3 0.145595 0.291190 0.102799
O O4 0.927822 0.333334 0.333334
O O5 0.909714 0.340268 0.596689
O O6 0.920609 0.413746 0.430239
O O7 0.000000 0.400684 0.500000
O O8 0.131788 0.465121 0.166667
O O9 0.179190 0.518618 0.941022
O O10 0.333334 0.166667 0.166667
O O11 0.720105 0.440210 0.061138
O O12 0.619559 0.380442 0.059598
O O13 0.666667 0.433952 0.833334
#
# Coordination Sequence:
#
# PCOD8324233 Si02
#       5
#    18  36  36  18  36
#     4  12  26  44  68  98 134 180 228 283 342 406
#     4  11  25  44  66  91 127 170 218 277 338 407
#     4  11  25  40  64  97 136 171 222 278 338 404
#     4  10  24  46  68  94 127 168 223 275 349 407
#     4   9  17  32  55  88 127 166 208 258 320 387
#
# _framework density 19.705183000000002
#
# number of rings (size 3 to 8) (size 9 to 14) (size 15 to 20)
#    0.000    1.500    3.750    0.250   10.500    3.000 
#    0.000    0.000    0.000    0.000    0.000    0.000 
#    0.000    4.000    0.000    0.000    0.000    0.000 
#
# Total GULP energy -594939.288522 kJ/mol
# GULP energy per Si atom -12394.568511 kJ/mol
# Density = 1.966033 g / cm^3
# Si number density = 19.705183 Si / 1000 Ang^3
#
#
#
# Elastic Constant Matrix: (Units=GPa)
#
#
# Indices 1 2 3 4 5 6 
#
# 1 162.2704 83.1784 50.0983 -1.1315 -0.0747 0.0157
# 2 83.1784 162.3295 50.3288 1.1422 0.0247 -0.0029
# 3 50.0983 50.3288 97.0435 -0.0204 -0.1309 0.0040
# 4 -1.1315 1.1422 -0.0204 29.7343 -0.0012 0.0080
# 5 -0.0747 0.0247 -0.1309 -0.0012 29.6818 -1.1123
# 6 0.0157 -0.0029 0.0040 0.0080 -1.1123 39.6177
#
#
#
# Elastic Compliance Matrix: (Units=1/GPa)
#
#
# Indices 1 2 3 4 5 6 
#
# 1 0.008904 -0.003743 -0.002656 0.000481 0.000014 -0.000003
# 2 -0.003743 0.008916 -0.002692 -0.000487 -0.000029 0.000002
# 3 -0.002656 -0.002692 0.013072 0.000011 0.000053 0.000001
# 4 0.000481 -0.000487 0.000011 0.033668 0.000003 -0.000007
# 5 0.000014 -0.000029 0.000053 0.000003 0.033726 0.000947
# 6 -0.000003 0.000002 0.000001 -0.000007 0.000947 0.025268
#
#
# Mechanical properties :
#
#
# Convention : Reuss Voigt Hill
#
# Bulk Modulus (GPa) = 78.66903 87.65047 83.15975
# Shear Modulus (GPa) = 34.25299 35.67596 34.96447
#
# Velocity S-wave (km/s) = 4.17378 4.25960 4.21691
# Velocity P-wave (km/s) = 7.95217 8.29275 8.12424
#
# Compressibility (1/GPa) = 0.01271148
#
# Stress axis : x y z
#
# Youngs Moduli (GPa) = 112.30628 112.15629 76.49997
#
# Poissons Ratio (x) = 0.41975 0.20316
# Poissons Ratio (y) = 0.42032 0.20595
# Poissons Ratio (z) = 0.29825 0.30194
#
# Static dielectric constant tensor:
#      x y z
#    x 3.826430 0.000130 -0.000620 
#    y 0.000130 3.826170 -0.000690 
#    z -0.000620 -0.000690 3.431110 
# 
# 
# High freq. dielectric constant tensor:
#      x y z
#    x 1.782090 0.000000 -0.000020 
#    y 0.000000 1.782100 0.000000 
#    z -0.000020 0.000000 1.745420 
# 
# From -- ./inp_files/1853.got.cif
#   From: 2010.03.12/outbox.cif.g09.slc.cpg/sg166_1_cif.got.tgz:1853.got - 2010.04.02 06:38:31.
