data_PCOD8324333
_publ_section_title
;
Structure prediction by ZEFSAII (Michael W. Deem and Ramdas Pophale) SiO2 
 PCOD8324333
Probable space group: R -3 C 
;
_chemical_formula_sum "Si O2"
_cell_formula_units_Z 216
_cell_length_a 21.387963
_cell_length_b 21.387963
_cell_length_c 25.618057
_cell_angle_alpha 90.000000
_cell_angle_beta 90.000000
_cell_angle_gamma 120.000000
_cell_volume 10148.822749
_symmetry_space_group_name_H-M "R -3 C "
_symmetry_group_IT_number 167
_symmetry_cell_setting 'hexagonal'
loop_
_space_group_symop_operation_xyz
x,y,z
-y,x-y,z
-x+y,-x,z
x-y,-y,1/2-z
-x,-x+y,1/2-z
y,x,1/2-z
-x,-y,-z
y,-x+y,-z
x-y,x,-z
-x+y,y,1/2+z
x,x-y,1/2+z
-y,-x,1/2+z
2/3+x,1/3+y,1/3+z
2/3-y,1/3+x-y,1/3+z
2/3-x+y,1/3-x,1/3+z
2/3+x-y,1/3-y,5/6-z
2/3-x,1/3-x+y,5/6-z
2/3+y,1/3+x,5/6-z
2/3-x,1/3-y,1/3-z
2/3+y,1/3-x+y,1/3-z
2/3+x-y,1/3+x,1/3-z
2/3-x+y,1/3+y,5/6+z
2/3+x,1/3+x-y,5/6+z
2/3-y,1/3-x,5/6+z
1/3+x,2/3+y,2/3+z
1/3-y,2/3+x-y,2/3+z
1/3-x+y,2/3-x,2/3+z
1/3+x-y,2/3-y,1/6-z
1/3-x,2/3-x+y,1/6-z
1/3+y,2/3+x,1/6-z
1/3-x,2/3-y,2/3-z
1/3+y,2/3-x+y,2/3-z
1/3+x-y,2/3+x,2/3-z
1/3-x+y,2/3+y,1/6+z
1/3+x,2/3+x-y,1/6+z
1/3-y,2/3-x,1/6+z
loop_
_atom_site_type_symbol
_atom_site_label
_atom_site_fract_x
_atom_site_fract_y
_atom_site_fract_z
Si Si1 0.696742 0.030075 0.416667
Si Si2 0.619466 0.952799 0.916667
Si Si3 0.909983 0.975011 0.366670
Si Si4 0.876682 0.870004 0.976464
Si Si5 0.926895 0.711513 0.512011
Si Si6 0.863694 0.655073 0.748249
Si Si7 0.480995 0.900436 0.980380
O O1 0.685566 0.951412 0.426558
O O2 0.737495 0.081382 0.466031
O O3 0.562008 0.923478 0.963739
O O4 0.631241 0.028596 0.894568
O O5 0.853399 0.954107 0.319095
O O6 0.942638 0.920628 0.363495
O O7 0.866844 0.968499 0.420371
O O8 0.812482 0.790213 0.988201
O O9 0.874389 0.920773 0.021741
O O10 0.849668 0.699100 0.531426
O O11 0.813949 0.601385 0.702779
O O12 0.886483 0.736787 0.730038
#
# Coordination Sequence:
#
# PCOD8324333 Si02
#       7
#    18  18  36  36  36  36  36
#     4  12  22  46  65 103 142 166 238 292 330 438
#     4  10  22  44  69  93 130 180 230 284 340 396
#     4  10  21  38  62  98 138 177 223 273 344 407
#     4  12  21  39  62  97 138 174 214 269 345 418
#     4  11  24  40  70  97 128 182 226 281 348 402
#     4  10  23  42  68  95 130 183 221 282 350 398
#     4  10  20  44  66  90 132 180 228 278 339 411
#
# _framework density 21.283258
#
# number of rings (size 3 to 8) (size 9 to 14) (size 15 to 20)
#    0.333    1.000    3.333    3.167    0.000    0.000 
#    6.000    3.333    0.000    0.000    0.000    0.000 
#    0.000    0.000    0.000    0.000    0.000    0.000 
#
# Total GULP energy -892441.040957 kJ/mol
# GULP energy per Si atom -12395.014458 kJ/mol
# Density = 2.123482 g / cm^3
# Si number density = 21.283258 Si / 1000 Ang^3
#
#
#
# Elastic Constant Matrix: (Units=GPa)
#
#
# Indices 1 2 3 4 5 6 
#
# 1 113.1178 50.9412 46.3824 13.4396 -0.0001 0.0000
# 2 50.9412 113.1178 46.3824 -13.4396 0.0001 0.0000
# 3 46.3824 46.3824 83.7550 0.0000 0.0000 0.0000
# 4 13.4396 -13.4396 0.0000 39.0208 0.0000 0.0001
# 5 -0.0001 0.0001 0.0000 0.0000 39.0208 13.4396
# 6 0.0000 0.0000 0.0000 0.0001 13.4396 31.0883
#
#
#
# Elastic Compliance Matrix: (Units=1/GPa)
#
#
# Indices 1 2 3 4 5 6 
#
# 1 0.013885 -0.005011 -0.004914 -0.006508 0.000000 0.000000
# 2 -0.005011 0.013885 -0.004914 0.006508 0.000000 0.000000
# 3 -0.004914 -0.004914 0.017383 0.000000 0.000000 0.000000
# 4 -0.006508 0.006508 0.000000 0.030111 0.000000 0.000000
# 5 0.000000 0.000000 0.000000 0.000000 0.030111 -0.013017
# 6 0.000000 0.000000 0.000000 0.000000 -0.013017 0.037794
#
#
# Mechanical properties :
#
#
# Convention : Reuss Voigt Hill
#
# Bulk Modulus (GPa) = 64.62712 66.37805 65.50259
# Shear Modulus (GPa) = 28.08882 32.91163 30.50023
#
# Velocity S-wave (km/s) = 3.63679 3.93665 3.78969
# Velocity P-wave (km/s) = 6.93298 7.20545 7.07053
#
# Compressibility (1/GPa) = 0.01547338
#
# Stress axis : x y z
#
# Youngs Moduli (GPa) = 72.01757 72.01757 57.52877
#
# Poissons Ratio (x) = 0.36091 0.28272
# Poissons Ratio (y) = 0.36091 0.28272
# Poissons Ratio (z) = 0.35392 0.35392
#
# Static dielectric constant tensor:
#      x y z
#    x 3.766380 0.000000 0.000000 
#    y 0.000000 3.766380 0.000000 
#    z 0.000000 0.000000 3.773530 
# 
# 
# High freq. dielectric constant tensor:
#      x y z
#    x 1.827840 0.000000 0.000000 
#    y 0.000000 1.827840 0.000000 
#    z 0.000000 0.000000 1.827450 
# 
# From -- ./inp_files/5566.got.cif
#   From: 2010.03.12/outbox.cif.g09.slc.cpg/sg167_3_cif.got.tgz:5566.got - 2010.04.02 06:42:56.
