data_PCOD8324352
_publ_section_title
;
Structure prediction by ZEFSAII (Michael W. Deem and Ramdas Pophale) SiO2 
 PCOD8324352
Probable space group: R -3 C 
;
_chemical_formula_sum "Si O2"
_cell_formula_units_Z 162
_cell_length_a 20.519855
_cell_length_b 20.519855
_cell_length_c 20.198120
_cell_angle_alpha 90.000000
_cell_angle_beta 90.000000
_cell_angle_gamma 120.000000
_cell_volume 7365.295148
_symmetry_space_group_name_H-M "R -3 C "
_symmetry_group_IT_number 167
_symmetry_cell_setting 'hexagonal'
loop_
_space_group_symop_operation_xyz
x,y,z
-y,x-y,z
-x+y,-x,z
x-y,-y,1/2-z
-x,-x+y,1/2-z
y,x,1/2-z
-x,-y,-z
y,-x+y,-z
x-y,x,-z
-x+y,y,1/2+z
x,x-y,1/2+z
-y,-x,1/2+z
2/3+x,1/3+y,1/3+z
2/3-y,1/3+x-y,1/3+z
2/3-x+y,1/3-x,1/3+z
2/3+x-y,1/3-y,5/6-z
2/3-x,1/3-x+y,5/6-z
2/3+y,1/3+x,5/6-z
2/3-x,1/3-y,1/3-z
2/3+y,1/3-x+y,1/3-z
2/3+x-y,1/3+x,1/3-z
2/3-x+y,1/3+y,5/6+z
2/3+x,1/3+x-y,5/6+z
2/3-y,1/3-x,5/6+z
1/3+x,2/3+y,2/3+z
1/3-y,2/3+x-y,2/3+z
1/3-x+y,2/3-x,2/3+z
1/3+x-y,2/3-y,1/6-z
1/3-x,2/3-x+y,1/6-z
1/3+y,2/3+x,1/6-z
1/3-x,2/3-y,2/3-z
1/3+y,2/3-x+y,2/3-z
1/3+x-y,2/3+x,2/3-z
1/3-x+y,2/3+y,1/6+z
1/3+x,2/3+x-y,1/6+z
1/3-y,2/3-x,1/6+z
loop_
_atom_site_type_symbol
_atom_site_label
_atom_site_fract_x
_atom_site_fract_y
_atom_site_fract_z
Si Si1 0.163476 0.124835 0.066708
Si Si2 0.442971 0.255799 0.053519
Si Si3 0.710988 0.637817 0.214671
Si Si4 0.433071 0.099738 0.083334
Si Si5 0.791737 0.294575 0.414242
O O1 0.221763 0.190311 0.112366
O O2 0.082139 0.116584 0.076903
O O3 0.156998 0.048845 0.093195
O O4 0.198701 0.148910 0.992562
O O5 0.513353 0.333334 0.083334
O O6 0.367937 0.243808 0.090114
O O7 0.449323 0.182281 0.062847
O O8 0.441429 0.266013 0.973436
O O9 0.644486 0.644486 0.250000
O O10 0.699130 0.636089 0.135921
#
# Coordination Sequence:
#
# PCOD8324352 Si02
#       5
#    36  36  36  18  36
#     4  10  21  42  70 104 140 185 229 292 352 415
#     4  11  25  43  67 104 139 182 237 289 351 419
#     4  11  26  44  68 100 140 190 233 286 350 419
#     4  12  24  48  72  98 146 184 232 294 360 418
#     4  10  21  40  68 103 141 179 235 288 348 415
#
# _framework density 21.995045999999999
#
# number of rings (size 3 to 8) (size 9 to 14) (size 15 to 20)
#    0.000    1.333    2.222    2.444    0.000   11.556 
#    0.667    0.000    0.000    0.000    0.000    0.000 
#    0.000    0.000    0.000    0.000    0.000    0.000 
#
# Total GULP energy -669041.139702 kJ/mol
# GULP energy per Si atom -12389.650735 kJ/mol
# Density = 2.194498 g / cm^3
# Si number density = 21.995046 Si / 1000 Ang^3
#
#
#
# Elastic Constant Matrix: (Units=GPa)
#
#
# Indices 1 2 3 4 5 6 
#
# 1 110.1289 38.7120 47.5664 -1.7888 0.0000 0.0000
# 2 38.7120 110.1289 47.5664 1.7888 0.0000 0.0000
# 3 47.5664 47.5664 158.3449 0.0000 0.0000 0.0000
# 4 -1.7888 1.7888 0.0000 33.8987 0.0000 0.0000
# 5 0.0000 0.0000 0.0000 0.0000 33.8987 -1.7888
# 6 0.0000 0.0000 0.0000 0.0000 -1.7888 35.7084
#
#
#
# Elastic Compliance Matrix: (Units=1/GPa)
#
#
# Indices 1 2 3 4 5 6 
#
# 1 0.011177 -0.002862 -0.002498 0.000741 0.000000 0.000000
# 2 -0.002862 0.011177 -0.002498 -0.000741 0.000000 0.000000
# 3 -0.002498 -0.002498 0.007816 0.000000 0.000000 0.000000
# 4 0.000741 -0.000741 0.000000 0.029578 0.000000 0.000000
# 5 0.000000 0.000000 0.000000 0.000000 0.029578 0.001482
# 6 0.000000 0.000000 0.000000 0.000000 0.001482 0.028079
#
#
# Mechanical properties :
#
#
# Convention : Reuss Voigt Hill
#
# Bulk Modulus (GPa) = 69.18085 71.81025 70.49555
# Shear Modulus (GPa) = 36.24793 37.01837 36.63315
#
# Velocity S-wave (km/s) = 4.06397 4.10693 4.08550
# Velocity P-wave (km/s) = 7.31726 7.43024 7.37396
#
# Compressibility (1/GPa) = 0.01445487
#
# Stress axis : x y z
#
# Youngs Moduli (GPa) = 89.46747 89.46747 127.94247
#
# Poissons Ratio (x) = 0.25607 0.31958
# Poissons Ratio (y) = 0.25607 0.31958
# Poissons Ratio (z) = 0.22347 0.22347
#
# Static dielectric constant tensor:
#      x y z
#    x 3.817790 0.000000 0.000000 
#    y 0.000000 3.817790 0.000000 
#    z 0.000000 0.000000 4.494710 
# 
# 
# High freq. dielectric constant tensor:
#      x y z
#    x 1.856300 0.000000 0.000000 
#    y 0.000000 1.856300 0.000000 
#    z 0.000000 0.000000 1.889000 
# 
# From -- ./inp_files/4437.got.cif
#   From: 2010.03.12/outbox.cif.g09.slc.cpg/sg167_3_cif.got.tgz:4437.got - 2010.04.02 06:42:56.
