data_PCOD8324193
_publ_section_title
;
Structure prediction by ZEFSAII (Michael W. Deem and Ramdas Pophale) SiO2 
 PCOD8324193
Probable space group: R -3 M
;
_chemical_formula_sum "Si O2"
_cell_formula_units_Z 144
_cell_length_a 22.062737
_cell_length_b 22.062737
_cell_length_c 18.804530
_cell_angle_alpha 90.000000
_cell_angle_beta 90.000000
_cell_angle_gamma 120.000000
_cell_volume 7927.055354
_symmetry_space_group_name_H-M "R -3 M"
_symmetry_group_IT_number 166
_symmetry_cell_setting 'hexagonal'
loop_
_space_group_symop_operation_xyz
x,y,z
-y,x-y,z
-x+y,-x,z
x-y,-y,-z
-x,-x+y,-z
y,x,-z
-x,-y,-z
y,-x+y,-z
x-y,x,-z
-x+y,y,z
x,x-y,z
-y,-x,z
2/3+x,1/3+y,1/3+z
2/3-y,1/3+x-y,1/3+z
2/3-x+y,1/3-x,1/3+z
2/3+x-y,1/3-y,1/3-z
2/3-x,1/3-x+y,1/3-z
2/3+y,1/3+x,1/3-z
2/3-x,1/3-y,1/3-z
2/3+y,1/3-x+y,1/3-z
2/3+x-y,1/3+x,1/3-z
2/3-x+y,1/3+y,1/3+z
2/3+x,1/3+x-y,1/3+z
2/3-y,1/3-x,1/3+z
1/3+x,2/3+y,2/3+z
1/3-y,2/3+x-y,2/3+z
1/3-x+y,2/3-x,2/3+z
1/3+x-y,2/3-y,2/3-z
1/3-x,2/3-x+y,2/3-z
1/3+y,2/3+x,2/3-z
1/3-x,2/3-y,2/3-z
1/3+y,2/3-x+y,2/3-z
1/3+x-y,2/3+x,2/3-z
1/3-x+y,2/3+y,2/3+z
1/3+x,2/3+x-y,2/3+z
1/3-y,2/3-x,2/3+z
loop_
_atom_site_type_symbol
_atom_site_label
_atom_site_fract_x
_atom_site_fract_y
_atom_site_fract_z
Si Si1 0.855926 0.571515 0.532157
Si Si2 0.930801 0.208685 0.301489
Si Si3 0.207418 0.929361 0.534774
Si Si4 0.520287 0.619727 0.598179
O O1 0.775830 0.551660 0.544367
O O2 0.884842 0.556737 0.604934
O O3 0.903322 0.651644 0.509715
O O4 0.860302 0.523416 0.471075
O O5 0.873285 0.126716 0.293569
O O6 0.940350 0.232610 0.383570
O O7 0.906023 0.255375 0.257771
O O8 0.125359 0.874642 0.529805
O O9 0.217889 0.000000 0.500000
O O10 0.441817 0.558184 0.607102
O O11 0.537196 0.666667 0.666667
#
# Coordination Sequence:
#
# PCOD8324193 Si02
#       4
#    36  36  36  36
#     4  11  22  35  54  82 113 144 183 230 277 327
#     4  10  21  37  57  81 110 149 189 225 272 331
#     4  10  21  36  55  82 113 143 179 228 280 330
#     4  11  20  34  57  83 112 146 183 226 274 329
#
# _framework density 18.165635000000002
#
# number of rings (size 3 to 8) (size 9 to 14) (size 15 to 20)
#    0.000    1.500    2.500    3.750    0.000    3.000 
#    0.000    2.500    0.000    9.750    0.000    0.000 
#    0.000    0.000    0.000    0.000    0.000    0.000 
#
# Total GULP energy -595383.982734 kJ/mol
# GULP energy per Si atom -12403.832974 kJ/mol
# Density = 1.812429 g / cm^3
# Si number density = 18.165635 Si / 1000 Ang^3
#
#
#
# Elastic Constant Matrix: (Units=GPa)
#
#
# Indices 1 2 3 4 5 6 
#
# 1 112.5810 53.4690 42.2934 3.2614 -0.0006 0.0000
# 2 53.4690 112.5810 42.2934 -3.2614 0.0006 0.0000
# 3 42.2934 42.2934 59.6874 0.0000 0.0000 0.0000
# 4 3.2614 -3.2614 0.0000 53.3398 0.0000 0.0006
# 5 -0.0006 0.0006 0.0000 0.0000 53.3398 3.2614
# 6 0.0000 0.0000 0.0000 0.0006 3.2614 29.5560
#
#
#
# Elastic Compliance Matrix: (Units=1/GPa)
#
#
# Indices 1 2 3 4 5 6 
#
# 1 0.013228 -0.003804 -0.006678 -0.001041 0.000000 0.000000
# 2 -0.003804 0.013228 -0.006678 0.001041 0.000000 0.000000
# 3 -0.006678 -0.006678 0.026217 0.000000 0.000000 0.000000
# 4 -0.001041 0.001041 0.000000 0.018875 0.000000 0.000000
# 5 0.000000 0.000000 0.000000 0.000000 0.018875 -0.002083
# 6 0.000000 0.000000 0.000000 0.000000 -0.002083 0.034064
#
#
# Mechanical properties :
#
#
# Convention : Reuss Voigt Hill
#
# Bulk Modulus (GPa) = 54.48224 62.32898 58.40561
# Shear Modulus (GPa) = 30.31706 37.03337 33.67522
#
# Velocity S-wave (km/s) = 4.08968 4.52004 4.31023
# Velocity P-wave (km/s) = 7.23586 7.85028 7.54933
#
# Compressibility (1/GPa) = 0.01835460
#
# Stress axis : x y z
#
# Youngs Moduli (GPa) = 75.59775 75.59775 38.14292
#
# Poissons Ratio (x) = 0.28758 0.25470
# Poissons Ratio (y) = 0.28758 0.25470
# Poissons Ratio (z) = 0.50481 0.50481
#
# Static dielectric constant tensor:
#      x y z
#    x 3.299130 0.000000 0.000000 
#    y 0.000000 3.299130 0.000000 
#    z 0.000000 0.000000 3.284740 
# 
# 
# High freq. dielectric constant tensor:
#      x y z
#    x 1.694500 0.000000 0.000000 
#    y 0.000000 1.694500 0.000000 
#    z 0.000000 0.000000 1.710530 
# 
# From -- ./inp_files/5232.got.cif
#   From: 2010.03.12/outbox.cif.g09.slc.cpg/sg166_3_cif.got.tgz:5232.got - 2010.04.02 06:38:31.
