data_PCOD8324225
_publ_section_title
;
Structure prediction by ZEFSAII (Michael W. Deem and Ramdas Pophale) SiO2 
 PCOD8324225
Probable space group: R -3 M
;
_chemical_formula_sum "Si O2"
_cell_formula_units_Z 162
_cell_length_a 20.501076
_cell_length_b 20.501076
_cell_length_c 20.690090
_cell_angle_alpha 90.000000
_cell_angle_beta 90.000000
_cell_angle_gamma 120.000000
_cell_volume 7530.890323
_symmetry_space_group_name_H-M "R -3 M"
_symmetry_group_IT_number 166
_symmetry_cell_setting 'hexagonal'
loop_
_space_group_symop_operation_xyz
x,y,z
-y,x-y,z
-x+y,-x,z
x-y,-y,-z
-x,-x+y,-z
y,x,-z
-x,-y,-z
y,-x+y,-z
x-y,x,-z
-x+y,y,z
x,x-y,z
-y,-x,z
2/3+x,1/3+y,1/3+z
2/3-y,1/3+x-y,1/3+z
2/3-x+y,1/3-x,1/3+z
2/3+x-y,1/3-y,1/3-z
2/3-x,1/3-x+y,1/3-z
2/3+y,1/3+x,1/3-z
2/3-x,1/3-y,1/3-z
2/3+y,1/3-x+y,1/3-z
2/3+x-y,1/3+x,1/3-z
2/3-x+y,1/3+y,1/3+z
2/3+x,1/3+x-y,1/3+z
2/3-y,1/3-x,1/3+z
1/3+x,2/3+y,2/3+z
1/3-y,2/3+x-y,2/3+z
1/3-x+y,2/3-x,2/3+z
1/3+x-y,2/3-y,2/3-z
1/3-x,2/3-x+y,2/3-z
1/3+y,2/3+x,2/3-z
1/3-x,2/3-y,2/3-z
1/3+y,2/3-x+y,2/3-z
1/3+x-y,2/3+x,2/3-z
1/3-x+y,2/3+y,2/3+z
1/3+x,2/3+x-y,2/3+z
1/3-y,2/3-x,2/3+z
loop_
_atom_site_type_symbol
_atom_site_label
_atom_site_fract_x
_atom_site_fract_y
_atom_site_fract_z
Si Si1 0.653497 0.567547 0.940085
Si Si2 0.184212 0.515007 0.386635
Si Si3 0.212219 0.278803 0.043621
Si Si4 0.147046 0.147046 0.500000
Si Si5 0.640346 0.583670 0.145843
O O1 0.713707 0.643475 0.974845
O O2 0.695995 0.541938 0.889671
O O3 0.590140 0.579625 0.902227
O O4 0.624861 0.504616 0.995624
O O5 0.270418 0.540835 0.405207
O O6 0.178217 0.589109 0.369171
O O7 0.128381 0.471212 0.445865
O O8 0.140223 0.280446 0.017634
O O9 0.206240 0.268627 0.121120
O O10 0.214814 0.214814 0.000000
O O11 0.067982 0.135963 0.475223
O O12 0.705830 0.666667 0.166667
#
# Coordination Sequence:
#
# PCOD8324225 Si02
#       5
#    36  36  36  18  36
#     4  11  22  39  64  90 122 162 210 261 312 361
#     4  12  26  42  63  92 132 177 214 255 311 385
#     4  11  22  39  64  93 126 159 206 264 325 384
#     4  12  23  36  56  84 123 164 202 244 294 360
#     4  10  22  42  66  96 124 157 213 272 329 374
#
# _framework density 21.511399999999998
#
# number of rings (size 3 to 8) (size 9 to 14) (size 15 to 20)
#    0.000    0.889    3.333    7.000    0.000    4.889 
#    0.000    2.222    0.000    0.222    0.000    0.000 
#    0.000    0.000    0.000    0.000    0.000    0.000 
#
# Total GULP energy -669026.460791 kJ/mol
# GULP energy per Si atom -12389.378904 kJ/mol
# Density = 2.146244 g / cm^3
# Si number density = 21.511400 Si / 1000 Ang^3
#
#
#
# Elastic Constant Matrix: (Units=GPa)
#
#
# Indices 1 2 3 4 5 6 
#
# 1 88.2555 51.0482 50.8928 7.4121 -0.0001 0.0000
# 2 51.0482 88.2555 50.8928 -7.4121 0.0001 0.0000
# 3 50.8928 50.8928 73.9766 0.0000 0.0000 0.0000
# 4 7.4121 -7.4121 0.0000 23.6131 0.0000 0.0001
# 5 -0.0001 0.0001 0.0000 0.0000 23.6131 7.4121
# 6 0.0000 0.0000 0.0000 0.0001 7.4121 18.6037
#
#
#
# Elastic Compliance Matrix: (Units=1/GPa)
#
#
# Indices 1 2 3 4 5 6 
#
# 1 0.022576 -0.008142 -0.009930 -0.009642 0.000000 0.000000
# 2 -0.008142 0.022576 -0.009930 0.009642 0.000000 0.000000
# 3 -0.009930 -0.009930 0.027181 0.000000 0.000000 0.000000
# 4 -0.009642 0.009642 0.000000 0.048403 0.000000 0.000000
# 5 0.000000 0.000000 0.000000 0.000000 0.048403 -0.019285
# 6 0.000000 0.000000 0.000000 0.000000 -0.019285 0.061436
#
#
# Mechanical properties :
#
#
# Convention : Reuss Voigt Hill
#
# Bulk Modulus (GPa) = 61.24178 61.79503 61.51841
# Shear Modulus (GPa) = 17.12195 19.67622 18.39909
#
# Velocity S-wave (km/s) = 2.82432 3.02766 2.92775
# Velocity P-wave (km/s) = 6.25835 6.40401 6.33160
#
# Compressibility (1/GPa) = 0.01632872
#
# Stress axis : x y z
#
# Youngs Moduli (GPa) = 44.29438 44.29438 36.79047
#
# Poissons Ratio (x) = 0.36064 0.36534
# Poissons Ratio (y) = 0.36064 0.36534
# Poissons Ratio (z) = 0.43985 0.43985
#
# Static dielectric constant tensor:
#      x y z
#    x 3.658060 0.000000 0.000000 
#    y 0.000000 3.658060 0.000000 
#    z 0.000000 0.000000 4.033230 
# 
# 
# High freq. dielectric constant tensor:
#      x y z
#    x 1.828410 0.000000 0.000000 
#    y 0.000000 1.828410 0.000000 
#    z 0.000000 0.000000 1.851180 
# 
# From -- ./inp_files/6802.got.cif
#   From: 2010.03.12/outbox.cif.g09.slc.cpg/sg166_4_cif.got.tgz:6802.got - 2010.04.02 06:38:31.
