data_PCOD8324767
_publ_section_title
;
Structure prediction by ZEFSAII (Michael W. Deem and Ramdas Pophale) SiO2 
 PCOD8324767
Probable space group: P 62
;
_chemical_formula_sum "Si O2"
_cell_formula_units_Z 42
_cell_length_a 16.228624
_cell_length_b 16.228624
_cell_length_c 8.902787
_cell_angle_alpha 90.000000
_cell_angle_beta 90.000000
_cell_angle_gamma 120.000000
_cell_volume 2030.579564
_symmetry_space_group_name_H-M "P 62"
_symmetry_group_IT_number 171
_symmetry_cell_setting 'hexagonal'
loop_
_space_group_symop_operation_xyz
x,y,z
x-y,x,1/3+z
-y,x-y,2/3+z
-x,-y,z
-x+y,-x,1/3+z
y,-x+y,2/3+z
loop_
_atom_site_type_symbol
_atom_site_label
_atom_site_fract_x
_atom_site_fract_y
_atom_site_fract_z
Si Si1 0.607270 0.031483 0.239790
Si Si2 0.551867 0.211317 0.555739
Si Si3 0.912288 0.247311 0.710748
Si Si4 0.593153 0.589577 0.902600
Si Si5 0.481296 0.671098 0.336398
Si Si6 0.520943 0.237196 0.880796
Si Si7 0.254520 0.919915 0.819899
O O1 0.664543 0.126013 0.144268
O O2 0.500000 0.000000 0.206421
O O3 0.627462 0.948754 0.182159
O O4 0.632409 0.057571 0.416264
O O5 0.462612 0.110985 0.509879
O O6 0.568149 0.271804 0.403471
O O7 0.517780 0.243111 0.701868
O O8 0.652730 0.217967 0.600572
O O9 0.828899 0.245429 0.610680
O O10 0.857421 0.138200 0.773163
O O11 0.003199 0.268946 0.610224
O O12 0.500000 0.500000 0.979008
O O13 0.651556 0.673450 0.018699
O O14 0.393862 0.576859 0.268076
O O15 0.560567 0.722611 0.208113
#
# Coordination Sequence:
#
# PCOD8324767 Si02
#       7
#     6   6   6   6   6   6   6
#     4  10  22  37  61  82 122 164 210 258 311 376
#     4  12  25  36  58  90 122 169 223 267 302 373
#     4  11  23  42  62  89 123 172 216 269 331 388
#     4  11  23  37  58  86 121 165 216 266 309 365
#     4  11  24  39  57  87 123 171 216 262 315 375
#     4  12  22  37  59  84 129 177 226 265 308 365
#     4  11  25  41  64  87 126 166 219 268 337 388
#
# _framework density 20.68375
#
# number of rings (size 3 to 8) (size 9 to 14) (size 15 to 20)
#    0.000    0.857    4.286    3.429    6.000    0.000 
#    0.000    0.000    0.000    0.000    0.000    0.000 
#    0.000   44.571    0.000    0.000    0.000    0.000 
#
# Total GULP energy -520458.634927 kJ/mol
# GULP energy per Si atom -12391.872260 kJ/mol
# Density = 2.063667 g / cm^3
# Si number density = 20.683750 Si / 1000 Ang^3
#
#
#
# Elastic Constant Matrix: (Units=GPa)
#
#
# Indices 1 2 3 4 5 6 
#
# 1 84.0284 28.1787 22.9701 0.0000 0.0000 0.0000
# 2 28.1787 84.0284 22.9701 0.0000 0.0000 0.0000
# 3 22.9701 22.9701 75.0916 0.0000 0.0000 0.0000
# 4 0.0000 0.0000 0.0000 24.6980 0.0000 0.0000
# 5 0.0000 0.0000 0.0000 0.0000 24.6980 0.0000
# 6 0.0000 0.0000 0.0000 0.0000 0.0000 27.9248
#
#
#
# Elastic Compliance Matrix: (Units=1/GPa)
#
#
# Indices 1 2 3 4 5 6 
#
# 1 0.014047 -0.003859 -0.003116 0.000000 0.000000 0.000000
# 2 -0.003859 0.014047 -0.003116 0.000000 0.000000 0.000000
# 3 -0.003116 -0.003116 0.015224 0.000000 0.000000 0.000000
# 4 0.000000 0.000000 0.000000 0.040489 0.000000 0.000000
# 5 0.000000 0.000000 0.000000 0.000000 0.040489 0.000000
# 6 0.000000 0.000000 0.000000 0.000000 0.000000 0.035810
#
#
# Mechanical properties :
#
#
# Convention : Reuss Voigt Hill
#
# Bulk Modulus (GPa) = 43.22657 43.48734 43.35695
# Shear Modulus (GPa) = 26.59575 26.73279 26.66427
#
# Velocity S-wave (km/s) = 3.58973 3.59897 3.59436
# Velocity P-wave (km/s) = 6.17461 6.19198 6.18330
#
# Compressibility (1/GPa) = 0.02313392
#
# Stress axis : x y z
#
# Youngs Moduli (GPa) = 71.19146 71.19146 65.68710
#
# Poissons Ratio (x) = 0.27470 0.20471
# Poissons Ratio (y) = 0.27470 0.20471
# Poissons Ratio (z) = 0.22187 0.22187
#
# Static dielectric constant tensor:
#      x y z
#    x 3.803950 0.000000 0.000000 
#    y 0.000000 3.803950 0.000000 
#    z 0.000000 0.000000 3.972730 
# 
# 
# High freq. dielectric constant tensor:
#      x y z
#    x 1.784040 0.000000 0.000000 
#    y 0.000000 1.784040 0.000000 
#    z 0.000000 0.000000 1.830460 
# 
# From -- ./inp_files/1258.got.cif
#   From: 2010.03.12/outbox.cif.g09.slc.cpg/sg171_1_cif.got.tgz:1258.got - 2010.04.02 06:49:11.
