data_PCOD8324184
_publ_section_title
;
Structure prediction by ZEFSAII (Michael W. Deem and Ramdas Pophale) SiO2 
 PCOD8324184
Probable space group: R -3 M
;
_chemical_formula_sum "Si O2"
_cell_formula_units_Z 126
_cell_length_a 20.724562
_cell_length_b 20.724562
_cell_length_c 16.829246
_cell_angle_alpha 90.000000
_cell_angle_beta 90.000000
_cell_angle_gamma 120.000000
_cell_volume 6259.880058
_symmetry_space_group_name_H-M "R -3 M"
_symmetry_group_IT_number 166
_symmetry_cell_setting 'hexagonal'
loop_
_space_group_symop_operation_xyz
x,y,z
-y,x-y,z
-x+y,-x,z
x-y,-y,-z
-x,-x+y,-z
y,x,-z
-x,-y,-z
y,-x+y,-z
x-y,x,-z
-x+y,y,z
x,x-y,z
-y,-x,z
2/3+x,1/3+y,1/3+z
2/3-y,1/3+x-y,1/3+z
2/3-x+y,1/3-x,1/3+z
2/3+x-y,1/3-y,1/3-z
2/3-x,1/3-x+y,1/3-z
2/3+y,1/3+x,1/3-z
2/3-x,1/3-y,1/3-z
2/3+y,1/3-x+y,1/3-z
2/3+x-y,1/3+x,1/3-z
2/3-x+y,1/3+y,1/3+z
2/3+x,1/3+x-y,1/3+z
2/3-y,1/3-x,1/3+z
1/3+x,2/3+y,2/3+z
1/3-y,2/3+x-y,2/3+z
1/3-x+y,2/3-x,2/3+z
1/3+x-y,2/3-y,2/3-z
1/3-x,2/3-x+y,2/3-z
1/3+y,2/3+x,2/3-z
1/3-x,2/3-y,2/3-z
1/3+y,2/3-x+y,2/3-z
1/3+x-y,2/3+x,2/3-z
1/3-x+y,2/3+y,2/3+z
1/3+x,2/3+x-y,2/3+z
1/3-y,2/3-x,2/3+z
loop_
_atom_site_type_symbol
_atom_site_label
_atom_site_fract_x
_atom_site_fract_y
_atom_site_fract_z
Si Si1 0.261215 0.000000 0.000000
Si Si2 0.206853 0.264581 0.572066
Si Si3 0.479841 0.814440 0.373965
Si Si4 0.466636 0.081273 0.491620
O O1 0.335817 0.065461 0.960016
O O2 0.196855 0.968711 0.932935
O O3 0.247729 0.247729 0.500000
O O4 0.141284 0.282568 0.544587
O O5 0.168700 0.191759 0.625574
O O6 0.395476 0.790951 0.397650
O O7 0.486556 0.743278 0.358822
O O8 0.536250 0.861252 0.446261
O O9 0.537309 0.074617 0.516962
O O10 0.392382 0.000000 0.500000
#
# Coordination Sequence:
#
# PCOD8324184 Si02
#       4
#    18  36  36  36
#     4  12  22  38  59  90 119 162 198 248 306 366
#     4  11  24  41  61  89 127 166 208 255 308 371
#     4  10  21  39  63  89 119 157 204 254 304 362
#     4  10  20  38  59  81 114 155 198 242 295 360
#
# _framework density 20.128181000000001
#
# number of rings (size 3 to 8) (size 9 to 14) (size 15 to 20)
#    0.000    1.429    2.857    2.857    0.000    2.286 
#    0.000    1.429    0.000    4.571    0.000    5.000 
#    0.000    0.000    0.000    0.000    0.000    0.000 
#
# Total GULP energy -520527.887427 kJ/mol
# GULP energy per Si atom -12393.521129 kJ/mol
# Density = 2.008237 g / cm^3
# Si number density = 20.128181 Si / 1000 Ang^3
#
#
#
# Elastic Constant Matrix: (Units=GPa)
#
#
# Indices 1 2 3 4 5 6 
#
# 1 75.9109 37.0925 16.8884 0.7883 0.0000 0.0000
# 2 37.0925 75.9109 16.8884 -0.7883 0.0000 0.0000
# 3 16.8884 16.8884 99.7203 0.0000 0.0000 0.0000
# 4 0.7883 -0.7883 0.0000 36.1977 0.0000 0.0000
# 5 0.0000 0.0000 0.0000 0.0000 36.1977 0.7883
# 6 0.0000 0.0000 0.0000 0.0000 0.7883 19.4092
#
#
#
# Elastic Compliance Matrix: (Units=1/GPa)
#
#
# Indices 1 2 3 4 5 6 
#
# 1 0.017552 -0.008231 -0.001579 -0.000561 0.000000 0.000000
# 2 -0.008231 0.017552 -0.001579 0.000561 0.000000 0.000000
# 3 -0.001579 -0.001579 0.010563 0.000000 0.000000 0.000000
# 4 -0.000561 0.000561 0.000000 0.027651 0.000000 0.000000
# 5 0.000000 0.000000 0.000000 0.000000 0.027651 -0.001123
# 6 0.000000 0.000000 0.000000 0.000000 -0.001123 0.051568
#
#
# Mechanical properties :
#
#
# Convention : Reuss Voigt Hill
#
# Bulk Modulus (GPa) = 43.68607 43.69786 43.69197
# Shear Modulus (GPa) = 27.33081 30.40575 28.86828
#
# Velocity S-wave (km/s) = 3.68888 3.89087 3.79122
# Velocity P-wave (km/s) = 6.31624 6.47627 6.39675
#
# Compressibility (1/GPa) = 0.02289059
#
# Stress axis : x y z
#
# Youngs Moduli (GPa) = 56.97204 56.97204 94.67235
#
# Poissons Ratio (x) = 0.46896 0.14945
# Poissons Ratio (y) = 0.46896 0.14945
# Poissons Ratio (z) = 0.08994 0.08994
#
# Static dielectric constant tensor:
#      x y z
#    x 3.693320 0.000000 0.000000 
#    y 0.000000 3.693320 0.000000 
#    z 0.000000 0.000000 3.939700 
# 
# 
# High freq. dielectric constant tensor:
#      x y z
#    x 1.778710 0.000000 0.000000 
#    y 0.000000 1.778710 0.000000 
#    z 0.000000 0.000000 1.799340 
# 
# From -- ./inp_files/4918.got.cif
#   From: 2010.03.12/outbox.cif.g09.slc.cpg/sg166_3_cif.got.tgz:4918.got - 2010.04.02 06:38:31.
