data_PCOD8324379
_publ_section_title
;
Structure prediction by ZEFSAII (Michael W. Deem and Ramdas Pophale) SiO2 
 PCOD8324379
Probable space group: R -3 C 
;
_chemical_formula_sum "Si O2"
_cell_formula_units_Z 108
_cell_length_a 17.286481
_cell_length_b 17.286481
_cell_length_c 21.230009
_cell_angle_alpha 90.000000
_cell_angle_beta 90.000000
_cell_angle_gamma 120.000000
_cell_volume 5494.067569
_symmetry_space_group_name_H-M "R -3 C "
_symmetry_group_IT_number 167
_symmetry_cell_setting 'hexagonal'
loop_
_space_group_symop_operation_xyz
x,y,z
-y,x-y,z
-x+y,-x,z
x-y,-y,1/2-z
-x,-x+y,1/2-z
y,x,1/2-z
-x,-y,-z
y,-x+y,-z
x-y,x,-z
-x+y,y,1/2+z
x,x-y,1/2+z
-y,-x,1/2+z
2/3+x,1/3+y,1/3+z
2/3-y,1/3+x-y,1/3+z
2/3-x+y,1/3-x,1/3+z
2/3+x-y,1/3-y,5/6-z
2/3-x,1/3-x+y,5/6-z
2/3+y,1/3+x,5/6-z
2/3-x,1/3-y,1/3-z
2/3+y,1/3-x+y,1/3-z
2/3+x-y,1/3+x,1/3-z
2/3-x+y,1/3+y,5/6+z
2/3+x,1/3+x-y,5/6+z
2/3-y,1/3-x,5/6+z
1/3+x,2/3+y,2/3+z
1/3-y,2/3+x-y,2/3+z
1/3-x+y,2/3-x,2/3+z
1/3+x-y,2/3-y,1/6-z
1/3-x,2/3-x+y,1/6-z
1/3+y,2/3+x,1/6-z
1/3-x,2/3-y,2/3-z
1/3+y,2/3-x+y,2/3-z
1/3+x-y,2/3+x,2/3-z
1/3-x+y,2/3+y,1/6+z
1/3+x,2/3+x-y,1/6+z
1/3-y,2/3-x,1/6+z
loop_
_atom_site_type_symbol
_atom_site_label
_atom_site_fract_x
_atom_site_fract_y
_atom_site_fract_z
Si Si1 0.919494 0.166200 0.642384
Si Si2 0.410614 0.000000 0.250000
Si Si3 0.433936 0.666667 0.416667
Si Si4 0.867723 0.411103 0.347380
O O1 0.833334 0.166667 0.666667
O O2 0.979858 0.145590 0.690452
O O3 0.877243 0.093774 0.587813
O O4 0.984932 0.262521 0.614286
O O5 0.440387 0.956167 0.194659
O O6 0.420816 0.754149 0.416667
O O7 0.798550 0.307821 0.346463
#
# Coordination Sequence:
#
# PCOD8324379 Si02
#       4
#    36  18  18  36
#     4  11  24  42  68  96 137 179 225 283 354 415
#     4  10  24  41  61 100 128 172 224 280 342 419
#     4  10  26  41  69 102 140 184 234 294 352 435
#     4  10  23  39  65  92 128 168 221 273 333 402
#
# _framework density 19.657567
#
# number of rings (size 3 to 8) (size 9 to 14) (size 15 to 20)
#    0.333    1.333    0.000    2.333   11.667    5.333 
#    0.000    0.000    0.000    0.000    0.000    0.000 
#    0.000    0.000    0.000    0.000    0.000    0.000 
#
# Total GULP energy -445987.746302 kJ/mol
# GULP energy per Si atom -12388.548508 kJ/mol
# Density = 1.961283 g / cm^3
# Si number density = 19.657567 Si / 1000 Ang^3
#
#
#
# Elastic Constant Matrix: (Units=GPa)
#
#
# Indices 1 2 3 4 5 6 
#
# 1 93.9446 37.7227 60.4125 -20.8788 0.0004 0.0000
# 2 37.7227 93.9446 60.4125 20.8788 -0.0004 0.0000
# 3 60.4125 60.4125 162.6351 0.0000 0.0000 0.0000
# 4 -20.8788 20.8788 0.0000 76.2766 0.0000 -0.0004
# 5 0.0004 -0.0004 0.0000 0.0000 76.2766 -20.8788
# 6 0.0000 0.0000 0.0000 -0.0004 -20.8788 28.1109
#
#
#
# Elastic Compliance Matrix: (Units=1/GPa)
#
#
# Indices 1 2 3 4 5 6 
#
# 1 0.016924 -0.005401 -0.004280 0.006111 0.000000 0.000000
# 2 -0.005401 0.016924 -0.004280 -0.006111 0.000000 0.000000
# 3 -0.004280 -0.004280 0.009329 0.000000 0.000000 0.000000
# 4 0.006111 -0.006111 0.000000 0.016456 0.000000 0.000000
# 5 0.000000 0.000000 0.000000 0.000000 0.016456 0.012222
# 6 0.000000 0.000000 0.000000 0.000000 0.012222 0.044651
#
#
# Mechanical properties :
#
#
# Convention : Reuss Voigt Hill
#
# Bulk Modulus (GPa) = 65.56062 74.17998 69.87030
# Shear Modulus (GPa) = 32.52091 48.93125 40.72608
#
# Velocity S-wave (km/s) = 4.07181 4.99458 4.55661
# Velocity P-wave (km/s) = 7.45184 8.43084 7.95641
#
# Compressibility (1/GPa) = 0.01525306
#
# Stress axis : x y z
#
# Youngs Moduli (GPa) = 59.08736 59.08736 107.19732
#
# Poissons Ratio (x) = 0.31916 0.45883
# Poissons Ratio (y) = 0.31916 0.45883
# Poissons Ratio (z) = 0.25291 0.25291
#
# Static dielectric constant tensor:
#      x y z
#    x 3.543960 0.000000 0.000000 
#    y 0.000000 3.543960 0.000000 
#    z 0.000000 0.000000 3.739590 
# 
# 
# High freq. dielectric constant tensor:
#      x y z
#    x 1.775860 0.000000 0.000000 
#    y 0.000000 1.775860 0.000000 
#    z 0.000000 0.000000 1.782140 
# 
# From -- ./inp_files/2975.got.cif
#   From: 2010.03.12/outbox.cif.g09.slc.cpg/sg167_2_cif.got.tgz:2975.got - 2010.04.02 06:42:56.
