data_PCOD8324562
_publ_section_title
;
Structure prediction by ZEFSAII (Michael W. Deem and Ramdas Pophale) SiO2 
 PCOD8324562
Probable space group: P 61
;
_chemical_formula_sum "Si O2"
_cell_formula_units_Z 48
_cell_length_a 15.118533
_cell_length_b 15.118533
_cell_length_c 11.003929
_cell_angle_alpha 90.000000
_cell_angle_beta 90.000000
_cell_angle_gamma 120.000000
_cell_volume 2178.199809
_symmetry_space_group_name_H-M "P 61"
_symmetry_group_IT_number 169
_symmetry_cell_setting 'hexagonal'
loop_
_space_group_symop_operation_xyz
x,y,z
x-y,x,1/6+z
-y,x-y,1/3+z
-x,-y,1/2+z
-x+y,-x,2/3+z
y,-x+y,5/6+z
loop_
_atom_site_type_symbol
_atom_site_label
_atom_site_fract_x
_atom_site_fract_y
_atom_site_fract_z
Si Si1 0.075768 0.599759 0.890070
Si Si2 0.244811 0.294689 0.077326
Si Si3 0.365644 0.760221 0.715559
Si Si4 0.719400 0.461256 0.121537
Si Si5 0.974177 0.821409 0.967562
Si Si6 0.366496 0.261976 0.877989
Si Si7 0.596401 0.967221 0.004455
Si Si8 0.372460 0.316524 0.423081
O O1 0.091041 0.682959 0.792995
O O2 0.012013 0.491194 0.824334
O O3 0.188326 0.624025 0.930311
O O4 0.016025 0.603528 0.007705
O O5 0.181152 0.220589 0.187728
O O6 0.163324 0.308411 0.995057
O O7 0.312341 0.258004 0.005819
O O8 0.300615 0.638967 0.694707
O O9 0.437336 0.780417 0.830711
O O10 0.298968 0.814427 0.736574
O O11 0.686184 0.531979 0.196587
O O12 0.839760 0.521860 0.102242
O O13 0.897362 0.855019 0.909551
O O14 0.917574 0.709105 0.028774
O O15 0.347219 0.331940 0.787207
O O16 0.667626 0.998356 0.884909
#
# Coordination Sequence:
#
# PCOD8324562 Si02
#       8
#     6   6   6   6   6   6   6   6
#     4  10  23  42  69  95 140 187 244 294 358 428
#     4  11  23  43  72 100 140 187 242 298 361 439
#     4  11  25  41  65 101 138 192 239 294 351 437
#     4  12  25  42  67  96 141 182 242 292 363 428
#     4  11  24  49  78 107 136 184 240 300 363 444
#     4  11  26  42  70 103 145 189 241 301 373 433
#     4  11  25  44  62 102 147 190 239 302 370 443
#     4  11  25  43  71 102 139 191 237 299 367 442
#
# _framework density 22.036546999999999
#
# number of rings (size 3 to 8) (size 9 to 14) (size 15 to 20)
#    0.000    1.000    2.500    3.000   10.500    1.000 
#    0.000    2.500    0.000    0.000    0.000    0.000 
#    0.000    0.000    0.000    0.000    0.000    0.000 
#
# Total GULP energy -595220.612327 kJ/mol
# GULP energy per Si atom -12400.429423 kJ/mol
# Density = 2.198639 g / cm^3
# Si number density = 22.036547 Si / 1000 Ang^3
#
#
#
# Elastic Constant Matrix: (Units=GPa)
#
#
# Indices 1 2 3 4 5 6 
#
# 1 106.0642 62.0873 34.9965 0.0000 0.0000 0.0000
# 2 62.0873 106.0642 34.9965 0.0000 0.0000 0.0000
# 3 34.9965 34.9965 78.6466 0.0000 0.0000 0.0000
# 4 0.0000 0.0000 0.0000 25.9539 0.0000 0.0000
# 5 0.0000 0.0000 0.0000 0.0000 25.9539 0.0000
# 6 0.0000 0.0000 0.0000 0.0000 0.0000 21.9884
#
#
#
# Elastic Compliance Matrix: (Units=1/GPa)
#
#
# Indices 1 2 3 4 5 6 
#
# 1 0.015019 -0.007720 -0.003248 0.000000 0.000000 0.000000
# 2 -0.007720 0.015019 -0.003248 0.000000 0.000000 0.000000
# 3 -0.003248 -0.003248 0.015606 0.000000 0.000000 0.000000
# 4 0.000000 0.000000 0.000000 0.038530 0.000000 0.000000
# 5 0.000000 0.000000 0.000000 0.000000 0.038530 0.000000
# 6 0.000000 0.000000 0.000000 0.000000 0.000000 0.045478
#
#
# Mechanical properties :
#
#
# Convention : Reuss Voigt Hill
#
# Bulk Modulus (GPa) = 58.09938 61.65953 59.87945
# Shear Modulus (GPa) = 24.70952 25.35890 25.03421
#
# Velocity S-wave (km/s) = 3.35221 3.39597 3.37416
# Velocity P-wave (km/s) = 6.43470 6.58925 6.51243
#
# Compressibility (1/GPa) = 0.01721189
#
# Stress axis : x y z
#
# Youngs Moduli (GPa) = 66.58192 66.58192 64.07929
#
# Poissons Ratio (x) = 0.51402 0.20812
# Poissons Ratio (y) = 0.51402 0.20812
# Poissons Ratio (z) = 0.21625 0.21625
#
# Static dielectric constant tensor:
#      x y z
#    x 3.966680 0.000000 0.000000 
#    y 0.000000 3.966680 0.000000 
#    z 0.000000 0.000000 3.867370 
# 
# 
# High freq. dielectric constant tensor:
#      x y z
#    x 1.873010 0.000000 0.000000 
#    y 0.000000 1.873010 0.000000 
#    z 0.000000 0.000000 1.862610 
# 
# From -- ./inp_files/1035.got.cif
#   From: 2010.03.12/outbox.cif.g09.slc.cpg/sg169_cif.got.tgz:1035.got - 2010.04.02 06:46:06.
