data_PCOD8324876
_publ_section_title
;
Structure prediction by ZEFSAII (Michael W. Deem and Ramdas Pophale) SiO2 
 PCOD8324876
Probable space group: P 63
;
_chemical_formula_sum "Si O2"
_cell_formula_units_Z 30
_cell_length_a 8.361281
_cell_length_b 8.361281
_cell_length_c 23.848065
_cell_angle_alpha 90.000000
_cell_angle_beta 90.000000
_cell_angle_gamma 120.000000
_cell_volume 1443.874401
_symmetry_space_group_name_H-M "P 63"
_symmetry_group_IT_number 173
_symmetry_cell_setting 'hexagonal'
loop_
_space_group_symop_operation_xyz
x,y,z
x-y,x,1/2+z
-y,x-y,z
-x,-y,1/2+z
-x+y,-x,z
y,-x+y,1/2+z
loop_
_atom_site_type_symbol
_atom_site_label
_atom_site_fract_x
_atom_site_fract_y
_atom_site_fract_z
Si Si1 0.658067 0.001161 0.500000
Si Si2 0.874833 0.536695 0.272277
Si Si3 0.324512 0.998560 0.546796
Si Si4 0.004104 0.207819 0.670100
Si Si5 0.646902 0.528959 0.878114
O O1 0.740965 0.873286 0.518854
O O2 0.629224 0.994756 0.433575
O O3 0.464412 0.926144 0.532173
O O4 0.799951 0.208306 0.519126
O O5 0.670803 0.517027 0.271284
O O6 0.991069 0.659665 0.219603
O O7 0.990110 0.640595 0.327226
O O8 0.306627 0.001157 0.613334
O O9 0.183589 0.179593 0.673258
O O10 0.476948 0.315700 0.876340
#
# Coordination Sequence:
#
# PCOD8324876 Si02
#       5
#     6   6   6   6   6
#     4  12  24  44  69 103 137 180 226 286 355 419
#     4  10  26  40  66  96 129 179 231 286 331 396
#     4  12  24  44  69 103 137 178 228 288 350 424
#     4  10  23  44  67  92 133 173 224 275 345 411
#     4  10  23  44  67  94 134 178 223 277 341 406
#
# _framework density 20.777432000000001
#
# number of rings (size 3 to 8) (size 9 to 14) (size 15 to 20)
#    1.200    0.000    4.000    1.200    8.400    0.000 
#    0.000    0.000    0.000    0.000    0.000    0.000 
#    0.000    0.000    0.000    0.000    0.000    0.000 
#
# Total GULP energy -371912.971956 kJ/mol
# GULP energy per Si atom -12397.099065 kJ/mol
# Density = 2.073014 g / cm^3
# Si number density = 20.777432 Si / 1000 Ang^3
#
#
#
# Elastic Constant Matrix: (Units=GPa)
#
#
# Indices 1 2 3 4 5 6 
#
# 1 66.9757 22.9964 59.3105 0.0000 0.0000 0.0000
# 2 22.9964 66.9757 59.3105 0.0000 0.0000 0.0000
# 3 59.3105 59.3105 227.8685 0.0000 0.0000 0.0000
# 4 0.0000 0.0000 0.0000 32.5551 0.0000 0.0000
# 5 0.0000 0.0000 0.0000 0.0000 32.5551 0.0000
# 6 0.0000 0.0000 0.0000 0.0000 0.0000 21.9897
#
#
#
# Elastic Compliance Matrix: (Units=1/GPa)
#
#
# Indices 1 2 3 4 5 6 
#
# 1 0.019830 -0.002908 -0.004404 0.000000 0.000000 0.000000
# 2 -0.002908 0.019830 -0.004404 0.000000 0.000000 0.000000
# 3 -0.004404 -0.004404 0.006681 0.000000 0.000000 0.000000
# 4 0.000000 0.000000 0.000000 0.030717 0.000000 0.000000
# 5 0.000000 0.000000 0.000000 0.000000 0.030717 0.000000
# 6 0.000000 0.000000 0.000000 0.000000 0.000000 0.045476
#
#
# Mechanical properties :
#
#
# Convention : Reuss Voigt Hill
#
# Bulk Modulus (GPa) = 43.65570 71.67278 57.66424
# Shear Modulus (GPa) = 27.12669 32.10014 29.61341
#
# Velocity S-wave (km/s) = 3.61721 3.93485 3.77937
# Velocity P-wave (km/s) = 6.20502 7.43064 6.84532
#
# Compressibility (1/GPa) = 0.02290652
#
# Stress axis : x y z
#
# Youngs Moduli (GPa) = 50.42953 50.42953 149.67231
#
# Poissons Ratio (x) = 0.14666 0.65921
# Poissons Ratio (y) = 0.14666 0.65921
# Poissons Ratio (z) = 0.22211 0.22211
#
# Static dielectric constant tensor:
#      x y z
#    x 3.514560 0.000000 0.000000 
#    y 0.000000 3.514560 0.000000 
#    z 0.000000 0.000000 3.602050 
# 
# 
# High freq. dielectric constant tensor:
#      x y z
#    x 1.801320 0.000000 0.000000 
#    y 0.000000 1.801320 0.000000 
#    z 0.000000 0.000000 1.820780 
# 
# From -- ./inp_files/1420.got.cif
#   From: 2010.03.12/outbox.cif.g09.slc.cpg/sg173_cif.got.tgz:1420.got - 2010.04.02 06:54:12.
