data_PCOD8324773
_publ_section_title
;
Structure prediction by ZEFSAII (Michael W. Deem and Ramdas Pophale) SiO2 
 PCOD8324773
Probable space group: P 62
;
_chemical_formula_sum "Si O2"
_cell_formula_units_Z 39
_cell_length_a 8.515676
_cell_length_b 8.515676
_cell_length_c 29.619164
_cell_angle_alpha 90.000000
_cell_angle_beta 90.000000
_cell_angle_gamma 120.000000
_cell_volume 1860.123102
_symmetry_space_group_name_H-M "P 62"
_symmetry_group_IT_number 171
_symmetry_cell_setting 'hexagonal'
loop_
_space_group_symop_operation_xyz
x,y,z
x-y,x,1/3+z
-y,x-y,2/3+z
-x,-y,z
-x+y,-x,1/3+z
y,-x+y,2/3+z
loop_
_atom_site_type_symbol
_atom_site_label
_atom_site_fract_x
_atom_site_fract_y
_atom_site_fract_z
Si Si1 0.841224 0.806267 0.605240
Si Si2 0.338594 0.525081 0.936240
Si Si3 0.110367 0.703833 0.081132
Si Si4 0.734434 0.442979 0.838969
Si Si5 0.885719 0.200929 0.842551
Si Si6 0.000000 0.000000 0.108447
Si Si7 0.680707 0.181208 0.996362
O O1 0.660058 0.813516 0.601832
O O2 0.890690 0.739517 0.558691
O O3 0.825136 0.679538 0.646043
O O4 0.000000 0.000000 0.618969
O O5 0.500000 0.500000 0.954782
O O6 0.384170 0.600829 0.884752
O O7 0.324060 0.655872 0.971904
O O8 0.156383 0.656643 0.130350
O O9 0.000000 0.500000 0.059674
O O10 0.022350 0.840305 0.082169
O O11 0.292041 0.799543 0.050575
O O12 0.736780 0.256636 0.828541
O O13 0.930162 0.612091 0.847581
O O14 0.886459 0.064256 0.805634
O O15 0.500000 0.000000 0.984181
#
# Coordination Sequence:
#
# PCOD8324773 Si02
#       7
#     6   6   6   6   6   3   6
#     4  11  21  39  67  95 132 178 221 274 336 404
#     4  11  22  42  68 100 134 174 225 281 341 405
#     4  11  25  46  67  96 135 179 230 281 349 419
#     4   9  19  37  67  95 132 171 216 277 340 394
#     4   9  17  35  64  98 128 169 219 274 334 398
#     4  10  22  40  70  98 132 176 224 282 342 414
#     4  12  27  45  64  96 135 179 229 284 341 413
#
# _framework density 20.966352000000001
#
# number of rings (size 3 to 8) (size 9 to 14) (size 15 to 20)
#    0.000    1.538    2.308    2.769    5.385    0.000 
#    5.538    0.769    0.000    0.000    0.000    0.000 
#    0.000    0.000    0.000    0.000    0.000    0.000 
#
# Total GULP energy -483157.411415 kJ/mol
# GULP energy per Si atom -12388.651575 kJ/mol
# Density = 2.091863 g / cm^3
# Si number density = 20.966352 Si / 1000 Ang^3
#
#
#
# Elastic Constant Matrix: (Units=GPa)
#
#
# Indices 1 2 3 4 5 6 
#
# 1 114.7198 49.2157 34.8000 0.0000 0.0000 0.0000
# 2 49.2157 114.7198 34.8000 0.0000 0.0000 0.0000
# 3 34.8000 34.8000 97.6477 0.0000 0.0000 0.0000
# 4 0.0000 0.0000 0.0000 28.4239 0.0000 0.0000
# 5 0.0000 0.0000 0.0000 0.0000 28.4239 0.0000
# 6 0.0000 0.0000 0.0000 0.0000 0.0000 32.7520
#
#
#
# Elastic Compliance Matrix: (Units=1/GPa)
#
#
# Indices 1 2 3 4 5 6 
#
# 1 0.011227 -0.004039 -0.002561 0.000000 0.000000 0.000000
# 2 -0.004039 0.011227 -0.002561 0.000000 0.000000 0.000000
# 3 -0.002561 -0.002561 0.012067 0.000000 0.000000 0.000000
# 4 0.000000 0.000000 0.000000 0.035182 0.000000 0.000000
# 5 0.000000 0.000000 0.000000 0.000000 0.035182 0.000000
# 6 0.000000 0.000000 0.000000 0.000000 0.000000 0.030532
#
#
# Mechanical properties :
#
#
# Convention : Reuss Voigt Hill
#
# Bulk Modulus (GPa) = 61.74514 62.74650 62.24582
# Shear Modulus (GPa) = 31.41900 31.80474 31.61187
#
# Velocity S-wave (km/s) = 3.87530 3.89902 3.88718
# Velocity P-wave (km/s) = 7.03829 7.08957 7.06398
#
# Compressibility (1/GPa) = 0.01619561
#
# Stress axis : x y z
#
# Youngs Moduli (GPa) = 89.07227 89.07227 82.87312
#
# Poissons Ratio (x) = 0.35980 0.21228
# Poissons Ratio (y) = 0.35980 0.21228
# Poissons Ratio (z) = 0.22816 0.22816
#
# Static dielectric constant tensor:
#      x y z
#    x 3.883620 0.000000 0.000000 
#    y 0.000000 3.883620 0.000000 
#    z 0.000000 0.000000 3.856900 
# 
# 
# High freq. dielectric constant tensor:
#      x y z
#    x 1.817780 0.000000 0.000000 
#    y 0.000000 1.817780 0.000000 
#    z 0.000000 0.000000 1.822590 
# 
# From -- ./inp_files/6004.got.cif
#   From: 2010.03.12/outbox.cif.g09.slc.cpg/sg171_4_cif.got.tgz:6004.got - 2010.04.02 06:49:11.
