data_PCOD8324486
_publ_section_title
;
Structure prediction by ZEFSAII (Michael W. Deem and Ramdas Pophale) SiO2 
 PCOD8324486
Probable space group: P 61
;
_chemical_formula_sum "Si O2"
_cell_formula_units_Z 30
_cell_length_a 12.222814
_cell_length_b 12.222814
_cell_length_c 12.365571
_cell_angle_alpha 90.000000
_cell_angle_beta 90.000000
_cell_angle_gamma 120.000000
_cell_volume 1599.879277
_symmetry_space_group_name_H-M "P 61"
_symmetry_group_IT_number 169
_symmetry_cell_setting 'hexagonal'
loop_
_space_group_symop_operation_xyz
x,y,z
x-y,x,1/6+z
-y,x-y,1/3+z
-x,-y,1/2+z
-x+y,-x,2/3+z
y,-x+y,5/6+z
loop_
_atom_site_type_symbol
_atom_site_label
_atom_site_fract_x
_atom_site_fract_y
_atom_site_fract_z
Si Si1 0.784098 0.588173 0.376950
Si Si2 0.413415 0.614279 0.366529
Si Si3 0.319738 0.844322 0.928275
Si Si4 0.183449 0.987705 0.847696
Si Si5 0.441500 0.018505 0.561892
O O1 0.727406 0.469348 0.460069
O O2 0.789236 0.707306 0.434707
O O3 0.698101 0.551108 0.270006
O O4 0.925578 0.621555 0.341365
O O5 0.264835 0.521945 0.351240
O O6 0.438475 0.655593 0.490157
O O7 0.487449 0.540063 0.332078
O O8 0.225307 0.895661 0.902934
O O9 0.452044 0.954955 0.973894
O O10 0.058857 0.906327 0.775155
#
# Coordination Sequence:
#
# PCOD8324486 Si02
#       5
#     6   6   6   6   6
#     4  10  19  40  62  92 118 170 217 254 318 387
#     4  10  23  37  63  91 124 167 204 270 325 390
#     4  12  22  40  62  96 132 162 214 270 338 394
#     4  12  22  42  72  91 126 182 228 258 320 403
#     4  10  22  35  63  92 120 161 211 266 315 390
#
# _framework density 18.751412999999999
#
# number of rings (size 3 to 8) (size 9 to 14) (size 15 to 20)
#    1.200    0.000    6.000    2.400    0.000    0.000 
#    3.600    2.000    0.000    0.000    0.000    0.000 
#    0.000    0.000    0.000    0.000    0.000    0.000 
#
# Total GULP energy -371905.110487 kJ/mol
# GULP energy per Si atom -12396.837016 kJ/mol
# Density = 1.870873 g / cm^3
# Si number density = 18.751413 Si / 1000 Ang^3
#
#
#
# Elastic Constant Matrix: (Units=GPa)
#
#
# Indices 1 2 3 4 5 6 
#
# 1 90.7407 35.1108 31.4004 0.0000 0.0000 0.0000
# 2 35.1108 90.7407 31.4004 0.0000 0.0000 0.0000
# 3 31.4004 31.4004 67.2958 0.0000 0.0000 0.0000
# 4 0.0000 0.0000 0.0000 36.1340 0.0000 0.0000
# 5 0.0000 0.0000 0.0000 0.0000 36.1340 0.0000
# 6 0.0000 0.0000 0.0000 0.0000 0.0000 27.8149
#
#
#
# Elastic Compliance Matrix: (Units=1/GPa)
#
#
# Indices 1 2 3 4 5 6 
#
# 1 0.014167 -0.003809 -0.004833 0.000000 0.000000 0.000000
# 2 -0.003809 0.014167 -0.004833 0.000000 0.000000 0.000000
# 3 -0.004833 -0.004833 0.019370 0.000000 0.000000 0.000000
# 4 0.000000 0.000000 0.000000 0.027675 0.000000 0.000000
# 5 0.000000 0.000000 0.000000 0.000000 0.027675 0.000000
# 6 0.000000 0.000000 0.000000 0.000000 0.000000 0.035952
#
#
# Mechanical properties :
#
#
# Convention : Reuss Voigt Hill
#
# Bulk Modulus (GPa) = 48.18477 49.40004 48.79240
# Shear Modulus (GPa) = 28.92307 30.07427 29.49867
#
# Velocity S-wave (km/s) = 3.93166 4.00914 3.97059
# Velocity P-wave (km/s) = 6.80904 6.91613 6.86279
#
# Compressibility (1/GPa) = 0.02075345
#
# Stress axis : x y z
#
# Youngs Moduli (GPa) = 70.58794 70.58794 51.62674
#
# Poissons Ratio (x) = 0.26889 0.24950
# Poissons Ratio (y) = 0.26889 0.24950
# Poissons Ratio (z) = 0.34114 0.34114
#
# Static dielectric constant tensor:
#      x y z
#    x 3.388950 0.000000 0.000000 
#    y 0.000000 3.388950 0.000000 
#    z 0.000000 0.000000 3.229760 
# 
# 
# High freq. dielectric constant tensor:
#      x y z
#    x 1.725740 0.000000 0.000000 
#    y 0.000000 1.725740 0.000000 
#    z 0.000000 0.000000 1.713190 
# 
# From -- ./inp_files/1133.got.cif
#   From: 2010.03.12/outbox.cif.g09.slc.cpg/sg169_cif.got.tgz:1133.got - 2010.04.02 06:46:06.
