data_PCOD8324849
_publ_section_title
;
Structure prediction by ZEFSAII (Michael W. Deem and Ramdas Pophale) SiO2 
 PCOD8324849
Probable space group: P 63
;
_chemical_formula_sum "Si O2"
_cell_formula_units_Z 42
_cell_length_a 8.604181
_cell_length_b 8.604181
_cell_length_c 30.204496
_cell_angle_alpha 90.000000
_cell_angle_beta 90.000000
_cell_angle_gamma 120.000000
_cell_volume 1936.516941
_symmetry_space_group_name_H-M "P 63"
_symmetry_group_IT_number 173
_symmetry_cell_setting 'hexagonal'
loop_
_space_group_symop_operation_xyz
x,y,z
x-y,x,1/2+z
-y,x-y,z
-x,-y,1/2+z
-x+y,-x,z
y,-x+y,1/2+z
loop_
_atom_site_type_symbol
_atom_site_label
_atom_site_fract_x
_atom_site_fract_y
_atom_site_fract_z
Si Si1 0.988639 0.321671 0.112430
Si Si2 0.213244 0.028586 0.206492
Si Si3 0.337532 0.011498 0.474272
Si Si4 0.341654 0.009137 0.835726
Si Si5 0.321391 0.332473 0.800729
Si Si6 0.670925 0.659277 0.939076
Si Si7 0.990439 0.331535 0.577492
O O1 0.139587 0.272373 0.099834
O O2 0.951636 0.288187 0.164634
O O3 0.807760 0.196788 0.085164
O O4 0.053755 0.525814 0.099924
O O5 0.335200 0.047568 0.248538
O O6 0.162813 0.187871 0.206424
O O7 0.366663 0.054058 0.525922
O O8 0.135035 0.860633 0.463015
O O9 0.386966 0.193112 0.448261
O O10 0.468789 0.941277 0.458794
O O11 0.272367 0.132807 0.813876
O O12 0.527852 0.053587 0.812908
O O13 0.192178 0.803213 0.827892
O O14 0.368571 0.052267 0.887345
#
# Coordination Sequence:
#
# PCOD8324849 Si02
#       7
#     6   6   6   6   6   6   6
#     4  12  25  43  72  98 139 172 222 278 329 404
#     4  10  20  46  72 100 130 170 214 268 342 388
#     4  12  25  43  67  95 137 180 229 279 331 390
#     4  12  24  44  66 103 132 182 224 276 335 391
#     4  12  25  43  72  98 139 172 222 278 329 404
#     4  12  25  43  67  95 137 180 229 279 331 390
#     4  12  24  44  66 103 132 182 224 276 335 391
#
# _framework density 21.688424000000001
#
# number of rings (size 3 to 8) (size 9 to 14) (size 15 to 20)
#    0.286    0.000    2.857    7.714    0.000    2.286 
#    0.000    0.000    0.000    0.000    0.000    0.000 
#    0.000    0.000    0.000    0.000    0.000    0.000 
#
# Total GULP energy -521199.818274 kJ/mol
# GULP energy per Si atom -12409.519483 kJ/mol
# Density = 2.163906 g / cm^3
# Si number density = 21.688424 Si / 1000 Ang^3
#
#
#
# Elastic Constant Matrix: (Units=GPa)
#
#
# Indices 1 2 3 4 5 6 
#
# 1 87.8552 12.0096 24.9276 0.0000 0.0000 0.0000
# 2 12.0096 87.8552 24.9276 0.0000 0.0000 0.0000
# 3 24.9276 24.9276 117.0331 0.0000 0.0000 0.0000
# 4 0.0000 0.0000 0.0000 26.8613 0.0000 0.0000
# 5 0.0000 0.0000 0.0000 0.0000 26.8613 0.0000
# 6 0.0000 0.0000 0.0000 0.0000 0.0000 37.9228
#
#
#
# Elastic Compliance Matrix: (Units=1/GPa)
#
#
# Indices 1 2 3 4 5 6 
#
# 1 0.012195 -0.000990 -0.002387 0.000000 0.000000 0.000000
# 2 -0.000990 0.012195 -0.002387 0.000000 0.000000 0.000000
# 3 -0.002387 -0.002387 0.009561 0.000000 0.000000 0.000000
# 4 0.000000 0.000000 0.000000 0.037228 0.000000 0.000000
# 5 0.000000 0.000000 0.000000 0.000000 0.037228 0.000000
# 6 0.000000 0.000000 0.000000 0.000000 0.000000 0.026369
#
#
# Mechanical properties :
#
#
# Convention : Reuss Voigt Hill
#
# Bulk Modulus (GPa) = 44.59350 46.27479 45.43414
# Shear Modulus (GPa) = 32.51441 33.72099 33.11770
#
# Velocity S-wave (km/s) = 3.87610 3.94736 3.91189
# Velocity P-wave (km/s) = 6.37478 6.49292 6.43412
#
# Compressibility (1/GPa) = 0.02242479
#
# Stress axis : x y z
#
# Youngs Moduli (GPa) = 82.00185 82.00185 104.58864
#
# Poissons Ratio (x) = 0.08117 0.24961
# Poissons Ratio (y) = 0.08117 0.24961
# Poissons Ratio (z) = 0.19571 0.19571
#
# Static dielectric constant tensor:
#      x y z
#    x 3.737790 0.000000 0.000000 
#    y 0.000000 3.737790 0.000000 
#    z 0.000000 0.000000 3.923630 
# 
# 
# High freq. dielectric constant tensor:
#      x y z
#    x 1.851930 0.000000 0.000000 
#    y 0.000000 1.851930 0.000000 
#    z 0.000000 0.000000 1.867270 
# 
# From -- ./inp_files/1512.got.cif
#   From: 2010.03.12/outbox.cif.g09.slc.cpg/sg173_cif.got.tgz:1512.got - 2010.04.02 06:54:12.
