data_PCOD8324325
_publ_section_title
;
Structure prediction by ZEFSAII (Michael W. Deem and Ramdas Pophale) SiO2 
 PCOD8324325
Probable space group: R -3 C 
;
_chemical_formula_sum "Si O2"
_cell_formula_units_Z 144
_cell_length_a 17.447599
_cell_length_b 17.447599
_cell_length_c 27.719375
_cell_angle_alpha 90.000000
_cell_angle_beta 90.000000
_cell_angle_gamma 120.000000
_cell_volume 7307.779050
_symmetry_space_group_name_H-M "R -3 C "
_symmetry_group_IT_number 167
_symmetry_cell_setting 'hexagonal'
loop_
_space_group_symop_operation_xyz
x,y,z
-y,x-y,z
-x+y,-x,z
x-y,-y,1/2-z
-x,-x+y,1/2-z
y,x,1/2-z
-x,-y,-z
y,-x+y,-z
x-y,x,-z
-x+y,y,1/2+z
x,x-y,1/2+z
-y,-x,1/2+z
2/3+x,1/3+y,1/3+z
2/3-y,1/3+x-y,1/3+z
2/3-x+y,1/3-x,1/3+z
2/3+x-y,1/3-y,5/6-z
2/3-x,1/3-x+y,5/6-z
2/3+y,1/3+x,5/6-z
2/3-x,1/3-y,1/3-z
2/3+y,1/3-x+y,1/3-z
2/3+x-y,1/3+x,1/3-z
2/3-x+y,1/3+y,5/6+z
2/3+x,1/3+x-y,5/6+z
2/3-y,1/3-x,5/6+z
1/3+x,2/3+y,2/3+z
1/3-y,2/3+x-y,2/3+z
1/3-x+y,2/3-x,2/3+z
1/3+x-y,2/3-y,1/6-z
1/3-x,2/3-x+y,1/6-z
1/3+y,2/3+x,1/6-z
1/3-x,2/3-y,2/3-z
1/3+y,2/3-x+y,2/3-z
1/3+x-y,2/3+x,2/3-z
1/3-x+y,2/3+y,1/6+z
1/3+x,2/3+x-y,1/6+z
1/3-y,2/3-x,1/6+z
loop_
_atom_site_type_symbol
_atom_site_label
_atom_site_fract_x
_atom_site_fract_y
_atom_site_fract_z
Si Si1 0.086390 0.470169 0.274676
Si Si2 0.802932 0.289985 0.313693
Si Si3 0.947395 0.435254 0.644373
Si Si4 0.033083 0.456437 0.962553
O O1 0.171015 0.510408 0.238653
O O2 0.101813 0.524780 0.323934
O O3 0.059866 0.371645 0.288191
O O4 0.000000 0.465076 0.250000
O O5 0.699714 0.213119 0.313815
O O6 0.862970 0.245923 0.326632
O O7 0.945499 0.456369 0.587578
O O8 0.882458 0.330524 0.651555
O O9 0.000000 0.500000 0.000000
#
# Coordination Sequence:
#
# PCOD8324325 Si02
#       4
#    36  36  36  36
#     4  11  20  38  59  86 121 156 195 243 302 351
#     4  11  21  36  58  86 123 157 190 249 301 356
#     4  10  20  40  61  84 121 157 196 245 298 358
#     4  10  21  39  59  90 118 152 205 250 287 358
#
# _framework density 19.705027999999999
#
# number of rings (size 3 to 8) (size 9 to 14) (size 15 to 20)
#    0.000    1.500    7.500    0.250    0.000    5.000 
#    4.500    0.000    0.000    1.000    0.000    0.000 
#    0.000    0.000    0.000    0.000    0.000    0.000 
#
# Total GULP energy -594788.003339 kJ/mol
# GULP energy per Si atom -12391.416736 kJ/mol
# Density = 1.966018 g / cm^3
# Si number density = 19.705028 Si / 1000 Ang^3
#
#
#
# Elastic Constant Matrix: (Units=GPa)
#
#
# Indices 1 2 3 4 5 6 
#
# 1 56.7466 6.0273 40.8635 9.2946 0.0000 0.0000
# 2 6.0273 56.7466 40.8635 -9.2946 0.0000 0.0000
# 3 40.8635 40.8635 112.3311 0.0000 0.0000 0.0000
# 4 9.2946 -9.2946 0.0000 43.0493 0.0000 0.0000
# 5 0.0000 0.0000 0.0000 0.0000 43.0493 9.2946
# 6 0.0000 0.0000 0.0000 0.0000 9.2946 25.3597
#
#
#
# Elastic Compliance Matrix: (Units=1/GPa)
#
#
# Indices 1 2 3 4 5 6 
#
# 1 0.025837 0.004426 -0.011009 -0.004623 0.000000 0.000000
# 2 0.004426 0.025837 -0.011009 0.004623 0.000000 0.000000
# 3 -0.011009 -0.011009 0.016912 0.000000 0.000000 0.000000
# 4 -0.004623 0.004623 0.000000 0.025225 0.000000 0.000000
# 5 0.000000 0.000000 0.000000 0.000000 0.025225 -0.009245
# 6 0.000000 0.000000 0.000000 0.000000 -0.009245 0.042821
#
#
# Mechanical properties :
#
#
# Convention : Reuss Voigt Hill
#
# Bulk Modulus (GPa) = 29.93824 44.59255 37.26539
# Shear Modulus (GPa) = 24.01821 31.49633 27.75727
#
# Velocity S-wave (km/s) = 3.49504 4.00232 3.75726
# Velocity P-wave (km/s) = 5.61367 6.63606 6.14616
#
# Compressibility (1/GPa) = 0.03340210
#
# Stress axis : x y z
#
# Youngs Moduli (GPa) = 38.70430 38.70430 59.12969
#
# Poissons Ratio (x) = -0.17132 0.65096
# Poissons Ratio (y) = -0.17132 0.65096
# Poissons Ratio (z) = 0.42610 0.42610
#
# Static dielectric constant tensor:
#      x y z
#    x 3.435170 0.000000 0.000000 
#    y 0.000000 3.435170 0.000000 
#    z 0.000000 0.000000 3.513930 
# 
# 
# High freq. dielectric constant tensor:
#      x y z
#    x 1.755660 0.000000 0.000000 
#    y 0.000000 1.755660 0.000000 
#    z 0.000000 0.000000 1.765350 
# 
# From -- ./inp_files/6191.got.cif
#   From: 2010.03.12/outbox.cif.g09.slc.cpg/sg167_4_cif.got.tgz:6191.got - 2010.04.02 06:42:56.
