data_PCOD8324266
_publ_section_title
;
Structure prediction by ZEFSAII (Michael W. Deem and Ramdas Pophale) SiO2 
 PCOD8324266
Probable space group: R -3 C 
;
_chemical_formula_sum "Si O2"
_cell_formula_units_Z 162
_cell_length_a 28.806234
_cell_length_b 28.806234
_cell_length_c 12.482743
_cell_angle_alpha 90.000000
_cell_angle_beta 90.000000
_cell_angle_gamma 120.000000
_cell_volume 8970.437597
_symmetry_space_group_name_H-M "R -3 C "
_symmetry_group_IT_number 167
_symmetry_cell_setting 'hexagonal'
loop_
_space_group_symop_operation_xyz
x,y,z
-y,x-y,z
-x+y,-x,z
x-y,-y,1/2-z
-x,-x+y,1/2-z
y,x,1/2-z
-x,-y,-z
y,-x+y,-z
x-y,x,-z
-x+y,y,1/2+z
x,x-y,1/2+z
-y,-x,1/2+z
2/3+x,1/3+y,1/3+z
2/3-y,1/3+x-y,1/3+z
2/3-x+y,1/3-x,1/3+z
2/3+x-y,1/3-y,5/6-z
2/3-x,1/3-x+y,5/6-z
2/3+y,1/3+x,5/6-z
2/3-x,1/3-y,1/3-z
2/3+y,1/3-x+y,1/3-z
2/3+x-y,1/3+x,1/3-z
2/3-x+y,1/3+y,5/6+z
2/3+x,1/3+x-y,5/6+z
2/3-y,1/3-x,5/6+z
1/3+x,2/3+y,2/3+z
1/3-y,2/3+x-y,2/3+z
1/3-x+y,2/3-x,2/3+z
1/3+x-y,2/3-y,1/6-z
1/3-x,2/3-x+y,1/6-z
1/3+y,2/3+x,1/6-z
1/3-x,2/3-y,2/3-z
1/3+y,2/3-x+y,2/3-z
1/3+x-y,2/3+x,2/3-z
1/3-x+y,2/3+y,1/6+z
1/3+x,2/3+x-y,1/6+z
1/3-y,2/3-x,1/6+z
loop_
_atom_site_type_symbol
_atom_site_label
_atom_site_fract_x
_atom_site_fract_y
_atom_site_fract_z
Si Si1 0.385827 0.020273 0.370261
Si Si2 0.229929 0.143907 0.038426
Si Si3 0.394404 0.143428 0.070007
Si Si4 0.967452 0.788061 0.471439
Si Si5 0.819758 0.666667 0.416667
O O1 0.438939 0.077534 0.377787
O O2 0.377540 0.000000 0.250000
O O3 0.333334 0.020876 0.416667
O O4 0.392251 0.976785 0.442740
O O5 0.244520 0.151792 0.163207
O O6 0.183247 0.158273 0.015324
O O7 0.204513 0.081160 0.012791
O O8 0.282842 0.183059 0.966574
O O9 0.439262 0.147202 0.987285
O O10 0.354729 0.159462 0.012729
#
# Coordination Sequence:
#
# PCOD8324266 Si02
#       5
#    36  36  36  36  18
#     4  10  18  32  48  75 106 143 186 216 259 328
#     4  11  21  37  57  77 112 147 182 235 277 332
#     4  10  17  37  57  74 107 151 187 215 265 341
#     4  10  22  36  53  81 104 145 192 224 280 334
#     4  10  20  32  54  84 106 134 186 224 270 322
#
# _framework density 18.059318999999999
#
# number of rings (size 3 to 8) (size 9 to 14) (size 15 to 20)
#    0.000    1.778    5.556    4.000    1.556    0.000 
#    0.000    4.444    0.000    0.444    0.000    0.000 
#    0.000    0.000    0.000    0.000    0.000    0.000 
#
# Total GULP energy -669252.322931 kJ/mol
# GULP energy per Si atom -12393.561536 kJ/mol
# Density = 1.801822 g / cm^3
# Si number density = 18.059319 Si / 1000 Ang^3
#
#
#
# Elastic Constant Matrix: (Units=GPa)
#
#
# Indices 1 2 3 4 5 6 
#
# 1 112.0704 58.9917 39.5422 -0.6327 0.0026 -0.0003
# 2 58.9917 112.0675 39.5333 0.6356 0.0010 0.0001
# 3 39.5422 39.5333 61.3735 -0.0014 -0.0099 0.0010
# 4 -0.6327 0.6356 -0.0014 10.1688 -0.0031 -0.0002
# 5 0.0026 0.0010 -0.0099 -0.0031 10.1625 -0.6350
# 6 -0.0003 0.0001 0.0010 -0.0002 -0.6350 26.5383
#
#
#
# Elastic Compliance Matrix: (Units=1/GPa)
#
#
# Indices 1 2 3 4 5 6 
#
# 1 0.013597 -0.005272 -0.005365 0.001175 -0.000008 0.000000
# 2 -0.005272 0.013596 -0.005361 -0.001179 -0.000006 0.000000
# 3 -0.005365 -0.005361 0.023204 0.000004 0.000025 0.000000
# 4 0.001175 -0.001179 0.000004 0.098487 0.000030 0.000002
# 5 -0.000008 -0.000006 0.000025 0.000030 0.098548 0.002358
# 6 0.000000 0.000000 0.000000 0.000002 0.002358 0.037738
#
#
# Mechanical properties :
#
#
# Convention : Reuss Voigt Hill
#
# Bulk Modulus (GPa) = 54.34397 62.40509 58.37453
# Shear Modulus (GPa) = 15.46550 19.20352 17.33451
#
# Velocity S-wave (km/s) = 2.92956 3.26445 3.10153
# Velocity P-wave (km/s) = 6.44983 6.98853 6.72458
#
# Compressibility (1/GPa) = 0.01840131
#
# Stress axis : x y z
#
# Youngs Moduli (GPa) = 73.54310 73.54979 43.09649
#
# Poissons Ratio (x) = 0.38774 0.23121
# Poissons Ratio (y) = 0.38770 0.23106
# Poissons Ratio (z) = 0.39455 0.39433
#
# Static dielectric constant tensor:
#      x y z
#    x 3.274350 0.000000 -0.000010 
#    y 0.000000 3.274350 0.000000 
#    z -0.000010 0.000000 3.229750 
# 
# 
# High freq. dielectric constant tensor:
#      x y z
#    x 1.678140 0.000000 0.000000 
#    y 0.000000 1.678140 0.000000 
#    z 0.000000 0.000000 1.694570 
# 
# From -- ./inp_files/2427.got.cif
#   From: 2010.03.12/outbox.cif.g09.slc.cpg/sg167_2_cif.got.tgz:2427.got - 2010.04.02 06:42:56.
