data_PCOD8324483
_publ_section_title
;
Structure prediction by ZEFSAII (Michael W. Deem and Ramdas Pophale) SiO2 
 PCOD8324483
Probable space group: P 61
;
_chemical_formula_sum "Si O2"
_cell_formula_units_Z 48
_cell_length_a 13.642551
_cell_length_b 13.642551
_cell_length_c 14.887631
_cell_angle_alpha 90.000000
_cell_angle_beta 90.000000
_cell_angle_gamma 120.000000
_cell_volume 2399.647222
_symmetry_space_group_name_H-M "P 61"
_symmetry_group_IT_number 169
_symmetry_cell_setting 'hexagonal'
loop_
_space_group_symop_operation_xyz
x,y,z
x-y,x,1/6+z
-y,x-y,1/3+z
-x,-y,1/2+z
-x+y,-x,2/3+z
y,-x+y,5/6+z
loop_
_atom_site_type_symbol
_atom_site_label
_atom_site_fract_x
_atom_site_fract_y
_atom_site_fract_z
Si Si1 0.719558 0.938496 0.984540
Si Si2 0.986049 0.606978 0.876216
Si Si3 0.644080 0.859550 0.685236
Si Si4 0.408509 0.246778 0.617357
Si Si5 0.895415 0.891678 0.903720
Si Si6 0.178824 0.692170 0.187589
Si Si7 0.590502 0.435003 0.354763
Si Si8 0.960532 0.476617 0.204702
O O1 0.836035 0.959820 0.941079
O O2 0.626176 0.866131 0.910809
O O3 0.721754 0.054392 0.015515
O O4 0.689764 0.866272 0.073492
O O5 0.897706 0.638686 0.831687
O O6 0.079501 0.715511 0.929807
O O7 0.058682 0.597731 0.794060
O O8 0.923223 0.495673 0.941835
O O9 0.538824 0.832856 0.748416
O O10 0.756908 0.943279 0.740817
O O11 0.500288 0.221895 0.660741
O O12 0.464950 0.348545 0.545977
O O13 0.930626 0.925076 0.799749
O O14 0.309963 0.741764 0.213190
O O15 0.097265 0.559159 0.206741
O O16 0.584351 0.504677 0.441166
#
# Coordination Sequence:
#
# PCOD8324483 Si02
#       8
#     6   6   6   6   6   6   6   6
#     4  11  19  36  65  94 121 158 215 280 321 369
#     4  11  24  40  65 100 134 169 223 272 331 398
#     4  11  20  38  65  98 129 164 216 282 324 377
#     4  11  23  39  62  94 131 163 217 275 322 389
#     4  12  20  35  65  97 123 164 221 278 327 378
#     4  10  19  37  67  92 118 160 222 279 314 378
#     4  11  22  41  65  96 131 175 217 270 340 398
#     4  11  23  42  64  93 133 173 219 268 337 389
#
# _framework density 20.002942000000001
#
# number of rings (size 3 to 8) (size 9 to 14) (size 15 to 20)
#    0.000    1.000    6.250    3.000    0.000    1.000 
#    2.250    3.750    0.000    0.000    0.000    0.000 
#    0.000    0.000    0.000    0.000    0.000    0.000 
#
# Total GULP energy -594679.471697 kJ/mol
# GULP energy per Si atom -12389.155660 kJ/mol
# Density = 1.995741 g / cm^3
# Si number density = 20.002942 Si / 1000 Ang^3
#
#
#
# Elastic Constant Matrix: (Units=GPa)
#
#
# Indices 1 2 3 4 5 6 
#
# 1 93.1086 37.2346 40.7125 0.0000 0.0000 0.0000
# 2 37.2346 93.1086 40.7125 0.0000 0.0000 0.0000
# 3 40.7125 40.7125 100.2361 0.0000 0.0000 0.0000
# 4 0.0000 0.0000 0.0000 32.9597 0.0000 0.0000
# 5 0.0000 0.0000 0.0000 0.0000 32.9597 0.0000
# 6 0.0000 0.0000 0.0000 0.0000 0.0000 27.9370
#
#
#
# Elastic Compliance Matrix: (Units=1/GPa)
#
#
# Indices 1 2 3 4 5 6 
#
# 1 0.014089 -0.003808 -0.004176 0.000000 0.000000 0.000000
# 2 -0.003808 0.014089 -0.004176 0.000000 0.000000 0.000000
# 3 -0.004176 -0.004176 0.013368 0.000000 0.000000 0.000000
# 4 0.000000 0.000000 0.000000 0.030340 0.000000 0.000000
# 5 0.000000 0.000000 0.000000 0.000000 0.030340 0.000000
# 6 0.000000 0.000000 0.000000 0.000000 0.000000 0.035795
#
#
# Mechanical properties :
#
#
# Convention : Reuss Voigt Hill
#
# Bulk Modulus (GPa) = 58.04811 58.19692 58.12252
# Shear Modulus (GPa) = 29.74721 29.95754 29.85238
#
# Velocity S-wave (km/s) = 3.86053 3.87416 3.86735
# Velocity P-wave (km/s) = 6.99674 7.01209 7.00442
#
# Compressibility (1/GPa) = 0.01722709
#
# Stress axis : x y z
#
# Youngs Moduli (GPa) = 70.97745 70.97745 74.80310
#
# Poissons Ratio (x) = 0.27031 0.31235
# Poissons Ratio (y) = 0.27031 0.31235
# Poissons Ratio (z) = 0.29637 0.29637
#
# Static dielectric constant tensor:
#      x y z
#    x 3.625080 0.000000 0.000000 
#    y 0.000000 3.625080 0.000000 
#    z 0.000000 0.000000 3.589380 
# 
# 
# High freq. dielectric constant tensor:
#      x y z
#    x 1.771970 0.000000 0.000000 
#    y 0.000000 1.771970 0.000000 
#    z 0.000000 0.000000 1.767350 
# 
# From -- ./inp_files/1262.got.cif
#   From: 2010.03.12/outbox.cif.g09.slc.cpg/sg169_cif.got.tgz:1262.got - 2010.04.02 06:46:06.
