data_PCOD8324311
_publ_section_title
;
Structure prediction by ZEFSAII (Michael W. Deem and Ramdas Pophale) SiO2 
 PCOD8324311
Probable space group: R -3 C 
;
_chemical_formula_sum "Si O2"
_cell_formula_units_Z 168
_cell_length_a 17.375072
_cell_length_b 17.375072
_cell_length_c 30.172489
_cell_angle_alpha 90.000000
_cell_angle_beta 90.000000
_cell_angle_gamma 120.000000
_cell_volume 7888.510268
_symmetry_space_group_name_H-M "R -3 C "
_symmetry_group_IT_number 167
_symmetry_cell_setting 'hexagonal'
loop_
_space_group_symop_operation_xyz
x,y,z
-y,x-y,z
-x+y,-x,z
x-y,-y,1/2-z
-x,-x+y,1/2-z
y,x,1/2-z
-x,-y,-z
y,-x+y,-z
x-y,x,-z
-x+y,y,1/2+z
x,x-y,1/2+z
-y,-x,1/2+z
2/3+x,1/3+y,1/3+z
2/3-y,1/3+x-y,1/3+z
2/3-x+y,1/3-x,1/3+z
2/3+x-y,1/3-y,5/6-z
2/3-x,1/3-x+y,5/6-z
2/3+y,1/3+x,5/6-z
2/3-x,1/3-y,1/3-z
2/3+y,1/3-x+y,1/3-z
2/3+x-y,1/3+x,1/3-z
2/3-x+y,1/3+y,5/6+z
2/3+x,1/3+x-y,5/6+z
2/3-y,1/3-x,5/6+z
1/3+x,2/3+y,2/3+z
1/3-y,2/3+x-y,2/3+z
1/3-x+y,2/3-x,2/3+z
1/3+x-y,2/3-y,1/6-z
1/3-x,2/3-x+y,1/6-z
1/3+y,2/3+x,1/6-z
1/3-x,2/3-y,2/3-z
1/3+y,2/3-x+y,2/3-z
1/3+x-y,2/3+x,2/3-z
1/3-x+y,2/3+y,1/6+z
1/3+x,2/3+x-y,1/6+z
1/3-y,2/3-x,1/6+z
loop_
_atom_site_type_symbol
_atom_site_label
_atom_site_fract_x
_atom_site_fract_y
_atom_site_fract_z
Si Si1 0.908743 0.242077 0.916667
Si Si2 0.000000 0.000000 0.182277
Si Si3 0.666668 0.333334 0.908830
Si Si4 0.699687 0.953473 0.344920
Si Si5 0.059616 0.872742 0.831591
Si Si6 0.954863 0.810717 0.917732
Si Si7 0.666667 0.664043 0.083334
O O1 0.955388 0.296573 0.960957
O O2 0.906303 0.150167 0.923626
O O3 0.000000 0.000000 0.128760
O O4 0.935385 0.898688 0.199380
O O5 0.750918 0.426441 0.891681
O O6 0.778830 0.933166 0.356453
O O7 0.604964 0.870698 0.361086
O O8 0.704096 0.968418 0.291683
O O9 0.978767 0.825162 0.865928
O O10 0.993297 0.749139 0.936133
#
# Coordination Sequence:
#
# PCOD8324311 Si02
#       7
#    18  12  12  36  36  36  18
#     4  11  20  34  60  87 108 142 188 233 282 336
#     4   9  15  30  54  76 107 151 187 227 280 337
#     4   9  15  30  54  76 107 154 190 224 283 340
#     4  10  20  36  59  85 112 147 189 234 284 335
#     4   9  18  35  56  80 112 149 188 230 280 335
#     4   9  18  34  55  81 112 146 186 231 280 335
#     4   9  20  38  56  81 116 146 184 239 284 332
#
# _framework density 21.296797000000002
#
# number of rings (size 3 to 8) (size 9 to 14) (size 15 to 20)
#    0.000    2.571    0.000    3.857    0.000    0.000 
#    0.000   34.286    0.000    2.571    0.000    0.000 
#    0.000    0.000    0.000    0.000    0.000    0.000 
#
# Total GULP energy -693827.680218 kJ/mol
# GULP energy per Si atom -12389.780004 kJ/mol
# Density = 2.124832 g / cm^3
# Si number density = 21.296797 Si / 1000 Ang^3
#
#
#
# Elastic Constant Matrix: (Units=GPa)
#
#
# Indices 1 2 3 4 5 6 
#
# 1 123.4165 47.2178 19.9957 -5.3922 -0.0001 0.0000
# 2 47.2178 123.4172 19.9957 5.3920 0.0001 0.0000
# 3 19.9957 19.9957 56.4099 0.0000 0.0000 0.0000
# 4 -5.3922 5.3920 0.0000 20.7054 0.0000 0.0001
# 5 -0.0001 0.0001 0.0000 0.0000 20.7054 -5.3921
# 6 0.0000 0.0000 0.0000 0.0001 -5.3921 38.0995
#
#
#
# Elastic Compliance Matrix: (Units=1/GPa)
#
#
# Indices 1 2 3 4 5 6 
#
# 1 0.010009 -0.003617 -0.002266 0.003548 0.000000 0.000000
# 2 -0.003617 0.010009 -0.002266 -0.003548 0.000000 0.000000
# 3 -0.002266 -0.002266 0.019334 0.000000 0.000000 0.000000
# 4 0.003548 -0.003548 0.000000 0.050145 0.000000 0.000000
# 5 0.000000 0.000000 0.000000 0.000000 0.050145 0.007097
# 6 0.000000 0.000000 0.000000 0.000000 0.007097 0.027251
#
#
# Mechanical properties :
#
#
# Convention : Reuss Voigt Hill
#
# Bulk Modulus (GPa) = 43.37619 53.07356 48.22488
# Shear Modulus (GPa) = 26.19546 30.30436 28.24991
#
# Velocity S-wave (km/s) = 3.51097 3.77630 3.64605
# Velocity P-wave (km/s) = 6.07022 6.63241 6.35753
#
# Compressibility (1/GPa) = 0.02305412
#
# Stress axis : x y z
#
# Youngs Moduli (GPa) = 99.91387 99.91453 51.72348
#
# Poissons Ratio (x) = 0.36140 0.11718
# Poissons Ratio (y) = 0.36140 0.11718
# Poissons Ratio (z) = 0.22637 0.22636
#
# Static dielectric constant tensor:
#      x y z
#    x 4.229740 0.000000 0.000000 
#    y 0.000000 4.229720 0.000000 
#    z 0.000000 0.000000 3.087860 
# 
# 
# High freq. dielectric constant tensor:
#      x y z
#    x 1.853810 0.000000 0.000000 
#    y 0.000000 1.853810 0.000000 
#    z 0.000000 0.000000 1.762140 
# 
# From -- ./inp_files/7011.got.cif
#   From: 2010.03.12/outbox.cif.g09.slc.cpg/sg167_4_cif.got.tgz:7011.got - 2010.04.02 06:42:56.
