data_PCOD8324364
_publ_section_title
;
Structure prediction by ZEFSAII (Michael W. Deem and Ramdas Pophale) SiO2 
 PCOD8324364
Probable space group: R -3 C 
;
_chemical_formula_sum "Si O2"
_cell_formula_units_Z 138
_cell_length_a 18.805739
_cell_length_b 18.805739
_cell_length_c 22.750264
_cell_angle_alpha 90.000000
_cell_angle_beta 90.000000
_cell_angle_gamma 120.000000
_cell_volume 6967.835372
_symmetry_space_group_name_H-M "R -3 C "
_symmetry_group_IT_number 167
_symmetry_cell_setting 'hexagonal'
loop_
_space_group_symop_operation_xyz
x,y,z
-y,x-y,z
-x+y,-x,z
x-y,-y,1/2-z
-x,-x+y,1/2-z
y,x,1/2-z
-x,-y,-z
y,-x+y,-z
x-y,x,-z
-x+y,y,1/2+z
x,x-y,1/2+z
-y,-x,1/2+z
2/3+x,1/3+y,1/3+z
2/3-y,1/3+x-y,1/3+z
2/3-x+y,1/3-x,1/3+z
2/3+x-y,1/3-y,5/6-z
2/3-x,1/3-x+y,5/6-z
2/3+y,1/3+x,5/6-z
2/3-x,1/3-y,1/3-z
2/3+y,1/3-x+y,1/3-z
2/3+x-y,1/3+x,1/3-z
2/3-x+y,1/3+y,5/6+z
2/3+x,1/3+x-y,5/6+z
2/3-y,1/3-x,5/6+z
1/3+x,2/3+y,2/3+z
1/3-y,2/3+x-y,2/3+z
1/3-x+y,2/3-x,2/3+z
1/3+x-y,2/3-y,1/6-z
1/3-x,2/3-x+y,1/6-z
1/3+y,2/3+x,1/6-z
1/3-x,2/3-y,2/3-z
1/3+y,2/3-x+y,2/3-z
1/3+x-y,2/3+x,2/3-z
1/3-x+y,2/3+y,1/6+z
1/3+x,2/3+x-y,1/6+z
1/3-y,2/3-x,1/6+z
loop_
_atom_site_type_symbol
_atom_site_label
_atom_site_fract_x
_atom_site_fract_y
_atom_site_fract_z
Si Si1 0.333334 0.283784 0.916667
Si Si2 0.333333 0.666667 0.594527
Si Si3 0.676909 0.049492 0.476403
Si Si4 0.369622 0.530943 0.080391
Si Si5 0.453620 0.922939 0.184985
O O1 0.302272 0.319918 0.863988
O O2 0.401788 0.267270 0.887660
O O3 0.333335 0.666668 0.666667
O O4 0.241634 0.617844 0.565840
O O5 0.638381 0.109912 0.473967
O O6 0.774849 0.112134 0.481126
O O7 0.662726 0.996060 0.416667
O O8 0.447288 0.541520 0.116670
O O9 0.290469 0.488305 0.121838
#
# Coordination Sequence:
#
# PCOD8324364 Si02
#       5
#    18  12  36  36  36
#     4  12  20  36  60  82 118 162 188 238 300 356
#     4  12  21  30  63  91 113 151 201 267 297 348
#     4  10  22  35  57  85 119 157 189 243 300 358
#     4  11  20  35  55  92 117 146 200 247 301 345
#     4  11  18  32  58  82 117 155 189 241 294 342
#
# _framework density 19.805289999999999
#
# number of rings (size 3 to 8) (size 9 to 14) (size 15 to 20)
#    0.000    1.043   11.739    0.000    0.000    0.000 
#    0.000    1.304    0.000    1.565    0.000    0.000 
#    0.000    0.000    0.000    0.000    0.000    0.000 
#
# Total GULP energy -569877.852366 kJ/mol
# GULP energy per Si atom -12388.648964 kJ/mol
# Density = 1.976021 g / cm^3
# Si number density = 19.805290 Si / 1000 Ang^3
#
#
#
# Elastic Constant Matrix: (Units=GPa)
#
#
# Indices 1 2 3 4 5 6 
#
# 1 51.3398 -7.4867 17.0532 -1.2746 0.0002 0.0000
# 2 -7.4867 51.3399 17.0532 1.2746 -0.0002 0.0000
# 3 17.0532 17.0532 71.9498 0.0000 0.0000 0.0000
# 4 -1.2746 1.2746 0.0000 30.5510 0.0000 -0.0002
# 5 0.0002 -0.0002 0.0000 0.0000 30.5509 -1.2746
# 6 0.0000 0.0000 0.0000 -0.0002 -1.2746 29.4132
#
#
#
# Elastic Compliance Matrix: (Units=1/GPa)
#
#
# Indices 1 2 3 4 5 6 
#
# 1 0.022493 0.005463 -0.006626 0.000710 0.000000 0.000000
# 2 0.005463 0.022493 -0.006626 -0.000710 0.000000 0.000000
# 3 -0.006626 -0.006626 0.017040 0.000000 0.000000 0.000000
# 4 0.000710 -0.000710 0.000000 0.032791 0.000000 0.000000
# 5 0.000000 0.000000 0.000000 0.000000 0.032792 0.001421
# 6 0.000000 0.000000 0.000000 0.000000 0.001421 0.034060
#
#
# Mechanical properties :
#
#
# Convention : Reuss Voigt Hill
#
# Bulk Modulus (GPa) = 21.52923 25.31877 23.42400
# Shear Modulus (GPa) = 25.94303 27.97034 26.95669
#
# Velocity S-wave (km/s) = 3.62319 3.76209 3.69329
# Velocity P-wave (km/s) = 5.32892 5.62874 5.48088
#
# Compressibility (1/GPa) = 0.04644848
#
# Stress axis : x y z
#
# Youngs Moduli (GPa) = 44.45749 44.45755 58.68678
#
# Poissons Ratio (x) = -0.24289 0.38887
# Poissons Ratio (y) = -0.24289 0.38887
# Poissons Ratio (z) = 0.29458 0.29458
#
# Static dielectric constant tensor:
#      x y z
#    x 3.659590 0.000000 0.000000 
#    y 0.000000 3.659590 0.000000 
#    z 0.000000 0.000000 3.452160 
# 
# 
# High freq. dielectric constant tensor:
#      x y z
#    x 1.768220 0.000000 0.000000 
#    y 0.000000 1.768220 0.000000 
#    z 0.000000 0.000000 1.730460 
# 
# From -- ./inp_files/6058.got.cif
#   From: 2010.03.12/outbox.cif.g09.slc.cpg/sg167_4_cif.got.tgz:6058.got - 2010.04.02 06:42:56.
