data_PCOD8324556
_publ_section_title
;
Structure prediction by ZEFSAII (Michael W. Deem and Ramdas Pophale) SiO2 
 PCOD8324556
Probable space group: P 61
;
_chemical_formula_sum "Si O2"
_cell_formula_units_Z 36
_cell_length_a 13.913332
_cell_length_b 13.913332
_cell_length_c 8.783796
_cell_angle_alpha 90.000000
_cell_angle_beta 90.000000
_cell_angle_gamma 120.000000
_cell_volume 1472.567358
_symmetry_space_group_name_H-M "P 61"
_symmetry_group_IT_number 169
_symmetry_cell_setting 'hexagonal'
loop_
_space_group_symop_operation_xyz
x,y,z
x-y,x,1/6+z
-y,x-y,1/3+z
-x,-y,1/2+z
-x+y,-x,2/3+z
y,-x+y,5/6+z
loop_
_atom_site_type_symbol
_atom_site_label
_atom_site_fract_x
_atom_site_fract_y
_atom_site_fract_z
Si Si1 0.322843 0.781184 0.365750
Si Si2 0.994965 0.805324 0.092766
Si Si3 0.986367 0.596666 0.019460
Si Si4 0.545521 0.415366 0.078629
Si Si5 0.233307 0.464125 0.011193
Si Si6 0.890567 0.115904 0.071963
O O1 0.309327 0.862914 0.252087
O O2 0.232330 0.652801 0.327436
O O3 0.450414 0.813732 0.349608
O O4 0.314108 0.815289 0.536305
O O5 0.037127 0.729144 0.010025
O O6 0.928604 0.748189 0.249533
O O7 0.097774 0.923700 0.134847
O O8 0.072984 0.582457 0.120305
O O9 0.968126 0.534294 0.859446
O O10 0.473531 0.295670 0.000136
O O11 0.210654 0.340002 0.980757
O O12 0.853558 0.019357 0.197567
#
# Coordination Sequence:
#
# PCOD8324556 Si02
#       6
#     6   6   6   6   6   6
#     4  12  24  43  71 107 159 203 251 319 397 470
#     4  10  22  44  78 104 142 196 258 323 391 456
#     4  12  25  44  72 107 152 200 259 317 386 479
#     4  12  27  45  71 110 155 207 255 324 394 474
#     4  12  24  44  74 110 156 204 253 312 395 479
#     4  10  24  46  82 110 146 200 264 325 395 466
#
# _framework density 24.447099000000001
#
# number of rings (size 3 to 8) (size 9 to 14) (size 15 to 20)
#    0.000    0.667    5.000    2.000    4.667    0.000 
#    3.000    0.000   25.667    0.000    0.000    0.000 
#    0.000    0.000    0.000    0.000    0.000    0.000 
#
# Total GULP energy -446379.909790 kJ/mol
# GULP energy per Si atom -12399.441939 kJ/mol
# Density = 2.439146 g / cm^3
# Si number density = 24.447099 Si / 1000 Ang^3
#
#
#
# Elastic Constant Matrix: (Units=GPa)
#
#
# Indices 1 2 3 4 5 6 
#
# 1 119.6645 52.6136 41.2523 0.0000 0.0000 0.0000
# 2 52.6136 119.6645 41.2523 0.0000 0.0000 0.0000
# 3 41.2523 41.2523 78.7427 0.0000 0.0000 0.0000
# 4 0.0000 0.0000 0.0000 35.6605 0.0000 0.0000
# 5 0.0000 0.0000 0.0000 0.0000 35.6605 0.0000
# 6 0.0000 0.0000 0.0000 0.0000 0.0000 33.5254
#
#
#
# Elastic Compliance Matrix: (Units=1/GPa)
#
#
# Indices 1 2 3 4 5 6 
#
# 1 0.011331 -0.003583 -0.004059 0.000000 0.000000 0.000000
# 2 -0.003583 0.011331 -0.004059 0.000000 0.000000 0.000000
# 3 -0.004059 -0.004059 0.016953 0.000000 0.000000 0.000000
# 4 0.000000 0.000000 0.000000 0.028042 0.000000 0.000000
# 5 0.000000 0.000000 0.000000 0.000000 0.028042 0.000000
# 6 0.000000 0.000000 0.000000 0.000000 0.000000 0.029828
#
#
# Mechanical properties :
#
#
# Convention : Reuss Voigt Hill
#
# Bulk Modulus (GPa) = 61.68056 65.36757 63.52406
# Shear Modulus (GPa) = 32.39695 33.16617 32.78156
#
# Velocity S-wave (km/s) = 3.64426 3.68727 3.66583
# Velocity P-wave (km/s) = 6.55687 6.70256 6.63012
#
# Compressibility (1/GPa) = 0.01621256
#
# Stress axis : x y z
#
# Youngs Moduli (GPa) = 88.25075 88.25075 58.98678
#
# Poissons Ratio (x) = 0.31618 0.23945
# Poissons Ratio (y) = 0.31618 0.23945
# Poissons Ratio (z) = 0.35825 0.35825
#
# Static dielectric constant tensor:
#      x y z
#    x 4.247030 0.000000 0.000000 
#    y 0.000000 4.247030 0.000000 
#    z 0.000000 0.000000 4.526910 
# 
# 
# High freq. dielectric constant tensor:
#      x y z
#    x 1.970880 0.000000 0.000000 
#    y 0.000000 1.970880 0.000000 
#    z 0.000000 0.000000 1.975560 
# 
# From -- ./inp_files/584.got.cif
#   From: 2010.03.12/outbox.cif.g09.slc.cpg/sg169_cif.got.tgz:584.got - 2010.04.02 06:46:06.
