data_PCOD8324363
_publ_section_title
;
Structure prediction by ZEFSAII (Michael W. Deem and Ramdas Pophale) SiO2 
 PCOD8324363
Probable space group: R -3 C 
;
_chemical_formula_sum "Si O2"
_cell_formula_units_Z 162
_cell_length_a 20.390901
_cell_length_b 20.390901
_cell_length_c 20.782452
_cell_angle_alpha 90.000000
_cell_angle_beta 90.000000
_cell_angle_gamma 120.000000
_cell_volume 7483.422235
_symmetry_space_group_name_H-M "R -3 C "
_symmetry_group_IT_number 167
_symmetry_cell_setting 'hexagonal'
loop_
_space_group_symop_operation_xyz
x,y,z
-y,x-y,z
-x+y,-x,z
x-y,-y,1/2-z
-x,-x+y,1/2-z
y,x,1/2-z
-x,-y,-z
y,-x+y,-z
x-y,x,-z
-x+y,y,1/2+z
x,x-y,1/2+z
-y,-x,1/2+z
2/3+x,1/3+y,1/3+z
2/3-y,1/3+x-y,1/3+z
2/3-x+y,1/3-x,1/3+z
2/3+x-y,1/3-y,5/6-z
2/3-x,1/3-x+y,5/6-z
2/3+y,1/3+x,5/6-z
2/3-x,1/3-y,1/3-z
2/3+y,1/3-x+y,1/3-z
2/3+x-y,1/3+x,1/3-z
2/3-x+y,1/3+y,5/6+z
2/3+x,1/3+x-y,5/6+z
2/3-y,1/3-x,5/6+z
1/3+x,2/3+y,2/3+z
1/3-y,2/3+x-y,2/3+z
1/3-x+y,2/3-x,2/3+z
1/3+x-y,2/3-y,1/6-z
1/3-x,2/3-x+y,1/6-z
1/3+y,2/3+x,1/6-z
1/3-x,2/3-y,2/3-z
1/3+y,2/3-x+y,2/3-z
1/3+x-y,2/3+x,2/3-z
1/3-x+y,2/3+y,1/6+z
1/3+x,2/3+x-y,1/6+z
1/3-y,2/3-x,1/6+z
loop_
_atom_site_type_symbol
_atom_site_label
_atom_site_fract_x
_atom_site_fract_y
_atom_site_fract_z
Si Si1 0.411770 0.441278 0.499865
Si Si2 0.840478 0.000000 0.750000
Si Si3 0.459579 0.359710 0.410017
Si Si4 0.899766 0.193633 0.029410
Si Si5 0.132200 0.615562 0.858939
O O1 0.500000 0.500000 0.500000
O O2 0.368445 0.481086 0.472206
O O3 0.399719 0.370783 0.455366
O O4 0.387429 0.423920 0.574495
O O5 0.852551 0.936216 0.715552
O O6 0.521840 0.436379 0.375527
O O7 0.412974 0.294805 0.358803
O O8 0.500806 0.330663 0.460274
O O9 0.836129 0.215595 0.010444
O O10 0.128712 0.666667 0.916667
#
# Coordination Sequence:
#
# PCOD8324363 Si02
#       5
#    36  18  36  36  36
#     4  10  21  45  67  99 139 178 226 291 349 420
#     4  12  24  42  72 102 136 190 234 280 352 428
#     4  11  24  43  69 107 142 188 234 296 367 425
#     4  11  24  45  70 103 142 184 234 301 360 426
#     4  12  24  44  70  98 141 187 239 289 350 436
#
# _framework density 21.647849999999998
#
# number of rings (size 3 to 8) (size 9 to 14) (size 15 to 20)
#    0.000    0.889    6.667    2.000    6.222    0.000 
#    0.667    0.000    0.000    0.444    0.000    0.000 
#    0.000    0.000    0.000    0.000    0.000    0.000 
#
# Total GULP energy -669289.301344 kJ/mol
# GULP energy per Si atom -12394.246321 kJ/mol
# Density = 2.159858 g / cm^3
# Si number density = 21.647850 Si / 1000 Ang^3
#
#
#
# Elastic Constant Matrix: (Units=GPa)
#
#
# Indices 1 2 3 4 5 6 
#
# 1 105.3134 53.2359 55.1193 -6.7424 -0.0001 0.0000
# 2 53.2359 105.3134 55.1193 6.7424 0.0001 0.0000
# 3 55.1193 55.1193 161.7520 0.0000 0.0000 0.0000
# 4 -6.7424 6.7424 0.0000 41.5111 0.0000 0.0001
# 5 -0.0001 0.0001 0.0000 0.0000 41.5111 -6.7424
# 6 0.0000 0.0000 0.0000 0.0001 -6.7424 26.0387
#
#
#
# Elastic Compliance Matrix: (Units=1/GPa)
#
#
# Indices 1 2 3 4 5 6 
#
# 1 0.014155 -0.005890 -0.002817 0.003256 0.000000 0.000000
# 2 -0.005890 0.014155 -0.002817 -0.003256 0.000000 0.000000
# 3 -0.002817 -0.002817 0.008102 0.000000 0.000000 0.000000
# 4 0.003256 -0.003256 0.000000 0.025148 0.000000 0.000000
# 5 0.000000 0.000000 0.000000 0.000000 0.025148 0.006512
# 6 0.000000 0.000000 0.000000 0.000000 0.006512 0.040090
#
#
# Mechanical properties :
#
#
# Convention : Reuss Voigt Hill
#
# Bulk Modulus (GPa) = 74.81337 77.70309 76.25823
# Shear Modulus (GPa) = 32.40440 35.73912 34.07176
#
# Velocity S-wave (km/s) = 3.87316 4.06757 3.97156
# Velocity P-wave (km/s) = 7.39162 7.61789 7.50561
#
# Compressibility (1/GPa) = 0.01336659
#
# Stress axis : x y z
#
# Youngs Moduli (GPa) = 70.64445 70.64445 123.42784
#
# Poissons Ratio (x) = 0.41608 0.34765
# Poissons Ratio (y) = 0.41608 0.34765
# Poissons Ratio (z) = 0.19898 0.19898
#
# Static dielectric constant tensor:
#      x y z
#    x 3.676390 0.000000 0.000000 
#    y 0.000000 3.676390 0.000000 
#    z 0.000000 0.000000 4.694630 
# 
# 
# High freq. dielectric constant tensor:
#      x y z
#    x 1.833350 0.000000 0.000000 
#    y 0.000000 1.833350 0.000000 
#    z 0.000000 0.000000 1.868290 
# 
# From -- ./inp_files/4404.got.cif
#   From: 2010.03.12/outbox.cif.g09.slc.cpg/sg167_3_cif.got.tgz:4404.got - 2010.04.02 06:42:56.
