data_PCOD8324903
_publ_section_title
;
Structure prediction by ZEFSAII (Michael W. Deem and Ramdas Pophale) SiO2 
 PCOD8324903
Probable space group: P -6
;
_chemical_formula_sum "Si O2"
_cell_formula_units_Z 45
_cell_length_a 18.108369
_cell_length_b 18.108369
_cell_length_c 7.952215
_cell_angle_alpha 90.000000
_cell_angle_beta 90.000000
_cell_angle_gamma 120.000000
_cell_volume 2258.278066
_symmetry_space_group_name_H-M "P -6"
_symmetry_group_IT_number 174
_symmetry_cell_setting 'hexagonal'
loop_
_space_group_symop_operation_xyz
x,y,z
-x+y,-x,-z
-y,x-y,z
x,y,-z
-x+y,-x,z
-y,x-y,-z
loop_
_atom_site_type_symbol
_atom_site_label
_atom_site_fract_x
_atom_site_fract_y
_atom_site_fract_z
Si Si1 0.886854 0.352684 0.810215
Si Si2 0.674306 0.706389 0.307240
Si Si3 0.215769 0.080195 0.311851
Si Si4 0.107158 0.059120 0.000000
Si Si5 0.464351 0.416607 0.799378
Si Si6 0.281373 0.801106 0.800790
Si Si7 0.391518 0.224102 0.201054
Si Si8 0.470154 0.855507 0.200261
O O1 0.904055 0.439876 0.720127
O O2 0.806798 0.265080 0.739480
O O3 0.974513 0.350160 0.806374
O O4 0.864254 0.360374 0.000000
O O5 0.662231 0.676849 0.500000
O O6 0.772984 0.776733 0.273382
O O7 0.614648 0.745683 0.260999
O O8 0.178245 0.074059 0.500000
O O9 0.159204 0.090811 0.171538
O O10 0.306475 0.165149 0.302579
O O11 0.044022 0.097794 0.000000
O O12 0.421521 0.319416 0.739186
O O13 0.412471 0.462200 0.732079
O O14 0.467557 0.422448 0.000000
O O15 0.375482 0.827509 0.731923
O O16 0.211761 0.708458 0.729462
O O17 0.280980 0.798669 0.000000
O O18 0.376136 0.211801 0.000000
O O19 0.469493 0.854372 0.000000
#
# Coordination Sequence:
#
# PCOD8324903 Si02
#       8
#     6   6   6   3   6   6   6   6
#     4   9  16  30  53  76 103 146 192 232 284 342
#     4  10  20  33  54  81 107 143 191 237 278 338
#     4  10  21  40  63  89 120 152 193 242 291 354
#     4  10  24  44  66  94 116 148 190 230 298 370
#     4   9  16  29  48  79 113 141 183 243 291 336
#     4  10  18  31  52  75 102 143 189 234 283 338
#     4   9  17  31  55  80 112 157 195 238 297 359
#     4   9  17  29  47  75 104 137 182 236 283 333
#
# _framework density 19.926686
#
# number of rings (size 3 to 8) (size 9 to 14) (size 15 to 20)
#    0.133    2.400    2.000    0.667    1.867    1.600 
#    3.200    1.333    0.000    0.000    0.000    0.000 
#    0.000    0.000    0.000    0.000    0.000    0.000 
#
# Total GULP energy -557687.409597 kJ/mol
# GULP energy per Si atom -12393.053547 kJ/mol
# Density = 1.988133 g / cm^3
# Si number density = 19.926686 Si / 1000 Ang^3
#
#
#
# Elastic Constant Matrix: (Units=GPa)
#
#
# Indices 1 2 3 4 5 6 
#
# 1 113.9481 54.5024 12.5008 0.0000 0.0000 0.0000
# 2 54.5024 113.9481 12.5008 0.0000 0.0000 0.0000
# 3 12.5008 12.5008 45.4631 0.0000 0.0000 0.0000
# 4 0.0000 0.0000 0.0000 0.2205 0.0000 0.0000
# 5 0.0000 0.0000 0.0000 0.0000 0.2205 0.0000
# 6 0.0000 0.0000 0.0000 0.0000 0.0000 29.7229
#
#
#
# Elastic Compliance Matrix: (Units=1/GPa)
#
#
# Indices 1 2 3 4 5 6 
#
# 1 0.011506 -0.005317 -0.001702 0.000000 0.000000 0.000000
# 2 -0.005317 0.011506 -0.001702 0.000000 0.000000 0.000000
# 3 -0.001702 -0.001702 0.022932 0.000000 0.000000 0.000000
# 4 0.000000 0.000000 0.000000 4.534925 0.000000 0.000000
# 5 0.000000 0.000000 0.000000 0.000000 4.534925 0.000000
# 6 0.000000 0.000000 0.000000 0.000000 0.000000 0.033644
#
#
# Mechanical properties :
#
#
# Convention : Reuss Voigt Hill
#
# Bulk Modulus (GPa) = 35.08440 48.04080 41.56260
# Shear Modulus (GPa) = 0.54488 18.95648 9.75068
#
# Velocity S-wave (km/s) = 0.52348 3.08768 2.21447
# Velocity P-wave (km/s) = 4.24386 6.07230 5.23847
#
# Compressibility (1/GPa) = 0.02850269
#
# Stress axis : x y z
#
# Youngs Moduli (GPa) = 86.91458 86.91458 43.60775
#
# Poissons Ratio (x) = 0.46208 0.07421
# Poissons Ratio (y) = 0.46208 0.07421
# Poissons Ratio (z) = 0.14791 0.14791
#
# Static dielectric constant tensor:
#      x y z
#    x 3.703700 0.000000 0.000000 
#    y 0.000000 3.703700 0.000000 
#    z 0.000000 0.000000 3.227310 
# 
# 
# High freq. dielectric constant tensor:
#      x y z
#    x 1.770190 0.000000 0.000000 
#    y 0.000000 1.770190 0.000000 
#    z 0.000000 0.000000 1.749080 
# 
# From -- ./inp_files/543.got.cif
#   From: 2010.03.12/outbox.cif.g09.slc.cpg/sg174_cif.got.tgz:543.got - 2010.04.02 06:54:58.
