data_PCOD8324079
_publ_section_title
;
Structure prediction by ZEFSAII (Michael W. Deem and Ramdas Pophale) SiO2 
 PCOD8324079
Probable space group: R -3 M
;
_chemical_formula_sum "Si O2"
_cell_formula_units_Z 144
_cell_length_a 21.273848
_cell_length_b 21.273848
_cell_length_c 19.869956
_cell_angle_alpha 90.000000
_cell_angle_beta 90.000000
_cell_angle_gamma 120.000000
_cell_volume 7787.886992
_symmetry_space_group_name_H-M "R -3 M"
_symmetry_group_IT_number 166
_symmetry_cell_setting 'hexagonal'
loop_
_space_group_symop_operation_xyz
x,y,z
-y,x-y,z
-x+y,-x,z
x-y,-y,-z
-x,-x+y,-z
y,x,-z
-x,-y,-z
y,-x+y,-z
x-y,x,-z
-x+y,y,z
x,x-y,z
-y,-x,z
2/3+x,1/3+y,1/3+z
2/3-y,1/3+x-y,1/3+z
2/3-x+y,1/3-x,1/3+z
2/3+x-y,1/3-y,1/3-z
2/3-x,1/3-x+y,1/3-z
2/3+y,1/3+x,1/3-z
2/3-x,1/3-y,1/3-z
2/3+y,1/3-x+y,1/3-z
2/3+x-y,1/3+x,1/3-z
2/3-x+y,1/3+y,1/3+z
2/3+x,1/3+x-y,1/3+z
2/3-y,1/3-x,1/3+z
1/3+x,2/3+y,2/3+z
1/3-y,2/3+x-y,2/3+z
1/3-x+y,2/3-x,2/3+z
1/3+x-y,2/3-y,2/3-z
1/3-x,2/3-x+y,2/3-z
1/3+y,2/3+x,2/3-z
1/3-x,2/3-y,2/3-z
1/3+y,2/3-x+y,2/3-z
1/3+x-y,2/3+x,2/3-z
1/3-x+y,2/3+y,2/3+z
1/3+x,2/3+x-y,2/3+z
1/3-y,2/3-x,2/3+z
loop_
_atom_site_type_symbol
_atom_site_label
_atom_site_fract_x
_atom_site_fract_y
_atom_site_fract_z
Si Si1 0.207143 0.268891 0.104394
Si Si2 0.811966 0.333334 0.833334
Si Si3 0.420545 0.334784 0.722753
Si Si4 0.478574 0.666667 0.666667
Si Si5 0.602880 0.729626 0.412478
O O1 0.146178 0.292356 0.106253
O O2 0.277401 0.334456 0.069811
O O3 0.181713 0.195502 0.064139
O O4 0.222784 0.251318 0.179564
O O5 0.802347 0.401174 0.851597
O O6 0.864396 0.353779 0.768839
O O7 0.438504 0.334444 0.643139
O O8 0.356704 0.253501 0.738595
O O9 0.468928 0.734464 0.684404
O O10 0.577395 0.788698 0.403348
#
# Coordination Sequence:
#
# PCOD8324079 Si02
#       5
#    36  18  36  18  36
#     4  10  20  35  54  79 108 138 177 227 275 326
#     4  12  23  36  52  78 115 160 204 242 282 340
#     4  11  19  32  56  79 109 143 188 230 285 334
#     4  10  21  38  60  82 109 142 180 222 280 350
#     4  10  19  32  51  79 108 140 180 228 280 332
#
# _framework density 18.490252999999999
#
# number of rings (size 3 to 8) (size 9 to 14) (size 15 to 20)
#    0.000    1.500    2.500    5.500    0.000    0.000 
#    0.000    2.500    0.000    6.000    0.000    3.500 
#    0.000    0.000    0.000    0.000    0.000    0.000 
#
# Total GULP energy -595225.901178 kJ/mol
# GULP energy per Si atom -12400.539608 kJ/mol
# Density = 1.844817 g / cm^3
# Si number density = 18.490253 Si / 1000 Ang^3
#
#
#
# Elastic Constant Matrix: (Units=GPa)
#
#
# Indices 1 2 3 4 5 6 
#
# 1 86.3229 38.4839 49.7721 -0.0105 -0.0005 0.0000
# 2 38.4839 86.3229 49.7721 0.0105 0.0005 0.0000
# 3 49.7721 49.7721 172.6258 0.0000 0.0000 0.0000
# 4 -0.0105 0.0105 0.0000 23.2570 0.0000 0.0005
# 5 -0.0005 0.0005 0.0000 0.0000 23.2570 -0.0105
# 6 0.0000 0.0000 0.0000 0.0005 -0.0105 23.9195
#
#
#
# Elastic Compliance Matrix: (Units=1/GPa)
#
#
# Indices 1 2 3 4 5 6 
#
# 1 0.015654 -0.005249 -0.003000 0.000009 0.000000 0.000000
# 2 -0.005249 0.015654 -0.003000 -0.000009 0.000000 0.000000
# 3 -0.003000 -0.003000 0.007523 0.000000 0.000000 0.000000
# 4 0.000009 -0.000009 0.000000 0.042998 0.000000 -0.000001
# 5 0.000000 0.000000 0.000000 0.000000 0.042998 0.000019
# 6 0.000000 0.000000 0.000000 -0.000001 0.000019 0.041807
#
#
# Mechanical properties :
#
#
# Convention : Reuss Voigt Hill
#
# Bulk Modulus (GPa) = 61.22579 69.03644 65.13112
# Shear Modulus (GPa) = 25.69676 27.90291 26.79983
#
# Velocity S-wave (km/s) = 3.73197 3.88888 3.81123
# Velocity P-wave (km/s) = 7.19406 7.58829 7.39381
#
# Compressibility (1/GPa) = 0.01633299
#
# Stress axis : x y z
#
# Youngs Moduli (GPa) = 63.88006 63.88006 132.92817
#
# Poissons Ratio (x) = 0.33532 0.39879
# Poissons Ratio (y) = 0.33532 0.39879
# Poissons Ratio (z) = 0.19164 0.19164
#
# Static dielectric constant tensor:
#      x y z
#    x 3.223740 0.000000 0.000000 
#    y 0.000000 3.223740 0.000000 
#    z 0.000000 0.000000 3.837900 
# 
# 
# High freq. dielectric constant tensor:
#      x y z
#    x 1.699980 0.000000 0.000000 
#    y 0.000000 1.699980 0.000000 
#    z 0.000000 0.000000 1.733800 
# 
# From -- ./inp_files/6643.got.cif
#   From: 2010.03.12/outbox.cif.g09.slc.cpg/sg166_4_cif.got.tgz:6643.got - 2010.04.02 06:38:31.
