data_PCOD8324622
_publ_section_title
;
Structure prediction by ZEFSAII (Michael W. Deem and Ramdas Pophale) SiO2 
 PCOD8324622
Probable space group: P 61
;
_chemical_formula_sum "Si O2"
_cell_formula_units_Z 18
_cell_length_a 7.513651
_cell_length_b 7.513651
_cell_length_c 14.434501
_cell_angle_alpha 90.000000
_cell_angle_beta 90.000000
_cell_angle_gamma 120.000000
_cell_volume 705.723280
_symmetry_space_group_name_H-M "P 61"
_symmetry_group_IT_number 169
_symmetry_cell_setting 'hexagonal'
loop_
_space_group_symop_operation_xyz
x,y,z
x-y,x,1/6+z
-y,x-y,1/3+z
-x,-y,1/2+z
-x+y,-x,2/3+z
y,-x+y,5/6+z
loop_
_atom_site_type_symbol
_atom_site_label
_atom_site_fract_x
_atom_site_fract_y
_atom_site_fract_z
Si Si1 0.946511 0.496036 0.704790
Si Si2 0.770823 0.831067 0.288588
Si Si3 0.392263 0.594113 0.736997
O O1 0.845752 0.501712 0.803543
O O2 0.785866 0.309395 0.639818
O O3 0.013105 0.706866 0.652283
O O4 0.145543 0.476623 0.723376
O O5 0.958059 0.862363 0.353001
O O6 0.584914 0.590988 0.285103
#
# Coordination Sequence:
#
# PCOD8324622 Si02
#       3
#     6   6   6
#     4  12  28  49  87 117 171 222 280 353 422 503
#     4  12  26  52  79 120 164 213 277 342 419 506
#     4  12  28  51  80 127 167 221 285 355 419 507
#
# _framework density 25.505745999999998
#
# number of rings (size 3 to 8) (size 9 to 14) (size 15 to 20)
#    0.000    0.000    6.667    2.000    0.000    2.667 
#    0.000    0.000    0.000    0.000    0.000    0.000 
#    0.000    0.000    0.000    0.000    0.000    0.000 
#
# Total GULP energy -223149.644311 kJ/mol
# GULP energy per Si atom -12397.202462 kJ/mol
# Density = 2.544769 g / cm^3
# Si number density = 25.505746 Si / 1000 Ang^3
#
#
#
# Elastic Constant Matrix: (Units=GPa)
#
#
# Indices 1 2 3 4 5 6 
#
# 1 77.1468 3.0550 21.6934 0.0000 0.0000 0.0000
# 2 3.0550 77.1468 21.6934 0.0000 0.0000 0.0000
# 3 21.6934 21.6934 131.0434 0.0000 0.0000 0.0000
# 4 0.0000 0.0000 0.0000 38.3367 0.0000 0.0000
# 5 0.0000 0.0000 0.0000 0.0000 38.3367 0.0000
# 6 0.0000 0.0000 0.0000 0.0000 0.0000 37.0459
#
#
#
# Elastic Compliance Matrix: (Units=1/GPa)
#
#
# Indices 1 2 3 4 5 6 
#
# 1 0.013596 0.000099 -0.002267 0.000000 0.000000 0.000000
# 2 0.000099 0.013596 -0.002267 0.000000 0.000000 0.000000
# 3 -0.002267 -0.002267 0.008382 0.000000 0.000000 0.000000
# 4 0.000000 0.000000 0.000000 0.026085 0.000000 0.000000
# 5 0.000000 0.000000 0.000000 0.000000 0.026085 0.000000
# 6 0.000000 0.000000 0.000000 0.000000 0.000000 0.026994
#
#
# Mechanical properties :
#
#
# Convention : Reuss Voigt Hill
#
# Bulk Modulus (GPa) = 37.44872 42.02450 39.73661
# Shear Modulus (GPa) = 37.73370 38.67022 38.20196
#
# Velocity S-wave (km/s) = 3.85049 3.89799 3.87431
# Velocity P-wave (km/s) = 5.87220 6.06393 5.96884
#
# Compressibility (1/GPa) = 0.02670318
#
# Stress axis : x y z
#
# Youngs Moduli (GPa) = 73.55174 73.55174 119.30796
#
# Poissons Ratio (x) = -0.00729 0.27048
# Poissons Ratio (y) = -0.00729 0.27048
# Poissons Ratio (z) = 0.16675 0.16675
#
# Static dielectric constant tensor:
#      x y z
#    x 4.496540 0.000000 0.000000 
#    y 0.000000 4.496540 0.000000 
#    z 0.000000 0.000000 5.159380 
# 
# 
# High freq. dielectric constant tensor:
#      x y z
#    x 2.007340 0.000000 0.000000 
#    y 0.000000 2.007340 0.000000 
#    z 0.000000 0.000000 2.052530 
# 
# From -- ./inp_files/825.got.cif
#   From: 2010.03.12/outbox.cif.g09.slc.cpg/sg169_cif.got.tgz:825.got - 2010.04.02 06:46:06.
