data_PCOD8324142
_publ_section_title
;
Structure prediction by ZEFSAII (Michael W. Deem and Ramdas Pophale) SiO2 
 PCOD8324142
Probable space group: R -3 M
;
_chemical_formula_sum "Si O2"
_cell_formula_units_Z 108
_cell_length_a 18.266269
_cell_length_b 18.266269
_cell_length_c 17.100691
_cell_angle_alpha 90.000000
_cell_angle_beta 90.000000
_cell_angle_gamma 120.000000
_cell_volume 4941.331488
_symmetry_space_group_name_H-M "R -3 M"
_symmetry_group_IT_number 166
_symmetry_cell_setting 'hexagonal'
loop_
_space_group_symop_operation_xyz
x,y,z
-y,x-y,z
-x+y,-x,z
x-y,-y,-z
-x,-x+y,-z
y,x,-z
-x,-y,-z
y,-x+y,-z
x-y,x,-z
-x+y,y,z
x,x-y,z
-y,-x,z
2/3+x,1/3+y,1/3+z
2/3-y,1/3+x-y,1/3+z
2/3-x+y,1/3-x,1/3+z
2/3+x-y,1/3-y,1/3-z
2/3-x,1/3-x+y,1/3-z
2/3+y,1/3+x,1/3-z
2/3-x,1/3-y,1/3-z
2/3+y,1/3-x+y,1/3-z
2/3+x-y,1/3+x,1/3-z
2/3-x+y,1/3+y,1/3+z
2/3+x,1/3+x-y,1/3+z
2/3-y,1/3-x,1/3+z
1/3+x,2/3+y,2/3+z
1/3-y,2/3+x-y,2/3+z
1/3-x+y,2/3-x,2/3+z
1/3+x-y,2/3-y,2/3-z
1/3-x,2/3-x+y,2/3-z
1/3+y,2/3+x,2/3-z
1/3-x,2/3-y,2/3-z
1/3+y,2/3-x+y,2/3-z
1/3+x-y,2/3+x,2/3-z
1/3-x+y,2/3+y,2/3+z
1/3+x,2/3+x-y,2/3+z
1/3-y,2/3-x,2/3+z
loop_
_atom_site_type_symbol
_atom_site_label
_atom_site_fract_x
_atom_site_fract_y
_atom_site_fract_z
Si Si1 0.901288 0.633503 0.904436
Si Si2 0.040769 0.239478 0.863082
Si Si3 0.499156 0.666134 0.969410
O O1 0.809976 0.619951 0.882622
O O2 0.932597 0.599264 0.833334
O O3 0.967432 0.733592 0.919943
O O4 0.897282 0.583959 0.983511
O O5 0.106620 0.213240 0.902567
O O6 0.097881 0.333334 0.833334
O O7 0.994853 0.179952 0.788943
O O8 0.474195 0.737098 0.987812
O O9 0.423317 0.576684 0.998310
#
# Coordination Sequence:
#
# PCOD8324142 Si02
#       3
#    36  36  36
#     4  10  20  33  52  80 113 149 186 226 277 334
#     4   9  19  35  53  74 103 142 187 232 275 320
#     4  10  20  35  56  82 113 148 186 228 276 333
#
# _framework density 21.856456000000001
#
# number of rings (size 3 to 8) (size 9 to 14) (size 15 to 20)
#    0.000    2.333    0.000    2.333    0.000    5.333 
#    0.000    8.333    0.000   10.000    0.000    0.000 
#    0.000    0.000    0.000  107.667    0.000    0.333 
#
# Total GULP energy -446134.330377 kJ/mol
# GULP energy per Si atom -12392.620288 kJ/mol
# Density = 2.180671 g / cm^3
# Si number density = 21.856456 Si / 1000 Ang^3
#
#
#
# Elastic Constant Matrix: (Units=GPa)
#
#
# Indices 1 2 3 4 5 6 
#
# 1 140.2977 59.5254 40.0541 18.8767 -0.0027 0.0000
# 2 59.5254 140.2977 40.0541 -18.8767 0.0027 0.0000
# 3 40.0541 40.0541 36.4930 0.0000 0.0000 0.0000
# 4 18.8767 -18.8767 0.0000 62.4277 0.0000 0.0027
# 5 -0.0027 0.0027 0.0000 0.0000 62.4277 18.8767
# 6 0.0000 0.0000 0.0000 0.0027 18.8767 40.3862
#
#
#
# Elastic Compliance Matrix: (Units=1/GPa)
#
#
# Indices 1 2 3 4 5 6 
#
# 1 0.011677 -0.002741 -0.009809 -0.004360 0.000001 0.000000
# 2 -0.002741 0.011677 -0.009809 0.004360 -0.000001 0.000000
# 3 -0.009809 -0.009809 0.048934 0.000000 0.000000 0.000000
# 4 -0.004360 0.004360 0.000000 0.018655 0.000000 -0.000001
# 5 0.000001 -0.000001 0.000000 0.000000 0.018655 -0.008719
# 6 0.000000 0.000000 0.000000 -0.000001 -0.008719 0.028836
#
#
# Mechanical properties :
#
#
# Convention : Reuss Voigt Hill
#
# Bulk Modulus (GPa) = 36.26771 66.26170 51.26470
# Shear Modulus (GPa) = 25.99512 44.87863 35.43688
#
# Velocity S-wave (km/s) = 3.45245 4.53629 4.03096
# Velocity P-wave (km/s) = 5.70282 7.60393 6.72094
#
# Compressibility (1/GPa) = 0.02757274
#
# Stress axis : x y z
#
# Youngs Moduli (GPa) = 85.63489 85.63489 20.43548
#
# Poissons Ratio (x) = 0.23470 0.20045
# Poissons Ratio (y) = 0.23470 0.20045
# Poissons Ratio (z) = 0.83998 0.83998
#
# Static dielectric constant tensor:
#      x y z
#    x 4.276560 0.000000 0.000000 
#    y 0.000000 4.276560 0.000000 
#    z 0.000000 0.000000 3.720550 
# 
# 
# High freq. dielectric constant tensor:
#      x y z
#    x 1.864700 0.000000 0.000000 
#    y 0.000000 1.864700 0.000000 
#    z 0.000000 0.000000 1.826130 
# 
# From -- ./inp_files/3668.got.cif
#   From: 2010.03.12/outbox.cif.g09.slc.cpg/sg166_2_cif.got.tgz:3668.got - 2010.04.02 06:38:31.
