data_PCOD8324401
_publ_section_title
;
Structure prediction by ZEFSAII (Michael W. Deem and Ramdas Pophale) SiO2 
 PCOD8324401
Probable space group: R -3 C 
;
_chemical_formula_sum "Si O2"
_cell_formula_units_Z 144
_cell_length_a 22.868267
_cell_length_b 22.868267
_cell_length_c 15.379095
_cell_angle_alpha 90.000000
_cell_angle_beta 90.000000
_cell_angle_gamma 120.000000
_cell_volume 6965.109040
_symmetry_space_group_name_H-M "R -3 C "
_symmetry_group_IT_number 167
_symmetry_cell_setting 'hexagonal'
loop_
_space_group_symop_operation_xyz
x,y,z
-y,x-y,z
-x+y,-x,z
x-y,-y,1/2-z
-x,-x+y,1/2-z
y,x,1/2-z
-x,-y,-z
y,-x+y,-z
x-y,x,-z
-x+y,y,1/2+z
x,x-y,1/2+z
-y,-x,1/2+z
2/3+x,1/3+y,1/3+z
2/3-y,1/3+x-y,1/3+z
2/3-x+y,1/3-x,1/3+z
2/3+x-y,1/3-y,5/6-z
2/3-x,1/3-x+y,5/6-z
2/3+y,1/3+x,5/6-z
2/3-x,1/3-y,1/3-z
2/3+y,1/3-x+y,1/3-z
2/3+x-y,1/3+x,1/3-z
2/3-x+y,1/3+y,5/6+z
2/3+x,1/3+x-y,5/6+z
2/3-y,1/3-x,5/6+z
1/3+x,2/3+y,2/3+z
1/3-y,2/3+x-y,2/3+z
1/3-x+y,2/3-x,2/3+z
1/3+x-y,2/3-y,1/6-z
1/3-x,2/3-x+y,1/6-z
1/3+y,2/3+x,1/6-z
1/3-x,2/3-y,2/3-z
1/3+y,2/3-x+y,2/3-z
1/3+x-y,2/3+x,2/3-z
1/3-x+y,2/3+y,1/6+z
1/3+x,2/3+x-y,1/6+z
1/3-y,2/3-x,1/6+z
loop_
_atom_site_type_symbol
_atom_site_label
_atom_site_fract_x
_atom_site_fract_y
_atom_site_fract_z
Si Si1 0.400205 0.924164 0.568973
Si Si2 0.793671 0.716534 0.839306
Si Si3 0.720265 0.797471 0.346768
Si Si4 0.142939 0.408737 0.069299
O O1 0.332792 0.887882 0.510547
O O2 0.455015 0.911355 0.518917
O O3 0.389586 0.893787 0.665971
O O4 0.433217 0.007176 0.573519
O O5 0.752383 0.666667 0.916667
O O6 0.764720 0.670857 0.754084
O O7 0.873907 0.747600 0.852262
O O8 0.781032 0.782167 0.348553
O O9 0.083155 0.333334 0.083334
#
# Coordination Sequence:
#
# PCOD8324401 Si02
#       4
#    36  36  36  36
#     4  11  21  35  53  79 110 140 185 227 272 332
#     4  11  20  36  54  77 110 146 178 229 276 325
#     4  11  23  35  55  82 109 147 187 227 276 334
#     4  11  20  35  54  77 111 145 176 223 284 325
#
# _framework density 20.674479000000002
#
# number of rings (size 3 to 8) (size 9 to 14) (size 15 to 20)
#    0.000    1.000    7.500    2.250    0.000    0.000 
#    0.000    0.000    0.000    1.000    0.000    3.500 
#    0.000    0.000    0.000    0.250    0.000    0.000 
#
# Total GULP energy -594962.980761 kJ/mol
# GULP energy per Si atom -12395.062099 kJ/mol
# Density = 2.062742 g / cm^3
# Si number density = 20.674479 Si / 1000 Ang^3
#
#
#
# Elastic Constant Matrix: (Units=GPa)
#
#
# Indices 1 2 3 4 5 6 
#
# 1 130.8070 55.2696 -2.6548 -2.3477 0.0000 0.0000
# 2 55.2696 130.8070 -2.6548 2.3477 0.0000 0.0000
# 3 -2.6548 -2.6548 41.5351 0.0000 0.0000 0.0000
# 4 -2.3477 2.3477 0.0000 22.5597 0.0000 0.0000
# 5 0.0000 0.0000 0.0000 0.0000 22.5597 -2.3477
# 6 0.0000 0.0000 0.0000 0.0000 -2.3477 37.7687
#
#
#
# Elastic Compliance Matrix: (Units=1/GPa)
#
#
# Indices 1 2 3 4 5 6 
#
# 1 0.009354 -0.003970 0.000344 0.001387 0.000000 0.000000
# 2 -0.003970 0.009354 0.000344 -0.001387 0.000000 0.000000
# 3 0.000344 0.000344 0.024120 0.000000 0.000000 0.000000
# 4 0.001387 -0.001387 0.000000 0.044615 0.000000 0.000000
# 5 0.000000 0.000000 0.000000 0.000000 0.044615 0.002773
# 6 0.000000 0.000000 0.000000 0.000000 0.002773 0.026649
#
#
# Mechanical properties :
#
#
# Convention : Reuss Voigt Hill
#
# Bulk Modulus (GPa) = 27.57523 44.78544 36.18034
# Shear Modulus (GPa) = 28.19106 33.45691 30.82398
#
# Velocity S-wave (km/s) = 3.69666 4.02714 3.86543
# Velocity P-wave (km/s) = 5.62024 6.58278 6.12046
#
# Compressibility (1/GPa) = 0.03626443
#
# Stress axis : x y z
#
# Youngs Moduli (GPa) = 106.90266 106.90266 41.45937
#
# Poissons Ratio (x) = 0.42444 -0.01427
# Poissons Ratio (y) = 0.42444 -0.01427
# Poissons Ratio (z) = -0.03679 -0.03679
#
# Static dielectric constant tensor:
#      x y z
#    x 3.606440 0.000000 0.000000 
#    y 0.000000 3.606440 0.000000 
#    z 0.000000 0.000000 4.584310 
# 
# 
# High freq. dielectric constant tensor:
#      x y z
#    x 1.780010 0.000000 0.000000 
#    y 0.000000 1.780010 0.000000 
#    z 0.000000 0.000000 1.846630 
# 
# From -- ./inp_files/3284.got.cif
#   From: 2010.03.12/outbox.cif.g09.slc.cpg/sg167_2_cif.got.tgz:3284.got - 2010.04.02 06:42:56.
