data_PCOD8324809
_publ_section_title
;
Structure prediction by ZEFSAII (Michael W. Deem and Ramdas Pophale) SiO2 
 PCOD8324809
Probable space group: P 62
;
_chemical_formula_sum "Si O2"
_cell_formula_units_Z 42
_cell_length_a 13.749753
_cell_length_b 13.749753
_cell_length_c 11.801476
_cell_angle_alpha 90.000000
_cell_angle_beta 90.000000
_cell_angle_gamma 120.000000
_cell_volume 1932.220798
_symmetry_space_group_name_H-M "P 62"
_symmetry_group_IT_number 171
_symmetry_cell_setting 'hexagonal'
loop_
_space_group_symop_operation_xyz
x,y,z
x-y,x,1/3+z
-y,x-y,2/3+z
-x,-y,z
-x+y,-x,1/3+z
y,-x+y,2/3+z
loop_
_atom_site_type_symbol
_atom_site_label
_atom_site_fract_x
_atom_site_fract_y
_atom_site_fract_z
Si Si1 0.085579 0.633318 0.534340
Si Si2 0.302473 0.255185 0.584810
Si Si3 0.696089 0.215112 0.129599
Si Si4 0.740889 0.711492 0.995049
Si Si5 0.950248 0.371956 0.120023
Si Si6 0.863323 0.202558 0.739007
Si Si7 0.310744 0.762091 0.870983
O O1 0.061936 0.704929 0.444343
O O2 0.094558 0.691859 0.655108
O O3 0.200501 0.636934 0.493221
O O4 0.000000 0.500000 0.541556
O O5 0.422853 0.314746 0.525911
O O6 0.264318 0.127788 0.621209
O O7 0.304992 0.329441 0.690555
O O8 0.217511 0.258270 0.493639
O O9 0.818905 0.321865 0.138515
O O10 0.607804 0.236721 0.197321
O O11 0.666656 0.189513 0.998271
O O12 0.643230 0.643512 0.903489
O O13 0.744032 0.829750 0.009200
O O14 0.000000 0.500000 0.086695
O O15 0.750773 0.182760 0.803276
#
# Coordination Sequence:
#
# PCOD8324809 Si02
#       7
#     6   6   6   6   6   6   6
#     4  12  25  44  70 105 147 187 235 291 367 435
#     4  11  26  46  72  99 141 187 247 298 354 426
#     4  11  25  41  66 104 144 185 229 284 361 434
#     4  11  27  45  68 105 141 190 238 301 360 427
#     4  11  24  41  68 101 141 186 232 292 356 424
#     4  12  26  44  73 100 143 192 242 299 357 429
#     4  12  24  40  64 108 145 185 229 282 361 446
#
# _framework density 21.736644999999999
#
# number of rings (size 3 to 8) (size 9 to 14) (size 15 to 20)
#    0.000    0.571    4.286    3.000    8.000    0.000 
#    0.000    0.000    0.000   21.429    0.000    0.000 
#    0.000    0.000    0.000    0.000    0.000    0.000 
#
# Total GULP energy -520808.750252 kJ/mol
# GULP energy per Si atom -12400.208339 kJ/mol
# Density = 2.168717 g / cm^3
# Si number density = 21.736645 Si / 1000 Ang^3
#
#
#
# Elastic Constant Matrix: (Units=GPa)
#
#
# Indices 1 2 3 4 5 6 
#
# 1 98.5708 39.0963 31.7041 0.0000 0.0000 0.0000
# 2 39.0963 98.5708 31.7041 0.0000 0.0000 0.0000
# 3 31.7041 31.7041 103.9986 0.0000 0.0000 0.0000
# 4 0.0000 0.0000 0.0000 29.2422 0.0000 0.0000
# 5 0.0000 0.0000 0.0000 0.0000 29.2422 0.0000
# 6 0.0000 0.0000 0.0000 0.0000 0.0000 29.7372
#
#
#
# Elastic Compliance Matrix: (Units=1/GPa)
#
#
# Indices 1 2 3 4 5 6 
#
# 1 0.012632 -0.004182 -0.002576 0.000000 0.000000 0.000000
# 2 -0.004182 0.012632 -0.002576 0.000000 0.000000 0.000000
# 3 -0.002576 -0.002576 0.011186 0.000000 0.000000 0.000000
# 4 0.000000 0.000000 0.000000 0.034197 0.000000 0.000000
# 5 0.000000 0.000000 0.000000 0.000000 0.034197 0.000000
# 6 0.000000 0.000000 0.000000 0.000000 0.000000 0.033628
#
#
# Mechanical properties :
#
#
# Convention : Reuss Voigt Hill
#
# Bulk Modulus (GPa) = 56.23489 56.23881 56.23685
# Shear Modulus (GPa) = 30.66201 30.88670 30.77435
#
# Velocity S-wave (km/s) = 3.75989 3.77364 3.76677
# Velocity P-wave (km/s) = 6.69150 6.70195 6.69673
#
# Compressibility (1/GPa) = 0.01778256
#
# Stress axis : x y z
#
# Youngs Moduli (GPa) = 79.16284 79.16284 89.39596
#
# Poissons Ratio (x) = 0.33104 0.23030
# Poissons Ratio (y) = 0.33104 0.23030
# Poissons Ratio (z) = 0.20393 0.20393
#
# Static dielectric constant tensor:
#      x y z
#    x 3.993220 0.000000 0.000000 
#    y 0.000000 3.993220 0.000000 
#    z 0.000000 0.000000 4.079220 
# 
# 
# High freq. dielectric constant tensor:
#      x y z
#    x 1.852280 0.000000 0.000000 
#    y 0.000000 1.852280 0.000000 
#    z 0.000000 0.000000 1.868720 
# 
# From -- ./inp_files/1677.got.cif
#   From: 2010.03.12/outbox.cif.g09.slc.cpg/sg171_1_cif.got.tgz:1677.got - 2010.04.02 06:49:11.
