data_PCOD8324709
_publ_section_title
;
Structure prediction by ZEFSAII (Michael W. Deem and Ramdas Pophale) SiO2 
 PCOD8324709
Probable space group: P 65
;
_chemical_formula_sum "Si O2"
_cell_formula_units_Z 48
_cell_length_a 12.727133
_cell_length_b 12.727133
_cell_length_c 15.109874
_cell_angle_alpha 90.000000
_cell_angle_beta 90.000000
_cell_angle_gamma 120.000000
_cell_volume 2119.593796
_symmetry_space_group_name_H-M "P 65"
_symmetry_group_IT_number 170
_symmetry_cell_setting 'hexagonal'
loop_
_space_group_symop_operation_xyz
x,y,z
x-y,x,5/6+z
-y,x-y,2/3+z
-x,-y,1/2+z
-x+y,-x,1/3+z
y,-x+y,1/6+z
loop_
_atom_site_type_symbol
_atom_site_label
_atom_site_fract_x
_atom_site_fract_y
_atom_site_fract_z
Si Si1 0.521984 0.771113 0.879580
Si Si2 0.768549 0.163929 0.645979
Si Si3 0.995457 0.557492 0.443908
Si Si4 0.866014 0.958100 0.431268
Si Si5 0.107173 0.570850 0.117777
Si Si6 0.615395 0.148745 0.485636
Si Si7 0.959712 0.622689 0.844617
Si Si8 0.198923 0.856676 0.850913
O O1 0.452696 0.669365 0.805560
O O2 0.426817 0.756564 0.956453
O O3 0.577229 0.901539 0.830373
O O4 0.616549 0.740319 0.928156
O O5 0.691417 0.093794 0.731809
O O6 0.831820 0.092746 0.605968
O O7 0.871831 0.303073 0.661245
O O8 0.688572 0.188612 0.575450
O O9 0.915460 0.445878 0.511527
O O10 0.052602 0.507637 0.370327
O O11 0.945909 0.935710 0.358752
O O12 0.855093 0.074802 0.407348
O O13 0.981931 0.475309 0.166556
O O14 0.690858 0.139515 0.404003
O O15 0.925777 0.678918 0.926417
O O16 0.099875 0.719100 0.825533
#
# Coordination Sequence:
#
# PCOD8324709 Si02
#       8
#     6   6   6   6   6   6   6   6
#     4  11  28  44  67 107 153 183 239 302 376 438
#     4  12  24  42  75  98 141 188 238 304 366 433
#     4  11  27  47  68 111 147 192 245 297 376 455
#     4  12  24  47  70 103 136 184 252 312 363 438
#     4  11  24  44  66 102 144 186 237 294 360 444
#     4  11  23  45  72 103 138 187 241 296 364 439
#     4  12  26  44  75 103 144 193 242 303 364 441
#     4  12  22  45  75 103 135 185 252 300 351 440
#
# _framework density 22.645847
#
# number of rings (size 3 to 8) (size 9 to 14) (size 15 to 20)
#    0.000    0.500    6.250    1.500   10.500    2.000 
#    2.250    0.000    0.000    0.000    0.000    0.000 
#    0.000    0.000    0.000    0.000    0.000    0.000 
#
# Total GULP energy -595091.056735 kJ/mol
# GULP energy per Si atom -12397.730349 kJ/mol
# Density = 2.259430 g / cm^3
# Si number density = 22.645847 Si / 1000 Ang^3
#
#
#
# Elastic Constant Matrix: (Units=GPa)
#
#
# Indices 1 2 3 4 5 6 
#
# 1 94.5179 32.3452 34.7867 0.0000 0.0000 0.0000
# 2 32.3452 94.5179 34.7867 0.0000 0.0000 0.0000
# 3 34.7867 34.7867 80.6389 0.0000 0.0000 0.0000
# 4 0.0000 0.0000 0.0000 41.0246 0.0000 0.0000
# 5 0.0000 0.0000 0.0000 0.0000 41.0246 0.0000
# 6 0.0000 0.0000 0.0000 0.0000 0.0000 31.0863
#
#
#
# Elastic Compliance Matrix: (Units=1/GPa)
#
#
# Indices 1 2 3 4 5 6 
#
# 1 0.013205 -0.002879 -0.004454 0.000000 0.000000 0.000000
# 2 -0.002879 0.013205 -0.004454 0.000000 0.000000 0.000000
# 3 -0.004454 -0.004454 0.016244 0.000000 0.000000 0.000000
# 4 0.000000 0.000000 0.000000 0.024376 0.000000 0.000000
# 5 0.000000 0.000000 0.000000 0.000000 0.024376 0.000000
# 6 0.000000 0.000000 0.000000 0.000000 0.000000 0.032168
#
#
# Mechanical properties :
#
#
# Convention : Reuss Voigt Hill
#
# Bulk Modulus (GPa) = 52.41729 52.61240 52.51485
# Shear Modulus (GPa) = 32.57157 33.81084 33.19120
#
# Velocity S-wave (km/s) = 3.79661 3.86816 3.83255
# Velocity P-wave (km/s) = 6.51274 6.57521 6.54405
#
# Compressibility (1/GPa) = 0.01907767
#
# Stress axis : x y z
#
# Youngs Moduli (GPa) = 75.73036 75.73036 61.56147
#
# Poissons Ratio (x) = 0.21807 0.27421
# Poissons Ratio (y) = 0.21807 0.27421
# Poissons Ratio (z) = 0.33732 0.33732
#
# Static dielectric constant tensor:
#      x y z
#    x 3.992720 0.000000 0.000000 
#    y 0.000000 3.992720 0.000000 
#    z 0.000000 0.000000 4.097120 
# 
# 
# High freq. dielectric constant tensor:
#      x y z
#    x 1.885960 0.000000 0.000000 
#    y 0.000000 1.885960 0.000000 
#    z 0.000000 0.000000 1.898180 
# 
# From -- ./inp_files/1479.got.cif
#   From: 2010.03.12/outbox.cif.g09.slc.cpg/sg170_cif.got.tgz:1479.got - 2010.04.02 06:47:37.
