data_PCOD8324496
_publ_section_title
;
Structure prediction by ZEFSAII (Michael W. Deem and Ramdas Pophale) SiO2 
 PCOD8324496
Probable space group: P 61
;
_chemical_formula_sum "Si O2"
_cell_formula_units_Z 48
_cell_length_a 18.677935
_cell_length_b 18.677935
_cell_length_c 7.982989
_cell_angle_alpha 90.000000
_cell_angle_beta 90.000000
_cell_angle_gamma 120.000000
_cell_volume 2411.869924
_symmetry_space_group_name_H-M "P 61"
_symmetry_group_IT_number 169
_symmetry_cell_setting 'hexagonal'
loop_
_space_group_symop_operation_xyz
x,y,z
x-y,x,1/6+z
-y,x-y,1/3+z
-x,-y,1/2+z
-x+y,-x,2/3+z
y,-x+y,5/6+z
loop_
_atom_site_type_symbol
_atom_site_label
_atom_site_fract_x
_atom_site_fract_y
_atom_site_fract_z
Si Si1 0.896967 0.505538 0.420770
Si Si2 0.676110 0.284007 0.016157
Si Si3 0.467971 0.037763 0.333325
Si Si4 0.459081 0.169898 0.525776
Si Si5 0.314325 0.024541 0.148668
Si Si6 0.928831 0.250220 0.115089
Si Si7 0.157805 0.349201 0.429771
Si Si8 0.341161 0.231772 0.893561
O O1 0.811028 0.420804 0.389167
O O2 0.946932 0.497022 0.574300
O O3 0.883473 0.583146 0.452018
O O4 0.952522 0.517877 0.261586
O O5 0.651939 0.317062 0.851037
O O6 0.761904 0.287645 0.980001
O O7 0.499490 0.122221 0.436175
O O8 0.391628 0.021537 0.219532
O O9 0.390090 0.098181 0.640369
O O10 0.424604 0.211536 0.391037
O O11 0.296588 0.091249 0.243966
O O12 0.230032 0.935683 0.166638
O O13 0.347530 0.054164 0.961811
O O14 0.855960 0.156003 0.132446
O O15 0.017150 0.262460 0.060843
O O16 0.148342 0.378806 0.243608
#
# Coordination Sequence:
#
# PCOD8324496 Si02
#       8
#     6   6   6   6   6   6   6   6
#     4  12  26  42  64  93 125 169 216 276 332 389
#     4  12  29  47  67  91 131 180 223 269 342 402
#     4  11  26  37  62  93 122 162 213 273 326 385
#     4  11  22  42  65  89 125 166 218 270 322 396
#     4   9  20  38  57  92 122 161 206 259 324 380
#     4  10  20  37  64  91 127 160 212 263 324 389
#     4   9  20  35  64  90 125 160 210 266 318 393
#     4  10  21  40  63  95 127 170 212 272 328 396
#
# _framework density 19.901568999999999
#
# number of rings (size 3 to 8) (size 9 to 14) (size 15 to 20)
#    0.000    1.500    2.500    1.500    7.000    3.000 
#    0.000    0.000    0.000    0.000    0.000   21.000 
#    0.000    0.000    0.000    0.000    0.000    0.000 
#
# Total GULP energy -594832.899344 kJ/mol
# GULP energy per Si atom -12392.352070 kJ/mol
# Density = 1.985627 g / cm^3
# Si number density = 19.901569 Si / 1000 Ang^3
#
#
#
# Elastic Constant Matrix: (Units=GPa)
#
#
# Indices 1 2 3 4 5 6 
#
# 1 88.7792 45.7486 38.5566 0.0000 0.0000 0.0000
# 2 45.7486 88.7792 38.5566 0.0000 0.0000 0.0000
# 3 38.5566 38.5566 86.3200 0.0000 0.0000 0.0000
# 4 0.0000 0.0000 0.0000 33.5266 0.0000 0.0000
# 5 0.0000 0.0000 0.0000 0.0000 33.5266 0.0000
# 6 0.0000 0.0000 0.0000 0.0000 0.0000 21.5153
#
#
#
# Elastic Compliance Matrix: (Units=1/GPa)
#
#
# Indices 1 2 3 4 5 6 
#
# 1 0.016615 -0.006624 -0.004463 0.000000 0.000000 0.000000
# 2 -0.006624 0.016615 -0.004463 0.000000 0.000000 0.000000
# 3 -0.004463 -0.004463 0.015572 0.000000 0.000000 0.000000
# 4 0.000000 0.000000 0.000000 0.029827 0.000000 0.000000
# 5 0.000000 0.000000 0.000000 0.000000 0.029827 0.000000
# 6 0.000000 0.000000 0.000000 0.000000 0.000000 0.046479
#
#
# Mechanical properties :
#
#
# Convention : Reuss Voigt Hill
#
# Bulk Modulus (GPa) = 56.48712 56.62245 56.55479
# Shear Modulus (GPa) = 26.05036 27.11482 26.58259
#
# Velocity S-wave (km/s) = 3.62188 3.69514 3.65869
# Velocity P-wave (km/s) = 6.77758 6.83509 6.80639
#
# Compressibility (1/GPa) = 0.01770315
#
# Stress axis : x y z
#
# Youngs Moduli (GPa) = 60.18490 60.18490 64.21881
#
# Poissons Ratio (x) = 0.39865 0.28661
# Poissons Ratio (y) = 0.39865 0.28661
# Poissons Ratio (z) = 0.26860 0.26860
#
# Static dielectric constant tensor:
#      x y z
#    x 3.730390 0.000000 0.000000 
#    y 0.000000 3.730390 0.000000 
#    z 0.000000 0.000000 3.913510 
# 
# 
# High freq. dielectric constant tensor:
#      x y z
#    x 1.767960 0.000000 0.000000 
#    y 0.000000 1.767960 0.000000 
#    z 0.000000 0.000000 1.795670 
# 
# From -- ./inp_files/772.got.cif
#   From: 2010.03.12/outbox.cif.g09.slc.cpg/sg169_cif.got.tgz:772.got - 2010.04.02 06:46:06.
