data_PCOD8324995
_publ_section_title
;
Structure prediction by ZEFSAII (Michael W. Deem and Ramdas Pophale) SiO2 
 PCOD8324995
Probable space group: P -6
;
_chemical_formula_sum "Si O2"
_cell_formula_units_Z 48
_cell_length_a 18.968585
_cell_length_b 18.968585
_cell_length_c 9.361454
_cell_angle_alpha 90.000000
_cell_angle_beta 90.000000
_cell_angle_gamma 120.000000
_cell_volume 2917.049571
_symmetry_space_group_name_H-M "P -6"
_symmetry_group_IT_number 174
_symmetry_cell_setting 'hexagonal'
loop_
_space_group_symop_operation_xyz
x,y,z
-x+y,-x,-z
-y,x-y,z
x,y,-z
-x+y,-x,z
-y,x-y,-z
loop_
_atom_site_type_symbol
_atom_site_label
_atom_site_fract_x
_atom_site_fract_y
_atom_site_fract_z
Si Si1 0.494940 0.667030 0.834299
Si Si2 0.842988 0.844076 0.669621
Si Si3 0.414649 0.425961 0.668187
Si Si4 0.336834 0.246126 0.669629
Si Si5 0.909292 0.246126 0.669629
Si Si6 0.574039 0.585351 0.331813
Si Si7 0.494940 0.827910 0.165701
Si Si8 0.155924 0.157012 0.669621
O O1 0.557207 0.651107 0.744043
O O2 0.402541 0.597459 0.803590
O O3 0.504668 0.752334 0.784328
O O4 0.516607 0.668696 0.000000
O O5 0.838998 0.845167 0.500000
O O6 0.778844 0.753594 0.726128
O O7 0.822473 0.911237 0.733988
O O8 0.933487 0.866974 0.718306
O O9 0.400576 0.426792 0.500000
O O10 0.399964 0.338055 0.720012
O O11 0.506403 0.493597 0.711912
O O12 0.348893 0.442793 0.744043
O O13 0.334727 0.241403 0.500000
O O14 0.362960 0.181480 0.728433
O O15 0.246406 0.221156 0.726128
O O16 0.906677 0.241401 0.500000
O O17 0.938091 0.338055 0.720011
O O18 0.573207 0.599424 0.500000
O O19 0.516607 0.847911 0.000000
O O20 0.154834 0.161002 0.500000
#
# Coordination Sequence:
#
# PCOD8324995 Si02
#       8
#     6   6   6   6   6   6   6   6
#     4   9  17  29  44  61  83 113 146 175 203 240
#     4   8  12  17  26  42  65  93 123 152 181 215
#     4   9  17  28  42  61  83 106 134 171 214 253
#     4   8  14  24  37  53  75 104 133 159 194 242
#     4   8  14  24  37  53  75 104 133 159 194 242
#     4   9  17  28  42  61  83 106 134 171 214 253
#     4   9  17  29  44  61  83 113 146 175 203 240
#     4   8  12  17  26  42  65  93 123 152 181 215
#
# _framework density 16.454982000000001
#
# number of rings (size 3 to 8) (size 9 to 14) (size 15 to 20)
#    0.000    3.500    0.000    2.000    0.000    3.500 
#    0.000    2.500    0.000    2.750    0.000    3.500 
#    0.000    0.000    0.000    0.000    0.000    0.000 
#
# Total GULP energy -594760.072239 kJ/mol
# GULP energy per Si atom -12390.834838 kJ/mol
# Density = 1.641753 g / cm^3
# Si number density = 16.454982 Si / 1000 Ang^3
#
#
#
# Elastic Constant Matrix: (Units=GPa)
#
#
# Indices 1 2 3 4 5 6 
#
# 1 125.2484 86.7993 20.5198 0.0000 0.0000 0.0000
# 2 86.7993 125.2484 20.5198 0.0000 0.0000 0.0000
# 3 20.5198 20.5198 14.5564 0.0000 0.0000 0.0000
# 4 0.0000 0.0000 0.0000 10.4284 0.0000 0.0000
# 5 0.0000 0.0000 0.0000 0.0000 10.4284 0.0000
# 6 0.0000 0.0000 0.0000 0.0000 0.0000 19.2245
#
#
#
# Elastic Compliance Matrix: (Units=1/GPa)
#
#
# Indices 1 2 3 4 5 6 
#
# 1 0.016247 -0.009762 -0.009142 0.000000 0.000000 0.000000
# 2 -0.009762 0.016247 -0.009142 0.000000 0.000000 0.000000
# 3 -0.009142 -0.009142 0.094473 0.000000 0.000000 0.000000
# 4 0.000000 0.000000 0.000000 0.095892 0.000000 0.000000
# 5 0.000000 0.000000 0.000000 0.000000 0.095892 0.000000
# 6 0.000000 0.000000 0.000000 0.000000 0.000000 0.052017
#
#
# Mechanical properties :
#
#
# Convention : Reuss Voigt Hill
#
# Bulk Modulus (GPa) = 14.10932 57.85899 35.98415
# Shear Modulus (GPa) = 11.09914 17.16386 14.13150
#
# Velocity S-wave (km/s) = 2.59996 3.23318 2.93370
# Velocity P-wave (km/s) = 4.19597 7.01258 5.77851
#
# Compressibility (1/GPa) = 0.07087515
#
# Stress axis : x y z
#
# Youngs Moduli (GPa) = 61.55032 61.55032 10.58502
#
# Poissons Ratio (x) = 0.60083 0.09677
# Poissons Ratio (y) = 0.60083 0.09677
# Poissons Ratio (z) = 0.56270 0.56270
#
# Static dielectric constant tensor:
#      x y z
#    x 3.330570 0.000000 0.000000 
#    y 0.000000 3.330570 0.000000 
#    z 0.000000 0.000000 2.600970 
# 
# 
# High freq. dielectric constant tensor:
#      x y z
#    x 1.629680 0.000000 0.000000 
#    y 0.000000 1.629680 0.000000 
#    z 0.000000 0.000000 1.575370 
# 
# From -- ./inp_files/827.got.cif
#   From: 2010.03.12/outbox.cif.g09.slc.cpg/sg174_cif.got.tgz:827.got - 2010.04.02 06:54:58.
