data_PCOD8324452
_publ_section_title
;
Structure prediction by ZEFSAII (Michael W. Deem and Ramdas Pophale) SiO2 
 PCOD8324452
Probable space group: P 61
;
_chemical_formula_sum "Si O2"
_cell_formula_units_Z 42
_cell_length_a 9.012264
_cell_length_b 9.012264
_cell_length_c 27.295074
_cell_angle_alpha 90.000000
_cell_angle_beta 90.000000
_cell_angle_gamma 120.000000
_cell_volume 1919.918167
_symmetry_space_group_name_H-M "P 61"
_symmetry_group_IT_number 169
_symmetry_cell_setting 'hexagonal'
loop_
_space_group_symop_operation_xyz
x,y,z
x-y,x,1/6+z
-y,x-y,1/3+z
-x,-y,1/2+z
-x+y,-x,2/3+z
y,-x+y,5/6+z
loop_
_atom_site_type_symbol
_atom_site_label
_atom_site_fract_x
_atom_site_fract_y
_atom_site_fract_z
Si Si1 0.840340 0.640431 0.449660
Si Si2 0.535688 0.142358 0.599490
Si Si3 0.758423 0.592969 0.757835
Si Si4 0.768033 0.349558 0.519881
Si Si5 0.027313 0.970655 0.954185
Si Si6 0.785739 0.045078 0.715321
Si Si7 0.632755 0.364860 0.372290
O O1 0.825392 0.542233 0.501294
O O2 0.685347 0.516949 0.412987
O O3 0.016372 0.681216 0.422563
O O4 0.860884 0.824522 0.460345
O O5 0.606369 0.282276 0.556102
O O6 0.556779 0.230819 0.651695
O O7 0.629581 0.028763 0.600186
O O8 0.770643 0.489951 0.805004
O O9 0.924993 0.779204 0.752536
O O10 0.726678 0.474529 0.710790
O O11 0.915196 0.335494 0.549869
O O12 0.837881 0.890384 0.930781
O O13 0.002632 0.878473 0.005864
O O14 0.789589 0.225375 0.710688
#
# Coordination Sequence:
#
# PCOD8324452 Si02
#       7
#     6   6   6   6   6   6   6
#     4  10  24  39  68  99 142 169 222 292 331 393
#     4  10  17  39  71  97 124 183 218 276 333 408
#     4   9  20  38  68  98 133 173 219 280 336 397
#     4   9  17  38  69  94 127 180 217 269 345 395
#     4  11  23  42  67  99 136 180 223 280 344 383
#     4  11  20  40  72  89 136 177 224 270 339 407
#     4  10  19  40  69 100 130 176 227 269 344 403
#
# _framework density 21.87593
#
# number of rings (size 3 to 8) (size 9 to 14) (size 15 to 20)
#    0.000    2.286    5.714    0.000    2.000    0.000 
#    5.143    4.286    3.143    0.000    0.000    0.000 
#    0.000    0.000    0.000    0.000    0.000    0.000 
#
# Total GULP energy -520347.723832 kJ/mol
# GULP energy per Si atom -12389.231520 kJ/mol
# Density = 2.182614 g / cm^3
# Si number density = 21.875930 Si / 1000 Ang^3
#
#
#
# Elastic Constant Matrix: (Units=GPa)
#
#
# Indices 1 2 3 4 5 6 
#
# 1 116.2675 47.1146 40.5067 0.0000 0.0000 0.0000
# 2 47.1146 116.2675 40.5067 0.0000 0.0000 0.0000
# 3 40.5067 40.5067 86.0226 0.0000 0.0000 0.0000
# 4 0.0000 0.0000 0.0000 27.9990 0.0000 0.0000
# 5 0.0000 0.0000 0.0000 0.0000 27.9990 0.0000
# 6 0.0000 0.0000 0.0000 0.0000 0.0000 34.5764
#
#
#
# Elastic Compliance Matrix: (Units=1/GPa)
#
#
# Indices 1 2 3 4 5 6 
#
# 1 0.011223 -0.003238 -0.003760 0.000000 0.000000 0.000000
# 2 -0.003238 0.011223 -0.003760 0.000000 0.000000 0.000000
# 3 -0.003760 -0.003760 0.015166 0.000000 0.000000 0.000000
# 4 0.000000 0.000000 0.000000 0.035716 0.000000 0.000000
# 5 0.000000 0.000000 0.000000 0.000000 0.035716 0.000000
# 6 0.000000 0.000000 0.000000 0.000000 0.000000 0.028921
#
#
# Mechanical properties :
#
#
# Convention : Reuss Voigt Hill
#
# Bulk Modulus (GPa) = 62.12766 63.86817 62.99792
# Shear Modulus (GPa) = 30.33147 30.81020 30.57083
#
# Velocity S-wave (km/s) = 3.72764 3.75695 3.74232
# Velocity P-wave (km/s) = 6.85484 6.93387 6.89447
#
# Compressibility (1/GPa) = 0.01609589
#
# Stress axis : x y z
#
# Youngs Moduli (GPa) = 89.10371 89.10371 65.93730
#
# Poissons Ratio (x) = 0.28850 0.24793
# Poissons Ratio (y) = 0.28850 0.24793
# Poissons Ratio (z) = 0.33503 0.33503
#
# Static dielectric constant tensor:
#      x y z
#    x 3.892140 0.000000 0.000000 
#    y 0.000000 3.892140 0.000000 
#    z 0.000000 0.000000 3.872330 
# 
# 
# High freq. dielectric constant tensor:
#      x y z
#    x 1.842740 0.000000 0.000000 
#    y 0.000000 1.842740 0.000000 
#    z 0.000000 0.000000 1.852260 
# 
# From -- ./inp_files/1835.got.cif
#   From: 2010.03.12/outbox.cif.g09.slc.cpg/sg169_cif.got.tgz:1835.got - 2010.04.02 06:46:06.
