data_PCOD8324918
_publ_section_title
;
Structure prediction by ZEFSAII (Michael W. Deem and Ramdas Pophale) SiO2 
 PCOD8324918
Probable space group: P -6
;
_chemical_formula_sum "Si O2"
_cell_formula_units_Z 28
_cell_length_a 14.597419
_cell_length_b 14.597419
_cell_length_c 8.753842
_cell_angle_alpha 90.000000
_cell_angle_beta 90.000000
_cell_angle_gamma 120.000000
_cell_volume 1615.405226
_symmetry_space_group_name_H-M "P -6"
_symmetry_group_IT_number 174
_symmetry_cell_setting 'hexagonal'
loop_
_space_group_symop_operation_xyz
x,y,z
-x+y,-x,-z
-y,x-y,z
x,y,-z
-x+y,-x,z
-y,x-y,-z
loop_
_atom_site_type_symbol
_atom_site_label
_atom_site_fract_x
_atom_site_fract_y
_atom_site_fract_z
Si Si1 0.333606 0.272655 0.681584
Si Si2 0.000000 0.000000 0.180777
Si Si3 0.666668 0.333334 0.317521
Si Si4 0.731962 0.679701 0.680996
Si Si5 0.897999 0.442960 0.319308
Si Si6 0.765081 0.890626 0.818673
O O1 0.328471 0.270849 0.500000
O O2 0.328092 0.162917 0.737948
O O3 0.438673 0.377893 0.743280
O O4 0.242346 0.292222 0.748771
O O5 0.075247 0.116114 0.244006
O O6 0.000000 0.000000 0.000000
O O7 0.666667 0.333334 0.500000
O O8 0.781538 0.369042 0.252935
O O9 0.739917 0.694902 0.500000
O O10 0.619280 0.577945 0.729853
O O11 0.721115 0.772731 0.758970
O O12 0.894968 0.448738 0.500000
O O13 0.756041 0.888269 0.000000
#
# Coordination Sequence:
#
# PCOD8324918 Si02
#       6
#     6   2   2   6   6   6
#     4  10  19  31  51  79 105 132 169 211 253 302
#     4   9  18  30  46  68  97 135 172 203 247 300
#     4   9  12  21  45  78 109 134 157 186 238 305
#     4  10  19  31  51  79 105 132 169 211 253 302
#     4   9  16  28  48  77 111 136 159 199 252 305
#     4  11  21  35  50  69 103 143 176 208 253 304
#
# _framework density 17.333113999999998
#
# number of rings (size 3 to 8) (size 9 to 14) (size 15 to 20)
#    0.000    2.143    4.286    0.643    0.000    0.000 
#    0.000    1.071    0.000    0.857    0.000    3.000 
#    0.000    0.000    0.000    0.000    0.000    0.000 
#
# Total GULP energy -346889.077336 kJ/mol
# GULP energy per Si atom -12388.895619 kJ/mol
# Density = 1.729366 g / cm^3
# Si number density = 17.333114 Si / 1000 Ang^3
#
#
#
# Elastic Constant Matrix: (Units=GPa)
#
#
# Indices 1 2 3 4 5 6 
#
# 1 117.9132 53.4523 21.6039 0.0000 0.0000 -0.0010
# 2 53.4523 117.9107 21.6036 0.0000 0.0000 -0.0013
# 3 21.6039 21.6036 20.2090 0.0000 0.0000 -0.0005
# 4 0.0000 0.0000 0.0000 12.2005 -0.0001 0.0000
# 5 0.0000 0.0000 0.0000 -0.0001 12.2003 0.0000
# 6 -0.0010 -0.0013 -0.0005 0.0000 0.0000 32.2301
#
#
#
# Elastic Compliance Matrix: (Units=1/GPa)
#
#
# Indices 1 2 3 4 5 6 
#
# 1 0.011751 -0.003762 -0.008540 0.000000 0.000000 0.000000
# 2 -0.003762 0.011751 -0.008540 0.000000 0.000000 0.000000
# 3 -0.008540 -0.008540 0.067742 0.000000 0.000000 0.000001
# 4 0.000000 0.000000 0.000000 0.081964 0.000000 0.000000
# 5 0.000000 0.000000 0.000000 0.000000 0.081965 0.000000
# 6 0.000000 0.000000 0.000001 0.000000 0.000000 0.031027
#
#
# Mechanical properties :
#
#
# Convention : Reuss Voigt Hill
#
# Bulk Modulus (GPa) = 20.17795 49.92805 35.05300
# Shear Modulus (GPa) = 14.51776 21.95105 18.23441
#
# Velocity S-wave (km/s) = 2.89723 3.56254 3.24697
# Velocity P-wave (km/s) = 4.78105 6.76682 5.85868
#
# Compressibility (1/GPa) = 0.04955904
#
# Stress axis : x y z
#
# Youngs Moduli (GPa) = 85.09848 85.09687 14.76185
#
# Poissons Ratio (x) = 0.32017 0.12607
# Poissons Ratio (y) = 0.32017 0.12607
# Poissons Ratio (z) = 0.72676 0.72675
#
# Static dielectric constant tensor:
#      x y z
#    x 3.381710 0.000000 0.000000 
#    y 0.000000 3.381710 0.000000 
#    z 0.000000 0.000000 2.830830 
# 
# 
# High freq. dielectric constant tensor:
#      x y z
#    x 1.665920 0.000000 0.000000 
#    y 0.000000 1.665920 0.000000 
#    z 0.000000 0.000000 1.633500 
# 
# From -- ./inp_files/296.got.cif
#   From: 2010.03.12/outbox.cif.g09.slc.cpg/sg174_cif.got.tgz:296.got - 2010.04.02 06:54:58.
