data_PCOD8324164
_publ_section_title
;
Structure prediction by ZEFSAII (Michael W. Deem and Ramdas Pophale) SiO2 
 PCOD8324164
Probable space group: R -3 M
;
_chemical_formula_sum "Si O2"
_cell_formula_units_Z 162
_cell_length_a 21.906681
_cell_length_b 21.906681
_cell_length_c 20.446474
_cell_angle_alpha 90.000000
_cell_angle_beta 90.000000
_cell_angle_gamma 120.000000
_cell_volume 8497.716238
_symmetry_space_group_name_H-M "R -3 M"
_symmetry_group_IT_number 166
_symmetry_cell_setting 'hexagonal'
loop_
_space_group_symop_operation_xyz
x,y,z
-y,x-y,z
-x+y,-x,z
x-y,-y,-z
-x,-x+y,-z
y,x,-z
-x,-y,-z
y,-x+y,-z
x-y,x,-z
-x+y,y,z
x,x-y,z
-y,-x,z
2/3+x,1/3+y,1/3+z
2/3-y,1/3+x-y,1/3+z
2/3-x+y,1/3-x,1/3+z
2/3+x-y,1/3-y,1/3-z
2/3-x,1/3-x+y,1/3-z
2/3+y,1/3+x,1/3-z
2/3-x,1/3-y,1/3-z
2/3+y,1/3-x+y,1/3-z
2/3+x-y,1/3+x,1/3-z
2/3-x+y,1/3+y,1/3+z
2/3+x,1/3+x-y,1/3+z
2/3-y,1/3-x,1/3+z
1/3+x,2/3+y,2/3+z
1/3-y,2/3+x-y,2/3+z
1/3-x+y,2/3-x,2/3+z
1/3+x-y,2/3-y,2/3-z
1/3-x,2/3-x+y,2/3-z
1/3+y,2/3+x,2/3-z
1/3-x,2/3-y,2/3-z
1/3+y,2/3-x+y,2/3-z
1/3+x-y,2/3+x,2/3-z
1/3-x+y,2/3+y,2/3+z
1/3+x,2/3+x-y,2/3+z
1/3-y,2/3-x,2/3+z
loop_
_atom_site_type_symbol
_atom_site_label
_atom_site_fract_x
_atom_site_fract_y
_atom_site_fract_z
Si Si1 0.368473 0.061737 0.551424
Si Si2 0.932970 0.723285 0.338621
Si Si3 0.866155 0.273175 0.425866
Si Si4 0.857102 0.857102 0.000000
Si Si5 0.961476 0.780087 0.568765
O O1 0.416576 0.055346 0.606419
O O2 0.411424 0.129276 0.504114
O O3 0.303274 0.068232 0.579097
O O4 0.347932 0.000000 0.500000
O O5 0.856943 0.713886 0.320927
O O6 0.929039 0.663551 0.390027
O O7 0.980515 0.799027 0.374161
O O8 0.798647 0.201354 0.405701
O O9 0.856125 0.335519 0.395793
O O10 0.933441 0.866882 0.003743
O O11 0.898549 0.797097 0.576320
O O12 0.000000 0.808641 0.500000
#
# Coordination Sequence:
#
# PCOD8324164 Si02
#       5
#    36  36  36  18  36
#     4  11  21  33  58  86 120 151 193 244 304 361
#     4  11  23  39  58  85 122 160 198 247 301 361
#     4  10  20  36  56  82 118 155 191 240 298 351
#     4  10  21  36  58  82 115 160 208 250 292 352
#     4  11  22  38  63  91 121 157 200 250 304 363
#
# _framework density 19.063945
#
# number of rings (size 3 to 8) (size 9 to 14) (size 15 to 20)
#    0.000    1.333    4.444    3.444    0.000    4.000 
#    0.000    0.000    0.000    4.000    0.000    1.556 
#    0.000    0.000    0.000    0.000    0.000    0.000 
#
# Total GULP energy -669169.134105 kJ/mol
# GULP energy per Si atom -12392.021002 kJ/mol
# Density = 1.902055 g / cm^3
# Si number density = 19.063945 Si / 1000 Ang^3
#
#
#
# Elastic Constant Matrix: (Units=GPa)
#
#
# Indices 1 2 3 4 5 6 
#
# 1 79.0124 31.8517 28.9604 1.2047 0.0000 0.0000
# 2 31.8517 79.0124 28.9604 -1.2047 0.0000 0.0000
# 3 28.9604 28.9604 104.5382 0.0000 0.0000 0.0000
# 4 1.2047 -1.2047 0.0000 31.0621 0.0000 0.0000
# 5 0.0000 0.0000 0.0000 0.0000 31.0621 1.2047
# 6 0.0000 0.0000 0.0000 0.0000 1.2047 23.5803
#
#
#
# Elastic Compliance Matrix: (Units=1/GPa)
#
#
# Indices 1 2 3 4 5 6 
#
# 1 0.015896 -0.005350 -0.002922 -0.000824 0.000000 0.000000
# 2 -0.005350 0.015896 -0.002922 0.000824 0.000000 0.000000
# 3 -0.002922 -0.002922 0.011185 0.000000 0.000000 0.000000
# 4 -0.000824 0.000824 0.000000 0.032258 0.000000 0.000000
# 5 0.000000 0.000000 0.000000 0.000000 0.032258 -0.001648
# 6 0.000000 0.000000 0.000000 0.000000 -0.001648 0.042492
#
#
# Mechanical properties :
#
#
# Convention : Reuss Voigt Hill
#
# Bulk Modulus (GPa) = 48.56531 49.12313 48.84422
# Shear Modulus (GPa) = 27.89634 28.66026 28.27830
#
# Velocity S-wave (km/s) = 3.82946 3.88154 3.85559
# Velocity P-wave (km/s) = 6.71441 6.77584 6.74520
#
# Compressibility (1/GPa) = 0.02059083
#
# Stress axis : x y z
#
# Youngs Moduli (GPa) = 62.90753 62.90753 89.40786
#
# Poissons Ratio (x) = 0.33655 0.26122
# Poissons Ratio (y) = 0.33655 0.26122
# Poissons Ratio (z) = 0.18380 0.18380
#
# Static dielectric constant tensor:
#      x y z
#    x 3.583590 0.000000 0.000000 
#    y 0.000000 3.583590 0.000000 
#    z 0.000000 0.000000 5.929820 
# 
# 
# High freq. dielectric constant tensor:
#      x y z
#    x 1.730730 0.000000 0.000000 
#    y 0.000000 1.730730 0.000000 
#    z 0.000000 0.000000 1.742760 
# 
# From -- ./inp_files/5445.got.cif
#   From: 2010.03.12/outbox.cif.g09.slc.cpg/sg166_3_cif.got.tgz:5445.got - 2010.04.02 06:38:31.
