data_PCOD8324425
_publ_section_title
;
Structure prediction by ZEFSAII (Michael W. Deem and Ramdas Pophale) SiO2 
 PCOD8324425
Probable space group: R -3 C 
;
_chemical_formula_sum "Si O2"
_cell_formula_units_Z 54
_cell_length_a 18.861218
_cell_length_b 18.861218
_cell_length_c 7.475080
_cell_angle_alpha 90.000000
_cell_angle_beta 90.000000
_cell_angle_gamma 120.000000
_cell_volume 2302.957621
_symmetry_space_group_name_H-M "R -3 C "
_symmetry_group_IT_number 167
_symmetry_cell_setting 'hexagonal'
loop_
_space_group_symop_operation_xyz
x,y,z
-y,x-y,z
-x+y,-x,z
x-y,-y,1/2-z
-x,-x+y,1/2-z
y,x,1/2-z
-x,-y,-z
y,-x+y,-z
x-y,x,-z
-x+y,y,1/2+z
x,x-y,1/2+z
-y,-x,1/2+z
2/3+x,1/3+y,1/3+z
2/3-y,1/3+x-y,1/3+z
2/3-x+y,1/3-x,1/3+z
2/3+x-y,1/3-y,5/6-z
2/3-x,1/3-x+y,5/6-z
2/3+y,1/3+x,5/6-z
2/3-x,1/3-y,1/3-z
2/3+y,1/3-x+y,1/3-z
2/3+x-y,1/3+x,1/3-z
2/3-x+y,1/3+y,5/6+z
2/3+x,1/3+x-y,5/6+z
2/3-y,1/3-x,5/6+z
1/3+x,2/3+y,2/3+z
1/3-y,2/3+x-y,2/3+z
1/3-x+y,2/3-x,2/3+z
1/3+x-y,2/3-y,1/6-z
1/3-x,2/3-x+y,1/6-z
1/3+y,2/3+x,1/6-z
1/3-x,2/3-y,2/3-z
1/3+y,2/3-x+y,2/3-z
1/3+x-y,2/3+x,2/3-z
1/3-x+y,2/3+y,1/6+z
1/3+x,2/3+x-y,1/6+z
1/3-y,2/3-x,1/6+z
loop_
_atom_site_type_symbol
_atom_site_label
_atom_site_fract_x
_atom_site_fract_y
_atom_site_fract_z
Si Si1 0.831428 0.968784 0.947226
Si Si2 0.666667 0.941924 0.083334
O O1 0.828539 0.000000 0.750000
O O2 0.854875 0.898072 0.932769
O O3 0.743166 0.929599 0.040925
O O4 0.683259 0.000000 0.250000
#
# Coordination Sequence:
#
# PCOD8324425 Si02
#       2
#    36  18
#     4  12  27  48  76 108 148 192 246 303 366 435
#     4  12  26  46  76 110 150 192 244 302 364 438
#
# _framework density 23.448108000000001
#
# number of rings (size 3 to 8) (size 9 to 14) (size 15 to 20)
#    0.000    0.000    3.333    6.667    4.667    5.333 
#    0.000    0.000    0.000    0.000    0.000    0.000 
#    0.000    0.000    0.000    0.000    0.000    0.000 
#
# Total GULP energy -223399.163748 kJ/mol
# GULP energy per Si atom -12411.064653 kJ/mol
# Density = 2.339474 g / cm^3
# Si number density = 23.448108 Si / 1000 Ang^3
#
#
#
# Elastic Constant Matrix: (Units=GPa)
#
#
# Indices 1 2 3 4 5 6 
#
# 1 166.5055 85.6653 37.3449 0.9152 -0.0311 -0.0040
# 2 85.6653 166.5177 37.3421 -0.9355 -0.0196 -0.0013
# 3 37.3449 37.3421 122.7205 -0.0491 -0.1049 -0.0021
# 4 0.9152 -0.9355 -0.0491 31.9349 -0.0321 0.0104
# 5 -0.0311 -0.0196 -0.1049 -0.0321 31.8705 0.9200
# 6 -0.0040 -0.0013 -0.0021 0.0104 0.9200 40.4345
#
#
#
# Elastic Compliance Matrix: (Units=1/GPa)
#
#
# Indices 1 2 3 4 5 6 
#
# 1 0.008368 -0.004010 -0.001327 -0.000359 0.000001 0.000001
# 2 -0.004010 0.008367 -0.001326 0.000358 -0.000003 0.000000
# 3 -0.001327 -0.001326 0.008956 0.000013 0.000027 0.000000
# 4 -0.000359 0.000358 0.000013 0.031335 0.000032 -0.000009
# 5 0.000001 -0.000003 0.000027 0.000032 0.031398 -0.000714
# 6 0.000001 0.000000 0.000000 -0.000009 -0.000714 0.024748
#
#
# Mechanical properties :
#
#
# Convention : Reuss Voigt Hill
#
# Bulk Modulus (GPa) = 80.85754 86.27203 83.56478
# Shear Modulus (GPa) = 38.27968 40.54075 39.41021
#
# Velocity S-wave (km/s) = 4.04484 4.16258 4.10413
# Velocity P-wave (km/s) = 7.50818 7.74438 7.62719
#
# Compressibility (1/GPa) = 0.01236743
#
# Stress axis : x y z
#
# Youngs Moduli (GPa) = 119.50009 119.51121 111.66011
#
# Poissons Ratio (x) = 0.47919 0.14813
# Poissons Ratio (y) = 0.47914 0.14804
# Poissons Ratio (z) = 0.15853 0.15845
#
# Static dielectric constant tensor:
#      x y z
#    x 4.264100 -0.000020 0.000020 
#    y -0.000020 4.264110 -0.000030 
#    z 0.000020 -0.000030 4.326690 
# 
# 
# High freq. dielectric constant tensor:
#      x y z
#    x 1.933930 0.000000 0.000000 
#    y 0.000000 1.933930 0.000000 
#    z 0.000000 0.000000 1.950390 
# 
# From -- ./inp_files/213.got.cif
#   From: 2010.03.12/outbox.cif.g09.slc.cpg/sg167_1_cif.got.tgz:213.got - 2010.04.02 06:42:56.
