data_PCOD8324280
_publ_section_title
;
Structure prediction by ZEFSAII (Michael W. Deem and Ramdas Pophale) SiO2 
 PCOD8324280
Probable space group: R -3 C 
;
_chemical_formula_sum "Si O2"
_cell_formula_units_Z 210
_cell_length_a 28.680515
_cell_length_b 28.680515
_cell_length_c 16.018062
_cell_angle_alpha 90.000000
_cell_angle_beta 90.000000
_cell_angle_gamma 120.000000
_cell_volume 11410.757947
_symmetry_space_group_name_H-M "R -3 C "
_symmetry_group_IT_number 167
_symmetry_cell_setting 'hexagonal'
loop_
_space_group_symop_operation_xyz
x,y,z
-y,x-y,z
-x+y,-x,z
x-y,-y,1/2-z
-x,-x+y,1/2-z
y,x,1/2-z
-x,-y,-z
y,-x+y,-z
x-y,x,-z
-x+y,y,1/2+z
x,x-y,1/2+z
-y,-x,1/2+z
2/3+x,1/3+y,1/3+z
2/3-y,1/3+x-y,1/3+z
2/3-x+y,1/3-x,1/3+z
2/3+x-y,1/3-y,5/6-z
2/3-x,1/3-x+y,5/6-z
2/3+y,1/3+x,5/6-z
2/3-x,1/3-y,1/3-z
2/3+y,1/3-x+y,1/3-z
2/3+x-y,1/3+x,1/3-z
2/3-x+y,1/3+y,5/6+z
2/3+x,1/3+x-y,5/6+z
2/3-y,1/3-x,5/6+z
1/3+x,2/3+y,2/3+z
1/3-y,2/3+x-y,2/3+z
1/3-x+y,2/3-x,2/3+z
1/3+x-y,2/3-y,1/6-z
1/3-x,2/3-x+y,1/6-z
1/3+y,2/3+x,1/6-z
1/3-x,2/3-y,2/3-z
1/3+y,2/3-x+y,2/3-z
1/3+x-y,2/3+x,2/3-z
1/3-x+y,2/3+y,1/6+z
1/3+x,2/3+x-y,1/6+z
1/3-y,2/3-x,1/6+z
loop_
_atom_site_type_symbol
_atom_site_label
_atom_site_fract_x
_atom_site_fract_y
_atom_site_fract_z
Si Si1 0.270011 0.457219 0.033757
Si Si2 0.794996 0.696666 0.761603
Si Si3 0.198516 0.819564 0.152722
Si Si4 0.000000 0.000000 0.595792
Si Si5 0.564161 0.279812 0.529629
Si Si6 0.591471 0.704171 0.262081
Si Si7 0.714976 0.048309 0.416667
O O1 0.236923 0.425541 0.116172
O O2 0.331446 0.469073 0.044452
O O3 0.242106 0.421218 0.951785
O O4 0.264036 0.509035 0.017461
O O5 0.809070 0.648786 0.765957
O O6 0.775260 0.703158 0.671761
O O7 0.752826 0.684123 0.836139
O O8 0.186532 0.853199 0.083334
O O9 0.258986 0.851298 0.186414
O O10 0.041845 0.059572 0.624990
O O11 0.000000 0.000000 0.500000
O O12 0.581821 0.333334 0.583334
O O13 0.564660 0.231327 0.583334
O O14 0.621788 0.674058 0.225263
#
# Coordination Sequence:
#
# PCOD8324280 Si02
#       7
#    36  36  36  12  36  36  18
#     4  10  19  37  57  81 110 149 189 236 287 343
#     4  10  18  37  59  78 111 147 189 233 278 345
#     4  10  21  38  55  79 123 150 180 242 301 332
#     4   9  19  32  49  78 112 146 184 243 301 326
#     4   9  18  34  56  79 109 150 197 238 282 347
#     4  11  21  33  61  86 103 153 193 230 284 349
#     4  10  18  36  58  86 108 140 198 236 274 340
#
# _framework density 18.403686
#
# number of rings (size 3 to 8) (size 9 to 14) (size 15 to 20)
#    0.000    2.057    4.286    4.286    0.000    2.743 
#    0.000    3.429   11.314    0.000    0.000    0.000 
#    0.000    0.000    0.000    0.000    0.000    0.000 
#
# Total GULP energy -867331.323037 kJ/mol
# GULP energy per Si atom -12390.447472 kJ/mol
# Density = 1.836180 g / cm^3
# Si number density = 18.403686 Si / 1000 Ang^3
#
#
#
# Elastic Constant Matrix: (Units=GPa)
#
#
# Indices 1 2 3 4 5 6 
#
# 1 101.1552 50.6597 30.1236 6.5804 0.0001 0.0000
# 2 50.6597 101.1552 30.1236 -6.5804 -0.0001 0.0000
# 3 30.1236 30.1236 75.1280 0.0000 0.0000 0.0000
# 4 6.5804 -6.5804 0.0000 14.4245 0.0000 -0.0001
# 5 0.0001 -0.0001 0.0000 0.0000 14.4245 6.5804
# 6 0.0000 0.0000 0.0000 -0.0001 6.5804 25.2477
#
#
#
# Elastic Compliance Matrix: (Units=1/GPa)
#
#
# Indices 1 2 3 4 5 6 
#
# 1 0.015155 -0.007321 -0.003141 -0.010254 0.000000 0.000000
# 2 -0.007321 0.015155 -0.003141 0.010254 0.000000 0.000000
# 3 -0.003141 -0.003141 0.015829 0.000000 0.000000 0.000000
# 4 -0.010254 0.010254 0.000000 0.078682 0.000000 0.000000
# 5 0.000000 0.000000 0.000000 0.000000 0.078682 -0.020507
# 6 0.000000 0.000000 0.000000 0.000000 -0.020507 0.044952
#
#
# Mechanical properties :
#
#
# Convention : Reuss Voigt Hill
#
# Bulk Modulus (GPa) = 52.81901 55.47247 54.14574
# Shear Modulus (GPa) = 17.73221 21.92144 19.82682
#
# Velocity S-wave (km/s) = 3.10742 3.45504 3.28583
# Velocity P-wave (km/s) = 6.45270 6.79146 6.62424
#
# Compressibility (1/GPa) = 0.01893258
#
# Stress axis : x y z
#
# Youngs Moduli (GPa) = 65.98563 65.98565 63.17357
#
# Poissons Ratio (x) = 0.48311 0.19842
# Poissons Ratio (y) = 0.48311 0.19842
# Poissons Ratio (z) = 0.20726 0.20726
#
# Static dielectric constant tensor:
#      x y z
#    x 3.503360 0.000000 0.000000 
#    y 0.000000 3.503360 0.000000 
#    z 0.000000 0.000000 3.247070 
# 
# 
# High freq. dielectric constant tensor:
#      x y z
#    x 1.708610 0.000000 0.000000 
#    y 0.000000 1.708610 0.000000 
#    z 0.000000 0.000000 1.705120 
# 
# From -- ./inp_files/2490.got.cif
#   From: 2010.03.12/outbox.cif.g09.slc.cpg/sg167_2_cif.got.tgz:2490.got - 2010.04.02 06:42:56.
