data_PCOD8324136
_publ_section_title
;
Structure prediction by ZEFSAII (Michael W. Deem and Ramdas Pophale) SiO2 
 PCOD8324136
Probable space group: R -3 M
;
_chemical_formula_sum "Si O2"
_cell_formula_units_Z 108
_cell_length_a 17.674565
_cell_length_b 17.674565
_cell_length_c 17.984592
_cell_angle_alpha 90.000000
_cell_angle_beta 90.000000
_cell_angle_gamma 120.000000
_cell_volume 4865.513583
_symmetry_space_group_name_H-M "R -3 M"
_symmetry_group_IT_number 166
_symmetry_cell_setting 'hexagonal'
loop_
_space_group_symop_operation_xyz
x,y,z
-y,x-y,z
-x+y,-x,z
x-y,-y,-z
-x,-x+y,-z
y,x,-z
-x,-y,-z
y,-x+y,-z
x-y,x,-z
-x+y,y,z
x,x-y,z
-y,-x,z
2/3+x,1/3+y,1/3+z
2/3-y,1/3+x-y,1/3+z
2/3-x+y,1/3-x,1/3+z
2/3+x-y,1/3-y,1/3-z
2/3-x,1/3-x+y,1/3-z
2/3+y,1/3+x,1/3-z
2/3-x,1/3-y,1/3-z
2/3+y,1/3-x+y,1/3-z
2/3+x-y,1/3+x,1/3-z
2/3-x+y,1/3+y,1/3+z
2/3+x,1/3+x-y,1/3+z
2/3-y,1/3-x,1/3+z
1/3+x,2/3+y,2/3+z
1/3-y,2/3+x-y,2/3+z
1/3-x+y,2/3-x,2/3+z
1/3+x-y,2/3-y,2/3-z
1/3-x,2/3-x+y,2/3-z
1/3+y,2/3+x,2/3-z
1/3-x,2/3-y,2/3-z
1/3+y,2/3-x+y,2/3-z
1/3+x-y,2/3+x,2/3-z
1/3-x+y,2/3+y,2/3+z
1/3+x,2/3+x-y,2/3+z
1/3-y,2/3-x,2/3+z
loop_
_atom_site_type_symbol
_atom_site_label
_atom_site_fract_x
_atom_site_fract_y
_atom_site_fract_z
Si Si1 0.694336 0.935388 0.067945
Si Si2 0.173055 0.172936 0.807485
Si Si3 0.827556 0.827103 0.635926
O O1 0.703681 0.851841 0.049438
O O2 0.743148 0.981744 0.144122
O O3 0.591624 0.904169 0.077687
O O4 0.737896 0.000000 0.000000
O O5 0.144894 0.072447 0.822198
O O6 0.199056 0.197129 0.721886
O O7 0.092808 0.185615 0.830963
O O8 0.857064 0.928532 0.623800
O O9 0.906317 0.812634 0.609250
#
# Coordination Sequence:
#
# PCOD8324136 Si02
#       3
#    36  36  36
#     4  10  20  32  48  73 105 138 169 205 253 306
#     4   9  17  31  52  77 104 134 169 208 251 302
#     4   9  18  33  54  77 100 130 170 215 258 300
#
# _framework density 22.197040000000001
#
# number of rings (size 3 to 8) (size 9 to 14) (size 15 to 20)
#    0.000    2.667    0.000    1.667    0.000    4.667 
#    0.000    5.000    0.000    9.333    0.000    0.000 
#    0.000    0.000    0.000   45.000    0.000    0.000 
#
# Total GULP energy -446490.752671 kJ/mol
# GULP energy per Si atom -12402.520908 kJ/mol
# Density = 2.214652 g / cm^3
# Si number density = 22.197040 Si / 1000 Ang^3
#
#
#
# Elastic Constant Matrix: (Units=GPa)
#
#
# Indices 1 2 3 4 5 6 
#
# 1 137.1717 76.6518 47.5552 9.2186 0.0000 0.0000
# 2 76.6518 137.1717 47.5552 -9.2186 0.0000 0.0000
# 3 47.5552 47.5552 42.1666 0.0000 0.0000 0.0000
# 4 9.2186 -9.2186 0.0000 26.4060 0.0000 0.0000
# 5 0.0000 0.0000 0.0000 0.0000 26.4060 9.2186
# 6 0.0000 0.0000 0.0000 0.0000 9.2186 30.2600
#
#
#
# Elastic Compliance Matrix: (Units=1/GPa)
#
#
# Indices 1 2 3 4 5 6 
#
# 1 0.013937 -0.004553 -0.010584 -0.006455 0.000000 0.000000
# 2 -0.004553 0.013937 -0.010584 0.006455 0.000000 0.000000
# 3 -0.010584 -0.010584 0.047588 0.000000 0.000000 0.000000
# 4 -0.006455 0.006455 0.000000 0.042377 0.000000 0.000000
# 5 0.000000 0.000000 0.000000 0.000000 0.042377 -0.012910
# 6 0.000000 0.000000 0.000000 0.000000 -0.012910 0.036980
#
#
# Mechanical properties :
#
#
# Convention : Reuss Voigt Hill
#
# Bulk Modulus (GPa) = 41.62850 73.33716 57.48283
# Shear Modulus (GPa) = 19.48214 26.26424 22.87319
#
# Velocity S-wave (km/s) = 2.96580 3.44354 3.21356
# Velocity P-wave (km/s) = 5.52474 6.99439 6.30255
#
# Compressibility (1/GPa) = 0.02402200
#
# Stress axis : x y z
#
# Youngs Moduli (GPa) = 71.75010 71.75010 21.01359
#
# Poissons Ratio (x) = 0.32666 0.22240
# Poissons Ratio (y) = 0.32666 0.22240
# Poissons Ratio (z) = 0.75939 0.75939
#
# Static dielectric constant tensor:
#      x y z
#    x 4.047370 0.000000 0.000000 
#    y 0.000000 4.047370 0.000000 
#    z 0.000000 0.000000 3.843690 
# 
# 
# High freq. dielectric constant tensor:
#      x y z
#    x 1.881020 0.000000 0.000000 
#    y 0.000000 1.881020 0.000000 
#    z 0.000000 0.000000 1.855430 
# 
# From -- ./inp_files/3670.got.cif
#   From: 2010.03.12/outbox.cif.g09.slc.cpg/sg166_2_cif.got.tgz:3670.got - 2010.04.02 06:38:31.
