data_PCOD8324836
_publ_section_title
;
Structure prediction by ZEFSAII (Michael W. Deem and Ramdas Pophale) SiO2 
 PCOD8324836
Probable space group: P 63
;
_chemical_formula_sum "Si O2"
_cell_formula_units_Z 40
_cell_length_a 17.418413
_cell_length_b 17.418413
_cell_length_c 8.534558
_cell_angle_alpha 90.000000
_cell_angle_beta 90.000000
_cell_angle_gamma 120.000000
_cell_volume 2242.481316
_symmetry_space_group_name_H-M "P 63"
_symmetry_group_IT_number 173
_symmetry_cell_setting 'hexagonal'
loop_
_space_group_symop_operation_xyz
x,y,z
x-y,x,1/2+z
-y,x-y,z
-x,-y,1/2+z
-x+y,-x,z
y,-x+y,1/2+z
loop_
_atom_site_type_symbol
_atom_site_label
_atom_site_fract_x
_atom_site_fract_y
_atom_site_fract_z
Si Si1 0.913002 0.473180 0.604150
Si Si2 0.266936 0.468777 0.534934
Si Si3 0.688039 0.590247 0.735526
Si Si4 0.666666 0.333333 0.023225
Si Si5 0.579503 0.492086 0.251272
Si Si6 0.745072 0.220001 0.508519
Si Si7 0.586996 0.691343 0.714498
Si Si8 0.666667 0.333333 0.394305
O O1 0.900633 0.403200 0.736663
O O2 0.924336 0.432411 0.438997
O O3 0.832078 0.491154 0.617870
O O4 0.000540 0.563389 0.655659
O O5 0.276578 0.405507 0.409690
O O6 0.294104 0.565474 0.462537
O O7 0.322082 0.483445 0.697228
O O8 0.162654 0.408609 0.573911
O O9 0.752796 0.587835 0.602741
O O10 0.667975 0.670854 0.707287
O O11 0.666668 0.333334 0.209711
O O12 0.508923 0.394865 0.191510
O O13 0.737619 0.150383 0.377737
O O14 0.739404 0.306240 0.449423
#
# Coordination Sequence:
#
# PCOD8324836 Si02
#       8
#     6   6   6   2   6   6   6   2
#     4  10  20  34  52  75 111 142 188 234 277 322
#     4  12  21  34  54  76 107 146 188 241 273 318
#     4  11  25  35  52  83 108 141 193 238 284 326
#     4  12  21  31  56  79 102 142 212 235 267 319
#     4  10  19  34  53  77 106 149 185 230 281 319
#     4  11  20  35  54  73 108 149 188 238 271 324
#     4  10  22  39  52  75 109 147 186 231 283 334
#     4  12  18  34  53  82  93 160 206 217 288 316
#
# _framework density 17.837384
#
# number of rings (size 3 to 8) (size 9 to 14) (size 15 to 20)
#    0.000    1.200    4.500    4.500    2.100    2.400 
#    0.000    1.500    0.000    0.000    0.000    0.000 
#    0.000    0.000    0.000   34.200    0.000    0.000 
#
# Total GULP energy -495715.813929 kJ/mol
# GULP energy per Si atom -12392.895348 kJ/mol
# Density = 1.779678 g / cm^3
# Si number density = 17.837384 Si / 1000 Ang^3
#
#
#
# Elastic Constant Matrix: (Units=GPa)
#
#
# Indices 1 2 3 4 5 6 
#
# 1 84.1212 41.6750 39.6709 0.0000 0.0000 0.0001
# 2 41.6750 84.1212 39.6707 0.0000 0.0000 0.0000
# 3 39.6709 39.6707 57.6269 0.0000 0.0000 0.0000
# 4 0.0000 0.0000 0.0000 29.4728 0.0000 0.0000
# 5 0.0000 0.0000 0.0000 0.0000 29.4729 0.0000
# 6 0.0001 0.0000 0.0000 0.0000 0.0000 21.2231
#
#
#
# Elastic Compliance Matrix: (Units=1/GPa)
#
#
# Indices 1 2 3 4 5 6 
#
# 1 0.018804 -0.004755 -0.009672 0.000000 0.000000 0.000000
# 2 -0.004755 0.018804 -0.009672 0.000000 0.000000 0.000000
# 3 -0.009672 -0.009672 0.030669 0.000000 0.000000 0.000000
# 4 0.000000 0.000000 0.000000 0.033930 0.000000 0.000000
# 5 0.000000 0.000000 0.000000 0.000000 0.033929 0.000000
# 6 0.000000 0.000000 0.000000 0.000000 0.000000 0.047118
#
#
# Mechanical properties :
#
#
# Convention : Reuss Voigt Hill
#
# Bulk Modulus (GPa) = 49.79797 51.98916 50.89357
# Shear Modulus (GPa) = 20.99551 23.02395 22.00973
#
# Velocity S-wave (km/s) = 3.43454 3.59663 3.51652
# Velocity P-wave (km/s) = 6.61109 6.81594 6.71430
#
# Compressibility (1/GPa) = 0.02008114
#
# Stress axis : x y z
#
# Youngs Moduli (GPa) = 53.17901 53.17927 32.60589
#
# Poissons Ratio (x) = 0.25286 0.31536
# Poissons Ratio (y) = 0.25286 0.31536
# Poissons Ratio (z) = 0.51434 0.51434
#
# Static dielectric constant tensor:
#      x y z
#    x 3.391380 0.000000 0.000000 
#    y 0.000000 3.391380 0.000000 
#    z 0.000000 0.000000 3.273120 
# 
# 
# High freq. dielectric constant tensor:
#      x y z
#    x 1.659910 0.000000 0.000000 
#    y 0.000000 1.659910 0.000000 
#    z 0.000000 0.000000 1.698220 
# 
# From -- ./inp_files/637.got.cif
#   From: 2010.03.12/outbox.cif.g09.slc.cpg/sg173_cif.got.tgz:637.got - 2010.04.02 06:54:12.
