data_PCOD8324766
_publ_section_title
;
Structure prediction by ZEFSAII (Michael W. Deem and Ramdas Pophale) SiO2 
 PCOD8324766
Probable space group: P 62
;
_chemical_formula_sum "Si O2"
_cell_formula_units_Z 42
_cell_length_a 16.607681
_cell_length_b 16.607681
_cell_length_c 8.906137
_cell_angle_alpha 90.000000
_cell_angle_beta 90.000000
_cell_angle_gamma 120.000000
_cell_volume 2127.345318
_symmetry_space_group_name_H-M "P 62"
_symmetry_group_IT_number 171
_symmetry_cell_setting 'hexagonal'
loop_
_space_group_symop_operation_xyz
x,y,z
x-y,x,1/3+z
-y,x-y,2/3+z
-x,-y,z
-x+y,-x,1/3+z
y,-x+y,2/3+z
loop_
_atom_site_type_symbol
_atom_site_label
_atom_site_fract_x
_atom_site_fract_y
_atom_site_fract_z
Si Si1 0.505096 0.690291 0.863790
Si Si2 0.086395 0.746366 0.166376
Si Si3 0.341856 0.539749 0.700118
Si Si4 0.370946 0.595317 0.371211
Si Si5 0.090187 0.337857 0.967663
Si Si6 0.602453 0.050656 0.050242
Si Si7 0.601688 0.018397 0.726831
O O1 0.441247 0.589576 0.783663
O O2 0.584515 0.750742 0.743689
O O3 0.454533 0.747818 0.910211
O O4 0.549660 0.674074 0.012723
O O5 0.159357 0.725325 0.081370
O O6 0.144908 0.853991 0.224432
O O7 0.048070 0.676475 0.304586
O O8 0.002892 0.735367 0.057450
O O9 0.347943 0.533872 0.520832
O O10 0.308137 0.611984 0.748364
O O11 0.470890 0.617058 0.309296
O O12 0.058814 0.384394 0.840437
O O13 0.500000 0.000000 0.125152
O O14 0.609791 0.997829 0.902807
O O15 0.500000 0.000000 0.686963
#
# Coordination Sequence:
#
# PCOD8324766 Si02
#       7
#     6   6   6   6   6   6   6
#     4  11  23  35  56  86 122 178 228 268 309 367
#     4  11  24  43  61  88 121 173 216 271 342 390
#     4  12  20  34  57  81 125 169 230 264 309 364
#     4  12  23  33  56  89 122 176 225 268 297 373
#     4  11  25  43  65  87 127 172 224 274 341 390
#     4  11  23  38  58  90 125 174 213 264 316 378
#     4  10  22  37  58  82 126 167 218 268 315 368
#
# _framework density 19.742916999999998
#
# number of rings (size 3 to 8) (size 9 to 14) (size 15 to 20)
#    0.000    0.857    5.714    1.714    4.000    0.000 
#    0.000    0.000    0.000    0.000    0.000    0.000 
#    0.000    5.714    0.000    0.000    0.000    0.000 
#
# Total GULP energy -520559.539317 kJ/mol
# GULP energy per Si atom -12394.274746 kJ/mol
# Density = 1.969798 g / cm^3
# Si number density = 19.742917 Si / 1000 Ang^3
#
#
#
# Elastic Constant Matrix: (Units=GPa)
#
#
# Indices 1 2 3 4 5 6 
#
# 1 92.0641 35.3088 44.5527 0.0000 0.0000 0.0000
# 2 35.3088 92.0641 44.5527 0.0000 0.0000 0.0000
# 3 44.5527 44.5527 111.2790 0.0000 0.0000 0.0000
# 4 0.0000 0.0000 0.0000 20.9369 0.0000 0.0000
# 5 0.0000 0.0000 0.0000 0.0000 20.9369 0.0000
# 6 0.0000 0.0000 0.0000 0.0000 0.0000 28.3777
#
#
#
# Elastic Compliance Matrix: (Units=1/GPa)
#
#
# Indices 1 2 3 4 5 6 
#
# 1 0.014262 -0.003357 -0.004366 0.000000 0.000000 0.000000
# 2 -0.003357 0.014262 -0.004366 0.000000 0.000000 0.000000
# 3 -0.004366 -0.004366 0.012483 0.000000 0.000000 0.000000
# 4 0.000000 0.000000 0.000000 0.047762 0.000000 0.000000
# 5 0.000000 0.000000 0.000000 0.000000 0.047762 0.000000
# 6 0.000000 0.000000 0.000000 0.000000 0.000000 0.035239
#
#
# Mechanical properties :
#
#
# Convention : Reuss Voigt Hill
#
# Bulk Modulus (GPa) = 59.42254 60.47064 59.94659
# Shear Modulus (GPa) = 24.80655 25.44986 25.12821
#
# Velocity S-wave (km/s) = 3.54853 3.59425 3.57146
# Velocity P-wave (km/s) = 6.85222 6.92245 6.88743
#
# Compressibility (1/GPa) = 0.01682863
#
# Stress axis : x y z
#
# Youngs Moduli (GPa) = 70.11428 70.11428 80.11156
#
# Poissons Ratio (x) = 0.23538 0.34978
# Poissons Ratio (y) = 0.23538 0.34978
# Poissons Ratio (z) = 0.30613 0.30613
#
# Static dielectric constant tensor:
#      x y z
#    x 3.527290 0.000000 0.000000 
#    y 0.000000 3.527290 0.000000 
#    z 0.000000 0.000000 3.657690 
# 
# 
# High freq. dielectric constant tensor:
#      x y z
#    x 1.741760 0.000000 0.000000 
#    y 0.000000 1.741760 0.000000 
#    z 0.000000 0.000000 1.787500 
# 
# From -- ./inp_files/4433.got.cif
#   From: 2010.03.12/outbox.cif.g09.slc.cpg/sg171_3_cif.got.tgz:4433.got - 2010.04.02 06:49:11.
