data_PCOD8324041
_publ_section_title
;
Structure prediction by ZEFSAII (Michael W. Deem and Ramdas Pophale) SiO2 
 PCOD8324041
Probable space group: R -3 M
;
_chemical_formula_sum "Si O2"
_cell_formula_units_Z 252
_cell_length_a 29.682908
_cell_length_b 29.682908
_cell_length_c 18.785424
_cell_angle_alpha 90.000000
_cell_angle_beta 90.000000
_cell_angle_gamma 120.000000
_cell_volume 14333.905124
_symmetry_space_group_name_H-M "R -3 M"
_symmetry_group_IT_number 166
_symmetry_cell_setting 'hexagonal'
loop_
_space_group_symop_operation_xyz
x,y,z
-y,x-y,z
-x+y,-x,z
x-y,-y,-z
-x,-x+y,-z
y,x,-z
-x,-y,-z
y,-x+y,-z
x-y,x,-z
-x+y,y,z
x,x-y,z
-y,-x,z
2/3+x,1/3+y,1/3+z
2/3-y,1/3+x-y,1/3+z
2/3-x+y,1/3-x,1/3+z
2/3+x-y,1/3-y,1/3-z
2/3-x,1/3-x+y,1/3-z
2/3+y,1/3+x,1/3-z
2/3-x,1/3-y,1/3-z
2/3+y,1/3-x+y,1/3-z
2/3+x-y,1/3+x,1/3-z
2/3-x+y,1/3+y,1/3+z
2/3+x,1/3+x-y,1/3+z
2/3-y,1/3-x,1/3+z
1/3+x,2/3+y,2/3+z
1/3-y,2/3+x-y,2/3+z
1/3-x+y,2/3-x,2/3+z
1/3+x-y,2/3-y,2/3-z
1/3-x,2/3-x+y,2/3-z
1/3+y,2/3+x,2/3-z
1/3-x,2/3-y,2/3-z
1/3+y,2/3-x+y,2/3-z
1/3+x-y,2/3+x,2/3-z
1/3-x+y,2/3+y,2/3+z
1/3+x,2/3+x-y,2/3+z
1/3-y,2/3-x,2/3+z
loop_
_atom_site_type_symbol
_atom_site_label
_atom_site_fract_x
_atom_site_fract_y
_atom_site_fract_z
Si Si1 0.967640 0.258552 0.069954
Si Si2 0.769533 0.334692 0.007889
Si Si3 0.186583 0.913857 0.321174
Si Si4 0.178297 0.139559 0.208129
Si Si5 0.284652 0.817413 0.717894
Si Si6 0.857148 0.376988 0.892387
Si Si7 0.073634 0.415218 0.443805
O O1 0.935699 0.195622 0.062239
O O2 0.933037 0.285885 0.072973
O O3 0.003313 0.272385 0.141198
O O4 0.000000 0.282276 0.000000
O O5 0.748195 0.374098 0.019218
O O6 0.721834 0.278167 0.993069
O O7 0.806248 0.349898 0.940306
O O8 0.801893 0.338083 0.079194
O O9 0.126292 0.873709 0.296869
O O10 0.213334 0.880001 0.333334
O O11 0.184669 0.943400 0.393040
O O12 0.222101 0.953722 0.260424
O O13 0.187983 0.093992 0.232735
O O14 0.166645 0.137291 0.124245
O O15 0.231622 0.190015 0.226910
O O16 0.233660 0.766341 0.687983
O O17 0.333334 0.836329 0.666667
O O18 0.863360 0.431680 0.861445
O O19 0.848741 0.333334 0.833334
#
# Coordination Sequence:
#
# PCOD8324041 Si02
#       7
#    36  36  36  36  36  36  36
#     4   9  19  34  52  78 108 134 177 226 274 325
#     4  10  19  32  51  77 108 141 179 221 265 319
#     4  10  21  38  56  78 109 145 186 226 272 332
#     4   9  18  31  49  74  99 130 174 215 258 320
#     4   9  18  33  52  75 104 138 176 221 275 331
#     4  10  20  36  57  81 110 145 182 224 272 325
#     4  10  18  34  56  76 103 143 176 220 274 327
#
# _framework density 17.580694000000001
#
# number of rings (size 3 to 8) (size 9 to 14) (size 15 to 20)
#    0.000    2.429    1.429    1.000    0.000    1.143 
#    5.143    8.571    0.000    2.429    0.000    0.000 
#    0.000    0.000    0.000    0.000    0.000    0.000 
#
# Total GULP energy -1040622.259495 kJ/mol
# GULP energy per Si atom -12388.360232 kJ/mol
# Density = 1.754068 g / cm^3
# Si number density = 17.580694 Si / 1000 Ang^3
#
#
#
# Elastic Constant Matrix: (Units=GPa)
#
#
# Indices 1 2 3 4 5 6 
#
# 1 94.8194 48.6720 51.7691 0.1575 0.0000 0.0000
# 2 48.6720 94.8194 51.7691 -0.1575 0.0000 0.0000
# 3 51.7691 51.7691 90.7329 0.0000 0.0000 0.0000
# 4 0.1575 -0.1575 0.0000 26.7537 0.0000 0.0000
# 5 0.0000 0.0000 0.0000 0.0000 26.7537 0.1575
# 6 0.0000 0.0000 0.0000 0.0000 0.1575 23.0737
#
#
#
# Elastic Compliance Matrix: (Units=1/GPa)
#
#
# Indices 1 2 3 4 5 6 
#
# 1 0.016758 -0.004912 -0.006759 -0.000128 0.000000 0.000000
# 2 -0.004912 0.016758 -0.006759 0.000128 0.000000 0.000000
# 3 -0.006759 -0.006759 0.018734 0.000000 0.000000 0.000000
# 4 -0.000128 0.000128 0.000000 0.037380 0.000000 0.000000
# 5 0.000000 0.000000 0.000000 0.000000 0.037380 -0.000255
# 6 0.000000 0.000000 0.000000 0.000000 -0.000255 0.043341
#
#
# Mechanical properties :
#
#
# Convention : Reuss Voigt Hill
#
# Bulk Modulus (GPa) = 64.97505 64.97689 64.97597
# Shear Modulus (GPa) = 23.54695 23.86030 23.70362
#
# Velocity S-wave (km/s) = 3.66370 3.68800 3.67587
# Velocity P-wave (km/s) = 7.41184 7.42796 7.41990
#
# Compressibility (1/GPa) = 0.01539052
#
# Stress axis : x y z
#
# Youngs Moduli (GPa) = 59.67180 59.67180 53.37824
#
# Poissons Ratio (x) = 0.29312 0.36078
# Poissons Ratio (y) = 0.29312 0.36078
# Poissons Ratio (z) = 0.40332 0.40332
#
# Static dielectric constant tensor:
#      x y z
#    x 3.436980 0.000000 0.000000 
#    y 0.000000 3.436980 0.000000 
#    z 0.000000 0.000000 3.359610 
# 
# 
# High freq. dielectric constant tensor:
#      x y z
#    x 1.680610 0.000000 0.000000 
#    y 0.000000 1.680610 0.000000 
#    z 0.000000 0.000000 1.676170 
# 
# From -- ./inp_files/5804.got.cif
#   From: 2010.03.12/outbox.cif.g09.slc.cpg/sg166_3_cif.got.tgz:5804.got - 2010.04.02 06:38:31.
