data_PCOD8324530
_publ_section_title
;
Structure prediction by ZEFSAII (Michael W. Deem and Ramdas Pophale) SiO2 
 PCOD8324530
Probable space group: P 61
;
_chemical_formula_sum "Si O2"
_cell_formula_units_Z 42
_cell_length_a 8.588730
_cell_length_b 8.588730
_cell_length_c 28.712088
_cell_angle_alpha 90.000000
_cell_angle_beta 90.000000
_cell_angle_gamma 120.000000
_cell_volume 1834.227957
_symmetry_space_group_name_H-M "P 61"
_symmetry_group_IT_number 169
_symmetry_cell_setting 'hexagonal'
loop_
_space_group_symop_operation_xyz
x,y,z
x-y,x,1/6+z
-y,x-y,1/3+z
-x,-y,1/2+z
-x+y,-x,2/3+z
y,-x+y,5/6+z
loop_
_atom_site_type_symbol
_atom_site_label
_atom_site_fract_x
_atom_site_fract_y
_atom_site_fract_z
Si Si1 0.765299 0.118346 0.951030
Si Si2 0.684821 0.314558 0.029844
Si Si3 0.218676 0.573401 0.387671
Si Si4 0.398656 0.123937 0.301663
Si Si5 0.196393 0.292501 0.194479
Si Si6 0.983329 0.944724 0.778266
Si Si7 0.282800 0.735915 0.293603
O O1 0.787137 0.258108 0.910740
O O2 0.949202 0.109956 0.947225
O O3 0.590655 0.921522 0.942881
O O4 0.737399 0.182133 0.002338
O O5 0.732181 0.327964 0.084482
O O6 0.480869 0.279341 0.023765
O O7 0.791665 0.511807 0.007000
O O8 0.333967 0.516910 0.420548
O O9 0.024628 0.395997 0.382955
O O10 0.296273 0.618256 0.335337
O O11 0.208210 0.107492 0.297606
O O12 0.374067 0.933531 0.315409
O O13 0.039850 0.138284 0.226376
O O14 0.161887 0.216198 0.142526
#
# Coordination Sequence:
#
# PCOD8324530 Si02
#       7
#     6   6   6   6   6   6   6
#     4  10  23  43  67  95 134 172 225 269 337 399
#     4  11  23  42  63  97 135 171 218 279 333 395
#     4  10  21  41  67  96 131 170 219 274 326 393
#     4   9  23  41  65  96 125 174 221 268 332 394
#     4  11  23  42  65  97 133 170 218 272 335 389
#     4  10  24  42  70  94 130 176 222 273 328 405
#     4  11  21  41  69  93 128 177 217 275 327 399
#
# _framework density 22.897915999999999
#
# number of rings (size 3 to 8) (size 9 to 14) (size 15 to 20)
#    0.000    1.714    1.429    1.714   10.000    0.000 
#    7.714    0.000    0.000    0.000    0.000    0.000 
#    0.000    0.000    0.000    0.000    0.000    0.000 
#
# Total GULP energy -520453.588067 kJ/mol
# GULP energy per Si atom -12391.752097 kJ/mol
# Density = 2.284580 g / cm^3
# Si number density = 22.897916 Si / 1000 Ang^3
#
#
#
# Elastic Constant Matrix: (Units=GPa)
#
#
# Indices 1 2 3 4 5 6 
#
# 1 54.2803 15.3847 4.8298 0.0000 0.0000 0.0000
# 2 15.3847 54.2803 4.8298 0.0000 0.0000 0.0000
# 3 4.8298 4.8298 103.0582 0.0000 0.0000 0.0000
# 4 0.0000 0.0000 0.0000 31.2995 0.0000 0.0000
# 5 0.0000 0.0000 0.0000 0.0000 31.2995 0.0000
# 6 0.0000 0.0000 0.0000 0.0000 0.0000 19.4478
#
#
#
# Elastic Compliance Matrix: (Units=1/GPa)
#
#
# Indices 1 2 3 4 5 6 
#
# 1 0.020079 -0.005631 -0.000677 0.000000 0.000000 0.000000
# 2 -0.005631 0.020079 -0.000677 0.000000 0.000000 0.000000
# 3 -0.000677 -0.000677 0.009767 0.000000 0.000000 0.000000
# 4 0.000000 0.000000 0.000000 0.031949 0.000000 0.000000
# 5 0.000000 0.000000 0.000000 0.000000 0.031949 0.000000
# 6 0.000000 0.000000 0.000000 0.000000 0.000000 0.051420
#
#
# Mechanical properties :
#
#
# Convention : Reuss Voigt Hill
#
# Bulk Modulus (GPa) = 27.81268 29.07862 28.44565
# Shear Modulus (GPa) = 26.15088 28.84767 27.49928
#
# Velocity S-wave (km/s) = 3.38311 3.55327 3.46923
# Velocity P-wave (km/s) = 5.23768 5.43701 5.33828
#
# Compressibility (1/GPa) = 0.03595483
#
# Stress axis : x y z
#
# Youngs Moduli (GPa) = 49.80315 49.80315 102.38846
#
# Poissons Ratio (x) = 0.28043 0.06933
# Poissons Ratio (y) = 0.28043 0.06933
# Poissons Ratio (z) = 0.03372 0.03372
#
# Static dielectric constant tensor:
#      x y z
#    x 4.159030 0.000000 0.000000 
#    y 0.000000 4.159030 0.000000 
#    z 0.000000 0.000000 4.235150 
# 
# 
# High freq. dielectric constant tensor:
#      x y z
#    x 1.895130 0.000000 0.000000 
#    y 0.000000 1.895130 0.000000 
#    z 0.000000 0.000000 1.911830 
# 
# From -- ./inp_files/1844.got.cif
#   From: 2010.03.12/outbox.cif.g09.slc.cpg/sg169_cif.got.tgz:1844.got - 2010.04.02 06:46:06.
