data_PCOD8324390
_publ_section_title
;
Structure prediction by ZEFSAII (Michael W. Deem and Ramdas Pophale) SiO2 
 PCOD8324390
Probable space group: R -3 C 
;
_chemical_formula_sum "Si O2"
_cell_formula_units_Z 108
_cell_length_a 14.067639
_cell_length_b 14.067639
_cell_length_c 27.932931
_cell_angle_alpha 90.000000
_cell_angle_beta 90.000000
_cell_angle_gamma 120.000000
_cell_volume 4787.288168
_symmetry_space_group_name_H-M "R -3 C "
_symmetry_group_IT_number 167
_symmetry_cell_setting 'hexagonal'
loop_
_space_group_symop_operation_xyz
x,y,z
-y,x-y,z
-x+y,-x,z
x-y,-y,1/2-z
-x,-x+y,1/2-z
y,x,1/2-z
-x,-y,-z
y,-x+y,-z
x-y,x,-z
-x+y,y,1/2+z
x,x-y,1/2+z
-y,-x,1/2+z
2/3+x,1/3+y,1/3+z
2/3-y,1/3+x-y,1/3+z
2/3-x+y,1/3-x,1/3+z
2/3+x-y,1/3-y,5/6-z
2/3-x,1/3-x+y,5/6-z
2/3+y,1/3+x,5/6-z
2/3-x,1/3-y,1/3-z
2/3+y,1/3-x+y,1/3-z
2/3+x-y,1/3+x,1/3-z
2/3-x+y,1/3+y,5/6+z
2/3+x,1/3+x-y,5/6+z
2/3-y,1/3-x,5/6+z
1/3+x,2/3+y,2/3+z
1/3-y,2/3+x-y,2/3+z
1/3-x+y,2/3-x,2/3+z
1/3+x-y,2/3-y,1/6-z
1/3-x,2/3-x+y,1/6-z
1/3+y,2/3+x,1/6-z
1/3-x,2/3-y,2/3-z
1/3+y,2/3-x+y,2/3-z
1/3+x-y,2/3+x,2/3-z
1/3-x+y,2/3+y,1/6+z
1/3+x,2/3+x-y,1/6+z
1/3-y,2/3-x,1/6+z
loop_
_atom_site_type_symbol
_atom_site_label
_atom_site_fract_x
_atom_site_fract_y
_atom_site_fract_z
Si Si1 0.162977 0.447994 0.142059
Si Si2 0.790636 0.899522 0.777291
Si Si3 0.770435 0.976436 0.874361
O O1 0.127862 0.517269 0.175247
O O2 0.182277 0.491071 0.087037
O O3 0.067935 0.322140 0.146993
O O4 0.880923 0.880923 0.750000
O O5 0.821472 0.934195 0.833204
O O6 0.673571 0.792508 0.772297
O O7 0.789005 0.000000 0.750000
#
# Coordination Sequence:
#
# PCOD8324390 Si02
#       3
#    36  36  36
#     4  11  23  45  69  99 136 179 230 279 340 411
#     4  11  22  42  65  95 136 174 225 277 333 409
#     4  10  24  44  65 100 139 176 223 277 352 405
#
# _framework density 22.559743999999998
#
# number of rings (size 3 to 8) (size 9 to 14) (size 15 to 20)
#    0.000    1.333    3.333    2.667    0.000    2.667 
#   24.000    0.000    0.000    0.000    0.000    0.000 
#    0.000    0.000    0.000    0.000    0.000    0.000 
#
# Total GULP energy -446332.805472 kJ/mol
# GULP energy per Si atom -12398.133485 kJ/mol
# Density = 2.250840 g / cm^3
# Si number density = 22.559744 Si / 1000 Ang^3
#
#
#
# Elastic Constant Matrix: (Units=GPa)
#
#
# Indices 1 2 3 4 5 6 
#
# 1 81.8690 42.5162 58.3412 1.5552 0.0000 0.0000
# 2 42.5162 81.8690 58.3412 -1.5552 0.0000 0.0000
# 3 58.3412 58.3412 190.5582 0.0000 0.0000 0.0000
# 4 1.5552 -1.5552 0.0000 44.4314 0.0000 0.0000
# 5 0.0000 0.0000 0.0000 0.0000 44.4314 1.5552
# 6 0.0000 0.0000 0.0000 0.0000 1.5552 19.6764
#
#
#
# Elastic Compliance Matrix: (Units=1/GPa)
#
#
# Indices 1 2 3 4 5 6 
#
# 1 0.018380 -0.007101 -0.003453 -0.000892 0.000000 0.000000
# 2 -0.007101 0.018380 -0.003453 0.000892 0.000000 0.000000
# 3 -0.003453 -0.003453 0.007362 0.000000 0.000000 0.000000
# 4 -0.000892 0.000892 0.000000 0.022569 0.000000 0.000000
# 5 0.000000 0.000000 0.000000 0.000000 0.022569 -0.001784
# 6 0.000000 0.000000 0.000000 0.000000 -0.001784 0.050963
#
#
# Mechanical properties :
#
#
# Convention : Reuss Voigt Hill
#
# Bulk Modulus (GPa) = 62.08359 74.74373 68.41366
# Shear Modulus (GPa) = 28.80047 34.71434 31.75741
#
# Velocity S-wave (km/s) = 3.57687 3.92698 3.75601
# Velocity P-wave (km/s) = 6.68117 7.33246 7.01438
#
# Compressibility (1/GPa) = 0.01610732
#
# Stress axis : x y z
#
# Youngs Moduli (GPa) = 54.40633 54.40633 135.82980
#
# Poissons Ratio (x) = 0.38636 0.46904
# Poissons Ratio (y) = 0.38636 0.46904
# Poissons Ratio (z) = 0.18787 0.18787
#
# Static dielectric constant tensor:
#      x y z
#    x 3.954470 0.000000 0.000000 
#    y 0.000000 3.954470 0.000000 
#    z 0.000000 0.000000 4.413330 
# 
# 
# High freq. dielectric constant tensor:
#      x y z
#    x 1.881440 0.000000 0.000000 
#    y 0.000000 1.881440 0.000000 
#    z 0.000000 0.000000 1.910330 
# 
# From -- ./inp_files/6804.got.cif
#   From: 2010.03.12/outbox.cif.g09.slc.cpg/sg167_4_cif.got.tgz:6804.got - 2010.04.02 06:42:56.
