data_PCOD8324526
_publ_section_title
;
Structure prediction by ZEFSAII (Michael W. Deem and Ramdas Pophale) SiO2 
 PCOD8324526
Probable space group: P 61
;
_chemical_formula_sum "Si O2"
_cell_formula_units_Z 42
_cell_length_a 14.862643
_cell_length_b 14.862643
_cell_length_c 10.335626
_cell_angle_alpha 90.000000
_cell_angle_beta 90.000000
_cell_angle_gamma 120.000000
_cell_volume 1977.240556
_symmetry_space_group_name_H-M "P 61"
_symmetry_group_IT_number 169
_symmetry_cell_setting 'hexagonal'
loop_
_space_group_symop_operation_xyz
x,y,z
x-y,x,1/6+z
-y,x-y,1/3+z
-x,-y,1/2+z
-x+y,-x,2/3+z
y,-x+y,5/6+z
loop_
_atom_site_type_symbol
_atom_site_label
_atom_site_fract_x
_atom_site_fract_y
_atom_site_fract_z
Si Si1 0.176353 0.085669 0.580240
Si Si2 0.277754 0.365806 0.833141
Si Si3 0.775934 0.191279 0.510993
Si Si4 0.897571 0.424982 0.567970
Si Si5 0.932532 0.468466 0.858233
Si Si6 0.181943 0.096100 0.218702
Si Si7 0.841755 0.590042 0.554191
O O1 0.142304 0.104809 0.720607
O O2 0.296705 0.118043 0.575833
O O3 0.156649 0.158125 0.482608
O O4 0.353762 0.468049 0.752301
O O5 0.331760 0.297906 0.871124
O O6 0.233949 0.396125 0.957059
O O7 0.833216 0.302123 0.579574
O O8 0.656232 0.149825 0.540425
O O9 0.816546 0.117956 0.570150
O O10 0.800845 0.196604 0.359546
O O11 0.959829 0.468973 0.705094
O O12 0.822400 0.472963 0.544021
O O13 0.969035 0.452841 0.441771
O O14 0.111447 0.149664 0.245930
#
# Coordination Sequence:
#
# PCOD8324526 Si02
#       7
#     6   6   6   6   6   6   6
#     4  10  21  41  60  95 142 178 236 280 335 425
#     4  11  22  44  68  99 136 189 229 286 352 419
#     4  11  24  45  69 100 138 174 237 294 352 421
#     4  10  24  45  70  99 136 177 231 287 350 420
#     4  10  25  45  71 102 134 182 232 283 357 417
#     4  10  23  40  60  95 139 184 227 283 348 412
#     4  10  25  42  68  98 135 182 232 279 358 416
#
# _framework density 21.241727000000001
#
# number of rings (size 3 to 8) (size 9 to 14) (size 15 to 20)
#    0.000    1.714    1.429    0.857   12.000    2.286 
#   18.000    0.000    0.000    0.000    0.000    0.000 
#    0.000    0.000    0.000    0.000    0.000    0.000 
#
# Total GULP energy -520492.882089 kJ/mol
# GULP energy per Si atom -12392.687669 kJ/mol
# Density = 2.119338 g / cm^3
# Si number density = 21.241727 Si / 1000 Ang^3
#
#
#
# Elastic Constant Matrix: (Units=GPa)
#
#
# Indices 1 2 3 4 5 6 
#
# 1 112.0305 42.5246 41.5709 0.0000 0.0000 0.0000
# 2 42.5246 112.0305 41.5709 0.0000 0.0000 0.0000
# 3 41.5709 41.5709 80.1875 0.0000 0.0000 0.0000
# 4 0.0000 0.0000 0.0000 35.3826 0.0000 0.0000
# 5 0.0000 0.0000 0.0000 0.0000 35.3826 0.0000
# 6 0.0000 0.0000 0.0000 0.0000 0.0000 34.7529
#
#
#
# Elastic Compliance Matrix: (Units=1/GPa)
#
#
# Indices 1 2 3 4 5 6 
#
# 1 0.011680 -0.002707 -0.004651 0.000000 0.000000 0.000000
# 2 -0.002707 0.011680 -0.004651 0.000000 0.000000 0.000000
# 3 -0.004651 -0.004651 0.017294 0.000000 0.000000 0.000000
# 4 0.000000 0.000000 0.000000 0.028262 0.000000 0.000000
# 5 0.000000 0.000000 0.000000 0.000000 0.028262 0.000000
# 6 0.000000 0.000000 0.000000 0.000000 0.000000 0.028775
#
#
# Mechanical properties :
#
#
# Convention : Reuss Voigt Hill
#
# Bulk Modulus (GPa) = 60.12321 61.73123 60.92722
# Shear Modulus (GPa) = 32.15067 33.00911 32.57989
#
# Velocity S-wave (km/s) = 3.89467 3.94633 3.92058
# Velocity P-wave (km/s) = 6.97068 7.06322 7.01710
#
# Compressibility (1/GPa) = 0.01663251
#
# Stress axis : x y z
#
# Youngs Moduli (GPa) = 85.61755 85.61755 57.82475
#
# Poissons Ratio (x) = 0.23180 0.26897
# Poissons Ratio (y) = 0.23180 0.26897
# Poissons Ratio (z) = 0.39825 0.39825
#
# Static dielectric constant tensor:
#      x y z
#    x 3.989650 0.000000 0.000000 
#    y 0.000000 3.989650 0.000000 
#    z 0.000000 0.000000 4.240670 
# 
# 
# High freq. dielectric constant tensor:
#      x y z
#    x 1.832250 0.000000 0.000000 
#    y 0.000000 1.832250 0.000000 
#    z 0.000000 0.000000 1.837340 
# 
# From -- ./inp_files/975.got.cif
#   From: 2010.03.12/outbox.cif.g09.slc.cpg/sg169_cif.got.tgz:975.got - 2010.04.02 06:46:06.
