data_PCOD8324250
_publ_section_title
;
Structure prediction by ZEFSAII (Michael W. Deem and Ramdas Pophale) SiO2 
 PCOD8324250
Probable space group: R -3 M
;
_chemical_formula_sum "Si O2"
_cell_formula_units_Z 144
_cell_length_a 29.274843
_cell_length_b 29.274843
_cell_length_c 9.708520
_cell_angle_alpha 90.000000
_cell_angle_beta 90.000000
_cell_angle_gamma 120.000000
_cell_volume 7205.644148
_symmetry_space_group_name_H-M "R -3 M"
_symmetry_group_IT_number 166
_symmetry_cell_setting 'hexagonal'
loop_
_space_group_symop_operation_xyz
x,y,z
-y,x-y,z
-x+y,-x,z
x-y,-y,-z
-x,-x+y,-z
y,x,-z
-x,-y,-z
y,-x+y,-z
x-y,x,-z
-x+y,y,z
x,x-y,z
-y,-x,z
2/3+x,1/3+y,1/3+z
2/3-y,1/3+x-y,1/3+z
2/3-x+y,1/3-x,1/3+z
2/3+x-y,1/3-y,1/3-z
2/3-x,1/3-x+y,1/3-z
2/3+y,1/3+x,1/3-z
2/3-x,1/3-y,1/3-z
2/3+y,1/3-x+y,1/3-z
2/3+x-y,1/3+x,1/3-z
2/3-x+y,1/3+y,1/3+z
2/3+x,1/3+x-y,1/3+z
2/3-y,1/3-x,1/3+z
1/3+x,2/3+y,2/3+z
1/3-y,2/3+x-y,2/3+z
1/3-x+y,2/3-x,2/3+z
1/3+x-y,2/3-y,2/3-z
1/3-x,2/3-x+y,2/3-z
1/3+y,2/3+x,2/3-z
1/3-x,2/3-y,2/3-z
1/3+y,2/3-x+y,2/3-z
1/3+x-y,2/3+x,2/3-z
1/3-x+y,2/3+y,2/3+z
1/3+x,2/3+x-y,2/3+z
1/3-y,2/3-x,2/3+z
loop_
_atom_site_type_symbol
_atom_site_label
_atom_site_fract_x
_atom_site_fract_y
_atom_site_fract_z
Si Si1 0.333189 0.770369 0.330891
Si Si2 0.345015 0.466326 0.326497
Si Si3 0.372007 0.309606 0.471587
Si Si4 0.106176 0.314452 0.686121
O O1 0.385748 0.771495 0.386654
O O2 0.282031 0.717970 0.387609
O O3 0.333334 0.770294 0.166667
O O4 0.330444 0.821298 0.385159
O O5 0.333334 0.457339 0.166667
O O6 0.314256 0.409694 0.402709
O O7 0.407413 0.489846 0.350828
O O8 0.336289 0.336289 0.500000
O O9 0.406458 0.333334 0.333334
O O10 0.333862 0.247692 0.442968
O O11 0.168211 0.336421 0.671052
O O12 0.094239 0.333334 0.833334
#
# Coordination Sequence:
#
# PCOD8324250 Si02
#       4
#    36  36  36  36
#     4   9  18  34  57  85 119 158 198 244 305 371
#     4  11  22  36  59  89 123 153 196 256 306 353
#     4  12  22  40  62  86 117 165 209 243 297 366
#     4  11  23  39  59  86 119 158 205 253 303 363
#
# _framework density 19.984334
#
# number of rings (size 3 to 8) (size 9 to 14) (size 15 to 20)
#    0.000    1.250    5.000    1.750    0.000    4.000 
#    0.000    1.250    0.000    0.000    0.000    0.000 
#    0.000    2.000    0.000    0.000    0.000    0.000 
#
# Total GULP energy -595009.494443 kJ/mol
# GULP energy per Si atom -12396.031134 kJ/mol
# Density = 1.993885 g / cm^3
# Si number density = 19.984334 Si / 1000 Ang^3
#
#
#
# Elastic Constant Matrix: (Units=GPa)
#
#
# Indices 1 2 3 4 5 6 
#
# 1 146.9888 77.0271 41.7523 -6.3596 0.0057 -0.0001
# 2 77.0271 146.9742 41.7100 6.3611 0.0008 -0.0005
# 3 41.7523 41.7100 72.0771 0.0132 0.0691 0.0002
# 4 -6.3596 6.3611 0.0132 14.8167 0.0042 0.0037
# 5 0.0057 0.0008 0.0691 0.0042 14.8217 -6.3645
# 6 -0.0001 -0.0005 0.0002 0.0037 -6.3645 34.9769
#
#
#
# Elastic Compliance Matrix: (Units=1/GPa)
#
#
# Indices 1 2 3 4 5 6 
#
# 1 0.010601 -0.004907 -0.003303 0.006660 0.000010 0.000001
# 2 -0.004907 0.010597 -0.003289 -0.006653 0.000021 0.000005
# 3 -0.003303 -0.003289 0.017690 -0.000021 -0.000088 -0.000016
# 4 0.006660 -0.006653 -0.000021 0.073206 -0.000028 -0.000013
# 5 0.000010 0.000021 -0.000088 -0.000028 0.073187 0.013317
# 6 0.000001 0.000005 -0.000016 -0.000013 0.013317 0.031014
#
#
# Mechanical properties :
#
#
# Convention : Reuss Voigt Hill
#
# Bulk Modulus (GPa) = 62.92482 76.33544 69.63013
# Shear Modulus (GPa) = 20.44256 26.62642 23.53449
#
# Velocity S-wave (km/s) = 3.20180 3.65412 3.43541
# Velocity P-wave (km/s) = 6.72489 7.48892 7.11717
#
# Compressibility (1/GPa) = 0.01589198
#
# Stress axis : x y z
#
# Youngs Moduli (GPa) = 94.33314 94.36942 56.52833
#
# Poissons Ratio (x) = 0.46304 0.18669
# Poissons Ratio (y) = 0.46286 0.18590
# Poissons Ratio (z) = 0.31154 0.31035
#
# Static dielectric constant tensor:
#      x y z
#    x 3.747710 -0.000020 -0.000160 
#    y -0.000020 3.747820 -0.000030 
#    z -0.000160 -0.000030 3.531700 
# 
# 
# High freq. dielectric constant tensor:
#      x y z
#    x 1.783870 0.000000 -0.000010 
#    y 0.000000 1.783880 0.000000 
#    z -0.000010 0.000000 1.747960 
# 
# From -- ./inp_files/1777.got.cif
#   From: 2010.03.12/outbox.cif.g09.slc.cpg/sg166_1_cif.got.tgz:1777.got - 2010.04.02 06:38:31.
