data_PCOD8324699
_publ_section_title
;
Structure prediction by ZEFSAII (Michael W. Deem and Ramdas Pophale) SiO2 
 PCOD8324699
Probable space group: P 65
;
_chemical_formula_sum "Si O2"
_cell_formula_units_Z 42
_cell_length_a 11.672054
_cell_length_b 11.672054
_cell_length_c 15.391207
_cell_angle_alpha 90.000000
_cell_angle_beta 90.000000
_cell_angle_gamma 120.000000
_cell_volume 1815.924914
_symmetry_space_group_name_H-M "P 65"
_symmetry_group_IT_number 170
_symmetry_cell_setting 'hexagonal'
loop_
_space_group_symop_operation_xyz
x,y,z
x-y,x,5/6+z
-y,x-y,2/3+z
-x,-y,1/2+z
-x+y,-x,1/3+z
y,-x+y,1/6+z
loop_
_atom_site_type_symbol
_atom_site_label
_atom_site_fract_x
_atom_site_fract_y
_atom_site_fract_z
Si Si1 0.339283 0.906217 0.346060
Si Si2 0.921122 0.837023 0.517434
Si Si3 0.257044 0.617832 0.324197
Si Si4 0.242833 0.534069 0.515192
Si Si5 0.661004 0.743034 0.409127
Si Si6 0.038738 0.640159 0.073880
Si Si7 0.030022 0.518153 0.849061
O O1 0.231054 0.946147 0.373318
O O2 0.259386 0.756095 0.311141
O O3 0.445277 0.917106 0.419533
O O4 0.432774 0.004972 0.269745
O O5 0.934041 0.907646 0.611036
O O6 0.777308 0.796460 0.480110
O O7 0.294061 0.601744 0.421922
O O8 0.357760 0.613105 0.254171
O O9 0.105437 0.501298 0.307043
O O10 0.090916 0.417460 0.512856
O O11 0.330446 0.465947 0.541041
O O12 0.693397 0.671693 0.332530
O O13 0.525318 0.634222 0.451646
O O14 0.625007 0.847638 0.365615
#
# Coordination Sequence:
#
# PCOD8324699 Si02
#       7
#     6   6   6   6   6   6   6
#     4  11  21  40  69 102 138 177 241 314 367 430
#     4  12  24  46  80 109 144 203 267 316 377 467
#     4  11  23  41  67  99 145 180 234 301 367 443
#     4  11  25  42  65 104 145 188 231 302 383 435
#     4  12  23  42  73 106 139 194 259 304 360 454
#     4  12  25  41  70 108 141 184 243 314 372 435
#     4  11  21  42  68 100 136 184 241 299 366 442
#
# _framework density 23.128710000000002
#
# number of rings (size 3 to 8) (size 9 to 14) (size 15 to 20)
#    0.000    0.571    5.714    3.429    4.000    0.000 
#    0.000    0.000    9.429    0.000    0.000    0.000 
#    0.000    0.000    0.000    0.000    0.000    0.000 
#
# Total GULP energy -520501.900359 kJ/mol
# GULP energy per Si atom -12392.902390 kJ/mol
# Density = 2.307607 g / cm^3
# Si number density = 23.128710 Si / 1000 Ang^3
#
#
#
# Elastic Constant Matrix: (Units=GPa)
#
#
# Indices 1 2 3 4 5 6 
#
# 1 94.7101 43.4349 23.1337 0.0000 0.0000 0.0000
# 2 43.4349 94.7101 23.1337 0.0000 0.0000 0.0000
# 3 23.1337 23.1337 85.3710 0.0000 0.0000 0.0000
# 4 0.0000 0.0000 0.0000 30.1489 0.0000 0.0000
# 5 0.0000 0.0000 0.0000 0.0000 30.1489 0.0000
# 6 0.0000 0.0000 0.0000 0.0000 0.0000 25.6376
#
#
#
# Elastic Compliance Matrix: (Units=1/GPa)
#
#
# Indices 1 2 3 4 5 6 
#
# 1 0.013732 -0.005771 -0.002157 0.000000 0.000000 0.000000
# 2 -0.005771 0.013732 -0.002157 0.000000 0.000000 0.000000
# 3 -0.002157 -0.002157 0.012883 0.000000 0.000000 0.000000
# 4 0.000000 0.000000 0.000000 0.033169 0.000000 0.000000
# 5 0.000000 0.000000 0.000000 0.000000 0.033169 0.000000
# 6 0.000000 0.000000 0.000000 0.000000 0.000000 0.039005
#
#
# Mechanical properties :
#
#
# Convention : Reuss Voigt Hill
#
# Bulk Modulus (GPa) = 49.56379 50.46618 50.01498
# Shear Modulus (GPa) = 28.97116 29.52632 29.24874
#
# Velocity S-wave (km/s) = 3.54306 3.57684 3.55999
# Velocity P-wave (km/s) = 6.18173 6.23903 6.21044
#
# Compressibility (1/GPa) = 0.02017602
#
# Stress axis : x y z
#
# Youngs Moduli (GPa) = 72.82279 72.82279 77.62310
#
# Poissons Ratio (x) = 0.42024 0.16746
# Poissons Ratio (y) = 0.42024 0.16746
# Poissons Ratio (z) = 0.15710 0.15710
#
# Static dielectric constant tensor:
#      x y z
#    x 4.068060 0.000000 0.000000 
#    y 0.000000 4.068060 0.000000 
#    z 0.000000 0.000000 4.221230 
# 
# 
# High freq. dielectric constant tensor:
#      x y z
#    x 1.904220 0.000000 0.000000 
#    y 0.000000 1.904220 0.000000 
#    z 0.000000 0.000000 1.909760 
# 
# From -- ./inp_files/1417.got.cif
#   From: 2010.03.12/outbox.cif.g09.slc.cpg/sg170_cif.got.tgz:1417.got - 2010.04.02 06:47:37.
