data_PCOD8324839
_publ_section_title
;
Structure prediction by ZEFSAII (Michael W. Deem and Ramdas Pophale) SiO2 
 PCOD8324839
Probable space group: P 63
;
_chemical_formula_sum "Si O2"
_cell_formula_units_Z 34
_cell_length_a 10.818100
_cell_length_b 10.818100
_cell_length_c 18.778888
_cell_angle_alpha 90.000000
_cell_angle_beta 90.000000
_cell_angle_gamma 120.000000
_cell_volume 1903.279136
_symmetry_space_group_name_H-M "P 63"
_symmetry_group_IT_number 173
_symmetry_cell_setting 'hexagonal'
loop_
_space_group_symop_operation_xyz
x,y,z
x-y,x,1/2+z
-y,x-y,z
-x,-y,1/2+z
-x+y,-x,z
y,-x+y,1/2+z
loop_
_atom_site_type_symbol
_atom_site_label
_atom_site_fract_x
_atom_site_fract_y
_atom_site_fract_z
Si Si1 0.012151 0.716010 0.394430
Si Si2 0.506056 0.481556 0.294390
Si Si3 0.292135 0.006022 0.393326
Si Si4 0.666668 0.333334 0.521724
Si Si5 0.488889 0.980076 0.008933
Si Si6 0.333334 0.666667 0.852548
Si Si7 0.570360 0.418188 0.149682
O O1 0.131058 0.880469 0.404106
O O2 0.060881 0.653954 0.327049
O O3 0.860254 0.706370 0.383208
O O4 0.009487 0.629468 0.464375
O O5 0.612420 0.640384 0.323725
O O6 0.553919 0.373584 0.324519
O O7 0.505379 0.479778 0.208409
O O8 0.386604 0.016201 0.461163
O O9 0.575219 0.403394 0.548878
O O10 0.666668 0.333334 0.436560
O O11 0.558514 0.096119 0.070031
O O12 0.504431 0.247127 0.160076
#
# Coordination Sequence:
#
# PCOD8324839 Si02
#       7
#     6   6   6   2   6   2   6
#     4  11  21  35  57  83 112 144 186 237 289 333
#     4  11  18  37  62  79 108 148 192 228 274 350
#     4  11  21  35  57  83 112 144 186 237 289 333
#     4  12  18  36  63  81  99 154 197 226 276 342
#     4  11  20  37  58  81 112 148 190 235 276 343
#     4  12  12  36  69  81  87 142 206 226 243 348
#     4  10  20  34  58  86 108 146 189 225 281 335
#
# _framework density 17.863904999999999
#
# number of rings (size 3 to 8) (size 9 to 14) (size 15 to 20)
#    0.353    0.706    8.824    1.412    0.000    0.000 
#   11.647    0.000    0.000    0.000    0.000    0.000 
#    0.000    0.000    0.000    0.000    0.000    0.000 
#
# Total GULP energy -421406.117188 kJ/mol
# GULP energy per Si atom -12394.297564 kJ/mol
# Density = 1.782325 g / cm^3
# Si number density = 17.863905 Si / 1000 Ang^3
#
#
#
# Elastic Constant Matrix: (Units=GPa)
#
#
# Indices 1 2 3 4 5 6 
#
# 1 81.6695 23.5702 23.6618 0.0000 0.0000 0.0001
# 2 23.5702 81.6696 23.6616 0.0000 0.0000 0.0000
# 3 23.6618 23.6616 77.9227 0.0000 0.0000 -0.0001
# 4 0.0000 0.0000 0.0000 26.7342 -0.0001 0.0000
# 5 0.0000 0.0000 0.0000 -0.0001 26.7345 0.0000
# 6 0.0001 0.0000 -0.0001 0.0000 0.0000 29.0497
#
#
#
# Elastic Compliance Matrix: (Units=1/GPa)
#
#
# Indices 1 2 3 4 5 6 
#
# 1 0.014108 -0.003104 -0.003342 0.000000 0.000000 0.000000
# 2 -0.003104 0.014108 -0.003342 0.000000 0.000000 0.000000
# 3 -0.003342 -0.003342 0.014863 0.000000 0.000000 0.000000
# 4 0.000000 0.000000 0.000000 0.037405 0.000000 0.000000
# 5 0.000000 0.000000 0.000000 0.000000 0.037405 0.000000
# 6 0.000000 0.000000 0.000000 0.000000 0.000000 0.034424
#
#
# Mechanical properties :
#
#
# Convention : Reuss Voigt Hill
#
# Bulk Modulus (GPa) = 42.54317 42.56101 42.55209
# Shear Modulus (GPa) = 27.82071 27.86155 27.84113
#
# Velocity S-wave (km/s) = 3.95063 3.95353 3.95208
# Velocity P-wave (km/s) = 6.68408 6.68711 6.68559
#
# Compressibility (1/GPa) = 0.02350554
#
# Stress axis : x y z
#
# Youngs Moduli (GPa) = 70.88004 70.88014 67.28271
#
# Poissons Ratio (x) = 0.21998 0.22484
# Poissons Ratio (y) = 0.21998 0.22484
# Poissons Ratio (z) = 0.23686 0.23686
#
# Static dielectric constant tensor:
#      x y z
#    x 3.328460 0.000000 0.000000 
#    y 0.000000 3.328460 0.000000 
#    z 0.000000 0.000000 3.211580 
# 
# 
# High freq. dielectric constant tensor:
#      x y z
#    x 1.685630 0.000000 0.000000 
#    y 0.000000 1.685630 0.000000 
#    z 0.000000 0.000000 1.677490 
# 
# From -- ./inp_files/1248.got.cif
#   From: 2010.03.12/outbox.cif.g09.slc.cpg/sg173_cif.got.tgz:1248.got - 2010.04.02 06:54:12.
