data_PCOD8324825
_publ_section_title
;
Structure prediction by ZEFSAII (Michael W. Deem and Ramdas Pophale) SiO2 
 PCOD8324825
Probable space group: P 64
;
_chemical_formula_sum "Si O2"
_cell_formula_units_Z 42
_cell_length_a 14.029176
_cell_length_b 14.029176
_cell_length_c 12.430837
_cell_angle_alpha 90.000000
_cell_angle_beta 90.000000
_cell_angle_gamma 120.000000
_cell_volume 2118.826181
_symmetry_space_group_name_H-M "P 64"
_symmetry_group_IT_number 172
_symmetry_cell_setting 'hexagonal'
loop_
_space_group_symop_operation_xyz
x,y,z
x-y,x,2/3+z
-y,x-y,1/3+z
-x,-y,z
-x+y,-x,2/3+z
y,-x+y,1/3+z
loop_
_atom_site_type_symbol
_atom_site_label
_atom_site_fract_x
_atom_site_fract_y
_atom_site_fract_z
Si Si1 0.062489 0.436857 0.545830
Si Si2 0.714363 0.952127 0.365198
Si Si3 0.163259 0.741105 0.887072
Si Si4 0.606105 0.103159 0.974097
Si Si5 0.766808 0.051161 0.582236
Si Si6 0.729375 0.418376 0.672875
Si Si7 0.459224 0.651456 0.245148
O O1 0.058801 0.426869 0.417137
O O2 0.188575 0.501902 0.582338
O O3 0.000000 0.500000 0.587054
O O4 0.003430 0.315540 0.595863
O O5 0.600728 0.868478 0.427292
O O6 0.766763 0.880270 0.316392
O O7 0.792433 0.045249 0.453373
O O8 0.286009 0.844447 0.899482
O O9 0.144832 0.623668 0.926367
O O10 0.076043 0.764217 0.953869
O O11 0.500000 0.000000 0.917310
O O12 0.574400 0.194899 0.997208
O O13 0.692195 0.107219 0.604111
O O14 0.775283 0.459479 0.789518
O O15 0.710470 0.296526 0.657162
#
# Coordination Sequence:
#
# PCOD8324825 Si02
#       7
#     6   6   6   6   6   6   6
#     4  11  20  34  60  87 123 167 214 257 310 373
#     4  10  22  36  62  87 122 157 219 257 320 371
#     4   9  21  38  57  87 130 165 211 256 316 382
#     4  10  23  39  56  90 130 171 213 259 324 389
#     4  10  21  36  60  89 122 164 210 260 315 377
#     4  11  20  33  55  89 129 164 210 261 308 382
#     4  11  18  32  55  87 126 169 207 253 315 375
#
# _framework density 19.822296000000001
#
# number of rings (size 3 to 8) (size 9 to 14) (size 15 to 20)
#    0.857    0.857    2.857    3.000    2.000    0.000 
#    2.571    0.000    0.000    0.000    0.000    8.000 
#    0.000    0.000    0.000    0.000    0.000    0.000 
#
# Total GULP energy -520360.766245 kJ/mol
# GULP energy per Si atom -12389.542053 kJ/mol
# Density = 1.977718 g / cm^3
# Si number density = 19.822296 Si / 1000 Ang^3
#
#
#
# Elastic Constant Matrix: (Units=GPa)
#
#
# Indices 1 2 3 4 5 6 
#
# 1 47.7592 58.0438 15.3639 0.0000 0.0000 0.0000
# 2 58.0438 47.7592 15.3639 0.0000 0.0000 0.0000
# 3 15.3639 15.3639 38.8175 0.0000 0.0000 0.0000
# 4 0.0000 0.0000 0.0000 36.9660 0.0000 0.0000
# 5 0.0000 0.0000 0.0000 0.0000 36.9660 0.0000
# 6 0.0000 0.0000 0.0000 0.0000 0.0000 -5.1423
#
#
#
# Elastic Compliance Matrix: (Units=1/GPa)
#
#
# Indices 1 2 3 4 5 6 
#
# 1 -0.043277 0.053956 -0.004227 0.000000 0.000000 0.000000
# 2 0.053956 -0.043277 -0.004227 0.000000 0.000000 0.000000
# 3 -0.004227 -0.004227 0.029107 0.000000 0.000000 0.000000
# 4 0.000000 0.000000 0.000000 0.027052 0.000000 0.000000
# 5 0.000000 0.000000 0.000000 0.000000 0.027052 0.000000
# 6 0.000000 0.000000 0.000000 0.000000 0.000000 -0.194467
#
#
# Mechanical properties :
#
#
# Convention : Reuss Voigt Hill
#
# Bulk Modulus (GPa) = 29.79863 34.65323 32.22593
# Shear Modulus (GPa) = -18.00958 16.79558 -0.60700
#
# Velocity S-wave (km/s) = -3.01749 2.91401 -0.55397
# Velocity P-wave (km/s) = 1.71032 5.37046 3.98541
#
# Compressibility (1/GPa) = 0.03355859
#
# Stress axis : x y z
#
# Youngs Moduli (GPa) = -23.10682 -23.10682 34.35541
#
# Poissons Ratio (x) = 1.24676 0.14521
# Poissons Ratio (y) = 1.24676 0.14521
# Poissons Ratio (z) = -0.09767 -0.09767
#
# Static dielectric constant tensor:
#      x y z
#    x 3.262370 0.000000 0.000000 
#    y 0.000000 3.262370 0.000000 
#    z 0.000000 0.000000 3.498540 
# 
# 
# High freq. dielectric constant tensor:
#      x y z
#    x 1.757590 0.000000 0.000000 
#    y 0.000000 1.757590 0.000000 
#    z 0.000000 0.000000 1.761920 
# 
# From -- ./inp_files/1103.got.cif
#   From: 2010.03.12/outbox.cif.g09.slc.cpg/sg172_1_cif.got.tgz:1103.got - 2010.04.02 06:52:29.
