data_PCOD8324691
_publ_section_title
;
Structure prediction by ZEFSAII (Michael W. Deem and Ramdas Pophale) SiO2 
 PCOD8324691
Probable space group: P 65
;
_chemical_formula_sum "Si O2"
_cell_formula_units_Z 42
_cell_length_a 14.999139
_cell_length_b 14.999139
_cell_length_c 11.524869
_cell_angle_alpha 90.000000
_cell_angle_beta 90.000000
_cell_angle_gamma 120.000000
_cell_volume 2245.428802
_symmetry_space_group_name_H-M "P 65"
_symmetry_group_IT_number 170
_symmetry_cell_setting 'hexagonal'
loop_
_space_group_symop_operation_xyz
x,y,z
x-y,x,5/6+z
-y,x-y,2/3+z
-x,-y,1/2+z
-x+y,-x,1/3+z
y,-x+y,1/6+z
loop_
_atom_site_type_symbol
_atom_site_label
_atom_site_fract_x
_atom_site_fract_y
_atom_site_fract_z
Si Si1 0.514674 0.794890 0.485920
Si Si2 0.600414 0.837165 0.991072
Si Si3 0.486864 0.200896 0.737433
Si Si4 0.108133 0.478900 0.955878
Si Si5 0.936546 0.608708 0.699632
Si Si6 0.399584 0.730555 0.837081
Si Si7 0.490285 0.912072 0.666199
O O1 0.571116 0.821561 0.360992
O O2 0.561653 0.734848 0.553939
O O3 0.389724 0.733087 0.470041
O O4 0.546029 0.902516 0.550502
O O5 0.661655 0.784889 0.930421
O O6 0.489061 0.767632 0.932552
O O7 0.655906 0.959569 0.970946
O O8 0.592155 0.830139 0.130811
O O9 0.550026 0.141028 0.741321
O O10 0.562512 0.322428 0.731609
O O11 0.987280 0.412144 0.924693
O O12 0.127783 0.468931 0.093011
O O13 0.952585 0.540791 0.797812
O O14 0.434936 0.795807 0.717589
#
# Coordination Sequence:
#
# PCOD8324691 Si02
#       7
#     6   6   6   6   6   6   6
#     4  11  22  36  53  80 117 161 203 240 293 345
#     4  12  23  38  57  83 114 154 193 251 288 349
#     4  11  20  32  50  79 115 154 198 232 279 335
#     4  11  23  36  54  81 112 160 203 249 283 343
#     4  12  24  39  58  83 115 151 201 244 298 347
#     4  11  19  34  54  76 115 158 201 239 280 331
#     4  12  21  35  56  80 112 156 209 241 285 344
#
# _framework density 18.704668999999999
#
# number of rings (size 3 to 8) (size 9 to 14) (size 15 to 20)
#    0.000    0.571    7.143    4.286    0.000    0.000 
#    2.571    0.000    0.000    0.000    0.000    0.000 
#    4.286    0.000    0.000    0.000    0.000    0.000 
#
# Total GULP energy -520422.086684 kJ/mol
# GULP energy per Si atom -12391.002064 kJ/mol
# Density = 1.866210 g / cm^3
# Si number density = 18.704669 Si / 1000 Ang^3
#
#
#
# Elastic Constant Matrix: (Units=GPa)
#
#
# Indices 1 2 3 4 5 6 
#
# 1 52.8729 16.6557 22.6468 0.0000 0.0000 0.0000
# 2 16.6557 52.8729 22.6468 0.0000 0.0000 0.0000
# 3 22.6468 22.6468 126.8804 0.0000 0.0000 0.0000
# 4 0.0000 0.0000 0.0000 26.5838 0.0000 0.0000
# 5 0.0000 0.0000 0.0000 0.0000 26.5838 0.0000
# 6 0.0000 0.0000 0.0000 0.0000 0.0000 18.1086
#
#
#
# Elastic Compliance Matrix: (Units=1/GPa)
#
#
# Indices 1 2 3 4 5 6 
#
# 1 0.021943 -0.005668 -0.002905 0.000000 0.000000 0.000000
# 2 -0.005668 0.021943 -0.002905 0.000000 0.000000 0.000000
# 3 -0.002905 -0.002905 0.008918 0.000000 0.000000 0.000000
# 4 0.000000 0.000000 0.000000 0.037617 0.000000 0.000000
# 5 0.000000 0.000000 0.000000 0.000000 0.037617 0.000000
# 6 0.000000 0.000000 0.000000 0.000000 0.000000 0.055223
#
#
# Mechanical properties :
#
#
# Convention : Reuss Voigt Hill
#
# Bulk Modulus (GPa) = 33.50232 39.61388 36.55810
# Shear Modulus (GPa) = 23.13033 25.63369 24.38201
#
# Velocity S-wave (km/s) = 3.52036 3.70597 3.61435
# Velocity P-wave (km/s) = 5.87145 6.28783 6.08321
#
# Compressibility (1/GPa) = 0.02984868
#
# Stress axis : x y z
#
# Youngs Moduli (GPa) = 45.57240 45.57240 112.12732
#
# Poissons Ratio (x) = 0.25831 0.32572
# Poissons Ratio (y) = 0.25831 0.32572
# Poissons Ratio (z) = 0.13238 0.13238
#
# Static dielectric constant tensor:
#      x y z
#    x 3.236140 0.000000 0.000000 
#    y 0.000000 3.236140 0.000000 
#    z 0.000000 0.000000 3.788210 
# 
# 
# High freq. dielectric constant tensor:
#      x y z
#    x 1.683110 0.000000 0.000000 
#    y 0.000000 1.683110 0.000000 
#    z 0.000000 0.000000 1.757170 
# 
# From -- ./inp_files/1037.got.cif
#   From: 2010.03.12/outbox.cif.g09.slc.cpg/sg170_cif.got.tgz:1037.got - 2010.04.02 06:47:37.
