data_PCOD8324226
_publ_section_title
;
Structure prediction by ZEFSAII (Michael W. Deem and Ramdas Pophale) SiO2 
 PCOD8324226
Probable space group: R -3 M
;
_chemical_formula_sum "Si O2"
_cell_formula_units_Z 144
_cell_length_a 29.649665
_cell_length_b 29.649665
_cell_length_c 8.625329
_cell_angle_alpha 90.000000
_cell_angle_beta 90.000000
_cell_angle_gamma 120.000000
_cell_volume 6566.680448
_symmetry_space_group_name_H-M "R -3 M"
_symmetry_group_IT_number 166
_symmetry_cell_setting 'hexagonal'
loop_
_space_group_symop_operation_xyz
x,y,z
-y,x-y,z
-x+y,-x,z
x-y,-y,-z
-x,-x+y,-z
y,x,-z
-x,-y,-z
y,-x+y,-z
x-y,x,-z
-x+y,y,z
x,x-y,z
-y,-x,z
2/3+x,1/3+y,1/3+z
2/3-y,1/3+x-y,1/3+z
2/3-x+y,1/3-x,1/3+z
2/3+x-y,1/3-y,1/3-z
2/3-x,1/3-x+y,1/3-z
2/3+y,1/3+x,1/3-z
2/3-x,1/3-y,1/3-z
2/3+y,1/3-x+y,1/3-z
2/3+x-y,1/3+x,1/3-z
2/3-x+y,1/3+y,1/3+z
2/3+x,1/3+x-y,1/3+z
2/3-y,1/3-x,1/3+z
1/3+x,2/3+y,2/3+z
1/3-y,2/3+x-y,2/3+z
1/3-x+y,2/3-x,2/3+z
1/3+x-y,2/3-y,2/3-z
1/3-x,2/3-x+y,2/3-z
1/3+y,2/3+x,2/3-z
1/3-x,2/3-y,2/3-z
1/3+y,2/3-x+y,2/3-z
1/3+x-y,2/3+x,2/3-z
1/3-x+y,2/3+y,2/3+z
1/3+x,2/3+x-y,2/3+z
1/3-y,2/3-x,2/3+z
loop_
_atom_site_type_symbol
_atom_site_label
_atom_site_fract_x
_atom_site_fract_y
_atom_site_fract_z
Si Si1 0.785030 0.570060 0.947427
Si Si2 0.606976 0.393025 0.662737
Si Si3 0.896036 0.448018 0.087683
Si Si4 0.885604 0.942802 0.301871
Si Si5 0.725778 0.630394 0.017670
Si Si6 0.295748 0.897311 0.522158
O O1 0.757384 0.600886 0.002153
O O2 0.757255 0.514510 0.036864
O O3 0.784191 0.568382 0.762889
O O4 0.580019 0.336228 0.584543
O O5 0.608520 0.391481 0.846993
O O6 0.835091 0.417546 0.122619
O O7 0.920999 0.416260 0.164547
O O8 0.746377 0.666667 0.166667
O O9 0.664823 0.586637 0.035101
O O10 0.734861 0.669189 0.875644
O O11 0.333334 0.902779 0.666667
#
# Coordination Sequence:
#
# PCOD8324226 Si02
#       6
#    18  18  18  18  36  36
#     4  11  22  38  61  93 126 166 209 269 317 378
#     4   9  17  30  54  85 123 162 194 244 312 368
#     4  11  23  41  61  94 125 160 215 268 319 373
#     4   9  17  31  53  84 124 153 199 245 305 379
#     4  10  22  43  63  89 125 166 212 260 321 386
#     4  10  23  44  64  90 123 167 212 265 321 392
#
# _framework density 21.928885999999999
#
# number of rings (size 3 to 8) (size 9 to 14) (size 15 to 20)
#    0.000    2.000    0.000    2.875    0.000    9.000 
#   27.000    1.250    0.000    0.000    0.000    0.875 
#    0.000    0.000    0.000    0.000    0.000    0.000 
#
# Total GULP energy -595018.696678 kJ/mol
# GULP energy per Si atom -12396.222847 kJ/mol
# Density = 2.187898 g / cm^3
# Si number density = 21.928886 Si / 1000 Ang^3
#
#
#
# Elastic Constant Matrix: (Units=GPa)
#
#
# Indices 1 2 3 4 5 6 
#
# 1 179.8981 96.2797 24.2563 -15.4265 -0.3696 -0.1367
# 2 96.2797 179.9262 24.6942 15.4900 0.3069 0.1463
# 3 24.2563 24.6942 7.8412 -0.2801 0.0467 0.0603
# 4 -15.4265 15.4900 -0.2801 -9.3293 -0.4928 -0.2088
# 5 -0.3696 0.3069 0.0467 -0.4928 -8.4045 -14.7723
# 6 -0.1367 0.1463 0.0603 -0.2088 -14.7723 42.2742
#
#
#
# Elastic Compliance Matrix: (Units=1/GPa)
#
#
# Indices 1 2 3 4 5 6 
#
# 1 0.007854 0.000339 -0.025781 -0.011658 0.000125 0.000047
# 2 0.000339 0.007654 -0.024687 0.012915 -0.000470 -0.000091
# 3 -0.025781 -0.024687 0.284767 -0.007011 0.001857 0.000210
# 4 -0.011658 0.012915 -0.007011 -0.066457 0.003436 0.000800
# 5 0.000125 -0.000470 0.001857 0.003436 -0.073861 -0.025794
# 6 0.000047 -0.000091 0.000210 0.000800 -0.025794 0.014646
#
#
# Mechanical properties :
#
#
# Convention : Reuss Voigt Hill
#
# Bulk Modulus (GPa) = 4.99961 73.12510 39.06235
# Shear Modulus (GPa) = 14.63992 19.73713 17.18852
#
# Velocity S-wave (km/s) = 2.58662 3.00334 2.80273
# Velocity P-wave (km/s) = 3.34748 6.74134 5.32218
#
# Compressibility (1/GPa) = 0.20001572
#
# Stress axis : x y z
#
# Youngs Moduli (GPa) = 127.32341 130.65653 3.51165
#
# Poissons Ratio (x) = -0.04429 0.09053
# Poissons Ratio (y) = -0.04316 0.08669
# Poissons Ratio (z) = 3.28251 3.22556
#
# Static dielectric constant tensor:
#      x y z
#    x 4.265250 -0.000070 -0.000700 
#    y -0.000070 4.265780 -0.000110 
#    z -0.000700 -0.000110 3.761670 
# 
# 
# High freq. dielectric constant tensor:
#      x y z
#    x 1.879640 0.000000 -0.000050 
#    y 0.000000 1.879670 0.000000 
#    z -0.000050 0.000000 1.831770 
# 
# From -- ./inp_files/1918.got.cif
#   From: 2010.03.12/outbox.cif.g09.slc.cpg/sg166_1_cif.got.tgz:1918.got - 2010.04.02 06:38:31.
