data_PCOD8324654
_publ_section_title
;
Structure prediction by ZEFSAII (Michael W. Deem and Ramdas Pophale) SiO2 
 PCOD8324654
Probable space group: P 65
;
_chemical_formula_sum "Si O2"
_cell_formula_units_Z 48
_cell_length_a 15.467090
_cell_length_b 15.467090
_cell_length_c 11.186801
_cell_angle_alpha 90.000000
_cell_angle_beta 90.000000
_cell_angle_gamma 120.000000
_cell_volume 2317.681582
_symmetry_space_group_name_H-M "P 65"
_symmetry_group_IT_number 170
_symmetry_cell_setting 'hexagonal'
loop_
_space_group_symop_operation_xyz
x,y,z
x-y,x,5/6+z
-y,x-y,2/3+z
-x,-y,1/2+z
-x+y,-x,1/3+z
y,-x+y,1/6+z
loop_
_atom_site_type_symbol
_atom_site_label
_atom_site_fract_x
_atom_site_fract_y
_atom_site_fract_z
Si Si1 0.551590 0.240962 0.240080
Si Si2 0.178938 0.072567 0.401384
Si Si3 0.025196 0.854027 0.949798
Si Si4 0.098821 0.709096 0.572521
Si Si5 0.597415 0.021190 0.102406
Si Si6 0.835059 0.380195 0.667489
Si Si7 0.596442 0.873596 0.281914
Si Si8 0.269486 0.795454 0.752645
O O1 0.460171 0.136564 0.289994
O O2 0.555082 0.340551 0.287754
O O3 0.654733 0.245213 0.270939
O O4 0.537568 0.238267 0.097067
O O5 0.135341 0.097978 0.283738
O O6 0.202225 0.151582 0.507615
O O7 0.283633 0.083260 0.366494
O O8 0.071639 0.784659 0.981636
O O9 0.105816 0.965566 0.900250
O O10 0.177968 0.720629 0.672095
O O11 0.996159 0.628514 0.637921
O O12 0.687960 0.101322 0.182610
O O13 0.555304 0.926553 0.190899
O O14 0.522210 0.062722 0.070425
O O15 0.855166 0.319396 0.569050
O O16 0.572028 0.769663 0.218067
#
# Coordination Sequence:
#
# PCOD8324654 Si02
#       8
#     6   6   6   6   6   6   6   6
#     4  11  22  41  63  87 133 177 223 268 317 399
#     4  10  20  36  67  96 120 159 210 268 326 392
#     4  10  20  38  69  96 124 164 214 277 334 396
#     4  11  20  36  66  95 125 165 218 271 327 389
#     4  10  21  37  60  92 123 165 220 276 324 386
#     4  11  25  40  61  91 135 172 224 271 330 397
#     4  11  22  38  65  95 130 172 222 272 334 401
#     4  10  20  38  61  90 122 172 219 269 316 394
#
# _framework density 20.710353000000001
#
# number of rings (size 3 to 8) (size 9 to 14) (size 15 to 20)
#    0.000    1.500    2.500    6.000    3.500    0.000 
#    0.000    0.000   16.500    0.000    0.000    0.000 
#    0.000    0.000    0.000    0.000    0.000    0.000 
#
# Total GULP energy -594665.401739 kJ/mol
# GULP energy per Si atom -12388.862536 kJ/mol
# Density = 2.066321 g / cm^3
# Si number density = 20.710353 Si / 1000 Ang^3
#
#
#
# Elastic Constant Matrix: (Units=GPa)
#
#
# Indices 1 2 3 4 5 6 
#
# 1 86.4708 32.8701 51.0075 0.0000 0.0000 0.0000
# 2 32.8701 86.4708 51.0075 0.0000 0.0000 0.0000
# 3 51.0075 51.0075 123.5923 0.0000 0.0000 0.0000
# 4 0.0000 0.0000 0.0000 31.1333 0.0000 0.0000
# 5 0.0000 0.0000 0.0000 0.0000 31.1333 0.0000
# 6 0.0000 0.0000 0.0000 0.0000 0.0000 26.8004
#
#
#
# Elastic Compliance Matrix: (Units=1/GPa)
#
#
# Indices 1 2 3 4 5 6 
#
# 1 0.015802 -0.002855 -0.005343 0.000000 0.000000 0.000000
# 2 -0.002855 0.015802 -0.005343 0.000000 0.000000 0.000000
# 3 -0.005343 -0.005343 0.012502 0.000000 0.000000 0.000000
# 4 0.000000 0.000000 0.000000 0.032120 0.000000 0.000000
# 5 0.000000 0.000000 0.000000 0.000000 0.032120 0.000000
# 6 0.000000 0.000000 0.000000 0.000000 0.000000 0.037313
#
#
# Mechanical properties :
#
#
# Convention : Reuss Voigt Hill
#
# Bulk Modulus (GPa) = 58.74678 62.92267 60.83472
# Shear Modulus (GPa) = 28.02462 28.58997 28.30729
#
# Velocity S-wave (km/s) = 3.68254 3.71950 3.70106
# Velocity P-wave (km/s) = 6.81974 6.99245 6.90664
#
# Compressibility (1/GPa) = 0.01702221
#
# Stress axis : x y z
#
# Youngs Moduli (GPa) = 63.28442 63.28442 79.99017
#
# Poissons Ratio (x) = 0.18066 0.42741
# Poissons Ratio (y) = 0.18066 0.42741
# Poissons Ratio (z) = 0.33815 0.33815
#
# Static dielectric constant tensor:
#      x y z
#    x 3.802700 0.000000 0.000000 
#    y 0.000000 3.802700 0.000000 
#    z 0.000000 0.000000 3.841510 
# 
# 
# High freq. dielectric constant tensor:
#      x y z
#    x 1.805070 0.000000 0.000000 
#    y 0.000000 1.805070 0.000000 
#    z 0.000000 0.000000 1.798100 
# 
# From -- ./inp_files/1068.got.cif
#   From: 2010.03.12/outbox.cif.g09.slc.cpg/sg170_cif.got.tgz:1068.got - 2010.04.02 06:47:37.
