data_PCOD8324778
_publ_section_title
;
Structure prediction by ZEFSAII (Michael W. Deem and Ramdas Pophale) SiO2 
 PCOD8324778
Probable space group: P 62
;
_chemical_formula_sum "Si O2"
_cell_formula_units_Z 21
_cell_length_a 13.160717
_cell_length_b 13.160717
_cell_length_c 5.944910
_cell_angle_alpha 90.000000
_cell_angle_beta 90.000000
_cell_angle_gamma 120.000000
_cell_volume 891.733366
_symmetry_space_group_name_H-M "P 62"
_symmetry_group_IT_number 171
_symmetry_cell_setting 'hexagonal'
loop_
_space_group_symop_operation_xyz
x,y,z
x-y,x,1/3+z
-y,x-y,2/3+z
-x,-y,z
-x+y,-x,1/3+z
y,-x+y,2/3+z
loop_
_atom_site_type_symbol
_atom_site_label
_atom_site_fract_x
_atom_site_fract_y
_atom_site_fract_z
Si Si1 0.265488 0.909205 0.743670
Si Si2 0.561805 0.237470 0.119687
Si Si3 0.145953 0.200169 0.745803
Si Si4 0.500000 0.000000 0.014710
O O1 0.248033 0.786008 0.642489
O O2 0.259199 0.989376 0.546512
O O3 0.163781 0.870266 0.932208
O O4 0.392294 0.978260 0.855973
O O5 0.684480 0.275925 0.002695
O O6 0.518143 0.103253 0.182399
O O7 0.138785 0.098035 0.589238
#
# Coordination Sequence:
#
# PCOD8324778 Si02
#       4
#     6   6   6   3
#     4  11  26  44  68 100 137 177 223 276 334 398
#     4  10  23  42  66  98 133 176 227 277 333 394
#     4  12  26  45  70 102 138 178 221 273 333 398
#     4  10  22  44  66  96 136 178 226 276 334 394
#
# _framework density 23.549641999999999
#
# number of rings (size 3 to 8) (size 9 to 14) (size 15 to 20)
#    0.000    1.143    0.000    5.143    0.000   21.714 
#    0.000    2.857    0.000    0.000    0.000    0.000 
#    0.000    0.000    0.000    0.000    0.000    0.000 
#
# Total GULP energy -260222.717193 kJ/mol
# GULP energy per Si atom -12391.557962 kJ/mol
# Density = 2.349604 g / cm^3
# Si number density = 23.549642 Si / 1000 Ang^3
#
#
#
# Elastic Constant Matrix: (Units=GPa)
#
#
# Indices 1 2 3 4 5 6 
#
# 1 151.0497 54.3895 31.6250 0.0000 0.0000 0.0000
# 2 54.3895 151.0497 31.6250 0.0000 0.0000 0.0000
# 3 31.6250 31.6250 60.9973 0.0000 0.0000 0.0000
# 4 0.0000 0.0000 0.0000 24.3712 0.0000 0.0000
# 5 0.0000 0.0000 0.0000 0.0000 24.3712 0.0000
# 6 0.0000 0.0000 0.0000 0.0000 0.0000 48.3301
#
#
#
# Elastic Compliance Matrix: (Units=1/GPa)
#
#
# Indices 1 2 3 4 5 6 
#
# 1 0.008069 -0.002277 -0.003003 0.000000 0.000000 0.000000
# 2 -0.002277 0.008069 -0.003003 0.000000 0.000000 0.000000
# 3 -0.003003 -0.003003 0.019508 0.000000 0.000000 0.000000
# 4 0.000000 0.000000 0.000000 0.041032 0.000000 0.000000
# 5 0.000000 0.000000 0.000000 0.000000 0.041032 0.000000
# 6 0.000000 0.000000 0.000000 0.000000 0.000000 0.020691
#
#
# Mechanical properties :
#
#
# Convention : Reuss Voigt Hill
#
# Bulk Modulus (GPa) = 52.41008 66.48621 59.44815
# Shear Modulus (GPa) = 30.99300 35.77828 33.38564
#
# Velocity S-wave (km/s) = 3.63170 3.90201 3.76928
# Velocity P-wave (km/s) = 6.31579 6.97098 6.65146
#
# Compressibility (1/GPa) = 0.01908030
#
# Stress axis : x y z
#
# Youngs Moduli (GPa) = 123.93326 123.93326 51.26066
#
# Poissons Ratio (x) = 0.28215 0.15394
# Poissons Ratio (y) = 0.28215 0.15394
# Poissons Ratio (z) = 0.37218 0.37218
#
# Static dielectric constant tensor:
#      x y z
#    x 4.976630 0.000000 0.000000 
#    y 0.000000 4.976630 0.000000 
#    z 0.000000 0.000000 3.889670 
# 
# 
# High freq. dielectric constant tensor:
#      x y z
#    x 1.964530 0.000000 0.000000 
#    y 0.000000 1.964530 0.000000 
#    z 0.000000 0.000000 1.892570 
# 
# From -- ./inp_files/177.got.cif
#   From: 2010.03.12/outbox.cif.g09.slc.cpg/sg171_1_cif.got.tgz:177.got - 2010.04.02 06:49:11.
