data_PCOD8324671
_publ_section_title
;
Structure prediction by ZEFSAII (Michael W. Deem and Ramdas Pophale) SiO2 
 PCOD8324671
Probable space group: P 65
;
_chemical_formula_sum "Si O2"
_cell_formula_units_Z 30
_cell_length_a 15.559092
_cell_length_b 15.559092
_cell_length_c 7.222797
_cell_angle_alpha 90.000000
_cell_angle_beta 90.000000
_cell_angle_gamma 120.000000
_cell_volume 1514.274253
_symmetry_space_group_name_H-M "P 65"
_symmetry_group_IT_number 170
_symmetry_cell_setting 'hexagonal'
loop_
_space_group_symop_operation_xyz
x,y,z
x-y,x,5/6+z
-y,x-y,2/3+z
-x,-y,1/2+z
-x+y,-x,1/3+z
y,-x+y,1/6+z
loop_
_atom_site_type_symbol
_atom_site_label
_atom_site_fract_x
_atom_site_fract_y
_atom_site_fract_z
Si Si1 0.626378 0.907913 0.818240
Si Si2 0.572472 0.433473 0.072422
Si Si3 0.227715 0.788513 0.836650
Si Si4 0.616784 0.750486 0.568462
Si Si5 0.921399 0.481304 0.993535
O O1 0.658853 0.853751 0.672010
O O2 0.521772 0.896362 0.748903
O O3 0.709467 0.021991 0.804859
O O4 0.619000 0.864007 0.026884
O O5 0.529389 0.417619 0.868697
O O6 0.687648 0.464398 0.082036
O O7 0.495458 0.323853 0.150446
O O8 0.560331 0.521810 0.162145
O O9 0.332586 0.856097 0.726443
O O10 0.224879 0.850746 0.014155
#
# Coordination Sequence:
#
# PCOD8324671 Si02
#       5
#     6   6   6   6   6
#     4  10  23  38  57  88 116 155 203 246 298 365
#     4   9  20  35  53  83 115 152 194 231 289 350
#     4  10  22  34  60  82 120 160 194 240 304 346
#     4  10  23  38  57  88 116 155 203 246 298 365
#     4   9  20  35  53  83 115 152 194 231 289 350
#
# _framework density 19.811471000000001
#
# number of rings (size 3 to 8) (size 9 to 14) (size 15 to 20)
#    0.000    2.400    0.000    0.000   16.800    4.800 
#    0.000    0.000    0.000    0.000    5.200    0.000 
#    0.000    0.000    0.000    0.000    0.000    0.000 
#
# Total GULP energy -371643.544241 kJ/mol
# GULP energy per Si atom -12388.118141 kJ/mol
# Density = 1.976638 g / cm^3
# Si number density = 19.811471 Si / 1000 Ang^3
#
#
#
# Elastic Constant Matrix: (Units=GPa)
#
#
# Indices 1 2 3 4 5 6 
#
# 1 58.2774 9.1314 30.7020 0.0000 0.0000 0.0000
# 2 9.1314 58.2774 30.7020 0.0000 0.0000 0.0000
# 3 30.7020 30.7020 71.4525 0.0000 0.0000 0.0000
# 4 0.0000 0.0000 0.0000 32.1209 0.0000 0.0000
# 5 0.0000 0.0000 0.0000 0.0000 32.1209 0.0000
# 6 0.0000 0.0000 0.0000 0.0000 0.0000 24.5730
#
#
#
# Elastic Compliance Matrix: (Units=1/GPa)
#
#
# Indices 1 2 3 4 5 6 
#
# 1 0.022362 0.002014 -0.010474 0.000000 0.000000 0.000000
# 2 0.002014 0.022362 -0.010474 0.000000 0.000000 0.000000
# 3 -0.010474 -0.010474 0.022996 0.000000 0.000000 0.000000
# 4 0.000000 0.000000 0.000000 0.031132 0.000000 0.000000
# 5 0.000000 0.000000 0.000000 0.000000 0.031132 0.000000
# 6 0.000000 0.000000 0.000000 0.000000 0.000000 0.040695
#
#
# Mechanical properties :
#
#
# Convention : Reuss Voigt Hill
#
# Bulk Modulus (GPa) = 33.49839 36.56423 35.03131
# Shear Modulus (GPa) = 22.88360 25.59442 24.23901
#
# Velocity S-wave (km/s) = 3.40232 3.59820 3.50163
# Velocity P-wave (km/s) = 5.69031 5.97987 5.83689
#
# Compressibility (1/GPa) = 0.02985218
#
# Stress axis : x y z
#
# Youngs Moduli (GPa) = 44.71954 44.71954 43.48548
#
# Poissons Ratio (x) = -0.09007 0.45546
# Poissons Ratio (y) = -0.09007 0.45546
# Poissons Ratio (z) = 0.46838 0.46838
#
# Static dielectric constant tensor:
#      x y z
#    x 3.323790 0.000000 0.000000 
#    y 0.000000 3.323790 0.000000 
#    z 0.000000 0.000000 3.615340 
# 
# 
# High freq. dielectric constant tensor:
#      x y z
#    x 1.754220 0.000000 0.000000 
#    y 0.000000 1.754220 0.000000 
#    z 0.000000 0.000000 1.776630 
# 
# From -- ./inp_files/511.got.cif
#   From: 2010.03.12/outbox.cif.g09.slc.cpg/sg170_cif.got.tgz:511.got - 2010.04.02 06:47:37.
