data_PCOD8324759
_publ_section_title
;
Structure prediction by ZEFSAII (Michael W. Deem and Ramdas Pophale) SiO2 
 PCOD8324759
Probable space group: P 62
;
_chemical_formula_sum "Si O2"
_cell_formula_units_Z 42
_cell_length_a 19.162181
_cell_length_b 19.162181
_cell_length_c 6.638999
_cell_angle_alpha 90.000000
_cell_angle_beta 90.000000
_cell_angle_gamma 120.000000
_cell_volume 2111.169539
_symmetry_space_group_name_H-M "P 62"
_symmetry_group_IT_number 171
_symmetry_cell_setting 'hexagonal'
loop_
_space_group_symop_operation_xyz
x,y,z
x-y,x,1/3+z
-y,x-y,2/3+z
-x,-y,z
-x+y,-x,1/3+z
y,-x+y,2/3+z
loop_
_atom_site_type_symbol
_atom_site_label
_atom_site_fract_x
_atom_site_fract_y
_atom_site_fract_z
Si Si1 0.262130 0.475310 0.127700
Si Si2 0.140116 0.379806 0.454955
Si Si3 0.735021 0.374479 0.935112
Si Si4 0.243349 0.947633 0.409792
Si Si5 0.414641 0.369016 0.441917
Si Si6 0.133114 0.809196 0.164968
Si Si7 0.604015 0.484794 0.414113
O O1 0.208761 0.454890 0.330922
O O2 0.355549 0.514553 0.198305
O O3 0.245598 0.539018 0.015141
O O4 0.240577 0.398125 0.986630
O O5 0.090984 0.309320 0.295965
O O6 0.073852 0.393536 0.568050
O O7 0.187033 0.356609 0.614035
O O8 0.702230 0.367415 0.711312
O O9 0.813854 0.364463 0.925307
O O10 0.312105 0.931456 0.306726
O O11 0.165952 0.899003 0.261101
O O12 0.269713 0.039501 0.446431
O O13 0.509383 0.424647 0.424311
O O14 0.372743 0.423768 0.456617
#
# Coordination Sequence:
#
# PCOD8324759 Si02
#       7
#     6   6   6   6   6   6   6
#     4  11  24  38  61  85 117 168 210 265 321 374
#     4  10  21  40  63  87 122 158 208 256 309 376
#     4  12  26  40  56  84 118 165 219 262 315 387
#     4  10  21  40  62  96 121 163 203 251 315 372
#     4  10  23  40  59  86 123 157 210 265 315 371
#     4  10  22  39  66  93 127 159 207 259 311 382
#     4  11  23  41  57  85 120 161 208 265 318 367
#
# _framework density 19.894186000000001
#
# number of rings (size 3 to 8) (size 9 to 14) (size 15 to 20)
#    0.000    1.429    1.429    4.286    8.000    3.429 
#    0.000    1.429    0.000    0.000    0.000    5.000 
#    0.000    0.000    0.000    0.000    0.000    0.000 
#
# Total GULP energy -520344.680939 kJ/mol
# GULP energy per Si atom -12389.159070 kJ/mol
# Density = 1.984891 g / cm^3
# Si number density = 19.894186 Si / 1000 Ang^3
#
#
#
# Elastic Constant Matrix: (Units=GPa)
#
#
# Indices 1 2 3 4 5 6 
#
# 1 102.9465 37.8856 37.7058 0.0000 0.0000 0.0000
# 2 37.8856 102.9465 37.7058 0.0000 0.0000 0.0000
# 3 37.7058 37.7058 108.8332 0.0000 0.0000 0.0000
# 4 0.0000 0.0000 0.0000 29.0580 0.0000 0.0000
# 5 0.0000 0.0000 0.0000 0.0000 29.0580 0.0000
# 6 0.0000 0.0000 0.0000 0.0000 0.0000 32.5305
#
#
#
# Elastic Compliance Matrix: (Units=1/GPa)
#
#
# Indices 1 2 3 4 5 6 
#
# 1 0.012044 -0.003326 -0.003020 0.000000 0.000000 0.000000
# 2 -0.003326 0.012044 -0.003020 0.000000 0.000000 0.000000
# 3 -0.003020 -0.003020 0.011281 0.000000 0.000000 0.000000
# 4 0.000000 0.000000 0.000000 0.034414 0.000000 0.000000
# 5 0.000000 0.000000 0.000000 0.000000 0.034414 0.000000
# 6 0.000000 0.000000 0.000000 0.000000 0.000000 0.030740
#
#
# Mechanical properties :
#
#
# Convention : Reuss Voigt Hill
#
# Bulk Modulus (GPa) = 60.11190 60.14675 60.12932
# Shear Modulus (GPa) = 31.40375 31.55790 31.48083
#
# Velocity S-wave (km/s) = 3.97739 3.98714 3.98227
# Velocity P-wave (km/s) = 7.16759 7.17603 7.17181
#
# Compressibility (1/GPa) = 0.01663564
#
# Stress axis : x y z
#
# Youngs Moduli (GPa) = 83.02822 83.02822 88.64283
#
# Poissons Ratio (x) = 0.27616 0.26774
# Poissons Ratio (y) = 0.27616 0.26774
# Poissons Ratio (z) = 0.25078 0.25078
#
# Static dielectric constant tensor:
#      x y z
#    x 3.771010 0.000000 0.000000 
#    y 0.000000 3.771010 0.000000 
#    z 0.000000 0.000000 3.789110 
# 
# 
# High freq. dielectric constant tensor:
#      x y z
#    x 1.768050 0.000000 0.000000 
#    y 0.000000 1.768050 0.000000 
#    z 0.000000 0.000000 1.786180 
# 
# From -- ./inp_files/818.got.cif
#   From: 2010.03.12/outbox.cif.g09.slc.cpg/sg171_1_cif.got.tgz:818.got - 2010.04.02 06:49:11.
