data_PCOD8324475
_publ_section_title
;
Structure prediction by ZEFSAII (Michael W. Deem and Ramdas Pophale) SiO2 
 PCOD8324475
Probable space group: P 61
;
_chemical_formula_sum "Si O2"
_cell_formula_units_Z 48
_cell_length_a 15.652570
_cell_length_b 15.652570
_cell_length_c 11.589129
_cell_angle_alpha 90.000000
_cell_angle_beta 90.000000
_cell_angle_gamma 120.000000
_cell_volume 2458.967213
_symmetry_space_group_name_H-M "P 61"
_symmetry_group_IT_number 169
_symmetry_cell_setting 'hexagonal'
loop_
_space_group_symop_operation_xyz
x,y,z
x-y,x,1/6+z
-y,x-y,1/3+z
-x,-y,1/2+z
-x+y,-x,2/3+z
y,-x+y,5/6+z
loop_
_atom_site_type_symbol
_atom_site_label
_atom_site_fract_x
_atom_site_fract_y
_atom_site_fract_z
Si Si1 0.606833 0.786572 0.411090
Si Si2 0.815526 0.924598 0.093880
Si Si3 0.272204 0.300040 0.950542
Si Si4 0.351620 0.875422 0.536341
Si Si5 0.084617 0.617568 0.448482
Si Si6 0.693957 0.227539 0.639987
Si Si7 0.420263 0.720243 0.557817
Si Si8 0.608335 0.787287 0.999026
O O1 0.680480 0.903630 0.395420
O O2 0.662819 0.747656 0.494851
O O3 0.598660 0.738079 0.285175
O O4 0.499082 0.756509 0.455282
O O5 0.877298 0.884522 0.166144
O O6 0.771628 0.968544 0.186636
O O7 0.725811 0.837064 0.020037
O O8 0.345205 0.408459 0.901049
O O9 0.379659 0.794302 0.568478
O O10 0.312830 0.863102 0.406467
O O11 0.446466 0.983275 0.554099
O O12 0.149763 0.570320 0.483078
O O13 0.138095 0.707937 0.361393
O O14 0.719123 0.329929 0.702444
O O15 0.724549 0.247010 0.507135
O O16 0.754473 0.180387 0.700145
#
# Coordination Sequence:
#
# PCOD8324475 Si02
#       8
#     6   6   6   6   6   6   6   6
#     4  11  21  37  61  90 126 160 212 266 330 387
#     4  11  21  42  75 102 124 163 217 272 337 398
#     4  10  19  35  62  97 122 156 207 267 317 386
#     4  11  21  38  60  92 121 163 213 269 320 384
#     4  10  21  35  59  92 119 160 213 252 314 378
#     4  12  23  41  60  86 130 177 221 263 325 390
#     4  12  23  39  59  86 131 180 218 270 322 392
#     4  11  21  39  66  93 129 165 215 273 325 387
#
# _framework density 19.520392000000001
#
# number of rings (size 3 to 8) (size 9 to 14) (size 15 to 20)
#    0.000    1.000    7.500    1.500    1.750    1.000 
#    6.750    0.000    2.750    0.000    0.000    0.000 
#    0.000    0.000    0.000    0.000    0.000    0.000 
#
# Total GULP energy -595138.422020 kJ/mol
# GULP energy per Si atom -12398.717125 kJ/mol
# Density = 1.947596 g / cm^3
# Si number density = 19.520392 Si / 1000 Ang^3
#
#
#
# Elastic Constant Matrix: (Units=GPa)
#
#
# Indices 1 2 3 4 5 6 
#
# 1 85.4420 40.7181 26.2621 0.0000 0.0000 0.0000
# 2 40.7181 85.4420 26.2621 0.0000 0.0000 0.0000
# 3 26.2621 26.2621 69.4006 0.0000 0.0000 0.0000
# 4 0.0000 0.0000 0.0000 27.8548 0.0000 0.0000
# 5 0.0000 0.0000 0.0000 0.0000 27.8548 0.0000
# 6 0.0000 0.0000 0.0000 0.0000 0.0000 22.3619
#
#
#
# Elastic Compliance Matrix: (Units=1/GPa)
#
#
# Indices 1 2 3 4 5 6 
#
# 1 0.015884 -0.006475 -0.003560 0.000000 0.000000 0.000000
# 2 -0.006475 0.015884 -0.003560 0.000000 0.000000 0.000000
# 3 -0.003560 -0.003560 0.017104 0.000000 0.000000 0.000000
# 4 0.000000 0.000000 0.000000 0.035900 0.000000 0.000000
# 5 0.000000 0.000000 0.000000 0.000000 0.035900 0.000000
# 6 0.000000 0.000000 0.000000 0.000000 0.000000 0.044719
#
#
# Mechanical properties :
#
#
# Convention : Reuss Voigt Hill
#
# Bulk Modulus (GPa) = 46.12629 47.41878 46.77253
# Shear Modulus (GPa) = 25.02372 25.41712 25.22042
#
# Velocity S-wave (km/s) = 3.58429 3.61235 3.59834
# Velocity P-wave (km/s) = 6.38831 6.46091 6.42472
#
# Compressibility (1/GPa) = 0.02167961
#
# Stress axis : x y z
#
# Youngs Moduli (GPa) = 62.95610 62.95610 58.46692
#
# Poissons Ratio (x) = 0.40766 0.20816
# Poissons Ratio (y) = 0.40766 0.20816
# Poissons Ratio (z) = 0.22415 0.22415
#
# Static dielectric constant tensor:
#      x y z
#    x 3.658040 0.000000 0.000000 
#    y 0.000000 3.658040 0.000000 
#    z 0.000000 0.000000 3.337350 
# 
# 
# High freq. dielectric constant tensor:
#      x y z
#    x 1.757910 0.000000 0.000000 
#    y 0.000000 1.757910 0.000000 
#    z 0.000000 0.000000 1.733510 
# 
# From -- ./inp_files/1060.got.cif
#   From: 2010.03.12/outbox.cif.g09.slc.cpg/sg169_cif.got.tgz:1060.got - 2010.04.02 06:46:06.
