data_PCOD8324798
_publ_section_title
;
Structure prediction by ZEFSAII (Michael W. Deem and Ramdas Pophale) SiO2 
 PCOD8324798
Probable space group: P 62
;
_chemical_formula_sum "Si O2"
_cell_formula_units_Z 39
_cell_length_a 11.562858
_cell_length_b 11.562858
_cell_length_c 12.734733
_cell_angle_alpha 90.000000
_cell_angle_beta 90.000000
_cell_angle_gamma 120.000000
_cell_volume 1474.520653
_symmetry_space_group_name_H-M "P 62"
_symmetry_group_IT_number 171
_symmetry_cell_setting 'hexagonal'
loop_
_space_group_symop_operation_xyz
x,y,z
x-y,x,1/3+z
-y,x-y,2/3+z
-x,-y,z
-x+y,-x,1/3+z
y,-x+y,2/3+z
loop_
_atom_site_type_symbol
_atom_site_label
_atom_site_fract_x
_atom_site_fract_y
_atom_site_fract_z
Si Si1 0.458554 0.226709 0.944010
Si Si2 0.304012 0.054498 0.553474
Si Si3 0.306898 0.534261 0.041149
Si Si4 0.500000 0.000000 0.938330
Si Si5 0.474683 0.111228 0.348569
Si Si6 0.108639 0.322211 0.559581
Si Si7 0.867072 0.998063 0.082303
O O1 0.313474 0.215477 0.929372
O O2 0.503211 0.201793 0.829912
O O3 0.544043 0.371599 0.996646
O O4 0.474944 0.109061 0.005426
O O5 0.394800 0.159269 0.643666
O O6 0.398981 0.059660 0.459358
O O7 0.200410 0.098797 0.511566
O O8 0.244254 0.629553 0.027506
O O9 0.364661 0.926230 0.867753
O O10 0.387525 0.127271 0.260463
O O11 0.500000 0.000000 0.299636
O O12 0.086827 0.238069 0.454550
O O13 0.019590 0.229302 0.654207
O O14 0.000000 0.000000 0.041625
#
# Coordination Sequence:
#
# PCOD8324798 Si02
#       7
#     6   6   6   3   6   6   6
#     4  12  27  45  74 108 154 197 259 308 395 453
#     4  11  24  44  76 110 147 196 256 318 376 469
#     4  12  23  45  73 108 149 198 245 320 378 461
#     4  12  28  50  66 110 156 200 246 318 384 468
#     4  11  20  43  71 107 147 189 249 305 376 458
#     4  11  26  49  73 112 153 200 257 313 395 463
#     4  11  25  48  78 109 147 201 261 322 386 461
#
# _framework density 26.449273999999999
#
# number of rings (size 3 to 8) (size 9 to 14) (size 15 to 20)
#    0.000    0.615    4.615    2.769    4.308    1.231 
#    9.692    0.000    0.000    0.000    0.000    0.000 
#    0.000    0.000    0.000    0.000    0.000    0.000 
#
# Total GULP energy -483307.179011 kJ/mol
# GULP energy per Si atom -12392.491770 kJ/mol
# Density = 2.638907 g / cm^3
# Si number density = 26.449274 Si / 1000 Ang^3
#
#
#
# Elastic Constant Matrix: (Units=GPa)
#
#
# Indices 1 2 3 4 5 6 
#
# 1 142.4859 25.4386 30.5205 0.0000 0.0000 0.0000
# 2 25.4386 142.4859 30.5205 0.0000 0.0000 0.0000
# 3 30.5205 30.5205 106.1190 0.0000 0.0000 0.0000
# 4 0.0000 0.0000 0.0000 10.2726 0.0000 0.0000
# 5 0.0000 0.0000 0.0000 0.0000 10.2726 0.0000
# 6 0.0000 0.0000 0.0000 0.0000 0.0000 58.5237
#
#
#
# Elastic Compliance Matrix: (Units=1/GPa)
#
#
# Indices 1 2 3 4 5 6 
#
# 1 0.007597 -0.000947 -0.001913 0.000000 0.000000 0.000000
# 2 -0.000947 0.007597 -0.001913 0.000000 0.000000 0.000000
# 3 -0.001913 -0.001913 0.010524 0.000000 0.000000 0.000000
# 4 0.000000 0.000000 0.000000 0.097347 0.000000 0.000000
# 5 0.000000 0.000000 0.000000 0.000000 0.097347 0.000000
# 6 0.000000 0.000000 0.000000 0.000000 0.000000 0.017087
#
#
# Mechanical properties :
#
#
# Convention : Reuss Voigt Hill
#
# Bulk Modulus (GPa) = 61.82945 62.67221 62.25083
# Shear Modulus (GPa) = 19.80723 36.12117 27.96420
#
# Velocity S-wave (km/s) = 2.73953 3.69952 3.25511
# Velocity P-wave (km/s) = 5.78222 6.48037 6.14123
#
# Compressibility (1/GPa) = 0.01617352
#
# Stress axis : x y z
#
# Youngs Moduli (GPa) = 131.63198 131.63198 95.02471
#
# Poissons Ratio (x) = 0.12460 0.18175
# Poissons Ratio (y) = 0.12460 0.18175
# Poissons Ratio (z) = 0.25177 0.25177
#
# Static dielectric constant tensor:
#      x y z
#    x 5.132210 0.000000 0.000000 
#    y 0.000000 5.132210 0.000000 
#    z 0.000000 0.000000 4.498400 
# 
# 
# High freq. dielectric constant tensor:
#      x y z
#    x 2.084570 0.000000 0.000000 
#    y 0.000000 2.084570 0.000000 
#    z 0.000000 0.000000 2.037000 
# 
# From -- ./inp_files/1992.got.cif
#   From: 2010.03.12/outbox.cif.g09.slc.cpg/sg171_1_cif.got.tgz:1992.got - 2010.04.02 06:49:11.
