data_PCOD8324651
_publ_section_title
;
Structure prediction by ZEFSAII (Michael W. Deem and Ramdas Pophale) SiO2 
 PCOD8324651
Probable space group: P 65
;
_chemical_formula_sum "Si O2"
_cell_formula_units_Z 48
_cell_length_a 14.651168
_cell_length_b 14.651168
_cell_length_c 12.937352
_cell_angle_alpha 90.000000
_cell_angle_beta 90.000000
_cell_angle_gamma 120.000000
_cell_volume 2405.030137
_symmetry_space_group_name_H-M "P 65"
_symmetry_group_IT_number 170
_symmetry_cell_setting 'hexagonal'
loop_
_space_group_symop_operation_xyz
x,y,z
x-y,x,5/6+z
-y,x-y,2/3+z
-x,-y,1/2+z
-x+y,-x,1/3+z
y,-x+y,1/6+z
loop_
_atom_site_type_symbol
_atom_site_label
_atom_site_fract_x
_atom_site_fract_y
_atom_site_fract_z
Si Si1 0.662853 0.490162 0.792080
Si Si2 0.854807 0.856222 0.600674
Si Si3 0.189500 0.850261 0.509602
Si Si4 0.386859 0.244670 0.110604
Si Si5 0.306302 0.703905 0.814768
Si Si6 0.438430 0.413004 0.425778
Si Si7 0.576957 0.474379 0.108615
Si Si8 0.519364 0.168193 0.992517
O O1 0.744176 0.601765 0.742583
O O2 0.602316 0.406193 0.700334
O O3 0.728134 0.455291 0.869694
O O4 0.576993 0.503520 0.856803
O O5 0.884928 0.963938 0.660971
O O6 0.885654 0.783907 0.670795
O O7 0.730690 0.788319 0.573807
O O8 0.215020 0.825466 0.395746
O O9 0.294162 0.942726 0.562759
O O10 0.462090 0.369849 0.100091
O O11 0.424333 0.179136 0.039812
O O12 0.212587 0.666052 0.896156
O O13 0.335495 0.614714 0.790299
O O14 0.425725 0.432319 0.545848
O O15 0.556216 0.435087 0.410151
O O16 0.610194 0.516834 0.225005
#
# Coordination Sequence:
#
# PCOD8324651 Si02
#       8
#     6   6   6   6   6   6   6   6
#     4  11  21  35  56  82 122 164 207 247 311 379
#     4  10  23  44  69  94 121 159 220 285 325 367
#     4  11  22  40  61  94 122 163 216 268 317 378
#     4  10  22  39  65  91 125 165 216 269 317 382
#     4  10  20  36  54  80 117 169 201 247 305 377
#     4  11  24  35  57  93 126 165 210 254 321 385
#     4  10  21  37  56  87 131 163 203 254 312 391
#     4  11  21  38  58  89 126 166 205 258 316 377
#
# _framework density 19.958169999999999
#
# number of rings (size 3 to 8) (size 9 to 14) (size 15 to 20)
#    0.000    1.500    3.750    1.500    5.250    1.000 
#    0.000    1.250    0.000    1.500    0.000    0.000 
#    0.000    0.000    0.000    0.000    0.000    0.000 
#
# Total GULP energy -595280.090728 kJ/mol
# GULP energy per Si atom -12401.668557 kJ/mol
# Density = 1.991274 g / cm^3
# Si number density = 19.958170 Si / 1000 Ang^3
#
#
#
# Elastic Constant Matrix: (Units=GPa)
#
#
# Indices 1 2 3 4 5 6 
#
# 1 74.3779 16.7585 26.8362 0.0000 0.0000 0.0000
# 2 16.7585 74.3779 26.8362 0.0000 0.0000 0.0000
# 3 26.8362 26.8362 88.2722 0.0000 0.0000 0.0000
# 4 0.0000 0.0000 0.0000 30.5051 0.0000 0.0000
# 5 0.0000 0.0000 0.0000 0.0000 30.5051 0.0000
# 6 0.0000 0.0000 0.0000 0.0000 0.0000 28.8097
#
#
#
# Elastic Compliance Matrix: (Units=1/GPa)
#
#
# Indices 1 2 3 4 5 6 
#
# 1 0.015360 -0.001995 -0.004063 0.000000 0.000000 0.000000
# 2 -0.001995 0.015360 -0.004063 0.000000 0.000000 0.000000
# 3 -0.004063 -0.004063 0.013799 0.000000 0.000000 0.000000
# 4 0.000000 0.000000 0.000000 0.032781 0.000000 0.000000
# 5 0.000000 0.000000 0.000000 0.000000 0.032781 0.000000
# 6 0.000000 0.000000 0.000000 0.000000 0.000000 0.034711
#
#
# Mechanical properties :
#
#
# Convention : Reuss Voigt Hill
#
# Bulk Modulus (GPa) = 41.19130 41.98777 41.58953
# Shear Modulus (GPa) = 28.88024 29.07048 28.97536
#
# Velocity S-wave (km/s) = 3.80812 3.82064 3.81439
# Velocity P-wave (km/s) = 6.32609 6.36763 6.34689
#
# Compressibility (1/GPa) = 0.02427697
#
# Stress axis : x y z
#
# Youngs Moduli (GPa) = 65.10241 65.10241 72.46772
#
# Poissons Ratio (x) = 0.12987 0.29446
# Poissons Ratio (y) = 0.12987 0.29446
# Poissons Ratio (z) = 0.26453 0.26453
#
# Static dielectric constant tensor:
#      x y z
#    x 3.618150 0.000000 0.000000 
#    y 0.000000 3.618150 0.000000 
#    z 0.000000 0.000000 3.715520 
# 
# 
# High freq. dielectric constant tensor:
#      x y z
#    x 1.766780 0.000000 0.000000 
#    y 0.000000 1.766780 0.000000 
#    z 0.000000 0.000000 1.783350 
# 
# From -- ./inp_files/1077.got.cif
#   From: 2010.03.12/outbox.cif.g09.slc.cpg/sg170_cif.got.tgz:1077.got - 2010.04.02 06:47:37.
