data_PCOD8324183
_publ_section_title
;
Structure prediction by ZEFSAII (Michael W. Deem and Ramdas Pophale) SiO2 
 PCOD8324183
Probable space group: R -3 M
;
_chemical_formula_sum "Si O2"
_cell_formula_units_Z 126
_cell_length_a 24.900478
_cell_length_b 24.900478
_cell_length_c 12.408195
_cell_angle_alpha 90.000000
_cell_angle_beta 90.000000
_cell_angle_gamma 120.000000
_cell_volume 6662.766751
_symmetry_space_group_name_H-M "R -3 M"
_symmetry_group_IT_number 166
_symmetry_cell_setting 'hexagonal'
loop_
_space_group_symop_operation_xyz
x,y,z
-y,x-y,z
-x+y,-x,z
x-y,-y,-z
-x,-x+y,-z
y,x,-z
-x,-y,-z
y,-x+y,-z
x-y,x,-z
-x+y,y,z
x,x-y,z
-y,-x,z
2/3+x,1/3+y,1/3+z
2/3-y,1/3+x-y,1/3+z
2/3-x+y,1/3-x,1/3+z
2/3+x-y,1/3-y,1/3-z
2/3-x,1/3-x+y,1/3-z
2/3+y,1/3+x,1/3-z
2/3-x,1/3-y,1/3-z
2/3+y,1/3-x+y,1/3-z
2/3+x-y,1/3+x,1/3-z
2/3-x+y,1/3+y,1/3+z
2/3+x,1/3+x-y,1/3+z
2/3-y,1/3-x,1/3+z
1/3+x,2/3+y,2/3+z
1/3-y,2/3+x-y,2/3+z
1/3-x+y,2/3-x,2/3+z
1/3+x-y,2/3-y,2/3-z
1/3-x,2/3-x+y,2/3-z
1/3+y,2/3+x,2/3-z
1/3-x,2/3-y,2/3-z
1/3+y,2/3-x+y,2/3-z
1/3+x-y,2/3+x,2/3-z
1/3-x+y,2/3+y,2/3+z
1/3+x,2/3+x-y,2/3+z
1/3-y,2/3-x,2/3+z
loop_
_atom_site_type_symbol
_atom_site_label
_atom_site_fract_x
_atom_site_fract_y
_atom_site_fract_z
Si Si1 0.667358 0.458328 0.645571
Si Si2 0.124919 0.458253 0.166667
Si Si3 0.434905 0.438711 0.879743
Si Si4 0.831417 0.293274 0.439514
O O1 0.719945 0.439890 0.663763
O O2 0.601203 0.398798 0.666897
O O3 0.678780 0.511968 0.728783
O O4 0.670708 0.483396 0.525577
O O5 0.057628 0.450664 0.186871
O O6 0.494139 0.505862 0.888590
O O7 0.381650 0.445797 0.819087
O O8 0.411792 0.411792 0.000000
O O9 0.772543 0.227457 0.409992
O O10 0.855228 0.333334 0.333334
#
# Coordination Sequence:
#
# PCOD8324183 Si02
#       4
#    36  18  36  36
#     4  11  22  37  59  88 123 159 197 241 294 354
#     4  12  22  36  61  88 115 152 198 246 294 352
#     4  10  20  38  59  81 111 152 196 238 289 347
#     4  10  21  39  61  86 119 155 197 243 292 348
#
# _framework density 18.911062999999999
#
# number of rings (size 3 to 8) (size 9 to 14) (size 15 to 20)
#    0.000    1.429    2.857    3.714    0.000    1.143 
#    0.000    1.429    0.000    9.714    0.000    0.000 
#    0.000    0.000    0.000    0.000    0.000    0.000 
#
# Total GULP energy -520959.994170 kJ/mol
# GULP energy per Si atom -12403.809385 kJ/mol
# Density = 1.886802 g / cm^3
# Si number density = 18.911063 Si / 1000 Ang^3
#
#
#
# Elastic Constant Matrix: (Units=GPa)
#
#
# Indices 1 2 3 4 5 6 
#
# 1 85.1123 37.4597 34.5071 -1.0364 -0.0001 0.0000
# 2 37.4597 85.1123 34.5071 1.0364 0.0001 0.0000
# 3 34.5071 34.5071 108.2097 0.0000 0.0003 -0.0001
# 4 -1.0364 1.0364 0.0000 27.7756 0.0000 0.0001
# 5 -0.0001 0.0001 0.0003 0.0000 27.7757 -1.0364
# 6 0.0000 0.0000 -0.0001 0.0001 -1.0364 23.8263
#
#
#
# Elastic Compliance Matrix: (Units=1/GPa)
#
#
# Indices 1 2 3 4 5 6 
#
# 1 0.015482 -0.005538 -0.003171 0.000784 0.000000 0.000000
# 2 -0.005538 0.015482 -0.003171 -0.000784 0.000000 0.000000
# 3 -0.003171 -0.003171 0.011264 0.000000 0.000000 0.000000
# 4 0.000784 -0.000784 0.000000 0.036061 0.000000 0.000000
# 5 0.000000 0.000000 0.000000 0.000000 0.036061 0.001569
# 6 0.000000 0.000000 0.000000 0.000000 0.001569 0.042039
#
#
# Mechanical properties :
#
#
# Convention : Reuss Voigt Hill
#
# Bulk Modulus (GPa) = 54.14928 54.59802 54.37365
# Shear Modulus (GPa) = 26.83793 27.33956 27.08874
#
# Velocity S-wave (km/s) = 3.77127 3.80635 3.78885
# Velocity P-wave (km/s) = 6.90356 6.94632 6.92497
#
# Compressibility (1/GPa) = 0.01846747
#
# Stress axis : x y z
#
# Youngs Moduli (GPa) = 64.59271 64.59269 88.78050
#
# Poissons Ratio (x) = 0.35770 0.28152
# Poissons Ratio (y) = 0.35770 0.28153
# Poissons Ratio (z) = 0.20482 0.20483
#
# Static dielectric constant tensor:
#      x y z
#    x 3.468130 0.000000 0.000000 
#    y 0.000000 3.468130 0.000000 
#    z 0.000000 0.000000 3.444400 
# 
# 
# High freq. dielectric constant tensor:
#      x y z
#    x 1.736240 0.000000 0.000000 
#    y 0.000000 1.736240 0.000000 
#    z 0.000000 0.000000 1.734610 
# 
# From -- ./inp_files/2845.got.cif
#   From: 2010.03.12/outbox.cif.g09.slc.cpg/sg166_2_cif.got.tgz:2845.got - 2010.04.02 06:38:31.
