data_PCOD8324915
_publ_section_title
;
Structure prediction by ZEFSAII (Michael W. Deem and Ramdas Pophale) SiO2 
 PCOD8324915
Probable space group: P -6
;
_chemical_formula_sum "Si O2"
_cell_formula_units_Z 32
_cell_length_a 15.007826
_cell_length_b 15.007826
_cell_length_c 10.220532
_cell_angle_alpha 90.000000
_cell_angle_beta 90.000000
_cell_angle_gamma 120.000000
_cell_volume 1993.607716
_symmetry_space_group_name_H-M "P -6"
_symmetry_group_IT_number 174
_symmetry_cell_setting 'hexagonal'
loop_
_space_group_symop_operation_xyz
x,y,z
-x+y,-x,-z
-y,x-y,z
x,y,-z
-x+y,-x,z
-y,x-y,-z
loop_
_atom_site_type_symbol
_atom_site_label
_atom_site_fract_x
_atom_site_fract_y
_atom_site_fract_z
Si Si1 0.783268 0.566534 0.657676
Si Si2 0.335370 0.868556 0.500000
Si Si3 0.121314 0.455942 0.000000
Si Si4 0.335369 0.466814 0.500000
Si Si5 0.666668 0.333334 0.346111
Si Si6 0.402622 0.392762 0.252321
Si Si7 0.607236 0.597375 0.252321
Si Si8 0.334626 0.455941 0.000000
O O1 0.789557 0.579115 0.500000
O O2 0.724544 0.449073 0.704210
O O3 0.895460 0.617176 0.723414
O O4 0.721714 0.617171 0.723415
O O5 0.219220 0.780781 0.500000
O O6 0.410250 0.820499 0.500000
O O7 0.353731 0.935652 0.373372
O O8 0.226648 0.453298 0.000000
O O9 0.052723 0.395264 0.124393
O O10 0.149520 0.574760 0.000000
O O11 0.353730 0.418080 0.373372
O O12 0.666667 0.333334 0.500000
O O13 0.524502 0.475496 0.242268
O O14 0.342539 0.395263 0.124393
#
# Coordination Sequence:
#
# PCOD8324915 Si02
#       8
#     6   3   3   3   2   6   6   3
#     4  11  18  31  51  79 111 143 173 205 253 304
#     4  10  19  31  48  72 102 134 172 219 263 302
#     4  10  21  37  54  74 106 144 178 213 257 308
#     4  10  19  31  48  72 102 134 172 219 263 302
#     4   9  18  24  51  73 107 157 171 187 251 310
#     4  10  20  32  50  76 105 138 177 213 247 308
#     4  10  20  32  50  76 105 138 177 213 247 308
#     4  10  21  37  54  74 106 144 178 213 257 308
#
# _framework density 16.051303999999998
#
# number of rings (size 3 to 8) (size 9 to 14) (size 15 to 20)
#    0.000    1.875    3.750    1.500    0.000    0.750 
#    0.000    3.750    0.000    0.000    0.000    0.000 
#   37.500    0.000    0.000    0.000    0.000    0.000 
#
# Total GULP energy -396744.562380 kJ/mol
# GULP energy per Si atom -12398.267574 kJ/mol
# Density = 1.601477 g / cm^3
# Si number density = 16.051304 Si / 1000 Ang^3
#
#
#
# Elastic Constant Matrix: (Units=GPa)
#
#
# Indices 1 2 3 4 5 6 
#
# 1 104.3162 51.6005 51.6193 0.0000 0.0000 -0.0003
# 2 51.6005 104.3167 51.6191 0.0000 0.0000 0.0000
# 3 51.6193 51.6191 135.9660 0.0000 0.0000 0.0000
# 4 0.0000 0.0000 0.0000 67.6483 0.0013 0.0000
# 5 0.0000 0.0000 0.0000 0.0013 67.6496 0.0000
# 6 -0.0003 0.0000 0.0000 0.0000 0.0000 26.3576
#
#
#
# Elastic Compliance Matrix: (Units=1/GPa)
#
#
# Indices 1 2 3 4 5 6 
#
# 1 0.013768 -0.005201 -0.003253 0.000000 0.000000 0.000000
# 2 -0.005201 0.013768 -0.003253 0.000000 0.000000 0.000000
# 3 -0.003253 -0.003253 0.009824 0.000000 0.000000 0.000000
# 4 0.000000 0.000000 0.000000 0.014782 0.000000 0.000000
# 5 0.000000 0.000000 0.000000 0.000000 0.014782 0.000000
# 6 0.000000 0.000000 0.000000 0.000000 0.000000 0.037940
#
#
# Mechanical properties :
#
#
# Convention : Reuss Voigt Hill
#
# Bulk Modulus (GPa) = 71.69069 72.69742 72.19405
# Shear Modulus (GPa) = 37.61449 44.98179 41.29814
#
# Velocity S-wave (km/s) = 4.84611 5.29949 5.07786
# Velocity P-wave (km/s) = 8.72201 9.10138 8.91371
#
# Compressibility (1/GPa) = 0.01394881
#
# Stress axis : x y z
#
# Youngs Moduli (GPa) = 72.62958 72.63014 101.78698
#
# Poissons Ratio (x) = 0.37776 0.33107
# Poissons Ratio (y) = 0.37776 0.33107
# Poissons Ratio (z) = 0.23623 0.23623
#
# Static dielectric constant tensor:
#      x y z
#    x 2.936060 0.000000 0.000000 
#    y 0.000000 2.936060 0.000000 
#    z 0.000000 0.000000 3.070980 
# 
# 
# High freq. dielectric constant tensor:
#      x y z
#    x 1.602090 0.000000 0.000000 
#    y 0.000000 1.602090 0.000000 
#    z 0.000000 0.000000 1.626310 
# 
# From -- ./inp_files/713.got.cif
#   From: 2010.03.12/outbox.cif.g09.slc.cpg/sg174_cif.got.tgz:713.got - 2010.04.02 06:54:58.
