data_PCOD8324667
_publ_section_title
;
Structure prediction by ZEFSAII (Michael W. Deem and Ramdas Pophale) SiO2 
 PCOD8324667
Probable space group: P 65
;
_chemical_formula_sum "Si O2"
_cell_formula_units_Z 48
_cell_length_a 17.457860
_cell_length_b 17.457860
_cell_length_c 7.770238
_cell_angle_alpha 90.000000
_cell_angle_beta 90.000000
_cell_angle_gamma 120.000000
_cell_volume 2050.911715
_symmetry_space_group_name_H-M "P 65"
_symmetry_group_IT_number 170
_symmetry_cell_setting 'hexagonal'
loop_
_space_group_symop_operation_xyz
x,y,z
x-y,x,5/6+z
-y,x-y,2/3+z
-x,-y,1/2+z
-x+y,-x,1/3+z
y,-x+y,1/6+z
loop_
_atom_site_type_symbol
_atom_site_label
_atom_site_fract_x
_atom_site_fract_y
_atom_site_fract_z
Si Si1 0.662691 0.981201 0.014670
Si Si2 0.337296 0.318462 0.952946
Si Si3 0.188611 0.678670 0.653524
Si Si4 0.811437 0.489883 0.314077
Si Si5 0.133504 0.969389 0.069155
Si Si6 0.340728 0.851923 0.548799
Si Si7 0.340439 0.488550 0.919067
Si Si8 0.030488 0.866413 0.731914
O O1 0.675774 0.068852 0.110764
O O2 0.745490 0.969190 0.048366
O O3 0.654801 0.999957 0.817115
O O4 0.574068 0.893556 0.079124
O O5 0.254601 0.223561 0.919416
O O6 0.324113 0.392932 0.856636
O O7 0.425966 0.319509 0.888719
O O8 0.198041 0.599019 0.733249
O O9 0.281959 0.769984 0.679195
O O10 0.174154 0.679217 0.450843
O O11 0.826010 0.504186 0.516821
O O12 0.718163 0.488064 0.288668
O O13 0.069873 0.918382 0.230382
O O14 0.084143 0.915758 0.900530
O O15 0.443887 0.887557 0.567981
O O16 0.930030 0.848502 0.737355
#
# Coordination Sequence:
#
# PCOD8324667 Si02
#       8
#     6   6   6   6   6   6   6   6
#     4  10  21  43  66  91 123 171 215 261 316 385
#     4  10  21  43  66  91 123 171 215 261 316 385
#     4  10  22  39  63  94 128 164 215 262 325 376
#     4  10  22  39  63  94 128 164 215 262 325 376
#     4  10  22  43  61  91 128 159 207 262 316 379
#     4  10  22  39  64  93 128 165 217 265 313 390
#     4  10  22  39  64  93 128 165 217 265 313 390
#     4  10  22  43  61  91 128 159 207 262 316 379
#
# _framework density 23.404225
#
# number of rings (size 3 to 8) (size 9 to 14) (size 15 to 20)
#    0.000    2.000    0.000    2.250    3.500    3.000 
#   27.000    0.000    0.000    0.000    0.000    0.000 
#    0.000    0.000    0.000    0.000    0.000    0.000 
#
# Total GULP energy -595001.085271 kJ/mol
# GULP energy per Si atom -12395.855943 kJ/mol
# Density = 2.335096 g / cm^3
# Si number density = 23.404225 Si / 1000 Ang^3
#
#
#
# Elastic Constant Matrix: (Units=GPa)
#
#
# Indices 1 2 3 4 5 6 
#
# 1 207.6582 102.1058 23.4118 0.0000 0.0000 0.0000
# 2 102.1058 207.6582 23.4118 0.0000 0.0000 0.0000
# 3 23.4118 23.4118 19.0391 0.0000 0.0000 0.0000
# 4 0.0000 0.0000 0.0000 -3.1116 0.0000 0.0000
# 5 0.0000 0.0000 0.0000 0.0000 -3.1116 0.0000
# 6 0.0000 0.0000 0.0000 0.0000 0.0000 52.7762
#
#
#
# Elastic Compliance Matrix: (Units=1/GPa)
#
#
# Indices 1 2 3 4 5 6 
#
# 1 0.006720 -0.002754 -0.004876 0.000000 0.000000 0.000000
# 2 -0.002754 0.006720 -0.004876 0.000000 0.000000 0.000000
# 3 -0.004876 -0.004876 0.064515 0.000000 0.000000 0.000000
# 4 0.000000 0.000000 0.000000 -0.321377 0.000000 0.000000
# 5 0.000000 0.000000 0.000000 0.000000 -0.321377 0.000000
# 6 0.000000 0.000000 0.000000 0.000000 0.000000 0.018948
#
#
# Mechanical properties :
#
#
# Convention : Reuss Voigt Hill
#
# Bulk Modulus (GPa) = 18.88867 81.35716 50.12292
# Shear Modulus (GPa) = -9.93658 28.33898 9.20120
#
# Velocity S-wave (km/s) = -2.06273 3.48350 1.98493
# Velocity P-wave (km/s) = 1.55403 7.14261 5.16875
#
# Compressibility (1/GPa) = 0.05294179
#
# Stress axis : x y z
#
# Youngs Moduli (GPa) = 148.81730 148.81730 15.50019
#
# Poissons Ratio (x) = 0.40989 0.07558
# Poissons Ratio (y) = 0.40989 0.07558
# Poissons Ratio (z) = 0.72564 0.72564
#
# Static dielectric constant tensor:
#      x y z
#    x 4.566140 0.000000 0.000000 
#    y 0.000000 4.566140 0.000000 
#    z 0.000000 0.000000 4.172730 
# 
# 
# High freq. dielectric constant tensor:
#      x y z
#    x 1.940620 0.000000 0.000000 
#    y 0.000000 1.940620 0.000000 
#    z 0.000000 0.000000 1.906910 
# 
# From -- ./inp_files/742.got.cif
#   From: 2010.03.12/outbox.cif.g09.slc.cpg/sg170_cif.got.tgz:742.got - 2010.04.02 06:47:37.
