data_PCOD8324145
_publ_section_title
;
Structure prediction by ZEFSAII (Michael W. Deem and Ramdas Pophale) SiO2 
 PCOD8324145
Probable space group: R -3 M
;
_chemical_formula_sum "Si O2"
_cell_formula_units_Z 252
_cell_length_a 29.843818
_cell_length_b 29.843818
_cell_length_c 17.303463
_cell_angle_alpha 90.000000
_cell_angle_beta 90.000000
_cell_angle_gamma 120.000000
_cell_volume 13346.654739
_symmetry_space_group_name_H-M "R -3 M"
_symmetry_group_IT_number 166
_symmetry_cell_setting 'hexagonal'
loop_
_space_group_symop_operation_xyz
x,y,z
-y,x-y,z
-x+y,-x,z
x-y,-y,-z
-x,-x+y,-z
y,x,-z
-x,-y,-z
y,-x+y,-z
x-y,x,-z
-x+y,y,z
x,x-y,z
-y,-x,z
2/3+x,1/3+y,1/3+z
2/3-y,1/3+x-y,1/3+z
2/3-x+y,1/3-x,1/3+z
2/3+x-y,1/3-y,1/3-z
2/3-x,1/3-x+y,1/3-z
2/3+y,1/3+x,1/3-z
2/3-x,1/3-y,1/3-z
2/3+y,1/3-x+y,1/3-z
2/3+x-y,1/3+x,1/3-z
2/3-x+y,1/3+y,1/3+z
2/3+x,1/3+x-y,1/3+z
2/3-y,1/3-x,1/3+z
1/3+x,2/3+y,2/3+z
1/3-y,2/3+x-y,2/3+z
1/3-x+y,2/3-x,2/3+z
1/3+x-y,2/3-y,2/3-z
1/3-x,2/3-x+y,2/3-z
1/3+y,2/3+x,2/3-z
1/3-x,2/3-y,2/3-z
1/3+y,2/3-x+y,2/3-z
1/3+x-y,2/3+x,2/3-z
1/3-x+y,2/3+y,2/3+z
1/3+x,2/3+x-y,2/3+z
1/3-y,2/3-x,2/3+z
loop_
_atom_site_type_symbol
_atom_site_label
_atom_site_fract_x
_atom_site_fract_y
_atom_site_fract_z
Si Si1 0.852598 0.802956 0.595236
Si Si2 0.168815 0.441096 0.520189
Si Si3 0.951407 0.564982 0.630712
Si Si4 0.112988 0.606247 0.241260
Si Si5 0.113934 0.385168 0.377533
Si Si6 0.388795 0.510375 0.496345
Si Si7 0.479362 0.059711 0.348572
O O1 0.914892 0.829783 0.600964
O O2 0.835683 0.846312 0.594656
O O3 0.832303 0.768753 0.516829
O O4 0.826963 0.765860 0.666827
O O5 0.229566 0.459132 0.520494
O O6 0.136612 0.391161 0.464061
O O7 0.163271 0.490419 0.491797
O O8 0.143853 0.422275 0.604947
O O9 0.932746 0.542474 0.716595
O O10 0.937860 0.610442 0.618176
O O11 0.923651 0.520588 0.566075
O O12 0.012777 0.589569 0.628246
O O13 0.115680 0.557840 0.273928
O O14 0.102574 0.333334 0.333334
O O15 0.427526 0.572475 0.481355
O O16 0.398617 0.498357 0.582190
O O17 0.519140 0.038279 0.335108
#
# Coordination Sequence:
#
# PCOD8324145 Si02
#       7
#    36  36  36  36  36  36  36
#     4   9  18  31  48  68  95 129 164 203 246 297
#     4  10  22  37  54  78 106 137 174 215 260 311
#     4  10  20  34  52  76 103 132 174 213 254 298
#     4   9  17  30  49  72  95 123 163 208 250 294
#     4  10  22  36  49  72 103 140 173 207 253 302
#     4  10  20  36  57  78 103 136 173 214 262 312
#     4  10  20  34  54  78 104 135 173 215 257 306
#
# _framework density 18.881135
#
# number of rings (size 3 to 8) (size 9 to 14) (size 15 to 20)
#    0.000    2.286    0.000    2.571    2.000    3.429 
#    0.000    1.429    0.000    0.571    0.000    2.000 
#    0.000   10.286    0.000    0.286    0.000    1.143 
#
# Total GULP energy -1041152.564798 kJ/mol
# GULP energy per Si atom -12394.673390 kJ/mol
# Density = 1.883816 g / cm^3
# Si number density = 18.881135 Si / 1000 Ang^3
#
#
#
# Elastic Constant Matrix: (Units=GPa)
#
#
# Indices 1 2 3 4 5 6 
#
# 1 64.1112 23.1528 6.9664 -0.9258 0.0000 0.0000
# 2 23.1528 64.1112 6.9664 0.9258 0.0000 0.0000
# 3 6.9664 6.9664 84.5215 0.0000 0.0000 0.0000
# 4 -0.9258 0.9258 0.0000 21.8489 0.0000 0.0000
# 5 0.0000 0.0000 0.0000 0.0000 21.8489 -0.9258
# 6 0.0000 0.0000 0.0000 0.0000 -0.9258 20.4792
#
#
#
# Elastic Compliance Matrix: (Units=1/GPa)
#
#
# Indices 1 2 3 4 5 6 
#
# 1 0.018037 -0.006425 -0.000957 0.001037 0.000000 0.000000
# 2 -0.006425 0.018037 -0.000957 -0.001037 0.000000 0.000000
# 3 -0.000957 -0.000957 0.011989 0.000000 0.000000 0.000000
# 4 0.001037 -0.001037 0.000000 0.045857 0.000000 0.000000
# 5 0.000000 0.000000 0.000000 0.000000 0.045857 0.002073
# 6 0.000000 0.000000 0.000000 0.000000 0.002073 0.048924
#
#
# Mechanical properties :
#
#
# Convention : Reuss Voigt Hill
#
# Bulk Modulus (GPa) = 31.86210 31.87945 31.87078
# Shear Modulus (GPa) = 23.16531 24.54597 23.85564
#
# Velocity S-wave (km/s) = 3.50652 3.60950 3.55838
# Velocity P-wave (km/s) = 5.77113 5.85596 5.81370
#
# Compressibility (1/GPa) = 0.03138525
#
# Stress axis : x y z
#
# Youngs Moduli (GPa) = 55.44139 55.44139 83.40920
#
# Poissons Ratio (x) = 0.35620 0.07983
# Poissons Ratio (y) = 0.35620 0.07983
# Poissons Ratio (z) = 0.05306 0.05306
#
# Static dielectric constant tensor:
#      x y z
#    x 3.407120 0.000000 0.000000 
#    y 0.000000 3.407120 0.000000 
#    z 0.000000 0.000000 3.698350 
# 
# 
# High freq. dielectric constant tensor:
#      x y z
#    x 1.709870 0.000000 0.000000 
#    y 0.000000 1.709870 0.000000 
#    z 0.000000 0.000000 1.759100 
# 
# From -- ./inp_files/5853.got.cif
#   From: 2010.03.12/outbox.cif.g09.slc.cpg/sg166_3_cif.got.tgz:5853.got - 2010.04.02 06:38:31.
