data_PCOD8324588
_publ_section_title
;
Structure prediction by ZEFSAII (Michael W. Deem and Ramdas Pophale) SiO2 
 PCOD8324588
Probable space group: P 61
;
_chemical_formula_sum "Si O2"
_cell_formula_units_Z 48
_cell_length_a 11.492916
_cell_length_b 11.492916
_cell_length_c 19.174709
_cell_angle_alpha 90.000000
_cell_angle_beta 90.000000
_cell_angle_gamma 120.000000
_cell_volume 2193.410300
_symmetry_space_group_name_H-M "P 61"
_symmetry_group_IT_number 169
_symmetry_cell_setting 'hexagonal'
loop_
_space_group_symop_operation_xyz
x,y,z
x-y,x,1/6+z
-y,x-y,1/3+z
-x,-y,1/2+z
-x+y,-x,2/3+z
y,-x+y,5/6+z
loop_
_atom_site_type_symbol
_atom_site_label
_atom_site_fract_x
_atom_site_fract_y
_atom_site_fract_z
Si Si1 0.797212 0.265497 0.413270
Si Si2 0.938158 0.271030 0.890820
Si Si3 0.202894 0.475306 0.945964
Si Si4 0.262338 0.008064 0.324273
Si Si5 0.717041 0.029607 0.667557
Si Si6 0.378863 0.572218 0.821664
Si Si7 0.487378 0.058204 0.425200
Si Si8 0.210969 0.692433 0.763981
O O1 0.850573 0.422039 0.429320
O O2 0.640136 0.175824 0.428499
O O3 0.826110 0.246464 0.331671
O O4 0.882815 0.226886 0.465403
O O5 0.862058 0.116393 0.864404
O O6 0.854296 0.282925 0.953652
O O7 0.943610 0.371116 0.832615
O O8 0.091260 0.326469 0.917932
O O9 0.344805 0.537444 0.904353
O O10 0.213413 0.465697 0.029474
O O11 0.293936 0.966785 0.250613
O O12 0.227643 0.126135 0.312938
O O13 0.401759 0.082301 0.367029
O O14 0.638460 0.103011 0.638353
O O15 0.333582 0.674110 0.791045
O O16 0.471423 0.916043 0.406376
#
# Coordination Sequence:
#
# PCOD8324588 Si02
#       8
#     6   6   6   6   6   6   6   6
#     4  11  26  40  68 103 143 185 232 294 359 419
#     4  12  22  43  69 103 146 184 232 298 359 420
#     4  11  23  40  68 105 143 186 231 295 357 430
#     4  12  26  44  71 106 141 188 246 292 357 437
#     4  12  27  43  73 102 140 191 239 301 353 433
#     4  11  22  40  67 104 144 182 239 287 362 419
#     4  12  23  44  68 105 145 181 231 299 362 416
#     4  11  23  40  66 102 146 185 230 294 363 426
#
# _framework density 21.883728999999999
#
# number of rings (size 3 to 8) (size 9 to 14) (size 15 to 20)
#    0.000    0.500    6.250    3.000    7.000    1.000 
#    0.000    0.000    2.750    0.000    0.000    0.000 
#    0.000    0.000    0.000    0.000    0.000    0.000 
#
# Total GULP energy -594992.361145 kJ/mol
# GULP energy per Si atom -12395.674191 kJ/mol
# Density = 2.183392 g / cm^3
# Si number density = 21.883729 Si / 1000 Ang^3
#
#
#
# Elastic Constant Matrix: (Units=GPa)
#
#
# Indices 1 2 3 4 5 6 
#
# 1 133.3922 5.2126 31.9688 0.0000 0.0000 0.0000
# 2 5.2126 133.3922 31.9688 0.0000 0.0000 0.0000
# 3 31.9688 31.9688 130.4063 0.0000 0.0000 0.0000
# 4 0.0000 0.0000 0.0000 30.8343 0.0000 0.0000
# 5 0.0000 0.0000 0.0000 0.0000 30.8343 0.0000
# 6 0.0000 0.0000 0.0000 0.0000 0.0000 64.0898
#
#
#
# Elastic Compliance Matrix: (Units=1/GPa)
#
#
# Indices 1 2 3 4 5 6 
#
# 1 0.007968 0.000167 -0.001994 0.000000 0.000000 0.000000
# 2 0.000167 0.007968 -0.001994 0.000000 0.000000 0.000000
# 3 -0.001994 -0.001994 0.008646 0.000000 0.000000 0.000000
# 4 0.000000 0.000000 0.000000 0.032431 0.000000 0.000000
# 5 0.000000 0.000000 0.000000 0.000000 0.032431 0.000000
# 6 0.000000 0.000000 0.000000 0.000000 0.000000 0.015603
#
#
# Mechanical properties :
#
#
# Convention : Reuss Voigt Hill
#
# Bulk Modulus (GPa) = 59.03663 59.49904 59.26784
# Shear Modulus (GPa) = 42.25179 47.02103 44.63641
#
# Velocity S-wave (km/s) = 4.39879 4.64041 4.52121
# Velocity P-wave (km/s) = 7.26877 7.48057 7.37543
#
# Compressibility (1/GPa) = 0.01693863
#
# Stress axis : x y z
#
# Youngs Moduli (GPa) = 125.50027 125.50027 115.65927
#
# Poissons Ratio (x) = -0.02090 0.23065
# Poissons Ratio (y) = -0.02090 0.23065
# Poissons Ratio (z) = 0.25027 0.25027
#
# Static dielectric constant tensor:
#      x y z
#    x 3.928230 0.000000 0.000000 
#    y 0.000000 3.928230 0.000000 
#    z 0.000000 0.000000 4.242620 
# 
# 
# High freq. dielectric constant tensor:
#      x y z
#    x 1.841770 0.000000 0.000000 
#    y 0.000000 1.841770 0.000000 
#    z 0.000000 0.000000 1.879450 
# 
# From -- ./inp_files/1419.got.cif
#   From: 2010.03.12/outbox.cif.g09.slc.cpg/sg169_cif.got.tgz:1419.got - 2010.04.02 06:46:06.
