data_PCOD8324807
_publ_section_title
;
Structure prediction by ZEFSAII (Michael W. Deem and Ramdas Pophale) SiO2 
 PCOD8324807
Probable space group: P 62
;
_chemical_formula_sum "Si O2"
_cell_formula_units_Z 39
_cell_length_a 18.521972
_cell_length_b 18.521972
_cell_length_c 6.478433
_cell_angle_alpha 90.000000
_cell_angle_beta 90.000000
_cell_angle_gamma 120.000000
_cell_volume 1924.753199
_symmetry_space_group_name_H-M "P 62"
_symmetry_group_IT_number 171
_symmetry_cell_setting 'hexagonal'
loop_
_space_group_symop_operation_xyz
x,y,z
x-y,x,1/3+z
-y,x-y,2/3+z
-x,-y,z
-x+y,-x,1/3+z
y,-x+y,2/3+z
loop_
_atom_site_type_symbol
_atom_site_label
_atom_site_fract_x
_atom_site_fract_y
_atom_site_fract_z
Si Si1 0.500000 0.500000 0.299230
Si Si2 0.210218 0.458279 0.192393
Si Si3 0.787199 0.111947 0.198963
Si Si4 0.532985 0.872801 0.173631
Si Si5 0.365335 0.624484 0.701061
Si Si6 0.695995 0.955191 0.443732
Si Si7 0.624496 0.675682 0.133263
O O1 0.563751 0.490339 0.447001
O O2 0.550564 0.581161 0.158188
O O3 0.289347 0.457921 0.295135
O O4 0.136914 0.410540 0.351093
O O5 0.182686 0.410450 0.973239
O O6 0.226496 0.551408 0.168267
O O7 0.883032 0.162285 0.122213
O O8 0.775404 0.039690 0.357562
O O9 0.721536 0.064259 0.017390
O O10 0.472201 0.808336 0.343686
O O11 0.620797 0.929172 0.283312
O O12 0.376015 0.663921 0.477253
O O13 0.674235 0.975674 0.670741
#
# Coordination Sequence:
#
# PCOD8324807 Si02
#       7
#     3   6   6   6   6   6   6
#     4  12  26  38  64  92 130 176 234 282 332 386
#     4  11  25  42  66  89 135 178 229 284 332 403
#     4  11  23  46  68 100 128 171 217 272 344 416
#     4  12  25  42  63  93 135 179 228 288 338 401
#     4  12  26  41  60  88 124 183 235 283 333 382
#     4  11  25  43  70  97 134 171 216 280 341 411
#     4  11  25  43  67  97 131 177 225 282 337 404
#
# _framework density 20.262336000000001
#
# number of rings (size 3 to 8) (size 9 to 14) (size 15 to 20)
#    0.000    0.615    4.615    2.769    8.615    0.000 
#    0.000    0.000    0.000    0.000    0.000    5.385 
#    0.000    0.000    0.000    0.000    0.000    0.000 
#
# Total GULP energy -483638.196491 kJ/mol
# GULP energy per Si atom -12400.979397 kJ/mol
# Density = 2.021622 g / cm^3
# Si number density = 20.262336 Si / 1000 Ang^3
#
#
#
# Elastic Constant Matrix: (Units=GPa)
#
#
# Indices 1 2 3 4 5 6 
#
# 1 106.2458 37.6592 37.1765 0.0000 0.0000 0.0000
# 2 37.6592 106.2458 37.1765 0.0000 0.0000 0.0000
# 3 37.1765 37.1765 97.2501 0.0000 0.0000 0.0000
# 4 0.0000 0.0000 0.0000 37.0520 0.0000 0.0000
# 5 0.0000 0.0000 0.0000 0.0000 37.0520 0.0000
# 6 0.0000 0.0000 0.0000 0.0000 0.0000 34.2933
#
#
#
# Elastic Compliance Matrix: (Units=1/GPa)
#
#
# Indices 1 2 3 4 5 6 
#
# 1 0.011620 -0.002960 -0.003310 0.000000 0.000000 0.000000
# 2 -0.002960 0.011620 -0.003310 0.000000 0.000000 0.000000
# 3 -0.003310 -0.003310 0.012814 0.000000 0.000000 0.000000
# 4 0.000000 0.000000 0.000000 0.026989 0.000000 0.000000
# 5 0.000000 0.000000 0.000000 0.000000 0.026989 0.000000
# 6 0.000000 0.000000 0.000000 0.000000 0.000000 0.029160
#
#
# Mechanical properties :
#
#
# Convention : Reuss Voigt Hill
#
# Bulk Modulus (GPa) = 59.20208 59.30732 59.25470
# Shear Modulus (GPa) = 34.72611 34.86143 34.79377
#
# Velocity S-wave (km/s) = 4.14433 4.15240 4.14836
# Velocity P-wave (km/s) = 7.22370 7.23347 7.22859
#
# Compressibility (1/GPa) = 0.01689130
#
# Stress axis : x y z
#
# Youngs Moduli (GPa) = 86.06031 86.06031 78.04168
#
# Poissons Ratio (x) = 0.25477 0.25834
# Poissons Ratio (y) = 0.25477 0.25834
# Poissons Ratio (z) = 0.28488 0.28488
#
# Static dielectric constant tensor:
#      x y z
#    x 3.688820 0.000000 0.000000 
#    y 0.000000 3.688820 0.000000 
#    z 0.000000 0.000000 3.849060 
# 
# 
# High freq. dielectric constant tensor:
#      x y z
#    x 1.785180 0.000000 0.000000 
#    y 0.000000 1.785180 0.000000 
#    z 0.000000 0.000000 1.806230 
# 
# From -- ./inp_files/769.got.cif
#   From: 2010.03.12/outbox.cif.g09.slc.cpg/sg171_1_cif.got.tgz:769.got - 2010.04.02 06:49:11.
