data_PCOD8324010
_publ_section_title
;
Structure prediction by ZEFSAII (Michael W. Deem and Ramdas Pophale) SiO2 
 PCOD8324010
Probable space group: R -3 M
;
_chemical_formula_sum "Si O2"
_cell_formula_units_Z 216
_cell_length_a 26.722508
_cell_length_b 26.722508
_cell_length_c 22.666649
_cell_angle_alpha 90.000000
_cell_angle_beta 90.000000
_cell_angle_gamma 120.000000
_cell_volume 14017.558677
_symmetry_space_group_name_H-M "R -3 M"
_symmetry_group_IT_number 166
_symmetry_cell_setting 'hexagonal'
loop_
_space_group_symop_operation_xyz
x,y,z
-y,x-y,z
-x+y,-x,z
x-y,-y,-z
-x,-x+y,-z
y,x,-z
-x,-y,-z
y,-x+y,-z
x-y,x,-z
-x+y,y,z
x,x-y,z
-y,-x,z
2/3+x,1/3+y,1/3+z
2/3-y,1/3+x-y,1/3+z
2/3-x+y,1/3-x,1/3+z
2/3+x-y,1/3-y,1/3-z
2/3-x,1/3-x+y,1/3-z
2/3+y,1/3+x,1/3-z
2/3-x,1/3-y,1/3-z
2/3+y,1/3-x+y,1/3-z
2/3+x-y,1/3+x,1/3-z
2/3-x+y,1/3+y,1/3+z
2/3+x,1/3+x-y,1/3+z
2/3-y,1/3-x,1/3+z
1/3+x,2/3+y,2/3+z
1/3-y,2/3+x-y,2/3+z
1/3-x+y,2/3-x,2/3+z
1/3+x-y,2/3-y,2/3-z
1/3-x,2/3-x+y,2/3-z
1/3+y,2/3+x,2/3-z
1/3-x,2/3-y,2/3-z
1/3+y,2/3-x+y,2/3-z
1/3+x-y,2/3+x,2/3-z
1/3-x+y,2/3+y,2/3+z
1/3+x,2/3+x-y,2/3+z
1/3-y,2/3-x,2/3+z
loop_
_atom_site_type_symbol
_atom_site_label
_atom_site_fract_x
_atom_site_fract_y
_atom_site_fract_z
Si Si1 0.253750 0.315562 0.479588
Si Si2 0.886350 0.999832 0.739605
Si Si3 0.941233 0.584215 0.978926
Si Si4 0.728616 0.573980 0.573055
Si Si5 0.219905 0.553320 0.266987
Si Si6 0.065290 0.242063 0.582281
O O1 0.307219 0.307219 0.500000
O O2 0.228524 0.286008 0.416426
O O3 0.277489 0.384346 0.474964
O O4 0.200909 0.281784 0.524571
O O5 0.875332 0.937666 0.761422
O O6 0.876875 0.000459 0.669981
O O7 0.841085 0.014503 0.772230
O O8 0.951852 0.048149 0.755546
O O9 0.891205 0.600096 0.967851
O O10 0.923265 0.534489 0.026868
O O11 0.000000 0.641561 0.000000
O O12 0.792213 0.584426 0.566577
O O13 0.270562 0.541124 0.244739
O O14 0.239022 0.619511 0.251578
O O15 0.158743 0.509489 0.235603
O O16 0.122712 0.245423 0.607532
#
# Coordination Sequence:
#
# PCOD8324010 Si02
#       6
#    36  36  36  36  36  36
#     4   9  19  32  42  58  84 113 141 180 228 259
#     4   9  16  26  42  65  90 113 138 173 215 257
#     4   9  18  30  42  58  81 107 138 178 222 255
#     4  10  18  28  45  65  83 108 145 183 218 259
#     4   9  16  26  41  61  87 115 145 175 208 247
#     4  10  18  29  44  62  84 110 141 174 214 265
#
# _framework density 15.409246
#
# number of rings (size 3 to 8) (size 9 to 14) (size 15 to 20)
#    0.000    2.667    1.667    0.833    0.000    5.000 
#    0.000   10.833    0.000    0.500    0.000    3.500 
#    0.000   32.667    0.000    0.000    0.000    0.000 
#
# Total GULP energy -892120.930217 kJ/mol
# GULP energy per Si atom -12390.568475 kJ/mol
# Density = 1.537417 g / cm^3
# Si number density = 15.409246 Si / 1000 Ang^3
#
#
#
# Elastic Constant Matrix: (Units=GPa)
#
#
# Indices 1 2 3 4 5 6 
#
# 1 115.1067 65.8131 31.4962 3.7823 0.0000 0.0000
# 2 65.8131 115.1067 31.4962 -3.7823 0.0000 0.0000
# 3 31.4962 31.4962 31.9259 0.0000 0.0000 0.0000
# 4 3.7823 -3.7823 0.0000 17.2989 0.0000 0.0000
# 5 0.0000 0.0000 0.0000 0.0000 17.2989 3.7823
# 6 0.0000 0.0000 0.0000 0.0000 3.7823 24.6468
#
#
#
# Elastic Compliance Matrix: (Units=1/GPa)
#
#
# Indices 1 2 3 4 5 6 
#
# 1 0.014705 -0.006286 -0.008306 -0.004589 0.000000 0.000000
# 2 -0.006286 0.014705 -0.008306 0.004589 0.000000 0.000000
# 3 -0.008306 -0.008306 0.047711 0.000000 0.000000 0.000000
# 4 -0.004589 0.004589 0.000000 0.059814 0.000000 0.000000
# 5 0.000000 0.000000 0.000000 0.000000 0.059814 -0.009179
# 6 0.000000 0.000000 0.000000 0.000000 -0.009179 0.041982
#
#
# Mechanical properties :
#
#
# Convention : Reuss Voigt Hill
#
# Bulk Modulus (GPa) = 31.92281 57.75002 44.83641
# Shear Modulus (GPa) = 16.95101 20.73786 18.84444
#
# Velocity S-wave (km/s) = 3.32031 3.67250 3.50084
# Velocity P-wave (km/s) = 5.95490 7.45264 6.74547
#
# Compressibility (1/GPa) = 0.03132556
#
# Stress axis : x y z
#
# Youngs Moduli (GPa) = 68.00374 68.00374 20.95965
#
# Poissons Ratio (x) = 0.42746 0.17409
# Poissons Ratio (y) = 0.42746 0.17409
# Poissons Ratio (z) = 0.56483 0.56483
#
# Static dielectric constant tensor:
#      x y z
#    x 3.116440 0.000000 0.000000 
#    y 0.000000 3.116440 0.000000 
#    z 0.000000 0.000000 2.684950 
# 
# 
# High freq. dielectric constant tensor:
#      x y z
#    x 1.587570 0.000000 0.000000 
#    y 0.000000 1.587570 0.000000 
#    z 0.000000 0.000000 1.543160 
# 
# From -- ./inp_files/7121.got.cif
#   From: 2010.03.12/outbox.cif.g09.slc.cpg/sg166_4_cif.got.tgz:7121.got - 2010.04.02 06:38:31.
