data_PCOD8324969
_publ_section_title
;
Structure prediction by ZEFSAII (Michael W. Deem and Ramdas Pophale) SiO2 
 PCOD8324969
Probable space group: P -6
;
_chemical_formula_sum "Si O2"
_cell_formula_units_Z 15
_cell_length_a 8.635073
_cell_length_b 8.635073
_cell_length_c 10.928612
_cell_angle_alpha 90.000000
_cell_angle_beta 90.000000
_cell_angle_gamma 120.000000
_cell_volume 705.712266
_symmetry_space_group_name_H-M "P -6"
_symmetry_group_IT_number 174
_symmetry_cell_setting 'hexagonal'
loop_
_space_group_symop_operation_xyz
x,y,z
-x+y,-x,-z
-y,x-y,z
x,y,-z
-x+y,-x,z
-y,x-y,-z
loop_
_atom_site_type_symbol
_atom_site_label
_atom_site_fract_x
_atom_site_fract_y
_atom_site_fract_z
Si Si1 0.185870 0.209900 0.500000
Si Si2 0.670084 0.991174 0.238380
Si Si3 0.661685 0.655177 0.857630
O O1 0.287321 0.327480 0.617238
O O2 0.185918 0.021217 0.500000
O O3 0.612792 0.809186 0.165102
O O4 0.525278 0.050836 0.212643
O O5 0.864684 0.140577 0.193177
O O6 0.651924 0.610776 0.000000
#
# Coordination Sequence:
#
# PCOD8324969 Si02
#       3
#     3   6   6
#     4  10  20  46  72 100 136 174 236 278 338 424
#     4  12  25  43  72  98 140 183 225 287 340 399
#     4  12  24  43  66 102 139 183 231 279 340 407
#
# _framework density 21.255120000000002
#
# number of rings (size 3 to 8) (size 9 to 14) (size 15 to 20)
#    0.400    0.000    4.000    6.000    0.000    3.200 
#    0.000    0.000    0.000    0.000    0.000    0.000 
#    0.000    0.000    0.000    0.000    0.000    0.000 
#
# Total GULP energy -186133.843938 kJ/mol
# GULP energy per Si atom -12408.922929 kJ/mol
# Density = 2.120674 g / cm^3
# Si number density = 21.255120 Si / 1000 Ang^3
#
#
#
# Elastic Constant Matrix: (Units=GPa)
#
#
# Indices 1 2 3 4 5 6 
#
# 1 83.9885 6.3683 26.6082 0.0000 0.0000 0.0000
# 2 6.3683 83.9885 26.6082 0.0000 0.0000 0.0000
# 3 26.6082 26.6082 126.5201 0.0000 0.0000 0.0000
# 4 0.0000 0.0000 0.0000 29.8329 0.0000 0.0000
# 5 0.0000 0.0000 0.0000 0.0000 29.8329 0.0000
# 6 0.0000 0.0000 0.0000 0.0000 0.0000 38.8101
#
#
#
# Elastic Compliance Matrix: (Units=1/GPa)
#
#
# Indices 1 2 3 4 5 6 
#
# 1 0.012758 -0.000126 -0.002657 0.000000 0.000000 0.000000
# 2 -0.000126 0.012758 -0.002657 0.000000 0.000000 0.000000
# 3 -0.002657 -0.002657 0.009021 0.000000 0.000000 0.000000
# 4 0.000000 0.000000 0.000000 0.033520 0.000000 0.000000
# 5 0.000000 0.000000 0.000000 0.000000 0.033520 0.000000
# 6 0.000000 0.000000 0.000000 0.000000 0.000000 0.025766
#
#
# Mechanical properties :
#
#
# Convention : Reuss Voigt Hill
#
# Bulk Modulus (GPa) = 42.26781 45.96294 44.11538
# Shear Modulus (GPa) = 34.22151 35.35600 34.78876
#
# Velocity S-wave (km/s) = 4.01688 4.08292 4.05003
# Velocity P-wave (km/s) = 6.43761 6.62558 6.53227
#
# Compressibility (1/GPa) = 0.02365866
#
# Stress axis : x y z
#
# Youngs Moduli (GPa) = 78.38499 78.38499 110.84901
#
# Poissons Ratio (x) = 0.00985 0.29448
# Poissons Ratio (y) = 0.00985 0.29448
# Poissons Ratio (z) = 0.20824 0.20824
#
# Static dielectric constant tensor:
#      x y z
#    x 3.665250 0.000000 0.000000 
#    y 0.000000 3.665250 0.000000 
#    z 0.000000 0.000000 3.810700 
# 
# 
# High freq. dielectric constant tensor:
#      x y z
#    x 1.831410 0.000000 0.000000 
#    y 0.000000 1.831410 0.000000 
#    z 0.000000 0.000000 1.847490 
# 
# From -- ./inp_files/593.got.cif
#   From: 2010.03.12/outbox.cif.g09.slc.cpg/sg174_cif.got.tgz:593.got - 2010.04.02 06:54:58.
