data_PCOD8324550
_publ_section_title
;
Structure prediction by ZEFSAII (Michael W. Deem and Ramdas Pophale) SiO2 
 PCOD8324550
Probable space group: P 61
;
_chemical_formula_sum "Si O2"
_cell_formula_units_Z 48
_cell_length_a 14.433533
_cell_length_b 14.433533
_cell_length_c 12.614181
_cell_angle_alpha 90.000000
_cell_angle_beta 90.000000
_cell_angle_gamma 120.000000
_cell_volume 2275.804695
_symmetry_space_group_name_H-M "P 61"
_symmetry_group_IT_number 169
_symmetry_cell_setting 'hexagonal'
loop_
_space_group_symop_operation_xyz
x,y,z
x-y,x,1/6+z
-y,x-y,1/3+z
-x,-y,1/2+z
-x+y,-x,2/3+z
y,-x+y,5/6+z
loop_
_atom_site_type_symbol
_atom_site_label
_atom_site_fract_x
_atom_site_fract_y
_atom_site_fract_z
Si Si1 0.597489 0.136462 0.945080
Si Si2 0.365842 0.008433 0.590863
Si Si3 0.013542 0.854316 0.090709
Si Si4 0.465008 0.711534 0.557455
Si Si5 0.842007 0.982393 0.087158
Si Si6 0.448863 0.967665 0.791249
Si Si7 0.724758 0.503196 0.126708
Si Si8 0.865675 0.276366 0.575502
O O1 0.689291 0.175025 0.856638
O O2 0.489479 0.039735 0.896392
O O3 0.578559 0.231717 0.979370
O O4 0.636781 0.096831 0.045231
O O5 0.431392 0.106644 0.513641
O O6 0.244688 0.981421 0.604825
O O7 0.423597 0.033433 0.704506
O O8 0.914172 0.794702 0.173328
O O9 0.098191 0.968739 0.144748
O O10 0.062676 0.778871 0.071848
O O11 0.519185 0.659932 0.485504
O O12 0.366028 0.620790 0.622983
O O13 0.553235 0.796005 0.636251
O O14 0.870146 0.949178 0.200088
O O15 0.538499 0.942325 0.747097
O O16 0.764704 0.551128 0.009667
#
# Coordination Sequence:
#
# PCOD8324550 Si02
#       8
#     6   6   6   6   6   6   6   6
#     4  12  26  41  69  99 141 183 234 292 354 429
#     4  12  24  43  67 103 142 180 239 286 353 436
#     4  10  23  40  67 101 130 172 230 291 345 405
#     4  11  25  47  63 100 147 182 231 295 359 431
#     4  10  22  42  68  99 133 173 231 294 341 412
#     4  11  27  44  66 105 140 187 236 283 360 428
#     4  11  24  39  68 102 134 190 232 291 357 414
#     4  11  23  42  70  97 137 181 241 286 345 421
#
# _framework density 21.091442000000001
#
# number of rings (size 3 to 8) (size 9 to 14) (size 15 to 20)
#    0.000    1.000    3.750    3.750    7.000    2.000 
#    0.000    6.250    0.000    0.000    0.000    0.000 
#    0.000    0.000    0.000    0.000    0.000    0.000 
#
# Total GULP energy -595375.279901 kJ/mol
# GULP energy per Si atom -12403.651665 kJ/mol
# Density = 2.104344 g / cm^3
# Si number density = 21.091442 Si / 1000 Ang^3
#
#
#
# Elastic Constant Matrix: (Units=GPa)
#
#
# Indices 1 2 3 4 5 6 
#
# 1 81.7189 30.7578 30.5751 0.0000 0.0000 0.0000
# 2 30.7578 81.7189 30.5751 0.0000 0.0000 0.0000
# 3 30.5751 30.5751 83.6736 0.0000 0.0000 0.0000
# 4 0.0000 0.0000 0.0000 27.1836 0.0000 0.0000
# 5 0.0000 0.0000 0.0000 0.0000 27.1836 0.0000
# 6 0.0000 0.0000 0.0000 0.0000 0.0000 25.4805
#
#
#
# Elastic Compliance Matrix: (Units=1/GPa)
#
#
# Indices 1 2 3 4 5 6 
#
# 1 0.015359 -0.004264 -0.004054 0.000000 0.000000 0.000000
# 2 -0.004264 0.015359 -0.004054 0.000000 0.000000 0.000000
# 3 -0.004054 -0.004054 0.014914 0.000000 0.000000 0.000000
# 4 0.000000 0.000000 0.000000 0.036787 0.000000 0.000000
# 5 0.000000 0.000000 0.000000 0.000000 0.036787 0.000000
# 6 0.000000 0.000000 0.000000 0.000000 0.000000 0.039246
#
#
# Mechanical properties :
#
#
# Convention : Reuss Voigt Hill
#
# Bulk Modulus (GPa) = 47.87639 47.88082 47.87861
# Shear Modulus (GPa) = 26.29393 26.31647 26.30520
#
# Velocity S-wave (km/s) = 3.53464 3.53616 3.53540
# Velocity P-wave (km/s) = 6.27750 6.27880 6.27815
#
# Compressibility (1/GPa) = 0.02088712
#
# Stress axis : x y z
#
# Youngs Moduli (GPa) = 65.10913 65.10913 67.05093
#
# Poissons Ratio (x) = 0.27762 0.27183
# Poissons Ratio (y) = 0.27762 0.27183
# Poissons Ratio (z) = 0.26396 0.26396
#
# Static dielectric constant tensor:
#      x y z
#    x 3.836100 0.000000 0.000000 
#    y 0.000000 3.836100 0.000000 
#    z 0.000000 0.000000 3.794440 
# 
# 
# High freq. dielectric constant tensor:
#      x y z
#    x 1.826650 0.000000 0.000000 
#    y 0.000000 1.826650 0.000000 
#    z 0.000000 0.000000 1.825670 
# 
# From -- ./inp_files/1061.got.cif
#   From: 2010.03.12/outbox.cif.g09.slc.cpg/sg169_cif.got.tgz:1061.got - 2010.04.02 06:46:06.
