data_PCOD8324924
_publ_section_title
;
Structure prediction by ZEFSAII (Michael W. Deem and Ramdas Pophale) SiO2 
 PCOD8324924
Probable space group: P -6
;
_chemical_formula_sum "Si O2"
_cell_formula_units_Z 44
_cell_length_a 12.489799
_cell_length_b 12.489799
_cell_length_c 17.170979
_cell_angle_alpha 90.000000
_cell_angle_beta 90.000000
_cell_angle_gamma 120.000000
_cell_volume 2319.725451
_symmetry_space_group_name_H-M "P -6"
_symmetry_group_IT_number 174
_symmetry_cell_setting 'hexagonal'
loop_
_space_group_symop_operation_xyz
x,y,z
-x+y,-x,-z
-y,x-y,z
x,y,-z
-x+y,-x,z
-y,x-y,-z
loop_
_atom_site_type_symbol
_atom_site_label
_atom_site_fract_x
_atom_site_fract_y
_atom_site_fract_z
Si Si1 0.550331 0.698387 0.329728
Si Si2 0.920164 0.199929 0.087673
Si Si3 0.635831 0.089402 0.718963
Si Si4 0.693711 0.589465 0.242709
Si Si5 0.362165 0.449285 0.408488
Si Si6 0.333333 0.666667 0.908917
Si Si7 0.740771 0.922802 0.086213
Si Si8 0.167745 0.691133 0.194417
O O1 0.658230 0.669848 0.301158
O O2 0.446409 0.591915 0.382949
O O3 0.606206 0.825906 0.379413
O O4 0.483990 0.716849 0.253716
O O5 0.929015 0.299173 0.152003
O O6 0.034172 0.173543 0.089276
O O7 0.805635 0.066433 0.107700
O O8 0.908086 0.244359 0.000000
O O9 0.779725 0.171151 0.738320
O O10 0.556649 0.154723 0.742598
O O11 0.628449 0.050935 0.628250
O O12 0.555843 0.957411 0.762137
O O13 0.364319 0.436245 0.500000
O O14 0.420503 0.803002 0.872494
O O15 0.333334 0.666668 0.000000
O O16 0.641598 0.846987 0.150642
O O17 0.681375 0.903513 0.000000
#
# Coordination Sequence:
#
# PCOD8324924 Si02
#       8
#     6   6   6   6   6   2   6   6
#     4  10  20  34  63  86 113 148 180 224 283 347
#     4  10  20  34  55  81 112 154 200 249 293 334
#     4  10  23  37  60  80 110 151 189 238 282 333
#     4  11  20  39  56  82 111 151 201 237 278 335
#     4  10  20  37  58  91 119 143 178 227 284 351
#     4  12  24  33  48  78 115 152 184 237 300 354
#     4  10  19  33  53  81 114 150 193 248 297 334
#     4  11  20  37  53  83 114 145 189 232 287 352
#
# _framework density 18.967762
#
# number of rings (size 3 to 8) (size 9 to 14) (size 15 to 20)
#    0.000    1.636    2.727    4.091    0.000    1.091 
#    0.000    4.773    0.000    0.545    0.000    0.000 
#    0.000    0.000    0.000    0.000    0.000    0.000 
#
# Total GULP energy -545095.480904 kJ/mol
# GULP energy per Si atom -12388.533657 kJ/mol
# Density = 1.892459 g / cm^3
# Si number density = 18.967762 Si / 1000 Ang^3
#
#
#
# Elastic Constant Matrix: (Units=GPa)
#
#
# Indices 1 2 3 4 5 6 
#
# 1 65.7594 15.4678 43.9069 0.0000 0.0000 0.0001
# 2 15.4678 65.7596 43.9069 0.0000 0.0000 0.0002
# 3 43.9069 43.9069 155.4732 0.0000 0.0000 0.0000
# 4 0.0000 0.0000 0.0000 23.3055 0.0000 0.0000
# 5 0.0000 0.0000 0.0000 0.0000 23.3055 0.0000
# 6 0.0001 0.0002 0.0000 0.0000 0.0000 25.1457
#
#
#
# Elastic Compliance Matrix: (Units=1/GPa)
#
#
# Indices 1 2 3 4 5 6 
#
# 1 0.018803 -0.001081 -0.005005 0.000000 0.000000 0.000000
# 2 -0.001081 0.018803 -0.005005 0.000000 0.000000 0.000000
# 3 -0.005005 -0.005005 0.009259 0.000000 0.000000 0.000000
# 4 0.000000 0.000000 0.000000 0.042908 0.000000 0.000000
# 5 0.000000 0.000000 0.000000 0.000000 0.042908 0.000000
# 6 0.000000 0.000000 0.000000 0.000000 0.000000 0.039768
#
#
# Mechanical properties :
#
#
# Convention : Reuss Voigt Hill
#
# Bulk Modulus (GPa) = 40.51346 54.83947 47.67646
# Shear Modulus (GPa) = 24.64773 26.59871 25.62322
#
# Velocity S-wave (km/s) = 3.60870 3.74881 3.67942
# Velocity P-wave (km/s) = 6.22649 6.90744 6.57579
#
# Compressibility (1/GPa) = 0.02468316
#
# Stress axis : x y z
#
# Youngs Moduli (GPa) = 53.18331 53.18351 108.00605
#
# Poissons Ratio (x) = 0.05750 0.54054
# Poissons Ratio (y) = 0.05750 0.54054
# Poissons Ratio (z) = 0.26617 0.26617
#
# Static dielectric constant tensor:
#      x y z
#    x 3.411530 0.000000 0.000000 
#    y 0.000000 3.411530 0.000000 
#    z 0.000000 0.000000 3.603560 
# 
# 
# High freq. dielectric constant tensor:
#      x y z
#    x 1.726770 0.000000 0.000000 
#    y 0.000000 1.726770 0.000000 
#    z 0.000000 0.000000 1.737700 
# 
# From -- ./inp_files/1010.got.cif
#   From: 2010.03.12/outbox.cif.g09.slc.cpg/sg174_cif.got.tgz:1010.got - 2010.04.02 06:54:58.
