data_PCOD8324403
_publ_section_title
;
Structure prediction by ZEFSAII (Michael W. Deem and Ramdas Pophale) SiO2 
 PCOD8324403
Probable space group: R -3 C 
;
_chemical_formula_sum "Si O2"
_cell_formula_units_Z 120
_cell_length_a 18.958551
_cell_length_b 18.958551
_cell_length_c 19.729415
_cell_angle_alpha 90.000000
_cell_angle_beta 90.000000
_cell_angle_gamma 120.000000
_cell_volume 6141.226598
_symmetry_space_group_name_H-M "R -3 C "
_symmetry_group_IT_number 167
_symmetry_cell_setting 'hexagonal'
loop_
_space_group_symop_operation_xyz
x,y,z
-y,x-y,z
-x+y,-x,z
x-y,-y,1/2-z
-x,-x+y,1/2-z
y,x,1/2-z
-x,-y,-z
y,-x+y,-z
x-y,x,-z
-x+y,y,1/2+z
x,x-y,1/2+z
-y,-x,1/2+z
2/3+x,1/3+y,1/3+z
2/3-y,1/3+x-y,1/3+z
2/3-x+y,1/3-x,1/3+z
2/3+x-y,1/3-y,5/6-z
2/3-x,1/3-x+y,5/6-z
2/3+y,1/3+x,5/6-z
2/3-x,1/3-y,1/3-z
2/3+y,1/3-x+y,1/3-z
2/3+x-y,1/3+x,1/3-z
2/3-x+y,1/3+y,5/6+z
2/3+x,1/3+x-y,5/6+z
2/3-y,1/3-x,5/6+z
1/3+x,2/3+y,2/3+z
1/3-y,2/3+x-y,2/3+z
1/3-x+y,2/3-x,2/3+z
1/3+x-y,2/3-y,1/6-z
1/3-x,2/3-x+y,1/6-z
1/3+y,2/3+x,1/6-z
1/3-x,2/3-y,2/3-z
1/3+y,2/3-x+y,2/3-z
1/3+x-y,2/3+x,2/3-z
1/3-x+y,2/3+y,1/6+z
1/3+x,2/3+x-y,1/6+z
1/3-y,2/3-x,1/6+z
loop_
_atom_site_type_symbol
_atom_site_label
_atom_site_fract_x
_atom_site_fract_y
_atom_site_fract_z
Si Si1 0.168567 0.138380 0.826540
Si Si2 0.666667 0.333334 0.501921
Si Si3 0.218176 0.928050 0.655982
Si Si4 0.019125 0.438479 0.037048
O O1 0.158180 0.158180 0.750000
O O2 0.214841 0.087806 0.837238
O O3 0.217227 0.225265 0.862275
O O4 0.079186 0.081281 0.858638
O O5 0.666668 0.333334 0.583334
O O6 0.233408 0.900075 0.583334
O O7 0.229580 0.878312 0.716418
O O8 0.284053 0.020516 0.672567
O O9 0.000000 0.500000 0.000000
#
# Coordination Sequence:
#
# PCOD8324403 Si02
#       4
#    36  12  36  36
#     4  11  21  40  66  94 128 166 214 270 319 392
#     4   9  21  36  66  97 122 163 210 259 329 385
#     4  11  26  39  63  97 129 170 220 265 326 387
#     4  11  23  41  66  92 129 171 214 269 327 382
#
# _framework density 19.54007
#
# number of rings (size 3 to 8) (size 9 to 14) (size 15 to 20)
#    0.000    1.200    3.000    2.700   12.600    0.000 
#    0.000    0.000    0.000    1.800    0.000    0.000 
#    0.000    0.000    0.000    0.000    0.000    0.000 
#
# Total GULP energy -495626.198946 kJ/mol
# GULP energy per Si atom -12390.654974 kJ/mol
# Density = 1.949560 g / cm^3
# Si number density = 19.540070 Si / 1000 Ang^3
#
#
#
# Elastic Constant Matrix: (Units=GPa)
#
#
# Indices 1 2 3 4 5 6 
#
# 1 133.9085 68.1652 49.6732 -6.3829 0.0000 0.0005
# 2 68.1652 133.9066 49.6734 6.3830 0.0000 -0.0002
# 3 49.6732 49.6734 144.5952 -0.0002 0.0000 0.0001
# 4 -6.3829 6.3830 -0.0002 24.4636 0.0000 0.0002
# 5 0.0000 0.0000 0.0000 0.0000 24.4636 -6.3830
# 6 0.0005 -0.0002 0.0001 0.0002 -6.3830 32.8699
#
#
#
# Elastic Compliance Matrix: (Units=1/GPa)
#
#
# Indices 1 2 3 4 5 6 
#
# 1 0.010988 -0.005034 -0.002045 0.004181 0.000000 0.000000
# 2 -0.005034 0.010989 -0.002046 -0.004181 0.000000 0.000000
# 3 -0.002045 -0.002046 0.008321 0.000000 0.000000 0.000000
# 4 0.004181 -0.004181 0.000000 0.043059 0.000000 0.000000
# 5 0.000000 0.000000 0.000000 0.000000 0.043059 0.008362
# 6 0.000000 0.000000 0.000000 0.000000 0.008362 0.032047
#
#
# Mechanical properties :
#
#
# Convention : Reuss Voigt Hill
#
# Bulk Modulus (GPa) = 83.00195 83.04822 83.02509
# Shear Modulus (GPa) = 29.28622 32.68599 30.98610
#
# Velocity S-wave (km/s) = 3.87560 4.09438 3.98650
# Velocity P-wave (km/s) = 7.91183 8.05889 7.98570
#
# Compressibility (1/GPa) = 0.01204791
#
# Stress axis : x y z
#
# Youngs Moduli (GPa) = 91.00485 91.00317 120.17395
#
# Poissons Ratio (x) = 0.45812 0.24581
# Poissons Ratio (y) = 0.45813 0.24582
# Poissons Ratio (z) = 0.18615 0.18615
#
# Static dielectric constant tensor:
#      x y z
#    x 3.743940 0.000000 0.000000 
#    y 0.000000 3.743940 0.000010 
#    z 0.000000 0.000010 3.830090 
# 
# 
# High freq. dielectric constant tensor:
#      x y z
#    x 1.777320 0.000000 0.000000 
#    y 0.000000 1.777320 0.000000 
#    z 0.000000 0.000000 1.743870 
# 
# From -- ./inp_files/5080.got.cif
#   From: 2010.03.12/outbox.cif.g09.slc.cpg/sg167_3_cif.got.tgz:5080.got - 2010.04.02 06:42:56.
