data_PCOD8324913
_publ_section_title
;
Structure prediction by ZEFSAII (Michael W. Deem and Ramdas Pophale) SiO2 
 PCOD8324913
Probable space group: P -6
;
_chemical_formula_sum "Si O2"
_cell_formula_units_Z 36
_cell_length_a 18.318163
_cell_length_b 18.318163
_cell_length_c 8.815434
_cell_angle_alpha 90.000000
_cell_angle_beta 90.000000
_cell_angle_gamma 120.000000
_cell_volume 2561.758396
_symmetry_space_group_name_H-M "P -6"
_symmetry_group_IT_number 174
_symmetry_cell_setting 'hexagonal'
loop_
_space_group_symop_operation_xyz
x,y,z
-x+y,-x,-z
-y,x-y,z
x,y,-z
-x+y,-x,z
-y,x-y,-z
loop_
_atom_site_type_symbol
_atom_site_label
_atom_site_fract_x
_atom_site_fract_y
_atom_site_fract_z
Si Si1 0.332629 0.832996 0.319586
Si Si2 0.415012 0.002607 0.829756
Si Si3 0.662891 0.489234 0.679776
Si Si4 0.584756 0.995579 0.167546
Si Si5 0.332508 0.503089 0.321890
Si Si6 0.508852 0.327204 0.819165
O O1 0.333641 0.841523 0.500000
O O2 0.408639 0.818665 0.263637
O O3 0.246223 0.754684 0.256626
O O4 0.341313 0.917823 0.247265
O O5 0.432994 0.083499 0.730197
O O6 0.498591 0.996814 0.833443
O O7 0.388038 0.011793 0.000000
O O8 0.652624 0.476960 0.500000
O O9 0.597637 0.402737 0.761550
O O10 0.755688 0.513205 0.732380
O O11 0.655978 0.088095 0.223705
O O12 0.575566 0.919873 0.273263
O O13 0.606562 0.977847 0.000000
O O14 0.328424 0.504344 0.500000
O O15 0.515215 0.319283 0.000000
#
# Coordination Sequence:
#
# PCOD8324913 Si02
#       6
#     6   6   6   6   6   6
#     4   9  16  26  39  57  78 103 133 165 198 233
#     4   9  17  29  41  54  74 102 130 160 198 235
#     4  11  20  29  42  60  78  99 130 166 198 233
#     4   8  16  28  40  53  72  98 128 158 192 230
#     4   9  16  25  39  56  77 102 130 163 197 229
#     4  10  19  31  43  56  77 104 131 162 197 234
#
# _framework density 14.052847999999999
#
# number of rings (size 3 to 8) (size 9 to 14) (size 15 to 20)
#    0.000    2.667    0.000    4.167    0.000    6.667 
#    0.000    0.000    0.000    2.000    0.000    0.000 
#    0.000    0.000    0.000    1.000    0.000   16.000 
#
# Total GULP energy -446238.776958 kJ/mol
# GULP energy per Si atom -12395.521582 kJ/mol
# Density = 1.402086 g / cm^3
# Si number density = 14.052848 Si / 1000 Ang^3
#
#
#
# Elastic Constant Matrix: (Units=GPa)
#
#
# Indices 1 2 3 4 5 6 
#
# 1 76.4241 37.9502 19.0232 0.0000 0.0000 0.0000
# 2 37.9502 76.4241 19.0232 0.0000 0.0000 0.0000
# 3 19.0232 19.0232 46.3035 0.0000 0.0000 0.0000
# 4 0.0000 0.0000 0.0000 20.5007 0.0000 0.0000
# 5 0.0000 0.0000 0.0000 0.0000 20.5007 0.0000
# 6 0.0000 0.0000 0.0000 0.0000 0.0000 19.2370
#
#
#
# Elastic Compliance Matrix: (Units=1/GPa)
#
#
# Indices 1 2 3 4 5 6 
#
# 1 0.018059 -0.007932 -0.004161 0.000000 0.000000 0.000000
# 2 -0.007932 0.018059 -0.004161 0.000000 0.000000 0.000000
# 3 -0.004161 -0.004161 0.025015 0.000000 0.000000 0.000000
# 4 0.000000 0.000000 0.000000 0.048779 0.000000 0.000000
# 5 0.000000 0.000000 0.000000 0.000000 0.048779 0.000000
# 6 0.000000 0.000000 0.000000 0.000000 0.000000 0.051983
#
#
# Mechanical properties :
#
#
# Convention : Reuss Voigt Hill
#
# Bulk Modulus (GPa) = 34.93175 39.01607 36.97391
# Shear Modulus (GPa) = 19.78438 20.25801 20.02119
#
# Velocity S-wave (km/s) = 3.75621 3.80091 3.77862
# Velocity P-wave (km/s) = 6.61238 6.86197 6.73833
#
# Compressibility (1/GPa) = 0.02862726
#
# Stress axis : x y z
#
# Youngs Moduli (GPa) = 55.37268 55.37268 39.97551
#
# Poissons Ratio (x) = 0.43923 0.16632
# Poissons Ratio (y) = 0.43923 0.16632
# Poissons Ratio (z) = 0.23039 0.23039
#
# Static dielectric constant tensor:
#      x y z
#    x 2.774240 0.000000 0.000000 
#    y 0.000000 2.774240 0.000000 
#    z 0.000000 0.000000 2.840020 
# 
# 
# High freq. dielectric constant tensor:
#      x y z
#    x 1.509900 0.000000 0.000000 
#    y 0.000000 1.509900 0.000000 
#    z 0.000000 0.000000 1.544940 
# 
# From -- ./inp_files/406.got.cif
#   From: 2010.03.12/outbox.cif.g09.slc.cpg/sg174_cif.got.tgz:406.got - 2010.04.02 06:54:58.
