data_PCOD8324342
_publ_section_title
;
Structure prediction by ZEFSAII (Michael W. Deem and Ramdas Pophale) SiO2 
 PCOD8324342
Probable space group: R -3 C 
;
_chemical_formula_sum "Si O2"
_cell_formula_units_Z 108
_cell_length_a 16.290826
_cell_length_b 16.290826
_cell_length_c 21.056830
_cell_angle_alpha 90.000000
_cell_angle_beta 90.000000
_cell_angle_gamma 120.000000
_cell_volume 4839.604064
_symmetry_space_group_name_H-M "R -3 C "
_symmetry_group_IT_number 167
_symmetry_cell_setting 'hexagonal'
loop_
_space_group_symop_operation_xyz
x,y,z
-y,x-y,z
-x+y,-x,z
x-y,-y,1/2-z
-x,-x+y,1/2-z
y,x,1/2-z
-x,-y,-z
y,-x+y,-z
x-y,x,-z
-x+y,y,1/2+z
x,x-y,1/2+z
-y,-x,1/2+z
2/3+x,1/3+y,1/3+z
2/3-y,1/3+x-y,1/3+z
2/3-x+y,1/3-x,1/3+z
2/3+x-y,1/3-y,5/6-z
2/3-x,1/3-x+y,5/6-z
2/3+y,1/3+x,5/6-z
2/3-x,1/3-y,1/3-z
2/3+y,1/3-x+y,1/3-z
2/3+x-y,1/3+x,1/3-z
2/3-x+y,1/3+y,5/6+z
2/3+x,1/3+x-y,5/6+z
2/3-y,1/3-x,5/6+z
1/3+x,2/3+y,2/3+z
1/3-y,2/3+x-y,2/3+z
1/3-x+y,2/3-x,2/3+z
1/3+x-y,2/3-y,1/6-z
1/3-x,2/3-x+y,1/6-z
1/3+y,2/3+x,1/6-z
1/3-x,2/3-y,2/3-z
1/3+y,2/3-x+y,2/3-z
1/3+x-y,2/3+x,2/3-z
1/3-x+y,2/3+y,1/6+z
1/3+x,2/3+x-y,1/6+z
1/3-y,2/3-x,1/6+z
loop_
_atom_site_type_symbol
_atom_site_label
_atom_site_fract_x
_atom_site_fract_y
_atom_site_fract_z
Si Si1 0.233109 0.466143 0.781842
Si Si2 0.890242 0.775492 0.891731
Si Si3 0.897106 0.152118 0.749312
O O1 0.169007 0.504441 0.748791
O O2 0.338874 0.510754 0.753243
O O3 0.187830 0.357687 0.764520
O O4 0.235515 0.480407 0.858430
O O5 0.831604 0.666667 0.916667
O O6 0.900625 0.776306 0.816024
O O7 0.000000 0.249347 0.750000
#
# Coordination Sequence:
#
# PCOD8324342 Si02
#       3
#    36  36  36
#     4  10  21  38  60  85 120 157 201 251 305 364
#     4  11  23  38  61  90 122 160 203 252 307 366
#     4   9  20  38  60  85 113 156 206 253 299 353
#
# _framework density 22.315875999999999
#
# number of rings (size 3 to 8) (size 9 to 14) (size 15 to 20)
#    0.000    2.000    0.000    2.667    0.000   10.667 
#    0.000    3.333    0.000    4.000    0.000    0.000 
#    0.000    0.000    0.000    0.000    0.000    0.000 
#
# Total GULP energy -445977.761100 kJ/mol
# GULP energy per Si atom -12388.271142 kJ/mol
# Density = 2.226508 g / cm^3
# Si number density = 22.315876 Si / 1000 Ang^3
#
#
#
# Elastic Constant Matrix: (Units=GPa)
#
#
# Indices 1 2 3 4 5 6 
#
# 1 140.4867 70.0607 12.5945 4.5687 0.0000 0.0000
# 2 70.0607 140.4867 12.5945 -4.5687 0.0000 0.0000
# 3 12.5945 12.5945 40.3097 0.0000 0.0000 0.0000
# 4 4.5687 -4.5687 0.0000 19.3696 0.0000 0.0000
# 5 0.0000 0.0000 0.0000 0.0000 19.3696 4.5687
# 6 0.0000 0.0000 0.0000 0.0000 4.5687 35.2130
#
#
#
# Elastic Compliance Matrix: (Units=1/GPa)
#
#
# Indices 1 2 3 4 5 6 
#
# 1 0.009791 -0.004857 -0.001542 -0.003455 0.000000 0.000000
# 2 -0.004857 0.009791 -0.001542 0.003455 0.000000 0.000000
# 3 -0.001542 -0.001542 0.025771 0.000000 0.000000 0.000000
# 4 -0.003455 0.003455 0.000000 0.053257 0.000000 0.000000
# 5 0.000000 0.000000 0.000000 0.000000 0.053257 -0.006910
# 6 0.000000 0.000000 0.000000 0.000000 -0.006910 0.029295
#
#
# Mechanical properties :
#
#
# Convention : Reuss Voigt Hill
#
# Bulk Modulus (GPa) = 33.92955 56.86470 45.39712
# Shear Modulus (GPa) = 24.17023 29.85934 27.01478
#
# Velocity S-wave (km/s) = 3.29461 3.66188 3.48309
# Velocity P-wave (km/s) = 5.45067 6.58910 6.04674
#
# Compressibility (1/GPa) = 0.02947284
#
# Stress axis : x y z
#
# Youngs Moduli (GPa) = 102.13723 102.13723 38.80292
#
# Poissons Ratio (x) = 0.49606 0.05982
# Poissons Ratio (y) = 0.49606 0.05982
# Poissons Ratio (z) = 0.15745 0.15745
#
# Static dielectric constant tensor:
#      x y z
#    x 3.920580 0.000000 0.000000 
#    y 0.000000 3.920580 0.000000 
#    z 0.000000 0.000000 4.113180 
# 
# 
# High freq. dielectric constant tensor:
#      x y z
#    x 1.879570 0.000000 0.000000 
#    y 0.000000 1.879570 0.000000 
#    z 0.000000 0.000000 1.866240 
# 
# From -- ./inp_files/4073.got.cif
#   From: 2010.03.12/outbox.cif.g09.slc.cpg/sg167_3_cif.got.tgz:4073.got - 2010.04.02 06:42:56.
