data_PCOD8324202
_publ_section_title
;
Structure prediction by ZEFSAII (Michael W. Deem and Ramdas Pophale) SiO2 
 PCOD8324202
Probable space group: R -3 M
;
_chemical_formula_sum "Si O2"
_cell_formula_units_Z 216
_cell_length_a 22.619786
_cell_length_b 22.619786
_cell_length_c 25.232156
_cell_angle_alpha 90.000000
_cell_angle_beta 90.000000
_cell_angle_gamma 120.000000
_cell_volume 11180.519322
_symmetry_space_group_name_H-M "R -3 M"
_symmetry_group_IT_number 166
_symmetry_cell_setting 'hexagonal'
loop_
_space_group_symop_operation_xyz
x,y,z
-y,x-y,z
-x+y,-x,z
x-y,-y,-z
-x,-x+y,-z
y,x,-z
-x,-y,-z
y,-x+y,-z
x-y,x,-z
-x+y,y,z
x,x-y,z
-y,-x,z
2/3+x,1/3+y,1/3+z
2/3-y,1/3+x-y,1/3+z
2/3-x+y,1/3-x,1/3+z
2/3+x-y,1/3-y,1/3-z
2/3-x,1/3-x+y,1/3-z
2/3+y,1/3+x,1/3-z
2/3-x,1/3-y,1/3-z
2/3+y,1/3-x+y,1/3-z
2/3+x-y,1/3+x,1/3-z
2/3-x+y,1/3+y,1/3+z
2/3+x,1/3+x-y,1/3+z
2/3-y,1/3-x,1/3+z
1/3+x,2/3+y,2/3+z
1/3-y,2/3+x-y,2/3+z
1/3-x+y,2/3-x,2/3+z
1/3+x-y,2/3-y,2/3-z
1/3-x,2/3-x+y,2/3-z
1/3+y,2/3+x,2/3-z
1/3-x,2/3-y,2/3-z
1/3+y,2/3-x+y,2/3-z
1/3+x-y,2/3+x,2/3-z
1/3-x+y,2/3+y,2/3+z
1/3+x,2/3+x-y,2/3+z
1/3-y,2/3-x,2/3+z
loop_
_atom_site_type_symbol
_atom_site_label
_atom_site_fract_x
_atom_site_fract_y
_atom_site_fract_z
Si Si1 0.332626 0.527223 0.018342
Si Si2 0.039478 0.454346 0.621955
Si Si3 0.817172 0.771704 0.247963
Si Si4 0.814666 0.768699 0.549684
Si Si5 0.211394 0.288654 0.187199
Si Si6 0.935359 0.194472 0.929411
O O1 0.266255 0.532510 0.032708
O O2 0.397119 0.602882 0.015533
O O3 0.342368 0.481503 0.062674
O O4 0.324080 0.490798 0.962318
O O5 0.050738 0.525369 0.601250
O O6 0.108972 0.458232 0.601959
O O7 0.026381 0.445324 0.685370
O O8 0.970342 0.394680 0.597360
O O9 0.886768 0.773536 0.229290
O O10 0.781625 0.789454 0.200297
O O11 0.809023 0.809023 0.500000
O O12 0.884597 0.769194 0.541867
O O13 0.752854 0.689482 0.550240
O O14 0.137889 0.275778 0.204665
O O15 0.223703 0.303201 0.124046
O O16 0.889229 0.110771 0.928370
#
# Coordination Sequence:
#
# PCOD8324202 Si02
#       6
#    36  36  36  36  36  36
#     4  10  21  38  59  81 109 146 190 236 280 330
#     4   9  19  34  54  82 109 139 181 227 276 325
#     4  10  22  37  56  82 112 147 184 229 280 332
#     4  10  22  35  53  80 109 146 185 229 279 327
#     4  10  22  37  55  81 113 148 185 226 278 336
#     4   9  19  35  55  77 106 144 181 220 270 330
#
# _framework density 19.319317000000002
#
# number of rings (size 3 to 8) (size 9 to 14) (size 15 to 20)
#    0.000    2.333    0.000    1.167    4.667    2.667 
#    0.000    4.167    0.000    3.333    0.000    2.333 
#    0.000    0.000    0.000    0.000    0.000    0.000 
#
# Total GULP energy -892186.952421 kJ/mol
# GULP energy per Si atom -12391.485450 kJ/mol
# Density = 1.927535 g / cm^3
# Si number density = 19.319317 Si / 1000 Ang^3
#
#
#
# Elastic Constant Matrix: (Units=GPa)
#
#
# Indices 1 2 3 4 5 6 
#
# 1 96.7682 45.3676 35.3566 -2.1964 0.0000 0.0000
# 2 45.3676 96.7682 35.3566 2.1964 0.0000 0.0000
# 3 35.3566 35.3566 68.5951 0.0000 0.0000 0.0000
# 4 -2.1964 2.1964 0.0000 26.6770 0.0000 0.0000
# 5 0.0000 0.0000 0.0000 0.0000 26.6770 -2.1964
# 6 0.0000 0.0000 0.0000 0.0000 -2.1964 25.7003
#
#
#
# Elastic Compliance Matrix: (Units=1/GPa)
#
#
# Indices 1 2 3 4 5 6 
#
# 1 0.014527 -0.005066 -0.004877 0.001613 0.000000 0.000000
# 2 -0.005066 0.014527 -0.004877 -0.001613 0.000000 0.000000
# 3 -0.004877 -0.004877 0.019606 0.000000 0.000000 0.000000
# 4 0.001613 -0.001613 0.000000 0.037751 0.000000 0.000000
# 5 0.000000 0.000000 0.000000 0.000000 0.037751 0.003226
# 6 0.000000 0.000000 0.000000 0.000000 0.003226 0.039186
#
#
# Mechanical properties :
#
#
# Convention : Reuss Voigt Hill
#
# Bulk Modulus (GPa) = 52.57188 54.92146 53.74667
# Shear Modulus (GPa) = 25.08423 25.54756 25.31590
#
# Velocity S-wave (km/s) = 3.60724 3.64041 3.62386
# Velocity P-wave (km/s) = 6.67988 6.79412 6.73724
#
# Compressibility (1/GPa) = 0.01902158
#
# Stress axis : x y z
#
# Youngs Moduli (GPa) = 68.83549 68.83549 51.00501
#
# Poissons Ratio (x) = 0.34869 0.24875
# Poissons Ratio (y) = 0.34869 0.24875
# Poissons Ratio (z) = 0.33571 0.33571
#
# Static dielectric constant tensor:
#      x y z
#    x 3.581560 0.000000 0.000000 
#    y 0.000000 3.581560 0.000000 
#    z 0.000000 0.000000 3.476990 
# 
# 
# High freq. dielectric constant tensor:
#      x y z
#    x 1.750270 0.000000 0.000000 
#    y 0.000000 1.750270 0.000000 
#    z 0.000000 0.000000 1.750910 
# 
# From -- ./inp_files/8412.got.cif
#   From: 2010.03.12/outbox.cif.g09.slc.cpg/sg166_5_cif.got.tgz:8412.got - 2010.04.02 06:38:31.
