data_PCOD8324448
_publ_section_title
;
Structure prediction by ZEFSAII (Michael W. Deem and Ramdas Pophale) SiO2 
 PCOD8324448
Probable space group: P 61
;
_chemical_formula_sum "Si O2"
_cell_formula_units_Z 30
_cell_length_a 21.549096
_cell_length_b 21.549096
_cell_length_c 5.422756
_cell_angle_alpha 90.000000
_cell_angle_beta 90.000000
_cell_angle_gamma 120.000000
_cell_volume 2180.764692
_symmetry_space_group_name_H-M "P 61"
_symmetry_group_IT_number 169
_symmetry_cell_setting 'hexagonal'
loop_
_space_group_symop_operation_xyz
x,y,z
x-y,x,1/6+z
-y,x-y,1/3+z
-x,-y,1/2+z
-x+y,-x,2/3+z
y,-x+y,5/6+z
loop_
_atom_site_type_symbol
_atom_site_label
_atom_site_fract_x
_atom_site_fract_y
_atom_site_fract_z
Si Si1 0.150522 0.527158 0.087580
Si Si2 0.084520 0.488730 0.583084
Si Si3 0.870340 0.348382 0.061303
Si Si4 0.709266 0.302025 0.079564
Si Si5 0.625941 0.545338 0.899189
O O1 0.122610 0.480172 0.337685
O O2 0.127552 0.587089 0.088811
O O3 0.120167 0.479686 0.835913
O O4 0.236621 0.566103 0.105426
O O5 0.088923 0.565337 0.586786
O O6 0.002840 0.428624 0.559710
O O7 0.786021 0.312544 0.015888
O O8 0.891518 0.324142 0.318653
O O9 0.901404 0.327796 0.820323
O O10 0.720538 0.377535 0.177868
#
# Coordination Sequence:
#
# PCOD8324448 Si02
#       5
#     6   6   6   6   6
#     4  10  19  28  39  58  67  93 113 134 182 196
#     4  10  17  31  44  55  67  83 124 154 170 194
#     4  10  19  28  39  58  67  93 113 134 182 196
#     4  12  22  30  40  52  84 102 116 134 164 252
#     4  10  17  31  44  55  67  83 124 154 170 194
#
# _framework density 13.756641
#
# number of rings (size 3 to 8) (size 9 to 14) (size 15 to 20)
#    0.000    1.600    4.000    8.400    0.000    0.000 
#    0.000    0.000    0.000    0.000    0.000    0.000 
#    0.000    0.000    0.000    0.000    0.000    0.000 
#
# Total GULP energy -371668.685779 kJ/mol
# GULP energy per Si atom -12388.956193 kJ/mol
# Density = 1.372533 g / cm^3
# Si number density = 13.756641 Si / 1000 Ang^3
#
#
#
# Elastic Constant Matrix: (Units=GPa)
#
#
# Indices 1 2 3 4 5 6 
#
# 1 24.0191 17.3706 12.1600 0.0000 0.0000 0.0000
# 2 17.3706 24.0191 12.1600 0.0000 0.0000 0.0000
# 3 12.1600 12.1600 137.9944 0.0000 0.0000 0.0000
# 4 0.0000 0.0000 0.0000 14.5776 0.0000 0.0000
# 5 0.0000 0.0000 0.0000 0.0000 14.5776 0.0000
# 6 0.0000 0.0000 0.0000 0.0000 0.0000 3.3242
#
#
#
# Elastic Compliance Matrix: (Units=1/GPa)
#
#
# Indices 1 2 3 4 5 6 
#
# 1 0.087946 -0.062466 -0.002245 0.000000 0.000000 0.000000
# 2 -0.062466 0.087946 -0.002245 0.000000 0.000000 0.000000
# 3 -0.002245 -0.002245 0.007642 0.000000 0.000000 0.000000
# 4 0.000000 0.000000 0.000000 0.068598 0.000000 0.000000
# 5 0.000000 0.000000 0.000000 0.000000 0.068598 0.000000
# 6 0.000000 0.000000 0.000000 0.000000 0.000000 0.300823
#
#
# Mechanical properties :
#
#
# Convention : Reuss Voigt Hill
#
# Bulk Modulus (GPa) = 20.15274 29.93488 25.04381
# Shear Modulus (GPa) = 6.47663 16.11867 11.29765
#
# Velocity S-wave (km/s) = 2.17215 3.42673 2.86886
# Velocity P-wave (km/s) = 4.57954 6.12080 5.40538
#
# Compressibility (1/GPa) = 0.04962103
#
# Stress axis : x y z
#
# Youngs Moduli (GPa) = 11.37065 11.37065 130.84936
#
# Poissons Ratio (x) = 0.71028 0.29379
# Poissons Ratio (y) = 0.71028 0.29379
# Poissons Ratio (z) = 0.02553 0.02553
#
# Static dielectric constant tensor:
#      x y z
#    x 2.394710 0.000000 0.000000 
#    y 0.000000 2.394710 0.000000 
#    z 0.000000 0.000000 4.149100 
# 
# 
# High freq. dielectric constant tensor:
#      x y z
#    x 1.466820 0.000000 0.000000 
#    y 0.000000 1.466820 0.000000 
#    z 0.000000 0.000000 1.567270 
# 
# From -- ./inp_files/172.got.cif
#   From: 2010.03.12/outbox.cif.g09.slc.cpg/sg169_cif.got.tgz:172.got - 2010.04.02 06:46:06.
