data_PCOD8324772
_publ_section_title
;
Structure prediction by ZEFSAII (Michael W. Deem and Ramdas Pophale) SiO2 
 PCOD8324772
Probable space group: P 62
;
_chemical_formula_sum "Si O2"
_cell_formula_units_Z 42
_cell_length_a 9.080735
_cell_length_b 9.080735
_cell_length_c 27.624682
_cell_angle_alpha 90.000000
_cell_angle_beta 90.000000
_cell_angle_gamma 120.000000
_cell_volume 1972.740329
_symmetry_space_group_name_H-M "P 62"
_symmetry_group_IT_number 171
_symmetry_cell_setting 'hexagonal'
loop_
_space_group_symop_operation_xyz
x,y,z
x-y,x,1/3+z
-y,x-y,2/3+z
-x,-y,z
-x+y,-x,1/3+z
y,-x+y,2/3+z
loop_
_atom_site_type_symbol
_atom_site_label
_atom_site_fract_x
_atom_site_fract_y
_atom_site_fract_z
Si Si1 0.195841 0.619954 0.828080
Si Si2 0.213787 0.440750 0.205594
Si Si3 0.500000 0.500000 0.942214
Si Si4 0.885631 0.071722 0.449805
Si Si5 0.537023 0.858887 0.416608
Si Si6 0.000000 0.500000 0.600312
Si Si7 0.116629 0.414647 0.418668
Si Si8 0.310382 0.675143 0.668649
O O1 0.350457 0.668911 0.866012
O O2 0.223248 0.526246 0.783333
O O3 0.223172 0.793703 0.804132
O O4 0.000000 0.500000 0.848728
O O5 0.054661 0.391477 0.241190
O O6 0.143100 0.334113 0.156857
O O7 0.338176 0.386236 0.232282
O O8 0.630145 0.466428 0.974719
O O9 0.994563 0.215873 0.410784
O O10 0.738500 0.932698 0.415531
O O11 0.000000 0.000000 0.473658
O O12 0.441464 0.809869 0.364553
O O13 0.500000 0.000000 0.440219
O O14 0.164168 0.546554 0.632691
O O15 0.246299 0.481298 0.373917
O O16 0.000000 0.500000 0.422166
#
# Coordination Sequence:
#
# PCOD8324772 Si02
#       8
#     6   6   3   6   6   3   6   6
#     4  11  22  38  67  99 125 164 219 277 337 403
#     4  11  21  43  63  90 135 173 221 272 336 403
#     4  10  22  40  65  84 118 188 216 255 318 410
#     4  12  24  38  66 104 132 163 207 285 355 383
#     4  11  22  40  62 100 135 160 208 292 340 389
#     4  10  24  40  65  84 128 184 220 263 304 404
#     4  11  20  38  65  91 129 163 206 264 342 397
#     4  10  23  40  62  90 119 176 227 251 321 406
#
# _framework density 21.290179999999999
#
# number of rings (size 3 to 8) (size 9 to 14) (size 15 to 20)
#    0.000    1.143    3.571    3.429    6.000    0.000 
#    0.000    4.286    0.000    0.000    0.000    0.000 
#    0.000    0.000    0.000    0.000    0.000    0.000 
#
# Total GULP energy -520315.349686 kJ/mol
# GULP energy per Si atom -12388.460707 kJ/mol
# Density = 2.124172 g / cm^3
# Si number density = 21.290180 Si / 1000 Ang^3
#
#
#
# Elastic Constant Matrix: (Units=GPa)
#
#
# Indices 1 2 3 4 5 6 
#
# 1 120.2090 41.9054 44.5419 0.0000 0.0000 0.0000
# 2 41.9054 120.2090 44.5419 0.0000 0.0000 0.0000
# 3 44.5419 44.5419 91.6419 0.0000 0.0000 0.0000
# 4 0.0000 0.0000 0.0000 15.2380 0.0000 0.0000
# 5 0.0000 0.0000 0.0000 0.0000 15.2380 0.0000
# 6 0.0000 0.0000 0.0000 0.0000 0.0000 39.1518
#
#
#
# Elastic Compliance Matrix: (Units=1/GPa)
#
#
# Indices 1 2 3 4 5 6 
#
# 1 0.010594 -0.002177 -0.004091 0.000000 0.000000 0.000000
# 2 -0.002177 0.010594 -0.004091 0.000000 0.000000 0.000000
# 3 -0.004091 -0.004091 0.014889 0.000000 0.000000 0.000000
# 4 0.000000 0.000000 0.000000 0.065625 0.000000 0.000000
# 5 0.000000 0.000000 0.000000 0.000000 0.065625 0.000000
# 6 0.000000 0.000000 0.000000 0.000000 0.000000 0.025542
#
#
# Mechanical properties :
#
#
# Convention : Reuss Voigt Hill
#
# Bulk Modulus (GPa) = 65.11075 66.00426 65.55751
# Shear Modulus (GPa) = 22.86185 27.33028 25.09606
#
# Velocity S-wave (km/s) = 3.28048 3.58677 3.43704
# Velocity P-wave (km/s) = 6.70803 6.94426 6.82716
#
# Compressibility (1/GPa) = 0.01535845
#
# Stress axis : x y z
#
# Youngs Moduli (GPa) = 94.39668 94.39668 67.16560
#
# Poissons Ratio (x) = 0.20552 0.27476
# Poissons Ratio (y) = 0.20552 0.27476
# Poissons Ratio (z) = 0.38615 0.38615
#
# Static dielectric constant tensor:
#      x y z
#    x 4.115250 0.000000 0.000000 
#    y 0.000000 4.115250 0.000000 
#    z 0.000000 0.000000 3.897290 
# 
# 
# High freq. dielectric constant tensor:
#      x y z
#    x 1.833240 0.000000 0.000000 
#    y 0.000000 1.833240 0.000000 
#    z 0.000000 0.000000 1.820240 
# 
# From -- ./inp_files/6134.got.cif
#   From: 2010.03.12/outbox.cif.g09.slc.cpg/sg171_4_cif.got.tgz:6134.got - 2010.04.02 06:49:11.
