data_PCOD8324376
_publ_section_title
;
Structure prediction by ZEFSAII (Michael W. Deem and Ramdas Pophale) SiO2 
 PCOD8324376
Probable space group: R -3 C 
;
_chemical_formula_sum "Si O2"
_cell_formula_units_Z 108
_cell_length_a 19.496799
_cell_length_b 19.496799
_cell_length_c 13.749715
_cell_angle_alpha 90.000000
_cell_angle_beta 90.000000
_cell_angle_gamma 120.000000
_cell_volume 4526.379434
_symmetry_space_group_name_H-M "R -3 C "
_symmetry_group_IT_number 167
_symmetry_cell_setting 'hexagonal'
loop_
_space_group_symop_operation_xyz
x,y,z
-y,x-y,z
-x+y,-x,z
x-y,-y,1/2-z
-x,-x+y,1/2-z
y,x,1/2-z
-x,-y,-z
y,-x+y,-z
x-y,x,-z
-x+y,y,1/2+z
x,x-y,1/2+z
-y,-x,1/2+z
2/3+x,1/3+y,1/3+z
2/3-y,1/3+x-y,1/3+z
2/3-x+y,1/3-x,1/3+z
2/3+x-y,1/3-y,5/6-z
2/3-x,1/3-x+y,5/6-z
2/3+y,1/3+x,5/6-z
2/3-x,1/3-y,1/3-z
2/3+y,1/3-x+y,1/3-z
2/3+x-y,1/3+x,1/3-z
2/3-x+y,1/3+y,5/6+z
2/3+x,1/3+x-y,5/6+z
2/3-y,1/3-x,5/6+z
1/3+x,2/3+y,2/3+z
1/3-y,2/3+x-y,2/3+z
1/3-x+y,2/3-x,2/3+z
1/3+x-y,2/3-y,1/6-z
1/3-x,2/3-x+y,1/6-z
1/3+y,2/3+x,1/6-z
1/3-x,2/3-y,2/3-z
1/3+y,2/3-x+y,2/3-z
1/3+x-y,2/3+x,2/3-z
1/3-x+y,2/3+y,1/6+z
1/3+x,2/3+x-y,1/6+z
1/3-y,2/3-x,1/6+z
loop_
_atom_site_type_symbol
_atom_site_label
_atom_site_fract_x
_atom_site_fract_y
_atom_site_fract_z
Si Si1 0.788455 0.820206 0.030506
Si Si2 0.955353 0.830558 0.342309
Si Si3 0.190760 0.324231 0.940418
O O1 0.835507 0.878873 0.121416
O O2 0.772974 0.734151 0.058114
O O3 0.839658 0.855233 0.932365
O O4 0.707590 0.821790 0.010723
O O5 0.927330 0.740300 0.312402
O O6 0.000000 0.887674 0.250000
O O7 0.166667 0.333334 0.833334
#
# Coordination Sequence:
#
# PCOD8324376 Si02
#       3
#    36  36  36
#     4  10  22  42  67 102 148 182 239 288 364 431
#     4  11  23  44  68 103 151 186 238 297 355 439
#     4  11  23  44  69 110 144 192 233 295 369 426
#
# _framework density 23.860130000000002
#
# number of rings (size 3 to 8) (size 9 to 14) (size 15 to 20)
#    0.000    1.333    3.333    4.000    0.000    4.000 
#   12.000    0.000    0.000   42.667   69.333    0.000 
#    0.000    0.000    0.000    0.000    0.000    0.000 
#
# Total GULP energy -446276.389561 kJ/mol
# GULP energy per Si atom -12396.566377 kJ/mol
# Density = 2.380582 g / cm^3
# Si number density = 23.860130 Si / 1000 Ang^3
#
#
#
# Elastic Constant Matrix: (Units=GPa)
#
#
# Indices 1 2 3 4 5 6 
#
# 1 83.7907 31.2911 43.7577 -5.9272 0.0000 0.0000
# 2 31.2911 83.7907 43.7577 5.9272 0.0000 0.0000
# 3 43.7577 43.7577 174.9234 0.0000 0.0000 0.0000
# 4 -5.9272 5.9272 0.0000 52.2687 0.0000 0.0000
# 5 0.0000 0.0000 0.0000 0.0000 52.2687 -5.9272
# 6 0.0000 0.0000 0.0000 0.0000 -5.9272 26.2498
#
#
#
# Elastic Compliance Matrix: (Units=1/GPa)
#
#
# Indices 1 2 3 4 5 6 
#
# 1 0.015140 -0.004409 -0.002684 0.002217 0.000000 0.000000
# 2 -0.004409 0.015140 -0.002684 -0.002217 0.000000 0.000000
# 3 -0.002684 -0.002684 0.007060 0.000000 0.000000 0.000000
# 4 0.002217 -0.002217 0.000000 0.019635 0.000000 0.000000
# 5 0.000000 0.000000 0.000000 0.000000 0.019635 0.004434
# 6 0.000000 0.000000 0.000000 0.000000 0.004434 0.039097
#
#
# Mechanical properties :
#
#
# Convention : Reuss Voigt Hill
#
# Bulk Modulus (GPa) = 56.23024 64.45750 60.34387
# Shear Modulus (GPa) = 35.41385 41.07067 38.24226
#
# Velocity S-wave (km/s) = 3.85675 4.15337 4.00780
# Velocity P-wave (km/s) = 6.59169 7.07630 6.83829
#
# Compressibility (1/GPa) = 0.01778403
#
# Stress axis : x y z
#
# Youngs Moduli (GPa) = 66.05214 66.05214 141.64733
#
# Poissons Ratio (x) = 0.29121 0.38023
# Poissons Ratio (y) = 0.29121 0.38023
# Poissons Ratio (z) = 0.17731 0.17731
#
# Static dielectric constant tensor:
#      x y z
#    x 4.236350 0.000000 0.000000 
#    y 0.000000 4.236350 0.000000 
#    z 0.000000 0.000000 4.880050 
# 
# 
# High freq. dielectric constant tensor:
#      x y z
#    x 1.928660 0.000000 0.000000 
#    y 0.000000 1.928660 0.000000 
#    z 0.000000 0.000000 1.974580 
# 
# From -- ./inp_files/2075.got.cif
#   From: 2010.03.12/outbox.cif.g09.slc.cpg/sg167_2_cif.got.tgz:2075.got - 2010.04.02 06:42:56.
