data_PCOD8324851
_publ_section_title
;
Structure prediction by ZEFSAII (Michael W. Deem and Ramdas Pophale) SiO2 
 PCOD8324851
Probable space group: P 63
;
_chemical_formula_sum "Si O2"
_cell_formula_units_Z 30
_cell_length_a 8.536729
_cell_length_b 8.536729
_cell_length_c 20.606338
_cell_angle_alpha 90.000000
_cell_angle_beta 90.000000
_cell_angle_gamma 120.000000
_cell_volume 1300.512230
_symmetry_space_group_name_H-M "P 63"
_symmetry_group_IT_number 173
_symmetry_cell_setting 'hexagonal'
loop_
_space_group_symop_operation_xyz
x,y,z
x-y,x,1/2+z
-y,x-y,z
-x,-y,1/2+z
-x+y,-x,z
y,-x+y,1/2+z
loop_
_atom_site_type_symbol
_atom_site_label
_atom_site_fract_x
_atom_site_fract_y
_atom_site_fract_z
Si Si1 0.550894 0.101790 0.017420
Si Si2 0.364178 0.998018 0.887523
Si Si3 0.686364 0.686215 0.340169
Si Si4 0.366160 0.001981 0.647317
Si Si5 0.686215 0.686364 0.194671
O O1 0.769777 0.230222 0.017420
O O2 0.523003 0.979436 0.080550
O O3 0.456432 0.979436 0.954290
O O4 0.155613 0.846979 0.882333
O O5 0.380930 0.192459 0.877434
O O6 0.483186 0.967209 0.833535
O O7 0.757853 0.757853 0.267420
O O8 0.188471 0.807541 0.657405
O O9 0.515976 0.032789 0.701305
O O10 0.308636 0.153022 0.652506
#
# Coordination Sequence:
#
# PCOD8324851 Si02
#       5
#     6   6   6   6   6
#     4  10  20  48  72  94 138 186 242 300 364 434
#     4  12  25  45  73 106 146 196 247 306 376 450
#     4  12  24  43  70 106 147 191 244 308 379 451
#     4  12  25  45  73 106 146 196 247 306 376 450
#     4  12  24  43  70 106 147 191 244 308 379 451
#
# _framework density 23.067834999999999
#
# number of rings (size 3 to 8) (size 9 to 14) (size 15 to 20)
#    0.400    0.000    4.000    6.000    0.000    1.600 
#    0.000    0.000    0.000    0.000    0.000    0.000 
#    0.000    0.000    0.000    0.000    0.000    0.000 
#
# Total GULP energy -371862.296585 kJ/mol
# GULP energy per Si atom -12395.409886 kJ/mol
# Density = 2.301533 g / cm^3
# Si number density = 23.067835 Si / 1000 Ang^3
#
#
#
# Elastic Constant Matrix: (Units=GPa)
#
#
# Indices 1 2 3 4 5 6 
#
# 1 106.9562 25.9279 38.2859 0.0000 0.0000 0.0000
# 2 25.9279 106.9562 38.2859 0.0000 0.0000 0.0000
# 3 38.2859 38.2859 165.0236 0.0000 0.0000 0.0000
# 4 0.0000 0.0000 0.0000 34.1939 0.0000 0.0000
# 5 0.0000 0.0000 0.0000 0.0000 34.1939 0.0000
# 6 0.0000 0.0000 0.0000 0.0000 0.0000 40.5142
#
#
#
# Elastic Compliance Matrix: (Units=1/GPa)
#
#
# Indices 1 2 3 4 5 6 
#
# 1 0.010514 -0.001827 -0.002015 0.000000 0.000000 0.000000
# 2 -0.001827 0.010514 -0.002015 0.000000 0.000000 0.000000
# 3 -0.002015 -0.002015 0.006995 0.000000 0.000000 0.000000
# 4 0.000000 0.000000 0.000000 0.029245 0.000000 0.000000
# 5 0.000000 0.000000 0.000000 0.000000 0.029245 0.000000
# 6 0.000000 0.000000 0.000000 0.000000 0.000000 0.024683
#
#
# Mechanical properties :
#
#
# Convention : Reuss Voigt Hill
#
# Bulk Modulus (GPa) = 61.32388 64.88169 63.10278
# Shear Modulus (GPa) = 38.95683 40.20948 39.58316
#
# Velocity S-wave (km/s) = 4.11395 4.17957 4.14689
# Velocity P-wave (km/s) = 7.01484 7.17491 7.09533
#
# Compressibility (1/GPa) = 0.01630686
#
# Stress axis : x y z
#
# Youngs Moduli (GPa) = 95.11122 95.11122 142.96214
#
# Poissons Ratio (x) = 0.17380 0.28811
# Poissons Ratio (y) = 0.17380 0.28811
# Poissons Ratio (z) = 0.19168 0.19168
#
# Static dielectric constant tensor:
#      x y z
#    x 3.923620 0.000000 0.000000 
#    y 0.000000 3.923620 0.000000 
#    z 0.000000 0.000000 4.056100 
# 
# 
# High freq. dielectric constant tensor:
#      x y z
#    x 1.904600 0.000000 0.000000 
#    y 0.000000 1.904600 0.000000 
#    z 0.000000 0.000000 1.913090 
# 
# From -- ./inp_files/1429.got.cif
#   From: 2010.03.12/outbox.cif.g09.slc.cpg/sg173_cif.got.tgz:1429.got - 2010.04.02 06:54:12.
