data_PCOD8324074
_publ_section_title
;
Structure prediction by ZEFSAII (Michael W. Deem and Ramdas Pophale) SiO2 
 PCOD8324074
Probable space group: R -3 M
;
_chemical_formula_sum "Si O2"
_cell_formula_units_Z 252
_cell_length_a 28.327819
_cell_length_b 28.327819
_cell_length_c 19.738157
_cell_angle_alpha 90.000000
_cell_angle_beta 90.000000
_cell_angle_gamma 120.000000
_cell_volume 13717.138020
_symmetry_space_group_name_H-M "R -3 M"
_symmetry_group_IT_number 166
_symmetry_cell_setting 'hexagonal'
loop_
_space_group_symop_operation_xyz
x,y,z
-y,x-y,z
-x+y,-x,z
x-y,-y,-z
-x,-x+y,-z
y,x,-z
-x,-y,-z
y,-x+y,-z
x-y,x,-z
-x+y,y,z
x,x-y,z
-y,-x,z
2/3+x,1/3+y,1/3+z
2/3-y,1/3+x-y,1/3+z
2/3-x+y,1/3-x,1/3+z
2/3+x-y,1/3-y,1/3-z
2/3-x,1/3-x+y,1/3-z
2/3+y,1/3+x,1/3-z
2/3-x,1/3-y,1/3-z
2/3+y,1/3-x+y,1/3-z
2/3+x-y,1/3+x,1/3-z
2/3-x+y,1/3+y,1/3+z
2/3+x,1/3+x-y,1/3+z
2/3-y,1/3-x,1/3+z
1/3+x,2/3+y,2/3+z
1/3-y,2/3+x-y,2/3+z
1/3-x+y,2/3-x,2/3+z
1/3+x-y,2/3-y,2/3-z
1/3-x,2/3-x+y,2/3-z
1/3+y,2/3+x,2/3-z
1/3-x,2/3-y,2/3-z
1/3+y,2/3-x+y,2/3-z
1/3+x-y,2/3+x,2/3-z
1/3-x+y,2/3+y,2/3+z
1/3+x,2/3+x-y,2/3+z
1/3-y,2/3-x,2/3+z
loop_
_atom_site_type_symbol
_atom_site_label
_atom_site_fract_x
_atom_site_fract_y
_atom_site_fract_z
Si Si1 0.109932 0.109932 0.500000
Si Si2 0.555478 0.333334 0.333334
Si Si3 0.749944 0.027729 0.850753
Si Si4 0.302105 0.805675 0.534511
Si Si5 0.958118 0.655080 0.056676
Si Si6 0.297074 0.813952 0.050004
Si Si7 0.666165 0.224739 0.066878
Si Si8 0.456867 0.429297 0.721801
O O1 0.102110 0.051055 0.492476
O O2 0.140465 0.147753 0.435621
O O3 0.563092 0.281546 0.337534
O O4 0.522501 0.336365 0.397613
O O5 0.806592 0.029756 0.846541
O O6 0.758796 0.085007 0.881730
O O7 0.710843 0.980453 0.901805
O O8 0.725646 0.011647 0.774539
O O9 0.239242 0.760759 0.545305
O O10 0.330233 0.787304 0.478303
O O11 0.905238 0.650950 0.019041
O O12 0.000000 0.657715 0.000000
O O13 0.240911 0.759090 0.058982
O O14 0.285249 0.862300 0.067134
O O15 0.321738 0.817077 0.975326
O O16 0.609943 0.219886 0.041692
O O17 0.713303 0.286698 0.055680
O O18 0.509827 0.490174 0.717493
#
# Coordination Sequence:
#
# PCOD8324074 Si02
#       8
#    18  18  36  36  36  36  36  36
#     4  10  19  32  50  76 108 142 176 216 263 322
#     4  10  21  36  54  78 108 148 190 232 279 336
#     4  10  20  37  56  81 110 139 184 235 289 347
#     4  10  21  34  52  77 107 142 179 229 283 333
#     4   9  20  36  58  82 106 139 183 233 284 345
#     4   9  19  32  49  74 103 135 177 221 264 317
#     4  10  19  33  52  76 107 146 186 227 276 337
#     4  10  20  36  57  79 107 145 183 228 288 350
#
# _framework density 18.371179000000001
#
# number of rings (size 3 to 8) (size 9 to 14) (size 15 to 20)
#    0.000    2.286    0.000    2.429    3.000    2.286 
#    0.000    5.714    0.000    1.714    0.000    0.000 
#    0.000    0.000    0.000    0.000    0.000    0.000 
#
# Total GULP energy -1040957.415071 kJ/mol
# GULP energy per Si atom -12392.350179 kJ/mol
# Density = 1.832937 g / cm^3
# Si number density = 18.371179 Si / 1000 Ang^3
#
#
#
# Elastic Constant Matrix: (Units=GPa)
#
#
# Indices 1 2 3 4 5 6 
#
# 1 75.3811 35.7992 25.2528 3.0035 0.0000 0.0000
# 2 35.7992 75.3811 25.2528 -3.0035 0.0000 0.0000
# 3 25.2528 25.2528 97.7321 0.0000 0.0000 0.0000
# 4 3.0035 -3.0035 0.0000 23.4245 0.0000 0.0000
# 5 0.0000 0.0000 0.0000 0.0000 23.4245 3.0035
# 6 0.0000 0.0000 0.0000 0.0000 3.0035 19.7910
#
#
#
# Elastic Compliance Matrix: (Units=1/GPa)
#
#
# Indices 1 2 3 4 5 6 
#
# 1 0.017978 -0.007787 -0.002633 -0.003304 0.000000 0.000000
# 2 -0.007787 0.017978 -0.002633 0.003304 0.000000 0.000000
# 3 -0.002633 -0.002633 0.011593 0.000000 0.000000 0.000000
# 4 -0.003304 0.003304 0.000000 0.043538 0.000000 0.000000
# 5 0.000000 0.000000 0.000000 0.000000 0.043538 -0.006607
# 6 0.000000 0.000000 0.000000 0.000000 -0.006607 0.051531
#
#
# Mechanical properties :
#
#
# Convention : Reuss Voigt Hill
#
# Bulk Modulus (GPa) = 46.63873 46.78932 46.71403
# Shear Modulus (GPa) = 22.78848 24.14063 23.46455
#
# Velocity S-wave (km/s) = 3.52582 3.62891 3.57774
# Velocity P-wave (km/s) = 6.48207 6.56375 6.52304
#
# Compressibility (1/GPa) = 0.02144141
#
# Stress axis : x y z
#
# Youngs Moduli (GPa) = 55.62365 55.62365 86.26063
#
# Poissons Ratio (x) = 0.43317 0.22713
# Poissons Ratio (y) = 0.43317 0.22713
# Poissons Ratio (z) = 0.14646 0.14646
#
# Static dielectric constant tensor:
#      x y z
#    x 3.408890 0.000000 0.000000 
#    y 0.000000 3.408890 0.000000 
#    z 0.000000 0.000000 3.684020 
# 
# 
# High freq. dielectric constant tensor:
#      x y z
#    x 1.708060 0.000000 0.000000 
#    y 0.000000 1.708060 0.000000 
#    z 0.000000 0.000000 1.722950 
# 
# From -- ./inp_files/5919.got.cif
#   From: 2010.03.12/outbox.cif.g09.slc.cpg/sg166_3_cif.got.tgz:5919.got - 2010.04.02 06:38:31.
