data_PCOD8324036
_publ_section_title
;
Structure prediction by ZEFSAII (Michael W. Deem and Ramdas Pophale) SiO2 
 PCOD8324036
Probable space group: R -3 M
;
_chemical_formula_sum "Si O2"
_cell_formula_units_Z 216
_cell_length_a 26.298954
_cell_length_b 26.298954
_cell_length_c 20.094034
_cell_angle_alpha 90.000000
_cell_angle_beta 90.000000
_cell_angle_gamma 120.000000
_cell_volume 12035.793153
_symmetry_space_group_name_H-M "R -3 M"
_symmetry_group_IT_number 166
_symmetry_cell_setting 'hexagonal'
loop_
_space_group_symop_operation_xyz
x,y,z
-y,x-y,z
-x+y,-x,z
x-y,-y,-z
-x,-x+y,-z
y,x,-z
-x,-y,-z
y,-x+y,-z
x-y,x,-z
-x+y,y,z
x,x-y,z
-y,-x,z
2/3+x,1/3+y,1/3+z
2/3-y,1/3+x-y,1/3+z
2/3-x+y,1/3-x,1/3+z
2/3+x-y,1/3-y,1/3-z
2/3-x,1/3-x+y,1/3-z
2/3+y,1/3+x,1/3-z
2/3-x,1/3-y,1/3-z
2/3+y,1/3-x+y,1/3-z
2/3+x-y,1/3+x,1/3-z
2/3-x+y,1/3+y,1/3+z
2/3+x,1/3+x-y,1/3+z
2/3-y,1/3-x,1/3+z
1/3+x,2/3+y,2/3+z
1/3-y,2/3+x-y,2/3+z
1/3-x+y,2/3-x,2/3+z
1/3+x-y,2/3-y,2/3-z
1/3-x,2/3-x+y,2/3-z
1/3+y,2/3+x,2/3-z
1/3-x,2/3-y,2/3-z
1/3+y,2/3-x+y,2/3-z
1/3+x-y,2/3+x,2/3-z
1/3-x+y,2/3+y,2/3+z
1/3+x,2/3+x-y,2/3+z
1/3-y,2/3-x,2/3+z
loop_
_atom_site_type_symbol
_atom_site_label
_atom_site_fract_x
_atom_site_fract_y
_atom_site_fract_z
Si Si1 0.505582 0.892324 0.865742
Si Si2 0.083874 0.729503 0.183481
Si Si3 0.830388 0.778871 0.954510
Si Si4 0.369902 0.859553 0.100962
Si Si5 0.133713 0.506117 0.357891
Si Si6 0.899611 0.682901 0.372164
O O1 0.445504 0.891007 0.884073
O O2 0.506189 0.874637 0.789517
O O3 0.511597 0.844527 0.908971
O O4 0.559319 0.957685 0.880512
O O5 0.026053 0.666667 0.166667
O O6 0.125754 0.720600 0.235305
O O7 0.121373 0.753523 0.115900
O O8 0.891445 0.782889 0.971248
O O9 0.774599 0.714625 0.972638
O O10 0.826843 0.826843 0.000000
O O11 0.427147 0.854295 0.099725
O O12 0.333334 0.828639 0.166667
O O13 0.331428 0.824571 0.037194
O O14 0.138782 0.569391 0.367578
O O15 0.066833 0.453944 0.342759
O O16 0.837770 0.675539 0.354880
#
# Coordination Sequence:
#
# PCOD8324036 Si02
#       6
#    36  36  36  36  36  36
#     4  10  22  38  55  81 117 150 185 231 285 341
#     4  10  18  32  55  82 112 147 180 224 274 335
#     4   9  19  36  60  82 107 143 180 226 275 334
#     4  11  20  33  55  81 110 148 192 232 276 328
#     4  11  22  36  54  77 110 150 188 234 285 333
#     4   9  17  33  51  74 109 146 178 214 271 328
#
# _framework density 17.946469
#
# number of rings (size 3 to 8) (size 9 to 14) (size 15 to 20)
#    0.000    2.000    3.333    3.500    0.000    4.000 
#    0.000    1.667    0.000   10.000    0.000    0.000 
#    0.000    0.000    0.000    0.000    0.000    0.000 
#
# Total GULP energy -892471.507100 kJ/mol
# GULP energy per Si atom -12395.437599 kJ/mol
# Density = 1.790562 g / cm^3
# Si number density = 17.946469 Si / 1000 Ang^3
#
#
#
# Elastic Constant Matrix: (Units=GPa)
#
#
# Indices 1 2 3 4 5 6 
#
# 1 96.9104 61.2321 59.9884 -0.5627 -0.0002 0.0000
# 2 61.2321 96.9104 59.9884 0.5627 0.0002 0.0000
# 3 59.9884 59.9884 86.5751 0.0000 0.0000 0.0000
# 4 -0.5627 0.5627 0.0000 27.8632 0.0000 0.0002
# 5 -0.0002 0.0002 0.0000 0.0000 27.8632 -0.5627
# 6 0.0000 0.0000 0.0000 0.0002 -0.5627 17.8392
#
#
#
# Elastic Compliance Matrix: (Units=1/GPa)
#
#
# Indices 1 2 3 4 5 6 
#
# 1 0.020689 -0.007357 -0.009238 0.000566 0.000000 0.000000
# 2 -0.007357 0.020689 -0.009238 -0.000566 0.000000 0.000000
# 3 -0.009238 -0.009238 0.024352 0.000000 0.000000 0.000000
# 4 0.000566 -0.000566 0.000000 0.035913 0.000000 0.000000
# 5 0.000000 0.000000 0.000000 0.000000 0.035913 0.001133
# 6 0.000000 0.000000 0.000000 0.000000 0.001133 0.056092
#
#
# Mechanical properties :
#
#
# Convention : Reuss Voigt Hill
#
# Bulk Modulus (GPa) = 71.09753 71.42372 71.26062
# Shear Modulus (GPa) = 20.00000 21.32558 20.66279
#
# Velocity S-wave (km/s) = 3.34192 3.45090 3.39685
# Velocity P-wave (km/s) = 7.38876 7.46745 7.42821
#
# Compressibility (1/GPa) = 0.01406519
#
# Stress axis : x y z
#
# Youngs Moduli (GPa) = 48.33528 48.33528 41.06419
#
# Poissons Ratio (x) = 0.35562 0.37933
# Poissons Ratio (y) = 0.35562 0.37933
# Poissons Ratio (z) = 0.44650 0.44650
#
# Static dielectric constant tensor:
#      x y z
#    x 3.306250 0.000000 0.000000 
#    y 0.000000 3.306250 0.000000 
#    z 0.000000 0.000000 3.164140 
# 
# 
# High freq. dielectric constant tensor:
#      x y z
#    x 1.687670 0.000000 0.000000 
#    y 0.000000 1.687670 0.000000 
#    z 0.000000 0.000000 1.680440 
# 
# From -- ./inp_files/7155.got.cif
#   From: 2010.03.12/outbox.cif.g09.slc.cpg/sg166_4_cif.got.tgz:7155.got - 2010.04.02 06:38:31.
