data_PCOD8324375
_publ_section_title
;
Structure prediction by ZEFSAII (Michael W. Deem and Ramdas Pophale) SiO2 
 PCOD8324375
Probable space group: R -3 C 
;
_chemical_formula_sum "Si O2"
_cell_formula_units_Z 144
_cell_length_a 27.335772
_cell_length_b 27.335772
_cell_length_c 8.873928
_cell_angle_alpha 90.000000
_cell_angle_beta 90.000000
_cell_angle_gamma 120.000000
_cell_volume 5742.608631
_symmetry_space_group_name_H-M "R -3 C "
_symmetry_group_IT_number 167
_symmetry_cell_setting 'hexagonal'
loop_
_space_group_symop_operation_xyz
x,y,z
-y,x-y,z
-x+y,-x,z
x-y,-y,1/2-z
-x,-x+y,1/2-z
y,x,1/2-z
-x,-y,-z
y,-x+y,-z
x-y,x,-z
-x+y,y,1/2+z
x,x-y,1/2+z
-y,-x,1/2+z
2/3+x,1/3+y,1/3+z
2/3-y,1/3+x-y,1/3+z
2/3-x+y,1/3-x,1/3+z
2/3+x-y,1/3-y,5/6-z
2/3-x,1/3-x+y,5/6-z
2/3+y,1/3+x,5/6-z
2/3-x,1/3-y,1/3-z
2/3+y,1/3-x+y,1/3-z
2/3+x-y,1/3+x,1/3-z
2/3-x+y,1/3+y,5/6+z
2/3+x,1/3+x-y,5/6+z
2/3-y,1/3-x,5/6+z
1/3+x,2/3+y,2/3+z
1/3-y,2/3+x-y,2/3+z
1/3-x+y,2/3-x,2/3+z
1/3+x-y,2/3-y,1/6-z
1/3-x,2/3-x+y,1/6-z
1/3+y,2/3+x,1/6-z
1/3-x,2/3-y,2/3-z
1/3+y,2/3-x+y,2/3-z
1/3+x-y,2/3+x,2/3-z
1/3-x+y,2/3+y,1/6+z
1/3+x,2/3+x-y,1/6+z
1/3-y,2/3-x,1/6+z
loop_
_atom_site_type_symbol
_atom_site_label
_atom_site_fract_x
_atom_site_fract_y
_atom_site_fract_z
Si Si1 0.172132 0.433862 0.118669
Si Si2 0.158522 0.386353 0.805208
Si Si3 0.678448 0.444871 0.263335
Si Si4 0.960484 0.269486 0.634263
O O1 0.222130 0.421973 0.170523
O O2 0.183644 0.493707 0.182110
O O3 0.110031 0.383852 0.168642
O O4 0.175041 0.431702 0.939702
O O5 0.166667 0.333334 0.833334
O O6 0.092221 0.359313 0.773052
O O7 0.732309 0.439248 0.306270
O O8 0.666667 0.436888 0.083334
O O9 0.000000 0.258682 0.750000
O O10 0.997503 0.333334 0.583334
#
# Coordination Sequence:
#
# PCOD8324375 Si02
#       4
#    36  36  36  36
#     4  11  24  45  70 102 138 184 238 292 358 433
#     4  10  22  42  65  97 140 185 235 288 345 420
#     4  12  27  49  76 107 141 184 240 311 387 461
#     4  11  23  38  61  96 139 185 231 279 337 410
#
# _framework density 25.075711999999999
#
# number of rings (size 3 to 8) (size 9 to 14) (size 15 to 20)
#    0.000    1.000    0.000    7.750    0.000   10.000 
#    0.000    0.000    0.000    0.000    0.000    0.000 
#    0.000    0.000    0.000    0.000    0.000    0.000 
#
# Total GULP energy -594879.161656 kJ/mol
# GULP energy per Si atom -12393.315868 kJ/mol
# Density = 2.501864 g / cm^3
# Si number density = 25.075712 Si / 1000 Ang^3
#
#
#
# Elastic Constant Matrix: (Units=GPa)
#
#
# Indices 1 2 3 4 5 6 
#
# 1 129.3526 41.6180 36.2688 -4.8146 -0.0091 -0.0140
# 2 41.6180 129.3444 36.3176 4.8098 0.0349 0.0001
# 3 36.2688 36.3176 97.9321 0.0421 0.0383 -0.0476
# 4 -4.8146 4.8098 0.0421 42.4049 0.0226 -0.0017
# 5 -0.0091 0.0349 0.0383 0.0226 42.4089 -4.8320
# 6 -0.0140 0.0001 -0.0476 -0.0017 -4.8320 43.8824
#
#
#
# Elastic Compliance Matrix: (Units=1/GPa)
#
#
# Indices 1 2 3 4 5 6 
#
# 1 0.009240 -0.002300 -0.002570 0.001313 0.000006 0.000001
# 2 -0.002300 0.009243 -0.002575 -0.001307 -0.000006 -0.000004
# 3 -0.002570 -0.002575 0.012118 -0.000012 -0.000008 0.000011
# 4 0.001313 -0.001307 -0.000012 0.023879 -0.000011 0.000000
# 5 0.000006 -0.000006 -0.000008 -0.000011 0.023880 0.002629
# 6 0.000001 -0.000004 0.000011 0.000000 0.002629 0.023078
#
#
# Mechanical properties :
#
#
# Convention : Reuss Voigt Hill
#
# Bulk Modulus (GPa) = 63.65084 65.00423 64.32753
# Shear Modulus (GPa) = 41.13008 41.90090 41.51549
#
# Velocity S-wave (km/s) = 4.05438 4.09219 4.07333
# Velocity P-wave (km/s) = 6.88156 6.95036 6.91604
#
# Compressibility (1/GPa) = 0.01571071
#
# Stress axis : x y z
#
# Youngs Moduli (GPa) = 108.22163 108.18766 82.52312
#
# Poissons Ratio (x) = 0.24889 0.21205
# Poissons Ratio (y) = 0.24896 0.21252
# Poissons Ratio (z) = 0.27808 0.27861
#
# Static dielectric constant tensor:
#      x y z
#    x 5.441390 -0.000080 -0.002520 
#    y -0.000080 5.443860 -0.004130 
#    z -0.002520 -0.004130 5.057920 
# 
# 
# High freq. dielectric constant tensor:
#      x y z
#    x 2.011980 0.000000 -0.000020 
#    y 0.000000 2.011990 0.000000 
#    z -0.000020 0.000000 1.993280 
# 
# From -- ./inp_files/834.got.cif
#   From: 2010.03.12/outbox.cif.g09.slc.cpg/sg167_1_cif.got.tgz:834.got - 2010.04.02 06:42:56.
