data_PCOD8324965
_publ_section_title
;
Structure prediction by ZEFSAII (Michael W. Deem and Ramdas Pophale) SiO2 
 PCOD8324965
Probable space group: P -6
;
_chemical_formula_sum "Si O2"
_cell_formula_units_Z 24
_cell_length_a 8.517052
_cell_length_b 8.517052
_cell_length_c 18.694224
_cell_angle_alpha 90.000000
_cell_angle_beta 90.000000
_cell_angle_gamma 120.000000
_cell_volume 1174.401701
_symmetry_space_group_name_H-M "P -6"
_symmetry_group_IT_number 174
_symmetry_cell_setting 'hexagonal'
loop_
_space_group_symop_operation_xyz
x,y,z
-x+y,-x,-z
-y,x-y,z
x,y,-z
-x+y,-x,z
-y,x-y,-z
loop_
_atom_site_type_symbol
_atom_site_label
_atom_site_fract_x
_atom_site_fract_y
_atom_site_fract_z
Si Si1 0.694835 0.548519 0.500000
Si Si2 0.335458 0.342822 0.709752
Si Si3 0.879004 0.522754 0.000000
Si Si4 0.333527 0.011229 0.652307
Si Si5 0.353268 0.475751 0.865859
O O1 0.856201 0.498201 0.500000
O O2 0.713771 0.672562 0.432251
O O3 0.195595 0.395292 0.674544
O O4 0.529327 0.462612 0.672697
O O5 0.357240 0.377643 0.794001
O O6 0.271258 0.133875 0.695668
O O7 0.687526 0.521253 0.000000
O O8 0.994181 0.630179 0.931079
O O9 0.520051 0.684631 0.869076
#
# Coordination Sequence:
#
# PCOD8324965 Si02
#       5
#     3   6   3   6   6
#     4  10  20  42  66  96 130 184 222 286 362 408
#     4  12  24  43  66 105 129 189 225 293 336 420
#     4  10  24  36  62 106 126 170 226 270 332 404
#     4  12  24  42  68  96 140 172 240 282 352 414
#     4  10  21  42  67  91 136 179 220 269 344 405
#
# _framework density 20.435938
#
# number of rings (size 3 to 8) (size 9 to 14) (size 15 to 20)
#    1.000    0.000    5.000    2.250    3.500    2.000 
#    0.000    0.000    0.000    4.000    0.000    0.000 
#    0.000    0.000    0.000    0.000    0.000    0.000 
#
# Total GULP energy -297615.189112 kJ/mol
# GULP energy per Si atom -12400.632880 kJ/mol
# Density = 2.038942 g / cm^3
# Si number density = 20.435938 Si / 1000 Ang^3
#
#
#
# Elastic Constant Matrix: (Units=GPa)
#
#
# Indices 1 2 3 4 5 6 
#
# 1 73.5952 7.8757 49.0000 0.0000 0.0000 0.0000
# 2 7.8757 73.5952 49.0000 0.0000 0.0000 0.0000
# 3 49.0000 49.0000 201.7803 0.0000 0.0000 0.0000
# 4 0.0000 0.0000 0.0000 26.6080 0.0000 0.0000
# 5 0.0000 0.0000 0.0000 0.0000 26.6080 0.0000
# 6 0.0000 0.0000 0.0000 0.0000 0.0000 32.8597
#
#
#
# Elastic Compliance Matrix: (Units=1/GPa)
#
#
# Indices 1 2 3 4 5 6 
#
# 1 0.016278 0.001062 -0.004211 0.000000 0.000000 0.000000
# 2 0.001062 0.016278 -0.004211 0.000000 0.000000 0.000000
# 3 -0.004211 -0.004211 0.007001 0.000000 0.000000 0.000000
# 4 0.000000 0.000000 0.000000 0.037583 0.000000 0.000000
# 5 0.000000 0.000000 0.000000 0.000000 0.037583 0.000000
# 6 0.000000 0.000000 0.000000 0.000000 0.000000 0.030432
#
#
# Mechanical properties :
#
#
# Convention : Reuss Voigt Hill
#
# Bulk Modulus (GPa) = 40.26283 62.30245 51.28264
# Shear Modulus (GPa) = 29.73491 33.42147 31.57819
#
# Velocity S-wave (km/s) = 3.81862 4.04843 3.93520
# Velocity P-wave (km/s) = 6.25997 7.23919 6.76732
#
# Compressibility (1/GPa) = 0.02483681
#
# Stress axis : x y z
#
# Youngs Moduli (GPa) = 61.43375 61.43375 142.83897
#
# Poissons Ratio (x) = -0.06521 0.60144
# Poissons Ratio (y) = -0.06521 0.60144
# Poissons Ratio (z) = 0.25867 0.25867
#
# Static dielectric constant tensor:
#      x y z
#    x 3.442080 0.000000 0.000000 
#    y 0.000000 3.442080 0.000000 
#    z 0.000000 0.000000 3.648790 
# 
# 
# High freq. dielectric constant tensor:
#      x y z
#    x 1.785350 0.000000 0.000000 
#    y 0.000000 1.785350 0.000000 
#    z 0.000000 0.000000 1.810760 
# 
# From -- ./inp_files/1036.got.cif
#   From: 2010.03.12/outbox.cif.g09.slc.cpg/sg174_cif.got.tgz:1036.got - 2010.04.02 06:54:58.
