data_PCOD8324701
_publ_section_title
;
Structure prediction by ZEFSAII (Michael W. Deem and Ramdas Pophale) SiO2 
 PCOD8324701
Probable space group: P 65
;
_chemical_formula_sum "Si O2"
_cell_formula_units_Z 30
_cell_length_a 11.091809
_cell_length_b 11.091809
_cell_length_c 12.599742
_cell_angle_alpha 90.000000
_cell_angle_beta 90.000000
_cell_angle_gamma 120.000000
_cell_volume 1342.446692
_symmetry_space_group_name_H-M "P 65"
_symmetry_group_IT_number 170
_symmetry_cell_setting 'hexagonal'
loop_
_space_group_symop_operation_xyz
x,y,z
x-y,x,5/6+z
-y,x-y,2/3+z
-x,-y,1/2+z
-x+y,-x,1/3+z
y,-x+y,1/6+z
loop_
_atom_site_type_symbol
_atom_site_label
_atom_site_fract_x
_atom_site_fract_y
_atom_site_fract_z
Si Si1 0.699580 0.235482 0.537660
Si Si2 0.411914 0.406510 0.030498
Si Si3 0.443798 0.156645 0.655530
Si Si4 0.180634 0.975336 0.540199
Si Si5 0.285949 0.833612 0.395469
O O1 0.702318 0.114133 0.608576
O O2 0.546664 0.220153 0.553555
O O3 0.727081 0.215079 0.414856
O O4 0.806653 0.391461 0.580581
O O5 0.373162 0.330017 0.144050
O O6 0.301222 0.455849 0.009042
O O7 0.568496 0.540266 0.035705
O O8 0.287178 0.100747 0.617033
O O9 0.148738 0.036647 0.435447
O O10 0.248934 0.881853 0.505400
#
# Coordination Sequence:
#
# PCOD8324701 Si02
#       5
#     6   6   6   6   6
#     4   9  22  41  68 109 135 171 230 295 353 413
#     4   9  22  39  68  98 137 178 219 286 345 410
#     4   9  23  41  67 106 134 175 223 297 354 403
#     4  12  28  49  67  98 140 198 237 290 351 430
#     4  11  21  42  68 101 136 180 233 278 353 412
#
# _framework density 22.347256999999999
#
# number of rings (size 3 to 8) (size 9 to 14) (size 15 to 20)
#    1.200    0.800    2.000    0.000    8.400    0.000 
#   10.800    0.000    0.000    0.000    0.000    0.000 
#    0.000    0.000    0.000    0.000    0.000    0.000 
#
# Total GULP energy -371689.108166 kJ/mol
# GULP energy per Si atom -12389.636939 kJ/mol
# Density = 2.229639 g / cm^3
# Si number density = 22.347257 Si / 1000 Ang^3
#
#
#
# Elastic Constant Matrix: (Units=GPa)
#
#
# Indices 1 2 3 4 5 6 
#
# 1 56.7426 10.2860 30.7627 0.0000 0.0000 0.0000
# 2 10.2860 56.7426 30.7627 0.0000 0.0000 0.0000
# 3 30.7627 30.7627 94.8986 0.0000 0.0000 0.0000
# 4 0.0000 0.0000 0.0000 39.3219 0.0000 0.0000
# 5 0.0000 0.0000 0.0000 0.0000 39.3219 0.0000
# 6 0.0000 0.0000 0.0000 0.0000 0.0000 23.2283
#
#
#
# Elastic Compliance Matrix: (Units=1/GPa)
#
#
# Indices 1 2 3 4 5 6 
#
# 1 0.021382 -0.000143 -0.006885 0.000000 0.000000 0.000000
# 2 -0.000143 0.021382 -0.006885 0.000000 0.000000 0.000000
# 3 -0.006885 -0.006885 0.015001 0.000000 0.000000 0.000000
# 4 0.000000 0.000000 0.000000 0.025431 0.000000 0.000000
# 5 0.000000 0.000000 0.000000 0.000000 0.025431 0.000000
# 6 0.000000 0.000000 0.000000 0.000000 0.000000 0.043051
#
#
# Mechanical properties :
#
#
# Convention : Reuss Voigt Hill
#
# Bulk Modulus (GPa) = 33.40112 39.11186 36.25649
# Shear Modulus (GPa) = 26.38746 29.47925 27.93335
#
# Velocity S-wave (km/s) = 3.43999 3.63594 3.53932
# Velocity P-wave (km/s) = 5.54589 5.93015 5.74123
#
# Compressibility (1/GPa) = 0.02993912
#
# Stress axis : x y z
#
# Youngs Moduli (GPa) = 46.76834 46.76834 66.66160
#
# Poissons Ratio (x) = 0.00671 0.45895
# Poissons Ratio (y) = 0.00671 0.45895
# Poissons Ratio (z) = 0.32199 0.32199
#
# Static dielectric constant tensor:
#      x y z
#    x 3.716610 0.000000 0.000000 
#    y 0.000000 3.716610 0.000000 
#    z 0.000000 0.000000 3.844000 
# 
# 
# High freq. dielectric constant tensor:
#      x y z
#    x 1.859440 0.000000 0.000000 
#    y 0.000000 1.859440 0.000000 
#    z 0.000000 0.000000 1.877130 
# 
# From -- ./inp_files/1149.got.cif
#   From: 2010.03.12/outbox.cif.g09.slc.cpg/sg170_cif.got.tgz:1149.got - 2010.04.02 06:47:37.
