data_PCOD8324252
_publ_section_title
;
Structure prediction by ZEFSAII (Michael W. Deem and Ramdas Pophale) SiO2 
 PCOD8324252
Probable space group: R -3 M
;
_chemical_formula_sum "Si O2"
_cell_formula_units_Z 162
_cell_length_a 21.049423
_cell_length_b 21.049423
_cell_length_c 21.768274
_cell_angle_alpha 90.000000
_cell_angle_beta 90.000000
_cell_angle_gamma 120.000000
_cell_volume 8352.856458
_symmetry_space_group_name_H-M "R -3 M"
_symmetry_group_IT_number 166
_symmetry_cell_setting 'hexagonal'
loop_
_space_group_symop_operation_xyz
x,y,z
-y,x-y,z
-x+y,-x,z
x-y,-y,-z
-x,-x+y,-z
y,x,-z
-x,-y,-z
y,-x+y,-z
x-y,x,-z
-x+y,y,z
x,x-y,z
-y,-x,z
2/3+x,1/3+y,1/3+z
2/3-y,1/3+x-y,1/3+z
2/3-x+y,1/3-x,1/3+z
2/3+x-y,1/3-y,1/3-z
2/3-x,1/3-x+y,1/3-z
2/3+y,1/3+x,1/3-z
2/3-x,1/3-y,1/3-z
2/3+y,1/3-x+y,1/3-z
2/3+x-y,1/3+x,1/3-z
2/3-x+y,1/3+y,1/3+z
2/3+x,1/3+x-y,1/3+z
2/3-y,1/3-x,1/3+z
1/3+x,2/3+y,2/3+z
1/3-y,2/3+x-y,2/3+z
1/3-x+y,2/3-x,2/3+z
1/3+x-y,2/3-y,2/3-z
1/3-x,2/3-x+y,2/3-z
1/3+y,2/3+x,2/3-z
1/3-x,2/3-y,2/3-z
1/3+y,2/3-x+y,2/3-z
1/3+x-y,2/3+x,2/3-z
1/3-x+y,2/3+y,2/3+z
1/3+x,2/3+x-y,2/3+z
1/3-y,2/3-x,2/3+z
loop_
_atom_site_type_symbol
_atom_site_label
_atom_site_fract_x
_atom_site_fract_y
_atom_site_fract_z
Si Si1 0.593436 0.868012 0.218551
Si Si2 0.903665 0.380250 0.102379
Si Si3 0.378175 0.905652 0.319917
Si Si4 0.333334 0.945066 0.666667
Si Si5 0.740972 0.944292 0.871884
O O1 0.581503 0.790752 0.192877
O O2 0.579208 0.912542 0.166667
O O3 0.676334 0.917431 0.242568
O O4 0.535295 0.849831 0.273836
O O5 0.878357 0.439179 0.090201
O O6 0.879486 0.349753 0.171189
O O7 0.860350 0.311942 0.056477
O O8 0.454765 0.909530 0.306752
O O9 0.382708 0.982441 0.304346
O O10 0.298395 0.888998 0.723460
O O11 0.760108 0.880054 0.869671
O O12 0.666667 0.921504 0.833334
#
# Coordination Sequence:
#
# PCOD8324252 Si02
#       5
#    36  36  36  18  36
#     4  11  22  38  59  87 122 159 203 256 308 367
#     4  11  22  38  61  88 123 161 206 258 310 372
#     4  12  22  37  61  88 123 162 202 255 310 371
#     4  12  22  36  61  94 127 156 202 254 312 376
#     4  11  22  39  61  90 126 162 203 257 317 373
#
# _framework density 19.394563999999999
#
# number of rings (size 3 to 8) (size 9 to 14) (size 15 to 20)
#    0.000    0.667    4.444    4.667    0.000    5.333 
#    0.000    0.000    0.000   12.889    0.000    0.778 
#    0.000    0.000    0.000    0.000    0.000    0.000 
#
# Total GULP energy -669566.138652 kJ/mol
# GULP energy per Si atom -12399.372938 kJ/mol
# Density = 1.935042 g / cm^3
# Si number density = 19.394564 Si / 1000 Ang^3
#
#
#
# Elastic Constant Matrix: (Units=GPa)
#
#
# Indices 1 2 3 4 5 6 
#
# 1 92.8855 48.4466 22.0170 -1.5285 0.0001 0.0000
# 2 48.4466 92.8855 22.0170 1.5285 -0.0001 0.0000
# 3 22.0170 22.0170 96.4788 0.0000 0.0000 0.0000
# 4 -1.5285 1.5285 0.0000 27.5946 0.0000 -0.0001
# 5 0.0001 -0.0001 0.0000 0.0000 27.5946 -1.5285
# 6 0.0000 0.0000 0.0000 -0.0001 -1.5285 22.2195
#
#
#
# Elastic Compliance Matrix: (Units=1/GPa)
#
#
# Indices 1 2 3 4 5 6 
#
# 1 0.015103 -0.007486 -0.001738 0.001251 0.000000 0.000000
# 2 -0.007486 0.015103 -0.001738 -0.001251 0.000000 0.000000
# 3 -0.001738 -0.001738 0.011158 0.000000 0.000000 0.000000
# 4 0.001251 -0.001251 0.000000 0.036378 0.000000 0.000000
# 5 0.000000 0.000000 0.000000 0.000000 0.036378 0.002502
# 6 0.000000 0.000000 0.000000 0.000000 0.002502 0.045178
#
#
# Mechanical properties :
#
#
# Convention : Reuss Voigt Hill
#
# Bulk Modulus (GPa) = 51.44165 51.91232 51.67698
# Shear Modulus (GPa) = 26.63800 28.13303 27.38552
#
# Velocity S-wave (km/s) = 3.71007 3.81276 3.76176
# Velocity P-wave (km/s) = 6.70329 6.79760 6.75061
#
# Compressibility (1/GPa) = 0.01943950
#
# Stress axis : x y z
#
# Youngs Moduli (GPa) = 66.21211 66.21211 89.61913
#
# Poissons Ratio (x) = 0.49565 0.15578
# Poissons Ratio (y) = 0.49565 0.15578
# Poissons Ratio (z) = 0.11509 0.11509
#
# Static dielectric constant tensor:
#      x y z
#    x 3.426410 0.000000 0.000000 
#    y 0.000000 3.426410 0.000000 
#    z 0.000000 0.000000 3.749730 
# 
# 
# High freq. dielectric constant tensor:
#      x y z
#    x 1.738780 0.000000 0.000000 
#    y 0.000000 1.738780 0.000000 
#    z 0.000000 0.000000 1.771150 
# 
# From -- ./inp_files/6786.got.cif
#   From: 2010.03.12/outbox.cif.g09.slc.cpg/sg166_4_cif.got.tgz:6786.got - 2010.04.02 06:38:31.
