data_PCOD8324481
_publ_section_title
;
Structure prediction by ZEFSAII (Michael W. Deem and Ramdas Pophale) SiO2 
 PCOD8324481
Probable space group: P 61
;
_chemical_formula_sum "Si O2"
_cell_formula_units_Z 36
_cell_length_a 13.967170
_cell_length_b 13.967170
_cell_length_c 10.394785
_cell_angle_alpha 90.000000
_cell_angle_beta 90.000000
_cell_angle_gamma 120.000000
_cell_volume 1756.155552
_symmetry_space_group_name_H-M "P 61"
_symmetry_group_IT_number 169
_symmetry_cell_setting 'hexagonal'
loop_
_space_group_symop_operation_xyz
x,y,z
x-y,x,1/6+z
-y,x-y,1/3+z
-x,-y,1/2+z
-x+y,-x,2/3+z
y,-x+y,5/6+z
loop_
_atom_site_type_symbol
_atom_site_label
_atom_site_fract_x
_atom_site_fract_y
_atom_site_fract_z
Si Si1 0.267732 0.452251 0.378450
Si Si2 0.266362 0.342467 0.962890
Si Si3 0.577175 0.518386 0.668569
Si Si4 0.828862 0.440850 0.718866
Si Si5 0.418727 0.315102 0.796439
Si Si6 0.214587 0.145812 0.156042
O O1 0.355926 0.430182 0.301684
O O2 0.266398 0.551464 0.296770
O O3 0.318306 0.509326 0.517289
O O4 0.153986 0.334120 0.387612
O O5 0.339676 0.451241 0.049588
O O6 0.159036 0.347229 0.921845
O O7 0.237434 0.230894 0.040055
O O8 0.328862 0.351427 0.830533
O O9 0.500085 0.570682 0.650270
O O10 0.497057 0.385858 0.678839
O O11 0.845188 0.509649 0.590339
O O12 0.134831 0.155922 0.262828
#
# Coordination Sequence:
#
# PCOD8324481 Si02
#       6
#     6   6   6   6   6   6
#     4  11  19  38  63  89 121 159 210 249 307 370
#     4  11  17  37  61  86 113 160 200 246 301 362
#     4  10  19  37  56  89 119 153 196 244 307 365
#     4  10  20  36  56  86 120 157 195 248 297 371
#     4  10  20  33  61  86 115 152 203 252 295 364
#     4  12  21  39  67  88 112 159 212 257 301 370
#
# _framework density 20.499320999999998
#
# number of rings (size 3 to 8) (size 9 to 14) (size 15 to 20)
#    0.000    1.333    8.333    0.000    0.000    0.000 
#    6.000    3.333    0.000    0.000    0.000    0.000 
#    0.000    0.000    0.000    0.000    0.000    0.000 
#
# Total GULP energy -445988.341622 kJ/mol
# GULP energy per Si atom -12388.565045 kJ/mol
# Density = 2.045266 g / cm^3
# Si number density = 20.499321 Si / 1000 Ang^3
#
#
#
# Elastic Constant Matrix: (Units=GPa)
#
#
# Indices 1 2 3 4 5 6 
#
# 1 116.0650 58.7488 39.1558 0.0000 0.0000 0.0000
# 2 58.7488 116.0650 39.1558 0.0000 0.0000 0.0000
# 3 39.1558 39.1558 45.1902 0.0000 0.0000 0.0000
# 4 0.0000 0.0000 0.0000 19.4637 0.0000 0.0000
# 5 0.0000 0.0000 0.0000 0.0000 19.4637 0.0000
# 6 0.0000 0.0000 0.0000 0.0000 0.0000 28.6581
#
#
#
# Elastic Compliance Matrix: (Units=1/GPa)
#
#
# Indices 1 2 3 4 5 6 
#
# 1 0.013398 -0.004049 -0.008101 0.000000 0.000000 0.000000
# 2 -0.004049 0.013398 -0.008101 0.000000 0.000000 0.000000
# 3 -0.008101 -0.008101 0.036167 0.000000 0.000000 0.000000
# 4 0.000000 0.000000 0.000000 0.051378 0.000000 0.000000
# 5 0.000000 0.000000 0.000000 0.000000 0.051378 0.000000
# 6 0.000000 0.000000 0.000000 0.000000 0.000000 0.034894
#
#
# Mechanical properties :
#
#
# Convention : Reuss Voigt Hill
#
# Bulk Modulus (GPa) = 44.51944 61.27124 52.89534
# Shear Modulus (GPa) = 20.11250 22.86775 21.49012
#
# Velocity S-wave (km/s) = 3.13570 3.34359 3.24131
# Velocity P-wave (km/s) = 5.90549 6.69779 6.31408
#
# Compressibility (1/GPa) = 0.02246210
#
# Stress axis : x y z
#
# Youngs Moduli (GPa) = 74.63683 74.63683 27.64951
#
# Poissons Ratio (x) = 0.30219 0.22399
# Poissons Ratio (y) = 0.30219 0.22399
# Poissons Ratio (z) = 0.60463 0.60463
#
# Static dielectric constant tensor:
#      x y z
#    x 3.922800 0.000000 0.000000 
#    y 0.000000 3.922800 0.000000 
#    z 0.000000 0.000000 3.458950 
# 
# 
# High freq. dielectric constant tensor:
#      x y z
#    x 1.803460 0.000000 0.000000 
#    y 0.000000 1.803460 0.000000 
#    z 0.000000 0.000000 1.755990 
# 
# From -- ./inp_files/903.got.cif
#   From: 2010.03.12/outbox.cif.g09.slc.cpg/sg169_cif.got.tgz:903.got - 2010.04.02 06:46:06.
