data_PCOD8324208
_publ_section_title
;
Structure prediction by ZEFSAII (Michael W. Deem and Ramdas Pophale) SiO2 
 PCOD8324208
Probable space group: R -3 M
;
_chemical_formula_sum "Si O2"
_cell_formula_units_Z 132
_cell_length_a 18.251376
_cell_length_b 18.251376
_cell_length_c 24.700243
_cell_angle_alpha 90.000000
_cell_angle_beta 90.000000
_cell_angle_gamma 120.000000
_cell_volume 7125.626950
_symmetry_space_group_name_H-M "R -3 M"
_symmetry_group_IT_number 166
_symmetry_cell_setting 'hexagonal'
loop_
_space_group_symop_operation_xyz
x,y,z
-y,x-y,z
-x+y,-x,z
x-y,-y,-z
-x,-x+y,-z
y,x,-z
-x,-y,-z
y,-x+y,-z
x-y,x,-z
-x+y,y,z
x,x-y,z
-y,-x,z
2/3+x,1/3+y,1/3+z
2/3-y,1/3+x-y,1/3+z
2/3-x+y,1/3-x,1/3+z
2/3+x-y,1/3-y,1/3-z
2/3-x,1/3-x+y,1/3-z
2/3+y,1/3+x,1/3-z
2/3-x,1/3-y,1/3-z
2/3+y,1/3-x+y,1/3-z
2/3+x-y,1/3+x,1/3-z
2/3-x+y,1/3+y,1/3+z
2/3+x,1/3+x-y,1/3+z
2/3-y,1/3-x,1/3+z
1/3+x,2/3+y,2/3+z
1/3-y,2/3+x-y,2/3+z
1/3-x+y,2/3-x,2/3+z
1/3+x-y,2/3-y,2/3-z
1/3-x,2/3-x+y,2/3-z
1/3+y,2/3+x,2/3-z
1/3-x,2/3-y,2/3-z
1/3+y,2/3-x+y,2/3-z
1/3+x-y,2/3+x,2/3-z
1/3-x+y,2/3+y,2/3+z
1/3+x,2/3+x-y,2/3+z
1/3-y,2/3-x,2/3+z
loop_
_atom_site_type_symbol
_atom_site_label
_atom_site_fract_x
_atom_site_fract_y
_atom_site_fract_z
Si Si1 0.827803 0.655605 0.499179
Si Si2 0.085789 0.666667 0.666667
Si Si3 0.133413 0.266826 0.284860
Si Si4 0.904852 0.809703 0.920372
Si Si5 0.550278 0.619195 0.402369
Si Si6 0.983764 0.650431 0.833334
Si Si7 0.333334 0.666667 0.731507
O O1 0.827584 0.655167 0.563698
O O2 0.781107 0.562214 0.472976
O O3 0.925452 0.700288 0.479038
O O4 0.152417 0.700983 0.618368
O O5 0.075580 0.744012 0.687389
O O6 0.166667 0.333334 0.333334
O O7 0.176592 0.208109 0.286020
O O8 0.954061 0.908122 0.910311
O O9 0.457926 0.542075 0.418123
O O10 0.612541 0.647942 0.453506
O O11 0.333335 0.666668 0.666667
#
# Coordination Sequence:
#
# PCOD8324208 Si02
#       7
#    18  18  18  18  36  18   6
#     4  10  22  38  62  87 114 162 207 255 310 367
#     4  12  20  32  60  86 116 156 200 252 290 366
#     4  10  22  42  60  81 117 154 203 259 318 365
#     4  12  22  38  54  89 130 166 215 238 311 369
#     4  11  22  37  59  87 114 155 198 250 307 368
#     4  10  21  38  60  87 122 154 202 254 305 372
#     4  12  24  36  54  84 141 189 198 252 306 364
#
# _framework density 18.524685000000002
#
# number of rings (size 3 to 8) (size 9 to 14) (size 15 to 20)
#    0.000    1.091    6.818    0.409    0.000    0.000 
#   10.636    0.000    0.000    0.273    0.000    0.000 
#    0.000    0.000    0.000    0.000    0.000    0.000 
#
# Total GULP energy -545484.676060 kJ/mol
# GULP energy per Si atom -12397.379001 kJ/mol
# Density = 1.848252 g / cm^3
# Si number density = 18.524685 Si / 1000 Ang^3
#
#
#
# Elastic Constant Matrix: (Units=GPa)
#
#
# Indices 1 2 3 4 5 6 
#
# 1 142.9372 86.5970 30.7797 4.9520 0.0005 0.0000
# 2 86.5970 142.9375 30.7797 -4.9516 -0.0005 0.0000
# 3 30.7797 30.7797 81.4973 0.0000 0.0000 0.0000
# 4 4.9520 -4.9516 0.0000 23.1618 0.0000 -0.0005
# 5 0.0005 -0.0005 0.0000 0.0000 23.1618 4.9519
# 6 0.0000 0.0000 0.0000 -0.0005 4.9519 28.1701
#
#
#
# Elastic Compliance Matrix: (Units=1/GPa)
#
#
# Indices 1 2 3 4 5 6 
#
# 1 0.011645 -0.006797 -0.001831 -0.003943 0.000000 0.000000
# 2 -0.006797 0.011645 -0.001831 0.003943 0.000000 0.000000
# 3 -0.001831 -0.001831 0.013653 0.000000 0.000000 0.000000
# 4 -0.003943 0.003943 0.000000 0.044860 0.000000 0.000001
# 5 0.000000 0.000000 0.000000 0.000000 0.044860 -0.007886
# 6 0.000000 0.000000 0.000000 0.000001 -0.007886 0.036885
#
#
# Mechanical properties :
#
#
# Convention : Reuss Voigt Hill
#
# Bulk Modulus (GPa) = 62.40170 73.74276 68.07223
# Shear Modulus (GPa) = 26.34229 29.51311 27.92770
#
# Velocity S-wave (km/s) = 3.77505 3.99579 3.88699
# Velocity P-wave (km/s) = 7.26362 7.82194 7.54794
#
# Compressibility (1/GPa) = 0.01602520
#
# Stress axis : x y z
#
# Youngs Moduli (GPa) = 85.87356 85.87380 73.24242
#
# Poissons Ratio (x) = 0.58371 0.13410
# Poissons Ratio (y) = 0.58371 0.13410
# Poissons Ratio (z) = 0.15722 0.15722
#
# Static dielectric constant tensor:
#      x y z
#    x 3.679620 0.000000 0.000000 
#    y 0.000000 3.679620 0.000000 
#    z 0.000000 0.000000 3.333210 
# 
# 
# High freq. dielectric constant tensor:
#      x y z
#    x 1.716670 0.000000 0.000000 
#    y 0.000000 1.716670 0.000000 
#    z 0.000000 0.000000 1.716410 
# 
# From -- ./inp_files/7930.got.cif
#   From: 2010.03.12/outbox.cif.g09.slc.cpg/sg166_4_cif.got.tgz:7930.got - 2010.04.02 06:38:31.
