data_PCOD8324770
_publ_section_title
;
Structure prediction by ZEFSAII (Michael W. Deem and Ramdas Pophale) SiO2 
 PCOD8324770
Probable space group: P 62
;
_chemical_formula_sum "Si O2"
_cell_formula_units_Z 36
_cell_length_a 12.668050
_cell_length_b 12.668050
_cell_length_c 13.478874
_cell_angle_alpha 90.000000
_cell_angle_beta 90.000000
_cell_angle_gamma 120.000000
_cell_volume 1873.284687
_symmetry_space_group_name_H-M "P 62"
_symmetry_group_IT_number 171
_symmetry_cell_setting 'hexagonal'
loop_
_space_group_symop_operation_xyz
x,y,z
x-y,x,1/3+z
-y,x-y,2/3+z
-x,-y,z
-x+y,-x,1/3+z
y,-x+y,2/3+z
loop_
_atom_site_type_symbol
_atom_site_label
_atom_site_fract_x
_atom_site_fract_y
_atom_site_fract_z
Si Si1 0.818453 0.928161 0.293430
Si Si2 0.634609 0.430895 0.322038
Si Si3 0.295844 0.917259 0.236604
Si Si4 0.000000 0.000000 0.465784
Si Si5 0.582053 0.252063 0.503804
Si Si6 0.500000 0.000000 0.394134
Si Si7 0.340124 0.971319 0.013103
O O1 0.701509 0.797977 0.309950
O O2 0.801581 0.039958 0.257489
O O3 0.891923 0.908007 0.205092
O O4 0.884213 0.965756 0.398652
O O5 0.628700 0.359683 0.422874
O O6 0.711769 0.407546 0.241261
O O7 0.496491 0.388156 0.289330
O O8 0.696539 0.579040 0.327900
O O9 0.239596 0.771058 0.235745
O O10 0.390877 0.981316 0.324462
O O11 0.356869 0.964981 0.130476
O O12 0.539122 0.119459 0.459549
#
# Coordination Sequence:
#
# PCOD8324770 Si02
#       7
#     6   6   6   3   6   3   6
#     4  11  22  41  62  93 124 169 214 269 323 394
#     4  10  22  41  62  92 129 160 217 259 331 387
#     4  11  21  40  67  92 123 171 220 270 317 399
#     4  10  24  40  60  90 128 162 216 266 322 382
#     4  11  23  42  64  97 130 171 212 284 326 400
#     4  12  24  38  68  96 130 164 226 266 330 390
#     4  10  22  39  68  93 121 172 218 261 327 397
#
# _framework density 19.217582
#
# number of rings (size 3 to 8) (size 9 to 14) (size 15 to 20)
#    0.000    1.333    3.333    4.000    2.333    1.333 
#    3.000    1.667    0.000    0.000    0.000    0.000 
#    0.000    0.000    0.000    0.000    0.000    0.000 
#
# Total GULP energy -446098.147424 kJ/mol
# GULP energy per Si atom -12391.615206 kJ/mol
# Density = 1.917384 g / cm^3
# Si number density = 19.217582 Si / 1000 Ang^3
#
#
#
# Elastic Constant Matrix: (Units=GPa)
#
#
# Indices 1 2 3 4 5 6 
#
# 1 101.7532 40.2688 48.0093 0.0000 0.0000 0.0000
# 2 40.2688 101.7532 48.0093 0.0000 0.0000 0.0000
# 3 48.0093 48.0093 99.5403 0.0000 0.0000 0.0000
# 4 0.0000 0.0000 0.0000 252.9917 0.0000 0.0000
# 5 0.0000 0.0000 0.0000 0.0000 252.9917 0.0000
# 6 0.0000 0.0000 0.0000 0.0000 0.0000 30.7422
#
#
#
# Elastic Compliance Matrix: (Units=1/GPa)
#
#
# Indices 1 2 3 4 5 6 
#
# 1 0.013356 -0.002908 -0.005039 0.000000 0.000000 0.000000
# 2 -0.002908 0.013356 -0.005039 0.000000 0.000000 0.000000
# 3 -0.005039 -0.005039 0.014907 0.000000 0.000000 0.000000
# 4 0.000000 0.000000 0.000000 0.003953 0.000000 0.000000
# 5 0.000000 0.000000 0.000000 0.000000 0.003953 0.000000
# 6 0.000000 0.000000 0.000000 0.000000 0.000000 0.032529
#
#
# Mechanical properties :
#
#
# Convention : Reuss Voigt Hill
#
# Bulk Modulus (GPa) = 63.91241 63.95796 63.93519
# Shear Modulus (GPa) = 44.15316 118.46239 81.30777
#
# Velocity S-wave (km/s) = 4.79847 7.85980 6.51160
# Velocity P-wave (km/s) = 8.00186 10.75741 9.48029
#
# Compressibility (1/GPa) = 0.01564641
#
# Stress axis : x y z
#
# Youngs Moduli (GPa) = 74.87156 74.87156 67.08196
#
# Poissons Ratio (x) = 0.21773 0.33804
# Poissons Ratio (y) = 0.21773 0.33804
# Poissons Ratio (z) = 0.37730 0.37730
#
# Static dielectric constant tensor:
#      x y z
#    x 1.693320 0.000000 0.000000 
#    y 0.000000 1.693320 0.000000 
#    z 0.000000 0.000000 3.535740 
# 
# 
# High freq. dielectric constant tensor:
#      x y z
#    x 1.749950 0.000000 0.000000 
#    y 0.000000 1.749950 0.000000 
#    z 0.000000 0.000000 1.745710 
# 
# From -- ./inp_files/1953.got.cif
#   From: 2010.03.12/outbox.cif.g09.slc.cpg/sg171_1_cif.got.tgz:1953.got - 2010.04.02 06:49:11.
