data_PCOD8324092
_publ_section_title
;
Structure prediction by ZEFSAII (Michael W. Deem and Ramdas Pophale) SiO2 
 PCOD8324092
Probable space group: R -3 M
;
_chemical_formula_sum "Si O2"
_cell_formula_units_Z 126
_cell_length_a 26.105795
_cell_length_b 26.105795
_cell_length_c 10.692975
_cell_angle_alpha 90.000000
_cell_angle_beta 90.000000
_cell_angle_gamma 120.000000
_cell_volume 6311.070473
_symmetry_space_group_name_H-M "R -3 M"
_symmetry_group_IT_number 166
_symmetry_cell_setting 'hexagonal'
loop_
_space_group_symop_operation_xyz
x,y,z
-y,x-y,z
-x+y,-x,z
x-y,-y,-z
-x,-x+y,-z
y,x,-z
-x,-y,-z
y,-x+y,-z
x-y,x,-z
-x+y,y,z
x,x-y,z
-y,-x,z
2/3+x,1/3+y,1/3+z
2/3-y,1/3+x-y,1/3+z
2/3-x+y,1/3-x,1/3+z
2/3+x-y,1/3-y,1/3-z
2/3-x,1/3-x+y,1/3-z
2/3+y,1/3+x,1/3-z
2/3-x,1/3-y,1/3-z
2/3+y,1/3-x+y,1/3-z
2/3+x-y,1/3+x,1/3-z
2/3-x+y,1/3+y,1/3+z
2/3+x,1/3+x-y,1/3+z
2/3-y,1/3-x,1/3+z
1/3+x,2/3+y,2/3+z
1/3-y,2/3+x-y,2/3+z
1/3-x+y,2/3-x,2/3+z
1/3+x-y,2/3-y,2/3-z
1/3-x,2/3-x+y,2/3-z
1/3+y,2/3+x,2/3-z
1/3-x,2/3-y,2/3-z
1/3+y,2/3-x+y,2/3-z
1/3+x-y,2/3+x,2/3-z
1/3-x+y,2/3+y,2/3+z
1/3+x,2/3+x-y,2/3+z
1/3-y,2/3-x,2/3+z
loop_
_atom_site_type_symbol
_atom_site_label
_atom_site_fract_x
_atom_site_fract_y
_atom_site_fract_z
Si Si1 0.967503 0.191772 0.657628
Si Si2 0.795540 0.087081 0.411582
Si Si3 0.114707 0.000000 0.500000
Si Si4 0.241167 0.178094 0.937656
O O1 0.929324 0.206180 0.558676
O O2 0.935855 0.171896 0.788807
O O3 0.031431 0.250069 0.674989
O O4 0.975643 0.137948 0.610751
O O5 0.860588 0.139413 0.378110
O O6 0.747202 0.105067 0.372376
O O7 0.052708 0.947293 0.551226
O O8 0.228021 0.114011 0.990039
O O9 0.196403 0.196403 0.000000
#
# Coordination Sequence:
#
# PCOD8324092 Si02
#       4
#    36  36  18  36
#     4  10  19  35  58  81 111 147 186 227 277 338
#     4   9  19  35  57  83 108 138 180 234 282 320
#     4  10  19  32  54  82 110 144 193 254 302 328
#     4  11  24  39  56  81 115 152 185 219 268 333
#
# _framework density 19.964915999999999
#
# number of rings (size 3 to 8) (size 9 to 14) (size 15 to 20)
#    0.000    2.286    0.000    6.143    0.000   10.286 
#    0.000    2.857    0.000    0.286    0.000    0.000 
#    0.000    0.000    0.000    0.000    0.000    0.000 
#
# Total GULP energy -520635.836084 kJ/mol
# GULP energy per Si atom -12396.091335 kJ/mol
# Density = 1.991948 g / cm^3
# Si number density = 19.964916 Si / 1000 Ang^3
#
#
#
# Elastic Constant Matrix: (Units=GPa)
#
#
# Indices 1 2 3 4 5 6 
#
# 1 118.8084 62.8485 9.1793 3.2488 0.0005 -0.0003
# 2 62.8485 118.8081 9.1759 -3.2476 -0.0021 0.0002
# 3 9.1793 9.1759 28.9083 0.0050 -0.0024 0.0002
# 4 3.2488 -3.2476 0.0050 15.2513 0.0006 0.0006
# 5 0.0005 -0.0021 -0.0024 0.0006 15.2505 3.2471
# 6 -0.0003 0.0002 0.0002 0.0006 3.2471 27.9804
#
#
#
# Elastic Compliance Matrix: (Units=1/GPa)
#
#
# Indices 1 2 3 4 5 6 
#
# 1 0.012005 -0.006318 -0.001806 -0.003902 -0.000001 0.000000
# 2 -0.006318 0.012005 -0.001805 0.003903 0.000001 0.000000
# 3 -0.001806 -0.001805 0.035739 -0.000011 0.000006 -0.000001
# 4 -0.003902 0.003903 -0.000011 0.067231 -0.000002 -0.000001
# 5 -0.000001 0.000001 0.000006 -0.000002 0.067233 -0.007802
# 6 0.000000 0.000000 -0.000001 -0.000001 -0.007802 0.036645
#
#
# Mechanical properties :
#
#
# Convention : Reuss Voigt Hill
#
# Bulk Modulus (GPa) = 25.06833 47.65913 36.36373
# Shear Modulus (GPa) = 18.93853 24.05119 21.49486
#
# Velocity S-wave (km/s) = 3.08326 3.47460 3.28477
# Velocity P-wave (km/s) = 5.02581 6.32617 5.71311
#
# Compressibility (1/GPa) = 0.03989098
#
# Stress axis : x y z
#
# Youngs Moduli (GPa) = 83.29705 83.29779 27.98095
#
# Poissons Ratio (x) = 0.52626 0.05053
# Poissons Ratio (y) = 0.52626 0.05051
# Poissons Ratio (z) = 0.15043 0.15037
#
# Static dielectric constant tensor:
#      x y z
#    x 3.707530 0.000000 -0.000010 
#    y 0.000000 3.707540 0.000000 
#    z -0.000010 0.000000 3.209810 
# 
# 
# High freq. dielectric constant tensor:
#      x y z
#    x 1.787950 0.000000 0.000000 
#    y 0.000000 1.787950 0.000000 
#    z 0.000000 0.000000 1.743160 
# 
# From -- ./inp_files/2847.got.cif
#   From: 2010.03.12/outbox.cif.g09.slc.cpg/sg166_2_cif.got.tgz:2847.got - 2010.04.02 06:38:31.
