data_PCOD8324047
_publ_section_title
;
Structure prediction by ZEFSAII (Michael W. Deem and Ramdas Pophale) SiO2 
 PCOD8324047
Probable space group: R -3 M
;
_chemical_formula_sum "Si O2"
_cell_formula_units_Z 216
_cell_length_a 26.024132
_cell_length_b 26.024132
_cell_length_c 23.103873
_cell_angle_alpha 90.000000
_cell_angle_beta 90.000000
_cell_angle_gamma 120.000000
_cell_volume 13550.893328
_symmetry_space_group_name_H-M "R -3 M"
_symmetry_group_IT_number 166
_symmetry_cell_setting 'hexagonal'
loop_
_space_group_symop_operation_xyz
x,y,z
-y,x-y,z
-x+y,-x,z
x-y,-y,-z
-x,-x+y,-z
y,x,-z
-x,-y,-z
y,-x+y,-z
x-y,x,-z
-x+y,y,z
x,x-y,z
-y,-x,z
2/3+x,1/3+y,1/3+z
2/3-y,1/3+x-y,1/3+z
2/3-x+y,1/3-x,1/3+z
2/3+x-y,1/3-y,1/3-z
2/3-x,1/3-x+y,1/3-z
2/3+y,1/3+x,1/3-z
2/3-x,1/3-y,1/3-z
2/3+y,1/3-x+y,1/3-z
2/3+x-y,1/3+x,1/3-z
2/3-x+y,1/3+y,1/3+z
2/3+x,1/3+x-y,1/3+z
2/3-y,1/3-x,1/3+z
1/3+x,2/3+y,2/3+z
1/3-y,2/3+x-y,2/3+z
1/3-x+y,2/3-x,2/3+z
1/3+x-y,2/3-y,2/3-z
1/3-x,2/3-x+y,2/3-z
1/3+y,2/3+x,2/3-z
1/3-x,2/3-y,2/3-z
1/3+y,2/3-x+y,2/3-z
1/3+x-y,2/3+x,2/3-z
1/3-x+y,2/3+y,2/3+z
1/3+x,2/3+x-y,2/3+z
1/3-y,2/3-x,2/3+z
loop_
_atom_site_type_symbol
_atom_site_label
_atom_site_fract_x
_atom_site_fract_y
_atom_site_fract_z
Si Si1 0.212249 0.666734 0.336756
Si Si2 0.256183 0.268621 0.860619
Si Si3 0.805907 0.963057 0.558242
Si Si4 0.776573 0.670803 0.422188
Si Si5 0.319421 0.218215 0.042264
Si Si6 0.830079 0.779208 0.239451
O O1 0.224403 0.612202 0.336655
O O2 0.273291 0.726710 0.345743
O O3 0.182846 0.669157 0.276238
O O4 0.169161 0.660683 0.389466
O O5 0.288746 0.333334 0.833334
O O6 0.301788 0.244691 0.866339
O O7 0.230822 0.273484 0.922812
O O8 0.202979 0.222325 0.819838
O O9 0.812527 0.906264 0.546793
O O10 0.739534 0.944386 0.577172
O O11 0.822112 0.000000 0.500000
O O12 0.831542 0.663084 0.441743
O O13 0.753863 0.643646 0.358837
O O14 0.305373 0.152687 0.059668
O O15 0.387605 0.265190 0.056350
O O16 0.891333 0.782665 0.222428
#
# Coordination Sequence:
#
# PCOD8324047 Si02
#       6
#    36  36  36  36  36  36
#     4  10  19  32  50  71  95 124 159 198 240 283
#     4  10  19  29  47  72  92 119 153 193 228 273
#     4  10  19  32  49  67  90 122 160 200 241 282
#     4  10  19  31  46  65  94 125 154 188 228 279
#     4   9  16  30  49  69  90 117 151 190 233 274
#     4   9  17  31  48  69  95 121 150 189 237 282
#
# _framework density 15.939909
#
# number of rings (size 3 to 8) (size 9 to 14) (size 15 to 20)
#    0.000    2.333    1.667    2.167    0.000    2.667 
#    0.000    0.000    0.000    2.667    0.000    5.833 
#    0.000    0.000    0.000    0.000    0.000   50.500 
#
# Total GULP energy -892820.297635 kJ/mol
# GULP energy per Si atom -12400.281912 kJ/mol
# Density = 1.590363 g / cm^3
# Si number density = 15.939909 Si / 1000 Ang^3
#
#
#
# Elastic Constant Matrix: (Units=GPa)
#
#
# Indices 1 2 3 4 5 6 
#
# 1 73.7845 33.8876 40.7445 -0.1659 0.0001 0.0000
# 2 33.8876 73.7845 40.7445 0.1659 -0.0001 0.0000
# 3 40.7445 40.7445 82.6688 0.0000 0.0000 0.0000
# 4 -0.1659 0.1659 0.0000 23.9673 0.0000 -0.0001
# 5 0.0001 -0.0001 0.0000 0.0000 23.9673 -0.1659
# 6 0.0000 0.0000 0.0000 -0.0001 -0.1659 19.9485
#
#
#
# Elastic Compliance Matrix: (Units=1/GPa)
#
#
# Indices 1 2 3 4 5 6 
#
# 1 0.019939 -0.005127 -0.007301 0.000173 0.000000 0.000000
# 2 -0.005127 0.019939 -0.007301 -0.000173 0.000000 0.000000
# 3 -0.007301 -0.007301 0.019293 0.000000 0.000000 0.000000
# 4 0.000173 -0.000173 0.000000 0.041726 0.000000 0.000000
# 5 0.000000 0.000000 0.000000 0.000000 0.041726 0.000347
# 6 0.000000 0.000000 0.000000 0.000000 0.000347 0.050132
#
#
# Mechanical properties :
#
#
# Convention : Reuss Voigt Hill
#
# Bulk Modulus (GPa) = 50.72080 51.22123 50.97102
# Shear Modulus (GPa) = 20.93944 21.23401 21.08673
#
# Velocity S-wave (km/s) = 3.62836 3.65379 3.64110
# Velocity P-wave (km/s) = 7.03153 7.07135 7.05147
#
# Compressibility (1/GPa) = 0.01971578
#
# Stress axis : x y z
#
# Youngs Moduli (GPa) = 50.15191 50.15191 51.83238
#
# Poissons Ratio (x) = 0.25711 0.37841
# Poissons Ratio (y) = 0.25711 0.37841
# Poissons Ratio (z) = 0.36614 0.36614
#
# Static dielectric constant tensor:
#      x y z
#    x 2.907800 0.000000 0.000000 
#    y 0.000000 2.907800 0.000000 
#    z 0.000000 0.000000 3.090030 
# 
# 
# High freq. dielectric constant tensor:
#      x y z
#    x 1.601840 0.000000 0.000000 
#    y 0.000000 1.601840 0.000000 
#    z 0.000000 0.000000 1.617230 
# 
# From -- ./inp_files/7127.got.cif
#   From: 2010.03.12/outbox.cif.g09.slc.cpg/sg166_4_cif.got.tgz:7127.got - 2010.04.02 06:38:31.
