data_PCOD8324412
_publ_section_title
;
Structure prediction by ZEFSAII (Michael W. Deem and Ramdas Pophale) SiO2 
 PCOD8324412
Probable space group: R -3 C 
;
_chemical_formula_sum "Si O2"
_cell_formula_units_Z 84
_cell_length_a 16.341786
_cell_length_b 16.341786
_cell_length_c 14.113146
_cell_angle_alpha 90.000000
_cell_angle_beta 90.000000
_cell_angle_gamma 120.000000
_cell_volume 3264.025207
_symmetry_space_group_name_H-M "R -3 C "
_symmetry_group_IT_number 167
_symmetry_cell_setting 'hexagonal'
loop_
_space_group_symop_operation_xyz
x,y,z
-y,x-y,z
-x+y,-x,z
x-y,-y,1/2-z
-x,-x+y,1/2-z
y,x,1/2-z
-x,-y,-z
y,-x+y,-z
x-y,x,-z
-x+y,y,1/2+z
x,x-y,1/2+z
-y,-x,1/2+z
2/3+x,1/3+y,1/3+z
2/3-y,1/3+x-y,1/3+z
2/3-x+y,1/3-x,1/3+z
2/3+x-y,1/3-y,5/6-z
2/3-x,1/3-x+y,5/6-z
2/3+y,1/3+x,5/6-z
2/3-x,1/3-y,1/3-z
2/3+y,1/3-x+y,1/3-z
2/3+x-y,1/3+x,1/3-z
2/3-x+y,1/3+y,5/6+z
2/3+x,1/3+x-y,5/6+z
2/3-y,1/3-x,5/6+z
1/3+x,2/3+y,2/3+z
1/3-y,2/3+x-y,2/3+z
1/3-x+y,2/3-x,2/3+z
1/3+x-y,2/3-y,1/6-z
1/3-x,2/3-x+y,1/6-z
1/3+y,2/3+x,1/6-z
1/3-x,2/3-y,2/3-z
1/3+y,2/3-x+y,2/3-z
1/3+x-y,2/3+x,2/3-z
1/3-x+y,2/3+y,1/6+z
1/3+x,2/3+x-y,1/6+z
1/3-y,2/3-x,1/6+z
loop_
_atom_site_type_symbol
_atom_site_label
_atom_site_fract_x
_atom_site_fract_y
_atom_site_fract_z
Si Si1 0.090779 0.746020 0.483137
Si Si2 0.196185 0.033005 0.856309
Si Si3 0.666668 0.333334 0.195057
O O1 0.092900 0.666667 0.416667
O O2 0.035155 0.701822 0.583334
O O3 0.196980 0.819463 0.517047
O O4 0.915420 0.543557 0.409971
O O5 0.106158 0.036204 0.899684
O O6 0.176180 0.000000 0.750000
O O7 0.666668 0.333334 0.083334
#
# Coordination Sequence:
#
# PCOD8324412 Si02
#       3
#    36  36  12
#     4  12  27  48  74 109 152 205 267 333 404 485
#     4  11  24  46  76 112 154 206 265 332 403 485
#     4   9  21  42  73 113 155 203 265 333 403 482
#
# _framework density 25.735095999999999
#
# number of rings (size 3 to 8) (size 9 to 14) (size 15 to 20)
#    0.000    0.857    0.000    7.714    0.000   10.286 
#    0.000    2.143    0.000    0.000    0.000    0.000 
#    0.000    0.000    0.000    0.000    0.000    0.000 
#
# Total GULP energy -346909.685631 kJ/mol
# GULP energy per Si atom -12389.631630 kJ/mol
# Density = 2.567652 g / cm^3
# Si number density = 25.735096 Si / 1000 Ang^3
#
#
#
# Elastic Constant Matrix: (Units=GPa)
#
#
# Indices 1 2 3 4 5 6 
#
# 1 147.6273 108.3224 50.6275 -4.8430 -0.0016 0.0004
# 2 108.3224 147.6259 50.6285 4.8434 0.0016 -0.0006
# 3 50.6275 50.6285 159.4979 0.0004 -0.0002 -0.0002
# 4 -4.8430 4.8434 0.0004 10.9295 0.0000 0.0009
# 5 -0.0016 0.0016 -0.0002 0.0000 10.9276 -4.8440
# 6 0.0004 -0.0006 -0.0002 0.0009 -4.8440 19.6521
#
#
#
# Elastic Compliance Matrix: (Units=1/GPa)
#
#
# Indices 1 2 3 4 5 6 
#
# 1 0.016515 -0.012047 -0.001418 0.012656 0.000004 0.000000
# 2 -0.012047 0.016515 -0.001418 -0.012657 -0.000004 0.000000
# 3 -0.001418 -0.001418 0.007170 0.000000 0.000000 0.000000
# 4 0.012656 -0.012657 0.000000 0.102712 0.000001 -0.000005
# 5 0.000004 -0.000004 0.000000 0.000001 0.102736 0.025323
# 6 0.000000 0.000000 0.000000 -0.000005 0.025323 0.057127
#
#
# Mechanical properties :
#
#
# Convention : Reuss Voigt Hill
#
# Bulk Modulus (GPa) = 95.84802 97.10089 96.47446
# Shear Modulus (GPa) = 14.88007 24.64670 19.76338
#
# Velocity S-wave (km/s) = 2.40719 3.09804 2.77421
# Velocity P-wave (km/s) = 6.71201 7.11407 6.91596
#
# Compressibility (1/GPa) = 0.01043318
#
# Stress axis : x y z
#
# Youngs Moduli (GPa) = 60.55184 60.55080 139.46894
#
# Poissons Ratio (x) = 0.72944 0.19779
# Poissons Ratio (y) = 0.72946 0.19782
# Poissons Ratio (z) = 0.08587 0.08588
#
# Static dielectric constant tensor:
#      x y z
#    x 5.118430 0.000000 0.000000 
#    y 0.000000 5.118450 -0.000010 
#    z 0.000000 -0.000010 4.942080 
# 
# 
# High freq. dielectric constant tensor:
#      x y z
#    x 2.030360 0.000000 0.000000 
#    y 0.000000 2.030370 0.000000 
#    z 0.000000 0.000000 2.057720 
# 
# From -- ./inp_files/2872.got.cif
#   From: 2010.03.12/outbox.cif.g09.slc.cpg/sg167_2_cif.got.tgz:2872.got - 2010.04.02 06:42:56.
