data_PCOD8324887
_publ_section_title
;
Structure prediction by ZEFSAII (Michael W. Deem and Ramdas Pophale) SiO2 
 PCOD8324887
Probable space group: P 63
;
_chemical_formula_sum "Si O2"
_cell_formula_units_Z 48
_cell_length_a 16.268237
_cell_length_b 16.268237
_cell_length_c 10.169800
_cell_angle_alpha 90.000000
_cell_angle_beta 90.000000
_cell_angle_gamma 120.000000
_cell_volume 2330.902058
_symmetry_space_group_name_H-M "P 63"
_symmetry_group_IT_number 173
_symmetry_cell_setting 'hexagonal'
loop_
_space_group_symop_operation_xyz
x,y,z
x-y,x,1/2+z
-y,x-y,z
-x,-y,1/2+z
-x+y,-x,z
y,-x+y,1/2+z
loop_
_atom_site_type_symbol
_atom_site_label
_atom_site_fract_x
_atom_site_fract_y
_atom_site_fract_z
Si Si1 0.435372 0.544669 0.014430
Si Si2 0.769273 0.732891 0.167875
Si Si3 0.873699 0.610597 0.805859
Si Si4 0.764930 0.211891 0.528142
Si Si5 0.091698 0.977092 0.011353
Si Si6 0.714807 0.630383 0.904914
Si Si7 0.804825 0.087229 0.330545
Si Si8 0.529140 0.057590 0.812567
O O1 0.475243 0.656282 0.001281
O O2 0.322994 0.492814 0.005313
O O3 0.469946 0.519955 0.152689
O O4 0.471535 0.514838 0.885186
O O5 0.697728 0.716686 0.287216
O O6 0.819393 0.844465 0.130548
O O7 0.847802 0.703784 0.204251
O O8 0.704043 0.666520 0.048548
O O9 0.810738 0.589352 0.676241
O O10 0.817502 0.638113 0.910361
O O11 0.879190 0.518890 0.852168
O O12 0.800576 0.156452 0.437624
O O13 0.980210 0.897894 0.016981
O O14 0.131874 0.958745 0.877373
O O15 0.702924 0.700240 0.800127
O O16 0.634577 0.523324 0.872495
#
# Coordination Sequence:
#
# PCOD8324887 Si02
#       8
#     6   6   6   6   6   6   6   6
#     4  11  23  42  71  99 130 176 219 283 341 411
#     4  11  24  40  64  94 137 171 220 278 328 396
#     4  11  23  41  64  96 125 172 221 267 329 405
#     4  11  21  42  65  98 124 166 222 269 338 405
#     4   9  22  37  54  87 127 179 221 260 316 374
#     4  11  23  44  63  97 132 168 223 270 333 404
#     4  11  23  39  66  91 133 176 215 274 326 399
#     4  11  23  43  69  96 136 172 225 281 341 396
#
# _framework density 20.592887000000001
#
# number of rings (size 3 to 8) (size 9 to 14) (size 15 to 20)
#    0.250    1.000    5.000    1.750    5.250    1.000 
#    0.750    0.000    0.000    0.000    0.000    0.000 
#    0.000    0.000    0.000    0.000    0.000    0.000 
#
# Total GULP energy -594911.075904 kJ/mol
# GULP energy per Si atom -12393.980748 kJ/mol
# Density = 2.054602 g / cm^3
# Si number density = 20.592887 Si / 1000 Ang^3
#
#
#
# Elastic Constant Matrix: (Units=GPa)
#
#
# Indices 1 2 3 4 5 6 
#
# 1 115.6361 41.3346 35.9827 0.0000 0.0000 0.0000
# 2 41.3346 115.6361 35.9827 0.0000 0.0000 0.0000
# 3 35.9827 35.9827 59.0212 0.0000 0.0000 0.0000
# 4 0.0000 0.0000 0.0000 28.6301 0.0000 0.0000
# 5 0.0000 0.0000 0.0000 0.0000 28.6301 0.0000
# 6 0.0000 0.0000 0.0000 0.0000 0.0000 37.1508
#
#
#
# Elastic Compliance Matrix: (Units=1/GPa)
#
#
# Indices 1 2 3 4 5 6 
#
# 1 0.011150 -0.002308 -0.005391 0.000000 0.000000 0.000000
# 2 -0.002308 0.011150 -0.005391 0.000000 0.000000 0.000000
# 3 -0.005391 -0.005391 0.023516 0.000000 0.000000 0.000000
# 4 0.000000 0.000000 0.000000 0.034928 0.000000 0.000000
# 5 0.000000 0.000000 0.000000 0.000000 0.034928 0.000000
# 6 0.000000 0.000000 0.000000 0.000000 0.000000 0.026917
#
#
# Mechanical properties :
#
#
# Convention : Reuss Voigt Hill
#
# Bulk Modulus (GPa) = 50.92289 57.43259 54.17774
# Shear Modulus (GPa) = 28.52006 30.68177 29.60092
#
# Velocity S-wave (km/s) = 3.72553 3.86414 3.79546
# Velocity P-wave (km/s) = 6.57937 6.91801 6.75081
#
# Compressibility (1/GPa) = 0.01963753
#
# Stress axis : x y z
#
# Youngs Moduli (GPa) = 89.68342 89.68342 42.52452
#
# Poissons Ratio (x) = 0.20702 0.22923
# Poissons Ratio (y) = 0.20702 0.22923
# Poissons Ratio (z) = 0.48345 0.48345
#
# Static dielectric constant tensor:
#      x y z
#    x 3.845620 0.000000 0.000000 
#    y 0.000000 3.845620 0.000000 
#    z 0.000000 0.000000 3.614670 
# 
# 
# High freq. dielectric constant tensor:
#      x y z
#    x 1.811700 0.000000 0.000000 
#    y 0.000000 1.811700 0.000000 
#    z 0.000000 0.000000 1.780930 
# 
# From -- ./inp_files/934.got.cif
#   From: 2010.03.12/outbox.cif.g09.slc.cpg/sg173_cif.got.tgz:934.got - 2010.04.02 06:54:12.
