data_PCOD8324096
_publ_section_title
;
Structure prediction by ZEFSAII (Michael W. Deem and Ramdas Pophale) SiO2 
 PCOD8324096
Probable space group: R -3 M
;
_chemical_formula_sum "Si O2"
_cell_formula_units_Z 108
_cell_length_a 26.596785
_cell_length_b 26.596785
_cell_length_c 9.041178
_cell_angle_alpha 90.000000
_cell_angle_beta 90.000000
_cell_angle_gamma 120.000000
_cell_volume 5538.777719
_symmetry_space_group_name_H-M "R -3 M"
_symmetry_group_IT_number 166
_symmetry_cell_setting 'hexagonal'
loop_
_space_group_symop_operation_xyz
x,y,z
-y,x-y,z
-x+y,-x,z
x-y,-y,-z
-x,-x+y,-z
y,x,-z
-x,-y,-z
y,-x+y,-z
x-y,x,-z
-x+y,y,z
x,x-y,z
-y,-x,z
2/3+x,1/3+y,1/3+z
2/3-y,1/3+x-y,1/3+z
2/3-x+y,1/3-x,1/3+z
2/3+x-y,1/3-y,1/3-z
2/3-x,1/3-x+y,1/3-z
2/3+y,1/3+x,1/3-z
2/3-x,1/3-y,1/3-z
2/3+y,1/3-x+y,1/3-z
2/3+x-y,1/3+x,1/3-z
2/3-x+y,1/3+y,1/3+z
2/3+x,1/3+x-y,1/3+z
2/3-y,1/3-x,1/3+z
1/3+x,2/3+y,2/3+z
1/3-y,2/3+x-y,2/3+z
1/3-x+y,2/3-x,2/3+z
1/3+x-y,2/3-y,2/3-z
1/3-x,2/3-x+y,2/3-z
1/3+y,2/3+x,2/3-z
1/3-x,2/3-y,2/3-z
1/3+y,2/3-x+y,2/3-z
1/3+x-y,2/3+x,2/3-z
1/3-x+y,2/3+y,2/3+z
1/3+x,2/3+x-y,2/3+z
1/3-y,2/3-x,2/3+z
loop_
_atom_site_type_symbol
_atom_site_label
_atom_site_fract_x
_atom_site_fract_y
_atom_site_fract_z
Si Si1 0.049958 0.730414 0.097279
Si Si2 0.576132 0.732589 0.014859
Si Si3 0.727089 0.161123 0.634759
O O1 0.100427 0.739190 0.980798
O O2 0.073063 0.781637 0.217969
O O3 0.025960 0.666667 0.166667
O O4 0.000000 0.732220 0.000000
O O5 0.570279 0.785140 0.945841
O O6 0.577714 0.735161 0.192106
O O7 0.522956 0.673603 0.945248
O O8 0.773320 0.226681 0.579025
#
# Coordination Sequence:
#
# PCOD8324096 Si02
#       3
#    36  36  36
#     4  12  19  32  48  73 109 138 168 202 247 307
#     4  10  19  33  53  76 102 134 172 213 254 301
#     4  10  20  34  52  75 102 137 175 209 253 305
#
# _framework density 19.498888000000001
#
# number of rings (size 3 to 8) (size 9 to 14) (size 15 to 20)
#    0.000    1.333    6.667    2.000    0.000    2.667 
#    0.000    5.000    0.000    0.667    0.000    4.667 
#    0.000    1.333    0.000    0.000    0.000    0.000 
#
# Total GULP energy -446008.206496 kJ/mol
# GULP energy per Si atom -12389.116847 kJ/mol
# Density = 1.945451 g / cm^3
# Si number density = 19.498888 Si / 1000 Ang^3
#
#
#
# Elastic Constant Matrix: (Units=GPa)
#
#
# Indices 1 2 3 4 5 6 
#
# 1 148.6599 88.5766 21.4515 -5.4606 -0.0466 -0.0187
# 2 88.5766 148.7002 21.5051 5.4363 -0.0210 -0.0150
# 3 21.4515 21.5051 19.3357 -0.0586 -0.2093 -0.0727
# 4 -5.4606 5.4363 -0.0586 14.8846 -0.0235 -0.0170
# 5 -0.0466 -0.0210 -0.2093 -0.0235 14.8313 -5.4706
# 6 -0.0187 -0.0150 -0.0727 -0.0170 -5.4706 30.0447
#
#
#
# Elastic Compliance Matrix: (Units=1/GPa)
#
#
# Indices 1 2 3 4 5 6 
#
# 1 0.011541 -0.006272 -0.005809 0.006502 -0.000050 -0.000015
# 2 -0.006272 0.011556 -0.005915 -0.006545 -0.000111 -0.000036
# 3 -0.005809 -0.005915 0.064754 0.000286 0.001011 0.000334
# 4 0.006502 -0.006545 0.000286 0.071961 0.000155 0.000070
# 5 -0.000050 -0.000111 0.001011 0.000155 0.072295 0.013166
# 6 -0.000015 -0.000036 0.000334 0.000070 0.013166 0.035682
#
#
# Mechanical properties :
#
#
# Convention : Reuss Voigt Hill
#
# Bulk Modulus (GPa) = 19.28311 64.41801 41.85056
# Shear Modulus (GPa) = 15.57307 24.29630 19.93469
#
# Velocity S-wave (km/s) = 2.82913 3.53375 3.20089
# Velocity P-wave (km/s) = 4.53683 7.05396 5.93048
#
# Compressibility (1/GPa) = 0.05185885
#
# Stress axis : x y z
#
# Youngs Moduli (GPa) = 86.64747 86.53621 15.44308
#
# Poissons Ratio (x) = 0.54278 0.08970
# Poissons Ratio (y) = 0.54348 0.09134
# Poissons Ratio (z) = 0.50331 0.51185
#
# Static dielectric constant tensor:
#      x y z
#    x 3.914050 0.000000 -0.000110 
#    y 0.000000 3.914140 0.000000 
#    z -0.000110 0.000000 3.412120 
# 
# 
# High freq. dielectric constant tensor:
#      x y z
#    x 1.742270 0.000000 -0.000010 
#    y 0.000000 1.742280 0.000000 
#    z -0.000010 0.000000 1.734850 
# 
# From -- ./inp_files/2566.got.cif
#   From: 2010.03.12/outbox.cif.g09.slc.cpg/sg166_2_cif.got.tgz:2566.got - 2010.04.02 06:38:31.
