data_PCOD8324009
_publ_section_title
;
Structure prediction by ZEFSAII (Michael W. Deem and Ramdas Pophale) SiO2 
 PCOD8324009
Probable space group: R -3 M
;
_chemical_formula_sum "Si O2"
_cell_formula_units_Z 216
_cell_length_a 22.452305
_cell_length_b 22.452305
_cell_length_c 27.162821
_cell_angle_alpha 90.000000
_cell_angle_beta 90.000000
_cell_angle_gamma 120.000000
_cell_volume 11858.434791
_symmetry_space_group_name_H-M "R -3 M"
_symmetry_group_IT_number 166
_symmetry_cell_setting 'hexagonal'
loop_
_space_group_symop_operation_xyz
x,y,z
-y,x-y,z
-x+y,-x,z
x-y,-y,-z
-x,-x+y,-z
y,x,-z
-x,-y,-z
y,-x+y,-z
x-y,x,-z
-x+y,y,z
x,x-y,z
-y,-x,z
2/3+x,1/3+y,1/3+z
2/3-y,1/3+x-y,1/3+z
2/3-x+y,1/3-x,1/3+z
2/3+x-y,1/3-y,1/3-z
2/3-x,1/3-x+y,1/3-z
2/3+y,1/3+x,1/3-z
2/3-x,1/3-y,1/3-z
2/3+y,1/3-x+y,1/3-z
2/3+x-y,1/3+x,1/3-z
2/3-x+y,1/3+y,1/3+z
2/3+x,1/3+x-y,1/3+z
2/3-y,1/3-x,1/3+z
1/3+x,2/3+y,2/3+z
1/3-y,2/3+x-y,2/3+z
1/3-x+y,2/3-x,2/3+z
1/3+x-y,2/3-y,2/3-z
1/3-x,2/3-x+y,2/3-z
1/3+y,2/3+x,2/3-z
1/3-x,2/3-y,2/3-z
1/3+y,2/3-x+y,2/3-z
1/3+x-y,2/3+x,2/3-z
1/3-x+y,2/3+y,2/3+z
1/3+x,2/3+x-y,2/3+z
1/3-y,2/3-x,2/3+z
loop_
_atom_site_type_symbol
_atom_site_label
_atom_site_fract_x
_atom_site_fract_y
_atom_site_fract_z
Si Si1 0.888727 0.250421 0.221766
Si Si2 0.476248 0.085230 0.197424
Si Si3 0.933160 0.400580 0.967387
Si Si4 0.867654 0.867576 0.216799
Si Si5 0.575838 0.721043 0.963941
Si Si6 0.929360 0.724671 0.521807
O O1 0.809326 0.190675 0.226916
O O2 0.915440 0.248774 0.166667
O O3 0.895983 0.325394 0.232559
O O4 0.935910 0.240915 0.262147
O O5 0.543761 0.087522 0.223321
O O6 0.503083 0.139139 0.153873
O O7 0.426867 0.011249 0.174625
O O8 0.897447 0.448724 0.969280
O O9 0.955146 0.395327 0.912128
O O10 0.887150 0.323214 0.987113
O O11 0.000000 0.436869 0.000000
O O12 0.894422 0.947211 0.227306
O O13 0.842992 0.828416 0.268017
O O14 0.929610 0.859219 0.194438
O O15 0.591058 0.795529 0.981799
O O16 0.875326 0.750651 0.515172
O O17 0.000000 0.784703 0.500000
#
# Coordination Sequence:
#
# PCOD8324009 Si02
#       6
#    36  36  36  36  36  36
#     4  10  18  30  50  75 105 140 178 217 262 318
#     4  10  19  30  48  73 101 136 179 218 256 308
#     4  10  21  36  53  76 106 140 176 220 272 322
#     4  10  18  28  43  68 101 136 174 213 256 310
#     4  10  20  32  51  76 101 137 177 213 263 326
#     4  10  22  37  56  80 104 136 179 226 274 319
#
# _framework density 18.214881999999999
#
# number of rings (size 3 to 8) (size 9 to 14) (size 15 to 20)
#    0.000    2.000    1.667    2.667    2.333    3.333 
#    0.000    0.000    0.000    0.833    0.000    0.000 
#    0.000    0.000    0.000    0.000    0.000    6.667 
#
# Total GULP energy -892397.765047 kJ/mol
# GULP energy per Si atom -12394.413403 kJ/mol
# Density = 1.817342 g / cm^3
# Si number density = 18.214882 Si / 1000 Ang^3
#
#
#
# Elastic Constant Matrix: (Units=GPa)
#
#
# Indices 1 2 3 4 5 6 
#
# 1 93.0019 52.4245 23.5868 12.8704 -0.0001 0.0000
# 2 52.4245 93.0019 23.5868 -12.8704 0.0001 0.0000
# 3 23.5868 23.5868 40.9033 0.0000 0.0000 0.0000
# 4 12.8704 -12.8704 0.0000 14.5109 0.0000 0.0001
# 5 -0.0001 0.0001 0.0000 0.0000 14.5109 12.8704
# 6 0.0000 0.0000 0.0000 0.0001 12.8704 20.2887
#
#
#
# Elastic Compliance Matrix: (Units=1/GPa)
#
#
# Indices 1 2 3 4 5 6 
#
# 1 0.032404 -0.023945 -0.004878 -0.049978 0.000000 0.000000
# 2 -0.023945 0.032404 -0.004878 0.049978 0.000000 0.000000
# 3 -0.004878 -0.004878 0.030073 0.000000 0.000000 0.000000
# 4 -0.049978 0.049978 0.000000 0.157570 0.000000 -0.000001
# 5 0.000000 0.000000 0.000000 0.000000 0.157570 -0.099956
# 6 0.000000 0.000000 0.000000 -0.000001 -0.099956 0.112697
#
#
# Mechanical properties :
#
#
# Convention : Reuss Voigt Hill
#
# Bulk Modulus (GPa) = 36.39019 47.34478 41.86748
# Shear Modulus (GPa) = 8.34339 18.34936 13.34637
#
# Velocity S-wave (km/s) = 2.14254 3.17737 2.70981
# Velocity P-wave (km/s) = 5.11295 6.28568 5.72940
#
# Compressibility (1/GPa) = 0.02747993
#
# Stress axis : x y z
#
# Youngs Moduli (GPa) = 30.86083 30.86083 33.25217
#
# Poissons Ratio (x) = 0.73896 0.16219
# Poissons Ratio (y) = 0.73896 0.16219
# Poissons Ratio (z) = 0.15053 0.15053
#
# Static dielectric constant tensor:
#      x y z
#    x 3.705910 0.000000 0.000000 
#    y 0.000000 3.705910 0.000000 
#    z 0.000000 0.000000 2.756970 
# 
# 
# High freq. dielectric constant tensor:
#      x y z
#    x 1.712850 0.000000 0.000000 
#    y 0.000000 1.712850 0.000000 
#    z 0.000000 0.000000 1.663970 
# 
# From -- ./inp_files/8445.got.cif
#   From: 2010.03.12/outbox.cif.g09.slc.cpg/sg166_5_cif.got.tgz:8445.got - 2010.04.02 06:38:31.
