data_PCOD8324541
_publ_section_title
;
Structure prediction by ZEFSAII (Michael W. Deem and Ramdas Pophale) SiO2 
 PCOD8324541
Probable space group: P 61
;
_chemical_formula_sum "Si O2"
_cell_formula_units_Z 36
_cell_length_a 8.495263
_cell_length_b 8.495263
_cell_length_c 27.982201
_cell_angle_alpha 90.000000
_cell_angle_beta 90.000000
_cell_angle_gamma 120.000000
_cell_volume 1748.904763
_symmetry_space_group_name_H-M "P 61"
_symmetry_group_IT_number 169
_symmetry_cell_setting 'hexagonal'
loop_
_space_group_symop_operation_xyz
x,y,z
x-y,x,1/6+z
-y,x-y,1/3+z
-x,-y,1/2+z
-x+y,-x,2/3+z
y,-x+y,5/6+z
loop_
_atom_site_type_symbol
_atom_site_label
_atom_site_fract_x
_atom_site_fract_y
_atom_site_fract_z
Si Si1 0.609715 0.276026 0.518290
Si Si2 0.874263 0.433060 0.088597
Si Si3 0.123687 0.548746 0.867972
Si Si4 0.153765 0.235866 0.254981
Si Si5 0.460095 0.206126 0.935469
Si Si6 0.963510 0.239133 0.523886
O O1 0.568954 0.330447 0.467449
O O2 0.630100 0.425161 0.556669
O O3 0.787525 0.258318 0.515661
O O4 0.448250 0.076865 0.533359
O O5 0.773356 0.250802 0.056946
O O6 0.066053 0.460692 0.105525
O O7 0.889115 0.593394 0.054564
O O8 0.142637 0.707110 0.902799
O O9 0.186755 0.628695 0.815203
O O10 0.138437 0.086828 0.217232
O O11 0.231574 0.197696 0.304222
O O12 0.958112 0.213803 0.264205
#
# Coordination Sequence:
#
# PCOD8324541 Si02
#       6
#     6   6   6   6   6   6
#     4  10  22  40  63  96 121 173 219 257 332 396
#     4  11  24  40  64  99 130 167 220 276 324 405
#     4  11  22  42  67  89 131 170 216 274 325 400
#     4  11  20  45  65  91 126 177 214 263 338 404
#     4  11  23  40  68  94 128 172 214 278 337 397
#     4  10  23  39  67  91 130 169 219 262 332 404
#
# _framework density 20.584313999999999
#
# number of rings (size 3 to 8) (size 9 to 14) (size 15 to 20)
#    0.000    1.333    5.000    1.000    7.000    0.000 
#    3.000    0.000    0.000    0.000    0.000    0.000 
#    0.000    0.000    0.000    0.000    0.000    0.000 
#
# Total GULP energy -446451.101868 kJ/mol
# GULP energy per Si atom -12401.419496 kJ/mol
# Density = 2.053746 g / cm^3
# Si number density = 20.584314 Si / 1000 Ang^3
#
#
#
# Elastic Constant Matrix: (Units=GPa)
#
#
# Indices 1 2 3 4 5 6 
#
# 1 61.2289 14.8956 19.7114 0.0000 0.0000 0.0000
# 2 14.8956 61.2289 19.7114 0.0000 0.0000 0.0000
# 3 19.7114 19.7114 125.0178 0.0000 0.0000 0.0000
# 4 0.0000 0.0000 0.0000 27.2697 0.0000 0.0000
# 5 0.0000 0.0000 0.0000 0.0000 27.2697 0.0000
# 6 0.0000 0.0000 0.0000 0.0000 0.0000 23.1666
#
#
#
# Elastic Compliance Matrix: (Units=1/GPa)
#
#
# Indices 1 2 3 4 5 6 
#
# 1 0.017944 -0.003639 -0.002255 0.000000 0.000000 0.000000
# 2 -0.003639 0.017944 -0.002255 0.000000 0.000000 0.000000
# 3 -0.002255 -0.002255 0.008710 0.000000 0.000000 0.000000
# 4 0.000000 0.000000 0.000000 0.036671 0.000000 0.000000
# 5 0.000000 0.000000 0.000000 0.000000 0.036671 0.000000
# 6 0.000000 0.000000 0.000000 0.000000 0.000000 0.043166
#
#
# Mechanical properties :
#
#
# Convention : Reuss Voigt Hill
#
# Bulk Modulus (GPa) = 35.33896 39.56803 37.45350
# Shear Modulus (GPa) = 26.76136 28.41834 27.58985
#
# Velocity S-wave (km/s) = 3.60958 3.71965 3.66503
# Velocity P-wave (km/s) = 5.88024 6.14100 6.01204
#
# Compressibility (1/GPa) = 0.02829738
#
# Stress axis : x y z
#
# Youngs Moduli (GPa) = 55.73028 55.73028 114.80988
#
# Poissons Ratio (x) = 0.20281 0.25894
# Poissons Ratio (y) = 0.20281 0.25894
# Poissons Ratio (z) = 0.12569 0.12569
#
# Static dielectric constant tensor:
#      x y z
#    x 3.668750 0.000000 0.000000 
#    y 0.000000 3.668750 0.000000 
#    z 0.000000 0.000000 4.105840 
# 
# 
# High freq. dielectric constant tensor:
#      x y z
#    x 1.793420 0.000000 0.000000 
#    y 0.000000 1.793420 0.000000 
#    z 0.000000 0.000000 1.831200 
# 
# From -- ./inp_files/1724.got.cif
#   From: 2010.03.12/outbox.cif.g09.slc.cpg/sg169_cif.got.tgz:1724.got - 2010.04.02 06:46:06.
