data_PCOD8324281
_publ_section_title
;
Structure prediction by ZEFSAII (Michael W. Deem and Ramdas Pophale) SiO2 
 PCOD8324281
Probable space group: R -3 C 
;
_chemical_formula_sum "Si O2"
_cell_formula_units_Z 180
_cell_length_a 19.028512
_cell_length_b 19.028512
_cell_length_c 27.047680
_cell_angle_alpha 90.000000
_cell_angle_beta 90.000000
_cell_angle_gamma 120.000000
_cell_volume 8481.453947
_symmetry_space_group_name_H-M "R -3 C "
_symmetry_group_IT_number 167
_symmetry_cell_setting 'hexagonal'
loop_
_space_group_symop_operation_xyz
x,y,z
-y,x-y,z
-x+y,-x,z
x-y,-y,1/2-z
-x,-x+y,1/2-z
y,x,1/2-z
-x,-y,-z
y,-x+y,-z
x-y,x,-z
-x+y,y,1/2+z
x,x-y,1/2+z
-y,-x,1/2+z
2/3+x,1/3+y,1/3+z
2/3-y,1/3+x-y,1/3+z
2/3-x+y,1/3-x,1/3+z
2/3+x-y,1/3-y,5/6-z
2/3-x,1/3-x+y,5/6-z
2/3+y,1/3+x,5/6-z
2/3-x,1/3-y,1/3-z
2/3+y,1/3-x+y,1/3-z
2/3+x-y,1/3+x,1/3-z
2/3-x+y,1/3+y,5/6+z
2/3+x,1/3+x-y,5/6+z
2/3-y,1/3-x,5/6+z
1/3+x,2/3+y,2/3+z
1/3-y,2/3+x-y,2/3+z
1/3-x+y,2/3-x,2/3+z
1/3+x-y,2/3-y,1/6-z
1/3-x,2/3-x+y,1/6-z
1/3+y,2/3+x,1/6-z
1/3-x,2/3-y,2/3-z
1/3+y,2/3-x+y,2/3-z
1/3+x-y,2/3+x,2/3-z
1/3-x+y,2/3+y,1/6+z
1/3+x,2/3+x-y,1/6+z
1/3-y,2/3-x,1/6+z
loop_
_atom_site_type_symbol
_atom_site_label
_atom_site_fract_x
_atom_site_fract_y
_atom_site_fract_z
Si Si1 0.915745 0.666667 0.916667
Si Si2 0.082369 0.181597 0.943440
Si Si3 0.625525 0.953602 0.848304
Si Si4 0.568755 0.153625 0.774980
Si Si5 0.025749 0.532326 0.909888
Si Si6 0.333334 0.388289 0.416667
O O1 0.968271 0.672524 0.964051
O O2 0.827318 0.589428 0.923226
O O3 0.104347 0.112058 0.932054
O O4 0.140998 0.263312 0.914738
O O5 0.991399 0.148153 0.923975
O O6 0.091176 0.203096 0.001010
O O7 0.615752 0.872002 0.874433
O O8 0.650221 0.962222 0.791115
O O9 0.542200 0.954526 0.860228
O O10 0.069093 0.477886 0.903214
#
# Coordination Sequence:
#
# PCOD8324281 Si02
#       6
#    18  36  36  36  36  18
#     4  10  18  39  60  84 125 166 210 272 316 385
#     4  10  19  34  52  88 126 163 212 259 332 398
#     4  10  22  44  68  91 136 174 219 280 329 388
#     4  10  19  31  56  81 125 167 202 266 330 391
#     4  10  22  42  64  97 134 174 223 278 328 393
#     4  12  24  41  72 102 127 178 226 272 340 399
#
# _framework density 21.222776
#
# number of rings (size 3 to 8) (size 9 to 14) (size 15 to 20)
#    0.000    2.000    4.000    2.200    2.800    2.400 
#    3.600    2.000    0.000    3.200    0.000    0.000 
#    0.000    0.000    0.000    0.000    0.000    0.000 
#
# Total GULP energy -743568.814891 kJ/mol
# GULP energy per Si atom -12392.813582 kJ/mol
# Density = 2.117447 g / cm^3
# Si number density = 21.222776 Si / 1000 Ang^3
#
#
#
# Elastic Constant Matrix: (Units=GPa)
#
#
# Indices 1 2 3 4 5 6 
#
# 1 135.0976 52.8221 25.3543 -0.9187 0.0000 0.0000
# 2 52.8221 135.0976 25.3543 0.9187 0.0000 0.0000
# 3 25.3543 25.3543 60.7137 0.0000 0.0000 0.0000
# 4 -0.9187 0.9187 0.0000 14.4102 0.0000 0.0000
# 5 0.0000 0.0000 0.0000 0.0000 14.4102 -0.9187
# 6 0.0000 0.0000 0.0000 0.0000 -0.9187 41.1377
#
#
#
# Elastic Compliance Matrix: (Units=1/GPa)
#
#
# Indices 1 2 3 4 5 6 
#
# 1 0.009084 -0.003087 -0.002504 0.000776 0.000000 0.000000
# 2 -0.003087 0.009084 -0.002504 -0.000776 0.000000 0.000000
# 3 -0.002504 -0.002504 0.018562 0.000000 0.000000 0.000000
# 4 0.000776 -0.000776 0.000000 0.069494 0.000000 0.000000
# 5 0.000000 0.000000 0.000000 0.000000 0.069494 0.001552
# 6 0.000000 0.000000 0.000000 0.000000 0.001552 0.024343
#
#
# Mechanical properties :
#
#
# Convention : Reuss Voigt Hill
#
# Bulk Modulus (GPa) = 48.68767 59.77447 54.23107
# Shear Modulus (GPa) = 22.41133 29.15018 25.78076
#
# Velocity S-wave (km/s) = 3.25315 3.71014 3.48913
# Velocity P-wave (km/s) = 6.09111 6.82495 6.46845
#
# Compressibility (1/GPa) = 0.02053908
#
# Stress axis : x y z
#
# Youngs Moduli (GPa) = 110.07850 110.07850 53.87208
#
# Poissons Ratio (x) = 0.33983 0.13492
# Poissons Ratio (y) = 0.33983 0.13492
# Poissons Ratio (z) = 0.27569 0.27569
#
# Static dielectric constant tensor:
#      x y z
#    x 3.963100 0.000000 0.000000 
#    y 0.000000 3.963100 0.000000 
#    z 0.000000 0.000000 3.658680 
# 
# 
# High freq. dielectric constant tensor:
#      x y z
#    x 1.835870 0.000000 0.000000 
#    y 0.000000 1.835870 0.000000 
#    z 0.000000 0.000000 1.796760 
# 
# From -- ./inp_files/7109.got.cif
#   From: 2010.03.12/outbox.cif.g09.slc.cpg/sg167_4_cif.got.tgz:7109.got - 2010.04.02 06:42:56.
