data_PCOD8324573
_publ_section_title
;
Structure prediction by ZEFSAII (Michael W. Deem and Ramdas Pophale) SiO2 
 PCOD8324573
Probable space group: P 61
;
_chemical_formula_sum "Si O2"
_cell_formula_units_Z 36
_cell_length_a 14.217003
_cell_length_b 14.217003
_cell_length_c 9.200432
_cell_angle_alpha 90.000000
_cell_angle_beta 90.000000
_cell_angle_gamma 120.000000
_cell_volume 1610.478612
_symmetry_space_group_name_H-M "P 61"
_symmetry_group_IT_number 169
_symmetry_cell_setting 'hexagonal'
loop_
_space_group_symop_operation_xyz
x,y,z
x-y,x,1/6+z
-y,x-y,1/3+z
-x,-y,1/2+z
-x+y,-x,2/3+z
y,-x+y,5/6+z
loop_
_atom_site_type_symbol
_atom_site_label
_atom_site_fract_x
_atom_site_fract_y
_atom_site_fract_z
Si Si1 0.396675 0.602777 0.007980
Si Si2 0.836971 0.562821 0.633324
Si Si3 0.439409 0.840808 0.019644
Si Si4 0.214397 0.090188 0.080109
Si Si5 0.650913 0.050977 0.011765
Si Si6 0.168347 0.968259 0.370536
O O1 0.274840 0.518734 0.054126
O O2 0.409695 0.719891 0.981956
O O3 0.475886 0.605303 0.132201
O O4 0.428122 0.569819 0.856858
O O5 0.866693 0.508817 0.764930
O O6 0.831176 0.663966 0.695818
O O7 0.934230 0.606571 0.517065
O O8 0.563173 0.926426 0.974791
O O9 0.147792 0.151667 0.118085
O O10 0.225044 0.033645 0.224984
O O11 0.762817 0.086313 0.926386
O O12 0.168198 0.045176 0.500108
#
# Coordination Sequence:
#
# PCOD8324573 Si02
#       6
#     6   6   6   6   6   6
#     4  12  26  48  72 106 147 195 244 302 387 435
#     4  12  27  47  73 114 146 195 246 312 368 452
#     4  12  26  46  73 102 151 195 240 308 369 450
#     4  10  26  49  75 109 150 198 249 312 380 454
#     4  12  27  45  75 109 142 192 252 304 369 453
#     4  10  24  49  72 106 146 195 247 302 379 452
#
# _framework density 22.353601999999999
#
# number of rings (size 3 to 8) (size 9 to 14) (size 15 to 20)
#    0.000    0.667    3.333    2.000   11.667    0.000 
#   18.000    0.000    0.000    0.000    0.000    0.000 
#    0.000    0.000    0.000    0.000    0.000    0.000 
#
# Total GULP energy -446622.887336 kJ/mol
# GULP energy per Si atom -12406.191315 kJ/mol
# Density = 2.230272 g / cm^3
# Si number density = 22.353602 Si / 1000 Ang^3
#
#
#
# Elastic Constant Matrix: (Units=GPa)
#
#
# Indices 1 2 3 4 5 6 
#
# 1 110.7479 40.5595 26.3014 0.0000 0.0000 0.0000
# 2 40.5595 110.7479 26.3014 0.0000 0.0000 0.0000
# 3 26.3014 26.3014 86.0865 0.0000 0.0000 0.0000
# 4 0.0000 0.0000 0.0000 37.3313 0.0000 0.0000
# 5 0.0000 0.0000 0.0000 0.0000 37.3313 0.0000
# 6 0.0000 0.0000 0.0000 0.0000 0.0000 35.0942
#
#
#
# Elastic Compliance Matrix: (Units=1/GPa)
#
#
# Indices 1 2 3 4 5 6 
#
# 1 0.010821 -0.003426 -0.002259 0.000000 0.000000 0.000000
# 2 -0.003426 0.010821 -0.002259 0.000000 0.000000 0.000000
# 3 -0.002259 -0.002259 0.012997 0.000000 0.000000 0.000000
# 4 0.000000 0.000000 0.000000 0.026787 0.000000 0.000000
# 5 0.000000 0.000000 0.000000 0.000000 0.026787 0.000000
# 6 0.000000 0.000000 0.000000 0.000000 0.000000 0.028495
#
#
# Mechanical properties :
#
#
# Convention : Reuss Voigt Hill
#
# Bulk Modulus (GPa) = 53.33642 54.87854 54.10748
# Shear Modulus (GPa) = 36.01088 36.24601 36.12845
#
# Velocity S-wave (km/s) = 4.01804 4.03113 4.02459
# Velocity P-wave (km/s) = 6.74079 6.80222 6.77158
#
# Compressibility (1/GPa) = 0.01874891
#
# Stress axis : x y z
#
# Youngs Moduli (GPa) = 92.41355 92.41355 76.94274
#
# Poissons Ratio (x) = 0.31665 0.17383
# Poissons Ratio (y) = 0.31665 0.17383
# Poissons Ratio (z) = 0.20878 0.20878
#
# Static dielectric constant tensor:
#      x y z
#    x 4.004920 0.000000 0.000000 
#    y 0.000000 4.004920 0.000000 
#    z 0.000000 0.000000 4.183960 
# 
# 
# High freq. dielectric constant tensor:
#      x y z
#    x 1.885480 0.000000 0.000000 
#    y 0.000000 1.885480 0.000000 
#    z 0.000000 0.000000 1.890910 
# 
# From -- ./inp_files/594.got.cif
#   From: 2010.03.12/outbox.cif.g09.slc.cpg/sg169_cif.got.tgz:594.got - 2010.04.02 06:46:06.
