data_PCOD8324862
_publ_section_title
;
Structure prediction by ZEFSAII (Michael W. Deem and Ramdas Pophale) SiO2 
 PCOD8324862
Probable space group: P 63
;
_chemical_formula_sum "Si O2"
_cell_formula_units_Z 30
_cell_length_a 8.365991
_cell_length_b 8.365991
_cell_length_c 23.951286
_cell_angle_alpha 90.000000
_cell_angle_beta 90.000000
_cell_angle_gamma 120.000000
_cell_volume 1451.758089
_symmetry_space_group_name_H-M "P 63"
_symmetry_group_IT_number 173
_symmetry_cell_setting 'hexagonal'
loop_
_space_group_symop_operation_xyz
x,y,z
x-y,x,1/2+z
-y,x-y,z
-x,-y,1/2+z
-x+y,-x,z
y,-x+y,1/2+z
loop_
_atom_site_type_symbol
_atom_site_label
_atom_site_fract_x
_atom_site_fract_y
_atom_site_fract_z
Si Si1 0.878518 0.345686 0.742810
Si Si2 0.996347 0.332357 0.075394
Si Si3 0.352321 0.881506 0.849309
Si Si4 0.534923 0.876851 0.455403
Si Si5 0.335554 0.002741 0.622218
O O1 0.842249 0.520123 0.743443
O O2 0.989427 0.342111 0.688879
O O3 0.002254 0.360496 0.795430
O O4 0.204802 0.408895 0.095511
O O5 0.921468 0.462797 0.098029
O O6 0.873309 0.131119 0.102744
O O7 0.988458 0.332480 0.008488
O O8 0.161190 0.683982 0.849711
O O9 0.358352 0.002002 0.902074
O O10 0.325419 0.844028 0.455240
#
# Coordination Sequence:
#
# PCOD8324862 Si02
#       5
#     6   6   6   6   6
#     4  10  21  42  65  91 129 181 219 272 344 406
#     4  12  24  42  65 101 136 181 230 285 348 415
#     4  10  24  36  62 100 120 170 228 282 320 398
#     4  10  21  42  65  91 129 181 219 272 344 406
#     4  12  24  42  65 101 136 181 230 285 348 415
#
# _framework density 20.664598000000002
#
# number of rings (size 3 to 8) (size 9 to 14) (size 15 to 20)
#    1.200    0.000    4.000    2.400    5.600    0.000 
#    0.000    0.000    0.000    6.400    0.000    0.000 
#    0.000    0.000    0.000    0.000    0.000    0.000 
#
# Total GULP energy -371907.317862 kJ/mol
# GULP energy per Si atom -12396.910595 kJ/mol
# Density = 2.061756 g / cm^3
# Si number density = 20.664598 Si / 1000 Ang^3
#
#
#
# Elastic Constant Matrix: (Units=GPa)
#
#
# Indices 1 2 3 4 5 6 
#
# 1 66.4591 10.9872 43.3097 0.0000 0.0000 0.0000
# 2 10.9872 66.4591 43.3097 0.0000 0.0000 0.0000
# 3 43.3097 43.3097 213.2277 0.0000 0.0000 0.0000
# 4 0.0000 0.0000 0.0000 26.8094 0.0000 0.0000
# 5 0.0000 0.0000 0.0000 0.0000 26.8094 0.0000
# 6 0.0000 0.0000 0.0000 0.0000 0.0000 27.7359
#
#
#
# Elastic Compliance Matrix: (Units=1/GPa)
#
#
# Indices 1 2 3 4 5 6 
#
# 1 0.017367 -0.000660 -0.003394 0.000000 0.000000 0.000000
# 2 -0.000660 0.017367 -0.003394 0.000000 0.000000 0.000000
# 3 -0.003394 -0.003394 0.006068 0.000000 0.000000 0.000000
# 4 0.000000 0.000000 0.000000 0.037300 0.000000 0.000000
# 5 0.000000 0.000000 0.000000 0.000000 0.037300 0.000000
# 6 0.000000 0.000000 0.000000 0.000000 0.000000 0.036054
#
#
# Mechanical properties :
#
#
# Convention : Reuss Voigt Hill
#
# Bulk Modulus (GPa) = 38.59591 60.15102 49.37347
# Shear Modulus (GPa) = 28.57329 32.84022 30.70675
#
# Velocity S-wave (km/s) = 3.72252 3.99080 3.85900
# Velocity P-wave (km/s) = 6.09870 7.09977 6.61819
#
# Compressibility (1/GPa) = 0.02590948
#
# Stress axis : x y z
#
# Youngs Moduli (GPa) = 57.57901 57.57901 164.78816
#
# Poissons Ratio (x) = 0.03799 0.55922
# Poissons Ratio (y) = 0.03799 0.55922
# Poissons Ratio (z) = 0.19540 0.19540
#
# Static dielectric constant tensor:
#      x y z
#    x 3.433730 0.000000 0.000000 
#    y 0.000000 3.433730 0.000000 
#    z 0.000000 0.000000 3.674680 
# 
# 
# High freq. dielectric constant tensor:
#      x y z
#    x 1.791540 0.000000 0.000000 
#    y 0.000000 1.791540 0.000000 
#    z 0.000000 0.000000 1.819780 
# 
# From -- ./inp_files/1426.got.cif
#   From: 2010.03.12/outbox.cif.g09.slc.cpg/sg173_cif.got.tgz:1426.got - 2010.04.02 06:54:12.
