data_PCOD8324548
_publ_section_title
;
Structure prediction by ZEFSAII (Michael W. Deem and Ramdas Pophale) SiO2 
 PCOD8324548
Probable space group: P 61
;
_chemical_formula_sum "Si O2"
_cell_formula_units_Z 24
_cell_length_a 7.539694
_cell_length_b 7.539694
_cell_length_c 25.333468
_cell_angle_alpha 90.000000
_cell_angle_beta 90.000000
_cell_angle_gamma 120.000000
_cell_volume 1247.190283
_symmetry_space_group_name_H-M "P 61"
_symmetry_group_IT_number 169
_symmetry_cell_setting 'hexagonal'
loop_
_space_group_symop_operation_xyz
x,y,z
x-y,x,1/6+z
-y,x-y,1/3+z
-x,-y,1/2+z
-x+y,-x,2/3+z
y,-x+y,5/6+z
loop_
_atom_site_type_symbol
_atom_site_label
_atom_site_fract_x
_atom_site_fract_y
_atom_site_fract_z
Si Si1 0.587267 0.631174 0.439540
Si Si2 0.188698 0.819647 0.308700
Si Si3 0.200852 0.992626 0.663136
Si Si4 0.304638 0.809193 0.423520
O O1 0.423305 0.389204 0.441648
O O2 0.718831 0.696093 0.386468
O O3 0.753039 0.707907 0.486918
O O4 0.450938 0.734535 0.447068
O O5 0.052830 0.627183 0.270337
O O6 0.043417 0.915232 0.326280
O O7 0.264264 0.758105 0.361670
O O8 0.386312 0.085388 0.620434
#
# Coordination Sequence:
#
# PCOD8324548 Si02
#       4
#     6   6   6   6
#     4  12  22  43  67  87 136 172 202 275 321 368
#     4  10  23  44  62  97 127 166 218 261 314 394
#     4  10  22  42  62  95 128 159 221 261 305 396
#     4  10  23  43  63  95 129 165 217 259 324 384
#
# _framework density 19.243252999999999
#
# number of rings (size 3 to 8) (size 9 to 14) (size 15 to 20)
#    1.500    0.000    5.000    0.000    3.500    0.000 
#   13.500    0.000    0.000    0.000    0.000    0.000 
#    0.000    0.000    0.000    0.000    0.000    0.000 
#
# Total GULP energy -297340.070939 kJ/mol
# GULP energy per Si atom -12389.169622 kJ/mol
# Density = 1.919945 g / cm^3
# Si number density = 19.243253 Si / 1000 Ang^3
#
#
#
# Elastic Constant Matrix: (Units=GPa)
#
#
# Indices 1 2 3 4 5 6 
#
# 1 109.9418 50.3998 10.0400 0.0000 0.0000 0.0000
# 2 50.3998 109.9418 10.0400 0.0000 0.0000 0.0000
# 3 10.0400 10.0400 66.3504 0.0000 0.0000 0.0000
# 4 0.0000 0.0000 0.0000 22.2305 0.0000 0.0000
# 5 0.0000 0.0000 0.0000 0.0000 22.2305 0.0000
# 6 0.0000 0.0000 0.0000 0.0000 0.0000 29.7710
#
#
#
# Elastic Compliance Matrix: (Units=1/GPa)
#
#
# Indices 1 2 3 4 5 6 
#
# 1 0.011576 -0.005219 -0.000962 0.000000 0.000000 0.000000
# 2 -0.005219 0.011576 -0.000962 0.000000 0.000000 0.000000
# 3 -0.000962 -0.000962 0.015363 0.000000 0.000000 0.000000
# 4 0.000000 0.000000 0.000000 0.044983 0.000000 0.000000
# 5 0.000000 0.000000 0.000000 0.000000 0.044983 0.000000
# 6 0.000000 0.000000 0.000000 0.000000 0.000000 0.033590
#
#
# Mechanical properties :
#
#
# Convention : Reuss Voigt Hill
#
# Bulk Modulus (GPa) = 41.27266 47.46596 44.36931
# Shear Modulus (GPa) = 27.11014 29.23000 28.17007
#
# Velocity S-wave (km/s) = 3.75749 3.90163 3.83024
# Velocity P-wave (km/s) = 6.34975 6.70946 6.53208
#
# Compressibility (1/GPa) = 0.02422911
#
# Stress axis : x y z
#
# Youngs Moduli (GPa) = 86.38554 86.38554 65.09307
#
# Poissons Ratio (x) = 0.45083 0.06262
# Poissons Ratio (y) = 0.45083 0.06262
# Poissons Ratio (z) = 0.08310 0.08310
#
# Static dielectric constant tensor:
#      x y z
#    x 3.384460 0.000000 0.000000 
#    y 0.000000 3.384460 0.000000 
#    z 0.000000 0.000000 3.452780 
# 
# 
# High freq. dielectric constant tensor:
#      x y z
#    x 1.734850 0.000000 0.000000 
#    y 0.000000 1.734850 0.000000 
#    z 0.000000 0.000000 1.756500 
# 
# From -- ./inp_files/1457.got.cif
#   From: 2010.03.12/outbox.cif.g09.slc.cpg/sg169_cif.got.tgz:1457.got - 2010.04.02 06:46:06.
