data_PCOD8324176
_publ_section_title
;
Structure prediction by ZEFSAII (Michael W. Deem and Ramdas Pophale) SiO2 
 PCOD8324176
Probable space group: R -3 M
;
_chemical_formula_sum "Si O2"
_cell_formula_units_Z 234
_cell_length_a 24.300966
_cell_length_b 24.300966
_cell_length_c 22.931995
_cell_angle_alpha 90.000000
_cell_angle_beta 90.000000
_cell_angle_gamma 120.000000
_cell_volume 11727.880867
_symmetry_space_group_name_H-M "R -3 M"
_symmetry_group_IT_number 166
_symmetry_cell_setting 'hexagonal'
loop_
_space_group_symop_operation_xyz
x,y,z
-y,x-y,z
-x+y,-x,z
x-y,-y,-z
-x,-x+y,-z
y,x,-z
-x,-y,-z
y,-x+y,-z
x-y,x,-z
-x+y,y,z
x,x-y,z
-y,-x,z
2/3+x,1/3+y,1/3+z
2/3-y,1/3+x-y,1/3+z
2/3-x+y,1/3-x,1/3+z
2/3+x-y,1/3-y,1/3-z
2/3-x,1/3-x+y,1/3-z
2/3+y,1/3+x,1/3-z
2/3-x,1/3-y,1/3-z
2/3+y,1/3-x+y,1/3-z
2/3+x-y,1/3+x,1/3-z
2/3-x+y,1/3+y,1/3+z
2/3+x,1/3+x-y,1/3+z
2/3-y,1/3-x,1/3+z
1/3+x,2/3+y,2/3+z
1/3-y,2/3+x-y,2/3+z
1/3-x+y,2/3-x,2/3+z
1/3+x-y,2/3-y,2/3-z
1/3-x,2/3-x+y,2/3-z
1/3+y,2/3+x,2/3-z
1/3-x,2/3-y,2/3-z
1/3+y,2/3-x+y,2/3-z
1/3+x-y,2/3+x,2/3-z
1/3-x+y,2/3+y,2/3+z
1/3+x,2/3+x-y,2/3+z
1/3-y,2/3-x,2/3+z
loop_
_atom_site_type_symbol
_atom_site_label
_atom_site_fract_x
_atom_site_fract_y
_atom_site_fract_z
Si Si1 0.709757 0.163779 0.511364
Si Si2 0.463329 0.666667 0.166667
Si Si3 0.883966 0.505799 0.938414
Si Si4 0.671804 0.720004 0.455141
Si Si5 0.699540 0.174877 0.271395
Si Si6 0.944214 0.675208 0.046455
Si Si7 0.707828 0.166206 0.044440
O O1 0.766202 0.233799 0.526980
O O2 0.737719 0.115565 0.515369
O O3 0.686020 0.166613 0.446392
O O4 0.651893 0.142176 0.556600
O O5 0.455266 0.727633 0.164912
O O6 0.502855 0.667975 0.109999
O O7 0.894253 0.447127 0.931502
O O8 0.954832 0.566545 0.930988
O O9 0.854560 0.503349 0.001416
O O10 0.724886 0.724886 0.500000
O O11 0.632406 0.646705 0.436283
O O12 0.752025 0.247976 0.259014
O O13 0.666667 0.171050 0.333334
O O14 0.734954 0.133907 0.272104
O O15 0.877186 0.615800 0.026713
O O16 0.000000 0.697277 0.000000
O O17 0.760508 0.239493 0.036054
#
# Coordination Sequence:
#
# PCOD8324176 Si02
#       7
#    36  18  36  36  36  36  36
#     4  11  24  41  64  91 125 164 205 253 311 369
#     4  10  21  36  54  76 108 152 205 260 302 338
#     4  11  22  37  59  87 122 163 208 252 299 353
#     4  11  20  38  57  92 130 163 197 243 305 376
#     4  11  23  41  65  92 123 157 202 254 314 376
#     4  10  20  37  58  90 126 160 193 242 306 375
#     4  11  23  39  62  89 124 164 209 253 302 361
#
# _framework density 19.952453999999999
#
# number of rings (size 3 to 8) (size 9 to 14) (size 15 to 20)
#    0.000    1.231    3.846    2.846    0.000    0.000 
#    0.000    6.154    0.000    9.846    0.000    0.000 
#    0.000    0.000    0.000    0.000    0.000    0.000 
#
# Total GULP energy -967141.594492 kJ/mol
# GULP energy per Si atom -12399.251211 kJ/mol
# Density = 1.990704 g / cm^3
# Si number density = 19.952454 Si / 1000 Ang^3
#
#
#
# Elastic Constant Matrix: (Units=GPa)
#
#
# Indices 1 2 3 4 5 6 
#
# 1 83.7817 38.9564 25.1352 -1.5528 0.0000 0.0000
# 2 38.9564 83.7817 25.1352 1.5528 0.0000 0.0000
# 3 25.1352 25.1352 103.4531 0.0000 0.0000 0.0000
# 4 -1.5528 1.5528 0.0000 27.6385 0.0000 0.0000
# 5 0.0000 0.0000 0.0000 0.0000 27.6385 -1.5528
# 6 0.0000 0.0000 0.0000 0.0000 -1.5528 22.4127
#
#
#
# Elastic Compliance Matrix: (Units=1/GPa)
#
#
# Indices 1 2 3 4 5 6 
#
# 1 0.015722 -0.006674 -0.002198 0.001258 0.000000 0.000000
# 2 -0.006674 0.015722 -0.002198 -0.001258 0.000000 0.000000
# 3 -0.002198 -0.002198 0.010734 0.000000 0.000000 0.000000
# 4 0.001258 -0.001258 0.000000 0.036323 0.000000 0.000000
# 5 0.000000 0.000000 0.000000 0.000000 0.036323 0.002516
# 6 0.000000 0.000000 0.000000 0.000000 0.002516 0.044792
#
#
# Mechanical properties :
#
#
# Convention : Reuss Voigt Hill
#
# Bulk Modulus (GPa) = 49.90794 49.94114 49.92454
# Shear Modulus (GPa) = 26.53422 27.65726 27.09574
#
# Velocity S-wave (km/s) = 3.65070 3.72715 3.68912
# Velocity P-wave (km/s) = 6.54506 6.60353 6.57436
#
# Compressibility (1/GPa) = 0.02003689
#
# Stress axis : x y z
#
# Youngs Moduli (GPa) = 63.60559 63.60559 93.15837
#
# Poissons Ratio (x) = 0.42451 0.20479
# Poissons Ratio (y) = 0.42451 0.20479
# Poissons Ratio (z) = 0.13982 0.13982
#
# Static dielectric constant tensor:
#      x y z
#    x 3.529850 0.000000 0.000000 
#    y 0.000000 3.529850 0.000000 
#    z 0.000000 0.000000 3.733840 
# 
# 
# High freq. dielectric constant tensor:
#      x y z
#    x 1.774030 0.000000 0.000000 
#    y 0.000000 1.774030 0.000000 
#    z 0.000000 0.000000 1.782180 
# 
# From -- ./inp_files/7242.got.cif
#   From: 2010.03.12/outbox.cif.g09.slc.cpg/sg166_4_cif.got.tgz:7242.got - 2010.04.02 06:38:31.
