data_PCOD8324611
_publ_section_title
;
Structure prediction by ZEFSAII (Michael W. Deem and Ramdas Pophale) SiO2 
 PCOD8324611
Probable space group: P 61
;
_chemical_formula_sum "Si O2"
_cell_formula_units_Z 48
_cell_length_a 11.528812
_cell_length_b 11.528812
_cell_length_c 19.083036
_cell_angle_alpha 90.000000
_cell_angle_beta 90.000000
_cell_angle_gamma 120.000000
_cell_volume 2196.580965
_symmetry_space_group_name_H-M "P 61"
_symmetry_group_IT_number 169
_symmetry_cell_setting 'hexagonal'
loop_
_space_group_symop_operation_xyz
x,y,z
x-y,x,1/6+z
-y,x-y,1/3+z
-x,-y,1/2+z
-x+y,-x,2/3+z
y,-x+y,5/6+z
loop_
_atom_site_type_symbol
_atom_site_label
_atom_site_fract_x
_atom_site_fract_y
_atom_site_fract_z
Si Si1 0.126822 0.384148 0.438340
Si Si2 0.642311 0.674580 0.923280
Si Si3 0.937933 0.353972 0.105965
Si Si4 0.625362 0.834532 0.035648
Si Si5 0.456968 0.146085 0.049828
Si Si6 0.607970 0.336515 0.174158
Si Si7 0.581235 0.709447 0.187495
Si Si8 0.787360 0.567993 0.562844
O O1 0.233405 0.347051 0.406582
O O2 0.125940 0.387719 0.522198
O O3 0.180405 0.532328 0.408251
O O4 0.975996 0.291049 0.409571
O O5 0.507168 0.536671 0.943779
O O6 0.702329 0.780898 0.986975
O O7 0.919409 0.290066 0.185010
O O8 0.050536 0.345613 0.059038
O O9 0.797312 0.255783 0.069275
O O10 0.490564 0.781456 0.988486
O O11 0.590934 0.757743 0.108603
O O12 0.713696 0.995046 0.043751
O O13 0.513366 0.263251 0.107771
O O14 0.557598 0.091887 0.031751
O O15 0.434094 0.202540 0.978733
O O16 0.682938 0.258829 0.197360
#
# Coordination Sequence:
#
# PCOD8324611 Si02
#       8
#     6   6   6   6   6   6   6   6
#     4  12  25  43  68 103 141 189 228 305 361 425
#     4  12  25  43  72 101 146 184 244 296 358 432
#     4  12  25  44  70 105 143 186 236 300 361 423
#     4  12  25  42  70 108 140 189 240 292 357 430
#     4  12  25  42  71 103 140 183 238 293 362 436
#     4  12  23  42  69 110 139 183 230 292 369 418
#     4  12  24  43  72 102 144 181 238 291 358 426
#     4  12  26  43  70 104 143 187 232 295 360 432
#
# _framework density 21.852141
#
# number of rings (size 3 to 8) (size 9 to 14) (size 15 to 20)
#    0.000    0.000    7.500    2.250    3.500    1.000 
#    0.000    0.000   16.500    0.000    0.000    0.000 
#    0.000    0.000    0.000    0.000    0.000    0.000 
#
# Total GULP energy -595034.812925 kJ/mol
# GULP energy per Si atom -12396.558603 kJ/mol
# Density = 2.180240 g / cm^3
# Si number density = 21.852141 Si / 1000 Ang^3
#
#
#
# Elastic Constant Matrix: (Units=GPa)
#
#
# Indices 1 2 3 4 5 6 
#
# 1 86.8629 24.7023 25.7749 0.0000 0.0000 0.0000
# 2 24.7023 86.8629 25.7749 0.0000 0.0000 0.0000
# 3 25.7749 25.7749 123.2156 0.0000 0.0000 0.0000
# 4 0.0000 0.0000 0.0000 25.8715 0.0000 0.0000
# 5 0.0000 0.0000 0.0000 0.0000 25.8715 0.0000
# 6 0.0000 0.0000 0.0000 0.0000 0.0000 31.0803
#
#
#
# Elastic Compliance Matrix: (Units=1/GPa)
#
#
# Indices 1 2 3 4 5 6 
#
# 1 0.013005 -0.003082 -0.002076 0.000000 0.000000 0.000000
# 2 -0.003082 0.013005 -0.002076 0.000000 0.000000 0.000000
# 3 -0.002076 -0.002076 0.008984 0.000000 0.000000 0.000000
# 4 0.000000 0.000000 0.000000 0.038653 0.000000 0.000000
# 5 0.000000 0.000000 0.000000 0.000000 0.038653 0.000000
# 6 0.000000 0.000000 0.000000 0.000000 0.000000 0.032175
#
#
# Mechanical properties :
#
#
# Convention : Reuss Voigt Hill
#
# Bulk Modulus (GPa) = 48.71729 49.93840 49.32785
# Shear Modulus (GPa) = 30.15980 31.27727 30.71854
#
# Velocity S-wave (km/s) = 3.71910 3.78738 3.75339
# Velocity P-wave (km/s) = 6.38629 6.48291 6.43478
#
# Compressibility (1/GPa) = 0.02052659
#
# Stress axis : x y z
#
# Youngs Moduli (GPa) = 76.89412 76.89412 111.30604
#
# Poissons Ratio (x) = 0.23702 0.23103
# Poissons Ratio (y) = 0.23702 0.23103
# Poissons Ratio (z) = 0.15960 0.15960
#
# Static dielectric constant tensor:
#      x y z
#    x 3.924450 0.000000 0.000000 
#    y 0.000000 3.924450 0.000000 
#    z 0.000000 0.000000 4.203670 
# 
# 
# High freq. dielectric constant tensor:
#      x y z
#    x 1.847890 0.000000 0.000000 
#    y 0.000000 1.847890 0.000000 
#    z 0.000000 0.000000 1.878840 
# 
# From -- ./inp_files/1418.got.cif
#   From: 2010.03.12/outbox.cif.g09.slc.cpg/sg169_cif.got.tgz:1418.got - 2010.04.02 06:46:06.
