data_PCOD8324792
_publ_section_title
;
Structure prediction by ZEFSAII (Michael W. Deem and Ramdas Pophale) SiO2 
 PCOD8324792
Probable space group: P 62
;
_chemical_formula_sum "Si O2"
_cell_formula_units_Z 39
_cell_length_a 12.716791
_cell_length_b 12.716791
_cell_length_c 13.118888
_cell_angle_alpha 90.000000
_cell_angle_beta 90.000000
_cell_angle_gamma 120.000000
_cell_volume 1837.311205
_symmetry_space_group_name_H-M "P 62"
_symmetry_group_IT_number 171
_symmetry_cell_setting 'hexagonal'
loop_
_space_group_symop_operation_xyz
x,y,z
x-y,x,1/3+z
-y,x-y,2/3+z
-x,-y,z
-x+y,-x,1/3+z
y,-x+y,2/3+z
loop_
_atom_site_type_symbol
_atom_site_label
_atom_site_fract_x
_atom_site_fract_y
_atom_site_fract_z
Si Si1 0.975983 0.137371 0.180820
Si Si2 0.403448 0.807826 0.129069
Si Si3 0.831385 0.872719 0.081480
Si Si4 0.500000 0.000000 0.963669
Si Si5 0.125135 0.690860 0.129319
Si Si6 0.000000 0.500000 0.964262
Si Si7 0.500000 0.500000 0.962698
Si Si8 0.126971 0.434442 0.465401
O O1 0.897083 0.200533 0.159585
O O2 0.104246 0.202493 0.120561
O O3 0.023986 0.146527 0.295062
O O4 0.894857 0.002109 0.137631
O O5 0.262988 0.735428 0.096341
O O6 0.410372 0.886673 0.227616
O O7 0.456542 0.719509 0.154604
O O8 0.483933 0.890210 0.034944
O O9 0.692707 0.813961 0.116602
O O10 0.618256 0.041934 0.893717
O O11 0.098215 0.608651 0.228247
O O12 0.037372 0.617293 0.035012
O O13 0.541334 0.618903 0.028530
#
# Coordination Sequence:
#
# PCOD8324792 Si02
#       8
#     6   6   6   3   6   3   3   6
#     4  11  25  44  71 106 141 184 236 300 363 429
#     4  11  26  44  70 102 142 180 239 292 356 423
#     4  11  25  44  71 106 141 184 236 300 363 429
#     4  10  26  44  66 106 130 188 234 280 358 416
#     4  11  25  45  71 101 141 184 232 295 353 432
#     4  10  26  44  66 106 130 188 234 280 358 416
#     4  10  24  46  68 104 132 182 236 272 364 408
#     4  11  25  45  71 101 141 184 232 295 353 432
#
# _framework density 21.226672000000001
#
# number of rings (size 3 to 8) (size 9 to 14) (size 15 to 20)
#    0.000    1.231    1.538    2.769   12.923    2.462 
#    5.538    0.000    0.000    0.000    0.000    0.000 
#    0.000    0.000    0.000    0.000    0.000    0.000 
#
# Total GULP energy -483518.882678 kJ/mol
# GULP energy per Si atom -12397.920069 kJ/mol
# Density = 2.117836 g / cm^3
# Si number density = 21.226672 Si / 1000 Ang^3
#
#
#
# Elastic Constant Matrix: (Units=GPa)
#
#
# Indices 1 2 3 4 5 6 
#
# 1 98.7863 33.7603 30.1270 0.0000 0.0000 0.0000
# 2 33.7603 98.7863 30.1270 0.0000 0.0000 0.0000
# 3 30.1270 30.1270 120.6179 0.0000 0.0000 0.0000
# 4 0.0000 0.0000 0.0000 21.9306 0.0000 0.0000
# 5 0.0000 0.0000 0.0000 0.0000 21.9306 0.0000
# 6 0.0000 0.0000 0.0000 0.0000 0.0000 32.5130
#
#
#
# Elastic Compliance Matrix: (Units=1/GPa)
#
#
# Indices 1 2 3 4 5 6 
#
# 1 0.011945 -0.003434 -0.002126 0.000000 0.000000 0.000000
# 2 -0.003434 0.011945 -0.002126 0.000000 0.000000 0.000000
# 3 -0.002126 -0.002126 0.009353 0.000000 0.000000 0.000000
# 4 0.000000 0.000000 0.000000 0.045598 0.000000 0.000000
# 5 0.000000 0.000000 0.000000 0.000000 0.045598 0.000000
# 6 0.000000 0.000000 0.000000 0.000000 0.000000 0.030757
#
#
# Mechanical properties :
#
#
# Convention : Reuss Voigt Hill
#
# Bulk Modulus (GPa) = 55.95600 56.24657 56.10129
# Shear Modulus (GPa) = 28.32481 30.21988 29.27235
#
# Velocity S-wave (km/s) = 3.65690 3.77725 3.71757
# Velocity P-wave (km/s) = 6.65199 6.75123 6.70180
#
# Compressibility (1/GPa) = 0.01787119
#
# Stress axis : x y z
#
# Youngs Moduli (GPa) = 83.71929 83.71929 106.92252
#
# Poissons Ratio (x) = 0.28748 0.22729
# Poissons Ratio (y) = 0.28748 0.22729
# Poissons Ratio (z) = 0.17797 0.17797
#
# Static dielectric constant tensor:
#      x y z
#    x 3.909880 0.000000 0.000000 
#    y 0.000000 3.909880 0.000000 
#    z 0.000000 0.000000 4.058510 
# 
# 
# High freq. dielectric constant tensor:
#      x y z
#    x 1.831300 0.000000 0.000000 
#    y 0.000000 1.831300 0.000000 
#    z 0.000000 0.000000 1.855150 
# 
# From -- ./inp_files/2043.got.cif
#   From: 2010.03.12/outbox.cif.g09.slc.cpg/sg171_2_cif.got.tgz:2043.got - 2010.04.02 06:49:11.
