data_PCOD8324621
_publ_section_title
;
Structure prediction by ZEFSAII (Michael W. Deem and Ramdas Pophale) SiO2 
 PCOD8324621
Probable space group: P 61
;
_chemical_formula_sum "Si O2"
_cell_formula_units_Z 24
_cell_length_a 15.037234
_cell_length_b 15.037234
_cell_length_c 4.775008
_cell_angle_alpha 90.000000
_cell_angle_beta 90.000000
_cell_angle_gamma 120.000000
_cell_volume 935.062524
_symmetry_space_group_name_H-M "P 61"
_symmetry_group_IT_number 169
_symmetry_cell_setting 'hexagonal'
loop_
_space_group_symop_operation_xyz
x,y,z
x-y,x,1/6+z
-y,x-y,1/3+z
-x,-y,1/2+z
-x+y,-x,2/3+z
y,-x+y,5/6+z
loop_
_atom_site_type_symbol
_atom_site_label
_atom_site_fract_x
_atom_site_fract_y
_atom_site_fract_z
Si Si1 0.441382 0.938069 0.401500
Si Si2 0.338933 0.569366 0.477689
Si Si3 0.879137 0.110367 0.286938
Si Si4 0.628820 0.788179 0.947110
O O1 0.438548 0.841681 0.554275
O O2 0.331610 0.922596 0.317233
O O3 0.494547 0.036669 0.610794
O O4 0.412512 0.661235 0.683889
O O5 0.275464 0.465648 0.662242
O O6 0.833512 0.167753 0.470199
O O7 0.000922 0.163597 0.267176
O O8 0.844848 0.116636 0.974719
#
# Coordination Sequence:
#
# PCOD8324621 Si02
#       4
#     6   6   6   6
#     4  12  28  47  76 113 162 216 273 334 400 475
#     4  12  26  50  75 112 163 224 277 327 397 495
#     4  12  30  55  84 117 156 202 266 350 432 501
#     4  12  28  50  79 118 155 206 268 329 401 483
#
# _framework density 25.666729
#
# number of rings (size 3 to 8) (size 9 to 14) (size 15 to 20)
#    0.000    0.000    2.500    6.000   10.500    2.000 
#    0.000    0.000    0.000    0.000    0.000    0.000 
#    0.000    0.000    0.000    0.000    0.000    0.000 
#
# Total GULP energy -297636.429327 kJ/mol
# GULP energy per Si atom -12401.517889 kJ/mol
# Density = 2.560831 g / cm^3
# Si number density = 25.666729 Si / 1000 Ang^3
#
#
#
# Elastic Constant Matrix: (Units=GPa)
#
#
# Indices 1 2 3 4 5 6 
#
# 1 100.9341 52.6084 12.9186 0.0000 0.0000 0.0000
# 2 52.6084 100.9341 12.9186 0.0000 0.0000 0.0000
# 3 12.9186 12.9186 94.7012 0.0000 0.0000 0.0000
# 4 0.0000 0.0000 0.0000 51.8482 0.0000 0.0000
# 5 0.0000 0.0000 0.0000 0.0000 51.8482 0.0000
# 6 0.0000 0.0000 0.0000 0.0000 0.0000 24.1628
#
#
#
# Elastic Compliance Matrix: (Units=1/GPa)
#
#
# Indices 1 2 3 4 5 6 
#
# 1 0.013679 -0.007014 -0.000909 0.000000 0.000000 0.000000
# 2 -0.007014 0.013679 -0.000909 0.000000 0.000000 0.000000
# 3 -0.000909 -0.000909 0.010808 0.000000 0.000000 0.000000
# 4 0.000000 0.000000 0.000000 0.019287 0.000000 0.000000
# 5 0.000000 0.000000 0.000000 0.000000 0.019287 0.000000
# 6 0.000000 0.000000 0.000000 0.000000 0.000000 0.041386
#
#
# Mechanical properties :
#
#
# Convention : Reuss Voigt Hill
#
# Bulk Modulus (GPa) = 48.77555 50.38451 49.58003
# Shear Modulus (GPa) = 35.05702 40.11343 37.58522
#
# Velocity S-wave (km/s) = 3.69976 3.95759 3.83084
# Velocity P-wave (km/s) = 6.10701 6.36838 6.23906
#
# Compressibility (1/GPa) = 0.02050207
#
# Stress axis : x y z
#
# Youngs Moduli (GPa) = 73.10261 73.10261 92.52736
#
# Poissons Ratio (x) = 0.51271 0.08414
# Poissons Ratio (y) = 0.51271 0.08414
# Poissons Ratio (z) = 0.06647 0.06647
#
# Static dielectric constant tensor:
#      x y z
#    x 4.653510 0.000000 0.000000 
#    y 0.000000 4.653510 0.000000 
#    z 0.000000 0.000000 4.685350 
# 
# 
# High freq. dielectric constant tensor:
#      x y z
#    x 2.034590 0.000000 0.000000 
#    y 0.000000 2.034590 0.000000 
#    z 0.000000 0.000000 2.040370 
# 
# From -- ./inp_files/91.got.cif
#   From: 2010.03.12/outbox.cif.g09.slc.cpg/sg169_cif.got.tgz:91.got - 2010.04.02 06:46:06.
