data_PCOD8324909
_publ_section_title
;
Structure prediction by ZEFSAII (Michael W. Deem and Ramdas Pophale) SiO2 
 PCOD8324909
Probable space group: P -6
;
_chemical_formula_sum "Si O2"
_cell_formula_units_Z 42
_cell_length_a 15.506638
_cell_length_b 15.506638
_cell_length_c 13.728058
_cell_angle_alpha 90.000000
_cell_angle_beta 90.000000
_cell_angle_gamma 120.000000
_cell_volume 2858.742472
_symmetry_space_group_name_H-M "P -6"
_symmetry_group_IT_number 174
_symmetry_cell_setting 'hexagonal'
loop_
_space_group_symop_operation_xyz
x,y,z
-x+y,-x,-z
-y,x-y,z
x,y,-z
-x+y,-x,z
-y,x-y,-z
loop_
_atom_site_type_symbol
_atom_site_label
_atom_site_fract_x
_atom_site_fract_y
_atom_site_fract_z
Si Si1 0.102460 0.872331 0.615998
Si Si2 0.786031 0.230391 0.383764
Si Si3 0.442078 0.559654 0.385451
Si Si4 0.460920 0.723962 0.107342
Si Si5 0.224053 0.775610 0.693502
Si Si6 0.892242 0.454311 0.616008
Si Si7 0.221138 0.098171 0.384391
O O1 0.108727 0.864046 0.500000
O O2 0.142898 0.805877 0.665164
O O3 0.990231 0.831422 0.652512
O O4 0.164162 0.985335 0.653997
O O5 0.785153 0.229993 0.500000
O O6 0.674154 0.166136 0.343357
O O7 0.836402 0.342154 0.342858
O O8 0.848962 0.181659 0.343140
O O9 0.424261 0.546324 0.500000
O O10 0.521005 0.673651 0.361769
O O11 0.337291 0.526103 0.335337
O O12 0.486788 0.492075 0.346000
O O13 0.395255 0.779136 0.117894
O O14 0.545464 0.760399 0.189788
O O15 0.511719 0.746918 0.000000
O O16 0.890836 0.451759 0.500000
O O17 0.220197 0.096976 0.500000
#
# Coordination Sequence:
#
# PCOD8324909 Si02
#       7
#     6   6   6   6   6   6   6
#     4  10  19  29  43  60  84 117 159 192 216 252
#     4   9  15  25  37  48  66  96 139 178 209 232
#     4  11  20  27  36  58  93 121 143 164 203 258
#     4   8  15  31  48  62  84 115 147 179 210 256
#     4  12  19  29  42  65  88 121 144 171 220 263
#     4   9  17  26  37  52  72 105 143 178 205 239
#     4   9  17  29  40  53  76 113 152 188 213 232
#
# _framework density 14.691775
#
# number of rings (size 3 to 8) (size 9 to 14) (size 15 to 20)
#    0.286    2.000    1.429    3.857    0.000    6.857 
#    0.000    0.000    0.000    0.000    0.000    1.000 
#    0.000    0.000    0.000    1.286    0.000    0.857 
#
# Total GULP energy -520688.986558 kJ/mol
# GULP energy per Si atom -12397.356823 kJ/mol
# Density = 1.465834 g / cm^3
# Si number density = 14.691775 Si / 1000 Ang^3
#
#
#
# Elastic Constant Matrix: (Units=GPa)
#
#
# Indices 1 2 3 4 5 6 
#
# 1 85.6611 22.7830 16.0045 0.0000 0.0000 0.0000
# 2 22.7830 85.6611 16.0045 0.0000 0.0000 0.0000
# 3 16.0045 16.0045 40.1960 0.0000 0.0000 0.0000
# 4 0.0000 0.0000 0.0000 6.2800 0.0000 0.0000
# 5 0.0000 0.0000 0.0000 0.0000 6.2800 0.0000
# 6 0.0000 0.0000 0.0000 0.0000 0.0000 31.4390
#
#
#
# Elastic Compliance Matrix: (Units=1/GPa)
#
#
# Indices 1 2 3 4 5 6 
#
# 1 0.013177 -0.002727 -0.004161 0.000000 0.000000 0.000000
# 2 -0.002727 0.013177 -0.004161 0.000000 0.000000 0.000000
# 3 -0.004161 -0.004161 0.028191 0.000000 0.000000 0.000000
# 4 0.000000 0.000000 0.000000 0.159236 0.000000 0.000000
# 5 0.000000 0.000000 0.000000 0.000000 0.159236 0.000000
# 6 0.000000 0.000000 0.000000 0.000000 0.000000 0.031808
#
#
# Mechanical properties :
#
#
# Convention : Reuss Voigt Hill
#
# Bulk Modulus (GPa) = 30.81873 35.67804 33.24838
# Shear Modulus (GPa) = 11.42241 19.24822 15.33531
#
# Velocity S-wave (km/s) = 2.79134 3.62351 3.23430
# Velocity P-wave (km/s) = 5.60457 6.46865 6.05205
#
# Compressibility (1/GPa) = 0.03244780
#
# Stress axis : x y z
#
# Youngs Moduli (GPa) = 75.89216 75.89216 35.47205
#
# Poissons Ratio (x) = 0.20697 0.14758
# Poissons Ratio (y) = 0.20697 0.14758
# Poissons Ratio (z) = 0.31575 0.31575
#
# Static dielectric constant tensor:
#      x y z
#    x 2.945660 0.000000 0.000000 
#    y 0.000000 2.945660 0.000000 
#    z 0.000000 0.000000 2.336060 
# 
# 
# High freq. dielectric constant tensor:
#      x y z
#    x 1.569320 0.000000 0.000000 
#    y 0.000000 1.569320 0.000000 
#    z 0.000000 0.000000 1.488680 
# 
# From -- ./inp_files/931.got.cif
#   From: 2010.03.12/outbox.cif.g09.slc.cpg/sg174_cif.got.tgz:931.got - 2010.04.02 06:54:58.
