data_PCOD8324107
_publ_section_title
;
Structure prediction by ZEFSAII (Michael W. Deem and Ramdas Pophale) SiO2 
 PCOD8324107
Probable space group: R -3 M
;
_chemical_formula_sum "Si O2"
_cell_formula_units_Z 198
_cell_length_a 20.620682
_cell_length_b 20.620682
_cell_length_c 30.307432
_cell_angle_alpha 90.000000
_cell_angle_beta 90.000000
_cell_angle_gamma 120.000000
_cell_volume 11160.555740
_symmetry_space_group_name_H-M "R -3 M"
_symmetry_group_IT_number 166
_symmetry_cell_setting 'hexagonal'
loop_
_space_group_symop_operation_xyz
x,y,z
-y,x-y,z
-x+y,-x,z
x-y,-y,-z
-x,-x+y,-z
y,x,-z
-x,-y,-z
y,-x+y,-z
x-y,x,-z
-x+y,y,z
x,x-y,z
-y,-x,z
2/3+x,1/3+y,1/3+z
2/3-y,1/3+x-y,1/3+z
2/3-x+y,1/3-x,1/3+z
2/3+x-y,1/3-y,1/3-z
2/3-x,1/3-x+y,1/3-z
2/3+y,1/3+x,1/3-z
2/3-x,1/3-y,1/3-z
2/3+y,1/3-x+y,1/3-z
2/3+x-y,1/3+x,1/3-z
2/3-x+y,1/3+y,1/3+z
2/3+x,1/3+x-y,1/3+z
2/3-y,1/3-x,1/3+z
1/3+x,2/3+y,2/3+z
1/3-y,2/3+x-y,2/3+z
1/3-x+y,2/3-x,2/3+z
1/3+x-y,2/3-y,2/3-z
1/3-x,2/3-x+y,2/3-z
1/3+y,2/3+x,2/3-z
1/3-x,2/3-y,2/3-z
1/3+y,2/3-x+y,2/3-z
1/3+x-y,2/3+x,2/3-z
1/3-x+y,2/3+y,2/3+z
1/3+x,2/3+x-y,2/3+z
1/3-y,2/3-x,2/3+z
loop_
_atom_site_type_symbol
_atom_site_label
_atom_site_fract_x
_atom_site_fract_y
_atom_site_fract_z
Si Si1 0.370558 0.481314 0.418028
Si Si2 0.818870 0.333334 0.833334
Si Si3 0.614686 0.650154 0.546681
Si Si4 0.412882 0.282244 0.915306
Si Si5 0.715932 0.581101 0.668841
Si Si6 0.182963 0.666698 0.822616
O O1 0.440864 0.559137 0.403898
O O2 0.400517 0.423961 0.427401
O O3 0.311158 0.454626 0.378970
O O4 0.329380 0.490865 0.460287
O O5 0.809218 0.404609 0.836883
O O6 0.862370 0.331315 0.876577
O O7 0.653390 0.653390 0.500000
O O8 0.668531 0.721558 0.575681
O O9 0.536593 0.649015 0.541425
O O10 0.395911 0.197956 0.914199
O O11 0.448769 0.318492 0.962020
O O12 0.787605 0.575209 0.682949
O O13 0.735760 0.666667 0.666667
O O14 0.175491 0.587746 0.809385
O O15 0.268138 0.731863 0.815666
#
# Coordination Sequence:
#
# PCOD8324107 Si02
#       6
#    36  18  36  36  36  36
#     4  10  20  36  56  78 109 142 177 221 268 320
#     4  10  21  36  54  76 105 140 176 216 264 318
#     4  10  19  34  53  81 108 139 174 217 269 317
#     4  11  21  35  54  79 109 138 178 223 265 315
#     4  11  22  36  54  77 106 139 179 222 265 313
#     4  10  20  34  54  80 110 144 179 216 265 322
#
# _framework density 17.741053000000001
#
# number of rings (size 3 to 8) (size 9 to 14) (size 15 to 20)
#    0.000    1.636    2.727    3.000    0.000    2.182 
#    0.000    0.000    0.000    5.091    0.000    0.000 
#    0.000    0.000    0.000    7.818    0.000    0.000 
#
# Total GULP energy -818658.919224 kJ/mol
# GULP energy per Si atom -12403.923019 kJ/mol
# Density = 1.770067 g / cm^3
# Si number density = 17.741053 Si / 1000 Ang^3
#
#
#
# Elastic Constant Matrix: (Units=GPa)
#
#
# Indices 1 2 3 4 5 6 
#
# 1 69.4554 25.7748 8.1599 -2.1575 -0.0006 0.0000
# 2 25.7748 69.4554 8.1599 2.1575 0.0006 0.0000
# 3 8.1599 8.1599 51.8714 0.0000 0.0000 0.0000
# 4 -2.1575 2.1575 0.0000 24.1363 0.0000 0.0006
# 5 -0.0006 0.0006 0.0000 0.0000 24.1363 -2.1575
# 6 0.0000 0.0000 0.0000 0.0006 -2.1575 21.8403
#
#
#
# Elastic Compliance Matrix: (Units=1/GPa)
#
#
# Indices 1 2 3 4 5 6 
#
# 1 0.016945 -0.006153 -0.001698 0.002065 0.000001 0.000000
# 2 -0.006153 0.016945 -0.001698 -0.002065 -0.000001 0.000000
# 3 -0.001698 -0.001698 0.019813 0.000000 0.000000 0.000000
# 4 0.002065 -0.002065 0.000000 0.041800 0.000000 -0.000001
# 5 0.000001 -0.000001 0.000000 0.000000 0.041800 0.004129
# 6 0.000000 0.000000 0.000000 -0.000001 0.004129 0.046195
#
#
# Mechanical properties :
#
#
# Convention : Reuss Voigt Hill
#
# Bulk Modulus (GPa) = 28.89712 30.55238 29.72475
# Shear Modulus (GPa) = 23.35042 23.93510 23.64276
#
# Velocity S-wave (km/s) = 3.63186 3.67704 3.65452
# Velocity P-wave (km/s) = 5.82330 5.94022 5.88205
#
# Compressibility (1/GPa) = 0.03460553
#
# Stress axis : x y z
#
# Youngs Moduli (GPa) = 59.01586 59.01586 50.47305
#
# Poissons Ratio (x) = 0.36311 0.08569
# Poissons Ratio (y) = 0.36311 0.08569
# Poissons Ratio (z) = 0.10019 0.10019
#
# Static dielectric constant tensor:
#      x y z
#    x 3.245380 0.000000 0.000000 
#    y 0.000000 3.245380 0.000000 
#    z 0.000000 0.000000 3.195800 
# 
# 
# High freq. dielectric constant tensor:
#      x y z
#    x 1.692050 0.000000 0.000000 
#    y 0.000000 1.692050 0.000000 
#    z 0.000000 0.000000 1.674470 
# 
# From -- ./inp_files/10641.got.cif
#   From: 2010.03.12/outbox.cif.g09.slc.cpg/sg166_6_cif.got.tgz:10641.got - 2010.04.02 06:38:31.
