data_PCOD8324011
_publ_section_title
;
Structure prediction by ZEFSAII (Michael W. Deem and Ramdas Pophale) SiO2 
 PCOD8324011
Probable space group: R -3 M
;
_chemical_formula_sum "Si O2"
_cell_formula_units_Z 216
_cell_length_a 26.978434
_cell_length_b 26.978434
_cell_length_c 20.203066
_cell_angle_alpha 90.000000
_cell_angle_beta 90.000000
_cell_angle_gamma 120.000000
_cell_volume 12734.485053
_symmetry_space_group_name_H-M "R -3 M"
_symmetry_group_IT_number 166
_symmetry_cell_setting 'hexagonal'
loop_
_space_group_symop_operation_xyz
x,y,z
-y,x-y,z
-x+y,-x,z
x-y,-y,-z
-x,-x+y,-z
y,x,-z
-x,-y,-z
y,-x+y,-z
x-y,x,-z
-x+y,y,z
x,x-y,z
-y,-x,z
2/3+x,1/3+y,1/3+z
2/3-y,1/3+x-y,1/3+z
2/3-x+y,1/3-x,1/3+z
2/3+x-y,1/3-y,1/3-z
2/3-x,1/3-x+y,1/3-z
2/3+y,1/3+x,1/3-z
2/3-x,1/3-y,1/3-z
2/3+y,1/3-x+y,1/3-z
2/3+x-y,1/3+x,1/3-z
2/3-x+y,1/3+y,1/3+z
2/3+x,1/3+x-y,1/3+z
2/3-y,1/3-x,1/3+z
1/3+x,2/3+y,2/3+z
1/3-y,2/3+x-y,2/3+z
1/3-x+y,2/3-x,2/3+z
1/3+x-y,2/3-y,2/3-z
1/3-x,2/3-x+y,2/3-z
1/3+y,2/3+x,2/3-z
1/3-x,2/3-y,2/3-z
1/3+y,2/3-x+y,2/3-z
1/3+x-y,2/3+x,2/3-z
1/3-x+y,2/3+y,2/3+z
1/3+x,2/3+x-y,2/3+z
1/3-y,2/3-x,2/3+z
loop_
_atom_site_type_symbol
_atom_site_label
_atom_site_fract_x
_atom_site_fract_y
_atom_site_fract_z
Si Si1 0.016027 0.247932 0.223314
Si Si2 0.601236 0.088725 0.743158
Si Si3 0.475154 0.414639 0.463315
Si Si4 0.934863 0.666692 0.017799
Si Si5 0.783363 0.947906 0.350178
Si Si6 0.874514 0.638012 0.792499
O O1 0.046524 0.222758 0.271087
O O2 0.062119 0.309837 0.195548
O O3 0.980587 0.207132 0.161391
O O4 0.968748 0.251654 0.264947
O O5 0.549481 0.098962 0.725404
O O6 0.656833 0.146377 0.716813
O O7 0.605776 0.079577 0.821519
O O8 0.588669 0.028489 0.711323
O O9 0.442419 0.442419 0.500000
O O10 0.543524 0.456477 0.467962
O O11 0.456160 0.407000 0.386171
O O12 0.000000 0.692025 0.000000
O O13 0.807210 0.903605 0.361518
O O14 0.721351 0.922681 0.385524
O O15 0.830870 0.661740 0.802251
#
# Coordination Sequence:
#
# PCOD8324011 Si02
#       6
#    36  36  36  36  36  36
#     4  10  18  28  45  65  89 121 158 196 233 276
#     4  10  20  32  48  68  93 126 162 201 241 285
#     4   9  18  30  43  62  91 126 161 195 230 272
#     4  10  18  28  45  68  95 126 161 196 233 281
#     4  10  20  32  47  66  91 122 155 196 246 294
#     4  10  19  31  46  67  94 120 151 193 241 292
#
# _framework density 16.961815999999999
#
# number of rings (size 3 to 8) (size 9 to 14) (size 15 to 20)
#    0.000    2.167    0.000    5.000    0.000    8.000 
#    0.000    0.000    0.000    0.333    0.000    0.000 
#    0.000    4.000    0.000    0.000    0.000    3.667 
#
# Total GULP energy -892262.369906 kJ/mol
# GULP energy per Si atom -12392.532915 kJ/mol
# Density = 1.692321 g / cm^3
# Si number density = 16.961816 Si / 1000 Ang^3
#
#
#
# Elastic Constant Matrix: (Units=GPa)
#
#
# Indices 1 2 3 4 5 6 
#
# 1 25.6127 31.2724 -0.5583 42.3891 0.0000 0.0000
# 2 31.2724 25.6127 -0.5583 -42.3891 0.0000 0.0000
# 3 -0.5583 -0.5583 38.9386 0.0000 0.0000 0.0000
# 4 42.3891 -42.3891 0.0000 -44.1096 0.0000 0.0000
# 5 0.0000 0.0000 0.0000 0.0000 -44.1096 42.3891
# 6 0.0000 0.0000 0.0000 0.0000 42.3891 -2.8298
#
#
#
# Elastic Compliance Matrix: (Units=1/GPa)
#
#
# Indices 1 2 3 4 5 6 
#
# 1 0.015387 0.002197 0.000252 0.012676 0.000000 0.000000
# 2 0.002197 0.015387 0.000252 -0.012676 0.000000 0.000000
# 3 0.000252 0.000252 0.025689 0.000000 0.000000 0.000000
# 4 0.012676 -0.012676 0.000000 0.001692 0.000000 0.000000
# 5 0.000000 0.000000 0.000000 0.000000 0.001692 0.025352
# 6 0.000000 0.000000 0.000000 0.000000 0.025352 0.026381
#
#
# Mechanical properties :
#
#
# Convention : Reuss Voigt Hill
#
# Bulk Modulus (GPa) = 16.16403 16.71949 16.44176
# Shear Modulus (GPa) = 49.28572 -14.20926 17.53823
#
# Velocity S-wave (km/s) = 5.39629 -2.89748 3.21905
# Velocity P-wave (km/s) = 6.95535 1.14687 4.85086
#
# Compressibility (1/GPa) = 0.06186576
#
# Stress axis : x y z
#
# Youngs Moduli (GPa) = 64.98821 64.98821 38.92759
#
# Poissons Ratio (x) = -0.14277 -0.00981
# Poissons Ratio (y) = -0.14277 -0.00981
# Poissons Ratio (z) = -0.01639 -0.01639
#
# Static dielectric constant tensor:
#      x y z
#    x 3.094220 0.000000 0.000000 
#    y 0.000000 3.094220 0.000000 
#    z 0.000000 0.000000 3.658540 
# 
# 
# High freq. dielectric constant tensor:
#      x y z
#    x 1.626170 0.000000 0.000000 
#    y 0.000000 1.626170 0.000000 
#    z 0.000000 0.000000 1.662770 
# 
# From -- ./inp_files/7142.got.cif
#   From: 2010.03.12/outbox.cif.g09.slc.cpg/sg166_4_cif.got.tgz:7142.got - 2010.04.02 06:38:31.
