data_PCOD8324859
_publ_section_title
;
Structure prediction by ZEFSAII (Michael W. Deem and Ramdas Pophale) SiO2 
 PCOD8324859
Probable space group: P 63
;
_chemical_formula_sum "Si O2"
_cell_formula_units_Z 34
_cell_length_a 14.277100
_cell_length_b 14.277100
_cell_length_c 9.000824
_cell_angle_alpha 90.000000
_cell_angle_beta 90.000000
_cell_angle_gamma 120.000000
_cell_volume 1588.886607
_symmetry_space_group_name_H-M "P 63"
_symmetry_group_IT_number 173
_symmetry_cell_setting 'hexagonal'
loop_
_space_group_symop_operation_xyz
x,y,z
x-y,x,1/2+z
-y,x-y,z
-x,-y,1/2+z
-x+y,-x,z
y,-x+y,1/2+z
loop_
_atom_site_type_symbol
_atom_site_label
_atom_site_fract_x
_atom_site_fract_y
_atom_site_fract_z
Si Si1 0.095034 0.513954 0.526580
Si Si2 0.666667 0.333333 0.001274
Si Si3 0.666668 0.333334 0.354947
Si Si4 0.959884 0.792081 0.384323
Si Si5 0.263060 0.822798 0.798626
Si Si6 0.044525 0.208662 0.219213
Si Si7 0.372375 0.397582 0.749837
O O1 0.207598 0.604952 0.449061
O O2 0.123840 0.446939 0.644242
O O3 0.025999 0.558972 0.610000
O O4 0.012948 0.440726 0.400160
O O5 0.666668 0.333334 0.177771
O O6 0.551173 0.323113 0.399084
O O7 0.913447 0.662781 0.387718
O O8 0.877545 0.823961 0.315595
O O9 0.978016 0.835937 0.551636
O O10 0.069078 0.845097 0.288079
O O11 0.146387 0.724409 0.762225
O O12 0.055224 0.326152 0.221787
#
# Coordination Sequence:
#
# PCOD8324859 Si02
#       7
#     6   2   2   6   6   6   6
#     4  11  22  44  68 100 138 185 238 284 358 431
#     4   9  18  42  72  84 136 198 210 282 370 411
#     4   9  15  39  66  97 120 186 228 265 354 429
#     4  11  25  43  68  97 142 181 234 290 353 426
#     4  10  21  40  69  95 136 187 222 286 356 420
#     4  11  26  44  69 102 138 188 232 290 360 422
#     4  11  25  40  72 103 134 183 238 285 351 425
#
# _framework density 21.398631999999999
#
# number of rings (size 3 to 8) (size 9 to 14) (size 15 to 20)
#    0.000    1.412    5.294    1.412   12.353    0.000 
#    0.000    0.000    0.000    0.000    0.000    0.000 
#    0.000    0.000    0.000    0.000    0.000    0.000 
#
# Total GULP energy -421458.624844 kJ/mol
# GULP energy per Si atom -12395.841907 kJ/mol
# Density = 2.134993 g / cm^3
# Si number density = 21.398632 Si / 1000 Ang^3
#
#
#
# Elastic Constant Matrix: (Units=GPa)
#
#
# Indices 1 2 3 4 5 6 
#
# 1 92.5108 50.2377 13.6195 0.0000 0.0000 0.0002
# 2 50.2377 92.5117 13.6193 0.0000 0.0000 0.0002
# 3 13.6195 13.6193 54.8971 0.0000 0.0000 -0.0002
# 4 0.0000 0.0000 0.0000 28.1726 0.0000 0.0000
# 5 0.0000 0.0000 0.0000 0.0000 28.1728 0.0000
# 6 0.0002 0.0002 -0.0002 0.0000 0.0000 21.1366
#
#
#
# Elastic Compliance Matrix: (Units=1/GPa)
#
#
# Indices 1 2 3 4 5 6 
#
# 1 0.015505 -0.008151 -0.001824 0.000000 0.000000 0.000000
# 2 -0.008151 0.015504 -0.001824 0.000000 0.000000 0.000000
# 3 -0.001824 -0.001824 0.019121 0.000000 0.000000 0.000000
# 4 0.000000 0.000000 0.000000 0.035495 0.000000 0.000000
# 5 0.000000 0.000000 0.000000 0.000000 0.035495 0.000000
# 6 0.000000 0.000000 0.000000 0.000000 0.000000 0.047311
#
#
# Mechanical properties :
#
#
# Convention : Reuss Voigt Hill
#
# Bulk Modulus (GPa) = 37.69220 43.87473 40.78346
# Shear Modulus (GPa) = 24.89112 26.32594 25.60853
#
# Velocity S-wave (km/s) = 3.41429 3.51132 3.46314
# Velocity P-wave (km/s) = 5.76157 6.08171 5.92380
#
# Compressibility (1/GPa) = 0.02653069
#
# Stress axis : x y z
#
# Youngs Moduli (GPa) = 64.49739 64.49807 52.29827
#
# Poissons Ratio (x) = 0.52572 0.09541
# Poissons Ratio (y) = 0.52572 0.09541
# Poissons Ratio (z) = 0.11767 0.11766
#
# Static dielectric constant tensor:
#      x y z
#    x 4.429680 0.000000 0.000000 
#    y 0.000000 4.429670 0.000000 
#    z 0.000000 0.000000 3.580410 
# 
# 
# High freq. dielectric constant tensor:
#      x y z
#    x 1.849810 0.000000 0.000000 
#    y 0.000000 1.849800 0.000000 
#    z 0.000000 0.000000 1.812140 
# 
# From -- ./inp_files/562.got.cif
#   From: 2010.03.12/outbox.cif.g09.slc.cpg/sg173_cif.got.tgz:562.got - 2010.04.02 06:54:12.
