data_PCOD8324133
_publ_section_title
;
Structure prediction by ZEFSAII (Michael W. Deem and Ramdas Pophale) SiO2 
 PCOD8324133
Probable space group: R -3 M
;
_chemical_formula_sum "Si O2"
_cell_formula_units_Z 144
_cell_length_a 22.219697
_cell_length_b 22.219697
_cell_length_c 20.063561
_cell_angle_alpha 90.000000
_cell_angle_beta 90.000000
_cell_angle_gamma 120.000000
_cell_volume 8578.570271
_symmetry_space_group_name_H-M "R -3 M"
_symmetry_group_IT_number 166
_symmetry_cell_setting 'hexagonal'
loop_
_space_group_symop_operation_xyz
x,y,z
-y,x-y,z
-x+y,-x,z
x-y,-y,-z
-x,-x+y,-z
y,x,-z
-x,-y,-z
y,-x+y,-z
x-y,x,-z
-x+y,y,z
x,x-y,z
-y,-x,z
2/3+x,1/3+y,1/3+z
2/3-y,1/3+x-y,1/3+z
2/3-x+y,1/3-x,1/3+z
2/3+x-y,1/3-y,1/3-z
2/3-x,1/3-x+y,1/3-z
2/3+y,1/3+x,1/3-z
2/3-x,1/3-y,1/3-z
2/3+y,1/3-x+y,1/3-z
2/3+x-y,1/3+x,1/3-z
2/3-x+y,1/3+y,1/3+z
2/3+x,1/3+x-y,1/3+z
2/3-y,1/3-x,1/3+z
1/3+x,2/3+y,2/3+z
1/3-y,2/3+x-y,2/3+z
1/3-x+y,2/3-x,2/3+z
1/3+x-y,2/3-y,2/3-z
1/3-x,2/3-x+y,2/3-z
1/3+y,2/3+x,2/3-z
1/3-x,2/3-y,2/3-z
1/3+y,2/3-x+y,2/3-z
1/3+x-y,2/3+x,2/3-z
1/3-x+y,2/3+y,2/3+z
1/3+x,2/3+x-y,2/3+z
1/3-y,2/3-x,2/3+z
loop_
_atom_site_type_symbol
_atom_site_label
_atom_site_fract_x
_atom_site_fract_y
_atom_site_fract_z
Si Si1 0.433986 0.148983 0.275345
Si Si2 0.379269 0.119810 0.470040
Si Si3 0.289153 0.212381 0.348162
Si Si4 0.866884 0.265079 0.620048
O O1 0.452456 0.226228 0.255273
O O2 0.485713 0.152380 0.333334
O O3 0.446170 0.113361 0.211498
O O4 0.354782 0.103311 0.299583
O O5 0.395811 0.197906 0.453685
O O6 0.314057 0.067869 0.422537
O O7 0.365929 0.101251 0.547647
O O8 0.261260 0.130630 0.351453
O O9 0.225273 0.217967 0.317461
O O10 0.782045 0.217956 0.617676
O O11 0.894988 0.228322 0.666667
#
# Coordination Sequence:
#
# PCOD8324133 Si02
#       4
#    36  36  36  36
#     4   9  16  27  46  70  94 121 152 183 215 257
#     4   9  18  32  47  64  92 125 151 184 229 267
#     4   9  18  31  47  68  92 119 150 183 223 270
#     4  10  20  32  47  68  92 118 150 188 229 272
#
# _framework density 16.786014000000002
#
# number of rings (size 3 to 8) (size 9 to 14) (size 15 to 20)
#    0.000    2.750    0.000    4.500    0.000    5.000 
#    0.000    2.500    0.000    5.000    0.000    0.000 
#    0.000    0.000    0.000   12.500    0.000    3.000 
#
# Total GULP energy -594760.674710 kJ/mol
# GULP energy per Si atom -12390.847390 kJ/mol
# Density = 1.674781 g / cm^3
# Si number density = 16.786014 Si / 1000 Ang^3
#
#
#
# Elastic Constant Matrix: (Units=GPa)
#
#
# Indices 1 2 3 4 5 6 
#
# 1 80.5086 35.3298 40.5766 -3.5565 0.0002 0.0000
# 2 35.3298 80.5086 40.5766 3.5565 -0.0002 0.0000
# 3 40.5766 40.5766 122.9659 0.0000 0.0000 0.0000
# 4 -3.5565 3.5565 0.0000 20.3088 0.0000 -0.0002
# 5 0.0002 -0.0002 0.0000 0.0000 20.3088 -3.5565
# 6 0.0000 0.0000 0.0000 -0.0002 -3.5565 22.5894
#
#
#
# Elastic Compliance Matrix: (Units=1/GPa)
#
#
# Indices 1 2 3 4 5 6 
#
# 1 0.016995 -0.005767 -0.003705 0.003986 0.000000 0.000000
# 2 -0.005767 0.016995 -0.003705 -0.003986 0.000000 0.000000
# 3 -0.003705 -0.003705 0.010578 0.000000 0.000000 0.000000
# 4 0.003986 -0.003986 0.000000 0.050636 0.000000 0.000000
# 5 0.000000 0.000000 0.000000 0.000000 0.050636 0.007972
# 6 0.000000 0.000000 0.000000 0.000000 0.007972 0.045524
#
#
# Mechanical properties :
#
#
# Convention : Reuss Voigt Hill
#
# Bulk Modulus (GPa) = 54.90348 57.43881 56.17115
# Shear Modulus (GPa) = 22.34249 23.80806 23.07527
#
# Velocity S-wave (km/s) = 3.65227 3.77015 3.71168
# Velocity P-wave (km/s) = 7.11086 7.29689 7.20448
#
# Compressibility (1/GPa) = 0.01821378
#
# Stress axis : x y z
#
# Youngs Moduli (GPa) = 58.84026 58.84026 94.53906
#
# Poissons Ratio (x) = 0.33931 0.35029
# Poissons Ratio (y) = 0.33931 0.35029
# Poissons Ratio (z) = 0.21802 0.21802
#
# Static dielectric constant tensor:
#      x y z
#    x 3.335190 0.000000 0.000000 
#    y 0.000000 3.335190 0.000000 
#    z 0.000000 0.000000 3.298010 
# 
# 
# High freq. dielectric constant tensor:
#      x y z
#    x 1.627250 0.000000 0.000000 
#    y 0.000000 1.627250 0.000000 
#    z 0.000000 0.000000 1.655250 
# 
# From -- ./inp_files/5249.got.cif
#   From: 2010.03.12/outbox.cif.g09.slc.cpg/sg166_3_cif.got.tgz:5249.got - 2010.04.02 06:38:31.
