data_PCOD8324307
_publ_section_title
;
Structure prediction by ZEFSAII (Michael W. Deem and Ramdas Pophale) SiO2 
 PCOD8324307
Probable space group: R -3 C 
;
_chemical_formula_sum "Si O2"
_cell_formula_units_Z 270
_cell_length_a 26.349101
_cell_length_b 26.349101
_cell_length_c 21.520250
_cell_angle_alpha 90.000000
_cell_angle_beta 90.000000
_cell_angle_gamma 120.000000
_cell_volume 12939.263238
_symmetry_space_group_name_H-M "R -3 C "
_symmetry_group_IT_number 167
_symmetry_cell_setting 'hexagonal'
loop_
_space_group_symop_operation_xyz
x,y,z
-y,x-y,z
-x+y,-x,z
x-y,-y,1/2-z
-x,-x+y,1/2-z
y,x,1/2-z
-x,-y,-z
y,-x+y,-z
x-y,x,-z
-x+y,y,1/2+z
x,x-y,1/2+z
-y,-x,1/2+z
2/3+x,1/3+y,1/3+z
2/3-y,1/3+x-y,1/3+z
2/3-x+y,1/3-x,1/3+z
2/3+x-y,1/3-y,5/6-z
2/3-x,1/3-x+y,5/6-z
2/3+y,1/3+x,5/6-z
2/3-x,1/3-y,1/3-z
2/3+y,1/3-x+y,1/3-z
2/3+x-y,1/3+x,1/3-z
2/3-x+y,1/3+y,5/6+z
2/3+x,1/3+x-y,5/6+z
2/3-y,1/3-x,5/6+z
1/3+x,2/3+y,2/3+z
1/3-y,2/3+x-y,2/3+z
1/3-x+y,2/3-x,2/3+z
1/3+x-y,2/3-y,1/6-z
1/3-x,2/3-x+y,1/6-z
1/3+y,2/3+x,1/6-z
1/3-x,2/3-y,2/3-z
1/3+y,2/3-x+y,2/3-z
1/3+x-y,2/3+x,2/3-z
1/3-x+y,2/3+y,1/6+z
1/3+x,2/3+x-y,1/6+z
1/3-y,2/3-x,1/6+z
loop_
_atom_site_type_symbol
_atom_site_label
_atom_site_fract_x
_atom_site_fract_y
_atom_site_fract_z
Si Si1 0.210056 0.262717 0.387428
Si Si2 0.198804 0.132524 0.753405
Si Si3 0.862513 0.609720 0.854254
Si Si4 0.461235 0.446985 0.844533
Si Si5 0.895208 0.598696 0.980580
Si Si6 0.510680 0.627927 0.363196
Si Si7 0.371517 0.371517 0.750000
Si Si8 0.137619 0.761717 0.320098
O O1 0.180961 0.243364 0.455087
O O2 0.188713 0.198414 0.358137
O O3 0.280755 0.301743 0.388411
O O4 0.194337 0.309605 0.351564
O O5 0.142771 0.142771 0.750000
O O6 0.245358 0.180902 0.799113
O O7 0.176120 0.066481 0.780074
O O8 0.235005 0.140756 0.688579
O O9 0.816121 0.631419 0.865017
O O10 0.861666 0.572251 0.914114
O O11 0.928202 0.664669 0.851200
O O12 0.427836 0.483551 0.847798
O O13 0.419610 0.388464 0.805615
O O14 0.480917 0.438253 0.912841
O O15 0.944070 0.581731 0.994659
O O16 0.556700 0.666667 0.416667
#
# Coordination Sequence:
#
# PCOD8324307 Si02
#       8
#    36  36  36  36  36  36  18  36
#     4  11  21  32  51  77 110 144 190 233 274 322
#     4  10  22  40  60  79 108 151 197 241 290 345
#     4  11  21  33  53  74 111 151 195 225 275 329
#     4  11  22  35  50  77 113 150 184 229 280 338
#     4  10  20  35  55  74 107 157 203 229 261 326
#     4  11  22  35  54  80 113 142 181 235 300 337
#     4  10  22  32  46  70 108 148 188 226 274 312
#     4  11  21  35  55  80 109 147 197 234 274 337
#
# _framework density 20.866721999999999
#
# number of rings (size 3 to 8) (size 9 to 14) (size 15 to 20)
#    0.000    1.333    4.000    2.400    4.667    4.267 
#    0.000    0.000    0.000    0.267    0.000    0.000 
#    0.000    0.000    0.000    1.200    0.000    0.000 
#
# Total GULP energy -1114946.482150 kJ/mol
# GULP energy per Si atom -12388.294246 kJ/mol
# Density = 2.081923 g / cm^3
# Si number density = 20.866722 Si / 1000 Ang^3
#
#
#
# Elastic Constant Matrix: (Units=GPa)
#
#
# Indices 1 2 3 4 5 6 
#
# 1 52.3835 15.0115 10.4506 0.1984 0.0002 0.0000
# 2 15.0115 52.3835 10.4506 -0.1984 -0.0002 0.0000
# 3 10.4506 10.4506 130.2785 0.0000 0.0000 0.0000
# 4 0.1984 -0.1984 0.0000 19.8489 0.0000 -0.0002
# 5 0.0002 -0.0002 0.0000 0.0000 19.8489 0.1984
# 6 0.0000 0.0000 0.0000 -0.0002 0.1984 18.6860
#
#
#
# Elastic Compliance Matrix: (Units=1/GPa)
#
#
# Indices 1 2 3 4 5 6 
#
# 1 0.020989 -0.005772 -0.001221 -0.000267 0.000000 0.000000
# 2 -0.005772 0.020989 -0.001221 0.000267 0.000000 0.000000
# 3 -0.001221 -0.001221 0.007872 0.000000 0.000000 0.000000
# 4 -0.000267 0.000267 0.000000 0.050386 0.000000 0.000001
# 5 0.000000 0.000000 0.000000 0.000000 0.050386 -0.000535
# 6 0.000000 0.000000 0.000000 0.000001 -0.000535 0.053522
#
#
# Mechanical properties :
#
#
# Convention : Reuss Voigt Hill
#
# Bulk Modulus (GPa) = 29.92032 34.09676 32.00854
# Shear Modulus (GPa) = 21.57868 24.95228 23.26548
#
# Velocity S-wave (km/s) = 3.21926 3.46178 3.34272
# Velocity P-wave (km/s) = 5.30925 5.68808 5.50192
#
# Compressibility (1/GPa) = 0.03342210
#
# Stress axis : x y z
#
# Youngs Moduli (GPa) = 47.64479 47.64479 127.03748
#
# Poissons Ratio (x) = 0.27502 0.15506
# Poissons Ratio (y) = 0.27502 0.15506
# Poissons Ratio (z) = 0.05816 0.05816
#
# Static dielectric constant tensor:
#      x y z
#    x 3.752930 0.000000 0.000000 
#    y 0.000000 3.752930 0.000000 
#    z 0.000000 0.000000 4.518340 
# 
# 
# High freq. dielectric constant tensor:
#      x y z
#    x 1.785760 0.000000 0.000000 
#    y 0.000000 1.785760 0.000000 
#    z 0.000000 0.000000 1.845560 
# 
# From -- ./inp_files/5700.got.cif
#   From: 2010.03.12/outbox.cif.g09.slc.cpg/sg167_3_cif.got.tgz:5700.got - 2010.04.02 06:42:56.
