data_PCOD8324942
_publ_section_title
;
Structure prediction by ZEFSAII (Michael W. Deem and Ramdas Pophale) SiO2 
 PCOD8324942
Probable space group: P -6
;
_chemical_formula_sum "Si O2"
_cell_formula_units_Z 32
_cell_length_a 16.285112
_cell_length_b 16.285112
_cell_length_c 8.630900
_cell_angle_alpha 90.000000
_cell_angle_beta 90.000000
_cell_angle_gamma 120.000000
_cell_volume 1982.294682
_symmetry_space_group_name_H-M "P -6"
_symmetry_group_IT_number 174
_symmetry_cell_setting 'hexagonal'
loop_
_space_group_symop_operation_xyz
x,y,z
-x+y,-x,-z
-y,x-y,z
x,y,-z
-x+y,-x,z
-y,x-y,-z
loop_
_atom_site_type_symbol
_atom_site_label
_atom_site_fract_x
_atom_site_fract_y
_atom_site_fract_z
Si Si1 0.094716 0.376898 0.181205
Si Si2 0.824823 0.821282 0.318755
Si Si3 0.288724 0.386466 0.821688
Si Si4 0.435242 0.872987 0.681199
Si Si5 0.170548 0.172142 0.180670
Si Si6 0.333335 0.666668 0.816332
O O1 0.024437 0.280872 0.270047
O O2 0.203345 0.406879 0.217098
O O3 0.074690 0.458593 0.241415
O O4 0.073050 0.359345 0.000000
O O5 0.838049 0.815475 0.500000
O O6 0.894882 0.794767 0.229826
O O7 0.850206 0.927111 0.274939
O O8 0.381226 0.452204 0.717525
O O9 0.255385 0.277749 0.781716
O O10 0.318383 0.409840 0.000000
O O11 0.415449 0.864891 0.500000
O O12 0.398332 0.771566 0.756415
O O13 0.144163 0.163065 0.000000
O O14 0.333334 0.666668 0.000000
#
# Coordination Sequence:
#
# PCOD8324942 Si02
#       6
#     6   6   6   6   6   2
#     4  10  20  34  50  67  95 131 165 196 236 289
#     4  11  21  33  50  73  99 124 160 205 248 282
#     4   9  19  33  49  67  92 128 164 198 235 285
#     4  12  22  31  47  71  98 127 164 205 242 278
#     4  10  20  35  52  69  94 129 167 197 239 293
#     4  12  22  32  46  63  94 137 172 195 232 287
#
# _framework density 16.142909
#
# number of rings (size 3 to 8) (size 9 to 14) (size 15 to 20)
#    0.000    1.500    1.875    6.562    0.000    3.750 
#    0.000    0.000    0.000    0.000    0.000    0.000 
#    1.875    0.000    3.375    0.000    3.375    0.000 
#
# Total GULP energy -396910.826123 kJ/mol
# GULP energy per Si atom -12403.463316 kJ/mol
# Density = 1.610617 g / cm^3
# Si number density = 16.142909 Si / 1000 Ang^3
#
#
#
# Elastic Constant Matrix: (Units=GPa)
#
#
# Indices 1 2 3 4 5 6 
#
# 1 85.3863 34.6383 17.5993 0.0000 0.0000 0.0001
# 2 34.6383 85.3871 17.5995 0.0000 0.0000 0.0000
# 3 17.5993 17.5995 61.9961 0.0000 0.0000 0.0002
# 4 0.0000 0.0000 0.0000 24.8395 0.0001 0.0000
# 5 0.0000 0.0000 0.0000 0.0001 24.8396 0.0000
# 6 0.0001 0.0000 0.0002 0.0000 0.0000 25.3739
#
#
#
# Elastic Compliance Matrix: (Units=1/GPa)
#
#
# Indices 1 2 3 4 5 6 
#
# 1 0.014397 -0.005308 -0.002580 0.000000 0.000000 0.000000
# 2 -0.005308 0.014397 -0.002580 0.000000 0.000000 0.000000
# 3 -0.002580 -0.002580 0.017595 0.000000 0.000000 0.000000
# 4 0.000000 0.000000 0.000000 0.040258 0.000000 0.000000
# 5 0.000000 0.000000 0.000000 0.000000 0.040258 0.000000
# 6 0.000000 0.000000 0.000000 0.000000 0.000000 0.039411
#
#
# Mechanical properties :
#
#
# Convention : Reuss Voigt Hill
#
# Bulk Modulus (GPa) = 39.29051 41.38262 40.33656
# Shear Modulus (GPa) = 25.54464 25.87277 25.70871
#
# Velocity S-wave (km/s) = 3.98226 4.00776 3.99503
# Velocity P-wave (km/s) = 6.74808 6.86345 6.80601
#
# Compressibility (1/GPa) = 0.02545144
#
# Stress axis : x y z
#
# Youngs Moduli (GPa) = 69.46041 69.46105 56.83485
#
# Poissons Ratio (x) = 0.36873 0.14663
# Poissons Ratio (y) = 0.36873 0.14663
# Poissons Ratio (z) = 0.17920 0.17921
#
# Static dielectric constant tensor:
#      x y z
#    x 2.976470 0.000000 0.000000 
#    y 0.000000 2.976460 0.000000 
#    z 0.000000 0.000000 3.117280 
# 
# 
# High freq. dielectric constant tensor:
#      x y z
#    x 1.601040 0.000000 0.000000 
#    y 0.000000 1.601040 0.000000 
#    z 0.000000 0.000000 1.637160 
# 
# From -- ./inp_files/333.got.cif
#   From: 2010.03.12/outbox.cif.g09.slc.cpg/sg174_cif.got.tgz:333.got - 2010.04.02 06:54:58.
