data_PCOD8324794
_publ_section_title
;
Structure prediction by ZEFSAII (Michael W. Deem and Ramdas Pophale) SiO2 
 PCOD8324794
Probable space group: P 62
;
_chemical_formula_sum "Si O2"
_cell_formula_units_Z 21
_cell_length_a 13.936903
_cell_length_b 13.936903
_cell_length_c 5.848509
_cell_angle_alpha 90.000000
_cell_angle_beta 90.000000
_cell_angle_gamma 120.000000
_cell_volume 983.803468
_symmetry_space_group_name_H-M "P 62"
_symmetry_group_IT_number 171
_symmetry_cell_setting 'hexagonal'
loop_
_space_group_symop_operation_xyz
x,y,z
x-y,x,1/3+z
-y,x-y,2/3+z
-x,-y,z
-x+y,-x,1/3+z
y,-x+y,2/3+z
loop_
_atom_site_type_symbol
_atom_site_label
_atom_site_fract_x
_atom_site_fract_y
_atom_site_fract_z
Si Si1 0.080546 0.709344 0.560890
Si Si2 0.007733 0.175305 0.853991
Si Si3 0.904604 0.612103 0.145445
Si Si4 0.500000 0.500000 0.537529
O O1 0.213896 0.773496 0.527367
O O2 0.062209 0.609073 0.719741
O O3 0.072746 0.810911 0.677564
O O4 0.995806 0.663593 0.348143
O O5 0.084849 0.140137 0.716332
O O6 0.078854 0.295757 0.961422
O O7 0.912884 0.511540 0.031935
#
# Coordination Sequence:
#
# PCOD8324794 Si02
#       4
#     6   6   6   3
#     4  11  22  43  72  96 136 179 229 286 350 411
#     4  11  22  39  66 104 136 180 223 271 335 413
#     4  11  22  43  72  96 136 179 229 286 350 411
#     4  10  26  40  70 102 130 188 232 288 356 410
#
# _framework density 21.345727
#
# number of rings (size 3 to 8) (size 9 to 14) (size 15 to 20)
#    0.000    1.143    5.714    0.857    0.000    0.000 
#    0.000   10.000   31.429    0.000    0.000    0.000 
#    0.000    0.000    0.000    0.000    0.000    0.000 
#
# Total GULP energy -260182.124224 kJ/mol
# GULP energy per Si atom -12389.624963 kJ/mol
# Density = 2.129714 g / cm^3
# Si number density = 21.345727 Si / 1000 Ang^3
#
#
#
# Elastic Constant Matrix: (Units=GPa)
#
#
# Indices 1 2 3 4 5 6 
#
# 1 121.4313 58.9210 39.9399 0.0000 0.0000 0.0000
# 2 58.9210 121.4313 39.9399 0.0000 0.0000 0.0000
# 3 39.9399 39.9399 93.3062 0.0000 0.0000 0.0000
# 4 0.0000 0.0000 0.0000 38.7527 0.0000 0.0000
# 5 0.0000 0.0000 0.0000 0.0000 38.7527 0.0000
# 6 0.0000 0.0000 0.0000 0.0000 0.0000 31.2551
#
#
#
# Elastic Compliance Matrix: (Units=1/GPa)
#
#
# Indices 1 2 3 4 5 6 
#
# 1 0.011420 -0.004578 -0.002929 0.000000 0.000000 0.000000
# 2 -0.004578 0.011420 -0.002929 0.000000 0.000000 0.000000
# 3 -0.002929 -0.002929 0.013225 0.000000 0.000000 0.000000
# 4 0.000000 0.000000 0.000000 0.025805 0.000000 0.000000
# 5 0.000000 0.000000 0.000000 0.000000 0.025805 0.000000
# 6 0.000000 0.000000 0.000000 0.000000 0.000000 0.031995
#
#
# Mechanical properties :
#
#
# Convention : Reuss Voigt Hill
#
# Bulk Modulus (GPa) = 65.81691 68.19672 67.00682
# Shear Modulus (GPa) = 34.34005 34.90998 34.62502
#
# Velocity S-wave (km/s) = 4.01528 4.04846 4.03191
# Velocity P-wave (km/s) = 7.23860 7.33972 7.28933
#
# Compressibility (1/GPa) = 0.01519366
#
# Stress axis : x y z
#
# Youngs Moduli (GPa) = 87.56870 87.56870 75.61644
#
# Poissons Ratio (x) = 0.40087 0.22146
# Poissons Ratio (y) = 0.40087 0.22146
# Poissons Ratio (z) = 0.25646 0.25646
#
# Static dielectric constant tensor:
#      x y z
#    x 3.940220 0.000000 0.000000 
#    y 0.000000 3.940220 0.000000 
#    z 0.000000 0.000000 4.311640 
# 
# 
# High freq. dielectric constant tensor:
#      x y z
#    x 1.832040 0.000000 0.000000 
#    y 0.000000 1.832040 0.000000 
#    z 0.000000 0.000000 1.856380 
# 
# From -- ./inp_files/172.got.cif
#   From: 2010.03.12/outbox.cif.g09.slc.cpg/sg171_1_cif.got.tgz:172.got - 2010.04.02 06:49:11.
