data_PCOD8324577
_publ_section_title
;
Structure prediction by ZEFSAII (Michael W. Deem and Ramdas Pophale) SiO2 
 PCOD8324577
Probable space group: P 61
;
_chemical_formula_sum "Si O2"
_cell_formula_units_Z 36
_cell_length_a 15.787701
_cell_length_b 15.787701
_cell_length_c 7.239148
_cell_angle_alpha 90.000000
_cell_angle_beta 90.000000
_cell_angle_gamma 120.000000
_cell_volume 1562.628975
_symmetry_space_group_name_H-M "P 61"
_symmetry_group_IT_number 169
_symmetry_cell_setting 'hexagonal'
loop_
_space_group_symop_operation_xyz
x,y,z
x-y,x,1/6+z
-y,x-y,1/3+z
-x,-y,1/2+z
-x+y,-x,2/3+z
y,-x+y,5/6+z
loop_
_atom_site_type_symbol
_atom_site_label
_atom_site_fract_x
_atom_site_fract_y
_atom_site_fract_z
Si Si1 0.398811 0.732379 0.629730
Si Si2 0.363491 0.886461 0.074241
Si Si3 0.491800 0.435534 0.840842
Si Si4 0.698191 0.822644 0.893711
Si Si5 0.003616 0.293000 0.873458
Si Si6 0.809338 0.843096 0.529855
O O1 0.297938 0.685904 0.747560
O O2 0.455295 0.686191 0.738239
O O3 0.451381 0.851185 0.629556
O O4 0.286450 0.905439 0.175823
O O5 0.465341 0.950800 0.184057
O O6 0.383738 0.928660 0.869365
O O7 0.410009 0.363177 0.693893
O O8 0.768497 0.864508 0.717821
O O9 0.656059 0.893032 0.956602
O O10 0.745840 0.807387 0.079009
O O11 0.011125 0.266380 0.086444
O O12 0.905832 0.838857 0.563562
#
# Coordination Sequence:
#
# PCOD8324577 Si02
#       6
#     6   6   6   6   6   6
#     4  10  26  47  70 107 149 192 247 315 380 450
#     4  11  26  46  74 109 150 199 254 314 378 464
#     4  11  26  48  73 110 150 203 253 313 386 460
#     4  12  26  44  74 105 145 193 252 313 377 467
#     4  12  26  45  75 106 148 201 252 313 394 463
#     4  12  26  48  72 107 144 188 248 316 383 464
#
# _framework density 23.038098999999999
#
# number of rings (size 3 to 8) (size 9 to 14) (size 15 to 20)
#    0.000    0.667    5.000    1.000   11.667    1.333 
#    3.000    0.000    0.000    0.000    0.000    0.000 
#    0.000    0.000    0.000    0.000    0.000    0.000 
#
# Total GULP energy -446069.883331 kJ/mol
# GULP energy per Si atom -12390.830093 kJ/mol
# Density = 2.298566 g / cm^3
# Si number density = 23.038099 Si / 1000 Ang^3
#
#
#
# Elastic Constant Matrix: (Units=GPa)
#
#
# Indices 1 2 3 4 5 6 
#
# 1 132.9367 57.8744 33.5082 0.0000 0.0000 0.0000
# 2 57.8744 132.9367 33.5082 0.0000 0.0000 0.0000
# 3 33.5082 33.5082 87.6785 0.0000 0.0000 0.0000
# 4 0.0000 0.0000 0.0000 38.2930 0.0000 0.0000
# 5 0.0000 0.0000 0.0000 0.0000 38.2930 0.0000
# 6 0.0000 0.0000 0.0000 0.0000 0.0000 37.5312
#
#
#
# Elastic Compliance Matrix: (Units=1/GPa)
#
#
# Indices 1 2 3 4 5 6 
#
# 1 0.009688 -0.003634 -0.002313 0.000000 0.000000 0.000000
# 2 -0.003634 0.009688 -0.002313 0.000000 0.000000 0.000000
# 3 -0.002313 -0.002313 0.013174 0.000000 0.000000 0.000000
# 4 0.000000 0.000000 0.000000 0.026114 0.000000 0.000000
# 5 0.000000 0.000000 0.000000 0.000000 0.026114 0.000000
# 6 0.000000 0.000000 0.000000 0.000000 0.000000 0.026645
#
#
# Mechanical properties :
#
#
# Convention : Reuss Voigt Hill
#
# Bulk Modulus (GPa) = 62.39651 67.03704 64.71677
# Shear Modulus (GPa) = 37.51297 38.06749 37.79023
#
# Velocity S-wave (km/s) = 4.03960 4.06935 4.05450
# Velocity P-wave (km/s) = 6.99290 7.15828 7.07607
#
# Compressibility (1/GPa) = 0.01602654
#
# Stress axis : x y z
#
# Youngs Moduli (GPa) = 103.22283 103.22283 75.90985
#
# Poissons Ratio (x) = 0.37516 0.17561
# Poissons Ratio (y) = 0.37516 0.17561
# Poissons Ratio (z) = 0.23879 0.23879
#
# Static dielectric constant tensor:
#      x y z
#    x 4.072300 0.000000 0.000000 
#    y 0.000000 4.072300 0.000000 
#    z 0.000000 0.000000 4.427970 
# 
# 
# High freq. dielectric constant tensor:
#      x y z
#    x 1.902620 0.000000 0.000000 
#    y 0.000000 1.902620 0.000000 
#    z 0.000000 0.000000 1.932450 
# 
# From -- ./inp_files/611.got.cif
#   From: 2010.03.12/outbox.cif.g09.slc.cpg/sg169_cif.got.tgz:611.got - 2010.04.02 06:46:06.
