data_PCOD8324958
_publ_section_title
;
Structure prediction by ZEFSAII (Michael W. Deem and Ramdas Pophale) SiO2 
 PCOD8324958
Probable space group: P -6
;
_chemical_formula_sum "Si O2"
_cell_formula_units_Z 30
_cell_length_a 8.446415
_cell_length_b 8.446415
_cell_length_c 23.952741
_cell_angle_alpha 90.000000
_cell_angle_beta 90.000000
_cell_angle_gamma 120.000000
_cell_volume 1479.894248
_symmetry_space_group_name_H-M "P -6"
_symmetry_group_IT_number 174
_symmetry_cell_setting 'hexagonal'
loop_
_space_group_symop_operation_xyz
x,y,z
-x+y,-x,-z
-y,x-y,z
x,y,-z
-x+y,-x,z
-y,x-y,-z
loop_
_atom_site_type_symbol
_atom_site_label
_atom_site_fract_x
_atom_site_fract_y
_atom_site_fract_z
Si Si1 0.991383 0.666925 0.880835
Si Si2 0.114218 0.484838 0.390220
Si Si3 0.860715 0.547209 0.000000
Si Si4 0.639567 0.522184 0.282048
Si Si5 0.336073 0.994293 0.835120
Si Si6 0.487036 0.112773 0.500000
O O1 0.971263 0.671430 0.947422
O O2 0.926640 0.460009 0.863602
O O3 0.868111 0.736215 0.850328
O O4 0.198116 0.795644 0.860004
O O5 0.299923 0.472285 0.388382
O O6 0.986949 0.373585 0.338761
O O7 0.005689 0.391783 0.446198
O O8 0.649354 0.503885 0.000000
O O9 0.476030 0.309221 0.279292
O O10 0.626638 0.640616 0.231449
O O11 0.471264 0.296808 0.500000
#
# Coordination Sequence:
#
# PCOD8324958 Si02
#       6
#     6   6   3   6   6   3
#     4  12  24  42  68  95 131 172 221 275 348 408
#     4  10  22  35  62  99 129 164 223 292 331 382
#     4  10  20  42  72  88 124 170 220 272 350 414
#     4  10  21  40  66  89 130 179 226 261 338 411
#     4  12  24  43  64 102 131 177 220 284 336 418
#     4  10  20  38  66  88 128 184 230 252 338 434
#
# _framework density 20.271720999999999
#
# number of rings (size 3 to 8) (size 9 to 14) (size 15 to 20)
#    1.200    0.000    4.000    3.000    2.800    1.600 
#    0.000    0.000    0.000   11.200    0.000    0.000 
#    0.000    0.000    0.000    0.000    0.000    0.000 
#
# Total GULP energy -371937.705148 kJ/mol
# GULP energy per Si atom -12397.923505 kJ/mol
# Density = 2.022558 g / cm^3
# Si number density = 20.271721 Si / 1000 Ang^3
#
#
#
# Elastic Constant Matrix: (Units=GPa)
#
#
# Indices 1 2 3 4 5 6 
#
# 1 67.4045 6.6137 41.4318 0.0000 0.0000 0.0000
# 2 6.6137 67.4045 41.4318 0.0000 0.0000 0.0000
# 3 41.4318 41.4318 205.8555 0.0000 0.0000 0.0000
# 4 0.0000 0.0000 0.0000 31.7350 0.0000 0.0000
# 5 0.0000 0.0000 0.0000 0.0000 31.7350 0.0000
# 6 0.0000 0.0000 0.0000 0.0000 0.0000 30.3954
#
#
#
# Elastic Compliance Matrix: (Units=1/GPa)
#
#
# Indices 1 2 3 4 5 6 
#
# 1 0.016945 0.000495 -0.003510 0.000000 0.000000 0.000000
# 2 0.000495 0.016945 -0.003510 0.000000 0.000000 0.000000
# 3 -0.003510 -0.003510 0.006271 0.000000 0.000000 0.000000
# 4 0.000000 0.000000 0.000000 0.031511 0.000000 0.000000
# 5 0.000000 0.000000 0.000000 0.000000 0.031511 0.000000
# 6 0.000000 0.000000 0.000000 0.000000 0.000000 0.032900
#
#
# Mechanical properties :
#
#
# Convention : Reuss Voigt Hill
#
# Bulk Modulus (GPa) = 36.88687 57.73547 47.31117
# Shear Modulus (GPa) = 31.61181 35.51889 33.56535
#
# Velocity S-wave (km/s) = 3.95321 4.19040 4.07353
# Velocity P-wave (km/s) = 6.25083 7.20800 6.74641
#
# Compressibility (1/GPa) = 0.02710992
#
# Stress axis : x y z
#
# Youngs Moduli (GPa) = 59.01531 59.01531 159.47241
#
# Poissons Ratio (x) = -0.02921 0.55975
# Poissons Ratio (y) = -0.02921 0.55975
# Poissons Ratio (z) = 0.20715 0.20715
#
# Static dielectric constant tensor:
#      x y z
#    x 3.371460 0.000000 0.000000 
#    y 0.000000 3.371460 0.000000 
#    z 0.000000 0.000000 3.676930 
# 
# 
# High freq. dielectric constant tensor:
#      x y z
#    x 1.773300 0.000000 0.000000 
#    y 0.000000 1.773300 0.000000 
#    z 0.000000 0.000000 1.805670 
# 
# From -- ./inp_files/1071.got.cif
#   From: 2010.03.12/outbox.cif.g09.slc.cpg/sg174_cif.got.tgz:1071.got - 2010.04.02 06:54:58.
