data_PCOD8324029
_publ_section_title
;
Structure prediction by ZEFSAII (Michael W. Deem and Ramdas Pophale) SiO2 
 PCOD8324029
Probable space group: R -3 M
;
_chemical_formula_sum "Si O2"
_cell_formula_units_Z 126
_cell_length_a 16.435559
_cell_length_b 16.435559
_cell_length_c 27.389437
_cell_angle_alpha 90.000000
_cell_angle_beta 90.000000
_cell_angle_gamma 120.000000
_cell_volume 6407.412681
_symmetry_space_group_name_H-M "R -3 M"
_symmetry_group_IT_number 166
_symmetry_cell_setting 'hexagonal'
loop_
_space_group_symop_operation_xyz
x,y,z
-y,x-y,z
-x+y,-x,z
x-y,-y,-z
-x,-x+y,-z
y,x,-z
-x,-y,-z
y,-x+y,-z
x-y,x,-z
-x+y,y,z
x,x-y,z
-y,-x,z
2/3+x,1/3+y,1/3+z
2/3-y,1/3+x-y,1/3+z
2/3-x+y,1/3-x,1/3+z
2/3+x-y,1/3-y,1/3-z
2/3-x,1/3-x+y,1/3-z
2/3+y,1/3+x,1/3-z
2/3-x,1/3-y,1/3-z
2/3+y,1/3-x+y,1/3-z
2/3+x-y,1/3+x,1/3-z
2/3-x+y,1/3+y,1/3+z
2/3+x,1/3+x-y,1/3+z
2/3-y,1/3-x,1/3+z
1/3+x,2/3+y,2/3+z
1/3-y,2/3+x-y,2/3+z
1/3-x+y,2/3-x,2/3+z
1/3+x-y,2/3-y,2/3-z
1/3-x,2/3-x+y,2/3-z
1/3+y,2/3+x,2/3-z
1/3-x,2/3-y,2/3-z
1/3+y,2/3-x+y,2/3-z
1/3+x-y,2/3+x,2/3-z
1/3-x+y,2/3+y,2/3+z
1/3+x,2/3+x-y,2/3+z
1/3-y,2/3-x,2/3+z
loop_
_atom_site_type_symbol
_atom_site_label
_atom_site_fract_x
_atom_site_fract_y
_atom_site_fract_z
Si Si1 0.517185 0.850730 0.223777
Si Si2 0.368343 0.045754 0.241145
Si Si3 0.666667 0.519526 0.333334
Si Si4 0.666946 0.146593 0.146244
O O1 0.410149 0.820297 0.235550
O O2 0.533840 0.766920 0.240890
O O3 0.539274 0.872608 0.166667
O O4 0.587297 0.944504 0.252778
O O5 0.407486 0.108859 0.288876
O O6 0.441757 0.095212 0.197596
O O7 0.267282 0.033229 0.228193
O O8 0.753131 0.506261 0.350204
O O9 0.568827 0.137654 0.130225
O O10 0.744615 0.255386 0.151606
#
# Coordination Sequence:
#
# PCOD8324029 Si02
#       4
#    36  36  18  36
#     4  10  18  31  53  83 116 150 189 236 284 334
#     4  11  22  37  60  83 115 154 193 236 287 346
#     4  12  25  42  61  86 116 152 194 240 287 338
#     4  11  21  37  59  86 114 147 188 237 289 345
#
# _framework density 19.664724
#
# number of rings (size 3 to 8) (size 9 to 14) (size 15 to 20)
#    0.000    1.143    2.857    7.571    0.000    1.143 
#    0.000    5.714    0.000    0.000    0.000    4.000 
#    0.000    0.000    0.000    0.000    0.000    0.000 
#
# Total GULP energy -521010.759160 kJ/mol
# GULP energy per Si atom -12405.018075 kJ/mol
# Density = 1.961997 g / cm^3
# Si number density = 19.664724 Si / 1000 Ang^3
#
#
#
# Elastic Constant Matrix: (Units=GPa)
#
#
# Indices 1 2 3 4 5 6 
#
# 1 124.8143 48.6887 32.5542 -2.0912 0.0001 0.0000
# 2 48.6887 124.8143 32.5542 2.0912 -0.0001 0.0000
# 3 32.5542 32.5542 67.7333 0.0000 0.0000 0.0000
# 4 -2.0912 2.0912 0.0000 18.8612 0.0000 -0.0001
# 5 0.0001 -0.0001 0.0000 0.0000 18.8612 -2.0912
# 6 0.0000 0.0000 0.0000 -0.0001 -2.0912 38.0628
#
#
#
# Elastic Compliance Matrix: (Units=1/GPa)
#
#
# Indices 1 2 3 4 5 6 
#
# 1 0.010124 -0.003092 -0.003380 0.001465 0.000000 0.000000
# 2 -0.003092 0.010124 -0.003380 -0.001465 0.000000 0.000000
# 3 -0.003380 -0.003380 0.018012 0.000000 0.000000 0.000000
# 4 0.001465 -0.001465 0.000000 0.053344 0.000000 0.000000
# 5 0.000000 0.000000 0.000000 0.000000 0.053344 0.002931
# 6 0.000000 0.000000 0.000000 0.000000 0.002931 0.026433
#
#
# Mechanical properties :
#
#
# Convention : Reuss Voigt Hill
#
# Bulk Modulus (GPa) = 53.88659 60.55068 57.21863
# Shear Modulus (GPa) = 25.34579 28.72802 27.03690
#
# Velocity S-wave (km/s) = 3.59402 3.82631 3.71198
# Velocity P-wave (km/s) = 6.68467 7.09783 6.89434
#
# Compressibility (1/GPa) = 0.01855749
#
# Stress axis : x y z
#
# Youngs Moduli (GPa) = 98.77256 98.77256 55.51704
#
# Poissons Ratio (x) = 0.30545 0.18763
# Poissons Ratio (y) = 0.30545 0.18763
# Poissons Ratio (z) = 0.33382 0.33382
#
# Static dielectric constant tensor:
#      x y z
#    x 3.686370 0.000000 0.000000 
#    y 0.000000 3.686370 0.000000 
#    z 0.000000 0.000000 3.190750 
# 
# 
# High freq. dielectric constant tensor:
#      x y z
#    x 1.783030 0.000000 0.000000 
#    y 0.000000 1.783030 0.000000 
#    z 0.000000 0.000000 1.714210 
# 
# From -- ./inp_files/9145.got.cif
#   From: 2010.03.12/outbox.cif.g09.slc.cpg/sg166_5_cif.got.tgz:9145.got - 2010.04.02 06:38:31.
