data_PCOD8324703
_publ_section_title
;
Structure prediction by ZEFSAII (Michael W. Deem and Ramdas Pophale) SiO2 
 PCOD8324703
Probable space group: P 65
;
_chemical_formula_sum "Si O2"
_cell_formula_units_Z 42
_cell_length_a 13.827255
_cell_length_b 13.827255
_cell_length_c 12.048959
_cell_angle_alpha 90.000000
_cell_angle_beta 90.000000
_cell_angle_gamma 120.000000
_cell_volume 1995.042273
_symmetry_space_group_name_H-M "P 65"
_symmetry_group_IT_number 170
_symmetry_cell_setting 'hexagonal'
loop_
_space_group_symop_operation_xyz
x,y,z
x-y,x,5/6+z
-y,x-y,2/3+z
-x,-y,1/2+z
-x+y,-x,1/3+z
y,-x+y,1/6+z
loop_
_atom_site_type_symbol
_atom_site_label
_atom_site_fract_x
_atom_site_fract_y
_atom_site_fract_z
Si Si1 0.266121 0.754304 0.571830
Si Si2 0.276286 0.748344 0.832374
Si Si3 0.031120 0.364713 0.619446
Si Si4 0.915944 0.445520 0.462710
Si Si5 0.190136 0.060128 0.065043
Si Si6 0.079704 0.581296 0.288542
Si Si7 0.221627 0.825791 0.364481
O O1 0.242492 0.743832 0.702929
O O2 0.242259 0.638238 0.515729
O O3 0.391453 0.853146 0.548386
O O4 0.195908 0.797215 0.497469
O O5 0.184889 0.632048 0.882725
O O6 0.271529 0.849823 0.892635
O O7 0.932012 0.365461 0.548413
O O8 0.995088 0.240051 0.655240
O O9 0.032846 0.433455 0.729435
O O10 0.894958 0.540401 0.513925
O O11 0.036277 0.510328 0.401244
O O12 0.273734 0.164654 0.142972
O O13 0.099039 0.970746 0.146927
O O14 0.169629 0.709706 0.301666
#
# Coordination Sequence:
#
# PCOD8324703 Si02
#       7
#     6   6   6   6   6   6   6
#     4  12  21  38  59  95 139 177 217 263 335 416
#     4  12  24  38  61  96 138 185 228 274 340 409
#     4  11  23  41  65  99 134 176 232 279 344 413
#     4  12  22  37  62  93 139 181 219 275 335 408
#     4  11  26  51  77  98 127 177 239 295 351 401
#     4  11  22  37  58  94 133 177 218 266 330 407
#     4  11  22  40  66  97 134 175 223 272 337 414
#
# _framework density 21.052187
#
# number of rings (size 3 to 8) (size 9 to 14) (size 15 to 20)
#    0.000    0.571    5.714    3.429    0.000    1.143 
#    2.571    1.429    0.000    0.000    0.000    0.000 
#    0.000    0.000    0.000    0.000    0.000    0.000 
#
# Total GULP energy -520461.963767 kJ/mol
# GULP energy per Si atom -12391.951518 kJ/mol
# Density = 2.100427 g / cm^3
# Si number density = 21.052187 Si / 1000 Ang^3
#
#
#
# Elastic Constant Matrix: (Units=GPa)
#
#
# Indices 1 2 3 4 5 6 
#
# 1 85.3325 43.3687 49.1702 0.0000 0.0000 0.0000
# 2 43.3687 85.3325 49.1702 0.0000 0.0000 0.0000
# 3 49.1702 49.1702 129.0708 0.0000 0.0000 0.0000
# 4 0.0000 0.0000 0.0000 37.1375 0.0000 0.0000
# 5 0.0000 0.0000 0.0000 0.0000 37.1375 0.0000
# 6 0.0000 0.0000 0.0000 0.0000 0.0000 20.9819
#
#
#
# Elastic Compliance Matrix: (Units=1/GPa)
#
#
# Indices 1 2 3 4 5 6 
#
# 1 0.017395 -0.006435 -0.004175 0.000000 0.000000 0.000000
# 2 -0.006435 0.017395 -0.004175 0.000000 0.000000 0.000000
# 3 -0.004175 -0.004175 0.010929 0.000000 0.000000 0.000000
# 4 0.000000 0.000000 0.000000 0.026927 0.000000 0.000000
# 5 0.000000 0.000000 0.000000 0.000000 0.026927 0.000000
# 6 0.000000 0.000000 0.000000 0.000000 0.000000 0.047660
#
#
# Mechanical properties :
#
#
# Convention : Reuss Voigt Hill
#
# Bulk Modulus (GPa) = 61.92693 64.79488 63.36091
# Shear Modulus (GPa) = 27.44423 29.58647 28.51535
#
# Velocity S-wave (km/s) = 3.61450 3.75292 3.68436
# Velocity P-wave (km/s) = 6.84830 7.04445 6.94707
#
# Compressibility (1/GPa) = 0.01614806
#
# Stress axis : x y z
#
# Youngs Moduli (GPa) = 57.48703 57.48703 91.49997
#
# Poissons Ratio (x) = 0.36992 0.38205
# Poissons Ratio (y) = 0.36992 0.38205
# Poissons Ratio (z) = 0.24003 0.24003
#
# Static dielectric constant tensor:
#      x y z
#    x 3.684030 0.000000 0.000000 
#    y 0.000000 3.684030 0.000000 
#    z 0.000000 0.000000 4.107900 
# 
# 
# High freq. dielectric constant tensor:
#      x y z
#    x 1.811900 0.000000 0.000000 
#    y 0.000000 1.811900 0.000000 
#    z 0.000000 0.000000 1.845660 
# 
# From -- ./inp_files/971.got.cif
#   From: 2010.03.12/outbox.cif.g09.slc.cpg/sg170_cif.got.tgz:971.got - 2010.04.02 06:47:37.
