data_PCOD8324275
_publ_section_title
;
Structure prediction by ZEFSAII (Michael W. Deem and Ramdas Pophale) SiO2 
 PCOD8324275
Probable space group: R -3 C 
;
_chemical_formula_sum "Si O2"
_cell_formula_units_Z 126
_cell_length_a 25.219239
_cell_length_b 25.219239
_cell_length_c 13.004789
_cell_angle_alpha 90.000000
_cell_angle_beta 90.000000
_cell_angle_gamma 120.000000
_cell_volume 7163.048584
_symmetry_space_group_name_H-M "R -3 C "
_symmetry_group_IT_number 167
_symmetry_cell_setting 'hexagonal'
loop_
_space_group_symop_operation_xyz
x,y,z
-y,x-y,z
-x+y,-x,z
x-y,-y,1/2-z
-x,-x+y,1/2-z
y,x,1/2-z
-x,-y,-z
y,-x+y,-z
x-y,x,-z
-x+y,y,1/2+z
x,x-y,1/2+z
-y,-x,1/2+z
2/3+x,1/3+y,1/3+z
2/3-y,1/3+x-y,1/3+z
2/3-x+y,1/3-x,1/3+z
2/3+x-y,1/3-y,5/6-z
2/3-x,1/3-x+y,5/6-z
2/3+y,1/3+x,5/6-z
2/3-x,1/3-y,1/3-z
2/3+y,1/3-x+y,1/3-z
2/3+x-y,1/3+x,1/3-z
2/3-x+y,1/3+y,5/6+z
2/3+x,1/3+x-y,5/6+z
2/3-y,1/3-x,5/6+z
1/3+x,2/3+y,2/3+z
1/3-y,2/3+x-y,2/3+z
1/3-x+y,2/3-x,2/3+z
1/3+x-y,2/3-y,1/6-z
1/3-x,2/3-x+y,1/6-z
1/3+y,2/3+x,1/6-z
1/3-x,2/3-y,2/3-z
1/3+y,2/3-x+y,2/3-z
1/3+x-y,2/3+x,2/3-z
1/3-x+y,2/3+y,1/6+z
1/3+x,2/3+x-y,1/6+z
1/3-y,2/3-x,1/6+z
loop_
_atom_site_type_symbol
_atom_site_label
_atom_site_fract_x
_atom_site_fract_y
_atom_site_fract_z
Si Si1 0.666667 0.932793 0.083334
Si Si2 0.824725 0.070813 0.250162
Si Si3 0.848853 0.575731 0.012992
Si Si4 0.281896 0.221357 0.031095
O O1 0.696547 0.912828 0.174329
O O2 0.615328 0.943920 0.131124
O O3 0.895296 0.113154 0.281583
O O4 0.818051 0.085778 0.133670
O O5 0.806427 0.000000 0.250000
O O6 0.877066 0.543733 0.083334
O O7 0.889792 0.648417 0.012674
O O8 0.847244 0.564740 0.889779
#
# Coordination Sequence:
#
# PCOD8324275 Si02
#       4
#    18  36  36  36
#     4  10  18  34  52  78 110 142 170 206 274 332
#     4  10  22  35  50  73 107 142 175 218 267 314
#     4  11  21  33  52  78 103 137 185 219 258 316
#     4  10  20  32  54  76 107 139 168 214 267 331
#
# _framework density 17.590275999999999
#
# number of rings (size 3 to 8) (size 9 to 14) (size 15 to 20)
#    0.000    1.714    1.429    4.286    8.000    4.571 
#    0.000    0.000    0.000    0.571    0.000    0.000 
#    0.000   11.429    0.000    0.000    0.000    0.000 
#
# Total GULP energy -520384.544789 kJ/mol
# GULP energy per Si atom -12390.108209 kJ/mol
# Density = 1.755024 g / cm^3
# Si number density = 17.590276 Si / 1000 Ang^3
#
#
#
# Elastic Constant Matrix: (Units=GPa)
#
#
# Indices 1 2 3 4 5 6 
#
# 1 51.3071 72.2680 48.9510 0.4202 0.0005 0.0002
# 2 72.2680 51.3072 48.9519 -0.4201 -0.0003 -0.0006
# 3 48.9510 48.9519 159.5196 0.0004 0.0011 -0.0015
# 4 0.4202 -0.4201 0.0004 18.6814 0.0003 -0.0011
# 5 0.0005 -0.0003 0.0011 0.0003 18.6819 0.4195
# 6 0.0002 -0.0006 -0.0015 -0.0011 0.4195 -10.4798
#
#
#
# Elastic Compliance Matrix: (Units=1/GPa)
#
#
# Indices 1 2 3 4 5 6 
#
# 1 -0.018487 0.029178 -0.003281 0.001072 0.000001 -0.000002
# 2 0.029178 -0.018487 -0.003281 -0.001072 -0.000001 0.000002
# 3 -0.003281 -0.003281 0.008282 0.000000 0.000000 -0.000001
# 4 0.001072 -0.001072 0.000000 0.053481 -0.000001 -0.000005
# 5 0.000001 -0.000001 0.000000 -0.000001 0.053480 0.002141
# 6 -0.000002 0.000002 -0.000001 -0.000005 0.002141 -0.095336
#
#
# Mechanical properties :
#
#
# Convention : Reuss Voigt Hill
#
# Bulk Modulus (GPa) = 60.45239 66.94174 63.69707
# Shear Modulus (GPa) = -88.05076 11.50756 -38.27160
#
# Velocity S-wave (km/s) = -7.08274 2.56051 -4.66953
# Velocity P-wave (km/s) = 5.69608 6.84692 2.68654
#
# Compressibility (1/GPa) = 0.01654194
#
# Stress axis : x y z
#
# Youngs Moduli (GPa) = -54.09320 -54.09257 120.73760
#
# Poissons Ratio (x) = 1.57833 0.39615
# Poissons Ratio (y) = 1.57835 0.39611
# Poissons Ratio (z) = -0.17748 -0.17746
#
# Static dielectric constant tensor:
#      x y z
#    x 3.427350 -0.000010 0.000000 
#    y -0.000010 3.427350 0.000000 
#    z 0.000000 0.000000 3.960860 
# 
# 
# High freq. dielectric constant tensor:
#      x y z
#    x 1.651960 0.000000 0.000000 
#    y 0.000000 1.651960 0.000000 
#    z 0.000000 0.000000 1.713040 
# 
# From -- ./inp_files/1400.got.cif
#   From: 2010.03.12/outbox.cif.g09.slc.cpg/sg167_1_cif.got.tgz:1400.got - 2010.04.02 06:42:56.
