data_PCOD8324350
_publ_section_title
;
Structure prediction by ZEFSAII (Michael W. Deem and Ramdas Pophale) SiO2 
 PCOD8324350
Probable space group: R -3 C 
;
_chemical_formula_sum "Si O2"
_cell_formula_units_Z 216
_cell_length_a 22.609562
_cell_length_b 22.609562
_cell_length_c 23.086679
_cell_angle_alpha 90.000000
_cell_angle_beta 90.000000
_cell_angle_gamma 120.000000
_cell_volume 10220.600063
_symmetry_space_group_name_H-M "R -3 C "
_symmetry_group_IT_number 167
_symmetry_cell_setting 'hexagonal'
loop_
_space_group_symop_operation_xyz
x,y,z
-y,x-y,z
-x+y,-x,z
x-y,-y,1/2-z
-x,-x+y,1/2-z
y,x,1/2-z
-x,-y,-z
y,-x+y,-z
x-y,x,-z
-x+y,y,1/2+z
x,x-y,1/2+z
-y,-x,1/2+z
2/3+x,1/3+y,1/3+z
2/3-y,1/3+x-y,1/3+z
2/3-x+y,1/3-x,1/3+z
2/3+x-y,1/3-y,5/6-z
2/3-x,1/3-x+y,5/6-z
2/3+y,1/3+x,5/6-z
2/3-x,1/3-y,1/3-z
2/3+y,1/3-x+y,1/3-z
2/3+x-y,1/3+x,1/3-z
2/3-x+y,1/3+y,5/6+z
2/3+x,1/3+x-y,5/6+z
2/3-y,1/3-x,5/6+z
1/3+x,2/3+y,2/3+z
1/3-y,2/3+x-y,2/3+z
1/3-x+y,2/3-x,2/3+z
1/3+x-y,2/3-y,1/6-z
1/3-x,2/3-x+y,1/6-z
1/3+y,2/3+x,1/6-z
1/3-x,2/3-y,2/3-z
1/3+y,2/3-x+y,2/3-z
1/3+x-y,2/3+x,2/3-z
1/3-x+y,2/3+y,1/6+z
1/3+x,2/3+x-y,1/6+z
1/3-y,2/3-x,1/6+z
loop_
_atom_site_type_symbol
_atom_site_label
_atom_site_fract_x
_atom_site_fract_y
_atom_site_fract_z
Si Si1 0.371468 0.906301 0.005481
Si Si2 0.809202 0.708743 0.283988
Si Si3 0.806158 0.442134 0.906580
Si Si4 0.847635 0.881385 0.558677
Si Si5 0.594564 0.661624 0.212719
Si Si6 0.260289 0.914631 0.435260
O O1 0.393360 0.860239 0.042110
O O2 0.403645 0.976546 0.039776
O O3 0.289035 0.869027 0.999335
O O4 0.407020 0.921356 0.943846
O O5 0.743933 0.632587 0.287158
O O6 0.877508 0.704899 0.294718
O O7 0.770499 0.360581 0.907716
O O8 0.762140 0.479294 0.918206
O O9 0.836801 0.463157 0.842712
O O10 0.781755 0.810883 0.580093
O O11 0.639588 0.639588 0.250000
O O12 0.592409 0.634792 0.147684
O O13 0.333334 0.923740 0.416667
#
# Coordination Sequence:
#
# PCOD8324350 Si02
#       6
#    36  36  36  36  36  36
#     4  11  22  45  64  90 133 173 219 265 341 400
#     4  11  25  44  66  91 133 176 222 275 332 413
#     4  10  21  40  66  95 131 175 213 273 338 394
#     4  10  22  39  65 100 131 168 223 272 329 400
#     4  12  24  42  62  99 135 167 218 278 330 398
#     4  12  24  42  69  97 131 175 220 274 342 407
#
# _framework density 21.133789
#
# number of rings (size 3 to 8) (size 9 to 14) (size 15 to 20)
#    0.000    1.000    5.000    1.833    4.667    2.667 
#    0.000    0.000    0.000    0.000    0.000    0.000 
#    0.000    0.000    0.000    0.000    0.000    0.000 
#
# Total GULP energy -892104.319608 kJ/mol
# GULP energy per Si atom -12390.337772 kJ/mol
# Density = 2.108569 g / cm^3
# Si number density = 21.133789 Si / 1000 Ang^3
#
#
#
# Elastic Constant Matrix: (Units=GPa)
#
#
# Indices 1 2 3 4 5 6 
#
# 1 91.3705 28.1520 6.5880 4.1749 -0.0001 0.0000
# 2 28.1520 91.3705 6.5880 -4.1749 0.0001 0.0000
# 3 6.5880 6.5880 46.0153 0.0000 0.0000 0.0000
# 4 4.1749 -4.1749 0.0000 23.7631 0.0000 0.0001
# 5 -0.0001 0.0001 0.0000 0.0000 23.7631 4.1749
# 6 0.0000 0.0000 0.0000 0.0001 4.1749 31.6092
#
#
#
# Elastic Compliance Matrix: (Units=1/GPa)
#
#
# Indices 1 2 3 4 5 6 
#
# 1 0.012347 -0.003847 -0.001217 -0.002845 0.000000 0.000000
# 2 -0.003847 0.012347 -0.001217 0.002845 0.000000 0.000000
# 3 -0.001217 -0.001217 0.022080 0.000000 0.000000 0.000000
# 4 -0.002845 0.002845 0.000000 0.043082 0.000000 0.000000
# 5 0.000000 0.000000 0.000000 0.000000 0.043082 -0.005690
# 6 0.000000 0.000000 0.000000 0.000000 -0.005690 0.032388
#
#
# Mechanical properties :
#
#
# Convention : Reuss Voigt Hill
#
# Bulk Modulus (GPa) = 29.22802 34.60136 31.91469
# Shear Modulus (GPa) = 26.41419 28.32232 27.36826
#
# Velocity S-wave (km/s) = 3.53917 3.66477 3.60251
# Velocity P-wave (km/s) = 5.52819 5.85794 5.69545
#
# Compressibility (1/GPa) = 0.03421375
#
# Stress axis : x y z
#
# Youngs Moduli (GPa) = 80.98894 80.98894 45.28910
#
# Poissons Ratio (x) = 0.31153 0.05512
# Poissons Ratio (y) = 0.31153 0.05512
# Poissons Ratio (z) = 0.09857 0.09857
#
# Static dielectric constant tensor:
#      x y z
#    x 3.926720 0.000000 0.000000 
#    y 0.000000 3.926720 0.000000 
#    z 0.000000 0.000000 3.788110 
# 
# 
# High freq. dielectric constant tensor:
#      x y z
#    x 1.830570 0.000000 0.000000 
#    y 0.000000 1.830570 0.000000 
#    z 0.000000 0.000000 1.816570 
# 
# From -- ./inp_files/5508.got.cif
#   From: 2010.03.12/outbox.cif.g09.slc.cpg/sg167_3_cif.got.tgz:5508.got - 2010.04.02 06:42:56.
