data_PCOD8324976
_publ_section_title
;
Structure prediction by ZEFSAII (Michael W. Deem and Ramdas Pophale) SiO2 
 PCOD8324976
Probable space group: P -6
;
_chemical_formula_sum "Si O2"
_cell_formula_units_Z 42
_cell_length_a 8.797415
_cell_length_b 8.797415
_cell_length_c 32.149246
_cell_angle_alpha 90.000000
_cell_angle_beta 90.000000
_cell_angle_gamma 120.000000
_cell_volume 2154.822900
_symmetry_space_group_name_H-M "P -6"
_symmetry_group_IT_number 174
_symmetry_cell_setting 'hexagonal'
loop_
_space_group_symop_operation_xyz
x,y,z
-x+y,-x,-z
-y,x-y,z
x,y,-z
-x+y,-x,z
-y,x-y,-z
loop_
_atom_site_type_symbol
_atom_site_label
_atom_site_fract_x
_atom_site_fract_y
_atom_site_fract_z
Si Si1 0.791068 0.823984 0.378560
Si Si2 0.991944 0.654247 0.162468
Si Si3 0.161634 0.455877 0.453714
Si Si4 0.014382 0.332881 0.290785
Si Si5 0.319484 0.990674 0.131033
Si Si6 0.153959 0.458829 0.045783
Si Si7 0.344185 0.335735 0.258733
O O1 0.688092 0.729886 0.420268
O O2 0.669279 0.727851 0.339162
O O3 0.843670 0.029598 0.377612
O O4 0.949493 0.606981 0.210682
O O5 0.962937 0.479573 0.140229
O O6 0.859567 0.711923 0.143834
O O7 0.188494 0.814444 0.156058
O O8 0.368241 0.514696 0.448286
O O9 0.097518 0.376645 0.500000
O O10 0.161612 0.332779 0.261705
O O11 0.008068 0.507499 0.283094
O O12 0.833641 0.162779 0.279977
O O13 0.284841 0.961971 0.081470
O O14 0.358211 0.508651 0.050283
O O15 0.081731 0.375651 0.000000
#
# Coordination Sequence:
#
# PCOD8324976 Si02
#       7
#     6   6   6   6   6   6   6
#     4  10  21  38  58  89 124 160 206 261 315 367
#     4  12  24  39  64  87 126 162 212 257 319 373
#     4   8  18  35  60  91 121 157 207 253 301 370
#     4  12  25  43  62  90 124 164 221 266 323 381
#     4  12  23  42  61  97 123 163 208 258 309 382
#     4   8  15  35  66  91 120 161 197 247 312 373
#     4  12  24  42  61  87 122 169 209 270 321 378
#
# _framework density 19.491161000000002
#
# number of rings (size 3 to 8) (size 9 to 14) (size 15 to 20)
#    0.857    0.571    2.857    4.286    2.000    0.571 
#    0.000    1.429    0.000    0.571    0.000    0.000 
#    0.000    0.000    0.000    0.000    0.000    0.000 
#
# Total GULP energy -520714.820888 kJ/mol
# GULP energy per Si atom -12397.971926 kJ/mol
# Density = 1.944680 g / cm^3
# Si number density = 19.491161 Si / 1000 Ang^3
#
#
#
# Elastic Constant Matrix: (Units=GPa)
#
#
# Indices 1 2 3 4 5 6 
#
# 1 88.4254 31.3684 37.7154 0.0000 0.0000 0.0000
# 2 31.3684 88.4254 37.7154 0.0000 0.0000 0.0000
# 3 37.7154 37.7154 170.1510 0.0000 0.0000 0.0000
# 4 0.0000 0.0000 0.0000 20.9615 0.0000 0.0000
# 5 0.0000 0.0000 0.0000 0.0000 20.9615 0.0000
# 6 0.0000 0.0000 0.0000 0.0000 0.0000 28.5285
#
#
#
# Elastic Compliance Matrix: (Units=1/GPa)
#
#
# Indices 1 2 3 4 5 6 
#
# 1 0.013614 -0.003912 -0.002150 0.000000 0.000000 0.000000
# 2 -0.003912 0.013614 -0.002150 0.000000 0.000000 0.000000
# 3 -0.002150 -0.002150 0.006830 0.000000 0.000000 0.000000
# 4 0.000000 0.000000 0.000000 0.047707 0.000000 0.000000
# 5 0.000000 0.000000 0.000000 0.000000 0.047707 0.000000
# 6 0.000000 0.000000 0.000000 0.000000 0.000000 0.035053
#
#
# Mechanical properties :
#
#
# Convention : Reuss Voigt Hill
#
# Bulk Modulus (GPa) = 56.71473 62.28892 59.50182
# Shear Modulus (GPa) = 26.76255 30.10379 28.43317
#
# Velocity S-wave (km/s) = 3.70950 3.93426 3.82353
# Velocity P-wave (km/s) = 6.89261 7.25705 7.07717
#
# Compressibility (1/GPa) = 0.01763211
#
# Stress axis : x y z
#
# Youngs Moduli (GPa) = 73.45348 73.45348 146.40256
#
# Poissons Ratio (x) = 0.28737 0.31484
# Poissons Ratio (y) = 0.28737 0.31484
# Poissons Ratio (z) = 0.15796 0.15796
#
# Static dielectric constant tensor:
#      x y z
#    x 3.392090 0.000000 0.000000 
#    y 0.000000 3.392090 0.000000 
#    z 0.000000 0.000000 3.572360 
# 
# 
# High freq. dielectric constant tensor:
#      x y z
#    x 1.743630 0.000000 0.000000 
#    y 0.000000 1.743630 0.000000 
#    z 0.000000 0.000000 1.774310 
# 
# From -- ./inp_files/1100.got.cif
#   From: 2010.03.12/outbox.cif.g09.slc.cpg/sg174_cif.got.tgz:1100.got - 2010.04.02 06:54:58.
