data_PCOD8324810
_publ_section_title
;
Structure prediction by ZEFSAII (Michael W. Deem and Ramdas Pophale) SiO2 
 PCOD8324810
Probable space group: P 62
;
_chemical_formula_sum "Si O2"
_cell_formula_units_Z 42
_cell_length_a 13.443646
_cell_length_b 13.443646
_cell_length_c 12.196704
_cell_angle_alpha 90.000000
_cell_angle_beta 90.000000
_cell_angle_gamma 120.000000
_cell_volume 1909.005818
_symmetry_space_group_name_H-M "P 62"
_symmetry_group_IT_number 171
_symmetry_cell_setting 'hexagonal'
loop_
_space_group_symop_operation_xyz
x,y,z
x-y,x,1/3+z
-y,x-y,2/3+z
-x,-y,z
-x+y,-x,1/3+z
y,-x+y,2/3+z
loop_
_atom_site_type_symbol
_atom_site_label
_atom_site_fract_x
_atom_site_fract_y
_atom_site_fract_z
Si Si1 0.870593 0.027107 0.980790
Si Si2 0.926699 0.091000 0.218134
Si Si3 0.645897 0.227984 0.355556
Si Si4 0.617478 0.903166 0.644374
Si Si5 0.708979 0.075223 0.840797
Si Si6 0.327772 0.541221 0.458205
Si Si7 0.000000 0.500000 0.654760
Si Si8 0.500000 0.500000 0.830226
O O1 0.786011 0.067700 0.936165
O O2 0.999453 0.135832 0.980591
O O3 0.858509 0.921870 0.905416
O O4 0.862909 0.009169 0.111839
O O5 0.893464 0.188085 0.229295
O O6 0.775395 0.258028 0.335358
O O7 0.654757 0.340493 0.409554
O O8 0.567686 0.196314 0.248616
O O9 0.581159 0.114565 0.429131
O O10 0.676750 0.972238 0.755246
O O11 0.579701 0.979048 0.577413
O O12 0.764148 0.198293 0.780597
O O13 0.603283 0.066761 0.905404
O O14 0.399091 0.493100 0.395372
#
# Coordination Sequence:
#
# PCOD8324810 Si02
#       8
#     6   6   6   6   6   6   3   3
#     4  11  25  46  73 107 148 188 240 304 370 439
#     4  11  25  46  73 107 148 188 240 304 370 439
#     4  12  27  51  76 108 153 194 248 311 370 447
#     4  12  28  46  77 111 146 198 250 305 371 447
#     4  12  28  46  77 111 146 198 250 305 371 447
#     4  12  27  51  76 108 153 194 248 311 370 447
#     4  12  28  48  78 108 148 198 246 306 376 440
#     4  12  28  48  78 108 148 198 246 306 376 440
#
# _framework density 22.000980999999999
#
# number of rings (size 3 to 8) (size 9 to 14) (size 15 to 20)
#    0.000    0.286    2.857    6.000   12.000    0.000 
#    0.000    0.000    0.000    0.000    0.000    0.000 
#    0.000    0.000    0.000    0.000    0.000    0.000 
#
# Total GULP energy -520612.216533 kJ/mol
# GULP energy per Si atom -12395.528965 kJ/mol
# Density = 2.195091 g / cm^3
# Si number density = 22.000981 Si / 1000 Ang^3
#
#
#
# Elastic Constant Matrix: (Units=GPa)
#
#
# Indices 1 2 3 4 5 6 
#
# 1 84.1304 29.1079 15.1751 0.0000 0.0000 0.0000
# 2 29.1079 84.1304 15.1751 0.0000 0.0000 0.0000
# 3 15.1751 15.1751 84.8866 0.0000 0.0000 0.0000
# 4 0.0000 0.0000 0.0000 30.5534 0.0000 0.0000
# 5 0.0000 0.0000 0.0000 0.0000 30.5534 0.0000
# 6 0.0000 0.0000 0.0000 0.0000 0.0000 27.5112
#
#
#
# Elastic Compliance Matrix: (Units=1/GPa)
#
#
# Indices 1 2 3 4 5 6 
#
# 1 0.013725 -0.004450 -0.001658 0.000000 0.000000 0.000000
# 2 -0.004450 0.013725 -0.001658 0.000000 0.000000 0.000000
# 3 -0.001658 -0.001658 0.012373 0.000000 0.000000 0.000000
# 4 0.000000 0.000000 0.000000 0.032730 0.000000 0.000000
# 5 0.000000 0.000000 0.000000 0.000000 0.032730 0.000000
# 6 0.000000 0.000000 0.000000 0.000000 0.000000 0.036349
#
#
# Mechanical properties :
#
#
# Convention : Reuss Voigt Hill
#
# Bulk Modulus (GPa) = 41.16685 41.34040 41.25363
# Shear Modulus (GPa) = 30.25541 30.63623 30.44582
#
# Velocity S-wave (km/s) = 3.71237 3.73566 3.72403
# Velocity P-wave (km/s) = 6.09324 6.11866 6.10596
#
# Compressibility (1/GPa) = 0.02429139
#
# Stress axis : x y z
#
# Youngs Moduli (GPa) = 72.86039 72.86039 80.81940
#
# Poissons Ratio (x) = 0.32419 0.13401
# Poissons Ratio (y) = 0.32419 0.13401
# Poissons Ratio (z) = 0.12081 0.12081
#
# Static dielectric constant tensor:
#      x y z
#    x 4.088540 0.000000 0.000000 
#    y 0.000000 4.088540 0.000000 
#    z 0.000000 0.000000 4.151940 
# 
# 
# High freq. dielectric constant tensor:
#      x y z
#    x 1.878260 0.000000 0.000000 
#    y 0.000000 1.878260 0.000000 
#    z 0.000000 0.000000 1.880870 
# 
# From -- ./inp_files/4684.got.cif
#   From: 2010.03.12/outbox.cif.g09.slc.cpg/sg171_3_cif.got.tgz:4684.got - 2010.04.02 06:49:11.
