data_PCOD8324501
_publ_section_title
;
Structure prediction by ZEFSAII (Michael W. Deem and Ramdas Pophale) SiO2 
 PCOD8324501
Probable space group: P 61
;
_chemical_formula_sum "Si O2"
_cell_formula_units_Z 48
_cell_length_a 15.849601
_cell_length_b 15.849601
_cell_length_c 10.811693
_cell_angle_alpha 90.000000
_cell_angle_beta 90.000000
_cell_angle_gamma 120.000000
_cell_volume 2352.128285
_symmetry_space_group_name_H-M "P 61"
_symmetry_group_IT_number 169
_symmetry_cell_setting 'hexagonal'
loop_
_space_group_symop_operation_xyz
x,y,z
x-y,x,1/6+z
-y,x-y,1/3+z
-x,-y,1/2+z
-x+y,-x,2/3+z
y,-x+y,5/6+z
loop_
_atom_site_type_symbol
_atom_site_label
_atom_site_fract_x
_atom_site_fract_y
_atom_site_fract_z
Si Si1 0.092592 0.735878 0.145340
Si Si2 0.858648 0.004084 0.781042
Si Si3 0.651881 0.080662 0.919972
Si Si4 0.994579 0.617556 0.509693
Si Si5 0.821940 0.391136 0.096091
Si Si6 0.696205 0.874376 0.078619
Si Si7 0.733284 0.463831 0.881538
Si Si8 0.525497 0.315061 0.930854
O O1 0.040662 0.787379 0.077113
O O2 0.123020 0.771358 0.283951
O O3 0.007019 0.622588 0.152182
O O4 0.194056 0.769955 0.077506
O O5 0.877199 0.919285 0.824261
O O6 0.895722 0.090245 0.885219
O O7 0.635007 0.164943 0.865929
O O8 0.764879 0.130289 0.963343
O O9 0.593903 0.034365 0.046217
O O10 0.894966 0.573238 0.589885
O O11 0.072598 0.593893 0.568798
O O12 0.044702 0.736261 0.499221
O O13 0.759075 0.286362 0.161884
O O14 0.774415 0.409726 0.972195
O O15 0.618216 0.417504 0.897602
O O16 0.755929 0.458581 0.739300
#
# Coordination Sequence:
#
# PCOD8324501 Si02
#       8
#     6   6   6   6   6   6   6   6
#     4   9  19  37  63  94 125 162 220 272 325 392
#     4   9  18  35  60  93 122 162 214 275 326 390
#     4  10  20  38  67  93 122 166 220 272 322 395
#     4  11  25  39  64  95 132 169 218 273 334 398
#     4  12  26  41  66  93 133 175 220 274 333 395
#     4   9  18  37  64  91 122 163 215 271 326 385
#     4  12  25  44  67  92 134 181 223 274 340 400
#     4  12  27  45  63  97 134 178 224 277 336 411
#
# _framework density 20.407050999999999
#
# number of rings (size 3 to 8) (size 9 to 14) (size 15 to 20)
#    0.000    1.500    2.500    3.000    7.000    0.000 
#    0.000    1.250    0.000    0.000    0.000    0.000 
#    0.000    0.000    0.000    0.000    0.000    0.000 
#
# Total GULP energy -594682.719902 kJ/mol
# GULP energy per Si atom -12389.223331 kJ/mol
# Density = 2.036060 g / cm^3
# Si number density = 20.407051 Si / 1000 Ang^3
#
#
#
# Elastic Constant Matrix: (Units=GPa)
#
#
# Indices 1 2 3 4 5 6 
#
# 1 98.9170 35.0257 35.7694 0.0000 0.0000 0.0000
# 2 35.0257 98.9170 35.7694 0.0000 0.0000 0.0000
# 3 35.7694 35.7694 88.0267 0.0000 0.0000 0.0000
# 4 0.0000 0.0000 0.0000 25.3338 0.0000 0.0000
# 5 0.0000 0.0000 0.0000 0.0000 25.3338 0.0000
# 6 0.0000 0.0000 0.0000 0.0000 0.0000 31.9456
#
#
#
# Elastic Compliance Matrix: (Units=1/GPa)
#
#
# Indices 1 2 3 4 5 6 
#
# 1 0.012593 -0.003058 -0.003875 0.000000 0.000000 0.000000
# 2 -0.003058 0.012593 -0.003875 0.000000 0.000000 0.000000
# 3 -0.003875 -0.003875 0.014509 0.000000 0.000000 0.000000
# 4 0.000000 0.000000 0.000000 0.039473 0.000000 0.000000
# 5 0.000000 0.000000 0.000000 0.000000 0.039473 0.000000
# 6 0.000000 0.000000 0.000000 0.000000 0.000000 0.031303
#
#
# Mechanical properties :
#
#
# Convention : Reuss Voigt Hill
#
# Bulk Modulus (GPa) = 55.30624 55.44331 55.37478
# Shear Modulus (GPa) = 28.15520 28.47572 28.31546
#
# Velocity S-wave (km/s) = 3.71843 3.73954 3.72900
# Velocity P-wave (km/s) = 6.75248 6.77298 6.76274
#
# Compressibility (1/GPa) = 0.01808114
#
# Stress axis : x y z
#
# Youngs Moduli (GPa) = 79.40629 79.40629 68.92227
#
# Poissons Ratio (x) = 0.24283 0.26705
# Poissons Ratio (y) = 0.24283 0.26705
# Poissons Ratio (z) = 0.30767 0.30767
#
# Static dielectric constant tensor:
#      x y z
#    x 3.938880 0.000000 0.000000 
#    y 0.000000 3.938880 0.000000 
#    z 0.000000 0.000000 3.505050 
# 
# 
# High freq. dielectric constant tensor:
#      x y z
#    x 1.802240 0.000000 0.000000 
#    y 0.000000 1.802240 0.000000 
#    z 0.000000 0.000000 1.772400 
# 
# From -- ./inp_files/1016.got.cif
#   From: 2010.03.12/outbox.cif.g09.slc.cpg/sg169_cif.got.tgz:1016.got - 2010.04.02 06:46:06.
