data_PCOD8324050
_publ_section_title
;
Structure prediction by ZEFSAII (Michael W. Deem and Ramdas Pophale) SiO2 
 PCOD8324050
Probable space group: R -3 M
;
_chemical_formula_sum "Si O2"
_cell_formula_units_Z 126
_cell_length_a 16.904678
_cell_length_b 16.904678
_cell_length_c 33.148981
_cell_angle_alpha 90.000000
_cell_angle_beta 90.000000
_cell_angle_gamma 120.000000
_cell_volume 8203.791608
_symmetry_space_group_name_H-M "R -3 M"
_symmetry_group_IT_number 166
_symmetry_cell_setting 'hexagonal'
loop_
_space_group_symop_operation_xyz
x,y,z
-y,x-y,z
-x+y,-x,z
x-y,-y,-z
-x,-x+y,-z
y,x,-z
-x,-y,-z
y,-x+y,-z
x-y,x,-z
-x+y,y,z
x,x-y,z
-y,-x,z
2/3+x,1/3+y,1/3+z
2/3-y,1/3+x-y,1/3+z
2/3-x+y,1/3-x,1/3+z
2/3+x-y,1/3-y,1/3-z
2/3-x,1/3-x+y,1/3-z
2/3+y,1/3+x,1/3-z
2/3-x,1/3-y,1/3-z
2/3+y,1/3-x+y,1/3-z
2/3+x-y,1/3+x,1/3-z
2/3-x+y,1/3+y,1/3+z
2/3+x,1/3+x-y,1/3+z
2/3-y,1/3-x,1/3+z
1/3+x,2/3+y,2/3+z
1/3-y,2/3+x-y,2/3+z
1/3-x+y,2/3-x,2/3+z
1/3+x-y,2/3-y,2/3-z
1/3-x,2/3-x+y,2/3-z
1/3+y,2/3+x,2/3-z
1/3-x,2/3-y,2/3-z
1/3+y,2/3-x+y,2/3-z
1/3+x-y,2/3+x,2/3-z
1/3-x+y,2/3+y,2/3+z
1/3+x,2/3+x-y,2/3+z
1/3-y,2/3-x,2/3+z
loop_
_atom_site_type_symbol
_atom_site_label
_atom_site_fract_x
_atom_site_fract_y
_atom_site_fract_z
Si Si1 0.511853 0.845914 0.326606
Si Si2 0.187362 0.187362 0.500000
Si Si3 0.698479 0.939577 0.962561
Si Si4 0.710783 0.947172 0.580522
O O1 0.403462 0.806924 0.327296
O O2 0.532376 0.766188 0.338203
O O3 0.550118 0.882755 0.282165
O O4 0.561715 0.925640 0.359172
O O5 0.174874 0.087437 0.501863
O O6 0.243075 0.245885 0.538637
O O7 0.724315 0.862158 0.952588
O O8 0.716851 0.001706 0.922917
O O9 0.760489 0.000000 0.000000
O O10 0.683632 0.841816 0.579374
#
# Coordination Sequence:
#
# PCOD8324050 Si02
#       4
#    36  18  36  36
#     4   9  16  25  39  60  86 114 141 170 207 252
#     4  10  19  30  45  66  92 120 148 176 207 246
#     4   9  17  29  45  64  86 112 141 177 219 260
#     4   9  18  30  43  61  85 113 142 175 214 254
#
# _framework density 15.358753
#
# number of rings (size 3 to 8) (size 9 to 14) (size 15 to 20)
#    0.000    2.857    0.000    3.857    0.000    6.286 
#    0.000    3.571    0.000    5.143    0.000    0.000 
#    0.000    2.286    0.000    0.000    0.000    0.000 
#
# Total GULP energy -520754.001197 kJ/mol
# GULP energy per Si atom -12398.904790 kJ/mol
# Density = 1.532380 g / cm^3
# Si number density = 15.358753 Si / 1000 Ang^3
#
#
#
# Elastic Constant Matrix: (Units=GPa)
#
#
# Indices 1 2 3 4 5 6 
#
# 1 83.4163 44.6210 33.2545 4.1489 0.0000 0.0000
# 2 44.6210 83.4163 33.2545 -4.1489 0.0000 0.0000
# 3 33.2545 33.2545 75.4790 0.0000 0.0000 0.0000
# 4 4.1489 -4.1489 0.0000 20.7759 0.0000 0.0000
# 5 0.0000 0.0000 0.0000 0.0000 20.7759 4.1489
# 6 0.0000 0.0000 0.0000 0.0000 4.1489 19.3976
#
#
#
# Elastic Compliance Matrix: (Units=1/GPa)
#
#
# Indices 1 2 3 4 5 6 
#
# 1 0.018527 -0.008399 -0.004462 -0.005377 0.000000 0.000000
# 2 -0.008399 0.018527 -0.004462 0.005377 0.000000 0.000000
# 3 -0.004462 -0.004462 0.017181 0.000000 0.000000 0.000000
# 4 -0.005377 0.005377 0.000000 0.050280 0.000000 0.000000
# 5 0.000000 0.000000 0.000000 0.000000 0.050280 -0.010754
# 6 0.000000 0.000000 0.000000 0.000000 -0.010754 0.053853
#
#
# Mechanical properties :
#
#
# Convention : Reuss Voigt Hill
#
# Bulk Modulus (GPa) = 51.05182 51.61908 51.33545
# Shear Modulus (GPa) = 20.01398 20.93532 20.47465
#
# Velocity S-wave (km/s) = 3.61376 3.69601 3.65512
# Velocity P-wave (km/s) = 7.12208 7.20388 7.16310
#
# Compressibility (1/GPa) = 0.01958794
#
# Stress axis : x y z
#
# Youngs Moduli (GPa) = 53.97444 53.97444 58.20491
#
# Poissons Ratio (x) = 0.45334 0.25973
# Poissons Ratio (y) = 0.45334 0.25973
# Poissons Ratio (z) = 0.24085 0.24085
#
# Static dielectric constant tensor:
#      x y z
#    x 2.923940 0.000000 0.000000 
#    y 0.000000 2.923940 0.000000 
#    z 0.000000 0.000000 2.869200 
# 
# 
# High freq. dielectric constant tensor:
#      x y z
#    x 1.584620 0.000000 0.000000 
#    y 0.000000 1.584620 0.000000 
#    z 0.000000 0.000000 1.564210 
# 
# From -- ./inp_files/9170.got.cif
#   From: 2010.03.12/outbox.cif.g09.slc.cpg/sg166_5_cif.got.tgz:9170.got - 2010.04.02 06:38:31.
