data_PCOD8324846
_publ_section_title
;
Structure prediction by ZEFSAII (Michael W. Deem and Ramdas Pophale) SiO2 
 PCOD8324846
Probable space group: P 63
;
_chemical_formula_sum "Si O2"
_cell_formula_units_Z 42
_cell_length_a 8.644278
_cell_length_b 8.644278
_cell_length_c 31.365018
_cell_angle_alpha 90.000000
_cell_angle_beta 90.000000
_cell_angle_gamma 120.000000
_cell_volume 2029.708281
_symmetry_space_group_name_H-M "P 63"
_symmetry_group_IT_number 173
_symmetry_cell_setting 'hexagonal'
loop_
_space_group_symop_operation_xyz
x,y,z
x-y,x,1/2+z
-y,x-y,z
-x,-y,1/2+z
-x+y,-x,z
y,-x+y,1/2+z
loop_
_atom_site_type_symbol
_atom_site_label
_atom_site_fract_x
_atom_site_fract_y
_atom_site_fract_z
Si Si1 0.445708 0.176923 0.453190
Si Si2 0.116970 0.228318 0.037458
Si Si3 0.350650 0.340499 0.153385
Si Si4 0.348592 0.005299 0.834646
Si Si5 0.356938 0.873743 0.747892
Si Si6 0.674079 0.989515 0.867490
Si Si7 0.696129 0.028407 0.623208
O O1 0.609200 0.136009 0.447766
O O2 0.362094 0.141970 0.499554
O O3 0.304814 0.053666 0.417048
O O4 0.203173 0.099332 0.035321
O O5 0.139323 0.337328 0.080652
O O6 0.419803 0.361775 0.200895
O O7 0.501294 0.496916 0.124151
O O8 0.171379 0.352454 0.158936
O O9 0.305284 0.155745 0.130573
O O10 0.381190 0.019695 0.783501
O O11 0.194297 0.802484 0.842368
O O12 0.527183 0.049184 0.860209
O O13 0.280239 0.136601 0.850617
O O14 0.168310 0.687683 0.753191
#
# Coordination Sequence:
#
# PCOD8324846 Si02
#       7
#     6   6   6   6   6   6   6
#     4  10  23  41  68  97 133 178 226 284 354 419
#     4  10  23  41  65 101 138 174 225 296 342 422
#     4  12  24  42  72  98 139 184 230 290 344 420
#     4  12  24  42  72  95 140 177 230 286 341 418
#     4  10  20  42  69  98 134 179 228 284 349 403
#     4  12  24  45  66 105 132 188 226 284 356 418
#     4  12  24  45  66 106 138 188 233 282 360 418
#
# _framework density 20.692629
#
# number of rings (size 3 to 8) (size 9 to 14) (size 15 to 20)
#    0.857    0.000    5.714    1.714    4.000    2.286 
#    0.000    0.000    0.000    2.286    0.000    0.000 
#    0.000    0.000    0.000    0.000    0.000    0.000 
#
# Total GULP energy -520400.659660 kJ/mol
# GULP energy per Si atom -12390.491897 kJ/mol
# Density = 2.064553 g / cm^3
# Si number density = 20.692629 Si / 1000 Ang^3
#
#
#
# Elastic Constant Matrix: (Units=GPa)
#
#
# Indices 1 2 3 4 5 6 
#
# 1 92.8705 24.9672 33.2738 0.0000 0.0000 0.0000
# 2 24.9672 92.8705 33.2738 0.0000 0.0000 0.0000
# 3 33.2738 33.2738 137.7254 0.0000 0.0000 0.0000
# 4 0.0000 0.0000 0.0000 38.7267 0.0000 0.0000
# 5 0.0000 0.0000 0.0000 0.0000 38.7267 0.0000
# 6 0.0000 0.0000 0.0000 0.0000 0.0000 33.9516
#
#
#
# Elastic Compliance Matrix: (Units=1/GPa)
#
#
# Indices 1 2 3 4 5 6 
#
# 1 0.012277 -0.002450 -0.002374 0.000000 0.000000 0.000000
# 2 -0.002450 0.012277 -0.002374 0.000000 0.000000 0.000000
# 3 -0.002374 -0.002374 0.008408 0.000000 0.000000 0.000000
# 4 0.000000 0.000000 0.000000 0.025822 0.000000 0.000000
# 5 0.000000 0.000000 0.000000 0.000000 0.025822 0.000000
# 6 0.000000 0.000000 0.000000 0.000000 0.000000 0.029454
#
#
# Mechanical properties :
#
#
# Convention : Reuss Voigt Hill
#
# Bulk Modulus (GPa) = 53.86361 56.27734 55.07048
# Shear Modulus (GPa) = 37.13486 37.74445 37.43966
#
# Velocity S-wave (km/s) = 4.24086 4.27553 4.25823
# Velocity P-wave (km/s) = 7.07578 7.18536 7.13078
#
# Compressibility (1/GPa) = 0.01856541
#
# Stress axis : x y z
#
# Youngs Moduli (GPa) = 81.45355 81.45355 118.93437
#
# Poissons Ratio (x) = 0.19955 0.28237
# Poissons Ratio (y) = 0.19955 0.28237
# Poissons Ratio (z) = 0.19338 0.19338
#
# Static dielectric constant tensor:
#      x y z
#    x 3.621170 0.000000 0.000000 
#    y 0.000000 3.621170 0.000000 
#    z 0.000000 0.000000 3.678150 
# 
# 
# High freq. dielectric constant tensor:
#      x y z
#    x 1.801030 0.000000 0.000000 
#    y 0.000000 1.801030 0.000000 
#    z 0.000000 0.000000 1.816920 
# 
# From -- ./inp_files/1517.got.cif
#   From: 2010.03.12/outbox.cif.g09.slc.cpg/sg173_cif.got.tgz:1517.got - 2010.04.02 06:54:12.
