data_PCOD8324827
_publ_section_title
;
Structure prediction by ZEFSAII (Michael W. Deem and Ramdas Pophale) SiO2 
 PCOD8324827
Probable space group: P 64
;
_chemical_formula_sum "Si O2"
_cell_formula_units_Z 27
_cell_length_a 10.853546
_cell_length_b 10.853546
_cell_length_c 12.359169
_cell_angle_alpha 90.000000
_cell_angle_beta 90.000000
_cell_angle_gamma 120.000000
_cell_volume 1260.849368
_symmetry_space_group_name_H-M "P 64"
_symmetry_group_IT_number 172
_symmetry_cell_setting 'hexagonal'
loop_
_space_group_symop_operation_xyz
x,y,z
x-y,x,2/3+z
-y,x-y,1/3+z
-x,-y,z
-x+y,-x,2/3+z
y,-x+y,1/3+z
loop_
_atom_site_type_symbol
_atom_site_label
_atom_site_fract_x
_atom_site_fract_y
_atom_site_fract_z
Si Si1 0.127873 0.349313 0.980690
Si Si2 0.658617 0.614364 0.826545
Si Si3 0.500000 0.500000 0.453007
Si Si4 0.100479 0.168990 0.174760
Si Si5 0.646408 0.881160 0.924918
O O1 0.283966 0.441140 0.925981
O O2 0.024575 0.261576 0.882326
O O3 0.118428 0.221826 0.052298
O O4 0.090235 0.455533 0.041959
O O5 0.500000 0.500000 0.797461
O O6 0.666797 0.759679 0.867045
O O7 0.753747 0.627161 0.721190
O O8 0.630173 0.519811 0.528369
O O9 0.031610 0.242981 0.244510
O O10 0.000000 0.000000 0.176398
#
# Coordination Sequence:
#
# PCOD8324827 Si02
#       5
#     6   6   3   6   6
#     4  11  24  42  67 105 137 178 228 283 346 412
#     4  12  26  44  69 101 137 183 230 283 336 420
#     4  10  24  46  70  98 142 184 224 278 350 420
#     4  11  21  40  74 104 133 168 225 298 349 401
#     4  11  23  46  72  99 138 180 230 282 351 410
#
# _framework density 21.414135999999999
#
# number of rings (size 3 to 8) (size 9 to 14) (size 15 to 20)
#    0.000    0.889    3.333    4.667    0.000    1.778 
#   16.000    0.000    0.000    0.000    0.000    0.000 
#    0.000    0.000    0.000    0.000    0.000    0.000 
#
# Total GULP energy -334625.629858 kJ/mol
# GULP energy per Si atom -12393.541847 kJ/mol
# Density = 2.136540 g / cm^3
# Si number density = 21.414136 Si / 1000 Ang^3
#
#
#
# Elastic Constant Matrix: (Units=GPa)
#
#
# Indices 1 2 3 4 5 6 
#
# 1 80.3689 22.5107 53.0443 0.0000 0.0000 0.0000
# 2 22.5107 80.3689 53.0443 0.0000 0.0000 0.0000
# 3 53.0443 53.0443 137.9284 0.0000 0.0000 0.0000
# 4 0.0000 0.0000 0.0000 31.8933 0.0000 0.0000
# 5 0.0000 0.0000 0.0000 0.0000 31.8933 0.0000
# 6 0.0000 0.0000 0.0000 0.0000 0.0000 28.9291
#
#
#
# Elastic Compliance Matrix: (Units=1/GPa)
#
#
# Indices 1 2 3 4 5 6 
#
# 1 0.016696 -0.000588 -0.006195 0.000000 0.000000 0.000000
# 2 -0.000588 0.016696 -0.006195 0.000000 0.000000 0.000000
# 3 -0.006195 -0.006195 0.012015 0.000000 0.000000 0.000000
# 4 0.000000 0.000000 0.000000 0.031355 0.000000 0.000000
# 5 0.000000 0.000000 0.000000 0.000000 0.031355 0.000000
# 6 0.000000 0.000000 0.000000 0.000000 0.000000 0.034567
#
#
# Mechanical properties :
#
#
# Convention : Reuss Voigt Hill
#
# Bulk Modulus (GPa) = 51.40891 61.76274 56.58583
# Shear Modulus (GPa) = 28.55155 29.88096 29.21625
#
# Velocity S-wave (km/s) = 3.65540 3.73954 3.69771
# Velocity P-wave (km/s) = 6.47110 6.89566 6.68675
#
# Compressibility (1/GPa) = 0.01945188
#
# Stress axis : x y z
#
# Youngs Moduli (GPa) = 59.89496 59.89496 83.22962
#
# Poissons Ratio (x) = 0.03520 0.51560
# Poissons Ratio (y) = 0.03520 0.51560
# Poissons Ratio (z) = 0.37104 0.37104
#
# Static dielectric constant tensor:
#      x y z
#    x 3.864050 0.000000 0.000000 
#    y 0.000000 3.864050 0.000000 
#    z 0.000000 0.000000 4.086930 
# 
# 
# High freq. dielectric constant tensor:
#      x y z
#    x 1.830860 0.000000 0.000000 
#    y 0.000000 1.830860 0.000000 
#    z 0.000000 0.000000 1.865760 
# 
# From -- ./inp_files/1014.got.cif
#   From: 2010.03.12/outbox.cif.g09.slc.cpg/sg172_1_cif.got.tgz:1014.got - 2010.04.02 06:52:29.
