data_PCOD8324563
_publ_section_title
;
Structure prediction by ZEFSAII (Michael W. Deem and Ramdas Pophale) SiO2 
 PCOD8324563
Probable space group: P 61
;
_chemical_formula_sum "Si O2"
_cell_formula_units_Z 42
_cell_length_a 14.258518
_cell_length_b 14.258518
_cell_length_c 10.589833
_cell_angle_alpha 90.000000
_cell_angle_beta 90.000000
_cell_angle_gamma 120.000000
_cell_volume 1864.526325
_symmetry_space_group_name_H-M "P 61"
_symmetry_group_IT_number 169
_symmetry_cell_setting 'hexagonal'
loop_
_space_group_symop_operation_xyz
x,y,z
x-y,x,1/6+z
-y,x-y,1/3+z
-x,-y,1/2+z
-x+y,-x,2/3+z
y,-x+y,5/6+z
loop_
_atom_site_type_symbol
_atom_site_label
_atom_site_fract_x
_atom_site_fract_y
_atom_site_fract_z
Si Si1 0.187274 0.022264 0.231930
Si Si2 0.434703 0.553651 0.442670
Si Si3 0.649430 0.986522 0.173457
Si Si4 0.268602 0.518843 0.804482
Si Si5 0.333465 0.965957 0.395230
Si Si6 0.699299 0.285625 0.458610
Si Si7 0.143926 0.947270 0.831756
O O1 0.156990 0.077416 0.345449
O O2 0.244751 0.106157 0.114923
O O3 0.266309 0.981489 0.283756
O O4 0.532722 0.579233 0.348752
O O5 0.418955 0.461247 0.539938
O O6 0.467923 0.669302 0.511134
O O7 0.317367 0.508961 0.371667
O O8 0.573785 0.859747 0.200183
O O9 0.742320 0.032383 0.278695
O O10 0.697131 0.005008 0.031473
O O11 0.156957 0.464857 0.726302
O O12 0.364133 0.591260 0.708660
O O13 0.270871 0.593787 0.917318
O O14 0.057641 0.904175 0.718220
#
# Coordination Sequence:
#
# PCOD8324563 Si02
#       7
#     6   6   6   6   6   6   6
#     4  10  24  49  70 103 143 188 241 300 374 438
#     4  11  25  44  72 104 142 190 241 299 374 432
#     4  12  24  45  71 108 142 194 243 300 362 449
#     4  11  22  44  67 104 139 182 242 293 366 438
#     4  12  24  45  71 108 142 194 243 300 362 449
#     4  10  23  44  71  96 143 186 235 306 366 432
#     4  10  24  49  70 103 143 188 241 300 374 438
#
# _framework density 22.525825999999999
#
# number of rings (size 3 to 8) (size 9 to 14) (size 15 to 20)
#    0.000    1.143    2.857    2.571    2.000    0.000 
#   33.429    0.000    0.000    0.000    0.000    0.000 
#    0.000    0.000    0.000    0.000    0.000    0.000 
#
# Total GULP energy -520738.837496 kJ/mol
# GULP energy per Si atom -12398.543750 kJ/mol
# Density = 2.247456 g / cm^3
# Si number density = 22.525826 Si / 1000 Ang^3
#
#
#
# Elastic Constant Matrix: (Units=GPa)
#
#
# Indices 1 2 3 4 5 6 
#
# 1 80.8906 27.5002 28.0336 0.0000 0.0000 0.0000
# 2 27.5002 80.8906 28.0336 0.0000 0.0000 0.0000
# 3 28.0336 28.0336 90.0393 0.0000 0.0000 0.0000
# 4 0.0000 0.0000 0.0000 40.9073 0.0000 0.0000
# 5 0.0000 0.0000 0.0000 0.0000 40.9073 0.0000
# 6 0.0000 0.0000 0.0000 0.0000 0.0000 26.6952
#
#
#
# Elastic Compliance Matrix: (Units=1/GPa)
#
#
# Indices 1 2 3 4 5 6 
#
# 1 0.014863 -0.003867 -0.003424 0.000000 0.000000 0.000000
# 2 -0.003867 0.014863 -0.003424 0.000000 0.000000 0.000000
# 3 -0.003424 -0.003424 0.013238 0.000000 0.000000 0.000000
# 4 0.000000 0.000000 0.000000 0.024446 0.000000 0.000000
# 5 0.000000 0.000000 0.000000 0.000000 0.024446 0.000000
# 6 0.000000 0.000000 0.000000 0.000000 0.000000 0.037460
#
#
# Mechanical properties :
#
#
# Convention : Reuss Voigt Hill
#
# Bulk Modulus (GPa) = 46.43244 46.55058 46.49151
# Shear Modulus (GPa) = 31.66088 32.91883 32.28986
#
# Velocity S-wave (km/s) = 3.75312 3.82695 3.79021
# Velocity P-wave (km/s) = 6.28004 6.34332 6.31176
#
# Compressibility (1/GPa) = 0.02153667
#
# Stress axis : x y z
#
# Youngs Moduli (GPa) = 67.27914 67.27914 75.53840
#
# Poissons Ratio (x) = 0.26014 0.25863
# Poissons Ratio (y) = 0.26014 0.25863
# Poissons Ratio (z) = 0.23036 0.23036
#
# Static dielectric constant tensor:
#      x y z
#    x 3.948020 0.000000 0.000000 
#    y 0.000000 3.948020 0.000000 
#    z 0.000000 0.000000 4.119540 
# 
# 
# High freq. dielectric constant tensor:
#      x y z
#    x 1.883250 0.000000 0.000000 
#    y 0.000000 1.883250 0.000000 
#    z 0.000000 0.000000 1.897490 
# 
# From -- ./inp_files/970.got.cif
#   From: 2010.03.12/outbox.cif.g09.slc.cpg/sg169_cif.got.tgz:970.got - 2010.04.02 06:46:06.
