data_PCOD8324604
_publ_section_title
;
Structure prediction by ZEFSAII (Michael W. Deem and Ramdas Pophale) SiO2 
 PCOD8324604
Probable space group: P 61
;
_chemical_formula_sum "Si O2"
_cell_formula_units_Z 42
_cell_length_a 8.238376
_cell_length_b 8.238376
_cell_length_c 31.624879
_cell_angle_alpha 90.000000
_cell_angle_beta 90.000000
_cell_angle_gamma 120.000000
_cell_volume 1858.843054
_symmetry_space_group_name_H-M "P 61"
_symmetry_group_IT_number 169
_symmetry_cell_setting 'hexagonal'
loop_
_space_group_symop_operation_xyz
x,y,z
x-y,x,1/6+z
-y,x-y,1/3+z
-x,-y,1/2+z
-x+y,-x,2/3+z
y,-x+y,5/6+z
loop_
_atom_site_type_symbol
_atom_site_label
_atom_site_fract_x
_atom_site_fract_y
_atom_site_fract_z
Si Si1 0.939009 0.054078 0.933750
Si Si2 0.154115 0.518082 0.158959
Si Si3 0.348763 0.441795 0.720259
Si Si4 0.759263 0.178652 0.801729
Si Si5 0.184581 0.545751 0.066301
Si Si6 0.396536 0.742241 0.229656
Si Si7 0.801712 0.940897 0.356918
O O1 0.837488 0.166963 0.916934
O O2 0.073174 0.054416 0.896242
O O3 0.777186 0.841998 0.942773
O O4 0.044184 0.141892 0.977697
O O5 0.235502 0.510487 0.113397
O O6 0.300902 0.700095 0.184188
O O7 0.964099 0.526043 0.155976
O O8 0.131158 0.338587 0.185601
O O9 0.297566 0.389272 0.671315
O O10 0.434943 0.667642 0.724054
O O11 0.476874 0.354047 0.734230
O O12 0.742660 0.325813 0.770077
O O13 0.203175 0.415488 0.031604
O O14 0.966102 0.480938 0.066789
#
# Coordination Sequence:
#
# PCOD8324604 Si02
#       7
#     6   6   6   6   6   6   6
#     4  12  24  44  78 108 148 198 257 311 389 465
#     4  11  25  45  70 103 147 192 242 322 383 445
#     4  12  25  43  77 108 140 208 248 303 393 461
#     4  11  24  45  70 104 144 196 242 313 386 455
#     4  11  25  44  73 105 148 190 254 305 379 461
#     4  11  26  46  68 110 150 187 252 321 371 464
#     4  12  23  45  74 110 145 193 255 315 381 463
#
# _framework density 22.594697
#
# number of rings (size 3 to 8) (size 9 to 14) (size 15 to 20)
#    0.000    0.571    5.714    1.714    4.000    2.286 
#    0.000    0.000    0.000    0.000    0.000    0.000 
#    0.000    0.000    0.000    0.000    0.000    0.000 
#
# Total GULP energy -520301.112343 kJ/mol
# GULP energy per Si atom -12388.121722 kJ/mol
# Density = 2.254327 g / cm^3
# Si number density = 22.594697 Si / 1000 Ang^3
#
#
#
# Elastic Constant Matrix: (Units=GPa)
#
#
# Indices 1 2 3 4 5 6 
#
# 1 113.2087 49.9963 58.6270 0.0000 0.0000 0.0000
# 2 49.9963 113.2087 58.6270 0.0000 0.0000 0.0000
# 3 58.6270 58.6270 174.9317 0.0000 0.0000 0.0000
# 4 0.0000 0.0000 0.0000 38.8390 0.0000 0.0000
# 5 0.0000 0.0000 0.0000 0.0000 38.8390 0.0000
# 6 0.0000 0.0000 0.0000 0.0000 0.0000 31.6062
#
#
#
# Elastic Compliance Matrix: (Units=1/GPa)
#
#
# Indices 1 2 3 4 5 6 
#
# 1 0.011945 -0.003875 -0.002705 0.000000 0.000000 0.000000
# 2 -0.003875 0.011945 -0.002705 0.000000 0.000000 0.000000
# 3 -0.002705 -0.002705 0.007529 0.000000 0.000000 0.000000
# 4 0.000000 0.000000 0.000000 0.025747 0.000000 0.000000
# 5 0.000000 0.000000 0.000000 0.000000 0.025747 0.000000
# 6 0.000000 0.000000 0.000000 0.000000 0.000000 0.031639
#
#
# Mechanical properties :
#
#
# Convention : Reuss Voigt Hill
#
# Bulk Modulus (GPa) = 77.81252 81.76111 79.78681
# Shear Modulus (GPa) = 36.38861 37.46343 36.92602
#
# Velocity S-wave (km/s) = 4.01745 4.07635 4.04701
# Velocity P-wave (km/s) = 7.48552 7.64330 7.56482
#
# Compressibility (1/GPa) = 0.01285140
#
# Stress axis : x y z
#
# Youngs Moduli (GPa) = 83.71647 83.71647 132.81131
#
# Poissons Ratio (x) = 0.32437 0.35922
# Poissons Ratio (y) = 0.32437 0.35922
# Poissons Ratio (z) = 0.22643 0.22643
#
# Static dielectric constant tensor:
#      x y z
#    x 4.058650 0.000000 0.000000 
#    y 0.000000 4.058650 0.000000 
#    z 0.000000 0.000000 4.648270 
# 
# 
# High freq. dielectric constant tensor:
#      x y z
#    x 1.882540 0.000000 0.000000 
#    y 0.000000 1.882540 0.000000 
#    z 0.000000 0.000000 1.918530 
# 
# From -- ./inp_files/1890.got.cif
#   From: 2010.03.12/outbox.cif.g09.slc.cpg/sg169_cif.got.tgz:1890.got - 2010.04.02 06:46:06.
