data_PCOD8324660
_publ_section_title
;
Structure prediction by ZEFSAII (Michael W. Deem and Ramdas Pophale) SiO2 
 PCOD8324660
Probable space group: P 65
;
_chemical_formula_sum "Si O2"
_cell_formula_units_Z 48
_cell_length_a 14.609563
_cell_length_b 14.609563
_cell_length_c 13.894051
_cell_angle_alpha 90.000000
_cell_angle_beta 90.000000
_cell_angle_gamma 120.000000
_cell_volume 2568.230335
_symmetry_space_group_name_H-M "P 65"
_symmetry_group_IT_number 170
_symmetry_cell_setting 'hexagonal'
loop_
_space_group_symop_operation_xyz
x,y,z
x-y,x,5/6+z
-y,x-y,2/3+z
-x,-y,1/2+z
-x+y,-x,1/3+z
y,-x+y,1/6+z
loop_
_atom_site_type_symbol
_atom_site_label
_atom_site_fract_x
_atom_site_fract_y
_atom_site_fract_z
Si Si1 0.458866 0.789128 0.345530
Si Si2 0.721188 0.320841 0.302770
Si Si3 0.876438 0.402165 0.898130
Si Si4 0.805235 0.176877 0.814318
Si Si5 0.413619 0.967767 0.387759
Si Si6 0.765732 0.133269 0.590831
Si Si7 0.526380 0.047598 0.583330
Si Si8 0.145460 0.010710 0.118419
O O1 0.408579 0.716439 0.251252
O O2 0.396491 0.721604 0.439698
O O3 0.452358 0.894078 0.336568
O O4 0.580790 0.820401 0.360331
O O5 0.647673 0.207973 0.252933
O O6 0.841975 0.371494 0.267611
O O7 0.826699 0.292906 0.839740
O O8 0.971729 0.496538 0.840735
O O9 0.921137 0.385918 0.998797
O O10 0.712936 0.090899 0.881699
O O11 0.769156 0.156404 0.703981
O O12 0.904521 0.160670 0.833282
O O13 0.447858 0.987218 0.497145
O O14 0.642466 0.063597 0.561407
O O15 0.830934 0.074297 0.566378
O O16 0.060123 0.957284 0.204591
#
# Coordination Sequence:
#
# PCOD8324660 Si02
#       8
#     6   6   6   6   6   6   6   6
#     4  11  22  39  61  90 130 164 206 259 306 372
#     4  11  24  39  58  91 128 168 210 250 311 377
#     4  12  21  38  61  87 126 166 210 254 312 374
#     4  11  20  39  63  96 119 160 208 267 310 367
#     4  12  23  37  62  89 128 167 205 253 316 374
#     4  10  20  39  63  93 125 157 213 262 311 361
#     4  11  23  38  58  92 127 164 209 253 308 383
#     4  10  21  39  68  96 119 156 215 270 314 358
#
# _framework density 18.689910999999999
#
# number of rings (size 3 to 8) (size 9 to 14) (size 15 to 20)
#    0.000    1.000    5.000    3.750    3.500    1.000 
#    0.000    0.000    2.750    0.000    0.000    0.000 
#    0.000    0.000    0.000    0.000    0.000    0.000 
#
# Total GULP energy -595283.535813 kJ/mol
# GULP energy per Si atom -12401.740329 kJ/mol
# Density = 1.864737 g / cm^3
# Si number density = 18.689911 Si / 1000 Ang^3
#
#
#
# Elastic Constant Matrix: (Units=GPa)
#
#
# Indices 1 2 3 4 5 6 
#
# 1 100.1515 41.0095 35.0377 0.0000 0.0000 0.0000
# 2 41.0095 100.1515 35.0377 0.0000 0.0000 0.0000
# 3 35.0377 35.0377 82.8783 0.0000 0.0000 0.0000
# 4 0.0000 0.0000 0.0000 31.0757 0.0000 0.0000
# 5 0.0000 0.0000 0.0000 0.0000 31.0757 0.0000
# 6 0.0000 0.0000 0.0000 0.0000 0.0000 29.5710
#
#
#
# Elastic Compliance Matrix: (Units=1/GPa)
#
#
# Indices 1 2 3 4 5 6 
#
# 1 0.012937 -0.003971 -0.003790 0.000000 0.000000 0.000000
# 2 -0.003971 0.012937 -0.003790 0.000000 0.000000 0.000000
# 3 -0.003790 -0.003790 0.015271 0.000000 0.000000 0.000000
# 4 0.000000 0.000000 0.000000 0.032179 0.000000 0.000000
# 5 0.000000 0.000000 0.000000 0.000000 0.032179 0.000000
# 6 0.000000 0.000000 0.000000 0.000000 0.000000 0.033817
#
#
# Mechanical properties :
#
#
# Convention : Reuss Voigt Hill
#
# Bulk Modulus (GPa) = 55.43009 56.15010 55.79009
# Shear Modulus (GPa) = 29.68443 29.81759 29.75101
#
# Velocity S-wave (km/s) = 3.98962 3.99856 3.99409
# Velocity P-wave (km/s) = 7.13757 7.17121 7.15441
#
# Compressibility (1/GPa) = 0.01804074
#
# Stress axis : x y z
#
# Youngs Moduli (GPa) = 77.29712 77.29712 65.48487
#
# Poissons Ratio (x) = 0.30698 0.24821
# Poissons Ratio (y) = 0.30698 0.24821
# Poissons Ratio (z) = 0.29298 0.29298
#
# Static dielectric constant tensor:
#      x y z
#    x 3.525090 0.000000 0.000000 
#    y 0.000000 3.525090 0.000000 
#    z 0.000000 0.000000 3.372670 
# 
# 
# High freq. dielectric constant tensor:
#      x y z
#    x 1.720990 0.000000 0.000000 
#    y 0.000000 1.720990 0.000000 
#    z 0.000000 0.000000 1.721040 
# 
# From -- ./inp_files/1065.got.cif
#   From: 2010.03.12/outbox.cif.g09.slc.cpg/sg170_cif.got.tgz:1065.got - 2010.04.02 06:47:37.
