data_PCOD8324756
_publ_section_title
;
Structure prediction by ZEFSAII (Michael W. Deem and Ramdas Pophale) SiO2 
 PCOD8324756
Probable space group: P 62
;
_chemical_formula_sum "Si O2"
_cell_formula_units_Z 42
_cell_length_a 15.084415
_cell_length_b 15.084415
_cell_length_c 11.306182
_cell_angle_alpha 90.000000
_cell_angle_beta 90.000000
_cell_angle_gamma 120.000000
_cell_volume 2227.940294
_symmetry_space_group_name_H-M "P 62"
_symmetry_group_IT_number 171
_symmetry_cell_setting 'hexagonal'
loop_
_space_group_symop_operation_xyz
x,y,z
x-y,x,1/3+z
-y,x-y,2/3+z
-x,-y,z
-x+y,-x,1/3+z
y,-x+y,2/3+z
loop_
_atom_site_type_symbol
_atom_site_label
_atom_site_fract_x
_atom_site_fract_y
_atom_site_fract_z
Si Si1 0.475778 0.641170 0.306230
Si Si2 0.886988 0.346991 0.483220
Si Si3 0.257592 0.965131 0.940675
Si Si4 0.248006 0.612838 0.884368
Si Si5 0.000000 0.500000 0.279650
Si Si6 0.000000 0.000000 0.285078
Si Si7 0.543593 0.351987 0.804393
Si Si8 0.063216 0.887351 0.784762
O O1 0.442621 0.539928 0.229540
O O2 0.596184 0.708132 0.323326
O O3 0.423487 0.603665 0.433708
O O4 0.443992 0.712067 0.233962
O O5 0.769805 0.256886 0.483447
O O6 0.941579 0.289968 0.538919
O O7 0.936114 0.396326 0.356289
O O8 0.168825 0.908403 0.843095
O O9 0.228247 0.003899 0.059248
O O10 0.345550 0.596795 0.867933
O O11 0.179529 0.552506 0.997135
O O12 0.079511 0.483646 0.197860
O O13 0.092802 0.998702 0.217473
O O14 0.032249 0.105671 0.352045
#
# Coordination Sequence:
#
# PCOD8324756 Si02
#       8
#     6   6   6   6   3   3   6   6
#     4  10  21  37  61  87 123 165 207 243 300 373
#     4  11  23  37  60  88 126 162 206 252 306 372
#     4  11  22  36  56  94 118 154 197 261 304 367
#     4   9  20  40  63  86 118 171 206 244 312 362
#     4  12  22  40  64  92 122 168 216 256 318 378
#     4   8  16  42  62  80 108 158 200 242 310 386
#     4  10  21  41  64  88 121 167 211 256 303 381
#     4   9  20  36  63  83 114 152 200 246 315 363
#
# _framework density 18.851493000000001
#
# number of rings (size 3 to 8) (size 9 to 14) (size 15 to 20)
#    0.000    2.000    2.857    0.000    6.000    0.000 
#    5.143    0.000    6.286    0.000    0.000    0.000 
#    0.000    0.000    0.000    0.000    0.000    0.000 
#
# Total GULP energy -520476.291511 kJ/mol
# GULP energy per Si atom -12392.292655 kJ/mol
# Density = 1.880859 g / cm^3
# Si number density = 18.851493 Si / 1000 Ang^3
#
#
#
# Elastic Constant Matrix: (Units=GPa)
#
#
# Indices 1 2 3 4 5 6 
#
# 1 97.3085 41.4277 54.3219 0.0000 0.0000 0.0000
# 2 41.4277 97.3085 54.3219 0.0000 0.0000 0.0000
# 3 54.3219 54.3219 127.2373 0.0000 0.0000 0.0000
# 4 0.0000 0.0000 0.0000 28.4632 0.0000 0.0000
# 5 0.0000 0.0000 0.0000 0.0000 28.4632 0.0000
# 6 0.0000 0.0000 0.0000 0.0000 0.0000 27.9404
#
#
#
# Elastic Compliance Matrix: (Units=1/GPa)
#
#
# Indices 1 2 3 4 5 6 
#
# 1 0.014362 -0.003534 -0.004623 0.000000 0.000000 0.000000
# 2 -0.003534 0.014362 -0.004623 0.000000 0.000000 0.000000
# 3 -0.004623 -0.004623 0.011807 0.000000 0.000000 0.000000
# 4 0.000000 0.000000 0.000000 0.035133 0.000000 0.000000
# 5 0.000000 0.000000 0.000000 0.000000 0.035133 0.000000
# 6 0.000000 0.000000 0.000000 0.000000 0.000000 0.035790
#
#
# Mechanical properties :
#
#
# Convention : Reuss Voigt Hill
#
# Bulk Modulus (GPa) = 66.79437 69.11080 67.95258
# Shear Modulus (GPa) = 28.22695 28.42555 28.32625
#
# Velocity S-wave (km/s) = 3.87374 3.88734 3.88054
# Velocity P-wave (km/s) = 7.45094 7.54247 7.49684
#
# Compressibility (1/GPa) = 0.01497132
#
# Stress axis : x y z
#
# Youngs Moduli (GPa) = 69.62989 69.62989 84.69805
#
# Poissons Ratio (x) = 0.24604 0.39155
# Poissons Ratio (y) = 0.24604 0.39155
# Poissons Ratio (z) = 0.32189 0.32189
#
# Static dielectric constant tensor:
#      x y z
#    x 3.325480 0.000000 0.000000 
#    y 0.000000 3.325480 0.000000 
#    z 0.000000 0.000000 3.629520 
# 
# 
# High freq. dielectric constant tensor:
#      x y z
#    x 1.725210 0.000000 0.000000 
#    y 0.000000 1.725210 0.000000 
#    z 0.000000 0.000000 1.743570 
# 
# From -- ./inp_files/4685.got.cif
#   From: 2010.03.12/outbox.cif.g09.slc.cpg/sg171_3_cif.got.tgz:4685.got - 2010.04.02 06:49:11.
