data_PCOD8324546
_publ_section_title
;
Structure prediction by ZEFSAII (Michael W. Deem and Ramdas Pophale) SiO2 
 PCOD8324546
Probable space group: P 61
;
_chemical_formula_sum "Si O2"
_cell_formula_units_Z 48
_cell_length_a 14.680982
_cell_length_b 14.680982
_cell_length_c 11.108779
_cell_angle_alpha 90.000000
_cell_angle_beta 90.000000
_cell_angle_gamma 120.000000
_cell_volume 2073.514950
_symmetry_space_group_name_H-M "P 61"
_symmetry_group_IT_number 169
_symmetry_cell_setting 'hexagonal'
loop_
_space_group_symop_operation_xyz
x,y,z
x-y,x,1/6+z
-y,x-y,1/3+z
-x,-y,1/2+z
-x+y,-x,2/3+z
y,-x+y,5/6+z
loop_
_atom_site_type_symbol
_atom_site_label
_atom_site_fract_x
_atom_site_fract_y
_atom_site_fract_z
Si Si1 0.824849 0.886397 0.917330
Si Si2 0.289452 0.520794 0.868924
Si Si3 0.120253 0.481656 0.506108
Si Si4 0.530400 0.174099 0.971169
Si Si5 0.506096 0.967559 0.871808
Si Si6 0.831824 0.236309 0.816892
Si Si7 0.415626 0.272769 0.085981
Si Si8 0.073506 0.183324 0.223594
O O1 0.703695 0.847944 0.932542
O O2 0.842299 0.811466 0.823226
O O3 0.884250 0.007447 0.876315
O O4 0.399281 0.567584 0.795734
O O5 0.246467 0.599360 0.849840
O O6 0.225282 0.410128 0.795809
O O7 0.298097 0.503056 0.008758
O O8 0.011488 0.446785 0.577647
O O9 0.208671 0.490409 0.599129
O O10 0.110016 0.409769 0.392531
O O11 0.506786 0.054748 0.962677
O O12 0.457848 0.190605 0.068028
O O13 0.569996 0.919800 0.937343
O O14 0.381447 0.887868 0.847510
O O15 0.296068 0.214699 0.038269
O O16 0.099177 0.144483 0.098700
#
# Coordination Sequence:
#
# PCOD8324546 Si02
#       8
#     6   6   6   6   6   6   6   6
#     4  10  22  41  73 102 137 179 243 306 370 433
#     4  11  21  43  64  93 149 193 241 295 357 441
#     4  11  23  42  66 103 144 190 252 299 360 449
#     4  11  25  44  67 100 149 196 246 305 364 447
#     4  11  25  42  69 108 152 191 249 309 374 444
#     4  12  22  42  72 107 143 197 241 303 375 444
#     4  12  24  44  75 108 144 202 249 305 387 450
#     4  10  22  44  76 107 144 182 251 320 377 448
#
# _framework density 23.149097000000001
#
# number of rings (size 3 to 8) (size 9 to 14) (size 15 to 20)
#    0.000    1.000    3.750    4.500    0.000    4.000 
#    0.000    0.000   44.000    0.000    0.000    0.000 
#    0.000    0.000    0.000    0.000    0.000    0.000 
#
# Total GULP energy -594931.008816 kJ/mol
# GULP energy per Si atom -12394.396017 kJ/mol
# Density = 2.309641 g / cm^3
# Si number density = 23.149097 Si / 1000 Ang^3
#
#
#
# Elastic Constant Matrix: (Units=GPa)
#
#
# Indices 1 2 3 4 5 6 
#
# 1 88.2468 12.8423 23.7423 0.0000 0.0000 0.0000
# 2 12.8423 88.2468 23.7423 0.0000 0.0000 0.0000
# 3 23.7423 23.7423 49.3448 0.0000 0.0000 0.0000
# 4 0.0000 0.0000 0.0000 31.3086 0.0000 0.0000
# 5 0.0000 0.0000 0.0000 0.0000 31.3086 0.0000
# 6 0.0000 0.0000 0.0000 0.0000 0.0000 37.7022
#
#
#
# Elastic Compliance Matrix: (Units=1/GPa)
#
#
# Indices 1 2 3 4 5 6 
#
# 1 0.013021 -0.000240 -0.006150 0.000000 0.000000 0.000000
# 2 -0.000240 0.013021 -0.006150 0.000000 0.000000 0.000000
# 3 -0.006150 -0.006150 0.026183 0.000000 0.000000 0.000000
# 4 0.000000 0.000000 0.000000 0.031940 0.000000 0.000000
# 5 0.000000 0.000000 0.000000 0.000000 0.031940 0.000000
# 6 0.000000 0.000000 0.000000 0.000000 0.000000 0.026524
#
#
# Mechanical properties :
#
#
# Convention : Reuss Voigt Hill
#
# Bulk Modulus (GPa) = 36.83663 38.49914 37.66788
# Shear Modulus (GPa) = 28.28731 31.09800 29.69265
#
# Velocity S-wave (km/s) = 3.49945 3.66919 3.58532
# Velocity P-wave (km/s) = 5.68115 5.88368 5.78330
#
# Compressibility (1/GPa) = 0.02714689
#
# Stress axis : x y z
#
# Youngs Moduli (GPa) = 76.79698 76.79698 38.19234
#
# Poissons Ratio (x) = 0.01847 0.23486
# Poissons Ratio (y) = 0.01847 0.23486
# Poissons Ratio (z) = 0.47227 0.47227
#
# Static dielectric constant tensor:
#      x y z
#    x 4.272020 0.000000 0.000000 
#    y 0.000000 4.272020 0.000000 
#    z 0.000000 0.000000 4.049140 
# 
# 
# High freq. dielectric constant tensor:
#      x y z
#    x 1.918200 0.000000 0.000000 
#    y 0.000000 1.918200 0.000000 
#    z 0.000000 0.000000 1.903950 
# 
# From -- ./inp_files/1024.got.cif
#   From: 2010.03.12/outbox.cif.g09.slc.cpg/sg169_cif.got.tgz:1024.got - 2010.04.02 06:46:06.
