data_PCOD8324094
_publ_section_title
;
Structure prediction by ZEFSAII (Michael W. Deem and Ramdas Pophale) SiO2 
 PCOD8324094
Probable space group: R -3 M
;
_chemical_formula_sum "Si O2"
_cell_formula_units_Z 216
_cell_length_a 23.866511
_cell_length_b 23.866511
_cell_length_c 23.252755
_cell_angle_alpha 90.000000
_cell_angle_beta 90.000000
_cell_angle_gamma 120.000000
_cell_volume 11470.515005
_symmetry_space_group_name_H-M "R -3 M"
_symmetry_group_IT_number 166
_symmetry_cell_setting 'hexagonal'
loop_
_space_group_symop_operation_xyz
x,y,z
-y,x-y,z
-x+y,-x,z
x-y,-y,-z
-x,-x+y,-z
y,x,-z
-x,-y,-z
y,-x+y,-z
x-y,x,-z
-x+y,y,z
x,x-y,z
-y,-x,z
2/3+x,1/3+y,1/3+z
2/3-y,1/3+x-y,1/3+z
2/3-x+y,1/3-x,1/3+z
2/3+x-y,1/3-y,1/3-z
2/3-x,1/3-x+y,1/3-z
2/3+y,1/3+x,1/3-z
2/3-x,1/3-y,1/3-z
2/3+y,1/3-x+y,1/3-z
2/3+x-y,1/3+x,1/3-z
2/3-x+y,1/3+y,1/3+z
2/3+x,1/3+x-y,1/3+z
2/3-y,1/3-x,1/3+z
1/3+x,2/3+y,2/3+z
1/3-y,2/3+x-y,2/3+z
1/3-x+y,2/3-x,2/3+z
1/3+x-y,2/3-y,2/3-z
1/3-x,2/3-x+y,2/3-z
1/3+y,2/3+x,2/3-z
1/3-x,2/3-y,2/3-z
1/3+y,2/3-x+y,2/3-z
1/3+x-y,2/3+x,2/3-z
1/3-x+y,2/3+y,2/3+z
1/3+x,2/3+x-y,2/3+z
1/3-y,2/3-x,2/3+z
loop_
_atom_site_type_symbol
_atom_site_label
_atom_site_fract_x
_atom_site_fract_y
_atom_site_fract_z
Si Si1 0.083310 0.478112 0.056935
Si Si2 0.569819 0.552483 0.631505
Si Si3 0.467255 0.406533 0.761575
Si Si4 0.038377 0.203108 0.946052
Si Si5 0.773891 0.732737 0.733797
Si Si6 0.808110 0.065964 0.859163
O O1 0.094417 0.547209 0.078737
O O2 0.123126 0.456205 0.099643
O O3 0.009406 0.423195 0.061622
O O4 0.102772 0.483623 0.989188
O O5 0.516854 0.483147 0.604318
O O6 0.586972 0.542894 0.695078
O O7 0.540095 0.598623 0.637114
O O8 0.634262 0.586048 0.593062
O O9 0.539865 0.460136 0.781553
O O10 0.413319 0.415310 0.796925
O O11 0.093497 0.186993 0.925858
O O12 0.995468 0.197082 0.891198
O O13 0.000000 0.157042 0.000000
O O14 0.815777 0.758853 0.791538
O O15 0.871988 0.128012 0.883273
#
# Coordination Sequence:
#
# PCOD8324094 Si02
#       6
#    36  36  36  36  36  36
#     4  10  19  33  51  74 106 139 171 211 264 327
#     4   9  18  32  50  73 103 135 170 210 257 314
#     4   9  18  32  51  73  99 134 173 211 258 314
#     4  11  21  34  53  77 106 143 182 223 274 324
#     4  10  20  32  51  77 105 136 172 211 266 323
#     4  11  21  35  54  76 102 136 180 226 270 322
#
# _framework density 18.830888000000002
#
# number of rings (size 3 to 8) (size 9 to 14) (size 15 to 20)
#    0.000    2.000    1.667    3.500    2.333    3.333 
#    0.000    1.667    0.000    3.333    0.000    0.000 
#    0.000    1.333    0.000    5.333    0.000    0.833 
#
# Total GULP energy -892422.995548 kJ/mol
# GULP energy per Si atom -12394.763827 kJ/mol
# Density = 1.878803 g / cm^3
# Si number density = 18.830888 Si / 1000 Ang^3
#
#
#
# Elastic Constant Matrix: (Units=GPa)
#
#
# Indices 1 2 3 4 5 6 
#
# 1 98.3677 45.8331 23.6942 -4.8777 0.0000 0.0000
# 2 45.8331 98.3677 23.6942 4.8777 0.0000 0.0000
# 3 23.6942 23.6942 69.3769 0.0000 0.0000 0.0000
# 4 -4.8777 4.8777 0.0000 11.4727 0.0000 0.0000
# 5 0.0000 0.0000 0.0000 0.0000 11.4727 -4.8777
# 6 0.0000 0.0000 0.0000 0.0000 -4.8777 26.2673
#
#
#
# Elastic Compliance Matrix: (Units=1/GPa)
#
#
# Indices 1 2 3 4 5 6 
#
# 1 0.014239 -0.006428 -0.002668 0.008787 0.000000 0.000000
# 2 -0.006428 0.014239 -0.002668 -0.008787 0.000000 0.000000
# 3 -0.002668 -0.002668 0.016236 0.000000 0.000000 0.000000
# 4 0.008787 -0.008787 0.000000 0.094635 0.000000 0.000000
# 5 0.000000 0.000000 0.000000 0.000000 0.094635 0.017573
# 6 0.000000 0.000000 0.000000 0.000000 0.017573 0.041333
#
#
# Mechanical properties :
#
#
# Convention : Reuss Voigt Hill
#
# Bulk Modulus (GPa) = 47.19668 50.28389 48.74029
# Shear Modulus (GPa) = 16.34481 21.36859 18.85670
#
# Velocity S-wave (km/s) = 2.94934 3.37228 3.16788
# Velocity P-wave (km/s) = 6.05937 6.47486 6.27056
#
# Compressibility (1/GPa) = 0.02118793
#
# Stress axis : x y z
#
# Youngs Moduli (GPa) = 70.22910 70.22910 61.59031
#
# Poissons Ratio (x) = 0.45141 0.16431
# Poissons Ratio (y) = 0.45141 0.16431
# Poissons Ratio (z) = 0.18736 0.18736
#
# Static dielectric constant tensor:
#      x y z
#    x 3.586690 0.000000 0.000000 
#    y 0.000000 3.586690 0.000000 
#    z 0.000000 0.000000 3.566340 
# 
# 
# High freq. dielectric constant tensor:
#      x y z
#    x 1.712000 0.000000 0.000000 
#    y 0.000000 1.712000 0.000000 
#    z 0.000000 0.000000 1.731390 
# 
# From -- ./inp_files/8448.got.cif
#   From: 2010.03.12/outbox.cif.g09.slc.cpg/sg166_5_cif.got.tgz:8448.got - 2010.04.02 06:38:31.
