data_PCOD8324245
_publ_section_title
;
Structure prediction by ZEFSAII (Michael W. Deem and Ramdas Pophale) SiO2 
 PCOD8324245
Probable space group: R -3 M
;
_chemical_formula_sum "Si O2"
_cell_formula_units_Z 126
_cell_length_a 20.550410
_cell_length_b 20.550410
_cell_length_c 16.984002
_cell_angle_alpha 90.000000
_cell_angle_beta 90.000000
_cell_angle_gamma 120.000000
_cell_volume 6211.716775
_symmetry_space_group_name_H-M "R -3 M"
_symmetry_group_IT_number 166
_symmetry_cell_setting 'hexagonal'
loop_
_space_group_symop_operation_xyz
x,y,z
-y,x-y,z
-x+y,-x,z
x-y,-y,-z
-x,-x+y,-z
y,x,-z
-x,-y,-z
y,-x+y,-z
x-y,x,-z
-x+y,y,z
x,x-y,z
-y,-x,z
2/3+x,1/3+y,1/3+z
2/3-y,1/3+x-y,1/3+z
2/3-x+y,1/3-x,1/3+z
2/3+x-y,1/3-y,1/3-z
2/3-x,1/3-x+y,1/3-z
2/3+y,1/3+x,1/3-z
2/3-x,1/3-y,1/3-z
2/3+y,1/3-x+y,1/3-z
2/3+x-y,1/3+x,1/3-z
2/3-x+y,1/3+y,1/3+z
2/3+x,1/3+x-y,1/3+z
2/3-y,1/3-x,1/3+z
1/3+x,2/3+y,2/3+z
1/3-y,2/3+x-y,2/3+z
1/3-x+y,2/3-x,2/3+z
1/3+x-y,2/3-y,2/3-z
1/3-x,2/3-x+y,2/3-z
1/3+y,2/3+x,2/3-z
1/3-x,2/3-y,2/3-z
1/3+y,2/3-x+y,2/3-z
1/3+x-y,2/3+x,2/3-z
1/3-x+y,2/3+y,2/3+z
1/3+x,2/3+x-y,2/3+z
1/3-y,2/3-x,2/3+z
loop_
_atom_site_type_symbol
_atom_site_label
_atom_site_fract_x
_atom_site_fract_y
_atom_site_fract_z
Si Si1 0.084467 0.469642 0.969542
Si Si2 0.737950 0.793963 0.568224
Si Si3 0.745275 0.750791 0.863939
Si Si4 0.515002 0.333334 0.333334
O O1 0.111121 0.555561 0.988798
O O2 0.093364 0.463563 0.877036
O O3 0.138913 0.447255 0.015689
O O4 0.000000 0.416445 0.000000
O O5 0.788898 0.788898 0.500000
O O6 0.724576 0.862288 0.549913
O O7 0.658903 0.717759 0.575417
O O8 0.666667 0.744363 0.833334
O O9 0.791394 0.817899 0.925433
O O10 0.524508 0.262254 0.356619
#
# Coordination Sequence:
#
# PCOD8324245 Si02
#       4
#    36  36  36  18
#     4  11  20  35  58  85 118 157 205 256 311 372
#     4  11  21  35  57  87 122 158 197 248 316 381
#     4  11  22  39  64  94 121 157 206 270 327 371
#     4  12  27  46  66  92 133 182 224 262 318 394
#
# _framework density 20.284246
#
# number of rings (size 3 to 8) (size 9 to 14) (size 15 to 20)
#    0.000    0.857    5.714    5.286    0.000    1.714 
#    0.000    0.000    0.000    5.143    0.000    0.000 
#    0.000    0.000    0.000    0.000    0.000    0.000 
#
# Total GULP energy -520813.546258 kJ/mol
# GULP energy per Si atom -12400.322530 kJ/mol
# Density = 2.023808 g / cm^3
# Si number density = 20.284246 Si / 1000 Ang^3
#
#
#
# Elastic Constant Matrix: (Units=GPa)
#
#
# Indices 1 2 3 4 5 6 
#
# 1 72.6444 35.4874 25.7324 -5.1600 -0.0001 0.0000
# 2 35.4874 72.6444 25.7324 5.1600 0.0001 0.0000
# 3 25.7324 25.7324 103.1136 0.0000 0.0000 0.0000
# 4 -5.1600 5.1600 0.0000 28.3183 0.0000 0.0001
# 5 -0.0001 0.0001 0.0000 0.0000 28.3183 -5.1600
# 6 0.0000 0.0000 0.0000 0.0001 -5.1600 18.5785
#
#
#
# Elastic Compliance Matrix: (Units=1/GPa)
#
#
# Indices 1 2 3 4 5 6 
#
# 1 0.019421 -0.008927 -0.002619 0.005165 0.000000 0.000000
# 2 -0.008927 0.019421 -0.002619 -0.005165 0.000000 0.000000
# 3 -0.002619 -0.002619 0.011005 0.000000 0.000000 0.000000
# 4 0.005165 -0.005165 0.000000 0.037195 0.000000 0.000000
# 5 0.000000 0.000000 0.000000 0.000000 0.037195 0.010331
# 6 0.000000 0.000000 0.000000 0.000000 0.010331 0.056695
#
#
# Mechanical properties :
#
#
# Convention : Reuss Voigt Hill
#
# Bulk Modulus (GPa) = 46.47198 46.92297 46.69747
# Shear Modulus (GPa) = 23.10173 25.80636 24.45404
#
# Velocity S-wave (km/s) = 3.37842 3.57071 3.47590
# Velocity P-wave (km/s) = 6.17887 6.33900 6.25945
#
# Compressibility (1/GPa) = 0.02151834
#
# Stress axis : x y z
#
# Youngs Moduli (GPa) = 51.49076 51.49076 90.86645
#
# Poissons Ratio (x) = 0.45963 0.23797
# Poissons Ratio (y) = 0.45963 0.23797
# Poissons Ratio (z) = 0.13485 0.13485
#
# Static dielectric constant tensor:
#      x y z
#    x 3.551980 0.000000 0.000000 
#    y 0.000000 3.551980 0.000000 
#    z 0.000000 0.000000 3.816290 
# 
# 
# High freq. dielectric constant tensor:
#      x y z
#    x 1.770870 0.000000 0.000000 
#    y 0.000000 1.770870 0.000000 
#    z 0.000000 0.000000 1.808560 
# 
# From -- ./inp_files/4921.got.cif
#   From: 2010.03.12/outbox.cif.g09.slc.cpg/sg166_3_cif.got.tgz:4921.got - 2010.04.02 06:38:31.
