data_PCOD8324955
_publ_section_title
;
Structure prediction by ZEFSAII (Michael W. Deem and Ramdas Pophale) SiO2 
 PCOD8324955
Probable space group: P -6
;
_chemical_formula_sum "Si O2"
_cell_formula_units_Z 24
_cell_length_a 7.958072
_cell_length_b 7.958072
_cell_length_c 20.803740
_cell_angle_alpha 90.000000
_cell_angle_beta 90.000000
_cell_angle_gamma 120.000000
_cell_volume 1141.005604
_symmetry_space_group_name_H-M "P -6"
_symmetry_group_IT_number 174
_symmetry_cell_setting 'hexagonal'
loop_
_space_group_symop_operation_xyz
x,y,z
-x+y,-x,-z
-y,x-y,z
x,y,-z
-x+y,-x,z
-y,x-y,-z
loop_
_atom_site_type_symbol
_atom_site_label
_atom_site_fract_x
_atom_site_fract_y
_atom_site_fract_z
Si Si1 0.672783 0.121220 0.500000
Si Si2 0.787248 0.004792 0.626020
Si Si3 0.668431 0.119015 0.248760
Si Si4 0.119535 0.669557 0.125395
Si Si5 0.004119 0.786824 0.000000
O O1 0.478842 0.139143 0.500000
O O2 0.673780 0.004975 0.562578
O O3 0.666660 0.005109 0.687597
O O4 0.005213 0.193733 0.626733
O O5 0.858623 0.334867 0.247890
O O6 0.671566 0.998702 0.187361
O O7 0.140920 0.476746 0.125752
O O8 0.003809 0.668711 0.062366
O O9 0.193484 0.004601 0.000000
#
# Coordination Sequence:
#
# PCOD8324955 Si02
#       5
#     3   6   6   6   3
#     4  10  20  38  64  90 124 164 208 266 310 374
#     4  10  22  36  65  88 124 163 216 253 317 375
#     4  10  24  39  62  92 127 167 213 258 316 375
#     4  10  24  41  65  91 130 160 206 267 309 372
#     4  10  24  38  68  86 122 162 210 240 320 382
#
# _framework density 21.034078000000001
#
# number of rings (size 3 to 8) (size 9 to 14) (size 15 to 20)
#    2.000    0.000    0.000    3.000    7.000    0.000 
#    0.000    0.000    0.000    7.000    0.000    0.000 
#    0.000    0.000    0.000    0.000    0.000    0.000 
#
# Total GULP energy -297370.477696 kJ/mol
# GULP energy per Si atom -12390.436571 kJ/mol
# Density = 2.098620 g / cm^3
# Si number density = 21.034078 Si / 1000 Ang^3
#
#
#
# Elastic Constant Matrix: (Units=GPa)
#
#
# Indices 1 2 3 4 5 6 
#
# 1 45.6752 -6.1980 29.7846 0.0000 0.0000 0.0000
# 2 -6.1980 45.6752 29.7846 0.0000 0.0000 0.0000
# 3 29.7846 29.7846 209.7601 0.0000 0.0000 0.0000
# 4 0.0000 0.0000 0.0000 36.4698 0.0000 0.0000
# 5 0.0000 0.0000 0.0000 0.0000 36.4698 0.0000
# 6 0.0000 0.0000 0.0000 0.0000 0.0000 25.9366
#
#
#
# Elastic Compliance Matrix: (Units=1/GPa)
#
#
# Indices 1 2 3 4 5 6 
#
# 1 0.025758 0.006480 -0.004578 0.000000 0.000000 0.000000
# 2 0.006480 0.025758 -0.004578 0.000000 0.000000 0.000000
# 3 -0.004578 -0.004578 0.006067 0.000000 0.000000 0.000000
# 4 0.000000 0.000000 0.000000 0.027420 0.000000 0.000000
# 5 0.000000 0.000000 0.000000 0.000000 0.027420 0.000000
# 6 0.000000 0.000000 0.000000 0.000000 0.000000 0.038556
#
#
# Mechanical properties :
#
#
# Convention : Reuss Voigt Hill
#
# Bulk Modulus (GPa) = 19.14469 45.31696 32.23082
# Shear Modulus (GPa) = 28.77858 36.29119 32.53489
#
# Velocity S-wave (km/s) = 3.70292 4.15824 3.93717
# Velocity P-wave (km/s) = 5.23485 6.68176 6.00207
#
# Compressibility (1/GPa) = 0.05223381
#
# Stress axis : x y z
#
# Youngs Moduli (GPa) = 38.82263 38.82263 164.81665
#
# Poissons Ratio (x) = -0.25159 0.75448
# Poissons Ratio (y) = -0.25159 0.75448
# Poissons Ratio (z) = 0.17772 0.17772
#
# Static dielectric constant tensor:
#      x y z
#    x 3.431380 0.000000 0.000000 
#    y 0.000000 3.431380 0.000000 
#    z 0.000000 0.000000 3.640350 
# 
# 
# High freq. dielectric constant tensor:
#      x y z
#    x 1.798160 0.000000 0.000000 
#    y 0.000000 1.798160 0.000000 
#    z 0.000000 0.000000 1.836300 
# 
# From -- ./inp_files/1037.got.cif
#   From: 2010.03.12/outbox.cif.g09.slc.cpg/sg174_cif.got.tgz:1037.got - 2010.04.02 06:54:58.
