data_PCOD8324362
_publ_section_title
;
Structure prediction by ZEFSAII (Michael W. Deem and Ramdas Pophale) SiO2 
 PCOD8324362
Probable space group: R -3 C 
;
_chemical_formula_sum "Si O2"
_cell_formula_units_Z 162
_cell_length_a 24.216368
_cell_length_b 24.216368
_cell_length_c 13.361111
_cell_angle_alpha 90.000000
_cell_angle_beta 90.000000
_cell_angle_gamma 120.000000
_cell_volume 6785.646310
_symmetry_space_group_name_H-M "R -3 C "
_symmetry_group_IT_number 167
_symmetry_cell_setting 'hexagonal'
loop_
_space_group_symop_operation_xyz
x,y,z
-y,x-y,z
-x+y,-x,z
x-y,-y,1/2-z
-x,-x+y,1/2-z
y,x,1/2-z
-x,-y,-z
y,-x+y,-z
x-y,x,-z
-x+y,y,1/2+z
x,x-y,1/2+z
-y,-x,1/2+z
2/3+x,1/3+y,1/3+z
2/3-y,1/3+x-y,1/3+z
2/3-x+y,1/3-x,1/3+z
2/3+x-y,1/3-y,5/6-z
2/3-x,1/3-x+y,5/6-z
2/3+y,1/3+x,5/6-z
2/3-x,1/3-y,1/3-z
2/3+y,1/3-x+y,1/3-z
2/3+x-y,1/3+x,1/3-z
2/3-x+y,1/3+y,5/6+z
2/3+x,1/3+x-y,5/6+z
2/3-y,1/3-x,5/6+z
1/3+x,2/3+y,2/3+z
1/3-y,2/3+x-y,2/3+z
1/3-x+y,2/3-x,2/3+z
1/3+x-y,2/3-y,1/6-z
1/3-x,2/3-x+y,1/6-z
1/3+y,2/3+x,1/6-z
1/3-x,2/3-y,2/3-z
1/3+y,2/3-x+y,2/3-z
1/3+x-y,2/3+x,2/3-z
1/3-x+y,2/3+y,1/6+z
1/3+x,2/3+x-y,1/6+z
1/3-y,2/3-x,1/6+z
loop_
_atom_site_type_symbol
_atom_site_label
_atom_site_fract_x
_atom_site_fract_y
_atom_site_fract_z
Si Si1 0.214035 0.954453 0.014519
Si Si2 0.831761 0.498428 0.083334
Si Si3 0.987716 0.115357 0.466048
Si Si4 0.707635 0.883319 0.712746
Si Si5 0.934084 0.674090 0.296612
O O1 0.169147 0.980123 0.973002
O O2 0.171671 0.900103 0.096909
O O3 0.273874 0.012557 0.072158
O O4 0.228738 0.914533 0.931383
O O5 0.798493 0.456311 0.180005
O O6 0.835472 0.566049 0.109463
O O7 0.047646 0.118223 0.514224
O O8 0.686527 0.809628 0.738463
O O9 0.933970 0.666667 0.416667
O O10 0.000000 0.731277 0.250000
#
# Coordination Sequence:
#
# PCOD8324362 Si02
#       5
#    36  18  36  36  36
#     4  10  21  43  72 103 151 189 241 310 368 460
#     4  10  26  46  70 108 150 192 254 302 370 474
#     4  11  25  46  74 104 142 194 247 312 379 442
#     4  10  21  46  69 105 155 192 241 313 368 454
#     4  12  25  42  75 112 149 198 250 306 383 458
#
# _framework density 23.873923000000001
#
# number of rings (size 3 to 8) (size 9 to 14) (size 15 to 20)
#    0.000    1.333    4.444    1.556    4.667    2.667 
#    0.000    6.667    0.000    0.000    0.000    0.000 
#    0.000    0.000    0.000    0.000    0.000    0.000 
#
# Total GULP energy -669015.918985 kJ/mol
# GULP energy per Si atom -12389.183685 kJ/mol
# Density = 2.381958 g / cm^3
# Si number density = 23.873923 Si / 1000 Ang^3
#
#
#
# Elastic Constant Matrix: (Units=GPa)
#
#
# Indices 1 2 3 4 5 6 
#
# 1 208.5101 98.5947 40.1343 -8.7909 -0.0001 0.0000
# 2 98.5947 208.5101 40.1343 8.7909 0.0001 0.0000
# 3 40.1343 40.1343 73.7605 0.0000 0.0000 0.0000
# 4 -8.7909 8.7909 0.0000 52.5010 0.0000 0.0001
# 5 -0.0001 0.0001 0.0000 0.0000 52.5010 -8.7909
# 6 0.0000 0.0000 0.0000 0.0001 -8.7909 54.9577
#
#
#
# Elastic Compliance Matrix: (Units=1/GPa)
#
#
# Indices 1 2 3 4 5 6 
#
# 1 0.006572 -0.002776 -0.002066 0.001565 0.000000 0.000000
# 2 -0.002776 0.006572 -0.002066 -0.001565 0.000000 0.000000
# 3 -0.002066 -0.002066 0.015805 0.000000 0.000000 0.000000
# 4 0.001565 -0.001565 0.000000 0.019571 0.000000 0.000000
# 5 0.000000 0.000000 0.000000 0.000000 0.019571 0.003131
# 6 0.000000 0.000000 0.000000 0.000000 0.003131 0.018697
#
#
# Mechanical properties :
#
#
# Convention : Reuss Voigt Hill
#
# Bulk Modulus (GPa) = 66.07085 94.27859 80.17472
# Shear Modulus (GPa) = 47.32682 52.78643 50.05663
#
# Velocity S-wave (km/s) = 4.45721 4.70728 4.58395
# Velocity P-wave (km/s) = 7.36369 8.31388 7.85317
#
# Compressibility (1/GPa) = 0.01513527
#
# Stress axis : x y z
#
# Youngs Moduli (GPa) = 152.15640 152.15645 63.27055
#
# Poissons Ratio (x) = 0.42240 0.13069
# Poissons Ratio (y) = 0.42240 0.13069
# Poissons Ratio (z) = 0.31428 0.31428
#
# Static dielectric constant tensor:
#      x y z
#    x 4.677440 0.000000 0.000000 
#    y 0.000000 4.677440 0.000000 
#    z 0.000000 0.000000 4.087290 
# 
# 
# High freq. dielectric constant tensor:
#      x y z
#    x 1.954900 0.000000 0.000000 
#    y 0.000000 1.954900 0.000000 
#    z 0.000000 0.000000 1.935660 
# 
# From -- ./inp_files/3450.got.cif
#   From: 2010.03.12/outbox.cif.g09.slc.cpg/sg167_2_cif.got.tgz:3450.got - 2010.04.02 06:42:56.
