data_PCOD8324764
_publ_section_title
;
Structure prediction by ZEFSAII (Michael W. Deem and Ramdas Pophale) SiO2 
 PCOD8324764
Probable space group: P 62
;
_chemical_formula_sum "Si O2"
_cell_formula_units_Z 27
_cell_length_a 13.961994
_cell_length_b 13.961994
_cell_length_c 8.824297
_cell_angle_alpha 90.000000
_cell_angle_beta 90.000000
_cell_angle_gamma 120.000000
_cell_volume 1489.723410
_symmetry_space_group_name_H-M "P 62"
_symmetry_group_IT_number 171
_symmetry_cell_setting 'hexagonal'
loop_
_space_group_symop_operation_xyz
x,y,z
x-y,x,1/3+z
-y,x-y,2/3+z
-x,-y,z
-x+y,-x,1/3+z
y,-x+y,2/3+z
loop_
_atom_site_type_symbol
_atom_site_label
_atom_site_fract_x
_atom_site_fract_y
_atom_site_fract_z
Si Si1 0.566036 0.370242 0.962470
Si Si2 0.202508 0.550968 0.629565
Si Si3 0.844945 0.250138 0.187528
Si Si4 0.377798 0.310798 0.719461
Si Si5 0.500000 0.500000 0.489069
O O1 0.640409 0.311663 0.946194
O O2 0.646086 0.501600 0.947627
O O3 0.475503 0.329747 0.831768
O O4 0.506610 0.345300 0.126175
O O5 0.229014 0.464464 0.711545
O O6 0.109171 0.563561 0.719279
O O7 0.802120 0.143944 0.296297
O O8 0.966810 0.275304 0.139071
O O9 0.411591 0.406185 0.596183
#
# Coordination Sequence:
#
# PCOD8324764 Si02
#       5
#     6   6   6   6   3
#     4  12  20  31  55  79 112 158 194 227 283 356
#     4  11  22  33  51  81 113 153 192 233 285 345
#     4  11  21  38  53  78 116 158 193 240 287 343
#     4  11  22  36  56  77 116 158 199 234 292 343
#     4  10  22  34  50  78 118 150 190 240 290 346
#
# _framework density 18.124168000000001
#
# number of rings (size 3 to 8) (size 9 to 14) (size 15 to 20)
#    0.000    0.889    6.667    1.333    3.111    0.000 
#    0.000    0.000    0.000    0.000    0.000    0.000 
#    0.000   69.333    0.000    0.000    0.000    0.000 
#
# Total GULP energy -334799.880271 kJ/mol
# GULP energy per Si atom -12399.995566 kJ/mol
# Density = 1.808292 g / cm^3
# Si number density = 18.124168 Si / 1000 Ang^3
#
#
#
# Elastic Constant Matrix: (Units=GPa)
#
#
# Indices 1 2 3 4 5 6 
#
# 1 83.5058 42.2461 39.9944 0.0000 0.0000 0.0000
# 2 42.2461 83.5058 39.9944 0.0000 0.0000 0.0000
# 3 39.9944 39.9944 104.9301 0.0000 0.0000 0.0000
# 4 0.0000 0.0000 0.0000 22.1309 0.0000 0.0000
# 5 0.0000 0.0000 0.0000 0.0000 22.1309 0.0000
# 6 0.0000 0.0000 0.0000 0.0000 0.0000 20.6298
#
#
#
# Elastic Compliance Matrix: (Units=1/GPa)
#
#
# Indices 1 2 3 4 5 6 
#
# 1 0.017367 -0.006870 -0.004001 0.000000 0.000000 0.000000
# 2 -0.006870 0.017367 -0.004001 0.000000 0.000000 0.000000
# 3 -0.004001 -0.004001 0.012580 0.000000 0.000000 0.000000
# 4 0.000000 0.000000 0.000000 0.045186 0.000000 0.000000
# 5 0.000000 0.000000 0.000000 0.000000 0.045186 0.000000
# 6 0.000000 0.000000 0.000000 0.000000 0.000000 0.048474
#
#
# Mechanical properties :
#
#
# Convention : Reuss Voigt Hill
#
# Bulk Modulus (GPa) = 56.91395 57.37904 57.14650
# Shear Modulus (GPa) = 22.54696 22.95878 22.75287
#
# Velocity S-wave (km/s) = 3.53090 3.56300 3.54699
# Velocity P-wave (km/s) = 6.93494 6.97526 6.95513
#
# Compressibility (1/GPa) = 0.01757038
#
# Stress axis : x y z
#
# Youngs Moduli (GPa) = 57.58062 57.58062 79.49038
#
# Poissons Ratio (x) = 0.39557 0.31804
# Poissons Ratio (y) = 0.39557 0.31804
# Poissons Ratio (z) = 0.23038 0.23038
#
# Static dielectric constant tensor:
#      x y z
#    x 3.264930 0.000000 0.000000 
#    y 0.000000 3.264930 0.000000 
#    z 0.000000 0.000000 3.921600 
# 
# 
# High freq. dielectric constant tensor:
#      x y z
#    x 1.670520 0.000000 0.000000 
#    y 0.000000 1.670520 0.000000 
#    z 0.000000 0.000000 1.730720 
# 
# From -- ./inp_files/1037.got.cif
#   From: 2010.03.12/outbox.cif.g09.slc.cpg/sg171_1_cif.got.tgz:1037.got - 2010.04.02 06:49:11.
