data_PCOD8324696
_publ_section_title
;
Structure prediction by ZEFSAII (Michael W. Deem and Ramdas Pophale) SiO2 
 PCOD8324696
Probable space group: P 65
;
_chemical_formula_sum "Si O2"
_cell_formula_units_Z 48
_cell_length_a 16.001330
_cell_length_b 16.001330
_cell_length_c 10.526131
_cell_angle_alpha 90.000000
_cell_angle_beta 90.000000
_cell_angle_gamma 120.000000
_cell_volume 2334.057582
_symmetry_space_group_name_H-M "P 65"
_symmetry_group_IT_number 170
_symmetry_cell_setting 'hexagonal'
loop_
_space_group_symop_operation_xyz
x,y,z
x-y,x,5/6+z
-y,x-y,2/3+z
-x,-y,1/2+z
-x+y,-x,1/3+z
y,-x+y,1/6+z
loop_
_atom_site_type_symbol
_atom_site_label
_atom_site_fract_x
_atom_site_fract_y
_atom_site_fract_z
Si Si1 0.218486 0.913042 0.879480
Si Si2 0.375610 0.085258 0.209986
Si Si3 0.553314 0.629039 0.381382
Si Si4 0.548756 0.150863 0.870899
Si Si5 0.431266 0.025003 0.461446
Si Si6 0.937326 0.293018 0.371367
Si Si7 0.734764 0.243248 0.732592
Si Si8 0.163093 0.163834 0.942183
O O1 0.151993 0.807042 0.822681
O O2 0.251931 0.992595 0.769460
O O3 0.320428 0.922963 0.917454
O O4 0.168241 0.933194 0.998850
O O5 0.399526 0.075677 0.355479
O O6 0.436489 0.198579 0.176416
O O7 0.263410 0.050751 0.188007
O O8 0.410518 0.026939 0.118658
O O9 0.447961 0.541081 0.344794
O O10 0.552732 0.711264 0.466723
O O11 0.446112 0.101430 0.800996
O O12 0.633947 0.230073 0.782943
O O13 0.580234 0.072696 0.904306
O O14 0.551242 0.205832 0.997842
O O15 0.365116 0.006124 0.584762
O O16 0.063369 0.142692 0.875611
#
# Coordination Sequence:
#
# PCOD8324696 Si02
#       8
#     6   6   6   6   6   6   6   6
#     4  11  22  41  71  99 131 176 232 279 347 424
#     4  11  23  42  70 100 133 187 236 282 341 424
#     4  11  21  39  69  92 131 178 235 279 335 402
#     4  12  25  43  66  99 140 186 234 287 346 408
#     4  12  24  42  67  95 141 189 226 288 348 405
#     4  12  24  43  69 101 137 183 232 288 346 424
#     4  12  24  43  67  98 141 180 234 288 339 413
#     4  11  23  45  77 104 130 175 227 289 356 424
#
# _framework density 20.565047
#
# number of rings (size 3 to 8) (size 9 to 14) (size 15 to 20)
#    0.000    0.500    7.500    2.250    0.000    2.000 
#    2.250    1.250    0.000    0.000    0.000    0.000 
#    0.000    0.000    0.000    0.000    0.000    0.000 
#
# Total GULP energy -595148.213781 kJ/mol
# GULP energy per Si atom -12398.921120 kJ/mol
# Density = 2.051824 g / cm^3
# Si number density = 20.565047 Si / 1000 Ang^3
#
#
#
# Elastic Constant Matrix: (Units=GPa)
#
#
# Indices 1 2 3 4 5 6 
#
# 1 100.3158 46.1640 49.5328 0.0000 0.0000 0.0000
# 2 46.1640 100.3158 49.5328 0.0000 0.0000 0.0000
# 3 49.5328 49.5328 93.7498 0.0000 0.0000 0.0000
# 4 0.0000 0.0000 0.0000 37.4617 0.0000 0.0000
# 5 0.0000 0.0000 0.0000 0.0000 37.4617 0.0000
# 6 0.0000 0.0000 0.0000 0.0000 0.0000 27.0759
#
#
#
# Elastic Compliance Matrix: (Units=1/GPa)
#
#
# Indices 1 2 3 4 5 6 
#
# 1 0.014545 -0.003922 -0.005613 0.000000 0.000000 0.000000
# 2 -0.003922 0.014545 -0.005613 0.000000 0.000000 0.000000
# 3 -0.005613 -0.005613 0.016597 0.000000 0.000000 0.000000
# 4 0.000000 0.000000 0.000000 0.026694 0.000000 0.000000
# 5 0.000000 0.000000 0.000000 0.000000 0.026694 0.000000
# 6 0.000000 0.000000 0.000000 0.000000 0.000000 0.036933
#
#
# Mechanical properties :
#
#
# Convention : Reuss Voigt Hill
#
# Bulk Modulus (GPa) = 64.96557 64.98229 64.97393
# Shear Modulus (GPa) = 29.16596 30.34329 29.75463
#
# Velocity S-wave (km/s) = 3.77002 3.84536 3.80788
# Velocity P-wave (km/s) = 7.11405 7.16818 7.14116
#
# Compressibility (1/GPa) = 0.01539277
#
# Stress axis : x y z
#
# Youngs Moduli (GPa) = 68.75384 68.75384 60.25028
#
# Poissons Ratio (x) = 0.26965 0.33815
# Poissons Ratio (y) = 0.26965 0.33815
# Poissons Ratio (z) = 0.38588 0.38588
#
# Static dielectric constant tensor:
#      x y z
#    x 3.701960 0.000000 0.000000 
#    y 0.000000 3.701960 0.000000 
#    z 0.000000 0.000000 3.691710 
# 
# 
# High freq. dielectric constant tensor:
#      x y z
#    x 1.801420 0.000000 0.000000 
#    y 0.000000 1.801420 0.000000 
#    z 0.000000 0.000000 1.799990 
# 
# From -- ./inp_files/1059.got.cif
#   From: 2010.03.12/outbox.cif.g09.slc.cpg/sg170_cif.got.tgz:1059.got - 2010.04.02 06:47:37.
