data_PCOD8324673
_publ_section_title
;
Structure prediction by ZEFSAII (Michael W. Deem and Ramdas Pophale) SiO2 
 PCOD8324673
Probable space group: P 65
;
_chemical_formula_sum "Si O2"
_cell_formula_units_Z 30
_cell_length_a 13.701799
_cell_length_b 13.701799
_cell_length_c 9.769706
_cell_angle_alpha 90.000000
_cell_angle_beta 90.000000
_cell_angle_gamma 120.000000
_cell_volume 1588.427184
_symmetry_space_group_name_H-M "P 65"
_symmetry_group_IT_number 170
_symmetry_cell_setting 'hexagonal'
loop_
_space_group_symop_operation_xyz
x,y,z
x-y,x,5/6+z
-y,x-y,2/3+z
-x,-y,1/2+z
-x+y,-x,1/3+z
y,-x+y,1/6+z
loop_
_atom_site_type_symbol
_atom_site_label
_atom_site_fract_x
_atom_site_fract_y
_atom_site_fract_z
Si Si1 0.371182 0.578116 0.277300
Si Si2 0.842868 0.406726 0.802054
Si Si3 0.812572 0.258726 0.560890
Si Si4 0.592757 0.949147 0.147828
Si Si5 0.782593 0.936291 0.272710
O O1 0.274881 0.608580 0.253030
O O2 0.478128 0.681174 0.352436
O O3 0.318708 0.465896 0.367286
O O4 0.399751 0.546988 0.130643
O O5 0.845213 0.307265 0.715393
O O6 0.946044 0.528140 0.762834
O O7 0.891291 0.362810 0.457777
O O8 0.845383 0.160907 0.540726
O O9 0.723852 0.982522 0.164804
O O10 0.841338 0.878469 0.192320
#
# Coordination Sequence:
#
# PCOD8324673 Si02
#       5
#     6   6   6   6   6
#     4  12  21  38  57  90 134 172 214 262 335 393
#     4  12  21  35  59  90 127 178 208 266 325 398
#     4  10  22  38  60  92 126 170 216 265 325 402
#     4  10  22  37  62  92 128 165 221 265 322 396
#     4  10  22  44  74  92 123 173 223 274 333 385
#
# _framework density 18.886607999999999
#
# number of rings (size 3 to 8) (size 9 to 14) (size 15 to 20)
#    1.200    0.000    4.000    3.600    2.800    0.000 
#    0.000    0.000    8.800    0.000    0.000    0.000 
#    0.000    0.000    0.000    0.000    0.000    0.000 
#
# Total GULP energy -371747.888393 kJ/mol
# GULP energy per Si atom -12391.596280 kJ/mol
# Density = 1.884362 g / cm^3
# Si number density = 18.886608 Si / 1000 Ang^3
#
#
#
# Elastic Constant Matrix: (Units=GPa)
#
#
# Indices 1 2 3 4 5 6 
#
# 1 88.9095 41.7700 43.4717 0.0000 0.0000 0.0000
# 2 41.7700 88.9095 43.4717 0.0000 0.0000 0.0000
# 3 43.4717 43.4717 104.3163 0.0000 0.0000 0.0000
# 4 0.0000 0.0000 0.0000 36.5920 0.0000 0.0000
# 5 0.0000 0.0000 0.0000 0.0000 36.5920 0.0000
# 6 0.0000 0.0000 0.0000 0.0000 0.0000 23.5698
#
#
#
# Elastic Compliance Matrix: (Units=1/GPa)
#
#
# Indices 1 2 3 4 5 6 
#
# 1 0.015901 -0.005313 -0.004412 0.000000 0.000000 0.000000
# 2 -0.005313 0.015901 -0.004412 0.000000 0.000000 0.000000
# 3 -0.004412 -0.004412 0.013264 0.000000 0.000000 0.000000
# 4 0.000000 0.000000 0.000000 0.027328 0.000000 0.000000
# 5 0.000000 0.000000 0.000000 0.000000 0.027328 0.000000
# 6 0.000000 0.000000 0.000000 0.000000 0.000000 0.042427
#
#
# Mechanical properties :
#
#
# Convention : Reuss Voigt Hill
#
# Bulk Modulus (GPa) = 59.55813 59.95133 59.75473
# Shear Modulus (GPa) = 28.40576 29.57891 28.99233
#
# Velocity S-wave (km/s) = 3.88237 3.96173 3.92225
# Velocity P-wave (km/s) = 7.19028 7.26215 7.22630
#
# Compressibility (1/GPa) = 0.01679032
#
# Stress axis : x y z
#
# Youngs Moduli (GPa) = 62.89016 62.89016 75.39391
#
# Poissons Ratio (x) = 0.33413 0.33266
# Poissons Ratio (y) = 0.33413 0.33266
# Poissons Ratio (z) = 0.27749 0.27749
#
# Static dielectric constant tensor:
#      x y z
#    x 3.280000 0.000000 0.000000 
#    y 0.000000 3.280000 0.000000 
#    z 0.000000 0.000000 3.359880 
# 
# 
# High freq. dielectric constant tensor:
#      x y z
#    x 1.722070 0.000000 0.000000 
#    y 0.000000 1.722070 0.000000 
#    z 0.000000 0.000000 1.728570 
# 
# From -- ./inp_files/527.got.cif
#   From: 2010.03.12/outbox.cif.g09.slc.cpg/sg170_cif.got.tgz:527.got - 2010.04.02 06:47:37.
