data_PCOD8324110
_publ_section_title
;
Structure prediction by ZEFSAII (Michael W. Deem and Ramdas Pophale) SiO2 
 PCOD8324110
Probable space group: R -3 M
;
_chemical_formula_sum "Si O2"
_cell_formula_units_Z 216
_cell_length_a 23.505210
_cell_length_b 23.505210
_cell_length_c 24.560141
_cell_angle_alpha 90.000000
_cell_angle_beta 90.000000
_cell_angle_gamma 120.000000
_cell_volume 11751.404043
_symmetry_space_group_name_H-M "R -3 M"
_symmetry_group_IT_number 166
_symmetry_cell_setting 'hexagonal'
loop_
_space_group_symop_operation_xyz
x,y,z
-y,x-y,z
-x+y,-x,z
x-y,-y,-z
-x,-x+y,-z
y,x,-z
-x,-y,-z
y,-x+y,-z
x-y,x,-z
-x+y,y,z
x,x-y,z
-y,-x,z
2/3+x,1/3+y,1/3+z
2/3-y,1/3+x-y,1/3+z
2/3-x+y,1/3-x,1/3+z
2/3+x-y,1/3-y,1/3-z
2/3-x,1/3-x+y,1/3-z
2/3+y,1/3+x,1/3-z
2/3-x,1/3-y,1/3-z
2/3+y,1/3-x+y,1/3-z
2/3+x-y,1/3+x,1/3-z
2/3-x+y,1/3+y,1/3+z
2/3+x,1/3+x-y,1/3+z
2/3-y,1/3-x,1/3+z
1/3+x,2/3+y,2/3+z
1/3-y,2/3+x-y,2/3+z
1/3-x+y,2/3-x,2/3+z
1/3+x-y,2/3-y,2/3-z
1/3-x,2/3-x+y,2/3-z
1/3+y,2/3+x,2/3-z
1/3-x,2/3-y,2/3-z
1/3+y,2/3-x+y,2/3-z
1/3+x-y,2/3+x,2/3-z
1/3-x+y,2/3+y,2/3+z
1/3+x,2/3+x-y,2/3+z
1/3-y,2/3-x,2/3+z
loop_
_atom_site_type_symbol
_atom_site_label
_atom_site_fract_x
_atom_site_fract_y
_atom_site_fract_z
Si Si1 0.240356 0.357425 0.203012
Si Si2 0.545810 0.836236 0.433441
Si Si3 0.768553 0.021264 0.060500
Si Si4 0.287938 0.914616 0.087366
Si Si5 0.000629 0.131294 0.870654
Si Si6 0.199534 0.926350 0.698742
O O1 0.188856 0.377711 0.226271
O O2 0.207007 0.279093 0.198532
O O3 0.259992 0.387529 0.142208
O O4 0.300018 0.384618 0.245264
O O5 0.538786 0.769393 0.407244
O O6 0.486449 0.817809 0.475076
O O7 0.548000 0.884181 0.386092
O O8 0.830325 0.026105 0.092016
O O9 0.766379 0.088760 0.059566
O O10 0.702589 0.968939 0.089795
O O11 0.773683 0.000000 0.000000
O O12 0.261674 0.872037 0.033198
O O13 0.053677 0.107353 0.874685
O O14 0.929025 0.070976 0.889014
O O15 0.125103 0.874898 0.714309
#
# Coordination Sequence:
#
# PCOD8324110 Si02
#       6
#    36  36  36  36  36  36
#     4  10  19  34  56  81 109 144 180 219 271 329
#     4  10  21  36  56  80 108 143 180 225 276 326
#     4  10  21  36  54  79 110 141 182 228 279 327
#     4  10  20  35  55  80 115 146 180 219 271 333
#     4  11  23  39  57  77 105 145 192 238 280 325
#     4  11  22  36  55  82 112 146 184 226 273 329
#
# _framework density 18.380782
#
# number of rings (size 3 to 8) (size 9 to 14) (size 15 to 20)
#    0.000    1.667    3.333    1.667    0.000    4.667 
#    0.000    3.333    0.000    1.333    0.000    0.000 
#    0.000    0.000    0.000    8.500    0.000    0.000 
#
# Total GULP energy -892585.176380 kJ/mol
# GULP energy per Si atom -12397.016339 kJ/mol
# Density = 1.833895 g / cm^3
# Si number density = 18.380782 Si / 1000 Ang^3
#
#
#
# Elastic Constant Matrix: (Units=GPa)
#
#
# Indices 1 2 3 4 5 6 
#
# 1 98.8795 43.5574 26.2855 0.1427 0.0000 0.0000
# 2 43.5574 98.8795 26.2855 -0.1427 0.0000 0.0000
# 3 26.2855 26.2855 52.3596 0.0000 0.0000 0.0000
# 4 0.1427 -0.1427 0.0000 16.1232 0.0000 0.0000
# 5 0.0000 0.0000 0.0000 0.0000 16.1232 0.1427
# 6 0.0000 0.0000 0.0000 0.0000 0.1427 27.6610
#
#
#
# Elastic Compliance Matrix: (Units=1/GPa)
#
#
# Indices 1 2 3 4 5 6 
#
# 1 0.013347 -0.004730 -0.004326 -0.000160 0.000000 0.000000
# 2 -0.004730 0.013347 -0.004326 0.000160 0.000000 0.000000
# 3 -0.004326 -0.004326 0.023442 0.000000 0.000000 0.000000
# 4 -0.000160 0.000160 0.000000 0.062025 0.000000 0.000000
# 5 0.000000 0.000000 0.000000 0.000000 0.062025 -0.000320
# 6 0.000000 0.000000 0.000000 0.000000 -0.000320 0.036154
#
#
# Mechanical properties :
#
#
# Convention : Reuss Voigt Hill
#
# Bulk Modulus (GPa) = 42.78509 49.15284 45.96896
# Shear Modulus (GPa) = 20.41691 22.24749 21.33220
#
# Velocity S-wave (km/s) = 3.33644 3.48281 3.41041
# Velocity P-wave (km/s) = 6.17819 6.55536 6.36957
#
# Compressibility (1/GPa) = 0.02337263
#
# Stress axis : x y z
#
# Youngs Moduli (GPa) = 74.92284 74.92284 42.65803
#
# Poissons Ratio (x) = 0.35436 0.18454
# Poissons Ratio (y) = 0.35436 0.18454
# Poissons Ratio (z) = 0.32412 0.32412
#
# Static dielectric constant tensor:
#      x y z
#    x 3.400080 0.000000 0.000000 
#    y 0.000000 3.400080 0.000000 
#    z 0.000000 0.000000 3.160740 
# 
# 
# High freq. dielectric constant tensor:
#      x y z
#    x 1.710010 0.000000 0.000000 
#    y 0.000000 1.710010 0.000000 
#    z 0.000000 0.000000 1.702440 
# 
# From -- ./inp_files/8428.got.cif
#   From: 2010.03.12/outbox.cif.g09.slc.cpg/sg166_5_cif.got.tgz:8428.got - 2010.04.02 06:38:31.
