data_PCOD8324171
_publ_section_title
;
Structure prediction by ZEFSAII (Michael W. Deem and Ramdas Pophale) SiO2 
 PCOD8324171
Probable space group: R -3 M
;
_chemical_formula_sum "Si O2"
_cell_formula_units_Z 108
_cell_length_a 28.615439
_cell_length_b 28.615439
_cell_length_c 7.655385
_cell_angle_alpha 90.000000
_cell_angle_beta 90.000000
_cell_angle_gamma 120.000000
_cell_volume 5428.733151
_symmetry_space_group_name_H-M "R -3 M"
_symmetry_group_IT_number 166
_symmetry_cell_setting 'hexagonal'
loop_
_space_group_symop_operation_xyz
x,y,z
-y,x-y,z
-x+y,-x,z
x-y,-y,-z
-x,-x+y,-z
y,x,-z
-x,-y,-z
y,-x+y,-z
x-y,x,-z
-x+y,y,z
x,x-y,z
-y,-x,z
2/3+x,1/3+y,1/3+z
2/3-y,1/3+x-y,1/3+z
2/3-x+y,1/3-x,1/3+z
2/3+x-y,1/3-y,1/3-z
2/3-x,1/3-x+y,1/3-z
2/3+y,1/3+x,1/3-z
2/3-x,1/3-y,1/3-z
2/3+y,1/3-x+y,1/3-z
2/3+x-y,1/3+x,1/3-z
2/3-x+y,1/3+y,1/3+z
2/3+x,1/3+x-y,1/3+z
2/3-y,1/3-x,1/3+z
1/3+x,2/3+y,2/3+z
1/3-y,2/3+x-y,2/3+z
1/3-x+y,2/3-x,2/3+z
1/3+x-y,2/3-y,2/3-z
1/3-x,2/3-x+y,2/3-z
1/3+y,2/3+x,2/3-z
1/3-x,2/3-y,2/3-z
1/3+y,2/3-x+y,2/3-z
1/3+x-y,2/3+x,2/3-z
1/3-x+y,2/3+y,2/3+z
1/3+x,2/3+x-y,2/3+z
1/3-y,2/3-x,2/3+z
loop_
_atom_site_type_symbol
_atom_site_label
_atom_site_fract_x
_atom_site_fract_y
_atom_site_fract_z
Si Si1 0.631309 0.666667 0.666667
Si Si2 0.133520 0.761479 0.494320
Si Si3 0.839750 0.472432 0.162547
Si Si4 0.666667 0.224215 0.833334
O O1 0.660719 0.660719 0.500000
O O2 0.629639 0.722311 0.643741
O O3 0.179015 0.820986 0.568452
O O4 0.101521 0.768188 0.333334
O O5 0.164080 0.731174 0.423018
O O6 0.820720 0.410360 0.209272
O O7 0.834826 0.501493 0.333334
O O8 0.804437 0.476635 0.006721
O O9 0.615362 0.230723 0.849927
#
# Coordination Sequence:
#
# PCOD8324171 Si02
#       4
#    18  36  36  18
#     4  12  24  40  65  94 122 160 203 252 302 366
#     4  10  22  42  63  90 126 159 201 255 308 365
#     4  10  20  36  59  85 117 157 200 245 295 357
#     4  10  21  36  58  88 122 158 196 242 295 352
#
# _framework density 19.894145000000002
#
# number of rings (size 3 to 8) (size 9 to 14) (size 15 to 20)
#    0.000    1.667    3.333    1.167    0.000    3.333 
#    0.000    0.000    0.000    5.333    0.000    0.000 
#    0.000    0.000    0.000    0.000    0.000    0.000 
#
# Total GULP energy -446228.735178 kJ/mol
# GULP energy per Si atom -12395.242644 kJ/mol
# Density = 1.984886 g / cm^3
# Si number density = 19.894145 Si / 1000 Ang^3
#
#
#
# Elastic Constant Matrix: (Units=GPa)
#
#
# Indices 1 2 3 4 5 6 
#
# 1 94.1068 44.3783 54.6009 -2.2633 0.0288 0.0695
# 2 44.3783 94.1411 54.8735 2.2692 0.0390 0.0267
# 3 54.6009 54.8735 126.1232 -0.0536 -0.0852 -0.0151
# 4 -2.2633 2.2692 -0.0536 33.7621 -0.0324 -0.0566
# 5 0.0288 0.0390 -0.0852 -0.0324 33.7955 -2.2461
# 6 0.0695 0.0267 -0.0151 -0.0566 -2.2461 24.7402
#
#
#
# Elastic Compliance Matrix: (Units=1/GPa)
#
#
# Indices 1 2 3 4 5 6 
#
# 1 0.015585 -0.004618 -0.004737 0.001348 -0.000021 -0.000041
# 2 -0.004618 0.015631 -0.004802 -0.001368 -0.000028 -0.000013
# 3 -0.004737 -0.004802 0.012069 0.000024 0.000042 0.000030
# 4 0.001348 -0.001368 0.000024 0.029801 0.000034 0.000069
# 5 -0.000021 -0.000028 0.000042 0.000034 0.029770 0.002703
# 6 -0.000041 -0.000013 0.000030 0.000069 0.002703 0.040666
#
#
# Mechanical properties :
#
#
# Convention : Reuss Voigt Hill
#
# Bulk Modulus (GPa) = 66.79870 69.11961 67.95915
# Shear Modulus (GPa) = 28.27615 29.16079 28.71847
#
# Velocity S-wave (km/s) = 3.77414 3.83273 3.80355
# Velocity P-wave (km/s) = 7.25549 7.37601 7.31600
#
# Compressibility (1/GPa) = 0.01497035
#
# Stress axis : x y z
#
# Youngs Moduli (GPa) = 64.16444 63.97357 82.85677
#
# Poissons Ratio (x) = 0.29543 0.39251
# Poissons Ratio (y) = 0.29631 0.39790
# Poissons Ratio (z) = 0.30396 0.30722
#
# Static dielectric constant tensor:
#      x y z
#    x 3.791380 -0.000190 -0.000430 
#    y -0.000190 3.791530 -0.000160 
#    z -0.000430 -0.000160 3.519420 
# 
# 
# High freq. dielectric constant tensor:
#      x y z
#    x 1.785790 0.000000 -0.000060 
#    y 0.000000 1.785810 -0.000010 
#    z -0.000060 -0.000010 1.755770 
# 
# From -- ./inp_files/1527.got.cif
#   From: 2010.03.12/outbox.cif.g09.slc.cpg/sg166_1_cif.got.tgz:1527.got - 2010.04.02 06:38:31.
