data_PCOD8324870
_publ_section_title
;
Structure prediction by ZEFSAII (Michael W. Deem and Ramdas Pophale) SiO2 
 PCOD8324870
Probable space group: P 63
;
_chemical_formula_sum "Si O2"
_cell_formula_units_Z 24
_cell_length_a 8.505656
_cell_length_b 8.505656
_cell_length_c 18.712985
_cell_angle_alpha 90.000000
_cell_angle_beta 90.000000
_cell_angle_gamma 120.000000
_cell_volume 1172.436498
_symmetry_space_group_name_H-M "P 63"
_symmetry_group_IT_number 173
_symmetry_cell_setting 'hexagonal'
loop_
_space_group_symop_operation_xyz
x,y,z
x-y,x,1/2+z
-y,x-y,z
-x,-y,1/2+z
-x+y,-x,z
y,-x+y,1/2+z
loop_
_atom_site_type_symbol
_atom_site_label
_atom_site_fract_x
_atom_site_fract_y
_atom_site_fract_z
Si Si1 0.681895 0.542548 0.127300
Si Si2 0.021907 0.809070 0.493856
Si Si3 0.990591 0.329416 0.282832
Si Si4 0.674372 0.664341 0.840726
O O1 0.495218 0.347092 0.125082
O O2 0.679165 0.645280 0.198067
O O3 0.697764 0.669787 0.061662
O O4 0.832126 0.812558 0.493958
O O5 0.037486 0.704818 0.425397
O O6 0.065945 0.529227 0.315479
O O7 0.799265 0.197724 0.320037
O O8 0.136107 0.267726 0.299946
#
# Coordination Sequence:
#
# PCOD8324870 Si02
#       4
#     6   6   6   6
#     4  10  23  41  63  97 134 177 221 277 348 404
#     4  10  23  41  63 101 131 179 225 272 353 407
#     4  12  24  44  68  99 137 184 232 286 340 412
#     4  12  24  44  68  99 138 180 236 287 337 415
#
# _framework density 20.470189999999999
#
# number of rings (size 3 to 8) (size 9 to 14) (size 15 to 20)
#    1.000    0.000    5.000    1.500    7.000    0.000 
#    0.000    0.000    0.000    1.000    0.000    0.000 
#    0.000    0.000    0.000    0.000    0.000    0.000 
#
# Total GULP energy -297611.212230 kJ/mol
# GULP energy per Si atom -12400.467176 kJ/mol
# Density = 2.042360 g / cm^3
# Si number density = 20.470190 Si / 1000 Ang^3
#
#
#
# Elastic Constant Matrix: (Units=GPa)
#
#
# Indices 1 2 3 4 5 6 
#
# 1 60.7017 16.1102 48.5737 0.0000 0.0000 0.0000
# 2 16.1102 60.7017 48.5737 0.0000 0.0000 0.0000
# 3 48.5737 48.5737 217.4574 0.0000 0.0000 0.0000
# 4 0.0000 0.0000 0.0000 30.1474 0.0000 0.0000
# 5 0.0000 0.0000 0.0000 0.0000 30.1474 0.0000
# 6 0.0000 0.0000 0.0000 0.0000 0.0000 22.2958
#
#
#
# Elastic Compliance Matrix: (Units=1/GPa)
#
#
# Indices 1 2 3 4 5 6 
#
# 1 0.020285 -0.002140 -0.004053 0.000000 0.000000 0.000000
# 2 -0.002140 0.020285 -0.004053 0.000000 0.000000 0.000000
# 3 -0.004053 -0.004053 0.006409 0.000000 0.000000 0.000000
# 4 0.000000 0.000000 0.000000 0.033170 0.000000 0.000000
# 5 0.000000 0.000000 0.000000 0.000000 0.033170 0.000000
# 6 0.000000 0.000000 0.000000 0.000000 0.000000 0.044852
#
#
# Mechanical properties :
#
#
# Convention : Reuss Voigt Hill
#
# Bulk Modulus (GPa) = 37.75458 62.81957 50.28707
# Shear Modulus (GPa) = 26.66748 31.55831 29.11289
#
# Velocity S-wave (km/s) = 3.61327 3.93067 3.77531
# Velocity P-wave (km/s) = 5.99094 7.16625 6.60479
#
# Compressibility (1/GPa) = 0.02648685
#
# Stress axis : x y z
#
# Youngs Moduli (GPa) = 49.29672 49.29672 156.02402
#
# Poissons Ratio (x) = 0.10552 0.63237
# Poissons Ratio (y) = 0.10552 0.63237
# Poissons Ratio (z) = 0.19980 0.19980
#
# Static dielectric constant tensor:
#      x y z
#    x 3.501690 0.000000 0.000000 
#    y 0.000000 3.501690 0.000000 
#    z 0.000000 0.000000 3.604700 
# 
# 
# High freq. dielectric constant tensor:
#      x y z
#    x 1.789190 0.000000 0.000000 
#    y 0.000000 1.789190 0.000000 
#    z 0.000000 0.000000 1.810640 
# 
# From -- ./inp_files/1334.got.cif
#   From: 2010.03.12/outbox.cif.g09.slc.cpg/sg173_cif.got.tgz:1334.got - 2010.04.02 06:54:12.
