data_PCOD8324968
_publ_section_title
;
Structure prediction by ZEFSAII (Michael W. Deem and Ramdas Pophale) SiO2 
 PCOD8324968
Probable space group: P -6
;
_chemical_formula_sum "Si O2"
_cell_formula_units_Z 42
_cell_length_a 8.637873
_cell_length_b 8.637873
_cell_length_c 30.150251
_cell_angle_alpha 90.000000
_cell_angle_beta 90.000000
_cell_angle_gamma 120.000000
_cell_volume 1948.207418
_symmetry_space_group_name_H-M "P -6"
_symmetry_group_IT_number 174
_symmetry_cell_setting 'hexagonal'
loop_
_space_group_symop_operation_xyz
x,y,z
-x+y,-x,-z
-y,x-y,z
x,y,-z
-x+y,-x,z
-y,x-y,-z
loop_
_atom_site_type_symbol
_atom_site_label
_atom_site_fract_x
_atom_site_fract_y
_atom_site_fract_z
Si Si1 0.324241 0.336644 0.086354
Si Si2 0.324012 0.336542 0.724038
Si Si3 0.988046 0.330802 0.413760
Si Si4 0.340220 0.011741 0.689337
Si Si5 0.308559 0.456548 0.818868
Si Si6 0.665323 0.986442 0.448525
Si Si7 0.340033 0.011564 0.948411
O O1 0.292143 0.338731 0.138664
O O2 0.474051 0.531231 0.070121
O O3 0.383756 0.191769 0.077066
O O4 0.142685 0.279849 0.059660
O O5 0.142424 0.279470 0.697274
O O6 0.473908 0.531064 0.707757
O O7 0.291809 0.339044 0.776319
O O8 0.383518 0.191526 0.714983
O O9 0.942024 0.317337 0.362186
O O10 0.192935 0.383552 0.420640
O O11 0.864052 0.142048 0.437299
O O12 0.948648 0.475936 0.435746
O O13 0.497597 0.644790 0.818904
O O14 0.650490 0.937940 0.500000
O O15 0.375295 0.056189 0.000000
#
# Coordination Sequence:
#
# PCOD8324968 Si02
#       7
#     6   6   6   6   6   6   6
#     4  12  25  43  72  98 140 180 230 282 334 406
#     4  12  25  43  72  98 140 175 222 276 333 408
#     4  12  25  43  67  95 136 172 225 280 331 404
#     4  12  24  44  66 103 132 180 220 273 341 398
#     4  10  20  46  72 100 133 177 226 272 344 397
#     4  12  25  44  67  96 130 178 225 278 338 396
#     4  12  24  43  66 102 139 184 228 281 339 397
#
# _framework density 21.558278999999999
#
# number of rings (size 3 to 8) (size 9 to 14) (size 15 to 20)
#    0.286    0.000    2.857    7.714    0.000    2.286 
#    0.000    0.000    0.000    0.000    0.000    0.000 
#    0.000    0.000    0.000    0.000    0.000    0.000 
#
# Total GULP energy -521235.984103 kJ/mol
# GULP energy per Si atom -12410.380574 kJ/mol
# Density = 2.150921 g / cm^3
# Si number density = 21.558279 Si / 1000 Ang^3
#
#
#
# Elastic Constant Matrix: (Units=GPa)
#
#
# Indices 1 2 3 4 5 6 
#
# 1 85.8711 10.4248 24.9383 0.0000 0.0000 0.0000
# 2 10.4248 85.8711 24.9383 0.0000 0.0000 0.0000
# 3 24.9383 24.9383 119.3630 0.0000 0.0000 0.0000
# 4 0.0000 0.0000 0.0000 32.8337 0.0000 0.0000
# 5 0.0000 0.0000 0.0000 0.0000 32.8337 0.0000
# 6 0.0000 0.0000 0.0000 0.0000 0.0000 37.7231
#
#
#
# Elastic Compliance Matrix: (Units=1/GPa)
#
#
# Indices 1 2 3 4 5 6 
#
# 1 0.012450 -0.000805 -0.002433 0.000000 0.000000 0.000000
# 2 -0.000805 0.012450 -0.002433 0.000000 0.000000 0.000000
# 3 -0.002433 -0.002433 0.009394 0.000000 0.000000 0.000000
# 4 0.000000 0.000000 0.000000 0.030457 0.000000 0.000000
# 5 0.000000 0.000000 0.000000 0.000000 0.030457 0.000000
# 6 0.000000 0.000000 0.000000 0.000000 0.000000 0.026509
#
#
# Mechanical properties :
#
#
# Convention : Reuss Voigt Hill
#
# Bulk Modulus (GPa) = 43.56860 45.74532 44.65696
# Shear Modulus (GPa) = 35.53462 36.06501 35.79982
#
# Velocity S-wave (km/s) = 4.06434 4.09456 4.07947
# Velocity P-wave (km/s) = 6.50220 6.60449 6.55355
#
# Compressibility (1/GPa) = 0.02295231
#
# Stress axis : x y z
#
# Youngs Moduli (GPa) = 80.32368 80.32368 106.44617
#
# Poissons Ratio (x) = 0.06465 0.25898
# Poissons Ratio (y) = 0.06465 0.25898
# Poissons Ratio (z) = 0.19542 0.19542
#
# Static dielectric constant tensor:
#      x y z
#    x 3.749200 0.000000 0.000000 
#    y 0.000000 3.749200 0.000000 
#    z 0.000000 0.000000 3.875930 
# 
# 
# High freq. dielectric constant tensor:
#      x y z
#    x 1.847840 0.000000 0.000000 
#    y 0.000000 1.847840 0.000000 
#    z 0.000000 0.000000 1.860550 
# 
# From -- ./inp_files/1099.got.cif
#   From: 2010.03.12/outbox.cif.g09.slc.cpg/sg174_cif.got.tgz:1099.got - 2010.04.02 06:54:58.
