data_PCOD8324357
_publ_section_title
;
Structure prediction by ZEFSAII (Michael W. Deem and Ramdas Pophale) SiO2 
 PCOD8324357
Probable space group: R -3 C 
;
_chemical_formula_sum "Si O2"
_cell_formula_units_Z 90
_cell_length_a 24.278478
_cell_length_b 24.278478
_cell_length_c 8.338952
_cell_angle_alpha 90.000000
_cell_angle_beta 90.000000
_cell_angle_gamma 120.000000
_cell_volume 4256.817399
_symmetry_space_group_name_H-M "R -3 C "
_symmetry_group_IT_number 167
_symmetry_cell_setting 'hexagonal'
loop_
_space_group_symop_operation_xyz
x,y,z
-y,x-y,z
-x+y,-x,z
x-y,-y,1/2-z
-x,-x+y,1/2-z
y,x,1/2-z
-x,-y,-z
y,-x+y,-z
x-y,x,-z
-x+y,y,1/2+z
x,x-y,1/2+z
-y,-x,1/2+z
2/3+x,1/3+y,1/3+z
2/3-y,1/3+x-y,1/3+z
2/3-x+y,1/3-x,1/3+z
2/3+x-y,1/3-y,5/6-z
2/3-x,1/3-x+y,5/6-z
2/3+y,1/3+x,5/6-z
2/3-x,1/3-y,1/3-z
2/3+y,1/3-x+y,1/3-z
2/3+x-y,1/3+x,1/3-z
2/3-x+y,1/3+y,5/6+z
2/3+x,1/3+x-y,5/6+z
2/3-y,1/3-x,5/6+z
1/3+x,2/3+y,2/3+z
1/3-y,2/3+x-y,2/3+z
1/3-x+y,2/3-x,2/3+z
1/3+x-y,2/3-y,1/6-z
1/3-x,2/3-x+y,1/6-z
1/3+y,2/3+x,1/6-z
1/3-x,2/3-y,2/3-z
1/3+y,2/3-x+y,2/3-z
1/3+x-y,2/3+x,2/3-z
1/3-x+y,2/3+y,1/6+z
1/3+x,2/3+x-y,1/6+z
1/3-y,2/3-x,1/6+z
loop_
_atom_site_type_symbol
_atom_site_label
_atom_site_fract_x
_atom_site_fract_y
_atom_site_fract_z
Si Si1 0.744514 0.294412 0.734607
Si Si2 0.666667 0.849722 0.083334
Si Si3 0.402807 0.482629 0.470045
O O1 0.740373 0.333334 0.583334
O O2 0.675221 0.236503 0.778968
O O3 0.789789 0.266233 0.697830
O O4 0.638931 0.875515 0.221627
O O5 0.721999 0.838085 0.151058
O O6 0.333334 0.426314 0.416667
#
# Coordination Sequence:
#
# PCOD8324357 Si02
#       3
#    36  18  36
#     4  11  22  37  61  93 128 164 200 241 297 374
#     4  10  22  42  64  88 126 156 214 268 306 378
#     4  10  21  41  64  91 121 166 205 257 320 361
#
# _framework density 21.142557
#
# number of rings (size 3 to 8) (size 9 to 14) (size 15 to 20)
#    0.000    1.600    0.000    6.400    0.000    0.000 
#    3.600   14.000    0.000    0.000    0.000    0.000 
#    0.000    0.000    0.000    0.000    0.000    0.000 
#
# Total GULP energy -372056.583761 kJ/mol
# GULP energy per Si atom -12401.886125 kJ/mol
# Density = 2.109444 g / cm^3
# Si number density = 21.142557 Si / 1000 Ang^3
#
#
#
# Elastic Constant Matrix: (Units=GPa)
#
#
# Indices 1 2 3 4 5 6 
#
# 1 118.4590 52.1094 42.1725 10.7932 0.0142 -0.0050
# 2 52.1094 118.4449 42.1180 -10.8312 -0.0135 -0.0013
# 3 42.1725 42.1180 107.1932 0.0125 0.0314 0.0050
# 4 10.7932 -10.8312 0.0125 38.3336 -0.0053 0.0069
# 5 0.0142 -0.0135 0.0314 -0.0053 38.3296 10.8314
# 6 -0.0050 -0.0013 0.0050 0.0069 10.8314 33.1709
#
#
#
# Elastic Compliance Matrix: (Units=1/GPa)
#
#
# Indices 1 2 3 4 5 6 
#
# 1 0.011938 -0.004661 -0.002865 -0.004677 -0.000006 0.000005
# 2 -0.004661 0.011938 -0.002857 0.004686 0.000010 -0.000004
# 3 -0.002865 -0.002857 0.011579 -0.000005 -0.000010 0.000001
# 4 -0.004677 0.004686 -0.000005 0.028728 0.000010 -0.000010
# 5 -0.000006 0.000010 -0.000010 0.000010 0.028742 -0.009385
# 6 0.000005 -0.000004 0.000001 -0.000010 -0.009385 0.033212
#
#
# Mechanical properties :
#
#
# Convention : Reuss Voigt Hill
#
# Bulk Modulus (GPa) = 68.08148 68.54410 68.31279
# Shear Modulus (GPa) = 32.93833 35.81330 34.37582
#
# Velocity S-wave (km/s) = 3.95133 4.12016 4.03663
# Velocity P-wave (km/s) = 7.28618 7.42460 7.35571
#
# Compressibility (1/GPa) = 0.01468828
#
# Stress axis : x y z
#
# Youngs Moduli (GPa) = 83.76437 83.76581 86.36517
#
# Poissons Ratio (x) = 0.39045 0.24742
# Poissons Ratio (y) = 0.39044 0.24678
# Poissons Ratio (z) = 0.23997 0.23935
#
# Static dielectric constant tensor:
#      x y z
#    x 3.704430 -0.000030 -0.000290 
#    y -0.000030 3.704580 -0.000060 
#    z -0.000290 -0.000060 4.208860 
# 
# 
# High freq. dielectric constant tensor:
#      x y z
#    x 1.821140 0.000000 -0.000020 
#    y 0.000000 1.821150 0.000000 
#    z -0.000020 0.000000 1.850100 
# 
# From -- ./inp_files/495.got.cif
#   From: 2010.03.12/outbox.cif.g09.slc.cpg/sg167_1_cif.got.tgz:495.got - 2010.04.02 06:42:56.
