data_PCOD8324789
_publ_section_title
;
Structure prediction by ZEFSAII (Michael W. Deem and Ramdas Pophale) SiO2 
 PCOD8324789
Probable space group: P 62
;
_chemical_formula_sum "Si O2"
_cell_formula_units_Z 39
_cell_length_a 12.690986
_cell_length_b 12.690986
_cell_length_c 13.068762
_cell_angle_alpha 90.000000
_cell_angle_beta 90.000000
_cell_angle_gamma 120.000000
_cell_volume 1822.870475
_symmetry_space_group_name_H-M "P 62"
_symmetry_group_IT_number 171
_symmetry_cell_setting 'hexagonal'
loop_
_space_group_symop_operation_xyz
x,y,z
x-y,x,1/3+z
-y,x-y,2/3+z
-x,-y,z
-x+y,-x,1/3+z
y,-x+y,2/3+z
loop_
_atom_site_type_symbol
_atom_site_label
_atom_site_fract_x
_atom_site_fract_y
_atom_site_fract_z
Si Si1 0.879687 0.071701 0.647610
Si Si2 0.354623 0.998283 0.967193
Si Si3 0.500000 0.000000 0.444638
Si Si4 0.000000 0.000000 0.817843
Si Si5 0.917825 0.318864 0.289035
Si Si6 0.500000 0.500000 0.121031
Si Si7 0.418815 0.607345 0.394279
Si Si8 0.433219 0.649267 0.625582
O O1 0.955058 0.214634 0.620988
O O2 0.938940 0.060777 0.751816
O O3 0.735057 0.008168 0.662660
O O4 0.895256 0.996876 0.555478
O O5 0.379780 0.953267 0.857892
O O6 0.476755 0.112405 0.008899
O O7 0.314285 0.880792 0.041005
O O8 0.587323 0.973816 0.515693
O O9 0.421788 0.888438 0.372599
O O10 0.777261 0.220188 0.272112
O O11 0.901947 0.401335 0.376194
O O12 0.392324 0.585707 0.515090
O O13 0.345577 0.665798 0.342036
#
# Coordination Sequence:
#
# PCOD8324789 Si02
#       8
#     6   6   3   3   6   3   6   6
#     4  11  25  46  70  98 138 183 238 292 347 420
#     4  10  24  43  72  99 139 185 236 287 355 428
#     4  11  26  43  70 106 140 181 234 279 368 418
#     4  10  26  46  66 102 128 182 240 286 348 402
#     4  11  26  41  70 103 140 191 229 296 357 425
#     4   9  22  41  62 104 128 179 236 275 358 416
#     4  10  25  43  68 106 137 188 227 288 362 421
#     4  12  25  46  69 105 147 178 232 297 351 445
#
# _framework density 21.394825999999998
#
# number of rings (size 3 to 8) (size 9 to 14) (size 15 to 20)
#    0.000    1.538    1.538    1.846   15.077    1.231 
#    2.769    0.000    0.000    0.000    0.000    0.000 
#    0.000    0.000    0.000    0.000    0.000    0.000 
#
# Total GULP energy -483274.297824 kJ/mol
# GULP energy per Si atom -12391.648662 kJ/mol
# Density = 2.134613 g / cm^3
# Si number density = 21.394826 Si / 1000 Ang^3
#
#
#
# Elastic Constant Matrix: (Units=GPa)
#
#
# Indices 1 2 3 4 5 6 
#
# 1 71.3441 58.8883 41.4081 0.0000 0.0000 0.0000
# 2 58.8883 71.3441 41.4081 0.0000 0.0000 0.0000
# 3 41.4081 41.4081 161.6936 0.0000 0.0000 0.0000
# 4 0.0000 0.0000 0.0000 26.3803 0.0000 0.0000
# 5 0.0000 0.0000 0.0000 0.0000 26.3803 0.0000
# 6 0.0000 0.0000 0.0000 0.0000 0.0000 6.2279
#
#
#
# Elastic Compliance Matrix: (Units=1/GPa)
#
#
# Indices 1 2 3 4 5 6 
#
# 1 0.044728 -0.035556 -0.002349 0.000000 0.000000 0.000000
# 2 -0.035556 0.044728 -0.002349 0.000000 0.000000 0.000000
# 3 -0.002349 -0.002349 0.007388 0.000000 0.000000 0.000000
# 4 0.000000 0.000000 0.000000 0.037907 0.000000 0.000000
# 5 0.000000 0.000000 0.000000 0.000000 0.037907 0.000000
# 6 0.000000 0.000000 0.000000 0.000000 0.000000 0.160568
#
#
# Mechanical properties :
#
#
# Convention : Reuss Voigt Hill
#
# Bulk Modulus (GPa) = 61.21271 65.31007 63.26139
# Shear Modulus (GPa) = 11.92810 22.64286 17.28548
#
# Velocity S-wave (km/s) = 2.36375 3.25673 2.84549
# Velocity P-wave (km/s) = 6.01023 6.68836 6.35834
#
# Compressibility (1/GPa) = 0.01633648
#
# Stress axis : x y z
#
# Youngs Moduli (GPa) = 22.35733 22.35733 135.36171
#
# Poissons Ratio (x) = 0.79493 0.31796
# Poissons Ratio (y) = 0.79493 0.31796
# Poissons Ratio (z) = 0.05252 0.05252
#
# Static dielectric constant tensor:
#      x y z
#    x 3.786550 0.000000 0.000000 
#    y 0.000000 3.786550 0.000000 
#    z 0.000000 0.000000 4.158910 
# 
# 
# High freq. dielectric constant tensor:
#      x y z
#    x 1.831500 0.000000 0.000000 
#    y 0.000000 1.831500 0.000000 
#    z 0.000000 0.000000 1.863290 
# 
# From -- ./inp_files/2049.got.cif
#   From: 2010.03.12/outbox.cif.g09.slc.cpg/sg171_2_cif.got.tgz:2049.got - 2010.04.02 06:49:11.
