data_PCOD8324565
_publ_section_title
;
Structure prediction by ZEFSAII (Michael W. Deem and Ramdas Pophale) SiO2 
 PCOD8324565
Probable space group: P 61
;
_chemical_formula_sum "Si O2"
_cell_formula_units_Z 48
_cell_length_a 17.181047
_cell_length_b 17.181047
_cell_length_c 8.745512
_cell_angle_alpha 90.000000
_cell_angle_beta 90.000000
_cell_angle_gamma 120.000000
_cell_volume 2235.708219
_symmetry_space_group_name_H-M "P 61"
_symmetry_group_IT_number 169
_symmetry_cell_setting 'hexagonal'
loop_
_space_group_symop_operation_xyz
x,y,z
x-y,x,1/6+z
-y,x-y,1/3+z
-x,-y,1/2+z
-x+y,-x,2/3+z
y,-x+y,5/6+z
loop_
_atom_site_type_symbol
_atom_site_label
_atom_site_fract_x
_atom_site_fract_y
_atom_site_fract_z
Si Si1 0.107290 0.926966 0.914470
Si Si2 0.830258 0.981671 0.103712
Si Si3 0.629196 0.814461 0.730822
Si Si4 0.699299 0.643068 0.140275
Si Si5 0.859733 0.402879 0.951307
Si Si6 0.749770 0.430984 0.371875
Si Si7 0.465290 0.689281 0.532168
Si Si8 0.334224 0.891105 0.306059
O O1 0.165170 0.966990 0.760316
O O2 0.002458 0.877286 0.872516
O O3 0.132072 0.858548 0.990449
O O4 0.851792 0.901696 0.144484
O O5 0.729403 0.941253 0.040231
O O6 0.610166 0.885338 0.819059
O O7 0.558725 0.767937 0.595920
O O8 0.621228 0.741066 0.852660
O O9 0.655856 0.563639 0.264115
O O10 0.619525 0.661447 0.101361
O O11 0.771499 0.345852 0.052729
O O12 0.831708 0.428506 0.791226
O O13 0.922261 0.494334 0.048163
O O14 0.809065 0.478177 0.523371
O O15 0.727945 0.329748 0.366071
O O16 0.797975 0.490504 0.223381
#
# Coordination Sequence:
#
# PCOD8324565 Si02
#       8
#     6   6   6   6   6   6   6   6
#     4  10  23  47  70 102 135 176 232 291 358 440
#     4  10  24  48  72 105 137 183 235 293 364 439
#     4  11  24  44  67 100 136 181 229 286 356 422
#     4  12  25  43  69  97 147 178 231 293 364 421
#     4  11  23  43  63  98 137 174 236 287 337 423
#     4  12  21  40  67  98 129 180 240 283 332 405
#     4  11  23  38  72  96 135 183 233 289 335 408
#     4  11  25  43  66  98 134 189 232 280 352 424
#
# _framework density 21.469707
#
# number of rings (size 3 to 8) (size 9 to 14) (size 15 to 20)
#    0.000    1.000    3.750    2.250    1.750    3.000 
#   15.750    0.000    0.000    0.000    0.000    0.000 
#    0.000    0.000    0.000    0.000    0.000    0.000 
#
# Total GULP energy -595169.606708 kJ/mol
# GULP energy per Si atom -12399.366806 kJ/mol
# Density = 2.142084 g / cm^3
# Si number density = 21.469707 Si / 1000 Ang^3
#
#
#
# Elastic Constant Matrix: (Units=GPa)
#
#
# Indices 1 2 3 4 5 6 
#
# 1 105.9486 43.7639 24.4755 0.0000 0.0000 0.0000
# 2 43.7639 105.9486 24.4755 0.0000 0.0000 0.0000
# 3 24.4755 24.4755 68.2484 0.0000 0.0000 0.0000
# 4 0.0000 0.0000 0.0000 26.9867 0.0000 0.0000
# 5 0.0000 0.0000 0.0000 0.0000 26.9867 0.0000
# 6 0.0000 0.0000 0.0000 0.0000 0.0000 31.0924
#
#
#
# Elastic Compliance Matrix: (Units=1/GPa)
#
#
# Indices 1 2 3 4 5 6 
#
# 1 0.011824 -0.004257 -0.002714 0.000000 0.000000 0.000000
# 2 -0.004257 0.011824 -0.002714 0.000000 0.000000 0.000000
# 3 -0.002714 -0.002714 0.016599 0.000000 0.000000 0.000000
# 4 0.000000 0.000000 0.000000 0.037055 0.000000 0.000000
# 5 0.000000 0.000000 0.000000 0.000000 0.037055 0.000000
# 6 0.000000 0.000000 0.000000 0.000000 0.000000 0.032162
#
#
# Mechanical properties :
#
#
# Convention : Reuss Voigt Hill
#
# Bulk Modulus (GPa) = 47.89797 51.73060 49.81428
# Shear Modulus (GPa) = 28.92723 29.50852 29.21788
#
# Velocity S-wave (km/s) = 3.67461 3.71135 3.69302
# Velocity P-wave (km/s) = 6.35308 6.52016 6.43716
#
# Compressibility (1/GPa) = 0.02087771
#
# Stress axis : x y z
#
# Youngs Moduli (GPa) = 84.57433 84.57433 60.24567
#
# Poissons Ratio (x) = 0.36005 0.16348
# Poissons Ratio (y) = 0.36005 0.16348
# Poissons Ratio (z) = 0.22950 0.22950
#
# Static dielectric constant tensor:
#      x y z
#    x 3.823850 0.000000 0.000000 
#    y 0.000000 3.823850 0.000000 
#    z 0.000000 0.000000 4.158230 
# 
# 
# High freq. dielectric constant tensor:
#      x y z
#    x 1.840870 0.000000 0.000000 
#    y 0.000000 1.840870 0.000000 
#    z 0.000000 0.000000 1.854380 
# 
# From -- ./inp_files/743.got.cif
#   From: 2010.03.12/outbox.cif.g09.slc.cpg/sg169_cif.got.tgz:743.got - 2010.04.02 06:46:06.
