data_PCOD8324259
_publ_section_title
;
Structure prediction by ZEFSAII (Michael W. Deem and Ramdas Pophale) SiO2 
 PCOD8324259
Probable space group: R -3 M
;
_chemical_formula_sum "Si O2"
_cell_formula_units_Z 180
_cell_length_a 21.192172
_cell_length_b 21.192172
_cell_length_c 30.944454
_cell_angle_alpha 90.000000
_cell_angle_beta 90.000000
_cell_angle_gamma 120.000000
_cell_volume 12035.507175
_symmetry_space_group_name_H-M "R -3 M"
_symmetry_group_IT_number 166
_symmetry_cell_setting 'hexagonal'
loop_
_space_group_symop_operation_xyz
x,y,z
-y,x-y,z
-x+y,-x,z
x-y,-y,-z
-x,-x+y,-z
y,x,-z
-x,-y,-z
y,-x+y,-z
x-y,x,-z
-x+y,y,z
x,x-y,z
-y,-x,z
2/3+x,1/3+y,1/3+z
2/3-y,1/3+x-y,1/3+z
2/3-x+y,1/3-x,1/3+z
2/3+x-y,1/3-y,1/3-z
2/3-x,1/3-x+y,1/3-z
2/3+y,1/3+x,1/3-z
2/3-x,1/3-y,1/3-z
2/3+y,1/3-x+y,1/3-z
2/3+x-y,1/3+x,1/3-z
2/3-x+y,1/3+y,1/3+z
2/3+x,1/3+x-y,1/3+z
2/3-y,1/3-x,1/3+z
1/3+x,2/3+y,2/3+z
1/3-y,2/3+x-y,2/3+z
1/3-x+y,2/3-x,2/3+z
1/3+x-y,2/3-y,2/3-z
1/3-x,2/3-x+y,2/3-z
1/3+y,2/3+x,2/3-z
1/3-x,2/3-y,2/3-z
1/3+y,2/3-x+y,2/3-z
1/3+x-y,2/3+x,2/3-z
1/3-x+y,2/3+y,2/3+z
1/3+x,2/3+x-y,2/3+z
1/3-y,2/3-x,2/3+z
loop_
_atom_site_type_symbol
_atom_site_label
_atom_site_fract_x
_atom_site_fract_y
_atom_site_fract_z
Si Si1 0.344352 0.318486 0.262111
Si Si2 0.374360 0.259122 0.989467
Si Si3 0.276695 0.865137 0.811636
Si Si4 0.570328 0.712410 0.444510
Si Si5 0.807732 0.474917 0.637865
O O1 0.380803 0.400235 0.279863
O O2 0.329757 0.263425 0.301048
O O3 0.402978 0.313321 0.231679
O O4 0.270343 0.302364 0.237248
O O5 0.349515 0.174758 0.983925
O O6 0.461062 0.308668 0.994433
O O7 0.220125 0.779876 0.801314
O O8 0.231975 0.898642 0.833334
O O9 0.340695 0.872030 0.842833
O O10 0.597929 0.798965 0.447747
O O11 0.505544 0.673363 0.410243
O O12 0.743992 0.487984 0.655020
O O13 0.779044 0.389522 0.635419
#
# Coordination Sequence:
#
# PCOD8324259 Si02
#       5
#    36  36  36  36  36
#     4   9  17  28  42  59  80 106 133 165 204 239
#     4   9  17  28  41  59  81 104 134 169 201 236
#     4   9  16  27  43  60  78 103 134 164 194 230
#     4   9  17  27  40  60  84 107 131 161 198 241
#     4   9  16  26  40  58  81 108 135 162 194 235
#
# _framework density 14.955748
#
# number of rings (size 3 to 8) (size 9 to 14) (size 15 to 20)
#    0.000    3.000    0.000    1.400    0.000    6.400 
#    0.000    4.000    0.000    0.400    0.000    0.000 
#    0.000    0.000    0.000   10.200    0.000   64.000 
#
# Total GULP energy -743816.980156 kJ/mol
# GULP energy per Si atom -12396.949669 kJ/mol
# Density = 1.492171 g / cm^3
# Si number density = 14.955748 Si / 1000 Ang^3
#
#
#
# Elastic Constant Matrix: (Units=GPa)
#
#
# Indices 1 2 3 4 5 6 
#
# 1 86.1986 51.1339 44.0490 -2.5874 0.0000 0.0000
# 2 51.1339 86.1986 44.0490 2.5874 0.0000 0.0000
# 3 44.0490 44.0490 76.8759 0.0000 0.0000 0.0000
# 4 -2.5874 2.5874 0.0000 20.0457 0.0000 0.0000
# 5 0.0000 0.0000 0.0000 0.0000 20.0457 -2.5874
# 6 0.0000 0.0000 0.0000 0.0000 -2.5874 17.5323
#
#
#
# Elastic Compliance Matrix: (Units=1/GPa)
#
#
# Indices 1 2 3 4 5 6 
#
# 1 0.020293 -0.008779 -0.006597 0.003753 0.000000 0.000000
# 2 -0.008779 0.020293 -0.006597 -0.003753 0.000000 0.000000
# 3 -0.006597 -0.006597 0.020568 0.000000 0.000000 0.000000
# 4 0.003753 -0.003753 0.000000 0.050855 0.000000 0.000000
# 5 0.000000 0.000000 0.000000 0.000000 0.050855 0.007505
# 6 0.000000 0.000000 0.000000 0.000000 0.007505 0.058145
#
#
# Mechanical properties :
#
#
# Convention : Reuss Voigt Hill
#
# Bulk Modulus (GPa) = 58.11669 58.63741 58.37705
# Shear Modulus (GPa) = 18.47114 18.86081 18.66598
#
# Velocity S-wave (km/s) = 3.51814 3.55506 3.53665
# Velocity P-wave (km/s) = 7.44625 7.49291 7.46961
#
# Compressibility (1/GPa) = 0.01720676
#
# Stress axis : x y z
#
# Youngs Moduli (GPa) = 49.27783 49.27783 48.61875
#
# Poissons Ratio (x) = 0.43263 0.32075
# Poissons Ratio (y) = 0.43263 0.32075
# Poissons Ratio (z) = 0.32510 0.32510
#
# Static dielectric constant tensor:
#      x y z
#    x 2.878750 0.000000 0.000000 
#    y 0.000000 2.878750 0.000000 
#    z 0.000000 0.000000 2.831860 
# 
# 
# High freq. dielectric constant tensor:
#      x y z
#    x 1.564350 0.000000 0.000000 
#    y 0.000000 1.564350 0.000000 
#    z 0.000000 0.000000 1.558190 
# 
# From -- ./inp_files/10699.got.cif
#   From: 2010.03.12/outbox.cif.g09.slc.cpg/sg166_6_cif.got.tgz:10699.got - 2010.04.02 06:38:31.
