data_PCOD8324373
_publ_section_title
;
Structure prediction by ZEFSAII (Michael W. Deem and Ramdas Pophale) SiO2 
 PCOD8324373
Probable space group: R -3 C 
;
_chemical_formula_sum "Si O2"
_cell_formula_units_Z 102
_cell_length_a 18.630285
_cell_length_b 18.630285
_cell_length_c 16.373744
_cell_angle_alpha 90.000000
_cell_angle_beta 90.000000
_cell_angle_gamma 120.000000
_cell_volume 4921.728185
_symmetry_space_group_name_H-M "R -3 C "
_symmetry_group_IT_number 167
_symmetry_cell_setting 'hexagonal'
loop_
_space_group_symop_operation_xyz
x,y,z
-y,x-y,z
-x+y,-x,z
x-y,-y,1/2-z
-x,-x+y,1/2-z
y,x,1/2-z
-x,-y,-z
y,-x+y,-z
x-y,x,-z
-x+y,y,1/2+z
x,x-y,1/2+z
-y,-x,1/2+z
2/3+x,1/3+y,1/3+z
2/3-y,1/3+x-y,1/3+z
2/3-x+y,1/3-x,1/3+z
2/3+x-y,1/3-y,5/6-z
2/3-x,1/3-x+y,5/6-z
2/3+y,1/3+x,5/6-z
2/3-x,1/3-y,1/3-z
2/3+y,1/3-x+y,1/3-z
2/3+x-y,1/3+x,1/3-z
2/3-x+y,1/3+y,5/6+z
2/3+x,1/3+x-y,5/6+z
2/3-y,1/3-x,5/6+z
1/3+x,2/3+y,2/3+z
1/3-y,2/3+x-y,2/3+z
1/3-x+y,2/3-x,2/3+z
1/3+x-y,2/3-y,1/6-z
1/3-x,2/3-x+y,1/6-z
1/3+y,2/3+x,1/6-z
1/3-x,2/3-y,2/3-z
1/3+y,2/3-x+y,2/3-z
1/3+x-y,2/3+x,2/3-z
1/3-x+y,2/3+y,1/6+z
1/3+x,2/3+x-y,1/6+z
1/3-y,2/3-x,1/6+z
loop_
_atom_site_type_symbol
_atom_site_label
_atom_site_fract_x
_atom_site_fract_y
_atom_site_fract_z
Si Si1 0.532861 0.383004 0.943669
Si Si2 0.078761 0.666667 0.416667
Si Si3 0.000000 0.000000 0.653119
Si Si4 0.812454 0.091174 0.987251
O O1 0.617021 0.378810 0.954931
O O2 0.472184 0.306495 0.888623
O O3 0.542029 0.462682 0.898059
O O4 0.494326 0.388203 0.029699
O O5 0.054272 0.719749 0.476557
O O6 0.000000 0.000000 0.750000
O O7 0.825353 0.158686 0.916667
#
# Coordination Sequence:
#
# PCOD8324373 Si02
#       4
#    36  18  12  36
#     4  11  22  42  65  95 132 173 224 276 330 395
#     4  10  22  42  62  96 132 176 220 272 326 410
#     4  12  24  43  68 100 129 175 227 280 336 385
#     4  10  23  39  63  94 130 170 222 267 337 394
#
# _framework density 20.724426999999999
#
# number of rings (size 3 to 8) (size 9 to 14) (size 15 to 20)
#    0.000    1.412    1.765    3.176    2.471    1.412 
#    0.000    1.765    0.000    0.000    0.000    0.000 
#    0.000    0.000    0.000    0.000    0.000    0.000 
#
# Total GULP energy -421331.255182 kJ/mol
# GULP energy per Si atom -12392.095741 kJ/mol
# Density = 2.067726 g / cm^3
# Si number density = 20.724427 Si / 1000 Ang^3
#
#
#
# Elastic Constant Matrix: (Units=GPa)
#
#
# Indices 1 2 3 4 5 6 
#
# 1 75.5815 39.0027 39.7749 2.3592 0.0000 0.0000
# 2 39.0027 75.5815 39.7749 -2.3592 0.0000 0.0000
# 3 39.7749 39.7749 134.7640 0.0000 0.0000 0.0000
# 4 2.3592 -2.3592 0.0000 32.9697 0.0000 0.0000
# 5 0.0000 0.0000 0.0000 0.0000 32.9697 2.3592
# 6 0.0000 0.0000 0.0000 0.0000 2.3592 18.2894
#
#
#
# Elastic Compliance Matrix: (Units=1/GPa)
#
#
# Indices 1 2 3 4 5 6 
#
# 1 0.019285 -0.008308 -0.003240 -0.001974 0.000000 0.000000
# 2 -0.008308 0.019285 -0.003240 0.001974 0.000000 0.000000
# 3 -0.003240 -0.003240 0.009333 0.000000 0.000000 0.000000
# 4 -0.001974 0.001974 0.000000 0.030613 0.000000 0.000000
# 5 0.000000 0.000000 0.000000 0.000000 0.030613 -0.003949
# 6 0.000000 0.000000 0.000000 0.000000 -0.003949 0.055186
#
#
# Mechanical properties :
#
#
# Convention : Reuss Voigt Hill
#
# Bulk Modulus (GPa) = 54.56464 58.11464 56.33964
# Shear Modulus (GPa) = 25.00015 28.00404 26.50210
#
# Velocity S-wave (km/s) = 3.47697 3.67993 3.57989
# Velocity P-wave (km/s) = 6.51958 6.79400 6.65820
#
# Compressibility (1/GPa) = 0.01832689
#
# Stress axis : x y z
#
# Youngs Moduli (GPa) = 51.85479 51.85479 107.15032
#
# Poissons Ratio (x) = 0.43083 0.34712
# Poissons Ratio (y) = 0.43083 0.34712
# Poissons Ratio (z) = 0.16799 0.16799
#
# Static dielectric constant tensor:
#      x y z
#    x 3.786890 0.000000 0.000000 
#    y 0.000000 3.786890 0.000000 
#    z 0.000000 0.000000 4.187830 
# 
# 
# High freq. dielectric constant tensor:
#      x y z
#    x 1.799890 0.000000 0.000000 
#    y 0.000000 1.799890 0.000000 
#    z 0.000000 0.000000 1.843890 
# 
# From -- ./inp_files/2089.got.cif
#   From: 2010.03.12/outbox.cif.g09.slc.cpg/sg167_2_cif.got.tgz:2089.got - 2010.04.02 06:42:56.
