data_PCOD8324112
_publ_section_title
;
Structure prediction by ZEFSAII (Michael W. Deem and Ramdas Pophale) SiO2 
 PCOD8324112
Probable space group: R -3 M
;
_chemical_formula_sum "Si O2"
_cell_formula_units_Z 162
_cell_length_a 20.580661
_cell_length_b 20.580661
_cell_length_c 23.176388
_cell_angle_alpha 90.000000
_cell_angle_beta 90.000000
_cell_angle_gamma 120.000000
_cell_volume 8501.489500
_symmetry_space_group_name_H-M "R -3 M"
_symmetry_group_IT_number 166
_symmetry_cell_setting 'hexagonal'
loop_
_space_group_symop_operation_xyz
x,y,z
-y,x-y,z
-x+y,-x,z
x-y,-y,-z
-x,-x+y,-z
y,x,-z
-x,-y,-z
y,-x+y,-z
x-y,x,-z
-x+y,y,z
x,x-y,z
-y,-x,z
2/3+x,1/3+y,1/3+z
2/3-y,1/3+x-y,1/3+z
2/3-x+y,1/3-x,1/3+z
2/3+x-y,1/3-y,1/3-z
2/3-x,1/3-x+y,1/3-z
2/3+y,1/3+x,1/3-z
2/3-x,1/3-y,1/3-z
2/3+y,1/3-x+y,1/3-z
2/3+x-y,1/3+x,1/3-z
2/3-x+y,1/3+y,1/3+z
2/3+x,1/3+x-y,1/3+z
2/3-y,1/3-x,1/3+z
1/3+x,2/3+y,2/3+z
1/3-y,2/3+x-y,2/3+z
1/3-x+y,2/3-x,2/3+z
1/3+x-y,2/3-y,2/3-z
1/3-x,2/3-x+y,2/3-z
1/3+y,2/3+x,2/3-z
1/3-x,2/3-y,2/3-z
1/3+y,2/3-x+y,2/3-z
1/3+x-y,2/3+x,2/3-z
1/3-x+y,2/3+y,2/3+z
1/3+x,2/3+x-y,2/3+z
1/3-y,2/3-x,2/3+z
loop_
_atom_site_type_symbol
_atom_site_label
_atom_site_fract_x
_atom_site_fract_y
_atom_site_fract_z
Si Si1 0.801237 0.048579 0.160759
Si Si2 0.762834 0.958550 0.613313
Si Si3 0.514776 0.181695 0.059791
Si Si4 0.000000 0.846743 0.500000
Si Si5 0.126763 0.407137 0.613826
O O1 0.879389 0.120612 0.142506
O O2 0.736958 0.070291 0.166667
O O3 0.807125 0.015265 0.221367
O O4 0.779454 0.985961 0.112451
O O5 0.761638 0.880819 0.613018
O O6 0.803227 0.005189 0.555902
O O7 0.678046 0.942207 0.615170
O O8 0.808225 0.006561 0.668847
O O9 0.590447 0.180894 0.071184
O O10 0.534841 0.267421 0.053754
O O11 0.928488 0.856976 0.497577
O O12 0.205251 0.410502 0.620419
O O13 0.119084 0.452417 0.666667
#
# Coordination Sequence:
#
# PCOD8324112 Si02
#       5
#    36  36  36  18  36
#     4  10  21  37  60  86 112 146 187 232 282 338
#     4   9  20  35  53  79 113 149 185 226 271 328
#     4  10  19  34  56  84 115 146 183 229 280 333
#     4  10  19  34  56  82 115 152 192 234 282 336
#     4  11  22  38  60  83 111 150 191 235 285 336
#
# _framework density 19.055484
#
# number of rings (size 3 to 8) (size 9 to 14) (size 15 to 20)
#    0.000    2.000    0.000    3.667    1.556    3.556 
#    0.000    2.222    0.000    8.000    0.000    0.000 
#    0.000    0.000    0.000    0.000    0.000    0.000 
#
# Total GULP energy -669797.034540 kJ/mol
# GULP energy per Si atom -12403.648788 kJ/mol
# Density = 1.901211 g / cm^3
# Si number density = 19.055484 Si / 1000 Ang^3
#
#
#
# Elastic Constant Matrix: (Units=GPa)
#
#
# Indices 1 2 3 4 5 6 
#
# 1 97.1310 44.9857 58.3120 -1.6712 -0.0001 0.0000
# 2 44.9857 97.1310 58.3120 1.6712 0.0001 0.0000
# 3 58.3120 58.3120 147.8600 0.0000 0.0000 0.0000
# 4 -1.6712 1.6712 0.0000 31.2977 0.0000 0.0001
# 5 -0.0001 0.0001 0.0000 0.0000 31.2977 -1.6712
# 6 0.0000 0.0000 0.0000 0.0001 -1.6712 26.0727
#
#
#
# Elastic Compliance Matrix: (Units=1/GPa)
#
#
# Indices 1 2 3 4 5 6 
#
# 1 0.014823 -0.004420 -0.004103 0.001028 0.000000 0.000000
# 2 -0.004420 0.014823 -0.004103 -0.001028 0.000000 0.000000
# 3 -0.004103 -0.004103 0.009999 0.000000 0.000000 0.000000
# 4 0.001028 -0.001028 0.000000 0.032061 0.000000 0.000000
# 5 0.000000 0.000000 0.000000 0.000000 0.032061 0.002055
# 6 0.000000 0.000000 0.000000 0.000000 0.002055 0.038486
#
#
# Mechanical properties :
#
#
# Convention : Reuss Voigt Hill
#
# Bulk Modulus (GPa) = 69.47011 73.92683 71.69847
# Shear Modulus (GPa) = 29.01873 29.76779 29.39326
#
# Velocity S-wave (km/s) = 3.90661 3.95671 3.93174
# Velocity P-wave (km/s) = 7.54219 7.73006 7.63671
#
# Compressibility (1/GPa) = 0.01439468
#
# Stress axis : x y z
#
# Youngs Moduli (GPa) = 67.46199 67.46199 100.00800
#
# Poissons Ratio (x) = 0.29817 0.41031
# Poissons Ratio (y) = 0.29817 0.41031
# Poissons Ratio (z) = 0.27678 0.27678
#
# Static dielectric constant tensor:
#      x y z
#    x 3.443090 0.000000 0.000000 
#    y 0.000000 3.443090 0.000000 
#    z 0.000000 0.000000 3.703890 
# 
# 
# High freq. dielectric constant tensor:
#      x y z
#    x 1.736000 0.000000 0.000000 
#    y 0.000000 1.736000 0.000000 
#    z 0.000000 0.000000 1.759020 
# 
# From -- ./inp_files/6728.got.cif
#   From: 2010.03.12/outbox.cif.g09.slc.cpg/sg166_4_cif.got.tgz:6728.got - 2010.04.02 06:38:31.
