data_PCOD8324863
_publ_section_title
;
Structure prediction by ZEFSAII (Michael W. Deem and Ramdas Pophale) SiO2 
 PCOD8324863
Probable space group: P 63
;
_chemical_formula_sum "Si O2"
_cell_formula_units_Z 36
_cell_length_a 8.573759
_cell_length_b 8.573759
_cell_length_c 28.420775
_cell_angle_alpha 90.000000
_cell_angle_beta 90.000000
_cell_angle_gamma 120.000000
_cell_volume 1809.293786
_symmetry_space_group_name_H-M "P 63"
_symmetry_group_IT_number 173
_symmetry_cell_setting 'hexagonal'
loop_
_space_group_symop_operation_xyz
x,y,z
x-y,x,1/2+z
-y,x-y,z
-x,-y,1/2+z
-x+y,-x,z
y,-x+y,1/2+z
loop_
_atom_site_type_symbol
_atom_site_label
_atom_site_fract_x
_atom_site_fract_y
_atom_site_fract_z
Si Si1 0.547883 0.850205 0.057740
Si Si2 0.213759 0.032973 0.645978
Si Si3 0.001309 0.349974 0.288372
Si Si4 0.197836 0.205652 0.970138
Si Si5 0.994349 0.319967 0.750021
Si Si6 0.123826 0.473374 0.389802
O O1 0.361155 0.855808 0.053682
O O2 0.637412 0.935679 0.107697
O O3 0.692842 0.974436 0.019011
O O4 0.029557 0.839462 0.640721
O O5 0.293434 0.036973 0.696690
O O6 0.003954 0.494276 0.252405
O O7 0.179000 0.340631 0.282397
O O8 0.004291 0.395186 0.343105
O O9 0.827788 0.168258 0.274878
O O10 0.335237 0.336323 0.930372
O O11 0.993128 0.172930 0.966970
O O12 0.319686 0.484059 0.392888
#
# Coordination Sequence:
#
# PCOD8324863 Si02
#       6
#     6   6   6   6   6   6
#     4  10  24  39  66  97 129 168 218 273 338 400
#     4  10  21  42  66  97 131 176 223 271 338 406
#     4  12  24  44  64 100 142 181 233 285 347 413
#     4  10  24  41  68  93 129 175 218 279 340 406
#     4  12  24  42  68  99 138 187 227 290 344 415
#     4  10  23  42  66  96 131 175 225 276 339 400
#
# _framework density 19.897268
#
# number of rings (size 3 to 8) (size 9 to 14) (size 15 to 20)
#    1.333    0.000    3.333    2.000    7.000    0.000 
#    0.000    0.000    0.000    0.667    0.000    0.000 
#    0.000    0.000    0.000    0.000    0.000    0.000 
#
# Total GULP energy -446000.029011 kJ/mol
# GULP energy per Si atom -12388.889695 kJ/mol
# Density = 1.985198 g / cm^3
# Si number density = 19.897268 Si / 1000 Ang^3
#
#
#
# Elastic Constant Matrix: (Units=GPa)
#
#
# Indices 1 2 3 4 5 6 
#
# 1 99.2090 25.1536 32.8550 0.0000 0.0000 0.0000
# 2 25.1536 99.2090 32.8550 0.0000 0.0000 0.0000
# 3 32.8550 32.8550 135.2021 0.0000 0.0000 0.0000
# 4 0.0000 0.0000 0.0000 41.6228 0.0000 0.0000
# 5 0.0000 0.0000 0.0000 0.0000 41.6228 0.0000
# 6 0.0000 0.0000 0.0000 0.0000 0.0000 37.0277
#
#
#
# Elastic Compliance Matrix: (Units=1/GPa)
#
#
# Indices 1 2 3 4 5 6 
#
# 1 0.011364 -0.002139 -0.002242 0.000000 0.000000 0.000000
# 2 -0.002139 0.011364 -0.002242 0.000000 0.000000 0.000000
# 3 -0.002242 -0.002242 0.008486 0.000000 0.000000 0.000000
# 4 0.000000 0.000000 0.000000 0.024025 0.000000 0.000000
# 5 0.000000 0.000000 0.000000 0.000000 0.024025 0.000000
# 6 0.000000 0.000000 0.000000 0.000000 0.000000 0.027007
#
#
# Mechanical properties :
#
#
# Convention : Reuss Voigt Hill
#
# Bulk Modulus (GPa) = 55.64972 57.26078 56.45525
# Shear Modulus (GPa) = 39.83828 40.23843 40.03836
#
# Velocity S-wave (km/s) = 4.47945 4.50189 4.49068
# Velocity P-wave (km/s) = 7.40157 7.47418 7.43796
#
# Compressibility (1/GPa) = 0.01796954
#
# Stress axis : x y z
#
# Youngs Moduli (GPa) = 87.99346 87.99346 117.84234
#
# Poissons Ratio (x) = 0.18821 0.26419
# Poissons Ratio (y) = 0.18821 0.26419
# Poissons Ratio (z) = 0.19727 0.19727
#
# Static dielectric constant tensor:
#      x y z
#    x 3.456420 0.000000 0.000000 
#    y 0.000000 3.456420 0.000000 
#    z 0.000000 0.000000 3.484500 
# 
# 
# High freq. dielectric constant tensor:
#      x y z
#    x 1.767710 0.000000 0.000000 
#    y 0.000000 1.767710 0.000000 
#    z 0.000000 0.000000 1.783280 
# 
# From -- ./inp_files/1475.got.cif
#   From: 2010.03.12/outbox.cif.g09.slc.cpg/sg173_cif.got.tgz:1475.got - 2010.04.02 06:54:12.
