data_PCOD8324765
_publ_section_title
;
Structure prediction by ZEFSAII (Michael W. Deem and Ramdas Pophale) SiO2 
 PCOD8324765
Probable space group: P 62
;
_chemical_formula_sum "Si O2"
_cell_formula_units_Z 27
_cell_length_a 15.801280
_cell_length_b 15.801280
_cell_length_c 6.389439
_cell_angle_alpha 90.000000
_cell_angle_beta 90.000000
_cell_angle_gamma 120.000000
_cell_volume 1381.585917
_symmetry_space_group_name_H-M "P 62"
_symmetry_group_IT_number 171
_symmetry_cell_setting 'hexagonal'
loop_
_space_group_symop_operation_xyz
x,y,z
x-y,x,1/3+z
-y,x-y,2/3+z
-x,-y,z
-x+y,-x,1/3+z
y,-x+y,2/3+z
loop_
_atom_site_type_symbol
_atom_site_label
_atom_site_fract_x
_atom_site_fract_y
_atom_site_fract_z
Si Si1 0.011506 0.664378 0.081650
Si Si2 0.500000 0.000000 0.699379
Si Si3 0.191596 0.807251 0.352807
Si Si4 0.597299 0.338957 0.603509
Si Si5 0.653657 0.530381 0.361274
O O1 0.972017 0.566075 0.221288
O O2 0.100401 0.758992 0.192862
O O3 0.923503 0.688233 0.050710
O O4 0.039925 0.641649 0.855121
O O5 0.482586 0.911169 0.848273
O O6 0.281699 0.800478 0.252971
O O7 0.163126 0.757250 0.580005
O O8 0.638399 0.271492 0.508665
O O9 0.647840 0.441147 0.485307
#
# Coordination Sequence:
#
# PCOD8324765 Si02
#       5
#     6   3   6   6   6
#     4  11  24  41  60  87 123 160 209 258 313 365
#     4  10  22  36  58  88 118 166 204 240 300 356
#     4  11  25  39  60  89 119 166 211 255 312 373
#     4  12  22  35  56  89 129 172 211 240 295 360
#     4  11  23  38  60  88 124 165 198 257 289 367
#
# _framework density 19.542759
#
# number of rings (size 3 to 8) (size 9 to 14) (size 15 to 20)
#    0.000    0.889    4.444    3.333    6.222    3.556 
#    0.000    0.000    0.000    0.000    0.000    7.778 
#    0.000    0.000    0.000    0.000    0.000    0.000 
#
# Total GULP energy -334754.944059 kJ/mol
# GULP energy per Si atom -12398.331261 kJ/mol
# Density = 1.949828 g / cm^3
# Si number density = 19.542759 Si / 1000 Ang^3
#
#
#
# Elastic Constant Matrix: (Units=GPa)
#
#
# Indices 1 2 3 4 5 6 
#
# 1 96.8497 45.0168 41.3308 0.0000 0.0000 0.0000
# 2 45.0168 96.8497 41.3308 0.0000 0.0000 0.0000
# 3 41.3308 41.3308 111.7496 0.0000 0.0000 0.0000
# 4 0.0000 0.0000 0.0000 24.6979 0.0000 0.0000
# 5 0.0000 0.0000 0.0000 0.0000 24.6979 0.0000
# 6 0.0000 0.0000 0.0000 0.0000 0.0000 25.9164
#
#
#
# Elastic Compliance Matrix: (Units=1/GPa)
#
#
# Indices 1 2 3 4 5 6 
#
# 1 0.014139 -0.005154 -0.003323 0.000000 0.000000 0.000000
# 2 -0.005154 0.014139 -0.003323 0.000000 0.000000 0.000000
# 3 -0.003323 -0.003323 0.011407 0.000000 0.000000 0.000000
# 4 0.000000 0.000000 0.000000 0.040489 0.000000 0.000000
# 5 0.000000 0.000000 0.000000 0.000000 0.040489 0.000000
# 6 0.000000 0.000000 0.000000 0.000000 0.000000 0.038586
#
#
# Mechanical properties :
#
#
# Convention : Reuss Voigt Hill
#
# Bulk Modulus (GPa) = 62.17209 62.31178 62.24193
# Shear Modulus (GPa) = 26.56599 26.91383 26.73991
#
# Velocity S-wave (km/s) = 3.69097 3.71506 3.70304
# Velocity P-wave (km/s) = 7.07438 7.09622 7.08530
#
# Compressibility (1/GPa) = 0.01608439
#
# Stress axis : x y z
#
# Youngs Moduli (GPa) = 70.72638 70.72638 87.66729
#
# Poissons Ratio (x) = 0.36451 0.29134
# Poissons Ratio (y) = 0.36451 0.29134
# Poissons Ratio (z) = 0.23504 0.23504
#
# Static dielectric constant tensor:
#      x y z
#    x 3.419380 0.000000 0.000000 
#    y 0.000000 3.419380 0.000000 
#    z 0.000000 0.000000 4.004730 
# 
# 
# High freq. dielectric constant tensor:
#      x y z
#    x 1.737370 0.000000 0.000000 
#    y 0.000000 1.737370 0.000000 
#    z 0.000000 0.000000 1.783410 
# 
# From -- ./inp_files/597.got.cif
#   From: 2010.03.12/outbox.cif.g09.slc.cpg/sg171_1_cif.got.tgz:597.got - 2010.04.02 06:49:11.
