data_PCOD8324987
_publ_section_title
;
Structure prediction by ZEFSAII (Michael W. Deem and Ramdas Pophale) SiO2 
 PCOD8324987
Probable space group: P -6
;
_chemical_formula_sum "Si O2"
_cell_formula_units_Z 35
_cell_length_a 10.764433
_cell_length_b 10.764433
_cell_length_c 17.021914
_cell_angle_alpha 90.000000
_cell_angle_beta 90.000000
_cell_angle_gamma 120.000000
_cell_volume 1708.131657
_symmetry_space_group_name_H-M "P -6"
_symmetry_group_IT_number 174
_symmetry_cell_setting 'hexagonal'
loop_
_space_group_symop_operation_xyz
x,y,z
-x+y,-x,-z
-y,x-y,z
x,y,-z
-x+y,-x,z
-y,x-y,-z
loop_
_atom_site_type_symbol
_atom_site_label
_atom_site_fract_x
_atom_site_fract_y
_atom_site_fract_z
Si Si1 0.409086 0.021718 0.766980
Si Si2 0.117602 0.936870 0.500000
Si Si3 0.984093 0.833458 0.088189
Si Si4 0.165305 0.518674 0.088462
Si Si5 0.333333 0.666668 0.591991
Si Si6 0.633413 0.821010 0.650628
Si Si7 0.720700 0.072401 0.235046
O O1 0.381445 0.150945 0.750554
O O2 0.575866 0.076695 0.757079
O O3 0.363966 0.956450 0.854150
O O4 0.316717 0.900794 0.704756
O O5 0.182358 0.907431 0.577545
O O6 0.943310 0.838386 0.500000
O O7 0.978310 0.718036 0.149122
O O8 0.852969 0.867015 0.100040
O O9 0.978904 0.775036 0.000000
O O10 0.315643 0.518198 0.102015
O O11 0.109810 0.469113 0.000000
O O12 0.333334 0.666668 0.500000
O O13 0.483028 0.802144 0.620746
O O14 0.725588 0.967535 0.699039
#
# Coordination Sequence:
#
# PCOD8324987 Si02
#       7
#     6   3   6   6   2   6   6
#     4  12  25  40  63  94 136 178 224 274 336 400
#     4  10  24  44  72 106 132 166 208 254 328 402
#     4   8  18  39  63  93 128 173 232 281 333 391
#     4   8  18  38  64  95 128 172 231 284 335 390
#     4  12  24  45  78 108 124 170 223 276 333 384
#     4  12  24  45  70  99 135 170 219 271 325 402
#     4  12  25  40  63  94 135 180 221 275 336 397
#
# _framework density 20.490223
#
# number of rings (size 3 to 8) (size 9 to 14) (size 15 to 20)
#    0.857    0.686    2.571    3.429    0.000    1.371 
#    1.029    4.286    0.000    2.057    0.000    0.000 
#    0.000    0.000    0.000    0.000    0.000    0.000 
#
# Total GULP energy -433803.902423 kJ/mol
# GULP energy per Si atom -12394.397212 kJ/mol
# Density = 2.044359 g / cm^3
# Si number density = 20.490223 Si / 1000 Ang^3
#
#
#
# Elastic Constant Matrix: (Units=GPa)
#
#
# Indices 1 2 3 4 5 6 
#
# 1 83.5413 13.8731 33.0162 0.0000 0.0000 0.0001
# 2 13.8731 83.5408 33.0158 0.0000 0.0000 0.0001
# 3 33.0162 33.0158 123.1552 0.0000 0.0000 0.0001
# 4 0.0000 0.0000 0.0000 27.4126 0.0002 0.0000
# 5 0.0000 0.0000 0.0000 0.0002 27.4125 0.0000
# 6 0.0001 0.0001 0.0001 0.0000 0.0000 34.8341
#
#
#
# Elastic Compliance Matrix: (Units=1/GPa)
#
#
# Indices 1 2 3 4 5 6 
#
# 1 0.013449 -0.000904 -0.003363 0.000000 0.000000 0.000000
# 2 -0.000904 0.013450 -0.003363 0.000000 0.000000 0.000000
# 3 -0.003363 -0.003363 0.009923 0.000000 0.000000 0.000000
# 4 0.000000 0.000000 0.000000 0.036480 0.000000 0.000000
# 5 0.000000 0.000000 0.000000 0.000000 0.036480 0.000000
# 6 0.000000 0.000000 0.000000 0.000000 0.000000 0.028707
#
#
# Mechanical properties :
#
#
# Convention : Reuss Voigt Hill
#
# Bulk Modulus (GPa) = 46.38060 50.00528 48.19294
# Shear Modulus (GPa) = 31.06805 31.95399 31.51102
#
# Velocity S-wave (km/s) = 3.89811 3.95330 3.92581
# Velocity P-wave (km/s) = 6.55324 6.73020 6.64231
#
# Compressibility (1/GPa) = 0.02156074
#
# Stress axis : x y z
#
# Youngs Moduli (GPa) = 74.35248 74.35212 100.77535
#
# Poissons Ratio (x) = 0.06724 0.33893
# Poissons Ratio (y) = 0.06724 0.33892
# Poissons Ratio (z) = 0.25006 0.25006
#
# Static dielectric constant tensor:
#      x y z
#    x 3.613160 0.000000 0.000000 
#    y 0.000000 3.613160 0.000000 
#    z 0.000000 0.000000 3.632930 
# 
# 
# High freq. dielectric constant tensor:
#      x y z
#    x 1.794390 0.000000 0.000000 
#    y 0.000000 1.794390 0.000000 
#    z 0.000000 0.000000 1.806000 
# 
# From -- ./inp_files/899.got.cif
#   From: 2010.03.12/outbox.cif.g09.slc.cpg/sg174_cif.got.tgz:899.got - 2010.04.02 06:54:58.
