data_PCOD8324503
_publ_section_title
;
Structure prediction by ZEFSAII (Michael W. Deem and Ramdas Pophale) SiO2 
 PCOD8324503
Probable space group: P 61
;
_chemical_formula_sum "Si O2"
_cell_formula_units_Z 30
_cell_length_a 17.680837
_cell_length_b 17.680837
_cell_length_c 4.936856
_cell_angle_alpha 90.000000
_cell_angle_beta 90.000000
_cell_angle_gamma 120.000000
_cell_volume 1336.554684
_symmetry_space_group_name_H-M "P 61"
_symmetry_group_IT_number 169
_symmetry_cell_setting 'hexagonal'
loop_
_space_group_symop_operation_xyz
x,y,z
x-y,x,1/6+z
-y,x-y,1/3+z
-x,-y,1/2+z
-x+y,-x,2/3+z
y,-x+y,5/6+z
loop_
_atom_site_type_symbol
_atom_site_label
_atom_site_fract_x
_atom_site_fract_y
_atom_site_fract_z
Si Si1 0.986925 0.720342 0.748170
Si Si2 0.385355 0.623602 0.874752
Si Si3 0.998746 0.827004 0.239495
Si Si4 0.291281 0.433686 0.862196
Si Si5 0.807015 0.564920 0.845694
O O1 0.963768 0.766220 0.505562
O O2 0.905987 0.638897 0.897682
O O3 0.045274 0.684052 0.610638
O O4 0.031632 0.787861 0.997618
O O5 0.286854 0.597137 0.784037
O O6 0.374674 0.529062 0.940060
O O7 0.467567 0.673230 0.675209
O O8 0.920264 0.839717 0.138693
O O9 0.260623 0.427064 0.550384
O O10 0.209071 0.416879 0.041081
#
# Coordination Sequence:
#
# PCOD8324503 Si02
#       5
#     6   6   6   6   6
#     4  12  24  43  65  96 134 168 208 268 330 385
#     4  10  20  40  64  94 124 168 222 266 306 384
#     4  12  26  45  69  94 128 168 220 264 316 383
#     4  11  23  40  66  93 127 170 216 263 325 379
#     4  11  23  40  66  93 127 170 216 263 325 379
#
# _framework density 22.445772000000002
#
# number of rings (size 3 to 8) (size 9 to 14) (size 15 to 20)
#    0.000    0.800    2.000    7.200    0.000    1.600 
#    0.000   10.000    0.000    0.000    0.000    0.000 
#    0.000    0.000    0.000    0.000    0.000    0.000 
#
# Total GULP energy -371794.746092 kJ/mol
# GULP energy per Si atom -12393.158203 kJ/mol
# Density = 2.239468 g / cm^3
# Si number density = 22.445772 Si / 1000 Ang^3
#
#
#
# Elastic Constant Matrix: (Units=GPa)
#
#
# Indices 1 2 3 4 5 6 
#
# 1 75.6548 24.8573 15.2184 0.0000 0.0000 0.0000
# 2 24.8573 75.6548 15.2184 0.0000 0.0000 0.0000
# 3 15.2184 15.2184 88.2044 0.0000 0.0000 0.0000
# 4 0.0000 0.0000 0.0000 30.4515 0.0000 0.0000
# 5 0.0000 0.0000 0.0000 0.0000 30.4515 0.0000
# 6 0.0000 0.0000 0.0000 0.0000 0.0000 25.3987
#
#
#
# Elastic Compliance Matrix: (Units=1/GPa)
#
#
# Indices 1 2 3 4 5 6 
#
# 1 0.015092 -0.004594 -0.001811 0.000000 0.000000 0.000000
# 2 -0.004594 0.015092 -0.001811 0.000000 0.000000 0.000000
# 3 -0.001811 -0.001811 0.011962 0.000000 0.000000 0.000000
# 4 0.000000 0.000000 0.000000 0.032839 0.000000 0.000000
# 5 0.000000 0.000000 0.000000 0.000000 0.032839 0.000000
# 6 0.000000 0.000000 0.000000 0.000000 0.000000 0.039372
#
#
# Mechanical properties :
#
#
# Convention : Reuss Voigt Hill
#
# Bulk Modulus (GPa) = 38.89154 38.90026 38.89590
# Shear Modulus (GPa) = 29.03596 29.54166 29.28881
#
# Velocity S-wave (km/s) = 3.60057 3.63179 3.61622
# Velocity P-wave (km/s) = 5.88643 5.91227 5.89936
#
# Compressibility (1/GPa) = 0.02571253
#
# Stress axis : x y z
#
# Youngs Moduli (GPa) = 66.26127 66.26127 83.59601
#
# Poissons Ratio (x) = 0.30442 0.15141
# Poissons Ratio (y) = 0.30442 0.15141
# Poissons Ratio (z) = 0.12001 0.12001
#
# Static dielectric constant tensor:
#      x y z
#    x 4.170420 0.000000 0.000000 
#    y 0.000000 4.170420 0.000000 
#    z 0.000000 0.000000 4.064310 
# 
# 
# High freq. dielectric constant tensor:
#      x y z
#    x 1.880680 0.000000 0.000000 
#    y 0.000000 1.880680 0.000000 
#    z 0.000000 0.000000 1.892280 
# 
# From -- ./inp_files/184.got.cif
#   From: 2010.03.12/outbox.cif.g09.slc.cpg/sg169_cif.got.tgz:184.got - 2010.04.02 06:46:06.
