data_PCOD8324908
_publ_section_title
;
Structure prediction by ZEFSAII (Michael W. Deem and Ramdas Pophale) SiO2 
 PCOD8324908
Probable space group: P -6
;
_chemical_formula_sum "Si O2"
_cell_formula_units_Z 32
_cell_length_a 14.529794
_cell_length_b 14.529794
_cell_length_c 9.265882
_cell_angle_alpha 90.000000
_cell_angle_beta 90.000000
_cell_angle_gamma 120.000000
_cell_volume 1694.089345
_symmetry_space_group_name_H-M "P -6"
_symmetry_group_IT_number 174
_symmetry_cell_setting 'hexagonal'
loop_
_space_group_symop_operation_xyz
x,y,z
-x+y,-x,-z
-y,x-y,z
x,y,-z
-x+y,-x,z
-y,x-y,-z
loop_
_atom_site_type_symbol
_atom_site_label
_atom_site_fract_x
_atom_site_fract_y
_atom_site_fract_z
Si Si1 0.442219 0.563365 0.668324
Si Si2 0.326314 0.176720 0.670674
Si Si3 0.716565 0.249432 0.159645
Si Si4 0.333334 0.666668 0.172140
Si Si5 0.663023 0.920637 0.671117
Si Si6 0.674665 0.721015 0.668374
O O1 0.421013 0.576447 0.500000
O O2 0.420818 0.641224 0.766120
O O3 0.367053 0.441937 0.721260
O O4 0.567806 0.607013 0.693778
O O5 0.326942 0.171464 0.500000
O O6 0.446705 0.253170 0.717701
O O7 0.257939 0.230654 0.723903
O O8 0.282055 0.058293 0.736348
O O9 0.786075 0.378030 0.176764
O O10 0.736753 0.217240 0.000000
O O11 0.333334 0.666668 0.000000
O O12 0.660450 0.914296 0.500000
O O13 0.665186 0.818690 0.737803
O O14 0.695593 0.744636 0.500000
#
# Coordination Sequence:
#
# PCOD8324908 Si02
#       6
#     6   6   6   2   6   6
#     4  10  18  33  57  75 103 147 176 196 254 342
#     4  10  20  32  53  82 105 132 178 229 260 286
#     4   8  18  35  51  71 105 145 174 196 250 326
#     4  12  22  32  49  84 115 128 166 231 274 296
#     4   9  18  32  52  79 106 136 175 215 259 313
#     4   9  18  32  52  79 106 136 175 215 259 313
#
# _framework density 18.889206000000001
#
# number of rings (size 3 to 8) (size 9 to 14) (size 15 to 20)
#    0.375    2.250    1.875    0.562    2.625    0.750 
#    1.125    1.875    0.000    0.000    0.000    0.000 
#    0.000    0.000    0.000    0.000    0.000    0.000 
#
# Total GULP energy -396460.212545 kJ/mol
# GULP energy per Si atom -12389.381642 kJ/mol
# Density = 1.884621 g / cm^3
# Si number density = 18.889206 Si / 1000 Ang^3
#
#
#
# Elastic Constant Matrix: (Units=GPa)
#
#
# Indices 1 2 3 4 5 6 
#
# 1 93.0722 33.7485 17.8398 0.0000 0.0000 -0.0002
# 2 33.7485 93.0719 17.8398 0.0000 0.0000 -0.0003
# 3 17.8398 17.8398 23.9580 0.0000 0.0000 -0.0001
# 4 0.0000 0.0000 0.0000 8.8821 0.0000 0.0000
# 5 0.0000 0.0000 0.0000 0.0000 8.8821 0.0000
# 6 -0.0002 -0.0003 -0.0001 0.0000 0.0000 29.6614
#
#
#
# Elastic Compliance Matrix: (Units=1/GPa)
#
#
# Indices 1 2 3 4 5 6 
#
# 1 0.013416 -0.003441 -0.007428 0.000000 0.000000 0.000000
# 2 -0.003441 0.013416 -0.007428 0.000000 0.000000 0.000000
# 3 -0.007428 -0.007428 0.052801 0.000000 0.000000 0.000000
# 4 0.000000 0.000000 0.000000 0.112586 0.000000 0.000000
# 5 0.000000 0.000000 0.000000 0.000000 0.112586 0.000000
# 6 0.000000 0.000000 0.000000 0.000000 0.000000 0.033714
#
#
# Mechanical properties :
#
#
# Convention : Reuss Voigt Hill
#
# Bulk Modulus (GPa) = 23.23382 38.77313 31.00347
# Shear Modulus (GPa) = 12.83838 18.86340 15.85089
#
# Velocity S-wave (km/s) = 2.60987 3.16354 2.89995
# Velocity P-wave (km/s) = 4.62695 5.82368 5.25946
#
# Compressibility (1/GPa) = 0.04304071
#
# Stress axis : x y z
#
# Youngs Moduli (GPa) = 74.53932 74.53909 18.93897
#
# Poissons Ratio (x) = 0.25649 0.14067
# Poissons Ratio (y) = 0.25649 0.14067
# Poissons Ratio (z) = 0.55364 0.55364
#
# Static dielectric constant tensor:
#      x y z
#    x 3.635620 0.000010 0.000000 
#    y 0.000010 3.635620 0.000000 
#    z 0.000000 0.000000 2.917640 
# 
# 
# High freq. dielectric constant tensor:
#      x y z
#    x 1.730480 0.000000 0.000000 
#    y 0.000000 1.730480 0.000000 
#    z 0.000000 0.000000 1.678150 
# 
# From -- ./inp_files/320.got.cif
#   From: 2010.03.12/outbox.cif.g09.slc.cpg/sg174_cif.got.tgz:320.got - 2010.04.02 06:54:58.
