data_PCOD8324251
_publ_section_title
;
Structure prediction by ZEFSAII (Michael W. Deem and Ramdas Pophale) SiO2 
 PCOD8324251
Probable space group: R -3 M
;
_chemical_formula_sum "Si O2"
_cell_formula_units_Z 144
_cell_length_a 29.239110
_cell_length_b 29.239110
_cell_length_c 9.742420
_cell_angle_alpha 90.000000
_cell_angle_beta 90.000000
_cell_angle_gamma 120.000000
_cell_volume 7213.163530
_symmetry_space_group_name_H-M "R -3 M"
_symmetry_group_IT_number 166
_symmetry_cell_setting 'hexagonal'
loop_
_space_group_symop_operation_xyz
x,y,z
-y,x-y,z
-x+y,-x,z
x-y,-y,-z
-x,-x+y,-z
y,x,-z
-x,-y,-z
y,-x+y,-z
x-y,x,-z
-x+y,y,z
x,x-y,z
-y,-x,z
2/3+x,1/3+y,1/3+z
2/3-y,1/3+x-y,1/3+z
2/3-x+y,1/3-x,1/3+z
2/3+x-y,1/3-y,1/3-z
2/3-x,1/3-x+y,1/3-z
2/3+y,1/3+x,1/3-z
2/3-x,1/3-y,1/3-z
2/3+y,1/3-x+y,1/3-z
2/3+x-y,1/3+x,1/3-z
2/3-x+y,1/3+y,1/3+z
2/3+x,1/3+x-y,1/3+z
2/3-y,1/3-x,1/3+z
1/3+x,2/3+y,2/3+z
1/3-y,2/3+x-y,2/3+z
1/3-x+y,2/3-x,2/3+z
1/3+x-y,2/3-y,2/3-z
1/3-x,2/3-x+y,2/3-z
1/3+y,2/3+x,2/3-z
1/3-x,2/3-y,2/3-z
1/3+y,2/3-x+y,2/3-z
1/3+x-y,2/3+x,2/3-z
1/3-x+y,2/3+y,2/3+z
1/3+x,2/3+x-y,2/3+z
1/3-y,2/3-x,2/3+z
loop_
_atom_site_type_symbol
_atom_site_label
_atom_site_fract_x
_atom_site_fract_y
_atom_site_fract_z
Si Si1 0.240419 0.120210 0.899461
Si Si2 0.906035 0.636177 0.530472
Si Si3 0.393986 0.787971 0.817514
Si Si4 0.884123 0.942062 0.824617
Si Si5 0.958324 0.389796 0.612475
Si Si6 0.782747 0.217254 0.106411
O O1 0.271454 0.180477 0.856534
O O2 0.184154 0.092077 0.820056
O O3 0.238555 0.119278 0.063291
O O4 0.907076 0.666667 0.666667
O O5 0.925115 0.594347 0.555944
O O6 0.943925 0.679382 0.419102
O O7 0.392473 0.784945 0.654530
O O8 0.336386 0.757470 0.886482
O O9 0.829606 0.914803 0.743322
O O10 0.921941 0.416018 0.634335
O O11 0.000000 0.426352 0.500000
#
# Coordination Sequence:
#
# PCOD8324251 Si02
#       6
#    18  36  18  18  36  18
#     4  11  22  38  57  85 120 159 200 247 306 361
#     4  12  25  41  61  87 120 158 201 252 304 365
#     4   9  17  30  52  81 118 156 194 240 298 358
#     4   9  17  30  51  82 118 153 196 241 296 356
#     4  12  23  40  62  86 117 154 203 248 302 357
#     4  11  22  37  58  87 116 158 202 252 298 362
#
# _framework density 19.963501000000001
#
# number of rings (size 3 to 8) (size 9 to 14) (size 15 to 20)
#    0.000    1.000    2.500    6.250    0.000    3.000 
#    0.000    0.000    0.000    0.000    0.000    0.000 
#    0.000    0.000    0.000   14.750    0.000    4.750 
#
# Total GULP energy -595244.780860 kJ/mol
# GULP energy per Si atom -12400.932935 kJ/mol
# Density = 1.991806 g / cm^3
# Si number density = 19.963501 Si / 1000 Ang^3
#
#
#
# Elastic Constant Matrix: (Units=GPa)
#
#
# Indices 1 2 3 4 5 6 
#
# 1 128.3452 80.4975 21.8223 -1.3109 -0.1345 0.1336
# 2 80.4975 128.6054 21.9525 1.3103 0.0065 -0.0710
# 3 21.8223 21.9525 68.1207 0.0140 -0.0181 -0.1555
# 4 -1.3109 1.3103 0.0140 13.8392 0.0071 -0.0600
# 5 -0.1345 0.0065 -0.0181 0.0071 13.8629 -1.4457
# 6 0.1336 -0.0710 -0.1555 -0.0600 -1.4457 24.3179
#
#
#
# Elastic Compliance Matrix: (Units=1/GPa)
#
#
# Indices 1 2 3 4 5 6 
#
# 1 0.013051 -0.007911 -0.001632 0.001986 0.000117 -0.000093
# 2 -0.007911 0.013032 -0.001665 -0.001981 -0.000078 0.000061
# 3 -0.001632 -0.001665 0.015739 -0.000012 0.000017 0.000106
# 4 0.001986 -0.001981 -0.000012 0.072635 0.000000 0.000162
# 5 0.000117 -0.000078 0.000017 0.000000 0.072586 0.004314
# 6 -0.000093 0.000061 0.000106 0.000162 0.004314 0.041380
#
#
# Mechanical properties :
#
#
# Convention : Reuss Voigt Hill
#
# Bulk Modulus (GPa) = 51.52863 63.73510 57.63187
# Shear Modulus (GPa) = 19.43198 23.79060 21.61129
#
# Velocity S-wave (km/s) = 3.12328 3.45585 3.29377
# Velocity P-wave (km/s) = 6.23490 6.92236 6.58760
#
# Compressibility (1/GPa) = 0.01940669
#
# Stress axis : x y z
#
# Youngs Moduli (GPa) = 76.62206 76.73621 63.53464
#
# Poissons Ratio (x) = 0.60704 0.10370
# Poissons Ratio (y) = 0.60613 0.10578
# Poissons Ratio (z) = 0.12506 0.12776
#
# Static dielectric constant tensor:
#      x y z
#    x 3.944600 0.000750 0.000240 
#    y 0.000750 3.943770 0.000520 
#    z 0.000240 0.000520 3.427370 
# 
# 
# High freq. dielectric constant tensor:
#      x y z
#    x 1.797160 0.000000 -0.000020 
#    y 0.000000 1.797170 0.000000 
#    z -0.000020 0.000000 1.741080 
# 
# From -- ./inp_files/1889.got.cif
#   From: 2010.03.12/outbox.cif.g09.slc.cpg/sg166_1_cif.got.tgz:1889.got - 2010.04.02 06:38:31.
