data_PCOD8324365
_publ_section_title
;
Structure prediction by ZEFSAII (Michael W. Deem and Ramdas Pophale) SiO2 
 PCOD8324365
Probable space group: R -3 C 
;
_chemical_formula_sum "Si O2"
_cell_formula_units_Z 126
_cell_length_a 27.476277
_cell_length_b 27.476277
_cell_length_c 9.200428
_cell_angle_alpha 90.000000
_cell_angle_beta 90.000000
_cell_angle_gamma 120.000000
_cell_volume 6015.260429
_symmetry_space_group_name_H-M "R -3 C "
_symmetry_group_IT_number 167
_symmetry_cell_setting 'hexagonal'
loop_
_space_group_symop_operation_xyz
x,y,z
-y,x-y,z
-x+y,-x,z
x-y,-y,1/2-z
-x,-x+y,1/2-z
y,x,1/2-z
-x,-y,-z
y,-x+y,-z
x-y,x,-z
-x+y,y,1/2+z
x,x-y,1/2+z
-y,-x,1/2+z
2/3+x,1/3+y,1/3+z
2/3-y,1/3+x-y,1/3+z
2/3-x+y,1/3-x,1/3+z
2/3+x-y,1/3-y,5/6-z
2/3-x,1/3-x+y,5/6-z
2/3+y,1/3+x,5/6-z
2/3-x,1/3-y,1/3-z
2/3+y,1/3-x+y,1/3-z
2/3+x-y,1/3+x,1/3-z
2/3-x+y,1/3+y,5/6+z
2/3+x,1/3+x-y,5/6+z
2/3-y,1/3-x,5/6+z
1/3+x,2/3+y,2/3+z
1/3-y,2/3+x-y,2/3+z
1/3-x+y,2/3-x,2/3+z
1/3+x-y,2/3-y,1/6-z
1/3-x,2/3-x+y,1/6-z
1/3+y,2/3+x,1/6-z
1/3-x,2/3-y,2/3-z
1/3+y,2/3-x+y,2/3-z
1/3+x-y,2/3+x,2/3-z
1/3-x+y,2/3+y,1/6+z
1/3+x,2/3+x-y,1/6+z
1/3-y,2/3-x,1/6+z
loop_
_atom_site_type_symbol
_atom_site_label
_atom_site_fract_x
_atom_site_fract_y
_atom_site_fract_z
Si Si1 0.830504 0.300501 0.792766
Si Si2 0.245855 0.791519 0.010203
Si Si3 0.883695 0.666667 0.916667
Si Si4 0.658366 0.056923 0.423493
O O1 0.796478 0.258735 0.660832
O O2 0.794176 0.272902 0.938922
O O3 0.842169 0.363173 0.766551
O O4 0.892636 0.308262 0.808579
O O5 0.211675 0.824411 0.040682
O O6 0.906943 0.647605 0.780152
O O7 0.682093 0.015426 0.416667
O O8 0.666667 0.083898 0.583334
#
# Coordination Sequence:
#
# PCOD8324365 Si02
#       4
#    36  36  18  36
#     4  10  24  39  60  86 119 154 204 252 306 353
#     4  10  23  41  59  88 120 158 200 253 300 361
#     4  10  22  36  54  84 124 156 202 250 284 354
#     4  11  21  35  57  83 120 168 204 245 293 353
#
# _framework density 20.946725000000001
#
# number of rings (size 3 to 8) (size 9 to 14) (size 15 to 20)
#    0.000    1.714    1.429    1.714   14.000    1.143 
#    0.000    0.000    0.000    0.571    0.000    0.000 
#    0.000    0.000    0.000    0.000    0.000    0.000 
#
# Total GULP energy -520610.611769 kJ/mol
# GULP energy per Si atom -12395.490756 kJ/mol
# Density = 2.089905 g / cm^3
# Si number density = 20.946725 Si / 1000 Ang^3
#
#
#
# Elastic Constant Matrix: (Units=GPa)
#
#
# Indices 1 2 3 4 5 6 
#
# 1 51.5236 21.9589 14.5143 1.3964 -0.0218 -0.0107
# 2 21.9589 51.5346 14.5646 -1.3998 0.0088 -0.0065
# 3 14.5143 14.5646 80.6859 -0.0246 -0.0434 -0.0231
# 4 1.3964 -1.3998 -0.0246 36.8572 -0.0100 -0.0081
# 5 -0.0218 0.0088 -0.0434 -0.0100 36.8303 1.3801
# 6 -0.0107 -0.0065 -0.0231 -0.0081 1.3801 14.7795
#
#
#
# Elastic Compliance Matrix: (Units=1/GPa)
#
#
# Indices 1 2 3 4 5 6 
#
# 1 0.024294 -0.009644 -0.002630 -0.001288 0.000013 0.000007
# 2 -0.009644 0.024298 -0.002651 0.001286 -0.000014 0.000002
# 3 -0.002630 -0.002651 0.013345 0.000008 0.000014 0.000016
# 4 -0.001288 0.001286 0.000008 0.027229 0.000006 0.000014
# 5 0.000013 -0.000014 0.000014 0.000006 0.027247 -0.002544
# 6 0.000007 0.000002 0.000016 0.000014 -0.002544 0.067899
#
#
# Mechanical properties :
#
#
# Convention : Reuss Voigt Hill
#
# Bulk Modulus (GPa) = 31.16349 31.75775 31.46062
# Shear Modulus (GPa) = 22.23632 26.54048 24.38840
#
# Velocity S-wave (km/s) = 3.26170 3.56342 3.41589
# Velocity P-wave (km/s) = 5.39395 5.66787 5.53261
#
# Compressibility (1/GPa) = 0.03208883
#
# Stress axis : x y z
#
# Youngs Moduli (GPa) = 41.16186 41.15620 74.93262
#
# Poissons Ratio (x) = 0.39689 0.19706
# Poissons Ratio (y) = 0.39695 0.19863
# Poissons Ratio (z) = 0.10825 0.10910
#
# Static dielectric constant tensor:
#      x y z
#    x 3.580610 0.000000 0.000200 
#    y 0.000000 3.580680 0.000300 
#    z 0.000200 0.000300 -0.180810 
# 
# 
# High freq. dielectric constant tensor:
#      x y z
#    x 1.802780 0.000000 -0.000010 
#    y 0.000000 1.802780 0.000000 
#    z -0.000010 0.000000 1.829130 
# 
# From -- ./inp_files/650.got.cif
#   From: 2010.03.12/outbox.cif.g09.slc.cpg/sg167_1_cif.got.tgz:650.got - 2010.04.02 06:42:56.
