data_PCOD8324018
_publ_section_title
;
Structure prediction by ZEFSAII (Michael W. Deem and Ramdas Pophale) SiO2 
 PCOD8324018
Probable space group: R -3 M
;
_chemical_formula_sum "Si O2"
_cell_formula_units_Z 216
_cell_length_a 23.308306
_cell_length_b 23.308306
_cell_length_c 24.603624
_cell_angle_alpha 90.000000
_cell_angle_beta 90.000000
_cell_angle_gamma 120.000000
_cell_volume 11575.803211
_symmetry_space_group_name_H-M "R -3 M"
_symmetry_group_IT_number 166
_symmetry_cell_setting 'hexagonal'
loop_
_space_group_symop_operation_xyz
x,y,z
-y,x-y,z
-x+y,-x,z
x-y,-y,-z
-x,-x+y,-z
y,x,-z
-x,-y,-z
y,-x+y,-z
x-y,x,-z
-x+y,y,z
x,x-y,z
-y,-x,z
2/3+x,1/3+y,1/3+z
2/3-y,1/3+x-y,1/3+z
2/3-x+y,1/3-x,1/3+z
2/3+x-y,1/3-y,1/3-z
2/3-x,1/3-x+y,1/3-z
2/3+y,1/3+x,1/3-z
2/3-x,1/3-y,1/3-z
2/3+y,1/3-x+y,1/3-z
2/3+x-y,1/3+x,1/3-z
2/3-x+y,1/3+y,1/3+z
2/3+x,1/3+x-y,1/3+z
2/3-y,1/3-x,1/3+z
1/3+x,2/3+y,2/3+z
1/3-y,2/3+x-y,2/3+z
1/3-x+y,2/3-x,2/3+z
1/3+x-y,2/3-y,2/3-z
1/3-x,2/3-x+y,2/3-z
1/3+y,2/3+x,2/3-z
1/3-x,2/3-y,2/3-z
1/3+y,2/3-x+y,2/3-z
1/3+x-y,2/3+x,2/3-z
1/3-x+y,2/3+y,2/3+z
1/3+x,2/3+x-y,2/3+z
1/3-y,2/3-x,2/3+z
loop_
_atom_site_type_symbol
_atom_site_label
_atom_site_fract_x
_atom_site_fract_y
_atom_site_fract_z
Si Si1 0.458797 0.666825 0.467868
Si Si2 0.465825 0.401511 0.690532
Si Si3 0.203562 0.536376 0.340682
Si Si4 0.097956 0.765144 0.915301
Si Si5 0.087087 0.425629 0.829284
Si Si6 0.072334 0.791310 0.519017
O O1 0.428456 0.714228 0.478068
O O2 0.406096 0.593905 0.488727
O O3 0.473482 0.665943 0.404655
O O4 0.526245 0.695937 0.502373
O O5 0.537244 0.462757 0.676645
O O6 0.476118 0.337976 0.686892
O O7 0.418009 0.403145 0.643725
O O8 0.441738 0.404916 0.750543
O O9 0.264614 0.529228 0.319808
O O10 0.217111 0.608556 0.322556
O O11 0.160334 0.839667 0.910905
O O12 0.109651 0.716701 0.876272
O O13 0.029582 0.760361 0.895621
O O14 0.014739 0.415946 0.842391
O O15 0.133385 0.866616 0.506066
O O16 0.000000 0.780200 0.500000
#
# Coordination Sequence:
#
# PCOD8324018 Si02
#       6
#    36  36  36  36  36  36
#     4  10  18  29  48  78 116 150 180 216 264 322
#     4   9  19  35  54  76 106 141 180 227 275 326
#     4   9  16  27  46  74 105 137 173 217 270 326
#     4  10  18  32  56  83 109 141 183 225 271 323
#     4  11  19  33  53  82 109 145 183 227 271 323
#     4  11  24  42  59  79 110 148 187 231 285 334
#
# _framework density 18.659613
#
# number of rings (size 3 to 8) (size 9 to 14) (size 15 to 20)
#    0.000    2.000    3.333    2.833    0.000    2.667 
#    0.000    0.000    0.000    1.167    0.000    0.000 
#    0.000    0.000    0.000   12.667    0.000    0.000 
#
# Total GULP energy -892182.225802 kJ/mol
# GULP energy per Si atom -12391.419803 kJ/mol
# Density = 1.861714 g / cm^3
# Si number density = 18.659613 Si / 1000 Ang^3
#
#
#
# Elastic Constant Matrix: (Units=GPa)
#
#
# Indices 1 2 3 4 5 6 
#
# 1 80.5019 29.1240 8.5508 2.6583 0.0000 0.0000
# 2 29.1240 80.5019 8.5508 -2.6583 0.0000 0.0000
# 3 8.5508 8.5508 52.4163 0.0000 0.0000 0.0000
# 4 2.6583 -2.6583 0.0000 20.7260 0.0000 0.0000
# 5 0.0000 0.0000 0.0000 0.0000 20.7260 2.6583
# 6 0.0000 0.0000 0.0000 0.0000 2.6583 25.6889
#
#
#
# Elastic Compliance Matrix: (Units=1/GPa)
#
#
# Indices 1 2 3 4 5 6 
#
# 1 0.014543 -0.005183 -0.001527 -0.002530 0.000000 0.000000
# 2 -0.005183 0.014543 -0.001527 0.002530 0.000000 0.000000
# 3 -0.001527 -0.001527 0.019576 0.000000 0.000000 0.000000
# 4 -0.002530 0.002530 0.000000 0.048898 0.000000 0.000000
# 5 0.000000 0.000000 0.000000 0.000000 0.048898 -0.005060
# 6 0.000000 0.000000 0.000000 0.000000 -0.005060 0.039451
#
#
# Mechanical properties :
#
#
# Convention : Reuss Voigt Hill
#
# Bulk Modulus (GPa) = 31.06677 33.98569 32.52623
# Shear Modulus (GPa) = 23.46202 24.57448 24.01825
#
# Velocity S-wave (km/s) = 3.54979 3.63297 3.59162
# Velocity P-wave (km/s) = 5.78677 5.98757 5.88802
#
# Compressibility (1/GPa) = 0.03218874
#
# Stress axis : x y z
#
# Youngs Moduli (GPa) = 68.76262 68.76262 51.08234
#
# Poissons Ratio (x) = 0.35637 0.07800
# Poissons Ratio (y) = 0.35637 0.07800
# Poissons Ratio (z) = 0.10500 0.10500
#
# Static dielectric constant tensor:
#      x y z
#    x 3.437010 0.000000 0.000000 
#    y 0.000000 3.437010 0.000000 
#    z 0.000000 0.000000 3.223480 
# 
# 
# High freq. dielectric constant tensor:
#      x y z
#    x 1.720700 0.000000 0.000000 
#    y 0.000000 1.720700 0.000000 
#    z 0.000000 0.000000 1.694410 
# 
# From -- ./inp_files/9687.got.cif
#   From: 2010.03.12/outbox.cif.g09.slc.cpg/sg166_5_cif.got.tgz:9687.got - 2010.04.02 06:38:31.
