data_PCOD8324086
_publ_section_title
;
Structure prediction by ZEFSAII (Michael W. Deem and Ramdas Pophale) SiO2 
 PCOD8324086
Probable space group: R -3 M
;
_chemical_formula_sum "Si O2"
_cell_formula_units_Z 270
_cell_length_a 26.470233
_cell_length_b 26.470233
_cell_length_c 23.608827
_cell_angle_alpha 90.000000
_cell_angle_beta 90.000000
_cell_angle_gamma 120.000000
_cell_volume 14325.855614
_symmetry_space_group_name_H-M "R -3 M"
_symmetry_group_IT_number 166
_symmetry_cell_setting 'hexagonal'
loop_
_space_group_symop_operation_xyz
x,y,z
-y,x-y,z
-x+y,-x,z
x-y,-y,-z
-x,-x+y,-z
y,x,-z
-x,-y,-z
y,-x+y,-z
x-y,x,-z
-x+y,y,z
x,x-y,z
-y,-x,z
2/3+x,1/3+y,1/3+z
2/3-y,1/3+x-y,1/3+z
2/3-x+y,1/3-x,1/3+z
2/3+x-y,1/3-y,1/3-z
2/3-x,1/3-x+y,1/3-z
2/3+y,1/3+x,1/3-z
2/3-x,1/3-y,1/3-z
2/3+y,1/3-x+y,1/3-z
2/3+x-y,1/3+x,1/3-z
2/3-x+y,1/3+y,1/3+z
2/3+x,1/3+x-y,1/3+z
2/3-y,1/3-x,1/3+z
1/3+x,2/3+y,2/3+z
1/3-y,2/3+x-y,2/3+z
1/3-x+y,2/3-x,2/3+z
1/3+x-y,2/3-y,2/3-z
1/3-x,2/3-x+y,2/3-z
1/3+y,2/3+x,2/3-z
1/3-x,2/3-y,2/3-z
1/3+y,2/3-x+y,2/3-z
1/3+x-y,2/3+x,2/3-z
1/3-x+y,2/3+y,2/3+z
1/3+x,2/3+x-y,2/3+z
1/3-y,2/3-x,2/3+z
loop_
_atom_site_type_symbol
_atom_site_label
_atom_site_fract_x
_atom_site_fract_y
_atom_site_fract_z
Si Si1 0.880584 0.880584 0.000000
Si Si2 0.298621 0.819981 0.433239
Si Si3 0.116234 0.999909 0.564013
Si Si4 0.550882 0.561855 0.909905
Si Si5 0.799779 0.957516 0.666680
Si Si6 0.561457 0.551091 0.221621
Si Si7 0.341070 0.953886 0.299436
Si Si8 0.145242 0.630854 0.774883
O O1 0.842082 0.848397 0.943853
O O2 0.887577 0.943789 0.003161
O O3 0.245340 0.754661 0.432661
O O4 0.276635 0.864693 0.415583
O O5 0.345976 0.825035 0.387478
O O6 0.328075 0.835162 0.496218
O O7 0.124073 0.062037 0.580251
O O8 0.138514 0.000000 0.500000
O O9 0.154099 0.986141 0.607607
O O10 0.048076 0.951925 0.568862
O O11 0.500770 0.499231 0.932827
O O12 0.560994 0.557249 0.844123
O O13 0.608717 0.578008 0.944734
O O14 0.777910 0.888955 0.667559
O O15 0.745994 0.969187 0.673204
O O16 0.495684 0.504317 0.243666
O O17 0.590572 0.614684 0.247705
O O18 0.603760 0.526455 0.237314
O O19 0.340306 0.006973 0.333334
O O20 0.161857 0.580929 0.778098
#
# Coordination Sequence:
#
# PCOD8324086 Si02
#       8
#    18  36  36  36  36  36  36  36
#     4  10  19  32  52  82 114 142 173 218 274 334
#     4   9  17  35  57  79 107 143 184 228 275 326
#     4   9  18  33  53  77 107 147 192 235 277 325
#     4   9  19  36  58  83 107 137 184 233 276 322
#     4  11  23  36  51  77 113 148 185 229 280 330
#     4   9  19  37  58  79 107 141 179 229 278 326
#     4  12  23  35  53  81 108 145 181 222 274 330
#     4   8  17  33  56  81 106 138 180 223 268 325
#
# _framework density 18.847041999999998
#
# number of rings (size 3 to 8) (size 9 to 14) (size 15 to 20)
#    0.000    2.400    1.333    3.000    0.933    3.467 
#    0.000    2.667    0.000    0.267    0.000    1.867 
#    0.000    0.000    0.000    0.000    0.000    0.000 
#
# Total GULP energy -1115428.201346 kJ/mol
# GULP energy per Si atom -12393.646682 kJ/mol
# Density = 1.880415 g / cm^3
# Si number density = 18.847042 Si / 1000 Ang^3
#
#
#
# Elastic Constant Matrix: (Units=GPa)
#
#
# Indices 1 2 3 4 5 6 
#
# 1 71.9301 30.8045 40.2555 -3.7781 0.0000 0.0000
# 2 30.8045 71.9301 40.2555 3.7781 0.0000 0.0000
# 3 40.2555 40.2555 102.8131 0.0000 0.0000 0.0000
# 4 -3.7781 3.7781 0.0000 30.9191 0.0000 0.0000
# 5 0.0000 0.0000 0.0000 0.0000 30.9191 -3.7781
# 6 0.0000 0.0000 0.0000 0.0000 -3.7781 20.5628
#
#
#
# Elastic Compliance Matrix: (Units=1/GPa)
#
#
# Indices 1 2 3 4 5 6 
#
# 1 0.019458 -0.005416 -0.005498 0.003039 0.000000 0.000000
# 2 -0.005416 0.019458 -0.005498 -0.003039 0.000000 0.000000
# 3 -0.005498 -0.005498 0.014032 0.000000 0.000000 0.000000
# 4 0.003039 -0.003039 0.000000 0.033085 0.000000 0.000000
# 5 0.000000 0.000000 0.000000 0.000000 0.033085 0.006079
# 6 0.000000 0.000000 0.000000 0.000000 0.006079 0.049748
#
#
# Mechanical properties :
#
#
# Convention : Reuss Voigt Hill
#
# Bulk Modulus (GPa) = 49.69127 52.14491 50.91809
# Shear Modulus (GPa) = 23.99226 25.50406 24.74816
#
# Velocity S-wave (km/s) = 3.57178 3.68260 3.62761
# Velocity P-wave (km/s) = 6.59037 6.76827 6.67991
#
# Compressibility (1/GPa) = 0.02012426
#
# Stress axis : x y z
#
# Youngs Moduli (GPa) = 51.39153 51.39153 71.26573
#
# Poissons Ratio (x) = 0.27832 0.39184
# Poissons Ratio (y) = 0.27832 0.39184
# Poissons Ratio (z) = 0.28257 0.28257
#
# Static dielectric constant tensor:
#      x y z
#    x 3.354550 0.000000 0.000000 
#    y 0.000000 3.354550 0.000000 
#    z 0.000000 0.000000 3.762480 
# 
# 
# High freq. dielectric constant tensor:
#      x y z
#    x 1.716720 0.000000 0.000000 
#    y 0.000000 1.716720 0.000000 
#    z 0.000000 0.000000 1.742310 
# 
# From -- ./inp_files/8723.got.cif
#   From: 2010.03.12/outbox.cif.g09.slc.cpg/sg166_5_cif.got.tgz:8723.got - 2010.04.02 06:38:31.
