data_PCOD8324169
_publ_section_title
;
Structure prediction by ZEFSAII (Michael W. Deem and Ramdas Pophale) SiO2 
 PCOD8324169
Probable space group: R -3 M
;
_chemical_formula_sum "Si O2"
_cell_formula_units_Z 108
_cell_length_a 24.929240
_cell_length_b 24.929240
_cell_length_c 9.523679
_cell_angle_alpha 90.000000
_cell_angle_beta 90.000000
_cell_angle_gamma 120.000000
_cell_volume 5125.703234
_symmetry_space_group_name_H-M "R -3 M"
_symmetry_group_IT_number 166
_symmetry_cell_setting 'hexagonal'
loop_
_space_group_symop_operation_xyz
x,y,z
-y,x-y,z
-x+y,-x,z
x-y,-y,-z
-x,-x+y,-z
y,x,-z
-x,-y,-z
y,-x+y,-z
x-y,x,-z
-x+y,y,z
x,x-y,z
-y,-x,z
2/3+x,1/3+y,1/3+z
2/3-y,1/3+x-y,1/3+z
2/3-x+y,1/3-x,1/3+z
2/3+x-y,1/3-y,1/3-z
2/3-x,1/3-x+y,1/3-z
2/3+y,1/3+x,1/3-z
2/3-x,1/3-y,1/3-z
2/3+y,1/3-x+y,1/3-z
2/3+x-y,1/3+x,1/3-z
2/3-x+y,1/3+y,1/3+z
2/3+x,1/3+x-y,1/3+z
2/3-y,1/3-x,1/3+z
1/3+x,2/3+y,2/3+z
1/3-y,2/3+x-y,2/3+z
1/3-x+y,2/3-x,2/3+z
1/3+x-y,2/3-y,2/3-z
1/3-x,2/3-x+y,2/3-z
1/3+y,2/3+x,2/3-z
1/3-x,2/3-y,2/3-z
1/3+y,2/3-x+y,2/3-z
1/3+x-y,2/3+x,2/3-z
1/3-x+y,2/3+y,2/3+z
1/3+x,2/3+x-y,2/3+z
1/3-y,2/3-x,2/3+z
loop_
_atom_site_type_symbol
_atom_site_label
_atom_site_fract_x
_atom_site_fract_y
_atom_site_fract_z
Si Si1 0.455469 0.788701 0.826603
Si Si2 0.645717 0.089514 0.046625
Si Si3 0.094139 0.780403 0.552833
O O1 0.384271 0.768542 0.847940
O O2 0.463832 0.731916 0.871541
O O3 0.475896 0.809230 0.666667
O O4 0.498303 0.843769 0.928622
O O5 0.613544 0.046117 0.182204
O O6 0.712484 0.095349 0.015398
O O7 0.599653 0.063587 0.915134
O O8 0.161189 0.838812 0.593170
#
# Coordination Sequence:
#
# PCOD8324169 Si02
#       3
#    36  36  36
#     4  10  20  36  58  86 118 153 191 239 294 352
#     4  10  20  37  58  85 116 152 195 242 289 347
#     4  10  20  37  60  84 113 154 195 241 296 350
#
# _framework density 21.070278999999999
#
# number of rings (size 3 to 8) (size 9 to 14) (size 15 to 20)
#    0.000    2.000    0.000    5.333    0.000    1.333 
#   18.000    0.000    0.000    6.000    0.000   11.667 
#    0.000    0.000    0.000    0.000    0.000    0.000 
#
# Total GULP energy -446444.888746 kJ/mol
# GULP energy per Si atom -12401.246910 kJ/mol
# Density = 2.102232 g / cm^3
# Si number density = 21.070279 Si / 1000 Ang^3
#
#
#
# Elastic Constant Matrix: (Units=GPa)
#
#
# Indices 1 2 3 4 5 6 
#
# 1 132.8741 62.2164 31.3694 -8.8910 -0.0182 0.0068
# 2 62.2164 132.8830 31.3678 8.9045 -0.0146 0.0055
# 3 31.3694 31.3678 19.2769 -0.0044 -0.0511 0.0167
# 4 -8.8910 8.9045 -0.0044 25.9289 -0.0010 0.0015
# 5 -0.0182 -0.0146 -0.0511 -0.0010 25.8969 -8.8964
# 6 0.0068 0.0055 0.0167 0.0015 -8.8964 35.3272
#
#
#
# Elastic Compliance Matrix: (Units=1/GPa)
#
#
# Indices 1 2 3 4 5 6 
#
# 1 0.013121 -0.002369 -0.017495 0.005310 -0.000027 -0.000001
# 2 -0.002369 0.013122 -0.017498 -0.005322 -0.000029 0.000000
# 3 -0.017495 -0.017498 0.108819 0.000029 0.000194 0.000004
# 4 0.005310 -0.005322 0.000029 0.042215 0.000002 -0.000002
# 5 -0.000027 -0.000029 0.000194 0.000002 0.042272 0.010645
# 6 -0.000001 0.000000 0.000004 -0.000002 0.010645 0.030988
#
#
# Mechanical properties :
#
#
# Convention : Reuss Voigt Hill
#
# Bulk Modulus (GPa) = 16.57359 59.43793 38.00576
# Shear Modulus (GPa) = 14.47706 28.10264 21.28985
#
# Velocity S-wave (km/s) = 2.62407 3.65603 3.18216
# Velocity P-wave (km/s) = 4.13085 6.78916 5.61946
#
# Compressibility (1/GPa) = 0.06033695
#
# Stress axis : x y z
#
# Youngs Moduli (GPa) = 76.21414 76.20914 9.18956
#
# Poissons Ratio (x) = 0.18056 0.16077
# Poissons Ratio (y) = 0.18057 0.16080
# Poissons Ratio (z) = 1.33339 1.33350
#
# Static dielectric constant tensor:
#      x y z
#    x 3.888380 0.000000 -0.000020 
#    y 0.000000 3.888350 0.000010 
#    z -0.000020 0.000010 3.651160 
# 
# 
# High freq. dielectric constant tensor:
#      x y z
#    x 1.835040 0.000000 0.000000 
#    y 0.000000 1.835040 0.000000 
#    z 0.000000 0.000000 1.797000 
# 
# From -- ./inp_files/2543.got.cif
#   From: 2010.03.12/outbox.cif.g09.slc.cpg/sg166_2_cif.got.tgz:2543.got - 2010.04.02 06:38:31.
