data_PCOD8324153
_publ_section_title
;
Structure prediction by ZEFSAII (Michael W. Deem and Ramdas Pophale) SiO2 
 PCOD8324153
Probable space group: R -3 M
;
_chemical_formula_sum "Si O2"
_cell_formula_units_Z 234
_cell_length_a 27.541980
_cell_length_b 27.541980
_cell_length_c 20.428455
_cell_angle_alpha 90.000000
_cell_angle_beta 90.000000
_cell_angle_gamma 120.000000
_cell_volume 13420.122222
_symmetry_space_group_name_H-M "R -3 M"
_symmetry_group_IT_number 166
_symmetry_cell_setting 'hexagonal'
loop_
_space_group_symop_operation_xyz
x,y,z
-y,x-y,z
-x+y,-x,z
x-y,-y,-z
-x,-x+y,-z
y,x,-z
-x,-y,-z
y,-x+y,-z
x-y,x,-z
-x+y,y,z
x,x-y,z
-y,-x,z
2/3+x,1/3+y,1/3+z
2/3-y,1/3+x-y,1/3+z
2/3-x+y,1/3-x,1/3+z
2/3+x-y,1/3-y,1/3-z
2/3-x,1/3-x+y,1/3-z
2/3+y,1/3+x,1/3-z
2/3-x,1/3-y,1/3-z
2/3+y,1/3-x+y,1/3-z
2/3+x-y,1/3+x,1/3-z
2/3-x+y,1/3+y,1/3+z
2/3+x,1/3+x-y,1/3+z
2/3-y,1/3-x,1/3+z
1/3+x,2/3+y,2/3+z
1/3-y,2/3+x-y,2/3+z
1/3-x+y,2/3-x,2/3+z
1/3+x-y,2/3-y,2/3-z
1/3-x,2/3-x+y,2/3-z
1/3+y,2/3+x,2/3-z
1/3-x,2/3-y,2/3-z
1/3+y,2/3-x+y,2/3-z
1/3+x-y,2/3+x,2/3-z
1/3-x+y,2/3+y,2/3+z
1/3+x,2/3+x-y,2/3+z
1/3-y,2/3-x,2/3+z
loop_
_atom_site_type_symbol
_atom_site_label
_atom_site_fract_x
_atom_site_fract_y
_atom_site_fract_z
Si Si1 0.504172 0.607591 0.429276
Si Si2 0.731559 0.064892 0.166667
Si Si3 0.025078 0.275487 0.067268
Si Si4 0.504581 0.609731 0.847941
Si Si5 0.338008 0.111308 0.739720
Si Si6 0.422690 0.951599 0.296837
Si Si7 0.560845 0.833284 0.174354
O O1 0.439725 0.560276 0.440610
O O2 0.543809 0.590716 0.469022
O O3 0.510951 0.666503 0.455036
O O4 0.521329 0.614228 0.352930
O O5 0.684319 0.046774 0.222871
O O6 0.048117 0.239932 0.106225
O O7 0.073881 0.335264 0.043674
O O8 0.000000 0.241916 0.000000
O O9 0.440572 0.559429 0.854076
O O10 0.549181 0.598718 0.886710
O O11 0.341161 0.170581 0.738763
O O12 0.333334 0.087330 0.666667
O O13 0.394264 0.120108 0.775229
O O14 0.488870 0.977739 0.315328
O O15 0.413521 0.921092 0.228927
O O16 0.541123 0.770562 0.200071
O O17 0.506764 0.840097 0.166667
#
# Coordination Sequence:
#
# PCOD8324153 Si02
#       7
#    36  18  36  36  36  36  36
#     4  10  21  36  53  75 106 142 179 219 268 318
#     4  10  21  34  50  80 104 142 180 214 255 314
#     4  11  20  34  52  79 108 144 182 212 258 314
#     4  10  21  38  56  79 108 140 179 224 269 317
#     4   9  18  33  52  75 103 137 176 217 267 316
#     4  10  20  35  51  72 107 148 181 221 267 313
#     4  10  21  35  52  74 104 142 182 223 266 315
#
# _framework density 17.436502999999998
#
# number of rings (size 3 to 8) (size 9 to 14) (size 15 to 20)
#    0.000    2.000    3.077    0.692    3.231    0.000 
#    0.000    0.769    0.000    0.462    0.000    0.000 
#    0.000    0.615    0.000    0.000    0.000    0.000 
#
# Total GULP energy -966933.092232 kJ/mol
# GULP energy per Si atom -12396.578106 kJ/mol
# Density = 1.739682 g / cm^3
# Si number density = 17.436503 Si / 1000 Ang^3
#
#
#
# Elastic Constant Matrix: (Units=GPa)
#
#
# Indices 1 2 3 4 5 6 
#
# 1 94.9813 44.0643 35.5781 -0.9792 -0.0002 0.0000
# 2 44.0643 94.9813 35.5781 0.9792 0.0002 0.0000
# 3 35.5781 35.5781 121.7511 0.0000 0.0000 0.0000
# 4 -0.9792 0.9792 0.0000 24.9929 0.0000 0.0002
# 5 -0.0002 0.0002 0.0000 0.0000 24.9929 -0.9792
# 6 0.0000 0.0000 0.0000 0.0002 -0.9792 25.4585
#
#
#
# Elastic Compliance Matrix: (Units=1/GPa)
#
#
# Indices 1 2 3 4 5 6 
#
# 1 0.014063 -0.005606 -0.002471 0.000771 0.000000 0.000000
# 2 -0.005606 0.014063 -0.002471 -0.000771 0.000000 0.000000
# 3 -0.002471 -0.002471 0.009658 0.000000 0.000000 0.000000
# 4 0.000771 -0.000771 0.000000 0.040072 0.000000 0.000000
# 5 0.000000 0.000000 0.000000 0.000000 0.040072 0.001541
# 6 0.000000 0.000000 0.000000 0.000000 0.001541 0.039339
#
#
# Mechanical properties :
#
#
# Convention : Reuss Voigt Hill
#
# Bulk Modulus (GPa) = 59.93019 60.23941 60.08480
# Shear Modulus (GPa) = 27.18492 28.18843 27.68667
#
# Velocity S-wave (km/s) = 3.95280 4.02510 3.98912
# Velocity P-wave (km/s) = 7.43492 7.49832 7.46669
#
# Compressibility (1/GPa) = 0.01668608
#
# Stress axis : x y z
#
# Youngs Moduli (GPa) = 71.10875 71.10875 103.54409
#
# Poissons Ratio (x) = 0.39867 0.25587
# Poissons Ratio (y) = 0.39867 0.25587
# Poissons Ratio (z) = 0.17572 0.17572
#
# Static dielectric constant tensor:
#      x y z
#    x 2.749890 0.000000 0.000000 
#    y 0.000000 2.749890 0.000000 
#    z 0.000000 0.000000 3.420230 
# 
# 
# High freq. dielectric constant tensor:
#      x y z
#    x 1.649770 0.000000 0.000000 
#    y 0.000000 1.649770 0.000000 
#    z 0.000000 0.000000 1.693230 
# 
# From -- ./inp_files/7234.got.cif
#   From: 2010.03.12/outbox.cif.g09.slc.cpg/sg166_4_cif.got.tgz:7234.got - 2010.04.02 06:38:31.
