data_PCOD8324215
_publ_section_title
;
Structure prediction by ZEFSAII (Michael W. Deem and Ramdas Pophale) SiO2 
 PCOD8324215
Probable space group: R -3 M
;
_chemical_formula_sum "Si O2"
_cell_formula_units_Z 144
_cell_length_a 28.042841
_cell_length_b 28.042841
_cell_length_c 11.014847
_cell_angle_alpha 90.000000
_cell_angle_beta 90.000000
_cell_angle_gamma 120.000000
_cell_volume 7501.586473
_symmetry_space_group_name_H-M "R -3 M"
_symmetry_group_IT_number 166
_symmetry_cell_setting 'hexagonal'
loop_
_space_group_symop_operation_xyz
x,y,z
-y,x-y,z
-x+y,-x,z
x-y,-y,-z
-x,-x+y,-z
y,x,-z
-x,-y,-z
y,-x+y,-z
x-y,x,-z
-x+y,y,z
x,x-y,z
-y,-x,z
2/3+x,1/3+y,1/3+z
2/3-y,1/3+x-y,1/3+z
2/3-x+y,1/3-x,1/3+z
2/3+x-y,1/3-y,1/3-z
2/3-x,1/3-x+y,1/3-z
2/3+y,1/3+x,1/3-z
2/3-x,1/3-y,1/3-z
2/3+y,1/3-x+y,1/3-z
2/3+x-y,1/3+x,1/3-z
2/3-x+y,1/3+y,1/3+z
2/3+x,1/3+x-y,1/3+z
2/3-y,1/3-x,1/3+z
1/3+x,2/3+y,2/3+z
1/3-y,2/3+x-y,2/3+z
1/3-x+y,2/3-x,2/3+z
1/3+x-y,2/3-y,2/3-z
1/3-x,2/3-x+y,2/3-z
1/3+y,2/3+x,2/3-z
1/3-x,2/3-y,2/3-z
1/3+y,2/3-x+y,2/3-z
1/3+x-y,2/3+x,2/3-z
1/3-x+y,2/3+y,2/3+z
1/3+x,2/3+x-y,2/3+z
1/3-y,2/3-x,2/3+z
loop_
_atom_site_type_symbol
_atom_site_label
_atom_site_fract_x
_atom_site_fract_y
_atom_site_fract_z
Si Si1 0.667123 0.224676 0.971202
Si Si2 0.587300 0.067490 0.296245
Si Si3 0.272234 0.974443 0.624214
Si Si4 0.191450 0.985554 0.802381
O O1 0.607224 0.214448 0.008849
O O2 0.710348 0.289653 0.979386
O O3 0.687292 0.193968 0.062995
O O4 0.666667 0.204192 0.833334
O O5 0.522654 0.045307 0.283863
O O6 0.609114 0.101432 0.420970
O O7 0.618956 0.108299 0.185150
O O8 0.597185 0.016572 0.282755
O O9 0.228276 0.971683 0.717013
O O10 0.264763 0.000000 0.500000
O O11 0.333334 0.016159 0.666667
#
# Coordination Sequence:
#
# PCOD8324215 Si02
#       4
#    36  36  36  36
#     4  10  21  39  62  88 119 156 199 249 304 359
#     4  11  23  38  60  88 121 160 201 245 294 355
#     4  12  21  41  62  86 119 162 199 244 296 352
#     4  11  22  38  61  88 122 155 199 245 301 352
#
# _framework density 19.195938999999999
#
# number of rings (size 3 to 8) (size 9 to 14) (size 15 to 20)
#    0.000    1.000    5.000    3.250    0.000    4.000 
#    0.000    3.750    0.000    0.000    0.000    8.750 
#    0.000    0.000    0.000    0.000    0.000    0.000 
#
# Total GULP energy -595212.429317 kJ/mol
# GULP energy per Si atom -12400.258944 kJ/mol
# Density = 1.915225 g / cm^3
# Si number density = 19.195939 Si / 1000 Ang^3
#
#
#
# Elastic Constant Matrix: (Units=GPa)
#
#
# Indices 1 2 3 4 5 6 
#
# 1 47.4172 51.5650 29.0501 13.9663 0.0566 -0.0841
# 2 51.5650 47.3567 28.9361 -13.9730 -0.0310 0.0568
# 3 29.0501 28.9361 89.1599 -0.0226 0.0312 -0.0301
# 4 13.9663 -13.9730 -0.0226 22.0709 -0.0174 0.0324
# 5 0.0566 -0.0310 0.0312 -0.0174 22.0858 13.9155
# 6 -0.0841 0.0568 -0.0301 0.0324 13.9155 -1.9370
#
#
#
# Elastic Compliance Matrix: (Units=1/GPa)
#
#
# Indices 1 2 3 4 5 6 
#
# 1 -0.016637 0.029116 -0.004021 0.028956 -0.000222 0.000530
# 2 0.029116 -0.016624 -0.004099 -0.028952 0.000227 -0.000543
# 3 -0.004021 -0.004099 0.013856 -0.000036 0.000016 -0.000049
# 4 0.028956 -0.028952 -0.000036 0.008657 0.000204 -0.000495
# 5 -0.000222 0.000227 0.000016 0.000204 0.008191 0.058863
# 6 0.000530 -0.000543 -0.000049 -0.000495 0.058863 -0.093428
#
#
# Mechanical properties :
#
#
# Convention : Reuss Voigt Hill
#
# Bulk Modulus (GPa) = 44.27402 44.78181 44.52792
# Shear Modulus (GPa) = -38.32930 13.40276 -12.46327
#
# Velocity S-wave (km/s) = -4.47334 2.64523 -2.55083
# Velocity P-wave (km/s) = 1.88856 5.71919 3.81723
#
# Compressibility (1/GPa) = 0.02258661
#
# Stress axis : x y z
#
# Youngs Moduli (GPa) = -60.10529 -60.15404 72.17023
#
# Poissons Ratio (x) = 1.75143 0.29019
# Poissons Ratio (y) = 1.75001 0.29582
# Poissons Ratio (z) = -0.24167 -0.24657
#
# Static dielectric constant tensor:
#      x y z
#    x 3.495540 -0.000010 0.000010 
#    y -0.000010 3.495540 0.000020 
#    z 0.000010 0.000020 4.108620 
# 
# 
# High freq. dielectric constant tensor:
#      x y z
#    x 1.747960 0.000000 0.000000 
#    y 0.000000 1.747960 0.000000 
#    z 0.000000 0.000000 1.757420 
# 
# From -- ./inp_files/1801.got.cif
#   From: 2010.03.12/outbox.cif.g09.slc.cpg/sg166_1_cif.got.tgz:1801.got - 2010.04.02 06:38:31.
