data_PCOD8324400
_publ_section_title
;
Structure prediction by ZEFSAII (Michael W. Deem and Ramdas Pophale) SiO2 
 PCOD8324400
Probable space group: R -3 C 
;
_chemical_formula_sum "Si O2"
_cell_formula_units_Z 144
_cell_length_a 22.201742
_cell_length_b 22.201742
_cell_length_c 16.498749
_cell_angle_alpha 90.000000
_cell_angle_beta 90.000000
_cell_angle_gamma 120.000000
_cell_volume 7042.968570
_symmetry_space_group_name_H-M "R -3 C "
_symmetry_group_IT_number 167
_symmetry_cell_setting 'hexagonal'
loop_
_space_group_symop_operation_xyz
x,y,z
-y,x-y,z
-x+y,-x,z
x-y,-y,1/2-z
-x,-x+y,1/2-z
y,x,1/2-z
-x,-y,-z
y,-x+y,-z
x-y,x,-z
-x+y,y,1/2+z
x,x-y,1/2+z
-y,-x,1/2+z
2/3+x,1/3+y,1/3+z
2/3-y,1/3+x-y,1/3+z
2/3-x+y,1/3-x,1/3+z
2/3+x-y,1/3-y,5/6-z
2/3-x,1/3-x+y,5/6-z
2/3+y,1/3+x,5/6-z
2/3-x,1/3-y,1/3-z
2/3+y,1/3-x+y,1/3-z
2/3+x-y,1/3+x,1/3-z
2/3-x+y,1/3+y,5/6+z
2/3+x,1/3+x-y,5/6+z
2/3-y,1/3-x,5/6+z
1/3+x,2/3+y,2/3+z
1/3-y,2/3+x-y,2/3+z
1/3-x+y,2/3-x,2/3+z
1/3+x-y,2/3-y,1/6-z
1/3-x,2/3-x+y,1/6-z
1/3+y,2/3+x,1/6-z
1/3-x,2/3-y,2/3-z
1/3+y,2/3-x+y,2/3-z
1/3+x-y,2/3+x,2/3-z
1/3-x+y,2/3+y,1/6+z
1/3+x,2/3+x-y,1/6+z
1/3-y,2/3-x,1/6+z
loop_
_atom_site_type_symbol
_atom_site_label
_atom_site_fract_x
_atom_site_fract_y
_atom_site_fract_z
Si Si1 0.390404 0.466256 0.348835
Si Si2 0.065287 0.587687 0.918701
Si Si3 0.519090 0.592745 0.603152
Si Si4 0.802600 0.046959 0.536881
O O1 0.333334 0.427037 0.416667
O O2 0.446683 0.544676 0.376979
O O3 0.435034 0.427483 0.338369
O O4 0.349314 0.463784 0.267532
O O5 0.125696 0.666667 0.916667
O O6 0.994731 0.576083 0.876425
O O7 0.045779 0.568143 0.012752
O O8 0.437520 0.550527 0.626888
O O9 0.551899 0.675594 0.615749
#
# Coordination Sequence:
#
# PCOD8324400 Si02
#       4
#    36  36  36  36
#     4  11  19  39  61  82 121 161 189 242 309 363
#     4  11  23  37  60  90 122 158 201 248 304 374
#     4  11  23  38  59  91 120 159 201 248 307 361
#     4  11  23  39  60  89 124 159 200 250 306 366
#
# _framework density 20.445924000000002
#
# number of rings (size 3 to 8) (size 9 to 14) (size 15 to 20)
#    0.000    1.000    5.000    3.750    3.500    0.000 
#    0.000    0.000    0.000    1.000    6.500    0.000 
#    0.000    0.000    0.000    0.000    0.000    0.000 
#
# Total GULP energy -594925.523154 kJ/mol
# GULP energy per Si atom -12394.281732 kJ/mol
# Density = 2.039939 g / cm^3
# Si number density = 20.445924 Si / 1000 Ang^3
#
#
#
# Elastic Constant Matrix: (Units=GPa)
#
#
# Indices 1 2 3 4 5 6 
#
# 1 129.9640 58.8939 29.6050 -7.4734 0.0001 0.0000
# 2 58.8939 129.9640 29.6050 7.4734 -0.0001 0.0000
# 3 29.6050 29.6050 38.2952 0.0000 0.0000 0.0000
# 4 -7.4734 7.4734 0.0000 33.2869 0.0000 -0.0001
# 5 0.0001 -0.0001 0.0000 0.0000 33.2869 -7.4734
# 6 0.0000 0.0000 0.0000 -0.0001 -7.4734 35.5351
#
#
#
# Elastic Compliance Matrix: (Units=1/GPa)
#
#
# Indices 1 2 3 4 5 6 
#
# 1 0.010878 -0.003890 -0.005403 0.003316 0.000000 0.000000
# 2 -0.003890 0.010878 -0.005403 -0.003316 0.000000 0.000000
# 3 -0.005403 -0.005403 0.034467 0.000000 0.000000 0.000000
# 4 0.003316 -0.003316 0.000000 0.031531 0.000000 0.000000
# 5 0.000000 0.000000 0.000000 0.000000 0.031531 0.006631
# 6 0.000000 0.000000 0.000000 0.000000 0.006631 0.029536
#
#
# Mechanical properties :
#
#
# Convention : Reuss Voigt Hill
#
# Bulk Modulus (GPa) = 37.26793 59.38120 48.32456
# Shear Modulus (GPa) = 26.71577 32.42974 29.57276
#
# Velocity S-wave (km/s) = 3.61869 3.98694 3.80727
# Velocity P-wave (km/s) = 5.97721 7.09227 6.55848
#
# Compressibility (1/GPa) = 0.02683272
#
# Stress axis : x y z
#
# Youngs Moduli (GPa) = 91.92527 91.92527 29.01359
#
# Poissons Ratio (x) = 0.35754 0.15676
# Poissons Ratio (y) = 0.35754 0.15676
# Poissons Ratio (z) = 0.49666 0.49666
#
# Static dielectric constant tensor:
#      x y z
#    x 3.705540 0.000000 0.000000 
#    y 0.000000 3.705540 0.000000 
#    z 0.000000 0.000000 4.045910 
# 
# 
# High freq. dielectric constant tensor:
#      x y z
#    x 1.786040 0.000000 0.000000 
#    y 0.000000 1.786040 0.000000 
#    z 0.000000 0.000000 1.811280 
# 
# From -- ./inp_files/3318.got.cif
#   From: 2010.03.12/outbox.cif.g09.slc.cpg/sg167_2_cif.got.tgz:3318.got - 2010.04.02 06:42:56.
