data_PCOD8324961
_publ_section_title
;
Structure prediction by ZEFSAII (Michael W. Deem and Ramdas Pophale) SiO2 
 PCOD8324961
Probable space group: P -6
;
_chemical_formula_sum "Si O2"
_cell_formula_units_Z 42
_cell_length_a 8.564621
_cell_length_b 8.564621
_cell_length_c 32.237083
_cell_angle_alpha 90.000000
_cell_angle_beta 90.000000
_cell_angle_gamma 120.000000
_cell_volume 2047.871339
_symmetry_space_group_name_H-M "P -6"
_symmetry_group_IT_number 174
_symmetry_cell_setting 'hexagonal'
loop_
_space_group_symop_operation_xyz
x,y,z
-x+y,-x,-z
-y,x-y,z
x,y,-z
-x+y,-x,z
-y,x-y,-z
loop_
_atom_site_type_symbol
_atom_site_label
_atom_site_fract_x
_atom_site_fract_y
_atom_site_fract_z
Si Si1 0.525498 0.874631 0.500000
Si Si2 0.208777 0.016805 0.712137
Si Si3 0.330302 0.006660 0.377807
Si Si4 0.786129 0.972098 0.000000
Si Si5 0.338150 0.342684 0.589048
Si Si6 0.667548 0.658460 0.878682
Si Si7 0.667540 0.989094 0.088322
Si Si8 0.859250 0.318323 0.211911
O O1 0.517616 0.680648 0.500000
O O2 0.630386 0.990542 0.539791
O O3 0.316724 0.023869 0.671247
O O4 0.015179 0.830676 0.713194
O O5 0.331046 0.025289 0.750568
O O6 0.200386 0.804810 0.393712
O O7 0.273058 0.135981 0.401218
O O8 0.534150 0.061977 0.388176
O O9 0.835995 0.811533 0.000000
O O10 0.663232 0.953244 0.960667
O O11 0.527409 0.468974 0.899630
O O12 0.607632 0.805644 0.886531
O O13 0.684356 0.641409 0.829816
O O14 0.861292 0.730263 0.899494
O O15 0.850637 0.503622 0.213787
#
# Coordination Sequence:
#
# PCOD8324961 Si02
#       8
#     3   6   6   3   6   6   6   6
#     4  10  20  42  66 100 130 174 232 280 346 400
#     4  10  23  41  65 100 135 173 227 277 336 412
#     4  12  24  45  65 105 135 186 224 280 345 410
#     4  10  20  42  66 104 130 176 232 276 346 410
#     4  12  24  42  72  94 142 180 225 286 338 407
#     4  12  24  45  65 105 133 188 222 282 343 412
#     4  12  24  42  72  94 143 177 228 284 340 406
#     4  10  23  41  65  98 136 173 226 279 336 406
#
# _framework density 20.509101999999999
#
# number of rings (size 3 to 8) (size 9 to 14) (size 15 to 20)
#    0.857    0.000    5.714    1.714    4.000    2.286 
#    0.000    0.000    0.000    0.571    0.000    0.000 
#    0.000    0.000    0.000    0.000    0.000    0.000 
#
# Total GULP energy -520915.553047 kJ/mol
# GULP energy per Si atom -12402.751263 kJ/mol
# Density = 2.046242 g / cm^3
# Si number density = 20.509102 Si / 1000 Ang^3
#
#
#
# Elastic Constant Matrix: (Units=GPa)
#
#
# Indices 1 2 3 4 5 6 
#
# 1 72.2955 11.1070 49.7667 0.0000 0.0000 0.0000
# 2 11.1070 72.2955 49.7667 0.0000 0.0000 0.0000
# 3 49.7667 49.7667 209.8374 0.0000 0.0000 0.0000
# 4 0.0000 0.0000 0.0000 27.9033 0.0000 0.0000
# 5 0.0000 0.0000 0.0000 0.0000 27.9033 0.0000
# 6 0.0000 0.0000 0.0000 0.0000 0.0000 30.5942
#
#
#
# Elastic Compliance Matrix: (Units=1/GPa)
#
#
# Indices 1 2 3 4 5 6 
#
# 1 0.016533 0.000190 -0.003966 0.000000 0.000000 0.000000
# 2 0.000190 0.016533 -0.003966 0.000000 0.000000 0.000000
# 3 -0.003966 -0.003966 0.006647 0.000000 0.000000 0.000000
# 4 0.000000 0.000000 0.000000 0.035838 0.000000 0.000000
# 5 0.000000 0.000000 0.000000 0.000000 0.035838 0.000000
# 6 0.000000 0.000000 0.000000 0.000000 0.000000 0.032686
#
#
# Mechanical properties :
#
#
# Convention : Reuss Voigt Hill
#
# Bulk Modulus (GPa) = 41.27332 63.96768 52.62050
# Shear Modulus (GPa) = 29.82653 33.53272 31.67962
#
# Velocity S-wave (km/s) = 3.81767 4.04792 3.93448
# Velocity P-wave (km/s) = 6.29293 7.28733 6.80831
#
# Compressibility (1/GPa) = 0.02422873
#
# Stress axis : x y z
#
# Youngs Moduli (GPa) = 60.48444 60.48444 150.44539
#
# Poissons Ratio (x) = -0.01151 0.59670
# Poissons Ratio (y) = -0.01151 0.59670
# Poissons Ratio (z) = 0.23990 0.23990
#
# Static dielectric constant tensor:
#      x y z
#    x 3.490670 0.000000 0.000000 
#    y 0.000000 3.490670 0.000000 
#    z 0.000000 0.000000 3.639960 
# 
# 
# High freq. dielectric constant tensor:
#      x y z
#    x 1.791690 0.000000 0.000000 
#    y 0.000000 1.791690 0.000000 
#    z 0.000000 0.000000 1.813520 
# 
# From -- ./inp_files/1102.got.cif
#   From: 2010.03.12/outbox.cif.g09.slc.cpg/sg174_cif.got.tgz:1102.got - 2010.04.02 06:54:58.
