data_PCOD8324353
_publ_section_title
;
Structure prediction by ZEFSAII (Michael W. Deem and Ramdas Pophale) SiO2 
 PCOD8324353
Probable space group: R -3 C 
;
_chemical_formula_sum "Si O2"
_cell_formula_units_Z 120
_cell_length_a 17.013597
_cell_length_b 17.013597
_cell_length_c 21.587910
_cell_angle_alpha 90.000000
_cell_angle_beta 90.000000
_cell_angle_gamma 120.000000
_cell_volume 5411.697510
_symmetry_space_group_name_H-M "R -3 C "
_symmetry_group_IT_number 167
_symmetry_cell_setting 'hexagonal'
loop_
_space_group_symop_operation_xyz
x,y,z
-y,x-y,z
-x+y,-x,z
x-y,-y,1/2-z
-x,-x+y,1/2-z
y,x,1/2-z
-x,-y,-z
y,-x+y,-z
x-y,x,-z
-x+y,y,1/2+z
x,x-y,1/2+z
-y,-x,1/2+z
2/3+x,1/3+y,1/3+z
2/3-y,1/3+x-y,1/3+z
2/3-x+y,1/3-x,1/3+z
2/3+x-y,1/3-y,5/6-z
2/3-x,1/3-x+y,5/6-z
2/3+y,1/3+x,5/6-z
2/3-x,1/3-y,1/3-z
2/3+y,1/3-x+y,1/3-z
2/3+x-y,1/3+x,1/3-z
2/3-x+y,1/3+y,5/6+z
2/3+x,1/3+x-y,5/6+z
2/3-y,1/3-x,5/6+z
1/3+x,2/3+y,2/3+z
1/3-y,2/3+x-y,2/3+z
1/3-x+y,2/3-x,2/3+z
1/3+x-y,2/3-y,1/6-z
1/3-x,2/3-x+y,1/6-z
1/3+y,2/3+x,1/6-z
1/3-x,2/3-y,2/3-z
1/3+y,2/3-x+y,2/3-z
1/3+x-y,2/3+x,2/3-z
1/3-x+y,2/3+y,1/6+z
1/3+x,2/3+x-y,1/6+z
1/3-y,2/3-x,1/6+z
loop_
_atom_site_type_symbol
_atom_site_label
_atom_site_fract_x
_atom_site_fract_y
_atom_site_fract_z
Si Si1 0.980177 0.630418 0.978474
Si Si2 0.666667 0.333334 0.759131
Si Si3 0.397299 0.845192 0.809817
Si Si4 0.089824 0.333334 0.583334
Si Si5 0.517906 0.666667 0.416667
O O1 0.954866 0.666667 0.916667
O O2 0.884385 0.545490 0.998976
O O3 0.058640 0.605134 0.960172
O O4 0.018103 0.712709 0.027386
O O5 0.666668 0.333335 0.833334
O O6 0.581638 0.242523 0.732448
O O7 0.481344 0.915699 0.768711
O O8 0.431543 0.824162 0.873846
#
# Coordination Sequence:
#
# PCOD8324353 Si02
#       5
#    36  12  36  18  18
#     4   9  20  37  67  99 116 172 221 266 320 368
#     4  12  33  40  62  97 132 177 211 257 352 414
#     4  11  23  45  64  95 140 169 209 279 324 392
#     4  10  21  40  71  96 128 170 220 278 311 382
#     4   8  21  40  67  94 118 176 222 248 333 382
#
# _framework density 22.174187
#
# number of rings (size 3 to 8) (size 9 to 14) (size 15 to 20)
#    0.900    1.200    1.500    0.000    4.200    6.000 
#    0.000    6.000    0.000    0.000    0.000    0.000 
#    0.000    0.000    0.000    0.000    0.000    0.000 
#
# Total GULP energy -495568.626490 kJ/mol
# GULP energy per Si atom -12389.215662 kJ/mol
# Density = 2.212372 g / cm^3
# Si number density = 22.174187 Si / 1000 Ang^3
#
#
#
# Elastic Constant Matrix: (Units=GPa)
#
#
# Indices 1 2 3 4 5 6 
#
# 1 69.3706 15.2515 15.2545 -2.2951 0.0003 0.0000
# 2 15.2515 69.3714 15.2549 2.2946 -0.0003 0.0000
# 3 15.2545 15.2549 104.2012 0.0001 0.0000 0.0000
# 4 -2.2951 2.2946 0.0001 28.0974 0.0000 -0.0003
# 5 0.0003 -0.0003 0.0000 0.0000 28.0973 -2.2949
# 6 0.0000 0.0000 0.0000 -0.0003 -2.2949 27.0600
#
#
#
# Elastic Compliance Matrix: (Units=1/GPa)
#
#
# Indices 1 2 3 4 5 6 
#
# 1 0.015541 -0.003065 -0.001826 0.001520 0.000000 0.000000
# 2 -0.003065 0.015541 -0.001826 -0.001520 0.000000 0.000000
# 3 -0.001826 -0.001826 0.010132 0.000000 0.000000 0.000000
# 4 0.001520 -0.001520 0.000000 0.035839 0.000000 0.000000
# 5 0.000000 0.000000 0.000000 0.000000 0.035839 0.003039
# 6 0.000000 0.000000 0.000000 0.000000 0.003039 0.037213
#
#
# Mechanical properties :
#
#
# Convention : Reuss Voigt Hill
#
# Bulk Modulus (GPa) = 36.00056 37.16276 36.58166
# Shear Modulus (GPa) = 28.93525 29.79642 29.36583
#
# Velocity S-wave (km/s) = 3.61627 3.66969 3.64308
# Velocity P-wave (km/s) = 5.80578 5.89503 5.85057
#
# Compressibility (1/GPa) = 0.02777734
#
# Stress axis : x y z
#
# Youngs Moduli (GPa) = 64.34521 64.34590 98.70136
#
# Poissons Ratio (x) = 0.19725 0.18027
# Poissons Ratio (y) = 0.19724 0.18027
# Poissons Ratio (z) = 0.11752 0.11752
#
# Static dielectric constant tensor:
#      x y z
#    x 3.765630 0.000000 0.000000 
#    y 0.000000 3.765640 0.000010 
#    z 0.000000 0.000010 4.150440 
# 
# 
# High freq. dielectric constant tensor:
#      x y z
#    x 1.859270 0.000000 0.000000 
#    y 0.000000 1.859270 0.000000 
#    z 0.000000 0.000000 1.884940 
# 
# From -- ./inp_files/5133.got.cif
#   From: 2010.03.12/outbox.cif.g09.slc.cpg/sg167_3_cif.got.tgz:5133.got - 2010.04.02 06:42:56.
