data_PCOD8324835
_publ_section_title
;
Structure prediction by ZEFSAII (Michael W. Deem and Ramdas Pophale) SiO2 
 PCOD8324835
Probable space group: P 63
;
_chemical_formula_sum "Si O2"
_cell_formula_units_Z 48
_cell_length_a 19.120467
_cell_length_b 19.120467
_cell_length_c 8.277352
_cell_angle_alpha 90.000000
_cell_angle_beta 90.000000
_cell_angle_gamma 120.000000
_cell_volume 2620.710487
_symmetry_space_group_name_H-M "P 63"
_symmetry_group_IT_number 173
_symmetry_cell_setting 'hexagonal'
loop_
_space_group_symop_operation_xyz
x,y,z
x-y,x,1/2+z
-y,x-y,z
-x,-y,1/2+z
-x+y,-x,z
y,-x+y,1/2+z
loop_
_atom_site_type_symbol
_atom_site_label
_atom_site_fract_x
_atom_site_fract_y
_atom_site_fract_z
Si Si1 0.091545 0.457056 0.262060
Si Si2 0.374729 0.053473 0.073112
Si Si3 0.254725 0.080643 0.871988
Si Si4 0.238486 0.162901 0.172094
Si Si5 0.618361 0.530454 0.775092
Si Si6 0.801513 0.210347 0.667904
Si Si7 0.664102 0.884916 0.869860
Si Si8 0.671589 0.028679 0.069567
O O1 0.093229 0.540091 0.233866
O O2 0.177861 0.467610 0.221823
O O3 0.071850 0.430597 0.446933
O O4 0.031051 0.388853 0.141295
O O5 0.389731 0.115109 0.219470
O O6 0.296718 0.038091 0.969142
O O7 0.456207 0.092092 0.966618
O O8 0.325708 0.155610 0.773279
O O9 0.188624 0.013305 0.747130
O O10 0.211940 0.113567 0.999504
O O11 0.253083 0.108954 0.304273
O O12 0.328407 0.240808 0.146055
O O13 0.693991 0.533832 0.686464
O O14 0.609077 0.604719 0.709441
O O15 0.805152 0.191406 0.478638
O O16 0.686169 0.960358 0.986968
#
# Coordination Sequence:
#
# PCOD8324835 Si02
#       8
#     6   6   6   6   6   6   6   6
#     4  11  20  32  54  78 106 150 184 230 290 329
#     4   9  18  32  52  79 104 139 177 236 287 333
#     4  10  19  33  55  78 119 140 183 233 292 343
#     4  11  18  34  53  82 114 148 173 240 288 338
#     4  10  20  35  49  76 114 142 187 233 278 343
#     4  10  19  33  51  78 105 148 185 237 276 336
#     4   9  19  31  54  79 111 132 176 229 280 338
#     4  10  19  34  54  82 111 139 185 230 283 336
#
# _framework density 18.315643999999999
#
# number of rings (size 3 to 8) (size 9 to 14) (size 15 to 20)
#    0.000    2.000    5.000    1.500    0.000    0.000 
#    0.750    0.000    0.000    0.000    0.000    0.000 
#   12.500    0.000    0.000    0.000    0.000    0.000 
#
# Total GULP energy -594824.934070 kJ/mol
# GULP energy per Si atom -12392.186126 kJ/mol
# Density = 1.827396 g / cm^3
# Si number density = 18.315644 Si / 1000 Ang^3
#
#
#
# Elastic Constant Matrix: (Units=GPa)
#
#
# Indices 1 2 3 4 5 6 
#
# 1 69.5760 27.3791 31.6129 0.0000 0.0000 0.0000
# 2 27.3791 69.5760 31.6129 0.0000 0.0000 0.0000
# 3 31.6129 31.6129 104.0748 0.0000 0.0000 0.0000
# 4 0.0000 0.0000 0.0000 22.4500 0.0000 0.0000
# 5 0.0000 0.0000 0.0000 0.0000 22.4500 0.0000
# 6 0.0000 0.0000 0.0000 0.0000 0.0000 21.0984
#
#
#
# Elastic Compliance Matrix: (Units=1/GPa)
#
#
# Indices 1 2 3 4 5 6 
#
# 1 0.018280 -0.005418 -0.003907 0.000000 0.000000 0.000000
# 2 -0.005418 0.018280 -0.003907 0.000000 0.000000 0.000000
# 3 -0.003907 -0.003907 0.011982 0.000000 0.000000 0.000000
# 4 0.000000 0.000000 0.000000 0.044543 0.000000 0.000000
# 5 0.000000 0.000000 0.000000 0.000000 0.044543 0.000000
# 6 0.000000 0.000000 0.000000 0.000000 0.000000 0.047397
#
#
# Mechanical properties :
#
#
# Convention : Reuss Voigt Hill
#
# Bulk Modulus (GPa) = 45.29351 47.15960 46.22656
# Shear Modulus (GPa) = 22.84681 23.37448 23.11064
#
# Velocity S-wave (km/s) = 3.53568 3.57627 3.55603
# Velocity P-wave (km/s) = 6.43825 6.54654 6.49262
#
# Compressibility (1/GPa) = 0.02207822
#
# Stress axis : x y z
#
# Youngs Moduli (GPa) = 54.70437 54.70437 83.45961
#
# Poissons Ratio (x) = 0.29641 0.32606
# Poissons Ratio (y) = 0.29641 0.32606
# Poissons Ratio (z) = 0.21372 0.21372
#
# Static dielectric constant tensor:
#      x y z
#    x 3.145560 0.000000 0.000000 
#    y 0.000000 3.145560 0.000000 
#    z 0.000000 0.000000 3.786370 
# 
# 
# High freq. dielectric constant tensor:
#      x y z
#    x 1.678950 0.000000 0.000000 
#    y 0.000000 1.678950 0.000000 
#    z 0.000000 0.000000 1.734430 
# 
# From -- ./inp_files/660.got.cif
#   From: 2010.03.12/outbox.cif.g09.slc.cpg/sg173_cif.got.tgz:660.got - 2010.04.02 06:54:12.
