data_PCOD8324435
_publ_section_title
;
Structure prediction by ZEFSAII (Michael W. Deem and Ramdas Pophale) SiO2 
 PCOD8324435
Probable space group: P 6
;
_chemical_formula_sum "Si O2"
_cell_formula_units_Z 42
_cell_length_a 15.358107
_cell_length_b 15.358107
_cell_length_c 11.076480
_cell_angle_alpha 90.000000
_cell_angle_beta 90.000000
_cell_angle_gamma 120.000000
_cell_volume 2262.599972
_symmetry_space_group_name_H-M "P 6"
_symmetry_group_IT_number 168
_symmetry_cell_setting 'hexagonal'
loop_
_space_group_symop_operation_xyz
x,y,z
x-y,x,z
-y,x-y,z
-x,-y,z
-x+y,-x,z
y,-x+y,z
loop_
_atom_site_type_symbol
_atom_site_label
_atom_site_fract_x
_atom_site_fract_y
_atom_site_fract_z
Si Si1 0.775672 0.871450 0.926550
Si Si2 0.224328 0.128550 0.639737
Si Si3 0.223370 0.450910 0.642969
Si Si4 0.556833 0.117206 0.538734
Si Si5 0.556833 0.117206 0.027553
Si Si6 0.549090 0.772459 0.923318
Si Si7 0.590116 0.385468 0.283144
O O1 0.838081 0.821658 0.980042
O O2 0.783413 0.875999 0.783143
O O3 0.660689 0.803835 0.967662
O O4 0.161919 0.178342 0.586245
O O5 0.339311 0.196165 0.598626
O O6 0.322918 0.485100 0.565777
O O7 0.176429 0.522019 0.622181
O O8 0.250331 0.452932 0.783144
O O9 0.587926 0.133518 0.398815
O O10 0.500000 0.000000 0.570995
O O11 0.587926 0.133518 0.167472
O O12 0.500000 0.000000 0.995292
O O13 0.485100 0.162181 0.000510
O O14 0.654411 0.176429 0.944107
O O15 0.553246 0.265886 0.283144
#
# Coordination Sequence:
#
# PCOD8324435 Si02
#       7
#     6   6   6   6   6   6   6
#     4   9  17  30  48  71 102 140 180 218 256 304
#     4   9  17  30  48  71 102 140 180 218 256 304
#     4  11  22  36  53  81 119 152 183 224 271 336
#     4  12  23  38  61  84 111 150 192 237 289 339
#     4  12  23  38  61  84 111 150 192 237 289 339
#     4  11  22  36  53  81 119 152 183 224 271 336
#     4  10  19  42  64  78 108 146 186 246 299 334
#
# _framework density 18.562716000000002
#
# number of rings (size 3 to 8) (size 9 to 14) (size 15 to 20)
#    0.286    1.143    2.857    3.857    0.000    5.714 
#    0.000    0.000    0.000    0.000    0.000    0.000 
#    0.000    0.000    0.000   12.286    0.000    5.429 
#
# Total GULP energy -520924.014971 kJ/mol
# GULP energy per Si atom -12402.952737 kJ/mol
# Density = 1.852047 g / cm^3
# Si number density = 18.562716 Si / 1000 Ang^3
#
#
#
# Elastic Constant Matrix: (Units=GPa)
#
#
# Indices 1 2 3 4 5 6 
#
# 1 80.6788 4.0837 18.2050 0.0000 0.0000 0.0000
# 2 4.0837 80.6788 18.2050 0.0000 0.0000 0.0000
# 3 18.2050 18.2050 43.3406 0.0000 0.0000 0.0000
# 4 0.0000 0.0000 0.0000 5.8777 0.0000 0.0000
# 5 0.0000 0.0000 0.0000 0.0000 5.8777 0.0000
# 6 0.0000 0.0000 0.0000 0.0000 0.0000 38.2976
#
#
#
# Elastic Compliance Matrix: (Units=1/GPa)
#
#
# Indices 1 2 3 4 5 6 
#
# 1 0.013725 0.000670 -0.006047 0.000000 0.000000 0.000000
# 2 0.000670 0.013725 -0.006047 0.000000 0.000000 0.000000
# 3 -0.006047 -0.006047 0.028153 0.000000 0.000000 0.000000
# 4 0.000000 0.000000 0.000000 0.170134 0.000000 0.000000
# 5 0.000000 0.000000 0.000000 0.000000 0.170134 0.000000
# 6 0.000000 0.000000 0.000000 0.000000 0.000000 0.026111
#
#
# Mechanical properties :
#
#
# Convention : Reuss Voigt Hill
#
# Bulk Modulus (GPa) = 30.52832 31.74286 31.13559
# Shear Modulus (GPa) = 10.97098 20.95758 15.96428
#
# Velocity S-wave (km/s) = 2.43373 3.36373 2.93579
# Velocity P-wave (km/s) = 4.93752 5.67659 5.31991
#
# Compressibility (1/GPa) = 0.03275647
#
# Stress axis : x y z
#
# Youngs Moduli (GPa) = 72.85805 72.85805 35.52058
#
# Poissons Ratio (x) = -0.04879 0.21478
# Poissons Ratio (y) = -0.04879 0.21478
# Poissons Ratio (z) = 0.44054 0.44054
#
# Static dielectric constant tensor:
#      x y z
#    x 3.491340 0.000000 0.000000 
#    y 0.000000 3.491340 0.000000 
#    z 0.000000 0.000000 3.030100 
# 
# 
# High freq. dielectric constant tensor:
#      x y z
#    x 1.728790 0.000000 0.000000 
#    y 0.000000 1.728790 0.000000 
#    z 0.000000 0.000000 1.683230 
# 
# From -- ./inp_files/417.got.cif
#   From: 2010.03.12/outbox.cif.g09.slc.cpg/sg168_cif.got.tgz:417.got - 2010.04.02 06:45:48.
