data_PCOD8324783
_publ_section_title
;
Structure prediction by ZEFSAII (Michael W. Deem and Ramdas Pophale) SiO2 
 PCOD8324783
Probable space group: P 62
;
_chemical_formula_sum "Si O2"
_cell_formula_units_Z 36
_cell_length_a 9.124354
_cell_length_b 9.124354
_cell_length_c 25.213992
_cell_angle_alpha 90.000000
_cell_angle_beta 90.000000
_cell_angle_gamma 120.000000
_cell_volume 1817.927231
_symmetry_space_group_name_H-M "P 62"
_symmetry_group_IT_number 171
_symmetry_cell_setting 'hexagonal'
loop_
_space_group_symop_operation_xyz
x,y,z
x-y,x,1/3+z
-y,x-y,2/3+z
-x,-y,z
-x+y,-x,1/3+z
y,-x+y,2/3+z
loop_
_atom_site_type_symbol
_atom_site_label
_atom_site_fract_x
_atom_site_fract_y
_atom_site_fract_z
Si Si1 0.915851 0.614257 0.493930
Si Si2 0.024147 0.340736 0.613573
Si Si3 0.687283 0.571272 0.698864
Si Si4 0.908385 0.106317 0.407899
Si Si5 0.070890 0.375853 0.328373
Si Si6 0.808880 0.355331 0.748395
O O1 0.908725 0.658430 0.554887
O O2 0.720368 0.504956 0.474352
O O3 0.000000 0.500000 0.485789
O O4 0.024476 0.787007 0.461570
O O5 0.167024 0.352373 0.653682
O O6 0.000000 0.500000 0.625017
O O7 0.837861 0.170364 0.616822
O O8 0.500000 0.500000 0.673686
O O9 0.730078 0.708887 0.745027
O O10 0.681944 0.420620 0.733157
O O11 0.917590 0.207487 0.353464
O O12 0.000000 0.000000 0.398145
O O13 0.196548 0.440635 0.377800
O O14 0.000000 0.500000 0.308843
O O15 0.000000 0.500000 0.738498
#
# Coordination Sequence:
#
# PCOD8324783 Si02
#       6
#     6   6   6   6   6   6
#     4  10  23  41  61  85 125 168 207 250 317 384
#     4  11  22  42  61  90 128 166 213 269 316 386
#     4  12  21  35  63  94 122 152 212 266 312 377
#     4  11  21  38  60  91 121 155 202 262 309 377
#     4  11  20  38  65  88 117 167 213 248 315 389
#     4  11  19  39  66  89 118 165 214 248 304 392
#
# _framework density 19.802775
#
# number of rings (size 3 to 8) (size 9 to 14) (size 15 to 20)
#    0.000    1.000    5.000    5.000    0.000    0.667 
#    3.000    4.167    0.000    0.000    0.000    0.000 
#    0.000    0.000    0.000    0.000    0.000    0.000 
#
# Total GULP energy -446157.097190 kJ/mol
# GULP energy per Si atom -12393.252700 kJ/mol
# Density = 1.975770 g / cm^3
# Si number density = 19.802775 Si / 1000 Ang^3
#
#
#
# Elastic Constant Matrix: (Units=GPa)
#
#
# Indices 1 2 3 4 5 6 
#
# 1 98.0269 24.4285 47.2752 0.0000 0.0000 0.0000
# 2 24.4285 98.0269 47.2752 0.0000 0.0000 0.0000
# 3 47.2752 47.2752 110.4842 0.0000 0.0000 0.0000
# 4 0.0000 0.0000 0.0000 35.1088 0.0000 0.0000
# 5 0.0000 0.0000 0.0000 0.0000 35.1088 0.0000
# 6 0.0000 0.0000 0.0000 0.0000 0.0000 36.7992
#
#
#
# Elastic Compliance Matrix: (Units=1/GPa)
#
#
# Indices 1 2 3 4 5 6 
#
# 1 0.012891 -0.000696 -0.005218 0.000000 0.000000 0.000000
# 2 -0.000696 0.012891 -0.005218 0.000000 0.000000 0.000000
# 3 -0.005218 -0.005218 0.013517 0.000000 0.000000 0.000000
# 4 0.000000 0.000000 0.000000 0.028483 0.000000 0.000000
# 5 0.000000 0.000000 0.000000 0.000000 0.028483 0.000000
# 6 0.000000 0.000000 0.000000 0.000000 0.000000 0.027175
#
#
# Mechanical properties :
#
#
# Convention : Reuss Voigt Hill
#
# Bulk Modulus (GPa) = 58.70479 60.49954 59.60216
# Shear Modulus (GPa) = 33.02882 33.90730 33.46806
#
# Velocity S-wave (km/s) = 4.08841 4.14242 4.11550
# Velocity P-wave (km/s) = 7.21082 7.31416 7.26267
#
# Compressibility (1/GPa) = 0.01703439
#
# Stress axis : x y z
#
# Youngs Moduli (GPa) = 77.57148 77.57148 73.98199
#
# Poissons Ratio (x) = 0.05398 0.38606
# Poissons Ratio (y) = 0.05398 0.38606
# Poissons Ratio (z) = 0.40479 0.40479
#
# Static dielectric constant tensor:
#      x y z
#    x 3.773730 0.000000 0.000000 
#    y 0.000000 3.773730 0.000000 
#    z 0.000000 0.000000 3.504800 
# 
# 
# High freq. dielectric constant tensor:
#      x y z
#    x 1.785110 0.000000 0.000000 
#    y 0.000000 1.785110 0.000000 
#    z 0.000000 0.000000 1.741080 
# 
# From -- ./inp_files/5752.got.cif
#   From: 2010.03.12/outbox.cif.g09.slc.cpg/sg171_3_cif.got.tgz:5752.got - 2010.04.02 06:49:11.
