data_PCOD8324458
_publ_section_title
;
Structure prediction by ZEFSAII (Michael W. Deem and Ramdas Pophale) SiO2 
 PCOD8324458
Probable space group: P 61
;
_chemical_formula_sum "Si O2"
_cell_formula_units_Z 48
_cell_length_a 12.908076
_cell_length_b 12.908076
_cell_length_c 18.574901
_cell_angle_alpha 90.000000
_cell_angle_beta 90.000000
_cell_angle_gamma 120.000000
_cell_volume 2680.280008
_symmetry_space_group_name_H-M "P 61"
_symmetry_group_IT_number 169
_symmetry_cell_setting 'hexagonal'
loop_
_space_group_symop_operation_xyz
x,y,z
x-y,x,1/6+z
-y,x-y,1/3+z
-x,-y,1/2+z
-x+y,-x,2/3+z
y,-x+y,5/6+z
loop_
_atom_site_type_symbol
_atom_site_label
_atom_site_fract_x
_atom_site_fract_y
_atom_site_fract_z
Si Si1 0.376628 0.840239 0.081530
Si Si2 0.907326 0.398814 0.359836
Si Si3 0.401428 0.175639 0.528110
Si Si4 0.921365 0.285502 0.108680
Si Si5 0.237802 0.629735 0.989744
Si Si6 0.182080 0.549733 0.582250
Si Si7 0.366830 0.270279 0.663668
Si Si8 0.193816 0.401976 0.078077
O O1 0.260818 0.731814 0.046300
O O2 0.350943 0.841366 0.165998
O O3 0.395543 0.953020 0.034149
O O4 0.486459 0.816734 0.070656
O O5 0.872582 0.386239 0.443486
O O6 0.884450 0.499731 0.324789
O O7 0.835251 0.274605 0.316617
O O8 0.437634 0.269603 0.462248
O O9 0.331894 0.208740 0.586368
O O10 0.309758 0.040683 0.507215
O O11 0.911310 0.406000 0.104153
O O12 0.903398 0.239679 0.190787
O O13 0.054438 0.314071 0.092206
O O14 0.821906 0.181851 0.057954
O O15 0.207200 0.514884 0.035763
O O16 0.343983 0.660686 0.932104
#
# Coordination Sequence:
#
# PCOD8324458 Si02
#       8
#     6   6   6   6   6   6   6   6
#     4  10  20  34  55  81 118 155 180 228 292 348
#     4  11  21  35  55  82 120 151 187 233 291 355
#     4  10  21  34  58  87 115 151 192 239 286 347
#     4  11  21  36  61  86 117 150 197 245 288 345
#     4  10  19  34  52  81 116 151 183 234 280 345
#     4  10  18  35  54  84 118 148 184 231 289 346
#     4  11  19  38  58  85 116 149 199 243 289 340
#     4  11  23  36  57  90 114 151 194 239 293 354
#
# _framework density 17.908577000000001
#
# number of rings (size 3 to 8) (size 9 to 14) (size 15 to 20)
#    0.000    1.500    3.750    4.500    1.750    0.000 
#    9.000    0.000    0.000    0.000   13.000    0.000 
#    0.000    0.000    0.000    0.000    0.000    0.000 
#
# Total GULP energy -594966.580248 kJ/mol
# GULP energy per Si atom -12395.137088 kJ/mol
# Density = 1.786782 g / cm^3
# Si number density = 17.908577 Si / 1000 Ang^3
#
#
#
# Elastic Constant Matrix: (Units=GPa)
#
#
# Indices 1 2 3 4 5 6 
#
# 1 72.9064 45.0232 40.5611 0.0000 0.0000 0.0000
# 2 45.0232 72.9064 40.5611 0.0000 0.0000 0.0000
# 3 40.5611 40.5611 107.9956 0.0000 0.0000 0.0000
# 4 0.0000 0.0000 0.0000 14.7618 0.0000 0.0000
# 5 0.0000 0.0000 0.0000 0.0000 14.7618 0.0000
# 6 0.0000 0.0000 0.0000 0.0000 0.0000 13.9416
#
#
#
# Elastic Compliance Matrix: (Units=1/GPa)
#
#
# Indices 1 2 3 4 5 6 
#
# 1 0.023649 -0.012215 -0.004294 0.000000 0.000000 0.000000
# 2 -0.012215 0.023649 -0.004294 0.000000 0.000000 0.000000
# 3 -0.004294 -0.004294 0.012485 0.000000 0.000000 0.000000
# 4 0.000000 0.000000 0.000000 0.067742 0.000000 0.000000
# 5 0.000000 0.000000 0.000000 0.000000 0.067742 0.000000
# 6 0.000000 0.000000 0.000000 0.000000 0.000000 0.071728
#
#
# Mechanical properties :
#
#
# Convention : Reuss Voigt Hill
#
# Bulk Modulus (GPa) = 55.01908 56.23327 55.62617
# Shear Modulus (GPa) = 15.89011 17.20391 16.54701
#
# Velocity S-wave (km/s) = 2.98197 3.10280 3.04299
# Velocity P-wave (km/s) = 6.53032 6.65619 6.59356
#
# Compressibility (1/GPa) = 0.01817551
#
# Stress axis : x y z
#
# Youngs Moduli (GPa) = 42.28556 42.28556 80.09421
#
# Poissons Ratio (x) = 0.51653 0.34394
# Poissons Ratio (y) = 0.51653 0.34394
# Poissons Ratio (z) = 0.18158 0.18158
#
# Static dielectric constant tensor:
#      x y z
#    x 3.201060 0.000000 0.000000 
#    y 0.000000 3.201060 0.000000 
#    z 0.000000 0.000000 3.448400 
# 
# 
# High freq. dielectric constant tensor:
#      x y z
#    x 1.670990 0.000000 0.000000 
#    y 0.000000 1.670990 0.000000 
#    z 0.000000 0.000000 1.706550 
# 
# From -- ./inp_files/1437.got.cif
#   From: 2010.03.12/outbox.cif.g09.slc.cpg/sg169_cif.got.tgz:1437.got - 2010.04.02 06:46:06.
