data_PCOD8324888
_publ_section_title
;
Structure prediction by ZEFSAII (Michael W. Deem and Ramdas Pophale) SiO2 
 PCOD8324888
Probable space group: P 63
;
_chemical_formula_sum "Si O2"
_cell_formula_units_Z 28
_cell_length_a 13.411312
_cell_length_b 13.411312
_cell_length_c 8.524938
_cell_angle_alpha 90.000000
_cell_angle_beta 90.000000
_cell_angle_gamma 120.000000
_cell_volume 1327.897010
_symmetry_space_group_name_H-M "P 63"
_symmetry_group_IT_number 173
_symmetry_cell_setting 'hexagonal'
loop_
_space_group_symop_operation_xyz
x,y,z
x-y,x,1/2+z
-y,x-y,z
-x,-y,1/2+z
-x+y,-x,z
y,-x+y,1/2+z
loop_
_atom_site_type_symbol
_atom_site_label
_atom_site_fract_x
_atom_site_fract_y
_atom_site_fract_z
Si Si1 0.333333 0.666667 0.578526
Si Si2 0.046028 0.235912 0.451082
Si Si3 0.622712 0.090754 0.452703
Si Si4 0.233127 0.188259 0.580200
Si Si5 0.911449 0.529537 0.080317
Si Si6 0.666668 0.333334 0.449603
O O1 0.333997 0.781130 0.519373
O O2 0.333334 0.666667 0.764035
O O3 0.162529 0.248073 0.519774
O O4 0.036082 0.345539 0.503011
O O5 0.940248 0.118581 0.515161
O O6 0.046406 0.230222 0.265788
O O7 0.738247 0.100433 0.519093
O O8 0.622929 0.205000 0.510940
O O9 0.513123 0.982167 0.525751
O O10 0.623317 0.081146 0.266335
#
# Coordination Sequence:
#
# PCOD8324888 Si02
#       6
#     2   6   6   6   6   2
#     4   9  21  39  61  86 121 162 205 254 307 360
#     4  12  25  43  65  93 126 164 208 260 316 377
#     4  11  22  40  64  93 126 166 211 260 312 369
#     4  12  25  43  65  93 126 164 208 260 316 377
#     4  11  22  40  64  93 126 166 211 260 312 369
#     4   9  21  39  61  86 121 162 205 254 307 360
#
# _framework density 21.085972999999999
#
# number of rings (size 3 to 8) (size 9 to 14) (size 15 to 20)
#    0.000    0.857    0.000    8.143    0.000    3.429 
#    0.000    6.429    0.000    0.000    0.000    0.000 
#    0.000    0.000    0.000    0.000    0.000    0.000 
#
# Total GULP energy -347422.048970 kJ/mol
# GULP energy per Si atom -12407.930320 kJ/mol
# Density = 2.103798 g / cm^3
# Si number density = 21.085973 Si / 1000 Ang^3
#
#
#
# Elastic Constant Matrix: (Units=GPa)
#
#
# Indices 1 2 3 4 5 6 
#
# 1 104.2087 23.3270 38.8743 0.0000 0.0000 0.0002
# 2 23.3270 104.2064 38.8744 0.0000 0.0000 -0.0002
# 3 38.8743 38.8744 155.6060 0.0000 0.0000 0.0002
# 4 0.0000 0.0000 0.0000 47.5450 0.0000 0.0000
# 5 0.0000 0.0000 0.0000 0.0000 47.5458 0.0000
# 6 0.0002 -0.0002 0.0002 0.0000 0.0000 40.4415
#
#
#
# Elastic Compliance Matrix: (Units=1/GPa)
#
#
# Indices 1 2 3 4 5 6 
#
# 1 0.010807 -0.001557 -0.002311 0.000000 0.000000 0.000000
# 2 -0.001557 0.010807 -0.002311 0.000000 0.000000 0.000000
# 3 -0.002311 -0.002311 0.007581 0.000000 0.000000 0.000000
# 4 0.000000 0.000000 0.000000 0.021033 0.000000 0.000000
# 5 0.000000 0.000000 0.000000 0.000000 0.021032 0.000000
# 6 0.000000 0.000000 0.000000 0.000000 0.000000 0.024727
#
#
# Mechanical properties :
#
#
# Convention : Reuss Voigt Hill
#
# Bulk Modulus (GPa) = 59.39193 62.90805 61.14999
# Shear Modulus (GPa) = 43.87628 44.63615 44.25621
#
# Velocity S-wave (km/s) = 4.56656 4.60593 4.58629
# Velocity P-wave (km/s) = 7.48547 7.62791 7.55703
#
# Compressibility (1/GPa) = 0.01683731
#
# Stress axis : x y z
#
# Youngs Moduli (GPa) = 92.53517 92.53293 131.90704
#
# Poissons Ratio (x) = 0.14408 0.30481
# Poissons Ratio (y) = 0.14408 0.30482
# Poissons Ratio (z) = 0.21383 0.21383
#
# Static dielectric constant tensor:
#      x y z
#    x 3.871300 -0.000010 0.000000 
#    y -0.000010 3.871300 0.000000 
#    z 0.000000 0.000000 3.788780 
# 
# 
# High freq. dielectric constant tensor:
#      x y z
#    x 1.841920 0.000000 0.000000 
#    y 0.000000 1.841920 0.000000 
#    z 0.000000 0.000000 1.829110 
# 
# From -- ./inp_files/523.got.cif
#   From: 2010.03.12/outbox.cif.g09.slc.cpg/sg173_cif.got.tgz:523.got - 2010.04.02 06:54:12.
