data_PCOD8324560
_publ_section_title
;
Structure prediction by ZEFSAII (Michael W. Deem and Ramdas Pophale) SiO2 
 PCOD8324560
Probable space group: P 61
;
_chemical_formula_sum "Si O2"
_cell_formula_units_Z 24
_cell_length_a 9.344214
_cell_length_b 9.344214
_cell_length_c 14.700908
_cell_angle_alpha 90.000000
_cell_angle_beta 90.000000
_cell_angle_gamma 120.000000
_cell_volume 1111.630217
_symmetry_space_group_name_H-M "P 61"
_symmetry_group_IT_number 169
_symmetry_cell_setting 'hexagonal'
loop_
_space_group_symop_operation_xyz
x,y,z
x-y,x,1/6+z
-y,x-y,1/3+z
-x,-y,1/2+z
-x+y,-x,2/3+z
y,-x+y,5/6+z
loop_
_atom_site_type_symbol
_atom_site_label
_atom_site_fract_x
_atom_site_fract_y
_atom_site_fract_z
Si Si1 0.959137 0.471786 0.865590
Si Si2 0.605943 0.394057 0.845964
Si Si3 0.773046 0.886523 0.012630
Si Si4 0.471786 0.959137 0.326337
O O1 0.785864 0.459377 0.889666
O O2 0.954890 0.299088 0.882808
O O3 0.000000 0.529785 0.762630
O O4 0.097158 0.608201 0.931357
O O5 0.540622 0.214136 0.802261
O O6 0.488957 0.391799 0.927237
O O7 0.887291 1.000000 0.929297
O O8 0.655802 0.700912 0.975786
#
# Coordination Sequence:
#
# PCOD8324560 Si02
#       4
#     6   6   6   6
#     4  10  23  41  66  95 131 171 223 273 327 390
#     4  11  24  40  72  99 130 172 226 273 326 390
#     4   9  20  38  64  91 132 176 218 271 330 386
#     4  10  23  41  66  95 131 171 223 273 327 390
#
# _framework density 21.589915000000001
#
# number of rings (size 3 to 8) (size 9 to 14) (size 15 to 20)
#    0.000    2.000    0.000    1.500   21.000    0.000 
#    0.000    2.500    0.000    0.000    0.000    0.000 
#    0.000    0.000    0.000    0.000    0.000    0.000 
#
# Total GULP energy -297654.742381 kJ/mol
# GULP energy per Si atom -12402.280933 kJ/mol
# Density = 2.154078 g / cm^3
# Si number density = 21.589915 Si / 1000 Ang^3
#
#
#
# Elastic Constant Matrix: (Units=GPa)
#
#
# Indices 1 2 3 4 5 6 
#
# 1 92.4447 52.8741 56.3028 0.0000 0.0000 0.0000
# 2 52.8741 92.4447 56.3028 0.0000 0.0000 0.0000
# 3 56.3028 56.3028 155.1836 0.0000 0.0000 0.0000
# 4 0.0000 0.0000 0.0000 41.9433 0.0000 0.0000
# 5 0.0000 0.0000 0.0000 0.0000 41.9433 0.0000
# 6 0.0000 0.0000 0.0000 0.0000 0.0000 19.7853
#
#
#
# Elastic Compliance Matrix: (Units=1/GPa)
#
#
# Indices 1 2 3 4 5 6 
#
# 1 0.017422 -0.007849 -0.003473 0.000000 0.000000 0.000000
# 2 -0.007849 0.017422 -0.003473 0.000000 0.000000 0.000000
# 3 -0.003473 -0.003473 0.008964 0.000000 0.000000 0.000000
# 4 0.000000 0.000000 0.000000 0.023842 0.000000 0.000000
# 5 0.000000 0.000000 0.000000 0.000000 0.023842 0.000000
# 6 0.000000 0.000000 0.000000 0.000000 0.000000 0.050543
#
#
# Mechanical properties :
#
#
# Convention : Reuss Voigt Hill
#
# Bulk Modulus (GPa) = 70.33779 74.55917 72.44848
# Shear Modulus (GPa) = 28.35043 32.37395 30.36219
#
# Velocity S-wave (km/s) = 3.62765 3.87653 3.75415
# Velocity P-wave (km/s) = 7.08493 7.39229 7.24024
#
# Compressibility (1/GPa) = 0.01421711
#
# Stress axis : x y z
#
# Youngs Moduli (GPa) = 57.39874 57.39874 111.55527
#
# Poissons Ratio (x) = 0.45054 0.38744
# Poissons Ratio (y) = 0.45054 0.38744
# Poissons Ratio (z) = 0.19935 0.19935
#
# Static dielectric constant tensor:
#      x y z
#    x 3.856530 0.000000 0.000000 
#    y 0.000000 3.856530 0.000000 
#    z 0.000000 0.000000 3.780300 
# 
# 
# High freq. dielectric constant tensor:
#      x y z
#    x 1.835150 0.000000 0.000000 
#    y 0.000000 1.835150 0.000000 
#    z 0.000000 0.000000 1.853720 
# 
# From -- ./inp_files/1290.got.cif
#   From: 2010.03.12/outbox.cif.g09.slc.cpg/sg169_cif.got.tgz:1290.got - 2010.04.02 06:46:06.
