data_PCOD8324494
_publ_section_title
;
Structure prediction by ZEFSAII (Michael W. Deem and Ramdas Pophale) SiO2 
 PCOD8324494
Probable space group: P 61
;
_chemical_formula_sum "Si O2"
_cell_formula_units_Z 48
_cell_length_a 16.925880
_cell_length_b 16.925880
_cell_length_c 9.159534
_cell_angle_alpha 90.000000
_cell_angle_beta 90.000000
_cell_angle_gamma 120.000000
_cell_volume 2272.513782
_symmetry_space_group_name_H-M "P 61"
_symmetry_group_IT_number 169
_symmetry_cell_setting 'hexagonal'
loop_
_space_group_symop_operation_xyz
x,y,z
x-y,x,1/6+z
-y,x-y,1/3+z
-x,-y,1/2+z
-x+y,-x,2/3+z
y,-x+y,5/6+z
loop_
_atom_site_type_symbol
_atom_site_label
_atom_site_fract_x
_atom_site_fract_y
_atom_site_fract_z
Si Si1 0.119983 0.951302 0.994980
Si Si2 0.988677 0.146885 0.782902
Si Si3 0.631494 0.784249 0.695513
Si Si4 0.706794 0.647021 0.052161
Si Si5 0.849607 0.379363 0.879208
Si Si6 0.762200 0.425724 0.336581
Si Si7 0.468826 0.684623 0.490694
Si Si8 0.373921 0.905136 0.254726
O O1 0.058059 0.907857 0.848965
O O2 0.068392 0.904074 0.142198
O O3 0.206413 0.935352 0.985888
O O4 0.995589 0.246327 0.788125
O O5 0.088300 0.154563 0.761430
O O6 0.646464 0.881818 0.746701
O O7 0.569929 0.747979 0.552745
O O8 0.585955 0.719012 0.832150
O O9 0.694223 0.575738 0.180156
O O10 0.603951 0.606544 0.997360
O O11 0.834641 0.419107 0.728699
O O12 0.755722 0.330701 0.968222
O O13 0.920891 0.463969 0.980915
O O14 0.805349 0.479641 0.486077
O O15 0.735983 0.322260 0.360270
O O16 0.834348 0.471405 0.210408
#
# Coordination Sequence:
#
# PCOD8324494 Si02
#       8
#     6   6   6   6   6   6   6   6
#     4   9  17  33  62  93 120 156 208 263 326 405
#     4   9  18  34  61  96 121 158 208 264 325 400
#     4  10  20  37  61  89 123 170 212 266 332 405
#     4  11  21  36  62  91 130 162 214 275 334 390
#     4  11  22  38  58  92 125 168 226 268 320 398
#     4  12  21  38  60  88 123 166 223 273 317 382
#     4  11  22  36  63  87 123 170 221 271 318 386
#     4  11  23  38  61  88 125 176 222 272 328 400
#
# _framework density 21.121986
#
# number of rings (size 3 to 8) (size 9 to 14) (size 15 to 20)
#    0.000    1.500    3.750    3.750    0.000    2.000 
#    0.000    0.000    2.750   13.500    0.000    0.000 
#    0.000    0.000    0.000    0.000    0.000    0.000 
#
# Total GULP energy -595079.684821 kJ/mol
# GULP energy per Si atom -12397.493434 kJ/mol
# Density = 2.107391 g / cm^3
# Si number density = 21.121986 Si / 1000 Ang^3
#
#
#
# Elastic Constant Matrix: (Units=GPa)
#
#
# Indices 1 2 3 4 5 6 
#
# 1 75.6586 23.0831 41.1418 0.0000 0.0000 0.0000
# 2 23.0831 75.6586 41.1418 0.0000 0.0000 0.0000
# 3 41.1418 41.1418 91.7590 0.0000 0.0000 0.0000
# 4 0.0000 0.0000 0.0000 24.6326 0.0000 0.0000
# 5 0.0000 0.0000 0.0000 0.0000 24.6326 0.0000
# 6 0.0000 0.0000 0.0000 0.0000 0.0000 26.2878
#
#
#
# Elastic Compliance Matrix: (Units=1/GPa)
#
#
# Indices 1 2 3 4 5 6 
#
# 1 0.017594 -0.001426 -0.007249 0.000000 0.000000 0.000000
# 2 -0.001426 0.017594 -0.007249 0.000000 0.000000 0.000000
# 3 -0.007249 -0.007249 0.017399 0.000000 0.000000 0.000000
# 4 0.000000 0.000000 0.000000 0.040597 0.000000 0.000000
# 5 0.000000 0.000000 0.000000 0.000000 0.040597 0.000000
# 6 0.000000 0.000000 0.000000 0.000000 0.000000 0.038041
#
#
# Mechanical properties :
#
#
# Convention : Reuss Voigt Hill
#
# Bulk Modulus (GPa) = 48.22011 50.42330 49.32170
# Shear Modulus (GPa) = 23.74349 24.29121 24.01735
#
# Velocity S-wave (km/s) = 3.35642 3.39491 3.37572
# Velocity P-wave (km/s) = 6.15627 6.26829 6.21253
#
# Compressibility (1/GPa) = 0.02073824
#
# Stress axis : x y z
#
# Youngs Moduli (GPa) = 56.83619 56.83619 57.47461
#
# Poissons Ratio (x) = 0.08104 0.41666
# Poissons Ratio (y) = 0.08104 0.41666
# Poissons Ratio (z) = 0.41203 0.41203
#
# Static dielectric constant tensor:
#      x y z
#    x 3.939230 0.000000 0.000000 
#    y 0.000000 3.939230 0.000000 
#    z 0.000000 0.000000 3.755260 
# 
# 
# High freq. dielectric constant tensor:
#      x y z
#    x 1.823530 0.000000 0.000000 
#    y 0.000000 1.823530 0.000000 
#    z 0.000000 0.000000 1.809870 
# 
# From -- ./inp_files/744.got.cif
#   From: 2010.03.12/outbox.cif.g09.slc.cpg/sg169_cif.got.tgz:744.got - 2010.04.02 06:46:06.
