data_PCOD8324477
_publ_section_title
;
Structure prediction by ZEFSAII (Michael W. Deem and Ramdas Pophale) SiO2 
 PCOD8324477
Probable space group: P 61
;
_chemical_formula_sum "Si O2"
_cell_formula_units_Z 42
_cell_length_a 10.912180
_cell_length_b 10.912180
_cell_length_c 21.320378
_cell_angle_alpha 90.000000
_cell_angle_beta 90.000000
_cell_angle_gamma 120.000000
_cell_volume 2198.611900
_symmetry_space_group_name_H-M "P 61"
_symmetry_group_IT_number 169
_symmetry_cell_setting 'hexagonal'
loop_
_space_group_symop_operation_xyz
x,y,z
x-y,x,1/6+z
-y,x-y,1/3+z
-x,-y,1/2+z
-x+y,-x,2/3+z
y,-x+y,5/6+z
loop_
_atom_site_type_symbol
_atom_site_label
_atom_site_fract_x
_atom_site_fract_y
_atom_site_fract_z
Si Si1 0.731230 0.422157 0.123000
Si Si2 0.990281 0.711093 0.695815
Si Si3 0.029396 0.512227 0.099345
Si Si4 0.615802 0.923055 0.495025
Si Si5 0.360443 0.694906 0.817247
Si Si6 0.504011 0.090256 0.565630
Si Si7 0.875329 0.582844 0.484673
O O1 0.676453 0.496807 0.171890
O O2 0.714082 0.275590 0.148791
O O3 0.895404 0.534081 0.107049
O O4 0.653128 0.390870 0.056751
O O5 0.982354 0.670982 0.768152
O O6 0.138300 0.849176 0.673195
O O7 0.968312 0.578434 0.657110
O O8 0.851666 0.725623 0.685601
O O9 0.177813 0.657306 0.107381
O O10 0.024593 0.435396 0.034532
O O11 0.464608 0.796268 0.470809
O O12 0.596168 0.016301 0.548512
O O13 0.371929 0.561368 0.793844
O O14 0.345539 0.963072 0.585477
#
# Coordination Sequence:
#
# PCOD8324477 Si02
#       7
#     6   6   6   6   6   6   6
#     4  11  22  37  57  89 124 159 202 262 314 358
#     4  10  20  38  59  85 117 155 197 247 298 364
#     4  10  19  36  58  83 118 153 192 249 317 349
#     4  11  22  38  61  90 121 158 202 261 307 369
#     4  11  20  37  59  89 123 158 200 261 317 357
#     4  12  23  34  61  98 122 159 219 259 308 392
#     4  11  20  36  59  90 119 158 198 253 313 375
#
# _framework density 19.102962000000002
#
# number of rings (size 3 to 8) (size 9 to 14) (size 15 to 20)
#    0.000    1.143    7.143    2.571    0.000    0.000 
#    0.000    0.000    0.000    1.714    0.000    0.000 
#    0.000    0.000    0.000    0.000    0.000    0.000 
#
# Total GULP energy -520375.235622 kJ/mol
# GULP energy per Si atom -12389.886562 kJ/mol
# Density = 1.905948 g / cm^3
# Si number density = 19.102962 Si / 1000 Ang^3
#
#
#
# Elastic Constant Matrix: (Units=GPa)
#
#
# Indices 1 2 3 4 5 6 
#
# 1 67.0164 27.8339 19.2052 0.0000 0.0000 0.0000
# 2 27.8339 67.0164 19.2052 0.0000 0.0000 0.0000
# 3 19.2052 19.2052 88.9169 0.0000 0.0000 0.0000
# 4 0.0000 0.0000 0.0000 33.1564 0.0000 0.0000
# 5 0.0000 0.0000 0.0000 0.0000 33.1564 0.0000
# 6 0.0000 0.0000 0.0000 0.0000 0.0000 19.5913
#
#
#
# Elastic Compliance Matrix: (Units=1/GPa)
#
#
# Indices 1 2 3 4 5 6 
#
# 1 0.018538 -0.006984 -0.002495 0.000000 0.000000 0.000000
# 2 -0.006984 0.018538 -0.002495 0.000000 0.000000 0.000000
# 3 -0.002495 -0.002495 0.012324 0.000000 0.000000 0.000000
# 4 0.000000 0.000000 0.000000 0.030160 0.000000 0.000000
# 5 0.000000 0.000000 0.000000 0.000000 0.030160 0.000000
# 6 0.000000 0.000000 0.000000 0.000000 0.000000 0.051043
#
#
# Mechanical properties :
#
#
# Convention : Reuss Voigt Hill
#
# Bulk Modulus (GPa) = 39.29334 39.49318 39.39326
# Shear Modulus (GPa) = 25.88047 27.62786 26.75416
#
# Velocity S-wave (km/s) = 3.68474 3.80710 3.74642
# Velocity P-wave (km/s) = 6.22229 6.32804 6.27539
#
# Compressibility (1/GPa) = 0.02544961
#
# Stress axis : x y z
#
# Youngs Moduli (GPa) = 53.94461 53.94461 81.13961
#
# Poissons Ratio (x) = 0.37675 0.20248
# Poissons Ratio (y) = 0.37675 0.20248
# Poissons Ratio (z) = 0.13462 0.13462
#
# Static dielectric constant tensor:
#      x y z
#    x 3.724970 0.000000 0.000000 
#    y 0.000000 3.724970 0.000000 
#    z 0.000000 0.000000 3.591340 
# 
# 
# High freq. dielectric constant tensor:
#      x y z
#    x 1.719930 0.000000 0.000000 
#    y 0.000000 1.719930 0.000000 
#    z 0.000000 0.000000 1.762200 
# 
# From -- ./inp_files/1528.got.cif
#   From: 2010.03.12/outbox.cif.g09.slc.cpg/sg169_cif.got.tgz:1528.got - 2010.04.02 06:46:06.
