data_PCOD8324241
_publ_section_title
;
Structure prediction by ZEFSAII (Michael W. Deem and Ramdas Pophale) SiO2 
 PCOD8324241
Probable space group: R -3 M
;
_chemical_formula_sum "Si O2"
_cell_formula_units_Z 180
_cell_length_a 25.661389
_cell_length_b 25.661389
_cell_length_c 18.105770
_cell_angle_alpha 90.000000
_cell_angle_beta 90.000000
_cell_angle_gamma 120.000000
_cell_volume 10325.425350
_symmetry_space_group_name_H-M "R -3 M"
_symmetry_group_IT_number 166
_symmetry_cell_setting 'hexagonal'
loop_
_space_group_symop_operation_xyz
x,y,z
-y,x-y,z
-x+y,-x,z
x-y,-y,-z
-x,-x+y,-z
y,x,-z
-x,-y,-z
y,-x+y,-z
x-y,x,-z
-x+y,y,z
x,x-y,z
-y,-x,z
2/3+x,1/3+y,1/3+z
2/3-y,1/3+x-y,1/3+z
2/3-x+y,1/3-x,1/3+z
2/3+x-y,1/3-y,1/3-z
2/3-x,1/3-x+y,1/3-z
2/3+y,1/3+x,1/3-z
2/3-x,1/3-y,1/3-z
2/3+y,1/3-x+y,1/3-z
2/3+x-y,1/3+x,1/3-z
2/3-x+y,1/3+y,1/3+z
2/3+x,1/3+x-y,1/3+z
2/3-y,1/3-x,1/3+z
1/3+x,2/3+y,2/3+z
1/3-y,2/3+x-y,2/3+z
1/3-x+y,2/3-x,2/3+z
1/3+x-y,2/3-y,2/3-z
1/3-x,2/3-x+y,2/3-z
1/3+y,2/3+x,2/3-z
1/3-x,2/3-y,2/3-z
1/3+y,2/3-x+y,2/3-z
1/3+x-y,2/3+x,2/3-z
1/3-x+y,2/3+y,2/3+z
1/3+x,2/3+x-y,2/3+z
1/3-y,2/3-x,2/3+z
loop_
_atom_site_type_symbol
_atom_site_label
_atom_site_fract_x
_atom_site_fract_y
_atom_site_fract_z
Si Si1 0.114221 0.658508 0.370143
Si Si2 0.586399 0.601229 0.695194
Si Si3 0.811547 0.623094 0.269897
Si Si4 0.949274 0.168798 0.560583
Si Si5 0.453306 0.906612 0.449831
Si Si6 0.760641 0.117202 0.528395
O O1 0.166087 0.693041 0.309147
O O2 0.128399 0.615300 0.420600
O O3 0.108509 0.705856 0.421552
O O4 0.055217 0.615895 0.322450
O O5 0.632537 0.666667 0.666667
O O6 0.523634 0.577929 0.652896
O O7 0.574957 0.599900 0.781863
O O8 0.786575 0.573150 0.205494
O O9 0.845382 0.690764 0.240053
O O10 0.897512 0.102489 0.538913
O O11 0.923448 0.214481 0.563553
O O12 0.000000 0.187633 0.500000
O O13 0.813120 0.186881 0.524299
#
# Coordination Sequence:
#
# PCOD8324241 Si02
#       6
#    36  36  18  36  18  36
#     4  11  22  35  55  81 110 151 192 232 278 338
#     4  11  20  31  53  75 109 146 186 221 268 334
#     4   9  18  34  46  76 104 143 174 223 268 321
#     4  11  23  37  58  82 113 149 194 239 290 346
#     4   9  20  34  54  74 112 140 187 228 273 326
#     4  11  22  37  54  81 116 150 185 240 288 339
#
# _framework density 17.432696
#
# number of rings (size 3 to 8) (size 9 to 14) (size 15 to 20)
#    0.000    1.400    3.000    3.600    1.400    3.200 
#    0.000    0.000    0.000    0.200    0.000    0.000 
#    1.000    0.000    0.000    1.200    0.000    0.000 
#
# Total GULP energy -744097.024437 kJ/mol
# GULP energy per Si atom -12401.617074 kJ/mol
# Density = 1.739302 g / cm^3
# Si number density = 17.432696 Si / 1000 Ang^3
#
#
#
# Elastic Constant Matrix: (Units=GPa)
#
#
# Indices 1 2 3 4 5 6 
#
# 1 75.6236 33.1556 32.1330 4.2944 0.0001 0.0000
# 2 33.1556 75.6236 32.1330 -4.2944 -0.0001 0.0000
# 3 32.1330 32.1330 114.8365 0.0000 0.0000 0.0000
# 4 4.2944 -4.2944 0.0000 23.1662 0.0000 -0.0001
# 5 0.0001 -0.0001 0.0000 0.0000 23.1662 4.2944
# 6 0.0000 0.0000 0.0000 -0.0001 4.2944 21.2340
#
#
#
# Elastic Compliance Matrix: (Units=1/GPa)
#
#
# Indices 1 2 3 4 5 6 
#
# 1 0.017739 -0.006725 -0.003082 -0.004535 0.000000 0.000000
# 2 -0.006725 0.017739 -0.003082 0.004535 0.000000 0.000000
# 3 -0.003082 -0.003082 0.010433 0.000000 0.000000 0.000000
# 4 -0.004535 0.004535 0.000000 0.044848 0.000000 0.000000
# 5 0.000000 0.000000 0.000000 0.000000 0.044848 -0.009070
# 6 0.000000 0.000000 0.000000 0.000000 -0.009070 0.048929
#
#
# Mechanical properties :
#
#
# Convention : Reuss Voigt Hill
#
# Bulk Modulus (GPa) = 49.67014 51.21412 50.44213
# Shear Modulus (GPa) = 23.03899 24.75742 23.89821
#
# Velocity S-wave (km/s) = 3.63932 3.77260 3.70656
# Velocity P-wave (km/s) = 6.79808 6.95836 6.87869
#
# Compressibility (1/GPa) = 0.02013282
#
# Stress axis : x y z
#
# Youngs Moduli (GPa) = 56.37304 56.37304 95.85253
#
# Poissons Ratio (x) = 0.37913 0.29540
# Poissons Ratio (y) = 0.37913 0.29540
# Poissons Ratio (z) = 0.17373 0.17373
#
# Static dielectric constant tensor:
#      x y z
#    x 3.161300 0.000000 0.000000 
#    y 0.000000 3.161300 0.000000 
#    z 0.000000 0.000000 3.467800 
# 
# 
# High freq. dielectric constant tensor:
#      x y z
#    x 1.651310 0.000000 0.000000 
#    y 0.000000 1.651310 0.000000 
#    z 0.000000 0.000000 1.696430 
# 
# From -- ./inp_files/5637.got.cif
#   From: 2010.03.12/outbox.cif.g09.slc.cpg/sg166_3_cif.got.tgz:5637.got - 2010.04.02 06:38:31.
