data_PCOD8324993
_publ_section_title
;
Structure prediction by ZEFSAII (Michael W. Deem and Ramdas Pophale) SiO2 
 PCOD8324993
Probable space group: P -6
;
_chemical_formula_sum "Si O2"
_cell_formula_units_Z 30
_cell_length_a 8.657921
_cell_length_b 8.657921
_cell_length_c 22.044354
_cell_angle_alpha 90.000000
_cell_angle_beta 90.000000
_cell_angle_gamma 120.000000
_cell_volume 1431.051442
_symmetry_space_group_name_H-M "P -6"
_symmetry_group_IT_number 174
_symmetry_cell_setting 'hexagonal'
loop_
_space_group_symop_operation_xyz
x,y,z
-x+y,-x,-z
-y,x-y,z
x,y,-z
-x+y,-x,z
-y,x-y,-z
loop_
_atom_site_type_symbol
_atom_site_label
_atom_site_fract_x
_atom_site_fract_y
_atom_site_fract_z
Si Si1 0.001682 0.344303 0.570808
Si Si2 0.656187 0.660813 0.808187
Si Si3 0.875037 0.355407 0.066700
Si Si4 0.327559 0.323935 0.760601
Si Si5 0.326113 0.324030 0.381345
O O1 0.000430 0.380167 0.500000
O O2 0.947286 0.471401 0.606540
O O3 0.196982 0.388419 0.590901
O O4 0.859387 0.141434 0.586568
O O5 0.630127 0.640007 0.880964
O O6 0.529677 0.474901 0.774207
O O7 0.608409 0.808472 0.787820
O O8 0.857726 0.719732 0.791116
O O9 0.830857 0.516813 0.073106
O O10 0.959084 0.364017 0.000000
O O11 0.292902 0.290951 0.689627
#
# Coordination Sequence:
#
# PCOD8324993 Si02
#       5
#     6   6   6   6   6
#     4  12  25  44  67  91 123 160 211 261 319 377
#     4  12  23  42  61  98 124 175 205 263 308 374
#     4   8  15  35  66  94 122 165 209 252 310 366
#     4  12  24  40  65  89 133 162 214 252 318 376
#     4  12  25  43  63  94 122 166 205 262 315 379
#
# _framework density 20.963609000000002
#
# number of rings (size 3 to 8) (size 9 to 14) (size 15 to 20)
#    0.400    0.400    2.000    7.800    0.000    0.000 
#    0.000    2.000    0.000    0.000    0.000    0.000 
#    0.000    0.000    0.000    0.000    0.000    0.000 
#
# Total GULP energy -372151.423143 kJ/mol
# GULP energy per Si atom -12405.047438 kJ/mol
# Density = 2.091590 g / cm^3
# Si number density = 20.963609 Si / 1000 Ang^3
#
#
#
# Elastic Constant Matrix: (Units=GPa)
#
#
# Indices 1 2 3 4 5 6 
#
# 1 72.4866 9.4490 21.8293 0.0000 0.0000 0.0000
# 2 9.4490 72.4866 21.8293 0.0000 0.0000 0.0000
# 3 21.8293 21.8293 119.8011 0.0000 0.0000 0.0000
# 4 0.0000 0.0000 0.0000 -17.6616 0.0000 0.0000
# 5 0.0000 0.0000 0.0000 0.0000 -17.6616 0.0000
# 6 0.0000 0.0000 0.0000 0.0000 0.0000 31.5188
#
#
#
# Elastic Compliance Matrix: (Units=1/GPa)
#
#
# Indices 1 2 3 4 5 6 
#
# 1 0.014690 -0.001173 -0.002463 0.000000 0.000000 0.000000
# 2 -0.001173 0.014690 -0.002463 0.000000 0.000000 0.000000
# 3 -0.002463 -0.002463 0.009245 0.000000 0.000000 0.000000
# 4 0.000000 0.000000 0.000000 -0.056620 0.000000 0.000000
# 5 0.000000 0.000000 0.000000 0.000000 -0.056620 0.000000
# 6 0.000000 0.000000 0.000000 0.000000 0.000000 0.031727
#
#
# Mechanical properties :
#
#
# Convention : Reuss Voigt Hill
#
# Bulk Modulus (GPa) = 37.84011 41.22104 39.53058
# Shear Modulus (GPa) = -228.51764 13.35023 -107.58370
#
# Velocity S-wave (km/s) = -10.45196 2.52628 -7.17152
# Velocity P-wave (km/s) = 11.29462 5.31181 7.04816
#
# Compressibility (1/GPa) = 0.02642698
#
# Stress axis : x y z
#
# Youngs Moduli (GPa) = 68.07202 68.07202 108.16953
#
# Poissons Ratio (x) = 0.07986 0.26642
# Poissons Ratio (y) = 0.07986 0.26642
# Poissons Ratio (z) = 0.16766 0.16766
#
# Static dielectric constant tensor:
#      x y z
#    x 3.589520 0.000000 0.000000 
#    y 0.000000 3.589520 0.000000 
#    z 0.000000 0.000000 3.882480 
# 
# 
# High freq. dielectric constant tensor:
#      x y z
#    x 1.811360 0.000000 0.000000 
#    y 0.000000 1.811360 0.000000 
#    z 0.000000 0.000000 1.839320 
# 
# From -- ./inp_files/1067.got.cif
#   From: 2010.03.12/outbox.cif.g09.slc.cpg/sg174_cif.got.tgz:1067.got - 2010.04.02 06:54:58.
