data_PCOD8324417
_publ_section_title
;
Structure prediction by ZEFSAII (Michael W. Deem and Ramdas Pophale) SiO2 
 PCOD8324417
Probable space group: R -3 C 
;
_chemical_formula_sum "Si O2"
_cell_formula_units_Z 138
_cell_length_a 18.199700
_cell_length_b 18.199700
_cell_length_c 23.023717
_cell_angle_alpha 90.000000
_cell_angle_beta 90.000000
_cell_angle_gamma 120.000000
_cell_volume 6604.417638
_symmetry_space_group_name_H-M "R -3 C "
_symmetry_group_IT_number 167
_symmetry_cell_setting 'hexagonal'
loop_
_space_group_symop_operation_xyz
x,y,z
-y,x-y,z
-x+y,-x,z
x-y,-y,1/2-z
-x,-x+y,1/2-z
y,x,1/2-z
-x,-y,-z
y,-x+y,-z
x-y,x,-z
-x+y,y,1/2+z
x,x-y,1/2+z
-y,-x,1/2+z
2/3+x,1/3+y,1/3+z
2/3-y,1/3+x-y,1/3+z
2/3-x+y,1/3-x,1/3+z
2/3+x-y,1/3-y,5/6-z
2/3-x,1/3-x+y,5/6-z
2/3+y,1/3+x,5/6-z
2/3-x,1/3-y,1/3-z
2/3+y,1/3-x+y,1/3-z
2/3+x-y,1/3+x,1/3-z
2/3-x+y,1/3+y,5/6+z
2/3+x,1/3+x-y,5/6+z
2/3-y,1/3-x,5/6+z
1/3+x,2/3+y,2/3+z
1/3-y,2/3+x-y,2/3+z
1/3-x+y,2/3-x,2/3+z
1/3+x-y,2/3-y,1/6-z
1/3-x,2/3-x+y,1/6-z
1/3+y,2/3+x,1/6-z
1/3-x,2/3-y,2/3-z
1/3+y,2/3-x+y,2/3-z
1/3+x-y,2/3+x,2/3-z
1/3-x+y,2/3+y,1/6+z
1/3+x,2/3+x-y,1/6+z
1/3-y,2/3-x,1/6+z
loop_
_atom_site_type_symbol
_atom_site_label
_atom_site_fract_x
_atom_site_fract_y
_atom_site_fract_z
Si Si1 0.601339 0.834357 0.732820
Si Si2 0.000000 0.000000 0.571642
Si Si3 0.552720 0.666667 0.916667
Si Si4 0.339797 0.511662 0.540666
Si Si5 0.158422 0.907563 0.556852
O O1 0.687104 0.918053 0.751185
O O2 0.581587 0.760974 0.779846
O O3 0.610301 0.795740 0.673455
O O4 0.518947 0.846249 0.725622
O O5 0.980658 0.911834 0.598724
O O6 0.000000 0.000000 0.500000
O O7 0.494905 0.661335 0.861895
O O8 0.258226 0.436965 0.572438
O O9 0.238076 0.904743 0.583334
#
# Coordination Sequence:
#
# PCOD8324417 Si02
#       5
#    36  12  18  36  36
#     4  12  24  43  71 100 135 181 244 285 345 415
#     4  12  24  46  77 103 126 174 241 299 340 408
#     4  12  28  44  62 102 154 186 214 282 370 446
#     4  12  25  43  70 105 136 179 236 289 353 414
#     4  12  23  41  70  99 130 182 236 295 338 409
#
# _framework density 20.895105000000001
#
# number of rings (size 3 to 8) (size 9 to 14) (size 15 to 20)
#    0.000    0.000    9.130    2.348    0.000    1.043 
#    0.000    0.000    0.000    0.000    0.000    0.000 
#    0.000    0.000    0.000    0.000    0.000    0.000 
#
# Total GULP energy -570115.614782 kJ/mol
# GULP energy per Si atom -12393.817713 kJ/mol
# Density = 2.084755 g / cm^3
# Si number density = 20.895105 Si / 1000 Ang^3
#
#
#
# Elastic Constant Matrix: (Units=GPa)
#
#
# Indices 1 2 3 4 5 6 
#
# 1 84.9750 18.0263 38.5720 1.4310 -0.0005 0.0000
# 2 18.0263 84.9750 38.5720 -1.4310 0.0005 0.0000
# 3 38.5720 38.5720 141.3568 0.0000 0.0000 0.0000
# 4 1.4310 -1.4310 0.0000 29.3364 0.0000 0.0005
# 5 -0.0005 0.0005 0.0000 0.0000 29.3364 1.4310
# 6 0.0000 0.0000 0.0000 0.0005 1.4310 33.4743
#
#
#
# Elastic Compliance Matrix: (Units=1/GPa)
#
#
# Indices 1 2 3 4 5 6 
#
# 1 0.013585 -0.001383 -0.003330 -0.000730 0.000000 0.000000
# 2 -0.001383 0.013585 -0.003330 0.000730 0.000000 0.000000
# 3 -0.003330 -0.003330 0.008891 0.000000 0.000000 0.000000
# 4 -0.000730 0.000730 0.000000 0.034159 0.000000 0.000000
# 5 0.000000 0.000000 0.000000 0.000000 0.034159 -0.001460
# 6 0.000000 0.000000 0.000000 0.000000 -0.001460 0.029936
#
#
# Mechanical properties :
#
#
# Convention : Reuss Voigt Hill
#
# Bulk Modulus (GPa) = 50.05612 55.73860 52.89736
# Shear Modulus (GPa) = 31.83527 32.83853 32.33690
#
# Velocity S-wave (km/s) = 3.90754 3.96863 3.93820
# Velocity P-wave (km/s) = 6.66081 6.90893 6.78600
#
# Compressibility (1/GPa) = 0.01997758
#
# Stress axis : x y z
#
# Youngs Moduli (GPa) = 73.60938 73.60938 112.46773
#
# Poissons Ratio (x) = 0.10179 0.37448
# Poissons Ratio (y) = 0.10179 0.37448
# Poissons Ratio (z) = 0.24510 0.24510
#
# Static dielectric constant tensor:
#      x y z
#    x 4.037840 0.000000 0.000000 
#    y 0.000000 4.037840 0.000000 
#    z 0.000000 0.000000 3.744970 
# 
# 
# High freq. dielectric constant tensor:
#      x y z
#    x 1.826390 0.000000 0.000000 
#    y 0.000000 1.826390 0.000000 
#    z 0.000000 0.000000 1.820480 
# 
# From -- ./inp_files/6071.got.cif
#   From: 2010.03.12/outbox.cif.g09.slc.cpg/sg167_4_cif.got.tgz:6071.got - 2010.04.02 06:42:56.
