data_PCOD8324434
_publ_section_title
;
Structure prediction by ZEFSAII (Michael W. Deem and Ramdas Pophale) SiO2 
 PCOD8324434
Probable space group: P 6
;
_chemical_formula_sum "Si O2"
_cell_formula_units_Z 48
_cell_length_a 17.311433
_cell_length_b 17.311433
_cell_length_c 8.638742
_cell_angle_alpha 90.000000
_cell_angle_beta 90.000000
_cell_angle_gamma 120.000000
_cell_volume 2242.059708
_symmetry_space_group_name_H-M "P 6"
_symmetry_group_IT_number 168
_symmetry_cell_setting 'hexagonal'
loop_
_space_group_symop_operation_xyz
x,y,z
x-y,x,z
-y,x-y,z
-x,-y,z
-x+y,-x,z
y,-x+y,z
loop_
_atom_site_type_symbol
_atom_site_label
_atom_site_fract_x
_atom_site_fract_y
_atom_site_fract_z
Si Si1 0.879157 0.511677 0.384600
Si Si2 0.855846 0.354701 0.984258
Si Si3 0.699859 0.783114 0.976410
Si Si4 0.633279 0.815944 0.484351
Si Si5 0.334033 0.083410 0.802942
Si Si6 0.319460 0.824922 0.048907
Si Si7 0.917855 0.366275 0.325838
Si Si8 0.856606 0.059625 0.291410
O O1 0.835502 0.549757 0.510128
O O2 0.818705 0.485260 0.230990
O O3 0.880156 0.420756 0.427441
O O4 0.978723 0.592090 0.360197
O O5 0.757608 0.270292 0.993444
O O6 0.847985 0.441440 0.946515
O O7 0.910163 0.375227 0.143371
O O8 0.909472 0.338175 0.845654
O O9 0.605847 0.700370 0.027554
O O10 0.769161 0.821154 0.116867
O O11 0.684018 0.862781 0.932827
O O12 0.731845 0.748772 0.826808
O O13 0.664102 0.875673 0.637177
O O14 0.603704 0.865987 0.362969
O O15 0.713325 0.806264 0.408465
O O16 0.960440 0.125270 0.326212
#
# Coordination Sequence:
#
# PCOD8324434 Si02
#       8
#     6   6   6   6   6   6   6   6
#     4  10  20  37  62  95 124 163 216 267 323 388
#     4  10  20  39  60  94 125 165 213 270 318 391
#     4  11  22  43  65  96 121 169 216 269 326 405
#     4  12  24  42  64  96 132 178 211 274 337 405
#     4  11  26  40  62  93 130 168 217 263 340 399
#     4  10  19  35  66  91 125 162 219 271 326 380
#     4  10  21  38  64  91 125 166 217 268 319 388
#     4  12  25  44  73  99 133 168 225 279 342 415
#
# _framework density 21.408885999999999
#
# number of rings (size 3 to 8) (size 9 to 14) (size 15 to 20)
#    0.000    1.250    3.750    2.625    3.500    1.500 
#    5.250    0.000    0.000    0.000    0.000    0.000 
#    0.000    0.000    0.000    0.000    0.000    0.000 
#
# Total GULP energy -594885.054073 kJ/mol
# GULP energy per Si atom -12393.438627 kJ/mol
# Density = 2.136016 g / cm^3
# Si number density = 21.408886 Si / 1000 Ang^3
#
#
#
# Elastic Constant Matrix: (Units=GPa)
#
#
# Indices 1 2 3 4 5 6 
#
# 1 87.1613 21.1022 10.6882 0.0000 0.0000 0.0000
# 2 21.1022 87.1613 10.6882 0.0000 0.0000 0.0000
# 3 10.6882 10.6882 54.4631 0.0000 0.0000 0.0000
# 4 0.0000 0.0000 0.0000 29.9719 0.0000 0.0000
# 5 0.0000 0.0000 0.0000 0.0000 29.9719 0.0000
# 6 0.0000 0.0000 0.0000 0.0000 0.0000 33.0295
#
#
#
# Elastic Compliance Matrix: (Units=1/GPa)
#
#
# Indices 1 2 3 4 5 6 
#
# 1 0.012374 -0.002764 -0.001886 0.000000 0.000000 0.000000
# 2 -0.002764 0.012374 -0.001886 0.000000 0.000000 0.000000
# 3 -0.001886 -0.001886 0.019101 0.000000 0.000000 0.000000
# 4 0.000000 0.000000 0.000000 0.033365 0.000000 0.000000
# 5 0.000000 0.000000 0.000000 0.000000 0.033365 0.000000
# 6 0.000000 0.000000 0.000000 0.000000 0.000000 0.030276
#
#
# Mechanical properties :
#
#
# Convention : Reuss Voigt Hill
#
# Bulk Modulus (GPa) = 32.49247 34.86029 33.67638
# Shear Modulus (GPa) = 30.45365 31.01515 30.73440
#
# Velocity S-wave (km/s) = 3.77567 3.81031 3.79303
# Velocity P-wave (km/s) = 5.84958 5.97298 5.91160
#
# Compressibility (1/GPa) = 0.03077636
#
# Stress axis : x y z
#
# Youngs Moduli (GPa) = 80.81778 80.81778 52.35274
#
# Poissons Ratio (x) = 0.22342 0.09872
# Poissons Ratio (y) = 0.22342 0.09872
# Poissons Ratio (z) = 0.15240 0.15240
#
# Static dielectric constant tensor:
#      x y z
#    x 4.118060 0.000000 0.000000 
#    y 0.000000 4.118060 0.000000 
#    z 0.000000 0.000000 3.429580 
# 
# 
# High freq. dielectric constant tensor:
#      x y z
#    x 1.852230 0.000000 0.000000 
#    y 0.000000 1.852230 0.000000 
#    z 0.000000 0.000000 1.798650 
# 
# From -- ./inp_files/340.got.cif
#   From: 2010.03.12/outbox.cif.g09.slc.cpg/sg168_cif.got.tgz:340.got - 2010.04.02 06:45:48.
