data_PCOD8324329
_publ_section_title
;
Structure prediction by ZEFSAII (Michael W. Deem and Ramdas Pophale) SiO2 
 PCOD8324329
Probable space group: R -3 C 
;
_chemical_formula_sum "Si O2"
_cell_formula_units_Z 138
_cell_length_a 16.567155
_cell_length_b 16.567155
_cell_length_c 28.438449
_cell_angle_alpha 90.000000
_cell_angle_beta 90.000000
_cell_angle_gamma 120.000000
_cell_volume 6759.777627
_symmetry_space_group_name_H-M "R -3 C "
_symmetry_group_IT_number 167
_symmetry_cell_setting 'hexagonal'
loop_
_space_group_symop_operation_xyz
x,y,z
-y,x-y,z
-x+y,-x,z
x-y,-y,1/2-z
-x,-x+y,1/2-z
y,x,1/2-z
-x,-y,-z
y,-x+y,-z
x-y,x,-z
-x+y,y,1/2+z
x,x-y,1/2+z
-y,-x,1/2+z
2/3+x,1/3+y,1/3+z
2/3-y,1/3+x-y,1/3+z
2/3-x+y,1/3-x,1/3+z
2/3+x-y,1/3-y,5/6-z
2/3-x,1/3-x+y,5/6-z
2/3+y,1/3+x,5/6-z
2/3-x,1/3-y,1/3-z
2/3+y,1/3-x+y,1/3-z
2/3+x-y,1/3+x,1/3-z
2/3-x+y,1/3+y,5/6+z
2/3+x,1/3+x-y,5/6+z
2/3-y,1/3-x,5/6+z
1/3+x,2/3+y,2/3+z
1/3-y,2/3+x-y,2/3+z
1/3-x+y,2/3-x,2/3+z
1/3+x-y,2/3-y,1/6-z
1/3-x,2/3-x+y,1/6-z
1/3+y,2/3+x,1/6-z
1/3-x,2/3-y,2/3-z
1/3+y,2/3-x+y,2/3-z
1/3+x-y,2/3+x,2/3-z
1/3-x+y,2/3+y,1/6+z
1/3+x,2/3+x-y,1/6+z
1/3-y,2/3-x,1/6+z
loop_
_atom_site_type_symbol
_atom_site_label
_atom_site_fract_x
_atom_site_fract_y
_atom_site_fract_z
Si Si1 0.410453 0.550563 0.311725
Si Si2 0.098090 0.303041 0.974296
Si Si3 0.333334 0.666667 0.358999
Si Si4 0.659039 0.564418 0.397857
Si Si5 0.413179 0.413179 0.750000
O O1 0.392526 0.473197 0.351203
O O2 0.403492 0.633929 0.337477
O O3 0.334362 0.503081 0.270385
O O4 0.508864 0.568956 0.289176
O O5 0.179980 0.292947 0.951265
O O6 0.011964 0.267121 0.940559
O O7 0.063604 0.243788 0.022726
O O8 0.333334 0.666668 0.416667
O O9 0.685241 0.666667 0.416667
#
# Coordination Sequence:
#
# PCOD8324329 Si02
#       5
#    36  36  12  36  18
#     4  11  23  45  64  95 134 170 224 283 334 410
#     4  11  21  39  66  98 128 172 220 279 343 402
#     4  12  30  48  63  97 143 190 228 273 351 432
#     4  10  20  40  67  97 130 167 219 280 342 404
#     4  12  22  42  70  98 130 172 226 286 350 404
#
# _framework density 20.414873
#
# number of rings (size 3 to 8) (size 9 to 14) (size 15 to 20)
#    0.000    1.043    6.522    1.565    1.826    1.043 
#    0.000    3.913    0.000    5.217    0.000    0.000 
#    0.000    0.000    0.000    0.000    0.000    0.000 
#
# Total GULP energy -569855.738932 kJ/mol
# GULP energy per Si atom -12388.168238 kJ/mol
# Density = 2.036841 g / cm^3
# Si number density = 20.414873 Si / 1000 Ang^3
#
#
#
# Elastic Constant Matrix: (Units=GPa)
#
#
# Indices 1 2 3 4 5 6 
#
# 1 109.4168 16.6833 47.1648 17.1174 -0.0009 0.0000
# 2 16.6833 109.4176 47.1649 -17.1174 0.0008 -0.0001
# 3 47.1648 47.1649 111.3565 -0.0001 0.0000 -0.0001
# 4 17.1174 -17.1174 -0.0001 30.4623 0.0000 0.0009
# 5 -0.0009 0.0008 0.0000 0.0000 30.4621 17.1174
# 6 0.0000 -0.0001 -0.0001 0.0009 17.1174 46.3673
#
#
#
# Elastic Compliance Matrix: (Units=1/GPa)
#
#
# Indices 1 2 3 4 5 6 
#
# 1 0.012607 -0.000999 -0.004917 -0.007646 0.000000 0.000000
# 2 -0.000999 0.012607 -0.004917 0.007645 0.000000 0.000000
# 3 -0.004917 -0.004917 0.013145 0.000000 0.000000 0.000000
# 4 -0.007646 0.007645 0.000000 0.041420 0.000000 -0.000001
# 5 0.000000 0.000000 0.000000 0.000000 0.041420 -0.015291
# 6 0.000000 0.000000 0.000000 -0.000001 -0.015291 0.027212
#
#
# Mechanical properties :
#
#
# Convention : Reuss Voigt Hill
#
# Bulk Modulus (GPa) = 59.89896 61.35743 60.62820
# Shear Modulus (GPa) = 28.46733 36.07022 32.26878
#
# Velocity S-wave (km/s) = 3.73827 4.20796 3.98005
# Velocity P-wave (km/s) = 6.93090 7.33006 7.13328
#
# Compressibility (1/GPa) = 0.01669478
#
# Stress axis : x y z
#
# Youngs Moduli (GPa) = 79.32035 79.32118 76.07474
#
# Poissons Ratio (x) = 0.07924 0.37403
# Poissons Ratio (y) = 0.07924 0.37402
# Poissons Ratio (z) = 0.38999 0.38998
#
# Static dielectric constant tensor:
#      x y z
#    x 3.655640 0.000000 0.000000 
#    y 0.000000 3.655630 0.000010 
#    z 0.000000 0.000010 4.118250 
# 
# 
# High freq. dielectric constant tensor:
#      x y z
#    x 1.790310 0.000000 0.000000 
#    y 0.000000 1.790310 0.000000 
#    z 0.000000 0.000000 1.815240 
# 
# From -- ./inp_files/6036.got.cif
#   From: 2010.03.12/outbox.cif.g09.slc.cpg/sg167_4_cif.got.tgz:6036.got - 2010.04.02 06:42:56.
