data_PCOD8324467
_publ_section_title
;
Structure prediction by ZEFSAII (Michael W. Deem and Ramdas Pophale) SiO2 
 PCOD8324467
Probable space group: P 61
;
_chemical_formula_sum "Si O2"
_cell_formula_units_Z 30
_cell_length_a 19.191291
_cell_length_b 19.191291
_cell_length_c 4.858647
_cell_angle_alpha 90.000000
_cell_angle_beta 90.000000
_cell_angle_gamma 120.000000
_cell_volume 1549.724005
_symmetry_space_group_name_H-M "P 61"
_symmetry_group_IT_number 169
_symmetry_cell_setting 'hexagonal'
loop_
_space_group_symop_operation_xyz
x,y,z
x-y,x,1/6+z
-y,x-y,1/3+z
-x,-y,1/2+z
-x+y,-x,2/3+z
y,-x+y,5/6+z
loop_
_atom_site_type_symbol
_atom_site_label
_atom_site_fract_x
_atom_site_fract_y
_atom_site_fract_z
Si Si1 0.325884 0.949135 0.593250
Si Si2 0.525368 0.472134 0.634018
Si Si3 0.940574 0.324601 0.424291
Si Si4 0.855061 0.148585 0.211941
Si Si5 0.183446 0.088051 0.384124
O O1 0.231676 0.887950 0.570432
O O2 0.375399 0.902648 0.516208
O O3 0.352660 0.027194 0.397514
O O4 0.344836 0.979558 0.904842
O O5 0.520199 0.490749 0.314582
O O6 0.619182 0.517813 0.731735
O O7 0.878445 0.235684 0.326715
O O8 0.858096 0.096296 0.465140
O O9 0.913848 0.150780 0.971082
O O10 0.129022 0.125601 0.468350
#
# Coordination Sequence:
#
# PCOD8324467 Si02
#       5
#     6   6   6   6   6
#     4  10  19  33  51  76 104 132 166 208 260 314
#     4   8  16  30  50  72  98 126 154 192 242 304
#     4  10  19  33  51  76 104 132 166 208 260 314
#     4  12  22  35  56  80 105 134 178 232 273 315
#     4  12  26  41  54  72 103 146 190 236 285 331
#
# _framework density 19.358284999999999
#
# number of rings (size 3 to 8) (size 9 to 14) (size 15 to 20)
#    0.000    1.600    0.000    7.200    0.000    1.600 
#    0.000    0.000    0.000    0.000    0.000   19.600 
#    0.000    0.000    0.000    0.000    0.000    0.000 
#
# Total GULP energy -371823.354393 kJ/mol
# GULP energy per Si atom -12394.111813 kJ/mol
# Density = 1.931422 g / cm^3
# Si number density = 19.358285 Si / 1000 Ang^3
#
#
#
# Elastic Constant Matrix: (Units=GPa)
#
#
# Indices 1 2 3 4 5 6 
#
# 1 106.4049 58.2547 26.8748 0.0000 0.0000 0.0000
# 2 58.2547 106.4049 26.8748 0.0000 0.0000 0.0000
# 3 26.8748 26.8748 92.2880 0.0000 0.0000 0.0000
# 4 0.0000 0.0000 0.0000 27.8594 0.0000 0.0000
# 5 0.0000 0.0000 0.0000 0.0000 27.8594 0.0000
# 6 0.0000 0.0000 0.0000 0.0000 0.0000 24.0751
#
#
#
# Elastic Compliance Matrix: (Units=1/GPa)
#
#
# Indices 1 2 3 4 5 6 
#
# 1 0.013740 -0.007029 -0.001954 0.000000 0.000000 0.000000
# 2 -0.007029 0.013740 -0.001954 0.000000 0.000000 0.000000
# 3 -0.001954 -0.001954 0.011974 0.000000 0.000000 0.000000
# 4 0.000000 0.000000 0.000000 0.035895 0.000000 0.000000
# 5 0.000000 0.000000 0.000000 0.000000 0.035895 0.000000
# 6 0.000000 0.000000 0.000000 0.000000 0.000000 0.041537
#
#
# Mechanical properties :
#
#
# Convention : Reuss Voigt Hill
#
# Bulk Modulus (GPa) = 56.88673 58.78960 57.83817
# Shear Modulus (GPa) = 27.69881 28.83167 28.26524
#
# Velocity S-wave (km/s) = 3.78676 3.86342 3.82529
# Velocity P-wave (km/s) = 6.96918 7.09482 7.03228
#
# Compressibility (1/GPa) = 0.01757879
#
# Stress axis : x y z
#
# Youngs Moduli (GPa) = 72.78174 72.78174 83.51532
#
# Poissons Ratio (x) = 0.51156 0.16321
# Poissons Ratio (y) = 0.51156 0.16321
# Poissons Ratio (z) = 0.14224 0.14224
#
# Static dielectric constant tensor:
#      x y z
#    x 3.498670 0.000000 0.000000 
#    y 0.000000 3.498670 0.000000 
#    z 0.000000 0.000000 3.844050 
# 
# 
# High freq. dielectric constant tensor:
#      x y z
#    x 1.727980 0.000000 0.000000 
#    y 0.000000 1.727980 0.000000 
#    z 0.000000 0.000000 1.784670 
# 
# From -- ./inp_files/158.got.cif
#   From: 2010.03.12/outbox.cif.g09.slc.cpg/sg169_cif.got.tgz:158.got - 2010.04.02 06:46:06.
