data_PCOD8324820
_publ_section_title
;
Structure prediction by ZEFSAII (Michael W. Deem and Ramdas Pophale) SiO2 
 PCOD8324820
Probable space group: P 62
;
_chemical_formula_sum "Si O2"
_cell_formula_units_Z 18
_cell_length_a 4.974214
_cell_length_b 4.974214
_cell_length_c 33.122948
_cell_angle_alpha 90.000000
_cell_angle_beta 90.000000
_cell_angle_gamma 120.000000
_cell_volume 709.755139
_symmetry_space_group_name_H-M "P 62"
_symmetry_group_IT_number 171
_symmetry_cell_setting 'hexagonal'
loop_
_space_group_symop_operation_xyz
x,y,z
x-y,x,1/3+z
-y,x-y,2/3+z
-x,-y,z
-x+y,-x,1/3+z
y,-x+y,2/3+z
loop_
_atom_site_type_symbol
_atom_site_label
_atom_site_fract_x
_atom_site_fract_y
_atom_site_fract_z
Si Si1 0.500000 0.000000 0.489861
Si Si2 0.000000 0.000000 0.545782
Si Si3 0.000000 0.500000 0.321372
Si Si4 0.000000 0.000000 0.045782
Si Si5 0.000000 0.500000 0.935037
Si Si6 0.500000 0.500000 0.436859
O O1 0.793055 0.080238 0.517193
O O2 0.372624 0.678774 0.464553
O O3 0.793054 0.712818 0.574372
O O4 0.306151 0.678774 0.293677
O O5 0.049986 0.778837 0.349661
O O6 0.778837 0.049985 0.075237
#
# Coordination Sequence:
#
# PCOD8324820 Si02
#       6
#     3   3   3   3   3   3
#     4  12  29  51  80 114 155 204 256 318 383 456
#     4  12  30  52  80 116 156 204 258 318 384 458
#     4  12  27  48  78 112 153 201 254 315 381 454
#     4  12  26  48  76 112 152 200 254 314 380 454
#     4  12  29  51  80 114 155 204 256 318 383 456
#     4  12  27  48  78 112 153 201 254 315 381 454
#
# _framework density 25.360862000000001
#
# number of rings (size 3 to 8) (size 9 to 14) (size 15 to 20)
#    0.000    0.000    0.000    8.000    0.000   22.667 
#    0.000    0.000    0.000    0.000    0.000    0.000 
#    0.000    0.000    0.000    0.000    0.000    0.000 
#
# Total GULP energy -223034.447815 kJ/mol
# GULP energy per Si atom -12390.802656 kJ/mol
# Density = 2.530314 g / cm^3
# Si number density = 25.360862 Si / 1000 Ang^3
#
#
#
# Elastic Constant Matrix: (Units=GPa)
#
#
# Indices 1 2 3 4 5 6 
#
# 1 207.5436 90.5253 116.5278 0.0000 0.0000 0.0000
# 2 90.5253 207.5436 116.5278 0.0000 0.0000 0.0000
# 3 116.5278 116.5278 210.4305 0.0000 0.0000 0.0000
# 4 0.0000 0.0000 0.0000 35.8339 0.0000 0.0000
# 5 0.0000 0.0000 0.0000 0.0000 35.8339 0.0000
# 6 0.0000 0.0000 0.0000 0.0000 0.0000 58.5091
#
#
#
# Elastic Compliance Matrix: (Units=1/GPa)
#
#
# Indices 1 2 3 4 5 6 
#
# 1 0.007231 -0.001314 -0.003276 0.000000 0.000000 0.000000
# 2 -0.001314 0.007231 -0.003276 0.000000 0.000000 0.000000
# 3 -0.003276 -0.003276 0.008381 0.000000 0.000000 0.000000
# 4 0.000000 0.000000 0.000000 0.027907 0.000000 0.000000
# 5 0.000000 0.000000 0.000000 0.000000 0.027907 0.000000
# 6 0.000000 0.000000 0.000000 0.000000 0.000000 0.017091
#
#
# Mechanical properties :
#
#
# Convention : Reuss Voigt Hill
#
# Bulk Modulus (GPa) = 140.67524 141.40884 141.04204
# Shear Modulus (GPa) = 43.91666 46.16449 45.04058
#
# Velocity S-wave (km/s) = 4.16585 4.27113 4.21882
# Velocity P-wave (km/s) = 8.87293 8.95562 8.91437
#
# Compressibility (1/GPa) = 0.00710857
#
# Stress axis : x y z
#
# Youngs Moduli (GPa) = 138.28956 138.28956 119.31915
#
# Poissons Ratio (x) = 0.18178 0.39094
# Poissons Ratio (y) = 0.18178 0.39094
# Poissons Ratio (z) = 0.45310 0.45310
#
# Static dielectric constant tensor:
#      x y z
#    x 4.485900 0.000000 0.000000 
#    y 0.000000 4.485900 0.000000 
#    z 0.000000 0.000000 5.632980 
# 
# 
# High freq. dielectric constant tensor:
#      x y z
#    x 2.023790 0.000000 0.000000 
#    y 0.000000 2.023790 0.000000 
#    z 0.000000 0.000000 2.054190 
# 
# From -- ./inp_files/5539.got.cif
#   From: 2010.03.12/outbox.cif.g09.slc.cpg/sg171_3_cif.got.tgz:5539.got - 2010.04.02 06:49:11.
