data_PCOD8324513
_publ_section_title
;
Structure prediction by ZEFSAII (Michael W. Deem and Ramdas Pophale) SiO2 
 PCOD8324513
Probable space group: P 61
;
_chemical_formula_sum "Si O2"
_cell_formula_units_Z 42
_cell_length_a 14.359499
_cell_length_b 14.359499
_cell_length_c 12.547453
_cell_angle_alpha 90.000000
_cell_angle_beta 90.000000
_cell_angle_gamma 120.000000
_cell_volume 2240.602338
_symmetry_space_group_name_H-M "P 61"
_symmetry_group_IT_number 169
_symmetry_cell_setting 'hexagonal'
loop_
_space_group_symop_operation_xyz
x,y,z
x-y,x,1/6+z
-y,x-y,1/3+z
-x,-y,1/2+z
-x+y,-x,2/3+z
y,-x+y,5/6+z
loop_
_atom_site_type_symbol
_atom_site_label
_atom_site_fract_x
_atom_site_fract_y
_atom_site_fract_z
Si Si1 0.368170 0.974782 0.634380
Si Si2 0.853279 0.247386 0.808980
Si Si3 0.459222 0.724275 0.281713
Si Si4 0.014598 0.358878 0.636785
Si Si5 0.542270 0.953434 0.355442
Si Si6 0.622955 0.250218 0.556572
Si Si7 0.604271 0.036092 0.577752
O O1 0.283529 0.850279 0.613134
O O2 0.342732 0.056247 0.569334
O O3 0.372181 0.998005 0.759687
O O4 0.479409 0.989400 0.594685
O O5 0.765156 0.124156 0.831080
O O6 0.796357 0.320960 0.804617
O O7 0.914431 0.259785 0.696314
O O8 0.481657 0.825891 0.351857
O O9 0.427631 0.731537 0.162163
O O10 0.356095 0.628906 0.343277
O O11 0.015399 0.464763 0.681582
O O12 0.997979 0.347024 0.508353
O O13 0.614614 0.993616 0.462446
O O14 0.664042 0.166199 0.579130
#
# Coordination Sequence:
#
# PCOD8324513 Si02
#       7
#     6   6   6   6   6   6   6
#     4  10  22  33  53  80 114 153 199 255 289 352
#     4  11  20  39  62  83 113 157 205 259 305 362
#     4  12  22  35  53  84 115 168 208 243 302 367
#     4  11  21  38  62  83 117 156 201 257 306 361
#     4  11  20  37  52  79 122 156 197 243 303 367
#     4  11  20  32  55  77 113 156 204 241 298 359
#     4  10  21  36  51  82 116 152 194 248 291 360
#
# _framework density 18.744959999999999
#
# number of rings (size 3 to 8) (size 9 to 14) (size 15 to 20)
#    0.000    1.143    8.571    1.714    2.000    2.286 
#    2.571    0.000    0.000    0.000    0.000    2.000 
#    0.000    0.000    0.000    0.000    0.000    0.000 
#
# Total GULP energy -520636.868490 kJ/mol
# GULP energy per Si atom -12396.115916 kJ/mol
# Density = 1.870230 g / cm^3
# Si number density = 18.744960 Si / 1000 Ang^3
#
#
#
# Elastic Constant Matrix: (Units=GPa)
#
#
# Indices 1 2 3 4 5 6 
#
# 1 48.5580 8.2417 31.8313 0.0000 0.0000 0.0000
# 2 8.2417 48.5580 31.8313 0.0000 0.0000 0.0000
# 3 31.8313 31.8313 158.5515 0.0000 0.0000 0.0000
# 4 0.0000 0.0000 0.0000 17.0945 0.0000 0.0000
# 5 0.0000 0.0000 0.0000 0.0000 17.0945 0.0000
# 6 0.0000 0.0000 0.0000 0.0000 0.0000 20.1582
#
#
#
# Elastic Compliance Matrix: (Units=1/GPa)
#
#
# Indices 1 2 3 4 5 6 
#
# 1 0.023761 -0.001043 -0.004561 0.000000 0.000000 0.000000
# 2 -0.001043 0.023761 -0.004561 0.000000 0.000000 0.000000
# 3 -0.004561 -0.004561 0.008138 0.000000 0.000000 0.000000
# 4 0.000000 0.000000 0.000000 0.058498 0.000000 0.000000
# 5 0.000000 0.000000 0.000000 0.000000 0.058498 0.000000
# 6 0.000000 0.000000 0.000000 0.000000 0.000000 0.049608
#
#
# Mechanical properties :
#
#
# Convention : Reuss Voigt Hill
#
# Bulk Modulus (GPa) = 28.30435 44.38624 36.34529
# Shear Modulus (GPa) = 19.65635 23.12032 21.38834
#
# Velocity S-wave (km/s) = 3.24175 3.51581 3.38156
# Velocity P-wave (km/s) = 5.39856 6.34127 5.88881
#
# Compressibility (1/GPa) = 0.03533026
#
# Stress axis : x y z
#
# Youngs Moduli (GPa) = 42.08620 42.08620 122.87411
#
# Poissons Ratio (x) = 0.04390 0.56041
# Poissons Ratio (y) = 0.04390 0.56041
# Poissons Ratio (z) = 0.19195 0.19195
#
# Static dielectric constant tensor:
#      x y z
#    x 3.678120 0.000000 0.000000 
#    y 0.000000 3.678120 0.000000 
#    z 0.000000 0.000000 3.790470 
# 
# 
# High freq. dielectric constant tensor:
#      x y z
#    x 1.689850 0.000000 0.000000 
#    y 0.000000 1.689850 0.000000 
#    z 0.000000 0.000000 1.750090 
# 
# From -- ./inp_files/935.got.cif
#   From: 2010.03.12/outbox.cif.g09.slc.cpg/sg169_cif.got.tgz:935.got - 2010.04.02 06:46:06.
