data_PCOD8324717
_publ_section_title
;
Structure prediction by ZEFSAII (Michael W. Deem and Ramdas Pophale) SiO2 
 PCOD8324717
Probable space group: P 65
;
_chemical_formula_sum "Si O2"
_cell_formula_units_Z 42
_cell_length_a 12.215865
_cell_length_b 12.215865
_cell_length_c 16.372874
_cell_angle_alpha 90.000000
_cell_angle_beta 90.000000
_cell_angle_gamma 120.000000
_cell_volume 2115.943176
_symmetry_space_group_name_H-M "P 65"
_symmetry_group_IT_number 170
_symmetry_cell_setting 'hexagonal'
loop_
_space_group_symop_operation_xyz
x,y,z
x-y,x,5/6+z
-y,x-y,2/3+z
-x,-y,1/2+z
-x+y,-x,1/3+z
y,-x+y,1/6+z
loop_
_atom_site_type_symbol
_atom_site_label
_atom_site_fract_x
_atom_site_fract_y
_atom_site_fract_z
Si Si1 0.685604 0.387112 0.005560
Si Si2 0.233308 0.812392 0.542611
Si Si3 0.622919 0.910493 0.633184
Si Si4 0.313729 0.942748 0.384059
Si Si5 0.369648 0.888825 0.706970
Si Si6 0.517060 0.876361 0.313090
Si Si7 0.786843 0.198869 0.632157
O O1 0.705758 0.269804 0.015078
O O2 0.696565 0.442159 0.096518
O O3 0.783816 0.486737 0.942288
O O4 0.547845 0.340640 0.967821
O O5 0.293569 0.931200 0.481470
O O6 0.271639 0.862052 0.634155
O O7 0.083814 0.732780 0.527495
O O8 0.663127 0.816112 0.672724
O O9 0.497380 0.893395 0.676933
O O10 0.597637 0.880339 0.537510
O O11 0.741738 0.051395 0.642273
O O12 0.422901 0.914186 0.356264
O O13 0.397155 0.019742 0.746779
O O14 0.604019 0.860053 0.380423
#
# Coordination Sequence:
#
# PCOD8324717 Si02
#       7
#     6   6   6   6   6   6   6
#     4  12  22  38  64  98 134 166 212 272 330 406
#     4  12  25  39  67  96 133 172 225 278 338 405
#     4  12  22  44  66  95 130 182 229 275 332 415
#     4  12  22  44  66  95 130 182 229 275 332 415
#     4  12  24  40  63  98 139 170 213 278 344 410
#     4  12  24  40  63  98 139 170 213 278 344 410
#     4  12  25  39  67  96 133 172 225 278 338 405
#
# _framework density 19.849305999999999
#
# number of rings (size 3 to 8) (size 9 to 14) (size 15 to 20)
#    0.000    0.000    8.571    1.714    4.000    2.286 
#    0.000    0.000    0.000    6.857    0.000    0.000 
#    0.000    0.000    0.000    0.000    0.000    0.000 
#
# Total GULP energy -520967.987428 kJ/mol
# GULP energy per Si atom -12403.999701 kJ/mol
# Density = 1.980413 g / cm^3
# Si number density = 19.849306 Si / 1000 Ang^3
#
#
#
# Elastic Constant Matrix: (Units=GPa)
#
#
# Indices 1 2 3 4 5 6 
#
# 1 74.9414 30.6675 25.8928 0.0000 0.0000 0.0000
# 2 30.6675 74.9414 25.8928 0.0000 0.0000 0.0000
# 3 25.8928 25.8928 120.7553 0.0000 0.0000 0.0000
# 4 0.0000 0.0000 0.0000 27.2268 0.0000 0.0000
# 5 0.0000 0.0000 0.0000 0.0000 27.2268 0.0000
# 6 0.0000 0.0000 0.0000 0.0000 0.0000 22.1369
#
#
#
# Elastic Compliance Matrix: (Units=1/GPa)
#
#
# Indices 1 2 3 4 5 6 
#
# 1 0.016584 -0.006003 -0.002269 0.000000 0.000000 0.000000
# 2 -0.006003 0.016584 -0.002269 0.000000 0.000000 0.000000
# 3 -0.002269 -0.002269 0.009254 0.000000 0.000000 0.000000
# 4 0.000000 0.000000 0.000000 0.036729 0.000000 0.000000
# 5 0.000000 0.000000 0.000000 0.000000 0.036729 0.000000
# 6 0.000000 0.000000 0.000000 0.000000 0.000000 0.045173
#
#
# Mechanical properties :
#
#
# Convention : Reuss Voigt Hill
#
# Bulk Modulus (GPa) = 46.85707 48.39380 47.62543
# Shear Modulus (GPa) = 26.42043 27.86378 27.14211
#
# Velocity S-wave (km/s) = 3.65231 3.75075 3.70186
# Velocity P-wave (km/s) = 6.43766 6.57199 6.50517
#
# Compressibility (1/GPa) = 0.02134150
#
# Stress axis : x y z
#
# Youngs Moduli (GPa) = 60.29881 60.29881 108.05874
#
# Poissons Ratio (x) = 0.36195 0.24518
# Poissons Ratio (y) = 0.36195 0.24518
# Poissons Ratio (z) = 0.13681 0.13681
#
# Static dielectric constant tensor:
#      x y z
#    x 3.595020 0.000000 0.000000 
#    y 0.000000 3.595020 0.000000 
#    z 0.000000 0.000000 4.019440 
# 
# 
# High freq. dielectric constant tensor:
#      x y z
#    x 1.754630 0.000000 0.000000 
#    y 0.000000 1.754630 0.000000 
#    z 0.000000 0.000000 1.801870 
# 
# From -- ./inp_files/1391.got.cif
#   From: 2010.03.12/outbox.cif.g09.slc.cpg/sg170_cif.got.tgz:1391.got - 2010.04.02 06:47:37.
