data_PCOD8324511
_publ_section_title
;
Structure prediction by ZEFSAII (Michael W. Deem and Ramdas Pophale) SiO2 
 PCOD8324511
Probable space group: P 61
;
_chemical_formula_sum "Si O2"
_cell_formula_units_Z 30
_cell_length_a 16.337954
_cell_length_b 16.337954
_cell_length_c 6.625185
_cell_angle_alpha 90.000000
_cell_angle_beta 90.000000
_cell_angle_gamma 120.000000
_cell_volume 1531.524609
_symmetry_space_group_name_H-M "P 61"
_symmetry_group_IT_number 169
_symmetry_cell_setting 'hexagonal'
loop_
_space_group_symop_operation_xyz
x,y,z
x-y,x,1/6+z
-y,x-y,1/3+z
-x,-y,1/2+z
-x+y,-x,2/3+z
y,-x+y,5/6+z
loop_
_atom_site_type_symbol
_atom_site_label
_atom_site_fract_x
_atom_site_fract_y
_atom_site_fract_z
Si Si1 0.629552 0.615989 0.502380
Si Si2 0.707171 0.418845 0.162340
Si Si3 0.759321 0.625480 0.157564
Si Si4 0.699341 0.041682 0.738927
Si Si5 0.513979 0.415884 0.662247
O O1 0.721805 0.641825 0.370172
O O2 0.658407 0.701137 0.661841
O O3 0.599041 0.522041 0.633575
O O4 0.540741 0.602282 0.372809
O O5 0.614005 0.341627 0.280105
O O6 0.701560 0.512699 0.112372
O O7 0.789755 0.442602 0.323740
O O8 0.871666 0.666587 0.164526
O O9 0.742307 0.684656 0.985315
O O10 0.609925 0.050685 0.811248
#
# Coordination Sequence:
#
# PCOD8324511 Si02
#       5
#     6   6   6   6   6
#     4  11  20  38  61  80 123 157 202 255 302 366
#     4  11  24  35  53  83 125 165 207 250 290 354
#     4  10  24  41  59  92 115 165 207 256 315 372
#     4  10  23  39  63  86 119 155 210 254 312 376
#     4  10  21  35  54  83 114 164 202 239 301 352
#
# _framework density 19.588325000000001
#
# number of rings (size 3 to 8) (size 9 to 14) (size 15 to 20)
#    0.000    1.600    4.000    0.000    2.800    8.000 
#    0.000    0.000    0.000    0.000    5.200    0.000 
#    0.000    0.000    0.000    0.000    0.000    0.000 
#
# Total GULP energy -372002.504851 kJ/mol
# GULP energy per Si atom -12400.083495 kJ/mol
# Density = 1.954374 g / cm^3
# Si number density = 19.588325 Si / 1000 Ang^3
#
#
#
# Elastic Constant Matrix: (Units=GPa)
#
#
# Indices 1 2 3 4 5 6 
#
# 1 80.0122 28.9852 38.5339 0.0000 0.0000 0.0000
# 2 28.9852 80.0122 38.5339 0.0000 0.0000 0.0000
# 3 38.5339 38.5339 121.4712 0.0000 0.0000 0.0000
# 4 0.0000 0.0000 0.0000 22.3102 0.0000 0.0000
# 5 0.0000 0.0000 0.0000 0.0000 22.3102 0.0000
# 6 0.0000 0.0000 0.0000 0.0000 0.0000 25.5135
#
#
#
# Elastic Compliance Matrix: (Units=1/GPa)
#
#
# Indices 1 2 3 4 5 6 
#
# 1 0.015712 -0.003885 -0.003752 0.000000 0.000000 0.000000
# 2 -0.003885 0.015712 -0.003752 0.000000 0.000000 0.000000
# 3 -0.003752 -0.003752 0.010613 0.000000 0.000000 0.000000
# 4 0.000000 0.000000 0.000000 0.044822 0.000000 0.000000
# 5 0.000000 0.000000 0.000000 0.000000 0.044822 0.000000
# 6 0.000000 0.000000 0.000000 0.000000 0.000000 0.039195
#
#
# Mechanical properties :
#
#
# Convention : Reuss Voigt Hill
#
# Bulk Modulus (GPa) = 51.92163 54.84459 53.38311
# Shear Modulus (GPa) = 24.99057 25.72297 25.35677
#
# Velocity S-wave (km/s) = 3.57569 3.62771 3.60180
# Velocity P-wave (km/s) = 6.60389 6.75325 6.67899
#
# Compressibility (1/GPa) = 0.01925980
#
# Stress axis : x y z
#
# Youngs Moduli (GPa) = 63.64386 63.64386 94.22542
#
# Poissons Ratio (x) = 0.24726 0.35353
# Poissons Ratio (y) = 0.24726 0.35353
# Poissons Ratio (z) = 0.23879 0.23879
#
# Static dielectric constant tensor:
#      x y z
#    x 3.442160 0.000000 0.000000 
#    y 0.000000 3.442160 0.000000 
#    z 0.000000 0.000000 3.462190 
# 
# 
# High freq. dielectric constant tensor:
#      x y z
#    x 1.742930 0.000000 0.000000 
#    y 0.000000 1.742930 0.000000 
#    z 0.000000 0.000000 1.767850 
# 
# From -- ./inp_files/156.got.cif
#   From: 2010.03.12/outbox.cif.g09.slc.cpg/sg169_cif.got.tgz:156.got - 2010.04.02 06:46:06.
