data_PCOD8324829
_publ_section_title
;
Structure prediction by ZEFSAII (Michael W. Deem and Ramdas Pophale) SiO2 
 PCOD8324829
Probable space group: P 63
;
_chemical_formula_sum "Si O2"
_cell_formula_units_Z 34
_cell_length_a 13.035268
_cell_length_b 13.035268
_cell_length_c 15.591647
_cell_angle_alpha 90.000000
_cell_angle_beta 90.000000
_cell_angle_gamma 120.000000
_cell_volume 2294.365240
_symmetry_space_group_name_H-M "P 63"
_symmetry_group_IT_number 173
_symmetry_cell_setting 'hexagonal'
loop_
_space_group_symop_operation_xyz
x,y,z
x-y,x,1/2+z
-y,x-y,z
-x,-y,1/2+z
-x+y,-x,z
y,-x+y,1/2+z
loop_
_atom_site_type_symbol
_atom_site_label
_atom_site_fract_x
_atom_site_fract_y
_atom_site_fract_z
Si Si1 0.549156 0.665843 0.722810
Si Si2 0.116688 0.450844 0.359484
Si Si3 0.666666 0.333333 0.439294
Si Si4 0.666667 0.333335 0.642997
Si Si5 0.788283 0.472775 0.041147
Si Si6 0.149465 0.673051 0.261628
Si Si7 0.326951 0.476414 0.820663
O O1 0.550773 0.695426 0.623251
O O2 0.646277 0.626832 0.737309
O O3 0.417908 0.563768 0.749237
O O4 0.585681 0.781839 0.780055
O O5 0.144652 0.449229 0.459043
O O6 0.145864 0.582091 0.333052
O O7 0.196159 0.414316 0.302242
O O8 0.980556 0.353724 0.344984
O O9 0.666668 0.333334 0.541145
O O10 0.784657 0.335432 0.405590
O O11 0.550768 0.215350 0.676701
O O12 0.651020 0.441528 0.041147
#
# Coordination Sequence:
#
# PCOD8324829 Si02
#       7
#     6   6   2   2   6   6   6
#     4  10  17  30  46  67  91 123 153 190 226 274
#     4  10  17  30  46  67  91 123 153 190 226 274
#     4   9  18  30  39  67  98 121 147 189 234 279
#     4   9  18  30  39  67  98 121 147 189 234 279
#     4  10  16  26  46  66  94 114 158 194 222 262
#     4   9  18  30  46  63  94 125 152 183 232 277
#     4   9  18  30  46  63  94 125 152 183 232 277
#
# _framework density 14.818913999999999
#
# number of rings (size 3 to 8) (size 9 to 14) (size 15 to 20)
#    0.353    2.118    3.529    0.706    2.471    0.000 
#    0.000    0.000    0.000    0.706    0.000    0.000 
#    0.000    0.000    0.000    0.000    0.000    0.000 
#
# Total GULP energy -421573.954286 kJ/mol
# GULP energy per Si atom -12399.233950 kJ/mol
# Density = 1.478519 g / cm^3
# Si number density = 14.818914 Si / 1000 Ang^3
#
#
#
# Elastic Constant Matrix: (Units=GPa)
#
#
# Indices 1 2 3 4 5 6 
#
# 1 88.1329 49.6427 39.7395 0.0000 0.0000 -0.0001
# 2 49.6427 88.1327 39.7393 0.0000 0.0000 -0.0001
# 3 39.7395 39.7393 119.9191 0.0000 0.0000 -0.0001
# 4 0.0000 0.0000 0.0000 11.6721 -0.0001 0.0000
# 5 0.0000 0.0000 0.0000 -0.0001 11.6721 0.0000
# 6 -0.0001 -0.0001 -0.0001 0.0000 0.0000 19.2452
#
#
#
# Elastic Compliance Matrix: (Units=1/GPa)
#
#
# Indices 1 2 3 4 5 6 
#
# 1 0.017477 -0.008504 -0.002974 0.000000 0.000000 0.000000
# 2 -0.008504 0.017477 -0.002974 0.000000 0.000000 0.000000
# 3 -0.002974 -0.002974 0.010310 0.000000 0.000000 0.000000
# 4 0.000000 0.000000 0.000000 0.085674 0.000001 0.000000
# 5 0.000000 0.000000 0.000000 0.000001 0.085674 0.000000
# 6 0.000000 0.000000 0.000000 0.000000 0.000000 0.051961
#
#
# Mechanical properties :
#
#
# Convention : Reuss Voigt Hill
#
# Bulk Modulus (GPa) = 61.11641 61.60309 61.35975
# Shear Modulus (GPa) = 16.50547 19.65543 18.08045
#
# Velocity S-wave (km/s) = 3.34100 3.64589 3.49677
# Velocity P-wave (km/s) = 7.49765 7.70612 7.60260
#
# Compressibility (1/GPa) = 0.01636222
#
# Stress axis : x y z
#
# Youngs Moduli (GPa) = 57.21750 57.21748 96.99454
#
# Poissons Ratio (x) = 0.48655 0.28844
# Poissons Ratio (y) = 0.48655 0.28843
# Poissons Ratio (z) = 0.17015 0.17015
#
# Static dielectric constant tensor:
#      x y z
#    x 2.701520 0.000000 0.000000 
#    y 0.000000 2.701520 0.000000 
#    z 0.000000 0.000000 2.763460 
# 
# 
# High freq. dielectric constant tensor:
#      x y z
#    x 1.541930 0.000000 0.000000 
#    y 0.000000 1.541930 0.000000 
#    z 0.000000 0.000000 1.574330 
# 
# From -- ./inp_files/1097.got.cif
#   From: 2010.03.12/outbox.cif.g09.slc.cpg/sg173_cif.got.tgz:1097.got - 2010.04.02 06:54:12.
