data_PCOD8324493
_publ_section_title
;
Structure prediction by ZEFSAII (Michael W. Deem and Ramdas Pophale) SiO2 
 PCOD8324493
Probable space group: P 61
;
_chemical_formula_sum "Si O2"
_cell_formula_units_Z 48
_cell_length_a 17.914139
_cell_length_b 17.914139
_cell_length_c 8.810238
_cell_angle_alpha 90.000000
_cell_angle_beta 90.000000
_cell_angle_gamma 120.000000
_cell_volume 2448.556624
_symmetry_space_group_name_H-M "P 61"
_symmetry_group_IT_number 169
_symmetry_cell_setting 'hexagonal'
loop_
_space_group_symop_operation_xyz
x,y,z
x-y,x,1/6+z
-y,x-y,1/3+z
-x,-y,1/2+z
-x+y,-x,2/3+z
y,-x+y,5/6+z
loop_
_atom_site_type_symbol
_atom_site_label
_atom_site_fract_x
_atom_site_fract_y
_atom_site_fract_z
Si Si1 0.627632 0.037536 0.285890
Si Si2 0.450563 0.626478 0.271649
Si Si3 0.599430 0.920442 0.041641
Si Si4 0.201023 0.342582 0.437396
Si Si5 0.561224 0.240894 0.580259
Si Si6 0.529815 0.569127 0.005715
Si Si7 0.257811 0.727614 0.082317
Si Si8 0.300143 0.968185 0.111518
O O1 0.665081 0.136306 0.228251
O O2 0.659429 0.025440 0.446667
O O3 0.523389 0.989421 0.264821
O O4 0.660791 0.992495 0.162948
O O5 0.422150 0.695197 0.220296
O O6 0.366521 0.553979 0.355502
O O7 0.475321 0.592781 0.121411
O O8 0.651963 0.885633 0.944210
O O9 0.556205 0.955261 0.923640
O O10 0.518535 0.848380 0.136723
O O11 0.215221 0.432007 0.364456
O O12 0.248261 0.306644 0.328390
O O13 0.096614 0.292280 0.444121
O O14 0.530459 0.266937 0.429979
O O15 0.644660 0.235140 0.527137
O O16 0.583163 0.646786 0.884938
#
# Coordination Sequence:
#
# PCOD8324493 Si02
#       8
#     6   6   6   6   6   6   6   6
#     4  11  22  34  60  84 118 153 209 260 306 377
#     4  11  23  37  51  79 109 160 211 258 315 363
#     4   9  21  37  52  82 113 159 206 245 312 373
#     4  10  23  41  62  84 120 155 202 250 327 383
#     4  11  22  35  51  75 115 159 205 267 298 352
#     4  10  20  37  58  79 116 160 205 257 313 367
#     4  11  22  36  52  80 115 162 219 259 302 358
#     4  11  23  41  64  93 118 162 205 268 321 393
#
# _framework density 19.603384999999999
#
# number of rings (size 3 to 8) (size 9 to 14) (size 15 to 20)
#    0.000    1.500    1.250    6.000    7.000    1.000 
#    0.000    0.000    0.000    0.000    0.000    1.750 
#    0.000    0.000    0.000    0.000    0.000    0.000 
#
# Total GULP energy -594658.762708 kJ/mol
# GULP energy per Si atom -12388.724223 kJ/mol
# Density = 1.955877 g / cm^3
# Si number density = 19.603385 Si / 1000 Ang^3
#
#
#
# Elastic Constant Matrix: (Units=GPa)
#
#
# Indices 1 2 3 4 5 6 
#
# 1 77.8569 29.8346 26.5402 0.0000 0.0000 0.0000
# 2 29.8346 77.8569 26.5402 0.0000 0.0000 0.0000
# 3 26.5402 26.5402 91.6245 0.0000 0.0000 0.0000
# 4 0.0000 0.0000 0.0000 24.9098 0.0000 0.0000
# 5 0.0000 0.0000 0.0000 0.0000 24.9098 0.0000
# 6 0.0000 0.0000 0.0000 0.0000 0.0000 24.0112
#
#
#
# Elastic Compliance Matrix: (Units=1/GPa)
#
#
# Indices 1 2 3 4 5 6 
#
# 1 0.015828 -0.004996 -0.003138 0.000000 0.000000 0.000000
# 2 -0.004996 0.015828 -0.003138 0.000000 0.000000 0.000000
# 3 -0.003138 -0.003138 0.012732 0.000000 0.000000 0.000000
# 4 0.000000 0.000000 0.000000 0.040145 0.000000 0.000000
# 5 0.000000 0.000000 0.000000 0.000000 0.040145 0.000000
# 6 0.000000 0.000000 0.000000 0.000000 0.000000 0.041647
#
#
# Mechanical properties :
#
#
# Convention : Reuss Voigt Hill
#
# Bulk Modulus (GPa) = 45.77565 45.90757 45.84161
# Shear Modulus (GPa) = 25.49084 25.72771 25.60928
#
# Velocity S-wave (km/s) = 3.60992 3.62665 3.61830
# Velocity P-wave (km/s) = 6.38568 6.40358 6.39464
#
# Compressibility (1/GPa) = 0.02184567
#
# Stress axis : x y z
#
# Youngs Moduli (GPa) = 63.17918 63.17918 78.54303
#
# Poissons Ratio (x) = 0.31562 0.24645
# Poissons Ratio (y) = 0.31562 0.24645
# Poissons Ratio (z) = 0.19824 0.19824
#
# Static dielectric constant tensor:
#      x y z
#    x 3.572340 0.000000 0.000000 
#    y 0.000000 3.572340 0.000000 
#    z 0.000000 0.000000 3.631110 
# 
# 
# High freq. dielectric constant tensor:
#      x y z
#    x 1.738940 0.000000 0.000000 
#    y 0.000000 1.738940 0.000000 
#    z 0.000000 0.000000 1.775070 
# 
# From -- ./inp_files/727.got.cif
#   From: 2010.03.12/outbox.cif.g09.slc.cpg/sg169_cif.got.tgz:727.got - 2010.04.02 06:46:06.
