data_PCOD8324474
_publ_section_title
;
Structure prediction by ZEFSAII (Michael W. Deem and Ramdas Pophale) SiO2 
 PCOD8324474
Probable space group: P 61
;
_chemical_formula_sum "Si O2"
_cell_formula_units_Z 42
_cell_length_a 14.471282
_cell_length_b 14.471282
_cell_length_c 11.473954
_cell_angle_alpha 90.000000
_cell_angle_beta 90.000000
_cell_angle_gamma 120.000000
_cell_volume 2080.931333
_symmetry_space_group_name_H-M "P 61"
_symmetry_group_IT_number 169
_symmetry_cell_setting 'hexagonal'
loop_
_space_group_symop_operation_xyz
x,y,z
x-y,x,1/6+z
-y,x-y,1/3+z
-x,-y,1/2+z
-x+y,-x,2/3+z
y,-x+y,5/6+z
loop_
_atom_site_type_symbol
_atom_site_label
_atom_site_fract_x
_atom_site_fract_y
_atom_site_fract_z
Si Si1 0.288734 0.693478 0.364940
Si Si2 0.566782 0.126273 0.713313
Si Si3 0.363612 0.346194 0.992317
Si Si4 0.268245 0.747341 0.853727
Si Si5 0.853456 0.827645 0.808583
Si Si6 0.028638 0.655422 0.920267
Si Si7 0.160936 0.156740 0.937848
O O1 0.321194 0.797481 0.282977
O O2 0.200649 0.664649 0.466198
O O3 0.236685 0.586522 0.289220
O O4 0.403031 0.724345 0.416574
O O5 0.470417 0.060229 0.801662
O O6 0.577040 0.039117 0.638628
O O7 0.252671 0.279587 0.920671
O O8 0.443101 0.303057 0.958511
O O9 0.340859 0.324249 0.128311
O O10 0.152269 0.690011 0.912985
O O11 0.852744 0.933531 0.762781
O O12 0.736793 0.726950 0.833401
O O13 0.904420 0.792815 0.703922
O O14 0.143096 0.094496 0.815685
#
# Coordination Sequence:
#
# PCOD8324474 Si02
#       7
#     6   6   6   6   6   6   6
#     4  10  23  40  59  90 127 162 203 264 306 376
#     4  11  25  40  64  90 132 166 209 255 322 368
#     4  12  20  38  63  93 118 162 209 255 302 377
#     4  11  20  38  63  90 117 162 210 253 316 362
#     4  10  19  35  62  88 117 149 202 252 292 355
#     4  12  20  38  63  93 118 162 209 255 302 377
#     4  10  19  35  62  88 117 149 202 252 292 355
#
# _framework density 20.18327
#
# number of rings (size 3 to 8) (size 9 to 14) (size 15 to 20)
#    0.000    1.143    7.143    0.857    0.000    0.000 
#    0.000    0.000   15.714    0.000    0.000    0.000 
#    0.000    0.000    0.000    0.000    0.000    0.000 
#
# Total GULP energy -520643.710230 kJ/mol
# GULP energy per Si atom -12396.278815 kJ/mol
# Density = 2.013733 g / cm^3
# Si number density = 20.183270 Si / 1000 Ang^3
#
#
#
# Elastic Constant Matrix: (Units=GPa)
#
#
# Indices 1 2 3 4 5 6 
#
# 1 86.5139 31.2389 18.6049 0.0000 0.0000 0.0000
# 2 31.2389 86.5139 18.6049 0.0000 0.0000 0.0000
# 3 18.6049 18.6049 42.6480 0.0000 0.0000 0.0000
# 4 0.0000 0.0000 0.0000 17.5889 0.0000 0.0000
# 5 0.0000 0.0000 0.0000 0.0000 17.5889 0.0000
# 6 0.0000 0.0000 0.0000 0.0000 0.0000 27.6375
#
#
#
# Elastic Compliance Matrix: (Units=1/GPa)
#
#
# Indices 1 2 3 4 5 6 
#
# 1 0.013971 -0.004121 -0.004297 0.000000 0.000000 0.000000
# 2 -0.004121 0.013971 -0.004297 0.000000 0.000000 0.000000
# 3 -0.004297 -0.004297 0.027197 0.000000 0.000000 0.000000
# 4 0.000000 0.000000 0.000000 0.056854 0.000000 0.000000
# 5 0.000000 0.000000 0.000000 0.000000 0.056854 0.000000
# 6 0.000000 0.000000 0.000000 0.000000 0.000000 0.036183
#
#
# Mechanical properties :
#
#
# Convention : Reuss Voigt Hill
#
# Bulk Modulus (GPa) = 33.65983 39.17480 36.41731
# Shear Modulus (GPa) = 20.80197 22.37820 21.59008
#
# Velocity S-wave (km/s) = 3.21386 3.33340 3.27418
# Velocity P-wave (km/s) = 5.52134 5.85381 5.69000
#
# Compressibility (1/GPa) = 0.02970901
#
# Stress axis : x y z
#
# Youngs Moduli (GPa) = 71.57788 71.57788 36.76892
#
# Poissons Ratio (x) = 0.29494 0.15800
# Poissons Ratio (y) = 0.29494 0.15800
# Poissons Ratio (z) = 0.30758 0.30758
#
# Static dielectric constant tensor:
#      x y z
#    x 3.681920 0.000000 0.000000 
#    y 0.000000 3.681920 0.000000 
#    z 0.000000 0.000000 3.449530 
# 
# 
# High freq. dielectric constant tensor:
#      x y z
#    x 1.787220 0.000000 0.000000 
#    y 0.000000 1.787220 0.000000 
#    z 0.000000 0.000000 1.760340 
# 
# From -- ./inp_files/956.got.cif
#   From: 2010.03.12/outbox.cif.g09.slc.cpg/sg169_cif.got.tgz:956.got - 2010.04.02 06:46:06.
