data_PCOD8324894
_publ_section_title
;
Structure prediction by ZEFSAII (Michael W. Deem and Ramdas Pophale) SiO2 
 PCOD8324894
Probable space group: P 63
;
_chemical_formula_sum "Si O2"
_cell_formula_units_Z 48
_cell_length_a 16.952364
_cell_length_b 16.952364
_cell_length_c 14.351478
_cell_angle_alpha 90.000000
_cell_angle_beta 90.000000
_cell_angle_gamma 120.000000
_cell_volume 3571.805479
_symmetry_space_group_name_H-M "P 63"
_symmetry_group_IT_number 173
_symmetry_cell_setting 'hexagonal'
loop_
_space_group_symop_operation_xyz
x,y,z
x-y,x,1/2+z
-y,x-y,z
-x,-y,1/2+z
-x+y,-x,z
y,-x+y,1/2+z
loop_
_atom_site_type_symbol
_atom_site_label
_atom_site_fract_x
_atom_site_fract_y
_atom_site_fract_z
Si Si1 0.480219 0.147039 0.703830
Si Si2 0.852961 0.519778 0.205946
Si Si3 0.407094 0.405996 0.058428
Si Si4 0.519778 0.852961 0.705946
Si Si5 0.405995 0.407094 0.558427
Si Si6 0.001107 0.594009 0.351348
Si Si7 0.594008 0.001107 0.851349
Si Si8 0.147039 0.480219 0.203830
O O1 0.424818 0.089712 0.613078
O O2 0.582077 0.164155 0.703672
O O3 0.484708 0.242354 0.702678
O O4 0.425723 0.091404 0.795740
O O5 0.757659 0.515317 0.207099
O O6 0.835820 0.417910 0.206105
O O7 0.910291 0.575170 0.296699
O O8 0.908599 0.574264 0.114035
O O9 0.500524 0.499476 0.052494
O O10 0.369694 0.368055 0.954888
O O11 0.574264 0.908599 0.614035
O O12 0.575171 0.910292 0.796699
O O13 0.368054 0.369693 0.454888
O O14 0.424818 0.335106 0.613078
O O15 0.001085 0.500543 0.357281
O O16 0.665681 0.091404 0.795740
#
# Coordination Sequence:
#
# PCOD8324894 Si02
#       8
#     6   6   6   6   6   6   6   6
#     4   9  16  25  38  55  73  95 126 161 190 215
#     4   9  16  25  38  55  73  95 126 161 190 215
#     4   8  15  27  38  49  71 100 123 147 186 228
#     4   9  16  25  38  55  73  95 126 161 190 215
#     4   8  15  27  38  49  71 100 123 147 186 228
#     4   8  15  27  38  49  71 100 123 147 186 228
#     4   8  15  27  38  49  71 100 123 147 186 228
#     4   9  16  25  38  55  73  95 126 161 190 215
#
# _framework density 13.438582
#
# number of rings (size 3 to 8) (size 9 to 14) (size 15 to 20)
#    0.000    3.500    0.000    3.500    0.000    2.000 
#    0.000    0.000    0.000    6.000    0.000    0.000 
#    0.000    0.000    0.000   48.000    0.000  104.000 
#
# Total GULP energy -594809.461024 kJ/mol
# GULP energy per Si atom -12391.863771 kJ/mol
# Density = 1.340800 g / cm^3
# Si number density = 13.438582 Si / 1000 Ang^3
#
#
#
# Elastic Constant Matrix: (Units=GPa)
#
#
# Indices 1 2 3 4 5 6 
#
# 1 73.0834 27.5018 36.6685 0.0000 0.0000 0.0000
# 2 27.5018 73.0834 36.6685 0.0000 0.0000 0.0000
# 3 36.6685 36.6685 132.5911 0.0000 0.0000 0.0000
# 4 0.0000 0.0000 0.0000 8.9490 0.0000 0.0000
# 5 0.0000 0.0000 0.0000 0.0000 8.9490 0.0000
# 6 0.0000 0.0000 0.0000 0.0000 0.0000 22.7908
#
#
#
# Elastic Compliance Matrix: (Units=1/GPa)
#
#
# Indices 1 2 3 4 5 6 
#
# 1 0.017196 -0.004743 -0.003444 0.000000 0.000000 0.000000
# 2 -0.004743 0.017196 -0.003444 0.000000 0.000000 0.000000
# 3 -0.003444 -0.003444 0.009447 0.000000 0.000000 0.000000
# 4 0.000000 0.000000 0.000000 0.111744 0.000000 0.000000
# 5 0.000000 0.000000 0.000000 0.000000 0.111744 0.000000
# 6 0.000000 0.000000 0.000000 0.000000 0.000000 0.043877
#
#
# Mechanical properties :
#
#
# Convention : Reuss Voigt Hill
#
# Bulk Modulus (GPa) = 48.59817 53.38169 50.98993
# Shear Modulus (GPa) = 14.64886 19.99905 17.32395
#
# Velocity S-wave (km/s) = 3.30519 3.86188 3.59433
# Velocity P-wave (km/s) = 7.12793 7.72622 7.43309
#
# Compressibility (1/GPa) = 0.02057691
#
# Stress axis : x y z
#
# Youngs Moduli (GPa) = 58.15402 58.15402 105.85601
#
# Poissons Ratio (x) = 0.27582 0.36455
# Poissons Ratio (y) = 0.27582 0.36455
# Poissons Ratio (z) = 0.20027 0.20027
#
# Static dielectric constant tensor:
#      x y z
#    x 2.393530 0.000000 0.000000 
#    y 0.000000 2.393530 0.000000 
#    z 0.000000 0.000000 3.366460 
# 
# 
# High freq. dielectric constant tensor:
#      x y z
#    x 1.480460 0.000000 0.000000 
#    y 0.000000 1.480460 0.000000 
#    z 0.000000 0.000000 1.527630 
# 
# From -- ./inp_files/1164.got.cif
#   From: 2010.03.12/outbox.cif.g09.slc.cpg/sg173_cif.got.tgz:1164.got - 2010.04.02 06:54:12.
