data_PCOD8324441
_publ_section_title
;
Structure prediction by ZEFSAII (Michael W. Deem and Ramdas Pophale) SiO2 
 PCOD8324441
Probable space group: P 6
;
_chemical_formula_sum "Si O2"
_cell_formula_units_Z 21
_cell_length_a 11.136809
_cell_length_b 11.136809
_cell_length_c 8.964519
_cell_angle_alpha 90.000000
_cell_angle_beta 90.000000
_cell_angle_gamma 120.000000
_cell_volume 962.895521
_symmetry_space_group_name_H-M "P 6"
_symmetry_group_IT_number 168
_symmetry_cell_setting 'hexagonal'
loop_
_space_group_symop_operation_xyz
x,y,z
x-y,x,z
-y,x-y,z
-x,-y,z
-x+y,-x,z
y,-x+y,z
loop_
_atom_site_type_symbol
_atom_site_label
_atom_site_fract_x
_atom_site_fract_y
_atom_site_fract_z
Si Si1 0.000000 0.500000 0.778920
Si Si2 0.276332 0.278921 0.234330
Si Si3 0.024076 0.287704 0.580219
Si Si4 0.368740 0.535295 0.055652
O O1 0.947651 0.579227 0.673238
O O2 0.125598 0.612412 0.881281
O O3 0.265231 0.135319 0.188439
O O4 0.317687 0.304328 0.407056
O O5 0.388172 0.419812 0.147026
O O6 0.149242 0.263786 0.623373
O O7 0.482108 0.698477 0.091094
#
# Coordination Sequence:
#
# PCOD8324441 Si02
#       4
#     3   6   6   6
#     4  12  22  40  62  94 134 170 224 262 332 392
#     4  10  21  40  65  94 126 164 215 269 327 388
#     4  10  23  42  67  96 130 171 219 277 335 398
#     4  10  23  39  61  90 127 174 210 267 323 383
#
# _framework density 21.809217
#
# number of rings (size 3 to 8) (size 9 to 14) (size 15 to 20)
#    0.571    1.143    0.000    4.000    0.000    8.000 
#    1.714    0.000    0.000    3.429    0.000    0.000 
#    0.000    0.000    0.000    0.000    0.000    0.000 
#
# Total GULP energy -260206.512750 kJ/mol
# GULP energy per Si atom -12390.786321 kJ/mol
# Density = 2.175958 g / cm^3
# Si number density = 21.809217 Si / 1000 Ang^3
#
#
#
# Elastic Constant Matrix: (Units=GPa)
#
#
# Indices 1 2 3 4 5 6 
#
# 1 98.5963 35.5737 40.0720 0.0000 0.0000 0.0000
# 2 35.5737 98.5963 40.0720 0.0000 0.0000 0.0000
# 3 40.0720 40.0720 73.6745 0.0000 0.0000 0.0000
# 4 0.0000 0.0000 0.0000 31.2391 0.0000 0.0000
# 5 0.0000 0.0000 0.0000 0.0000 31.2391 0.0000
# 6 0.0000 0.0000 0.0000 0.0000 0.0000 31.5113
#
#
#
# Elastic Compliance Matrix: (Units=1/GPa)
#
#
# Indices 1 2 3 4 5 6 
#
# 1 0.013454 -0.002414 -0.006005 0.000000 0.000000 0.000000
# 2 -0.002414 0.013454 -0.006005 0.000000 0.000000 0.000000
# 3 -0.006005 -0.006005 0.020105 0.000000 0.000000 0.000000
# 4 0.000000 0.000000 0.000000 0.032011 0.000000 0.000000
# 5 0.000000 0.000000 0.000000 0.000000 0.032011 0.000000
# 6 0.000000 0.000000 0.000000 0.000000 0.000000 0.031735
#
#
# Mechanical properties :
#
#
# Convention : Reuss Voigt Hill
#
# Bulk Modulus (GPa) = 55.04682 55.81142 55.42912
# Shear Modulus (GPa) = 28.14184 29.14119 28.64151
#
# Velocity S-wave (km/s) = 3.59606 3.65935 3.62785
# Velocity P-wave (km/s) = 6.52205 6.59551 6.55889
#
# Compressibility (1/GPa) = 0.01816636
#
# Stress axis : x y z
#
# Youngs Moduli (GPa) = 74.32904 74.32904 49.73818
#
# Poissons Ratio (x) = 0.17940 0.29867
# Poissons Ratio (y) = 0.17940 0.29867
# Poissons Ratio (z) = 0.44633 0.44633
#
# Static dielectric constant tensor:
#      x y z
#    x 4.071290 0.000000 0.000000 
#    y 0.000000 4.071290 0.000000 
#    z 0.000000 0.000000 3.724460 
# 
# 
# High freq. dielectric constant tensor:
#      x y z
#    x 1.878750 0.000000 0.000000 
#    y 0.000000 1.878750 0.000000 
#    z 0.000000 0.000000 1.838080 
# 
# From -- ./inp_files/188.got.cif
#   From: 2010.03.12/outbox.cif.g09.slc.cpg/sg168_cif.got.tgz:188.got - 2010.04.02 06:45:48.
