data_PCOD8324994
_publ_section_title
;
Structure prediction by ZEFSAII (Michael W. Deem and Ramdas Pophale) SiO2 
 PCOD8324994
Probable space group: P -6
;
_chemical_formula_sum "Si O2"
_cell_formula_units_Z 42
_cell_length_a 8.663789
_cell_length_b 8.663789
_cell_length_c 30.489442
_cell_angle_alpha 90.000000
_cell_angle_beta 90.000000
_cell_angle_gamma 120.000000
_cell_volume 1981.964364
_symmetry_space_group_name_H-M "P -6"
_symmetry_group_IT_number 174
_symmetry_cell_setting 'hexagonal'
loop_
_space_group_symop_operation_xyz
x,y,z
-x+y,-x,-z
-y,x-y,z
x,y,-z
-x+y,-x,z
-y,x-y,-z
loop_
_atom_site_type_symbol
_atom_site_label
_atom_site_fract_x
_atom_site_fract_y
_atom_site_fract_z
Si Si1 0.341961 0.006600 0.188421
Si Si2 0.668594 0.990987 0.051204
Si Si3 0.342689 0.006917 0.085767
Si Si4 0.007170 0.675619 0.223141
Si Si5 0.865787 0.335780 0.451891
Si Si6 0.998703 0.335490 0.360690
Si Si7 0.668099 0.995738 0.673874
O O1 0.376243 0.039148 0.137089
O O2 0.191570 0.804862 0.198589
O O3 0.277191 0.136343 0.207763
O O4 0.526539 0.052860 0.211118
O O5 0.863387 0.142062 0.065969
O O6 0.525746 0.050865 0.062439
O O7 0.614190 0.809390 0.076924
O O8 0.668530 0.954700 0.000000
O O9 0.034117 0.702251 0.274669
O O10 0.840284 0.509075 0.447583
O O11 0.947610 0.336748 0.500000
O O12 0.991763 0.336268 0.413597
O O13 0.198893 0.391122 0.348886
O O14 0.943536 0.471045 0.339606
O O15 0.864147 0.141628 0.341583
#
# Coordination Sequence:
#
# PCOD8324994 Si02
#       7
#     6   6   6   6   6   6   6
#     4  12  25  44  67  91 128 162 219 256 319 367
#     4  12  25  44  67  96 129 162 205 253 316 377
#     4  12  25  44  67  96 125 168 206 261 309 378
#     4  12  25  43  63  94 123 173 207 271 308 378
#     4   8  15  35  66  94 122 165 209 256 317 377
#     4  12  23  42  61  98 124 175 205 271 310 388
#     4  12  24  40  65  89 133 163 221 254 327 369
#
# _framework density 21.191096000000002
#
# number of rings (size 3 to 8) (size 9 to 14) (size 15 to 20)
#    0.286    0.286    1.429    9.000    0.000    0.000 
#    0.000    1.429    0.000    0.000    0.000    0.000 
#    0.000    0.000    0.000    0.000    0.000    0.000 
#
# Total GULP energy -521108.480195 kJ/mol
# GULP energy per Si atom -12407.344767 kJ/mol
# Density = 2.114286 g / cm^3
# Si number density = 21.191096 Si / 1000 Ang^3
#
#
#
# Elastic Constant Matrix: (Units=GPa)
#
#
# Indices 1 2 3 4 5 6 
#
# 1 83.2735 15.5509 36.5244 0.0000 0.0000 0.0000
# 2 15.5509 83.2733 36.5243 0.0000 0.0000 0.0000
# 3 36.5244 36.5243 152.6853 0.0000 0.0000 0.0000
# 4 0.0000 0.0000 0.0000 6.0096 -0.0003 0.0000
# 5 0.0000 0.0000 0.0000 -0.0003 6.0111 0.0000
# 6 0.0000 0.0000 0.0000 0.0000 0.0000 33.8613
#
#
#
# Elastic Compliance Matrix: (Units=1/GPa)
#
#
# Indices 1 2 3 4 5 6 
#
# 1 0.013529 -0.001237 -0.002941 0.000000 0.000000 0.000000
# 2 -0.001237 0.013529 -0.002941 0.000000 0.000000 0.000000
# 3 -0.002941 -0.002941 0.007956 0.000000 0.000000 0.000000
# 4 0.000000 0.000000 0.000000 0.166401 0.000009 0.000000
# 5 0.000000 0.000000 0.000000 0.000009 0.166359 0.000000
# 6 0.000000 0.000000 0.000000 0.000000 0.000000 0.029532
#
#
# Mechanical properties :
#
#
# Convention : Reuss Voigt Hill
#
# Bulk Modulus (GPa) = 48.12508 55.15903 51.64206
# Shear Modulus (GPa) = 11.94832 24.55189 18.25011
#
# Velocity S-wave (km/s) = 2.37710 3.40751 2.93783
# Velocity P-wave (km/s) = 5.50395 6.44727 5.99420
#
# Compressibility (1/GPa) = 0.02077919
#
# Stress axis : x y z
#
# Youngs Moduli (GPa) = 73.91345 73.91335 125.68738
#
# Poissons Ratio (x) = 0.09142 0.36959
# Poissons Ratio (y) = 0.09142 0.36959
# Poissons Ratio (z) = 0.21735 0.21734
#
# Static dielectric constant tensor:
#      x y z
#    x 3.696240 0.000000 0.000000 
#    y 0.000000 3.696240 0.000000 
#    z 0.000000 0.000000 3.927510 
# 
# 
# High freq. dielectric constant tensor:
#      x y z
#    x 1.827460 0.000000 0.000000 
#    y 0.000000 1.827460 0.000000 
#    z 0.000000 0.000000 1.850250 
# 
# From -- ./inp_files/1098.got.cif
#   From: 2010.03.12/outbox.cif.g09.slc.cpg/sg174_cif.got.tgz:1098.got - 2010.04.02 06:54:58.
