data_PCOD8324874
_publ_section_title
;
Structure prediction by ZEFSAII (Michael W. Deem and Ramdas Pophale) SiO2 
 PCOD8324874
Probable space group: P 63
;
_chemical_formula_sum "Si O2"
_cell_formula_units_Z 36
_cell_length_a 8.614954
_cell_length_b 8.614954
_cell_length_c 26.073152
_cell_angle_alpha 90.000000
_cell_angle_beta 90.000000
_cell_angle_gamma 120.000000
_cell_volume 1675.830514
_symmetry_space_group_name_H-M "P 63"
_symmetry_group_IT_number 173
_symmetry_cell_setting 'hexagonal'
loop_
_space_group_symop_operation_xyz
x,y,z
x-y,x,1/2+z
-y,x-y,z
-x,-y,1/2+z
-x+y,-x,z
y,-x+y,1/2+z
loop_
_atom_site_type_symbol
_atom_site_label
_atom_site_fract_x
_atom_site_fract_y
_atom_site_fract_z
Si Si1 0.880520 0.109511 0.493290
Si Si2 0.975063 0.304946 0.390135
Si Si3 0.995291 0.345444 0.853510
Si Si4 0.350853 0.004346 0.736561
Si Si5 0.553382 0.725546 0.094203
Si Si6 0.683049 0.004051 0.696736
O O1 0.772316 0.138094 0.537834
O O2 0.097733 0.203889 0.496168
O O3 0.861388 0.195312 0.440594
O O4 0.156221 0.302271 0.378664
O O5 0.829203 0.188110 0.347242
O O6 0.010942 0.506145 0.389764
O O7 0.963775 0.380848 0.795273
O O8 0.195454 0.809791 0.717262
O O9 0.526953 0.052585 0.704124
O O10 0.279731 0.141676 0.728145
O O11 0.477684 0.863894 0.100373
O O12 0.699835 0.744139 0.136546
#
# Coordination Sequence:
#
# PCOD8324874 Si02
#       6
#     6   6   6   6   6   6
#     4  10  23  43  69  99 134 173 229 289 347 412
#     4  12  25  45  67 102 141 180 233 291 338 422
#     4  12  24  42  68  98 137 183 230 275 348 407
#     4  12  24  42  68  98 137 183 226 282 340 415
#     4  10  23  43  69  99 130 177 224 283 358 416
#     4  12  25  45  67 102 141 178 234 288 345 418
#
# _framework density 21.481884999999998
#
# number of rings (size 3 to 8) (size 9 to 14) (size 15 to 20)
#    0.667    0.000    3.333    5.000    4.667    0.000 
#    0.000    0.000    0.000    2.667    0.000    0.000 
#    0.000    0.000    0.000    0.000    0.000    0.000 
#
# Total GULP energy -445978.636913 kJ/mol
# GULP energy per Si atom -12388.295470 kJ/mol
# Density = 2.143299 g / cm^3
# Si number density = 21.481885 Si / 1000 Ang^3
#
#
#
# Elastic Constant Matrix: (Units=GPa)
#
#
# Indices 1 2 3 4 5 6 
#
# 1 80.1269 10.4923 16.7037 0.0000 0.0000 0.0000
# 2 10.4923 80.1269 16.7037 0.0000 0.0000 0.0000
# 3 16.7037 16.7037 105.4993 0.0000 0.0000 0.0000
# 4 0.0000 0.0000 0.0000 34.0331 0.0000 0.0000
# 5 0.0000 0.0000 0.0000 0.0000 34.0331 0.0000
# 6 0.0000 0.0000 0.0000 0.0000 0.0000 34.8173
#
#
#
# Elastic Compliance Matrix: (Units=1/GPa)
#
#
# Indices 1 2 3 4 5 6 
#
# 1 0.013040 -0.001321 -0.001856 0.000000 0.000000 0.000000
# 2 -0.001321 0.013040 -0.001856 0.000000 0.000000 0.000000
# 3 -0.001856 -0.001856 0.010066 0.000000 0.000000 0.000000
# 4 0.000000 0.000000 0.000000 0.029383 0.000000 0.000000
# 5 0.000000 0.000000 0.000000 0.000000 0.029383 0.000000
# 6 0.000000 0.000000 0.000000 0.000000 0.000000 0.028721
#
#
# Mechanical properties :
#
#
# Convention : Reuss Voigt Hill
#
# Bulk Modulus (GPa) = 38.33950 39.28359 38.81155
# Shear Modulus (GPa) = 35.11445 35.36694 35.24069
#
# Velocity S-wave (km/s) = 4.04741 4.06194 4.05468
# Velocity P-wave (km/s) = 6.30303 6.35025 6.32668
#
# Compressibility (1/GPa) = 0.02608276
#
# Stress axis : x y z
#
# Youngs Moduli (GPa) = 76.68739 76.68739 99.34137
#
# Poissons Ratio (x) = 0.10128 0.18433
# Poissons Ratio (y) = 0.10128 0.18433
# Poissons Ratio (z) = 0.14229 0.14229
#
# Static dielectric constant tensor:
#      x y z
#    x 3.724700 0.000000 0.000000 
#    y 0.000000 3.724700 0.000000 
#    z 0.000000 0.000000 3.800000 
# 
# 
# High freq. dielectric constant tensor:
#      x y z
#    x 1.839230 0.000000 0.000000 
#    y 0.000000 1.839230 0.000000 
#    z 0.000000 0.000000 1.850550 
# 
# From -- ./inp_files/1473.got.cif
#   From: 2010.03.12/outbox.cif.g09.slc.cpg/sg173_cif.got.tgz:1473.got - 2010.04.02 06:54:12.
