data_PCOD8324304
_publ_section_title
;
Structure prediction by ZEFSAII (Michael W. Deem and Ramdas Pophale) SiO2 
 PCOD8324304
Probable space group: R -3 C 
;
_chemical_formula_sum "Si O2"
_cell_formula_units_Z 270
_cell_length_a 26.280868
_cell_length_b 26.280868
_cell_length_c 24.540908
_cell_angle_alpha 90.000000
_cell_angle_beta 90.000000
_cell_angle_gamma 120.000000
_cell_volume 14679.141906
_symmetry_space_group_name_H-M "R -3 C "
_symmetry_group_IT_number 167
_symmetry_cell_setting 'hexagonal'
loop_
_space_group_symop_operation_xyz
x,y,z
-y,x-y,z
-x+y,-x,z
x-y,-y,1/2-z
-x,-x+y,1/2-z
y,x,1/2-z
-x,-y,-z
y,-x+y,-z
x-y,x,-z
-x+y,y,1/2+z
x,x-y,1/2+z
-y,-x,1/2+z
2/3+x,1/3+y,1/3+z
2/3-y,1/3+x-y,1/3+z
2/3-x+y,1/3-x,1/3+z
2/3+x-y,1/3-y,5/6-z
2/3-x,1/3-x+y,5/6-z
2/3+y,1/3+x,5/6-z
2/3-x,1/3-y,1/3-z
2/3+y,1/3-x+y,1/3-z
2/3+x-y,1/3+x,1/3-z
2/3-x+y,1/3+y,5/6+z
2/3+x,1/3+x-y,5/6+z
2/3-y,1/3-x,5/6+z
1/3+x,2/3+y,2/3+z
1/3-y,2/3+x-y,2/3+z
1/3-x+y,2/3-x,2/3+z
1/3+x-y,2/3-y,1/6-z
1/3-x,2/3-x+y,1/6-z
1/3+y,2/3+x,1/6-z
1/3-x,2/3-y,2/3-z
1/3+y,2/3-x+y,2/3-z
1/3+x-y,2/3+x,2/3-z
1/3-x+y,2/3+y,1/6+z
1/3+x,2/3+x-y,1/6+z
1/3-y,2/3-x,1/6+z
loop_
_atom_site_type_symbol
_atom_site_label
_atom_site_fract_x
_atom_site_fract_y
_atom_site_fract_z
Si Si1 0.954457 0.750301 0.365283
Si Si2 0.188509 0.188509 0.750000
Si Si3 0.205694 0.288593 0.015502
Si Si4 0.063438 0.484200 0.540933
Si Si5 0.773385 0.648944 0.329362
Si Si6 0.192559 0.449951 0.012395
Si Si7 0.099830 0.658948 0.236980
Si Si8 0.197994 0.274085 0.838257
O O1 0.950431 0.733849 0.428191
O O2 0.926824 0.687573 0.333195
O O3 0.920719 0.785377 0.349840
O O4 0.022012 0.796949 0.352797
O O5 0.172946 0.138928 0.797347
O O6 0.197329 0.246976 0.779574
O O7 0.147926 0.293434 0.022286
O O8 0.193798 0.239146 0.970803
O O9 0.045045 0.464755 0.603052
O O10 0.088773 0.553999 0.531465
O O11 0.009296 0.452279 0.500198
O O12 0.806014 0.718886 0.328984
O O13 0.718237 0.625884 0.370643
O O14 0.174293 0.465755 0.071131
O O15 0.090077 0.690136 0.289335
#
# Coordination Sequence:
#
# PCOD8324304 Si02
#       8
#    36  18  36  36  36  36  36  36
#     4  10  21  34  52  76 113 144 179 218 279 323
#     4  10  20  38  56  70 108 142 188 222 268 310
#     4  10  20  34  49  80 112 144 178 223 268 329
#     4  11  21  36  55  77 115 144 180 227 277 315
#     4  11  19  34  52  74 115 143 170 233 273 319
#     4  10  21  35  52  76 104 147 181 225 266 326
#     4  11  20  33  55  75 106 143 186 219 273 322
#     4  10  23  37  54  81 108 149 184 226 266 323
#
# _framework density 18.393445
#
# number of rings (size 3 to 8) (size 9 to 14) (size 15 to 20)
#    0.000    1.600    5.333    0.400    0.000    4.267 
#    0.000    2.000    0.000    0.000    0.000    0.000 
#   18.667    1.067    0.000    0.000    0.000    0.000 
#
# Total GULP energy -1114989.300995 kJ/mol
# GULP energy per Si atom -12388.770011 kJ/mol
# Density = 1.835158 g / cm^3
# Si number density = 18.393445 Si / 1000 Ang^3
#
#
#
# Elastic Constant Matrix: (Units=GPa)
#
#
# Indices 1 2 3 4 5 6 
#
# 1 89.9200 42.3346 31.2684 -0.9542 0.0000 0.0000
# 2 42.3346 89.9200 31.2684 0.9542 0.0000 0.0000
# 3 31.2684 31.2684 85.1486 0.0000 0.0000 0.0000
# 4 -0.9542 0.9542 0.0000 25.3703 0.0000 0.0000
# 5 0.0000 0.0000 0.0000 0.0000 25.3703 -0.9542
# 6 0.0000 0.0000 0.0000 0.0000 -0.9542 23.7927
#
#
#
# Elastic Compliance Matrix: (Units=1/GPa)
#
#
# Indices 1 2 3 4 5 6 
#
# 1 0.015098 -0.005948 -0.003360 0.000792 0.000000 0.000000
# 2 -0.005948 0.015098 -0.003360 -0.000792 0.000000 0.000000
# 3 -0.003360 -0.003360 0.014212 0.000000 0.000000 0.000000
# 4 0.000792 -0.000792 0.000000 0.039476 0.000000 0.000000
# 5 0.000000 0.000000 0.000000 0.000000 0.039476 0.001583
# 6 0.000000 0.000000 0.000000 0.000000 0.001583 0.042093
#
#
# Mechanical properties :
#
#
# Convention : Reuss Voigt Hill
#
# Bulk Modulus (GPa) = 52.43387 52.74794 52.59090
# Shear Modulus (GPa) = 25.36176 25.58114 25.47145
#
# Velocity S-wave (km/s) = 3.71731 3.73336 3.72534
# Velocity P-wave (km/s) = 6.85516 6.87923 6.86720
#
# Compressibility (1/GPa) = 0.01907164
#
# Stress axis : x y z
#
# Youngs Moduli (GPa) = 66.23269 66.23269 70.36323
#
# Poissons Ratio (x) = 0.39397 0.23643
# Poissons Ratio (y) = 0.39397 0.23643
# Poissons Ratio (z) = 0.22255 0.22255
#
# Static dielectric constant tensor:
#      x y z
#    x 3.299310 0.000000 0.000000 
#    y 0.000000 3.299310 0.000000 
#    z 0.000000 0.000000 3.578320 
# 
# 
# High freq. dielectric constant tensor:
#      x y z
#    x 1.684920 0.000000 0.000000 
#    y 0.000000 1.684920 0.000000 
#    z 0.000000 0.000000 1.731570 
# 
# From -- ./inp_files/5695.got.cif
#   From: 2010.03.12/outbox.cif.g09.slc.cpg/sg167_3_cif.got.tgz:5695.got - 2010.04.02 06:42:56.
