data_PCOD8324284
_publ_section_title
;
Structure prediction by ZEFSAII (Michael W. Deem and Ramdas Pophale) SiO2 
 PCOD8324284
Probable space group: R -3 C 
;
_chemical_formula_sum "Si O2"
_cell_formula_units_Z 162
_cell_length_a 25.891181
_cell_length_b 25.891181
_cell_length_c 16.456025
_cell_angle_alpha 90.000000
_cell_angle_beta 90.000000
_cell_angle_gamma 120.000000
_cell_volume 9553.429251
_symmetry_space_group_name_H-M "R -3 C "
_symmetry_group_IT_number 167
_symmetry_cell_setting 'hexagonal'
loop_
_space_group_symop_operation_xyz
x,y,z
-y,x-y,z
-x+y,-x,z
x-y,-y,1/2-z
-x,-x+y,1/2-z
y,x,1/2-z
-x,-y,-z
y,-x+y,-z
x-y,x,-z
-x+y,y,1/2+z
x,x-y,1/2+z
-y,-x,1/2+z
2/3+x,1/3+y,1/3+z
2/3-y,1/3+x-y,1/3+z
2/3-x+y,1/3-x,1/3+z
2/3+x-y,1/3-y,5/6-z
2/3-x,1/3-x+y,5/6-z
2/3+y,1/3+x,5/6-z
2/3-x,1/3-y,1/3-z
2/3+y,1/3-x+y,1/3-z
2/3+x-y,1/3+x,1/3-z
2/3-x+y,1/3+y,5/6+z
2/3+x,1/3+x-y,5/6+z
2/3-y,1/3-x,5/6+z
1/3+x,2/3+y,2/3+z
1/3-y,2/3+x-y,2/3+z
1/3-x+y,2/3-x,2/3+z
1/3+x-y,2/3-y,1/6-z
1/3-x,2/3-x+y,1/6-z
1/3+y,2/3+x,1/6-z
1/3-x,2/3-y,2/3-z
1/3+y,2/3-x+y,2/3-z
1/3+x-y,2/3+x,2/3-z
1/3-x+y,2/3+y,1/6+z
1/3+x,2/3+x-y,1/6+z
1/3-y,2/3-x,1/6+z
loop_
_atom_site_type_symbol
_atom_site_label
_atom_site_fract_x
_atom_site_fract_y
_atom_site_fract_z
Si Si1 0.645010 0.000000 0.250000
Si Si2 0.239926 0.925399 0.847679
Si Si3 0.152385 0.301939 0.210886
Si Si4 0.686625 0.560353 0.318763
Si Si5 0.242268 0.130695 0.450062
O O1 0.692171 0.029201 0.176810
O O2 0.637660 0.052951 0.287806
O O3 0.200591 0.902054 0.767179
O O4 0.233335 0.869582 0.902064
O O5 0.216054 0.963284 0.894996
O O6 0.128210 0.246626 0.148163
O O7 0.184078 0.360731 0.157846
O O8 0.729672 0.536098 0.350935
O O9 0.621725 0.503160 0.315918
#
# Coordination Sequence:
#
# PCOD8324284 Si02
#       5
#    18  36  36  36  36
#     4  12  20  32  50  78 104 144 172 202 254 308
#     4  10  19  30  51  75 102 141 171 204 247 303
#     4   9  18  34  50  72 107 132 173 211 244 307
#     4  11  22  33  53  73 103 136 172 216 255 310
#     4  10  20  36  49  72 101 136 170 216 257 303
#
# _framework density 16.957262
#
# number of rings (size 3 to 8) (size 9 to 14) (size 15 to 20)
#    0.000    1.778    2.222    4.667    3.111    0.000 
#    0.000    0.000    0.000    0.444    0.000    0.000 
#    0.000    0.000    1.333    0.000    0.000    0.000 
#
# Total GULP energy -669351.562315 kJ/mol
# GULP energy per Si atom -12395.399302 kJ/mol
# Density = 1.691867 g / cm^3
# Si number density = 16.957262 Si / 1000 Ang^3
#
#
#
# Elastic Constant Matrix: (Units=GPa)
#
#
# Indices 1 2 3 4 5 6 
#
# 1 -800.7532 929.6186 33.0008 -465.6764 -0.0001 -0.0001
# 2 929.6186 -800.7532 33.0008 465.6764 0.0001 0.0001
# 3 33.0008 33.0008 100.4395 0.0000 0.0000 0.0000
# 4 -465.6764 465.6764 0.0000 -221.7317 0.0000 -0.0001
# 5 -0.0001 0.0001 0.0000 0.0000 -221.7317 -465.6763
# 6 -0.0001 0.0001 0.0000 -0.0001 -465.6763 -865.1858
#
#
#
# Elastic Compliance Matrix: (Units=1/GPa)
#
#
# Indices 1 2 3 4 5 6 
#
# 1 0.006881 0.002449 -0.003066 -0.009308 0.000000 0.000000
# 2 0.002449 0.006881 -0.003066 0.009308 0.000000 0.000000
# 3 -0.003066 -0.003066 0.011971 0.000000 0.000000 0.000000
# 4 -0.009308 0.009308 0.000000 0.034586 0.000000 0.000000
# 5 0.000000 0.000000 0.000000 0.000000 0.034586 -0.018616
# 6 0.000000 0.000000 0.000000 0.000000 -0.018616 0.008864
#
#
# Mechanical properties :
#
#
# Convention : Reuss Voigt Hill
#
# Bulk Modulus (GPa) = 54.44021 54.46373 54.45197
# Shear Modulus (GPa) = 42.64177 -428.17564 -192.76693
#
# Velocity S-wave (km/s) = 5.02008 -15.90758 -10.67356
# Velocity P-wave (km/s) = 8.11022 17.47036 10.94161
#
# Compressibility (1/GPa) = 0.01836878
#
# Stress axis : x y z
#
# Youngs Moduli (GPa) = 145.32725 145.32725 83.53732
#
# Poissons Ratio (x) = -0.35592 0.25609
# Poissons Ratio (y) = -0.35592 0.25609
# Poissons Ratio (z) = 0.44551 0.44551
#
# Static dielectric constant tensor:
#      x y z
#    x 3.230120 0.000000 0.000000 
#    y 0.000000 3.230120 0.000000 
#    z 0.000000 0.000000 3.632570 
# 
# 
# High freq. dielectric constant tensor:
#      x y z
#    x 1.624840 0.000000 0.000000 
#    y 0.000000 1.624840 0.000000 
#    z 0.000000 0.000000 1.680560 
# 
# From -- ./inp_files/3550.got.cif
#   From: 2010.03.12/outbox.cif.g09.slc.cpg/sg167_2_cif.got.tgz:3550.got - 2010.04.02 06:42:56.
