data_PCOD8324549
_publ_section_title
;
Structure prediction by ZEFSAII (Michael W. Deem and Ramdas Pophale) SiO2 
 PCOD8324549
Probable space group: P 61
;
_chemical_formula_sum "Si O2"
_cell_formula_units_Z 48
_cell_length_a 11.800054
_cell_length_b 11.800054
_cell_length_c 20.888218
_cell_angle_alpha 90.000000
_cell_angle_beta 90.000000
_cell_angle_gamma 120.000000
_cell_volume 2518.836701
_symmetry_space_group_name_H-M "P 61"
_symmetry_group_IT_number 169
_symmetry_cell_setting 'hexagonal'
loop_
_space_group_symop_operation_xyz
x,y,z
x-y,x,1/6+z
-y,x-y,1/3+z
-x,-y,1/2+z
-x+y,-x,2/3+z
y,-x+y,5/6+z
loop_
_atom_site_type_symbol
_atom_site_label
_atom_site_fract_x
_atom_site_fract_y
_atom_site_fract_z
Si Si1 0.442003 0.367257 0.557080
Si Si2 0.637022 0.167223 0.566259
Si Si3 0.340418 0.533318 0.508292
Si Si4 0.630846 0.730559 0.501296
Si Si5 0.836999 0.189775 0.097847
Si Si6 0.359377 0.380456 0.130616
Si Si7 0.275731 0.638016 0.631491
Si Si8 0.261274 0.363983 0.785953
O O1 0.333219 0.407671 0.542409
O O2 0.550398 0.468499 0.607558
O O3 0.513383 0.370443 0.490666
O O4 0.359881 0.223555 0.586462
O O5 0.747712 0.231021 0.620347
O O6 0.666929 0.278308 0.514645
O O7 0.494828 0.105258 0.597531
O O8 0.643868 0.050511 0.531776
O O9 0.485592 0.621434 0.478190
O O10 0.312084 0.614586 0.560904
O O11 0.748381 0.715117 0.473530
O O12 0.656223 0.868664 0.477025
O O13 0.635996 0.717613 0.578193
O O14 0.739701 0.234481 0.127730
O O15 0.763370 0.032330 0.098087
O O16 0.882433 0.247836 0.027983
#
# Coordination Sequence:
#
# PCOD8324549 Si02
#       8
#     6   6   6   6   6   6   6   6
#     4  10  22  42  64  90 134 172 198 263 331 375
#     4  11  23  37  66  99 128 165 209 271 324 386
#     4  11  22  40  65  97 129 165 210 267 330 381
#     4  11  23  42  66  91 131 169 210 263 324 374
#     4  12  24  40  64 100 122 168 213 268 308 386
#     4  11  22  42  65  94 126 170 209 264 324 383
#     4  11  21  39  62  96 129 160 208 263 326 373
#     4  11  25  38  64  97 131 161 219 259 315 378
#
# _framework density 19.056417
#
# number of rings (size 3 to 8) (size 9 to 14) (size 15 to 20)
#    0.000    1.000    6.250    3.000    5.250    0.000 
#    2.250    0.000    8.250    0.000    0.000    0.000 
#    0.000    0.000    0.000    0.000    0.000    0.000 
#
# Total GULP energy -595256.532256 kJ/mol
# GULP energy per Si atom -12401.177755 kJ/mol
# Density = 1.901304 g / cm^3
# Si number density = 19.056417 Si / 1000 Ang^3
#
#
#
# Elastic Constant Matrix: (Units=GPa)
#
#
# Indices 1 2 3 4 5 6 
#
# 1 91.6696 44.7952 21.4436 0.0000 0.0000 0.0000
# 2 44.7952 91.6696 21.4436 0.0000 0.0000 0.0000
# 3 21.4436 21.4436 76.6756 0.0000 0.0000 0.0000
# 4 0.0000 0.0000 0.0000 28.7994 0.0000 0.0000
# 5 0.0000 0.0000 0.0000 0.0000 28.7994 0.0000
# 6 0.0000 0.0000 0.0000 0.0000 0.0000 23.4372
#
#
#
# Elastic Compliance Matrix: (Units=1/GPa)
#
#
# Indices 1 2 3 4 5 6 
#
# 1 0.014684 -0.006650 -0.002247 0.000000 0.000000 0.000000
# 2 -0.006650 0.014684 -0.002247 0.000000 0.000000 0.000000
# 3 -0.002247 -0.002247 0.014299 0.000000 0.000000 0.000000
# 4 0.000000 0.000000 0.000000 0.034723 0.000000 0.000000
# 5 0.000000 0.000000 0.000000 0.000000 0.034723 0.000000
# 6 0.000000 0.000000 0.000000 0.000000 0.000000 0.042667
#
#
# Mechanical properties :
#
#
# Convention : Reuss Voigt Hill
#
# Bulk Modulus (GPa) = 46.77407 48.37548 47.57477
# Shear Modulus (GPa) = 26.99890 27.69605 27.34748
#
# Velocity S-wave (km/s) = 3.76811 3.81645 3.79235
# Velocity P-wave (km/s) = 6.59772 6.69783 6.64796
#
# Compressibility (1/GPa) = 0.02137937
#
# Stress axis : x y z
#
# Youngs Moduli (GPa) = 68.10223 68.10223 69.93644
#
# Poissons Ratio (x) = 0.45287 0.15714
# Poissons Ratio (y) = 0.45287 0.15714
# Poissons Ratio (z) = 0.15302 0.15301
#
# Static dielectric constant tensor:
#      x y z
#    x 3.502610 0.000000 0.000000 
#    y 0.000000 3.502610 0.000000 
#    z 0.000000 0.000000 3.739430 
# 
# 
# High freq. dielectric constant tensor:
#      x y z
#    x 1.730520 0.000000 0.000000 
#    y 0.000000 1.730520 0.000000 
#    z 0.000000 0.000000 1.753860 
# 
# From -- ./inp_files/1548.got.cif
#   From: 2010.03.12/outbox.cif.g09.slc.cpg/sg169_cif.got.tgz:1548.got - 2010.04.02 06:46:06.
