data_PCOD8324666
_publ_section_title
;
Structure prediction by ZEFSAII (Michael W. Deem and Ramdas Pophale) SiO2 
 PCOD8324666
Probable space group: P 65
;
_chemical_formula_sum "Si O2"
_cell_formula_units_Z 36
_cell_length_a 14.791633
_cell_length_b 14.791633
_cell_length_c 8.499452
_cell_angle_alpha 90.000000
_cell_angle_beta 90.000000
_cell_angle_gamma 120.000000
_cell_volume 1610.474316
_symmetry_space_group_name_H-M "P 65"
_symmetry_group_IT_number 170
_symmetry_cell_setting 'hexagonal'
loop_
_space_group_symop_operation_xyz
x,y,z
x-y,x,5/6+z
-y,x-y,2/3+z
-x,-y,1/2+z
-x+y,-x,1/3+z
y,-x+y,1/6+z
loop_
_atom_site_type_symbol
_atom_site_label
_atom_site_fract_x
_atom_site_fract_y
_atom_site_fract_z
Si Si1 0.752702 0.559170 0.530930
Si Si2 0.024705 0.616373 0.137801
Si Si3 0.953518 0.685145 0.862214
Si Si4 0.532113 0.415575 0.069681
Si Si5 0.555758 0.848039 0.030694
Si Si6 0.911078 0.795016 0.619460
O O1 0.686727 0.547652 0.376138
O O2 0.806963 0.490021 0.507189
O O3 0.676389 0.519504 0.683081
O O4 0.837028 0.679208 0.559045
O O5 0.940577 0.558396 0.273608
O O6 0.030611 0.534741 0.018121
O O7 0.996149 0.693493 0.039460
O O8 0.831629 0.594584 0.871363
O O9 0.958730 0.789150 0.790719
O O10 0.030556 0.669638 0.741183
O O11 0.643710 0.458336 0.981329
O O12 0.851019 0.857785 0.647601
#
# Coordination Sequence:
#
# PCOD8324666 Si02
#       6
#     6   6   6   6   6   6
#     4  11  24  46  72  99 139 188 237 292 359 434
#     4  11  26  43  69 101 138 180 234 289 350 430
#     4  10  21  41  75  93 136 183 233 281 354 427
#     4  11  26  44  70 101 139 181 234 293 359 419
#     4  10  23  45  70 100 138 185 236 288 362 430
#     4  11  22  43  70 102 144 191 236 291 358 418
#
# _framework density 22.353663000000001
#
# number of rings (size 3 to 8) (size 9 to 14) (size 15 to 20)
#    0.000    1.333    3.333    2.000   16.333    0.000 
#    6.000    0.000    0.000    0.000    0.000    0.000 
#    0.000    0.000    0.000    0.000    0.000    0.000 
#
# Total GULP energy -446061.340914 kJ/mol
# GULP energy per Si atom -12390.592803 kJ/mol
# Density = 2.230278 g / cm^3
# Si number density = 22.353663 Si / 1000 Ang^3
#
#
#
# Elastic Constant Matrix: (Units=GPa)
#
#
# Indices 1 2 3 4 5 6 
#
# 1 90.2368 33.9050 40.0386 0.0000 0.0000 0.0000
# 2 33.9050 90.2368 40.0386 0.0000 0.0000 0.0000
# 3 40.0386 40.0386 112.7520 0.0000 0.0000 0.0000
# 4 0.0000 0.0000 0.0000 45.8820 0.0000 0.0000
# 5 0.0000 0.0000 0.0000 0.0000 45.8820 0.0000
# 6 0.0000 0.0000 0.0000 0.0000 0.0000 28.1659
#
#
#
# Elastic Compliance Matrix: (Units=1/GPa)
#
#
# Indices 1 2 3 4 5 6 
#
# 1 0.014100 -0.003652 -0.003710 0.000000 0.000000 0.000000
# 2 -0.003652 0.014100 -0.003710 0.000000 0.000000 0.000000
# 3 -0.003710 -0.003710 0.011504 0.000000 0.000000 0.000000
# 4 0.000000 0.000000 0.000000 0.021795 0.000000 0.000000
# 5 0.000000 0.000000 0.000000 0.000000 0.021795 0.000000
# 6 0.000000 0.000000 0.000000 0.000000 0.000000 0.035504
#
#
# Mechanical properties :
#
#
# Convention : Reuss Voigt Hill
#
# Bulk Modulus (GPa) = 56.94746 57.90999 57.42873
# Shear Modulus (GPa) = 34.06070 35.93554 34.99812
#
# Velocity S-wave (km/s) = 3.90772 4.01383 3.96113
# Velocity P-wave (km/s) = 6.77431 6.88793 6.83136
#
# Compressibility (1/GPa) = 0.01756004
#
# Stress axis : x y z
#
# Youngs Moduli (GPa) = 70.92051 70.92051 86.92529
#
# Poissons Ratio (x) = 0.25898 0.32252
# Poissons Ratio (y) = 0.25898 0.32252
# Poissons Ratio (z) = 0.26314 0.26314
#
# Static dielectric constant tensor:
#      x y z
#    x 3.984560 0.000000 0.000000 
#    y 0.000000 3.984560 0.000000 
#    z 0.000000 0.000000 4.438290 
# 
# 
# High freq. dielectric constant tensor:
#      x y z
#    x 1.866180 0.000000 0.000000 
#    y 0.000000 1.866180 0.000000 
#    z 0.000000 0.000000 1.893910 
# 
# From -- ./inp_files/623.got.cif
#   From: 2010.03.12/outbox.cif.g09.slc.cpg/sg170_cif.got.tgz:623.got - 2010.04.02 06:47:37.
