data_PCOD8324713
_publ_section_title
;
Structure prediction by ZEFSAII (Michael W. Deem and Ramdas Pophale) SiO2 
 PCOD8324713
Probable space group: P 65
;
_chemical_formula_sum "Si O2"
_cell_formula_units_Z 30
_cell_length_a 15.917116
_cell_length_b 15.917116
_cell_length_c 6.645306
_cell_angle_alpha 90.000000
_cell_angle_beta 90.000000
_cell_angle_gamma 120.000000
_cell_volume 1458.056584
_symmetry_space_group_name_H-M "P 65"
_symmetry_group_IT_number 170
_symmetry_cell_setting 'hexagonal'
loop_
_space_group_symop_operation_xyz
x,y,z
x-y,x,5/6+z
-y,x-y,2/3+z
-x,-y,1/2+z
-x+y,-x,1/3+z
y,-x+y,1/6+z
loop_
_atom_site_type_symbol
_atom_site_label
_atom_site_fract_x
_atom_site_fract_y
_atom_site_fract_z
Si Si1 0.201018 0.817972 0.458300
Si Si2 0.204937 0.055636 0.037876
Si Si3 0.307475 0.822917 0.067601
Si Si4 0.334870 0.488909 0.464737
Si Si5 0.976765 0.671015 0.948810
O O1 0.108758 0.815840 0.359608
O O2 0.270162 0.809104 0.294849
O O3 0.160534 0.725452 0.601126
O O4 0.263664 0.917389 0.578370
O O5 0.121332 0.961418 0.144425
O O6 0.244880 0.029722 0.837473
O O7 0.418562 0.851680 0.061532
O O8 0.246219 0.723912 0.943099
O O9 0.295586 0.908250 0.968369
O O10 0.361588 0.417870 0.585023
#
# Coordination Sequence:
#
# PCOD8324713 Si02
#       5
#     6   6   6   6   6
#     4  11  24  46  69  96 142 188 220 293 350 409
#     4  12  24  44  70 101 140 180 235 285 344 415
#     4  11  26  44  68 101 137 181 232 289 347 423
#     4  11  26  42  70 100 136 179 235 286 348 419
#     4  11  24  46  67 100 137 186 232 279 349 420
#
# _framework density 20.575334999999999
#
# number of rings (size 3 to 8) (size 9 to 14) (size 15 to 20)
#    0.000    0.800    4.000    2.400    5.600    3.200 
#    0.000    0.000    0.000    0.000    0.000    0.000 
#    0.000    0.000    0.000    0.000    0.000    0.000 
#
# Total GULP energy -372260.716672 kJ/mol
# GULP energy per Si atom -12408.690556 kJ/mol
# Density = 2.052850 g / cm^3
# Si number density = 20.575335 Si / 1000 Ang^3
#
#
#
# Elastic Constant Matrix: (Units=GPa)
#
#
# Indices 1 2 3 4 5 6 
#
# 1 108.2403 35.1939 32.0942 0.0000 0.0000 0.0000
# 2 35.1939 108.2403 32.0942 0.0000 0.0000 0.0000
# 3 32.0942 32.0942 99.7655 0.0000 0.0000 0.0000
# 4 0.0000 0.0000 0.0000 25.6569 0.0000 0.0000
# 5 0.0000 0.0000 0.0000 0.0000 25.6569 0.0000
# 6 0.0000 0.0000 0.0000 0.0000 0.0000 36.5232
#
#
#
# Elastic Compliance Matrix: (Units=1/GPa)
#
#
# Indices 1 2 3 4 5 6 
#
# 1 0.010917 -0.002773 -0.002620 0.000000 0.000000 0.000000
# 2 -0.002773 0.010917 -0.002620 0.000000 0.000000 0.000000
# 3 -0.002620 -0.002620 0.011709 0.000000 0.000000 0.000000
# 4 0.000000 0.000000 0.000000 0.038976 0.000000 0.000000
# 5 0.000000 0.000000 0.000000 0.000000 0.038976 0.000000
# 6 0.000000 0.000000 0.000000 0.000000 0.000000 0.027380
#
#
# Mechanical properties :
#
#
# Convention : Reuss Voigt Hill
#
# Bulk Modulus (GPa) = 57.08467 57.22340 57.15403
# Shear Modulus (GPa) = 31.10617 32.02501 31.56559
#
# Velocity S-wave (km/s) = 3.89243 3.94950 3.92107
# Velocity P-wave (km/s) = 6.92862 6.97640 6.95255
#
# Compressibility (1/GPa) = 0.01751784
#
# Stress axis : x y z
#
# Youngs Moduli (GPa) = 91.59930 91.59930 85.40298
#
# Poissons Ratio (x) = 0.25399 0.22376
# Poissons Ratio (y) = 0.25399 0.22376
# Poissons Ratio (z) = 0.23999 0.23999
#
# Static dielectric constant tensor:
#      x y z
#    x 3.772270 0.000000 0.000000 
#    y 0.000000 3.772270 0.000000 
#    z 0.000000 0.000000 3.826120 
# 
# 
# High freq. dielectric constant tensor:
#      x y z
#    x 1.813710 0.000000 0.000000 
#    y 0.000000 1.813710 0.000000 
#    z 0.000000 0.000000 1.815740 
# 
# From -- ./inp_files/179.got.cif
#   From: 2010.03.12/outbox.cif.g09.slc.cpg/sg170_cif.got.tgz:179.got - 2010.04.02 06:47:37.
