data_PCOD8324643
_publ_section_title
;
Structure prediction by ZEFSAII (Michael W. Deem and Ramdas Pophale) SiO2 
 PCOD8324643
Probable space group: P 65
;
_chemical_formula_sum "Si O2"
_cell_formula_units_Z 42
_cell_length_a 9.231931
_cell_length_b 9.231931
_cell_length_c 26.470956
_cell_angle_alpha 90.000000
_cell_angle_beta 90.000000
_cell_angle_gamma 120.000000
_cell_volume 1953.823629
_symmetry_space_group_name_H-M "P 65"
_symmetry_group_IT_number 170
_symmetry_cell_setting 'hexagonal'
loop_
_space_group_symop_operation_xyz
x,y,z
x-y,x,5/6+z
-y,x-y,2/3+z
-x,-y,1/2+z
-x+y,-x,1/3+z
y,-x+y,1/6+z
loop_
_atom_site_type_symbol
_atom_site_label
_atom_site_fract_x
_atom_site_fract_y
_atom_site_fract_z
Si Si1 0.590154 0.019839 0.754210
Si Si2 0.053817 0.427698 0.572669
Si Si3 0.725678 0.523057 0.162874
Si Si4 0.732191 0.053826 0.042052
Si Si5 0.316633 0.693531 0.184532
Si Si6 0.292767 0.552076 0.409513
Si Si7 0.744035 0.045268 0.931765
O O1 0.576642 0.117402 0.803453
O O2 0.694025 0.153090 0.710161
O O3 0.402147 0.898098 0.736294
O O4 0.673227 0.905141 0.764698
O O5 0.118594 0.380737 0.623780
O O6 0.213711 0.520346 0.537169
O O7 0.922724 0.269427 0.538665
O O8 0.957898 0.530443 0.584150
O O9 0.752699 0.384611 0.190419
O O10 0.638765 0.159863 0.034782
O O11 0.922646 0.156975 0.060711
O O12 0.623997 0.911264 0.082734
O O13 0.733340 0.974808 0.988018
O O14 0.327098 0.712654 0.123950
#
# Coordination Sequence:
#
# PCOD8324643 Si02
#       7
#     6   6   6   6   6   6   6
#     4  11  23  40  72  96 132 179 230 284 346 411
#     4  10  19  38  64 101 130 175 231 288 336 411
#     4  11  21  38  69 100 136 179 236 286 349 411
#     4  11  24  42  68  99 133 175 232 280 342 415
#     4  10  23  40  64 101 133 173 233 276 334 420
#     4  12  23  40  69  99 132 179 227 285 339 420
#     4  11  21  42  68  96 136 176 227 281 340 406
#
# _framework density 21.496310000000001
#
# number of rings (size 3 to 8) (size 9 to 14) (size 15 to 20)
#    0.000    1.143    5.714    0.857    2.000    0.000 
#    0.000    0.000    9.429    0.000    0.000    0.000 
#    0.000    0.000    0.000    0.000    0.000    0.000 
#
# Total GULP energy -520549.904150 kJ/mol
# GULP energy per Si atom -12394.045337 kJ/mol
# Density = 2.144738 g / cm^3
# Si number density = 21.496310 Si / 1000 Ang^3
#
#
#
# Elastic Constant Matrix: (Units=GPa)
#
#
# Indices 1 2 3 4 5 6 
#
# 1 85.8952 29.2274 39.4534 0.0000 0.0000 0.0000
# 2 29.2274 85.8952 39.4534 0.0000 0.0000 0.0000
# 3 39.4534 39.4534 120.4571 0.0000 0.0000 0.0000
# 4 0.0000 0.0000 0.0000 36.4977 0.0000 0.0000
# 5 0.0000 0.0000 0.0000 0.0000 36.4977 0.0000
# 6 0.0000 0.0000 0.0000 0.0000 0.0000 28.3339
#
#
#
# Elastic Compliance Matrix: (Units=1/GPa)
#
#
# Indices 1 2 3 4 5 6 
#
# 1 0.014424 -0.003223 -0.003669 0.000000 0.000000 0.000000
# 2 -0.003223 0.014424 -0.003669 0.000000 0.000000 0.000000
# 3 -0.003669 -0.003669 0.010705 0.000000 0.000000 0.000000
# 4 0.000000 0.000000 0.000000 0.027399 0.000000 0.000000
# 5 0.000000 0.000000 0.000000 0.000000 0.027399 0.000000
# 6 0.000000 0.000000 0.000000 0.000000 0.000000 0.035293
#
#
# Mechanical properties :
#
#
# Convention : Reuss Voigt Hill
#
# Bulk Modulus (GPa) = 54.25295 56.50176 55.37736
# Shear Modulus (GPa) = 31.86570 32.54005 32.20287
#
# Velocity S-wave (km/s) = 3.85435 3.89492 3.87468
# Velocity P-wave (km/s) = 6.71573 6.82412 6.77014
#
# Compressibility (1/GPa) = 0.01843218
#
# Stress axis : x y z
#
# Youngs Moduli (GPa) = 69.32970 69.32970 93.41511
#
# Poissons Ratio (x) = 0.22344 0.34271
# Poissons Ratio (y) = 0.22344 0.34271
# Poissons Ratio (z) = 0.25435 0.25435
#
# Static dielectric constant tensor:
#      x y z
#    x 3.818840 0.000000 0.000000 
#    y 0.000000 3.818840 0.000000 
#    z 0.000000 0.000000 4.218840 
# 
# 
# High freq. dielectric constant tensor:
#      x y z
#    x 1.825430 0.000000 0.000000 
#    y 0.000000 1.825430 0.000000 
#    z 0.000000 0.000000 1.861320 
# 
# From -- ./inp_files/1913.got.cif
#   From: 2010.03.12/outbox.cif.g09.slc.cpg/sg170_cif.got.tgz:1913.got - 2010.04.02 06:47:37.
