data_PCOD8324698
_publ_section_title
;
Structure prediction by ZEFSAII (Michael W. Deem and Ramdas Pophale) SiO2 
 PCOD8324698
Probable space group: P 65
;
_chemical_formula_sum "Si O2"
_cell_formula_units_Z 36
_cell_length_a 14.626121
_cell_length_b 14.626121
_cell_length_c 8.664802
_cell_angle_alpha 90.000000
_cell_angle_beta 90.000000
_cell_angle_gamma 120.000000
_cell_volume 1605.268186
_symmetry_space_group_name_H-M "P 65"
_symmetry_group_IT_number 170
_symmetry_cell_setting 'hexagonal'
loop_
_space_group_symop_operation_xyz
x,y,z
x-y,x,5/6+z
-y,x-y,2/3+z
-x,-y,1/2+z
-x+y,-x,1/3+z
y,-x+y,1/6+z
loop_
_atom_site_type_symbol
_atom_site_label
_atom_site_fract_x
_atom_site_fract_y
_atom_site_fract_z
Si Si1 0.779379 0.371691 0.965440
Si Si2 0.087771 0.400352 0.973936
Si Si3 0.767372 0.631699 0.694145
Si Si4 0.569188 0.751362 0.316514
Si Si5 0.178163 0.614418 0.124985
Si Si6 0.224449 0.114692 0.642113
O O1 0.804502 0.297228 0.078749
O O2 0.653753 0.302574 0.930901
O O3 0.841086 0.379458 0.806473
O O4 0.821251 0.489073 0.026122
O O5 0.139494 0.446643 0.810809
O O6 0.969826 0.312610 0.939646
O O7 0.141844 0.346291 0.072046
O O8 0.094542 0.497166 0.070925
O O9 0.809140 0.706068 0.842803
O O10 0.536906 0.840501 0.355528
O O11 0.689793 0.800855 0.260605
O O12 0.148264 0.153597 0.568146
#
# Coordination Sequence:
#
# PCOD8324698 Si02
#       6
#     6   6   6   6   6   6
#     4  11  22  38  68 107 158 202 233 281 363 452
#     4  11  25  42  68  99 142 190 244 297 369 440
#     4  11  24  46  69 102 140 187 239 307 375 443
#     4  12  24  43  73 108 150 185 244 303 358 454
#     4  11  21  40  64 104 150 201 232 274 358 452
#     4  12  30  55  78 106 138 191 258 332 389 443
#
# _framework density 22.426158999999998
#
# number of rings (size 3 to 8) (size 9 to 14) (size 15 to 20)
#    0.000    0.667    6.667    2.000    4.667    2.667 
#    3.000    0.000    0.000    0.000    0.000    0.000 
#    0.000    0.000    0.000    0.000    0.000    0.000 
#
# Total GULP energy -446294.038021 kJ/mol
# GULP energy per Si atom -12397.056612 kJ/mol
# Density = 2.237512 g / cm^3
# Si number density = 22.426159 Si / 1000 Ang^3
#
#
#
# Elastic Constant Matrix: (Units=GPa)
#
#
# Indices 1 2 3 4 5 6 
#
# 1 87.2719 26.1190 32.0283 0.0000 0.0000 0.0000
# 2 26.1190 87.2719 32.0283 0.0000 0.0000 0.0000
# 3 32.0283 32.0283 108.4046 0.0000 0.0000 0.0000
# 4 0.0000 0.0000 0.0000 37.5819 0.0000 0.0000
# 5 0.0000 0.0000 0.0000 0.0000 37.5819 0.0000
# 6 0.0000 0.0000 0.0000 0.0000 0.0000 30.5764
#
#
#
# Elastic Compliance Matrix: (Units=1/GPa)
#
#
# Indices 1 2 3 4 5 6 
#
# 1 0.013469 -0.002883 -0.003128 0.000000 0.000000 0.000000
# 2 -0.002883 0.013469 -0.003128 0.000000 0.000000 0.000000
# 3 -0.003128 -0.003128 0.011073 0.000000 0.000000 0.000000
# 4 0.000000 0.000000 0.000000 0.026609 0.000000 0.000000
# 5 0.000000 0.000000 0.000000 0.000000 0.026609 0.000000
# 6 0.000000 0.000000 0.000000 0.000000 0.000000 0.032705
#
#
# Mechanical properties :
#
#
# Convention : Reuss Voigt Hill
#
# Bulk Modulus (GPa) = 50.67362 51.47775 51.07568
# Shear Modulus (GPa) = 33.60480 33.99957 33.80218
#
# Velocity S-wave (km/s) = 3.87520 3.89790 3.88656
# Velocity P-wave (km/s) = 6.53205 6.57741 6.55477
#
# Compressibility (1/GPa) = 0.01973414
#
# Stress axis : x y z
#
# Youngs Moduli (GPa) = 74.24358 74.24358 90.31123
#
# Poissons Ratio (x) = 0.21406 0.28246
# Poissons Ratio (y) = 0.21406 0.28246
# Poissons Ratio (z) = 0.23221 0.23221
#
# Static dielectric constant tensor:
#      x y z
#    x 3.998530 0.000000 0.000000 
#    y 0.000000 3.998530 0.000000 
#    z 0.000000 0.000000 4.189080 
# 
# 
# High freq. dielectric constant tensor:
#      x y z
#    x 1.873050 0.000000 0.000000 
#    y 0.000000 1.873050 0.000000 
#    z 0.000000 0.000000 1.895570 
# 
# From -- ./inp_files/602.got.cif
#   From: 2010.03.12/outbox.cif.g09.slc.cpg/sg170_cif.got.tgz:602.got - 2010.04.02 06:47:37.
