data_PCOD8324831
_publ_section_title
;
Structure prediction by ZEFSAII (Michael W. Deem and Ramdas Pophale) SiO2 
 PCOD8324831
Probable space group: P 63
;
_chemical_formula_sum "Si O2"
_cell_formula_units_Z 48
_cell_length_a 24.744356
_cell_length_b 24.744356
_cell_length_c 5.310128
_cell_angle_alpha 90.000000
_cell_angle_beta 90.000000
_cell_angle_gamma 120.000000
_cell_volume 2815.710057
_symmetry_space_group_name_H-M "P 63"
_symmetry_group_IT_number 173
_symmetry_cell_setting 'hexagonal'
loop_
_space_group_symop_operation_xyz
x,y,z
x-y,x,1/2+z
-y,x-y,z
-x,-y,1/2+z
-x+y,-x,z
y,-x+y,1/2+z
loop_
_atom_site_type_symbol
_atom_site_label
_atom_site_fract_x
_atom_site_fract_y
_atom_site_fract_z
Si Si1 0.443695 0.285789 0.780480
Si Si2 0.403648 0.101218 0.280481
Si Si3 0.432634 0.240035 0.280480
Si Si4 0.434715 0.510380 0.780479
Si Si5 0.929257 0.500934 0.780479
Si Si6 0.171508 0.867081 0.280479
Si Si7 0.919744 0.701910 0.280479
Si Si8 0.941877 0.271422 0.780481
O O1 0.473798 0.273550 0.529556
O O2 0.453121 0.354475 0.780481
O O3 0.371373 0.233960 0.780478
O O4 0.473798 0.273550 0.031403
O O5 0.405796 0.166690 0.280482
O O6 0.474077 0.114178 0.280481
O O7 0.369039 0.063388 0.531526
O O8 0.369039 0.063388 0.029437
O O9 0.373473 0.251334 0.280478
O O10 0.455574 0.458695 0.780480
O O11 0.458552 0.552550 0.530570
O O12 0.458553 0.552551 0.030386
O O13 0.173831 0.904525 0.533232
O O14 0.109944 0.800556 0.280481
O O15 0.173830 0.904524 0.027726
O O16 0.991667 0.723195 0.280481
#
# Coordination Sequence:
#
# PCOD8324831 Si02
#       8
#     6   6   6   6   6   6   6   6
#     4  10  18  32  54  66 103 137 166 221 260 306
#     4  12  21  36  53  76 116 141 181 232 264 327
#     4  10  19  33  49  80 103 134 188 217 250 332
#     4  10  23  35  50  74 106 140 173 226 265 324
#     4  10  21  38  49  74 106 136 184 216 265 332
#     4  10  19  36  45  80 107 134 195 220 249 345
#     4  10  20  31  50  72 109 146 179 222 263 309
#     4  12  21  33  54  78 112 150 184 226 270 317
#
# _framework density 17.047208999999999
#
# number of rings (size 3 to 8) (size 9 to 14) (size 15 to 20)
#    0.000    1.500    5.000    2.250    7.000    0.000 
#    0.000    0.000    0.000    0.000    0.000    0.000 
#   25.000    0.000    0.000    7.500    0.000    0.000 
#
# Total GULP energy -594991.901604 kJ/mol
# GULP energy per Si atom -12395.664617 kJ/mol
# Density = 1.700841 g / cm^3
# Si number density = 17.047209 Si / 1000 Ang^3
#
#
#
# Elastic Constant Matrix: (Units=GPa)
#
#
# Indices 1 2 3 4 5 6 
#
# 1 65.7375 29.6765 28.4914 0.0000 0.0000 0.0000
# 2 29.6765 65.7375 28.4914 0.0000 0.0000 0.0000
# 3 28.4914 28.4914 188.2608 0.0000 0.0000 0.0000
# 4 0.0000 0.0000 0.0000 16.8781 0.0000 0.0000
# 5 0.0000 0.0000 0.0000 0.0000 16.8781 0.0000
# 6 0.0000 0.0000 0.0000 0.0000 0.0000 18.0305
#
#
#
# Elastic Compliance Matrix: (Units=1/GPa)
#
#
# Indices 1 2 3 4 5 6 
#
# 1 0.019626 -0.008104 -0.001744 0.000000 0.000000 0.000000
# 2 -0.008104 0.019626 -0.001744 0.000000 0.000000 0.000000
# 3 -0.001744 -0.001744 0.005840 0.000000 0.000000 0.000000
# 4 0.000000 0.000000 0.000000 0.059249 0.000000 0.000000
# 5 0.000000 0.000000 0.000000 0.000000 0.059249 0.000000
# 6 0.000000 0.000000 0.000000 0.000000 0.000000 0.055462
#
#
# Mechanical properties :
#
#
# Convention : Reuss Voigt Hill
#
# Bulk Modulus (GPa) = 45.64403 54.78381 50.21392
# Shear Modulus (GPa) = 20.03704 25.89574 22.96639
#
# Velocity S-wave (km/s) = 3.43211 3.90174 3.67444
# Velocity P-wave (km/s) = 6.52220 7.24599 6.89360
#
# Compressibility (1/GPa) = 0.02190867
#
# Stress axis : x y z
#
# Youngs Moduli (GPa) = 50.95167 50.95167 171.24529
#
# Poissons Ratio (x) = 0.41293 0.29861
# Poissons Ratio (y) = 0.41293 0.29861
# Poissons Ratio (z) = 0.08885 0.08885
#
# Static dielectric constant tensor:
#      x y z
#    x 2.890390 0.000000 0.000000 
#    y 0.000000 2.890390 0.000000 
#    z 0.000000 0.000000 5.103490 
# 
# 
# High freq. dielectric constant tensor:
#      x y z
#    x 1.619150 0.000000 0.000000 
#    y 0.000000 1.619150 0.000000 
#    z 0.000000 0.000000 1.704390 
# 
# From -- ./inp_files/207.got.cif
#   From: 2010.03.12/outbox.cif.g09.slc.cpg/sg173_cif.got.tgz:207.got - 2010.04.02 06:54:12.
