data_PCOD8324006
_publ_section_title
;
Structure prediction by ZEFSAII (Michael W. Deem and Ramdas Pophale) SiO2 
 PCOD8324006
Probable space group: R -3 M
;
_chemical_formula_sum "Si O2"
_cell_formula_units_Z 216
_cell_length_a 23.400106
_cell_length_b 23.400106
_cell_length_c 28.042045
_cell_angle_alpha 90.000000
_cell_angle_beta 90.000000
_cell_angle_gamma 120.000000
_cell_volume 13297.682612
_symmetry_space_group_name_H-M "R -3 M"
_symmetry_group_IT_number 166
_symmetry_cell_setting 'hexagonal'
loop_
_space_group_symop_operation_xyz
x,y,z
-y,x-y,z
-x+y,-x,z
x-y,-y,-z
-x,-x+y,-z
y,x,-z
-x,-y,-z
y,-x+y,-z
x-y,x,-z
-x+y,y,z
x,x-y,z
-y,-x,z
2/3+x,1/3+y,1/3+z
2/3-y,1/3+x-y,1/3+z
2/3-x+y,1/3-x,1/3+z
2/3+x-y,1/3-y,1/3-z
2/3-x,1/3-x+y,1/3-z
2/3+y,1/3+x,1/3-z
2/3-x,1/3-y,1/3-z
2/3+y,1/3-x+y,1/3-z
2/3+x-y,1/3+x,1/3-z
2/3-x+y,1/3+y,1/3+z
2/3+x,1/3+x-y,1/3+z
2/3-y,1/3-x,1/3+z
1/3+x,2/3+y,2/3+z
1/3-y,2/3+x-y,2/3+z
1/3-x+y,2/3-x,2/3+z
1/3+x-y,2/3-y,2/3-z
1/3-x,2/3-x+y,2/3-z
1/3+y,2/3+x,2/3-z
1/3-x,2/3-y,2/3-z
1/3+y,2/3-x+y,2/3-z
1/3+x-y,2/3+x,2/3-z
1/3-x+y,2/3+y,2/3+z
1/3+x,2/3+x-y,2/3+z
1/3-y,2/3-x,2/3+z
loop_
_atom_site_type_symbol
_atom_site_label
_atom_site_fract_x
_atom_site_fract_y
_atom_site_fract_z
Si Si1 0.026452 0.668110 0.785351
Si Si2 0.993848 0.431472 0.290099
Si Si3 0.974944 0.150051 0.951539
Si Si4 0.797275 0.463606 0.571355
Si Si5 0.394027 0.263407 0.056544
Si Si6 0.503147 0.372353 0.475822
O O1 0.982666 0.649332 0.833334
O O2 0.043786 0.735764 0.758805
O O3 0.093462 0.679605 0.808993
O O4 0.987928 0.603594 0.752061
O O5 0.007121 0.503561 0.274013
O O6 0.037203 0.438025 0.336376
O O7 0.916925 0.381871 0.300356
O O8 0.914484 0.085517 0.929498
O O9 0.029844 0.174136 0.910998
O O10 0.000000 0.133080 0.000000
O O11 0.738363 0.476725 0.586519
O O12 0.773081 0.386541 0.578636
O O13 0.860952 0.507172 0.604952
O O14 0.814594 0.483027 0.515845
O O15 0.376133 0.188067 0.069031
O O16 0.549470 0.450531 0.487710
#
# Coordination Sequence:
#
# PCOD8324006 Si02
#       6
#    36  36  36  36  36  36
#     4  11  19  30  47  75  99 126 156 200 243 288
#     4   9  19  33  49  68  94 125 158 194 239 296
#     4  10  18  28  42  61  85 118 155 191 233 277
#     4  10  20  33  49  69  94 126 162 204 252 300
#     4  10  19  32  50  72  96 127 167 210 250 284
#     4  10  19  30  45  65  91 121 156 197 238 284
#
# _framework density 16.243431999999999
#
# number of rings (size 3 to 8) (size 9 to 14) (size 15 to 20)
#    0.000    2.000    1.667    4.167    0.000    2.667 
#    0.000    0.000    0.000    7.000    0.000    0.000 
#    0.000    0.000    0.000    0.000    0.000   23.833 
#
# Total GULP energy -892054.224125 kJ/mol
# GULP energy per Si atom -12389.642002 kJ/mol
# Density = 1.620646 g / cm^3
# Si number density = 16.243432 Si / 1000 Ang^3
#
#
#
# Elastic Constant Matrix: (Units=GPa)
#
#
# Indices 1 2 3 4 5 6 
#
# 1 68.3495 33.2899 42.6859 0.4647 0.0000 0.0000
# 2 33.2899 68.3495 42.6859 -0.4647 0.0000 0.0000
# 3 42.6859 42.6859 116.6196 0.0000 0.0000 0.0000
# 4 0.4647 -0.4647 0.0000 21.7135 0.0000 0.0000
# 5 0.0000 0.0000 0.0000 0.0000 21.7135 0.4647
# 6 0.0000 0.0000 0.0000 0.0000 0.4647 17.5298
#
#
#
# Elastic Compliance Matrix: (Units=1/GPa)
#
#
# Indices 1 2 3 4 5 6 
#
# 1 0.021373 -0.007166 -0.005200 -0.000611 0.000000 0.000000
# 2 -0.007166 0.021373 -0.005200 0.000611 0.000000 0.000000
# 3 -0.005200 -0.005200 0.012381 0.000000 0.000000 0.000000
# 4 -0.000611 0.000611 0.000000 0.046080 0.000000 0.000000
# 5 0.000000 0.000000 0.000000 0.000000 0.046080 -0.001222
# 6 0.000000 0.000000 0.000000 0.000000 -0.001222 0.057078
#
#
# Mechanical properties :
#
#
# Convention : Reuss Voigt Hill
#
# Bulk Modulus (GPa) = 50.01356 54.51578 52.26467
# Shear Modulus (GPa) = 20.31174 21.16849 20.74012
#
# Velocity S-wave (km/s) = 3.54002 3.61391 3.57715
# Velocity P-wave (km/s) = 6.89680 7.14481 7.02190
#
# Compressibility (1/GPa) = 0.01999458
#
# Stress axis : x y z
#
# Youngs Moduli (GPa) = 46.78869 46.78869 80.76568
#
# Poissons Ratio (x) = 0.33530 0.41997
# Poissons Ratio (y) = 0.33530 0.41997
# Poissons Ratio (z) = 0.24330 0.24330
#
# Static dielectric constant tensor:
#      x y z
#    x 2.955830 0.000000 0.000000 
#    y 0.000000 2.955830 0.000000 
#    z 0.000000 0.000000 3.175080 
# 
# 
# High freq. dielectric constant tensor:
#      x y z
#    x 1.603310 0.000000 0.000000 
#    y 0.000000 1.603310 0.000000 
#    z 0.000000 0.000000 1.624540 
# 
# From -- ./inp_files/8634.got.cif
#   From: 2010.03.12/outbox.cif.g09.slc.cpg/sg166_5_cif.got.tgz:8634.got - 2010.04.02 06:38:31.
