data_PCOD8324201
_publ_section_title
;
Structure prediction by ZEFSAII (Michael W. Deem and Ramdas Pophale) SiO2 
 PCOD8324201
Probable space group: R -3 M
;
_chemical_formula_sum "Si O2"
_cell_formula_units_Z 144
_cell_length_a 21.679474
_cell_length_b 21.679474
_cell_length_c 19.580011
_cell_angle_alpha 90.000000
_cell_angle_beta 90.000000
_cell_angle_gamma 120.000000
_cell_volume 7969.682955
_symmetry_space_group_name_H-M "R -3 M"
_symmetry_group_IT_number 166
_symmetry_cell_setting 'hexagonal'
loop_
_space_group_symop_operation_xyz
x,y,z
-y,x-y,z
-x+y,-x,z
x-y,-y,-z
-x,-x+y,-z
y,x,-z
-x,-y,-z
y,-x+y,-z
x-y,x,-z
-x+y,y,z
x,x-y,z
-y,-x,z
2/3+x,1/3+y,1/3+z
2/3-y,1/3+x-y,1/3+z
2/3-x+y,1/3-x,1/3+z
2/3+x-y,1/3-y,1/3-z
2/3-x,1/3-x+y,1/3-z
2/3+y,1/3+x,1/3-z
2/3-x,1/3-y,1/3-z
2/3+y,1/3-x+y,1/3-z
2/3+x-y,1/3+x,1/3-z
2/3-x+y,1/3+y,1/3+z
2/3+x,1/3+x-y,1/3+z
2/3-y,1/3-x,1/3+z
1/3+x,2/3+y,2/3+z
1/3-y,2/3+x-y,2/3+z
1/3-x+y,2/3-x,2/3+z
1/3+x-y,2/3-y,2/3-z
1/3-x,2/3-x+y,2/3-z
1/3+y,2/3+x,2/3-z
1/3-x,2/3-y,2/3-z
1/3+y,2/3-x+y,2/3-z
1/3+x-y,2/3+x,2/3-z
1/3-x+y,2/3+y,2/3+z
1/3+x,2/3+x-y,2/3+z
1/3-y,2/3-x,2/3+z
loop_
_atom_site_type_symbol
_atom_site_label
_atom_site_fract_x
_atom_site_fract_y
_atom_site_fract_z
Si Si1 0.195515 0.247797 0.059649
Si Si2 0.277697 0.993433 0.421599
Si Si3 0.283415 0.859309 0.372328
Si Si4 0.527155 0.193203 0.154432
O O1 0.130780 0.261559 0.044256
O O2 0.267029 0.322437 0.063580
O O3 0.185175 0.206684 0.130152
O O4 0.199270 0.199270 0.000000
O O5 0.294112 0.929413 0.411520
O O6 0.211154 0.977650 0.372510
O O7 0.259019 0.000000 0.500000
O O8 0.200126 0.799874 0.374053
O O9 0.329740 0.830557 0.410555
O O10 0.611065 0.222130 0.163824
O O11 0.511080 0.255540 0.171712
#
# Coordination Sequence:
#
# PCOD8324201 Si02
#       4
#    36  36  36  36
#     4  11  22  36  54  82 116 149 186 229 277 334
#     4  11  20  35  56  83 110 145 183 225 283 334
#     4  10  21  38  58  80 112 149 188 229 282 342
#     4  10  21  38  58  81 109 148 192 233 277 331
#
# _framework density 18.068473000000001
#
# number of rings (size 3 to 8) (size 9 to 14) (size 15 to 20)
#    0.000    1.500    5.000    2.500    0.000    2.000 
#    0.000    1.250    0.000    4.000    0.000    0.000 
#    0.000    5.000    0.000    0.000    0.000    0.000 
#
# Total GULP energy -595153.606955 kJ/mol
# GULP energy per Si atom -12399.033478 kJ/mol
# Density = 1.802735 g / cm^3
# Si number density = 18.068473 Si / 1000 Ang^3
#
#
#
# Elastic Constant Matrix: (Units=GPa)
#
#
# Indices 1 2 3 4 5 6 
#
# 1 94.3605 61.0779 30.4165 -3.2576 0.0000 0.0000
# 2 61.0779 94.3605 30.4165 3.2576 0.0000 0.0000
# 3 30.4165 30.4165 116.2105 0.0000 0.0000 0.0000
# 4 -3.2576 3.2576 0.0000 22.7054 0.0000 0.0000
# 5 0.0000 0.0000 0.0000 0.0000 22.7054 -3.2576
# 6 0.0000 0.0000 0.0000 0.0000 -3.2576 16.6413
#
#
#
# Elastic Compliance Matrix: (Units=1/GPa)
#
#
# Indices 1 2 3 4 5 6 
#
# 1 0.019041 -0.011873 -0.001876 0.004435 0.000000 0.000000
# 2 -0.011873 0.019041 -0.001876 -0.004435 0.000000 0.000000
# 3 -0.001876 -0.001876 0.009587 0.000000 0.000000 0.000000
# 4 0.004435 -0.004435 0.000000 0.045315 0.000000 0.000000
# 5 0.000000 0.000000 0.000000 0.000000 0.045315 0.008871
# 6 0.000000 0.000000 0.000000 0.000000 0.008871 0.061828
#
#
# Mechanical properties :
#
#
# Convention : Reuss Voigt Hill
#
# Bulk Modulus (GPa) = 60.90776 60.97258 60.94017
# Shear Modulus (GPa) = 21.11041 24.61180 22.86110
#
# Velocity S-wave (km/s) = 3.42183 3.69472 3.56089
# Velocity P-wave (km/s) = 7.02812 7.21248 7.12090
#
# Compressibility (1/GPa) = 0.01641827
#
# Stress axis : x y z
#
# Youngs Moduli (GPa) = 52.51879 52.51879 104.30659
#
# Poissons Ratio (x) = 0.62357 0.19568
# Poissons Ratio (y) = 0.62357 0.19568
# Poissons Ratio (z) = 0.09853 0.09853
#
# Static dielectric constant tensor:
#      x y z
#    x 3.246490 0.000000 0.000000 
#    y 0.000000 3.246490 0.000000 
#    z 0.000000 0.000000 3.652720 
# 
# 
# High freq. dielectric constant tensor:
#      x y z
#    x 1.691470 0.000000 0.000000 
#    y 0.000000 1.691470 0.000000 
#    z 0.000000 0.000000 1.711460 
# 
# From -- ./inp_files/6609.got.cif
#   From: 2010.03.12/outbox.cif.g09.slc.cpg/sg166_4_cif.got.tgz:6609.got - 2010.04.02 06:38:31.
