data_PCOD8324558
_publ_section_title
;
Structure prediction by ZEFSAII (Michael W. Deem and Ramdas Pophale) SiO2 
 PCOD8324558
Probable space group: P 61
;
_chemical_formula_sum "Si O2"
_cell_formula_units_Z 30
_cell_length_a 7.400016
_cell_length_b 7.400016
_cell_length_c 26.136547
_cell_angle_alpha 90.000000
_cell_angle_beta 90.000000
_cell_angle_gamma 120.000000
_cell_volume 1239.493232
_symmetry_space_group_name_H-M "P 61"
_symmetry_group_IT_number 169
_symmetry_cell_setting 'hexagonal'
loop_
_space_group_symop_operation_xyz
x,y,z
x-y,x,1/6+z
-y,x-y,1/3+z
-x,-y,1/2+z
-x+y,-x,2/3+z
y,-x+y,5/6+z
loop_
_atom_site_type_symbol
_atom_site_label
_atom_site_fract_x
_atom_site_fract_y
_atom_site_fract_z
Si Si1 0.584565 0.372124 0.608010
Si Si2 0.232052 0.963901 0.629134
Si Si3 0.127896 0.766128 0.052455
Si Si4 0.199805 0.663056 0.545686
Si Si5 0.773038 0.834409 0.613604
O O1 0.705269 0.288301 0.574308
O O2 0.648469 0.379577 0.668817
O O3 0.632460 0.600568 0.590249
O O4 0.338934 0.195585 0.602476
O O5 0.286824 0.816886 0.594051
O O6 0.986466 0.859081 0.635854
O O7 0.332962 0.998030 0.685990
O O8 0.893459 0.575556 0.065209
O O9 0.168405 0.987688 0.072090
O O10 0.142856 0.779415 0.991178
#
# Coordination Sequence:
#
# PCOD8324558 Si02
#       5
#     6   6   6   6   6
#     4  10  24  45  70 103 151 198 245 320 385 453
#     4  10  22  45  71 106 148 200 258 316 393 457
#     4  12  24  46  71 113 145 203 250 325 393 473
#     4  10  22  47  72 109 155 198 260 324 390 476
#     4  12  24  45  74 107 151 193 265 311 389 467
#
# _framework density 24.203438999999999
#
# number of rings (size 3 to 8) (size 9 to 14) (size 15 to 20)
#    1.200    0.000    4.000    2.400    0.000    0.000 
#   10.800    0.000    0.000    0.000    0.000    0.000 
#    0.000    0.000    0.000    0.000    0.000    0.000 
#
# Total GULP energy -371718.824075 kJ/mol
# GULP energy per Si atom -12390.627469 kJ/mol
# Density = 2.414835 g / cm^3
# Si number density = 24.203439 Si / 1000 Ang^3
#
#
#
# Elastic Constant Matrix: (Units=GPa)
#
#
# Indices 1 2 3 4 5 6 
#
# 1 110.0231 22.4324 13.2098 0.0000 0.0000 0.0000
# 2 22.4324 110.0231 13.2098 0.0000 0.0000 0.0000
# 3 13.2098 13.2098 70.7647 0.0000 0.0000 0.0000
# 4 0.0000 0.0000 0.0000 36.4769 0.0000 0.0000
# 5 0.0000 0.0000 0.0000 0.0000 36.4769 0.0000
# 6 0.0000 0.0000 0.0000 0.0000 0.0000 43.7953
#
#
#
# Elastic Compliance Matrix: (Units=1/GPa)
#
#
# Indices 1 2 3 4 5 6 
#
# 1 0.009629 -0.001788 -0.001464 0.000000 0.000000 0.000000
# 2 -0.001788 0.009629 -0.001464 0.000000 0.000000 0.000000
# 3 -0.001464 -0.001464 0.014678 0.000000 0.000000 0.000000
# 4 0.000000 0.000000 0.000000 0.027415 0.000000 0.000000
# 5 0.000000 0.000000 0.000000 0.000000 0.027415 0.000000
# 6 0.000000 0.000000 0.000000 0.000000 0.000000 0.022833
#
#
# Mechanical properties :
#
#
# Convention : Reuss Voigt Hill
#
# Bulk Modulus (GPa) = 40.80645 43.16830 41.98737
# Shear Modulus (GPa) = 38.70031 39.48043 39.09037
#
# Velocity S-wave (km/s) = 4.00304 4.04318 4.02316
# Velocity P-wave (km/s) = 6.18564 6.29847 6.24231
#
# Compressibility (1/GPa) = 0.02450593
#
# Stress axis : x y z
#
# Youngs Moduli (GPa) = 103.85066 103.85066 68.12989
#
# Poissons Ratio (x) = 0.18564 0.09973
# Poissons Ratio (y) = 0.18564 0.09973
# Poissons Ratio (z) = 0.15202 0.15202
#
# Static dielectric constant tensor:
#      x y z
#    x 4.299430 0.000000 0.000000 
#    y 0.000000 4.299430 0.000000 
#    z 0.000000 0.000000 4.177330 
# 
# 
# High freq. dielectric constant tensor:
#      x y z
#    x 1.956680 0.000000 0.000000 
#    y 0.000000 1.956680 0.000000 
#    z 0.000000 0.000000 1.950850 
# 
# From -- ./inp_files/1607.got.cif
#   From: 2010.03.12/outbox.cif.g09.slc.cpg/sg169_cif.got.tgz:1607.got - 2010.04.02 06:46:06.
