data_PCOD8324315
_publ_section_title
;
Structure prediction by ZEFSAII (Michael W. Deem and Ramdas Pophale) SiO2 
 PCOD8324315
Probable space group: R -3 C 
;
_chemical_formula_sum "Si O2"
_cell_formula_units_Z 162
_cell_length_a 21.397705
_cell_length_b 21.397705
_cell_length_c 19.310015
_cell_angle_alpha 90.000000
_cell_angle_beta 90.000000
_cell_angle_gamma 120.000000
_cell_volume 7656.805840
_symmetry_space_group_name_H-M "R -3 C "
_symmetry_group_IT_number 167
_symmetry_cell_setting 'hexagonal'
loop_
_space_group_symop_operation_xyz
x,y,z
-y,x-y,z
-x+y,-x,z
x-y,-y,1/2-z
-x,-x+y,1/2-z
y,x,1/2-z
-x,-y,-z
y,-x+y,-z
x-y,x,-z
-x+y,y,1/2+z
x,x-y,1/2+z
-y,-x,1/2+z
2/3+x,1/3+y,1/3+z
2/3-y,1/3+x-y,1/3+z
2/3-x+y,1/3-x,1/3+z
2/3+x-y,1/3-y,5/6-z
2/3-x,1/3-x+y,5/6-z
2/3+y,1/3+x,5/6-z
2/3-x,1/3-y,1/3-z
2/3+y,1/3-x+y,1/3-z
2/3+x-y,1/3+x,1/3-z
2/3-x+y,1/3+y,5/6+z
2/3+x,1/3+x-y,5/6+z
2/3-y,1/3-x,5/6+z
1/3+x,2/3+y,2/3+z
1/3-y,2/3+x-y,2/3+z
1/3-x+y,2/3-x,2/3+z
1/3+x-y,2/3-y,1/6-z
1/3-x,2/3-x+y,1/6-z
1/3+y,2/3+x,1/6-z
1/3-x,2/3-y,2/3-z
1/3+y,2/3-x+y,2/3-z
1/3+x-y,2/3+x,2/3-z
1/3-x+y,2/3+y,1/6+z
1/3+x,2/3+x-y,1/6+z
1/3-y,2/3-x,1/6+z
loop_
_atom_site_type_symbol
_atom_site_label
_atom_site_fract_x
_atom_site_fract_y
_atom_site_fract_z
Si Si1 0.415955 0.105787 0.692531
Si Si2 0.791449 0.666667 0.416667
Si Si3 0.195264 0.528598 0.916667
Si Si4 0.608596 0.732965 0.657598
Si Si5 0.666667 0.477364 0.083334
Si Si6 0.076919 0.423027 0.522139
O O1 0.472430 0.169149 0.645510
O O2 0.428888 0.142939 0.768040
O O3 0.433950 0.041085 0.695832
O O4 0.337156 0.077835 0.659110
O O5 0.806816 0.610413 0.374305
O O6 0.269869 0.536251 0.942801
O O7 0.569509 0.664957 0.604476
O O8 0.690098 0.751512 0.673027
O O9 0.693252 0.532642 0.147913
#
# Coordination Sequence:
#
# PCOD8324315 Si02
#       6
#    36  18  18  36  18  36
#     4  12  22  40  62 100 122 169 220 265 331 416
#     4  10  21  35  60  89 137 162 210 264 334 396
#     4  12  29  41  70  93 129 182 236 258 320 386
#     4  10  20  37  58  94 127 172 198 268 329 404
#     4  12  24  50  60  94 134 182 220 278 308 388
#     4  10  20  39  65  90 137 165 200 267 350 375
#
# _framework density 21.157646
#
# number of rings (size 3 to 8) (size 9 to 14) (size 15 to 20)
#    0.000    1.333    4.444    4.222    0.000    2.667 
#    0.000    0.000    0.000    0.000    0.000    4.667 
#    0.000    0.000    0.000    0.000    0.000    0.000 
#
# Total GULP energy -669560.010985 kJ/mol
# GULP energy per Si atom -12399.259463 kJ/mol
# Density = 2.110949 g / cm^3
# Si number density = 21.157646 Si / 1000 Ang^3
#
#
#
# Elastic Constant Matrix: (Units=GPa)
#
#
# Indices 1 2 3 4 5 6 
#
# 1 91.1532 55.2019 36.7294 2.9371 0.0005 0.0000
# 2 55.2019 91.1532 36.7294 -2.9371 -0.0005 0.0000
# 3 36.7294 36.7294 147.5684 0.0000 0.0000 0.0000
# 4 2.9371 -2.9371 0.0000 18.6574 0.0000 -0.0005
# 5 0.0005 -0.0005 0.0000 0.0000 18.6574 2.9371
# 6 0.0000 0.0000 0.0000 -0.0005 2.9371 17.9756
#
#
#
# Elastic Compliance Matrix: (Units=1/GPa)
#
#
# Indices 1 2 3 4 5 6 
#
# 1 0.018179 -0.010371 -0.001943 -0.004494 -0.000001 0.000000
# 2 -0.010371 0.018179 -0.001943 0.004494 0.000001 0.000000
# 3 -0.001943 -0.001943 0.007744 0.000000 0.000000 0.000000
# 4 -0.004494 0.004494 0.000000 0.055013 0.000000 0.000002
# 5 -0.000001 0.000001 0.000000 0.000000 0.055013 -0.008989
# 6 0.000000 0.000000 0.000000 0.000002 -0.008989 0.057100
#
#
# Mechanical properties :
#
#
# Convention : Reuss Voigt Hill
#
# Bulk Modulus (GPa) = 64.15796 65.24402 64.70099
# Shear Modulus (GPa) = 20.41330 24.47236 22.44283
#
# Velocity S-wave (km/s) = 3.10952 3.40467 3.26044
# Velocity P-wave (km/s) = 6.57889 6.80880 6.69483
#
# Compressibility (1/GPa) = 0.01558653
#
# Stress axis : x y z
#
# Youngs Moduli (GPa) = 55.00865 55.00865 129.13312
#
# Poissons Ratio (x) = 0.57048 0.25096
# Poissons Ratio (y) = 0.57048 0.25096
# Poissons Ratio (z) = 0.10691 0.10691
#
# Static dielectric constant tensor:
#      x y z
#    x 3.677650 0.000000 0.000000 
#    y 0.000000 3.677650 0.000000 
#    z 0.000000 0.000000 4.119240 
# 
# 
# High freq. dielectric constant tensor:
#      x y z
#    x 1.810770 0.000000 0.000000 
#    y 0.000000 1.810770 0.000000 
#    z 0.000000 0.000000 1.836770 
# 
# From -- ./inp_files/4493.got.cif
#   From: 2010.03.12/outbox.cif.g09.slc.cpg/sg167_3_cif.got.tgz:4493.got - 2010.04.02 06:42:56.
