data_PCOD8324734
_publ_section_title
;
Structure prediction by ZEFSAII (Michael W. Deem and Ramdas Pophale) SiO2 
 PCOD8324734
Probable space group: P 62
;
_chemical_formula_sum "Si O2"
_cell_formula_units_Z 36
_cell_length_a 8.571483
_cell_length_b 8.571483
_cell_length_c 26.417916
_cell_angle_alpha 90.000000
_cell_angle_beta 90.000000
_cell_angle_gamma 120.000000
_cell_volume 1680.897081
_symmetry_space_group_name_H-M "P 62"
_symmetry_group_IT_number 171
_symmetry_cell_setting 'hexagonal'
loop_
_space_group_symop_operation_xyz
x,y,z
x-y,x,1/3+z
-y,x-y,2/3+z
-x,-y,z
-x+y,-x,1/3+z
y,-x+y,2/3+z
loop_
_atom_site_type_symbol
_atom_site_label
_atom_site_fract_x
_atom_site_fract_y
_atom_site_fract_z
Si Si1 0.824643 0.504085 0.964450
Si Si2 0.317062 0.320013 0.219350
Si Si3 0.198907 0.162542 0.806093
Si Si4 0.361381 0.315706 0.523200
Si Si5 0.851649 0.309323 0.659919
Si Si6 0.839873 0.802161 0.032764
O O1 0.832368 0.531121 0.904494
O O2 0.644474 0.321363 0.978033
O O3 0.000000 0.500000 0.984928
O O4 0.820019 0.672214 0.987771
O O5 0.500000 0.500000 0.205564
O O6 0.169400 0.324722 0.182974
O O7 0.265840 0.328188 0.277532
O O8 0.321674 0.136609 0.209317
O O9 0.173273 0.333389 0.816877
O O10 0.275582 0.153282 0.751132
O O11 0.000000 0.000000 0.810993
O O12 0.500000 0.500000 0.494610
O O13 0.805816 0.153765 0.701600
O O14 0.000000 0.500000 0.683544
O O15 0.000000 0.000000 0.020712
#
# Coordination Sequence:
#
# PCOD8324734 Si02
#       6
#     6   6   6   6   6   6
#     4  11  22  38  61  93 123 155 202 248 299 361
#     4  10  19  35  58  87 118 152 196 248 300 350
#     4   9  21  38  57  83 117 159 198 238 300 363
#     4  10  19  37  62  86 117 154 200 252 297 354
#     4  11  22  38  63  91 120 157 203 251 301 358
#     4  11  22  40  59  84 123 163 201 247 302 360
#
# _framework density 21.417134999999998
#
# number of rings (size 3 to 8) (size 9 to 14) (size 15 to 20)
#    0.000    1.667    0.000    7.500    0.000    2.667 
#    0.000   18.333    0.000    0.000    0.000    0.000 
#    0.000    0.000    0.000    0.000    0.000    0.000 
#
# Total GULP energy -446225.953598 kJ/mol
# GULP energy per Si atom -12395.165378 kJ/mol
# Density = 2.136839 g / cm^3
# Si number density = 21.417135 Si / 1000 Ang^3
#
#
#
# Elastic Constant Matrix: (Units=GPa)
#
#
# Indices 1 2 3 4 5 6 
#
# 1 112.2309 34.5094 31.4706 0.0000 0.0000 0.0000
# 2 34.5094 112.2309 31.4706 0.0000 0.0000 0.0000
# 3 31.4706 31.4706 63.2316 0.0000 0.0000 0.0000
# 4 0.0000 0.0000 0.0000 5.1910 0.0000 0.0000
# 5 0.0000 0.0000 0.0000 0.0000 5.1910 0.0000
# 6 0.0000 0.0000 0.0000 0.0000 0.0000 38.8607
#
#
#
# Elastic Compliance Matrix: (Units=1/GPa)
#
#
# Indices 1 2 3 4 5 6 
#
# 1 0.010765 -0.002101 -0.004312 0.000000 0.000000 0.000000
# 2 -0.002101 0.010765 -0.004312 0.000000 0.000000 0.000000
# 3 -0.004312 -0.004312 0.020107 0.000000 0.000000 0.000000
# 4 0.000000 0.000000 0.000000 0.192640 0.000000 0.000000
# 5 0.000000 0.000000 0.000000 0.000000 0.192640 0.000000
# 6 0.000000 0.000000 0.000000 0.000000 0.000000 0.025733
#
#
# Mechanical properties :
#
#
# Convention : Reuss Voigt Hill
#
# Bulk Modulus (GPa) = 49.53690 53.62162 51.57926
# Shear Modulus (GPa) = 10.39866 22.53141 16.46503
#
# Velocity S-wave (km/s) = 2.20586 3.24702 2.77569
# Velocity P-wave (km/s) = 5.44679 6.25689 5.86584
#
# Compressibility (1/GPa) = 0.02018697
#
# Stress axis : x y z
#
# Youngs Moduli (GPa) = 92.88972 92.88972 49.73294
#
# Poissons Ratio (x) = 0.19516 0.21446
# Poissons Ratio (y) = 0.19516 0.21446
# Poissons Ratio (z) = 0.40057 0.40057
#
# Static dielectric constant tensor:
#      x y z
#    x 4.443150 0.000000 0.000000 
#    y 0.000000 4.443150 0.000000 
#    z 0.000000 0.000000 3.973870 
# 
# 
# High freq. dielectric constant tensor:
#      x y z
#    x 1.846960 0.000000 0.000000 
#    y 0.000000 1.846960 0.000000 
#    z 0.000000 0.000000 1.818750 
# 
# From -- ./inp_files/5732.got.cif
#   From: 2010.03.12/outbox.cif.g09.slc.cpg/sg171_3_cif.got.tgz:5732.got - 2010.04.02 06:49:11.
