data_PCOD8324000
_publ_section_title
;
Structure prediction by ZEFSAII (Michael W. Deem and Ramdas Pophale) SiO2 
 PCOD8324000
Probable space group: R -3 M
;
_chemical_formula_sum "Si O2"
_cell_formula_units_Z 216
_cell_length_a 23.527835
_cell_length_b 23.527835
_cell_length_c 24.372998
_cell_angle_alpha 90.000000
_cell_angle_beta 90.000000
_cell_angle_gamma 120.000000
_cell_volume 11684.321981
_symmetry_space_group_name_H-M "R -3 M"
_symmetry_group_IT_number 166
_symmetry_cell_setting 'hexagonal'
loop_
_space_group_symop_operation_xyz
x,y,z
-y,x-y,z
-x+y,-x,z
x-y,-y,-z
-x,-x+y,-z
y,x,-z
-x,-y,-z
y,-x+y,-z
x-y,x,-z
-x+y,y,z
x,x-y,z
-y,-x,z
2/3+x,1/3+y,1/3+z
2/3-y,1/3+x-y,1/3+z
2/3-x+y,1/3-x,1/3+z
2/3+x-y,1/3-y,1/3-z
2/3-x,1/3-x+y,1/3-z
2/3+y,1/3+x,1/3-z
2/3-x,1/3-y,1/3-z
2/3+y,1/3-x+y,1/3-z
2/3+x-y,1/3+x,1/3-z
2/3-x+y,1/3+y,1/3+z
2/3+x,1/3+x-y,1/3+z
2/3-y,1/3-x,1/3+z
1/3+x,2/3+y,2/3+z
1/3-y,2/3+x-y,2/3+z
1/3-x+y,2/3-x,2/3+z
1/3+x-y,2/3-y,2/3-z
1/3-x,2/3-x+y,2/3-z
1/3+y,2/3+x,2/3-z
1/3-x,2/3-y,2/3-z
1/3+y,2/3-x+y,2/3-z
1/3+x-y,2/3+x,2/3-z
1/3-x+y,2/3+y,2/3+z
1/3+x,2/3+x-y,2/3+z
1/3-y,2/3-x,2/3+z
loop_
_atom_site_type_symbol
_atom_site_label
_atom_site_fract_x
_atom_site_fract_y
_atom_site_fract_z
Si Si1 0.690685 0.652039 0.575824
Si Si2 0.238638 0.260214 0.134278
Si Si3 0.742325 0.978059 0.654511
Si Si4 0.000385 0.127141 0.690496
Si Si5 0.529991 0.593580 0.688927
Si Si6 0.131606 0.130974 0.181700
O O1 0.722094 0.637659 0.522255
O O2 0.617882 0.640485 0.559591
O O3 0.736181 0.726682 0.597194
O O4 0.687929 0.606527 0.625636
O O5 0.195872 0.270813 0.088551
O O6 0.198494 0.183575 0.151005
O O7 0.808512 0.974705 0.652658
O O8 0.677474 0.908346 0.664696
O O9 0.049779 0.099558 0.681329
O O10 0.000642 0.145170 0.753946
O O11 0.928327 0.071674 0.671554
O O12 0.455751 0.544250 0.668402
O O13 0.554682 0.666667 0.666667
O O14 0.117197 0.058599 0.165690
O O15 0.068714 0.137428 0.163951
#
# Coordination Sequence:
#
# PCOD8324000 Si02
#       6
#    36  36  36  36  36  36
#     4   9  18  32  56  77 110 134 172 228 270 331
#     4  10  18  35  53  77 106 141 173 226 282 328
#     4  10  17  37  56  81 107 141 179 221 275 330
#     4  10  20  34  53  79 110 144 182 222 267 322
#     4  11  22  37  57  79 110 147 187 234 280 327
#     4  10  20  33  49  71 102 141 184 225 267 319
#
# _framework density 18.48631
#
# number of rings (size 3 to 8) (size 9 to 14) (size 15 to 20)
#    0.000    2.000    5.000    1.333    0.000    2.000 
#    0.000    5.000    0.000    0.167    0.000    0.000 
#    0.000    0.000    0.000   26.167    0.000    0.000 
#
# Total GULP energy -892048.098572 kJ/mol
# GULP energy per Si atom -12389.556925 kJ/mol
# Density = 1.844423 g / cm^3
# Si number density = 18.486310 Si / 1000 Ang^3
#
#
#
# Elastic Constant Matrix: (Units=GPa)
#
#
# Indices 1 2 3 4 5 6 
#
# 1 97.7601 51.6533 32.4812 2.9049 0.0000 0.0000
# 2 51.6533 97.7601 32.4812 -2.9049 0.0000 0.0000
# 3 32.4812 32.4812 84.7346 0.0000 0.0000 0.0000
# 4 2.9049 -2.9049 0.0000 20.0668 0.0000 0.0000
# 5 0.0000 0.0000 0.0000 0.0000 20.0668 2.9049
# 6 0.0000 0.0000 0.0000 0.0000 2.9049 23.0534
#
#
#
# Elastic Compliance Matrix: (Units=1/GPa)
#
#
# Indices 1 2 3 4 5 6 
#
# 1 0.015062 -0.007030 -0.003079 -0.003198 0.000000 0.000000
# 2 -0.007030 0.015062 -0.003079 0.003198 0.000000 0.000000
# 3 -0.003079 -0.003079 0.014162 0.000000 0.000000 0.000000
# 4 -0.003198 0.003198 0.000000 0.050759 0.000000 0.000000
# 5 0.000000 0.000000 0.000000 0.000000 0.050759 -0.006396
# 6 0.000000 0.000000 0.000000 0.000000 -0.006396 0.044184
#
#
# Mechanical properties :
#
#
# Convention : Reuss Voigt Hill
#
# Bulk Modulus (GPa) = 55.83484 57.05402 56.44443
# Shear Modulus (GPa) = 22.48884 23.54667 23.01775
#
# Velocity S-wave (km/s) = 3.49164 3.57281 3.53246
# Velocity P-wave (km/s) = 6.82087 6.92458 6.87292
#
# Compressibility (1/GPa) = 0.01790996
#
# Stress axis : x y z
#
# Youngs Moduli (GPa) = 66.39411 66.39411 70.61232
#
# Poissons Ratio (x) = 0.46676 0.21739
# Poissons Ratio (y) = 0.46676 0.21739
# Poissons Ratio (z) = 0.20441 0.20441
#
# Static dielectric constant tensor:
#      x y z
#    x 3.249320 0.000000 0.000000 
#    y 0.000000 3.249320 0.000000 
#    z 0.000000 0.000000 3.556810 
# 
# 
# High freq. dielectric constant tensor:
#      x y z
#    x 1.700360 0.000000 0.000000 
#    y 0.000000 1.700360 0.000000 
#    z 0.000000 0.000000 1.707960 
# 
# From -- ./inp_files/9688.got.cif
#   From: 2010.03.12/outbox.cif.g09.slc.cpg/sg166_5_cif.got.tgz:9688.got - 2010.04.02 06:38:31.
