data_PCOD8324528
_publ_section_title
;
Structure prediction by ZEFSAII (Michael W. Deem and Ramdas Pophale) SiO2 
 PCOD8324528
Probable space group: P 61
;
_chemical_formula_sum "Si O2"
_cell_formula_units_Z 36
_cell_length_a 8.799880
_cell_length_b 8.799880
_cell_length_c 24.462877
_cell_angle_alpha 90.000000
_cell_angle_beta 90.000000
_cell_angle_gamma 120.000000
_cell_volume 1640.558280
_symmetry_space_group_name_H-M "P 61"
_symmetry_group_IT_number 169
_symmetry_cell_setting 'hexagonal'
loop_
_space_group_symop_operation_xyz
x,y,z
x-y,x,1/6+z
-y,x-y,1/3+z
-x,-y,1/2+z
-x+y,-x,2/3+z
y,-x+y,5/6+z
loop_
_atom_site_type_symbol
_atom_site_label
_atom_site_fract_x
_atom_site_fract_y
_atom_site_fract_z
Si Si1 0.702128 0.699920 0.851000
Si Si2 0.299618 0.283016 0.476946
Si Si3 0.647026 0.017132 0.156635
Si Si4 0.814156 0.769239 0.621141
Si Si5 0.210043 0.165724 0.722469
Si Si6 0.008180 0.630262 0.683536
O O1 0.678585 0.743551 0.913343
O O2 0.566928 0.500266 0.836121
O O3 0.901646 0.755337 0.836199
O O4 0.639527 0.808640 0.813839
O O5 0.479337 0.426088 0.504808
O O6 0.210656 0.097702 0.508336
O O7 0.660155 0.969481 0.093573
O O8 0.828918 0.188119 0.167040
O O9 0.638526 0.865662 0.196019
O O10 0.645704 0.670115 0.581130
O O11 0.989067 0.919203 0.589174
O O12 0.847984 0.619151 0.647555
#
# Coordination Sequence:
#
# PCOD8324528 Si02
#       6
#     6   6   6   6   6   6
#     4  12  24  40  63  93 123 159 206 254 305 370
#     4  12  24  40  63  93 123 159 206 254 305 370
#     4  10  22  41  62  88 121 160 203 252 306 365
#     4  10  21  41  64  85 121 167 203 244 308 373
#     4  10  21  41  64  85 121 167 203 244 308 373
#     4  10  22  41  62  88 121 160 203 252 306 365
#
# _framework density 21.943750999999999
#
# number of rings (size 3 to 8) (size 9 to 14) (size 15 to 20)
#    0.000    1.333    0.000    9.000    0.000    5.333 
#    0.000    5.000    0.000    0.000    0.000    0.000 
#    0.000    0.000    0.000    0.000    0.000    0.000 
#
# Total GULP energy -446233.657385 kJ/mol
# GULP energy per Si atom -12395.379372 kJ/mol
# Density = 2.189381 g / cm^3
# Si number density = 21.943751 Si / 1000 Ang^3
#
#
#
# Elastic Constant Matrix: (Units=GPa)
#
#
# Indices 1 2 3 4 5 6 
#
# 1 72.9149 18.4918 30.6722 0.0000 0.0000 0.0000
# 2 18.4918 72.9149 30.6722 0.0000 0.0000 0.0000
# 3 30.6722 30.6722 73.6825 0.0000 0.0000 0.0000
# 4 0.0000 0.0000 0.0000 32.7259 0.0000 0.0000
# 5 0.0000 0.0000 0.0000 0.0000 32.7259 0.0000
# 6 0.0000 0.0000 0.0000 0.0000 0.0000 27.2115
#
#
#
# Elastic Compliance Matrix: (Units=1/GPa)
#
#
# Indices 1 2 3 4 5 6 
#
# 1 0.016778 -0.001597 -0.006320 0.000000 0.000000 0.000000
# 2 -0.001597 0.016778 -0.006320 0.000000 0.000000 0.000000
# 3 -0.006320 -0.006320 0.018833 0.000000 0.000000 0.000000
# 4 0.000000 0.000000 0.000000 0.030557 0.000000 0.000000
# 5 0.000000 0.000000 0.000000 0.000000 0.030557 0.000000
# 6 0.000000 0.000000 0.000000 0.000000 0.000000 0.036749
#
#
# Mechanical properties :
#
#
# Convention : Reuss Voigt Hill
#
# Bulk Modulus (GPa) = 41.81068 42.13162 41.97115
# Shear Modulus (GPa) = 26.78154 27.84442 27.31298
#
# Velocity S-wave (km/s) = 3.49730 3.56603 3.53183
# Velocity P-wave (km/s) = 5.95005 6.01639 5.98331
#
# Compressibility (1/GPa) = 0.02391733
#
# Stress axis : x y z
#
# Youngs Moduli (GPa) = 59.60213 59.60213 53.09798
#
# Poissons Ratio (x) = 0.09516 0.33556
# Poissons Ratio (y) = 0.09516 0.33556
# Poissons Ratio (z) = 0.37666 0.37666
#
# Static dielectric constant tensor:
#      x y z
#    x 3.829650 0.000000 0.000000 
#    y 0.000000 3.829650 0.000000 
#    z 0.000000 0.000000 4.707120 
# 
# 
# High freq. dielectric constant tensor:
#      x y z
#    x 1.845800 0.000000 0.000000 
#    y 0.000000 1.845800 0.000000 
#    z 0.000000 0.000000 1.883700 
# 
# From -- ./inp_files/1760.got.cif
#   From: 2010.03.12/outbox.cif.g09.slc.cpg/sg169_cif.got.tgz:1760.got - 2010.04.02 06:46:06.
