data_PCOD8324669
_publ_section_title
;
Structure prediction by ZEFSAII (Michael W. Deem and Ramdas Pophale) SiO2 
 PCOD8324669
Probable space group: P 65
;
_chemical_formula_sum "Si O2"
_cell_formula_units_Z 48
_cell_length_a 14.581923
_cell_length_b 14.581923
_cell_length_c 11.224124
_cell_angle_alpha 90.000000
_cell_angle_beta 90.000000
_cell_angle_gamma 120.000000
_cell_volume 2066.867750
_symmetry_space_group_name_H-M "P 65"
_symmetry_group_IT_number 170
_symmetry_cell_setting 'hexagonal'
loop_
_space_group_symop_operation_xyz
x,y,z
x-y,x,5/6+z
-y,x-y,2/3+z
-x,-y,1/2+z
-x+y,-x,1/3+z
y,-x+y,1/6+z
loop_
_atom_site_type_symbol
_atom_site_label
_atom_site_fract_x
_atom_site_fract_y
_atom_site_fract_z
Si Si1 0.232661 0.574053 0.621880
Si Si2 0.376402 0.600121 0.846762
Si Si3 0.123753 0.195891 0.322515
Si Si4 0.220654 0.392639 0.926879
Si Si5 0.293216 0.305889 0.136361
Si Si6 0.478506 0.485379 0.267527
Si Si7 0.308849 0.347850 0.694757
Si Si8 0.186201 0.819215 0.834837
O O1 0.307083 0.570100 0.725043
O O2 0.284105 0.690553 0.560900
O O3 0.114250 0.541385 0.671927
O O4 0.227732 0.493899 0.515460
O O5 0.299625 0.517690 0.948528
O O6 0.480908 0.585459 0.839883
O O7 0.133490 0.127483 0.431253
O O8 0.207449 0.213558 0.219913
O O9 0.159062 0.315938 0.368665
O O10 0.247431 0.368257 0.797558
O O11 0.232797 0.324603 0.029686
O O12 0.102742 0.370903 0.918217
O O13 0.366857 0.413375 0.206314
O O14 0.572588 0.553724 0.175048
O O15 0.309670 0.242630 0.732728
O O16 0.253638 0.330075 0.567649
#
# Coordination Sequence:
#
# PCOD8324669 Si02
#       8
#     6   6   6   6   6   6   6   6
#     4  11  25  44  71 111 146 197 255 308 382 453
#     4  11  25  47  72 106 152 189 256 314 371 469
#     4  12  27  52  72 106 149 192 252 317 383 455
#     4  11  24  43  76 100 147 187 242 306 370 448
#     4  12  26  46  70 104 146 191 239 300 375 450
#     4  10  25  44  68 102 144 192 246 297 379 441
#     4  10  21  44  68 107 135 183 243 295 364 441
#     4  11  21  44  71 102 147 187 239 305 366 449
#
# _framework density 23.223545999999999
#
# number of rings (size 3 to 8) (size 9 to 14) (size 15 to 20)
#    0.000    1.000    5.000    1.500    8.750    0.000 
#    6.750    0.000    0.000    0.000    0.000    0.000 
#    0.000    0.000    0.000    0.000    0.000    0.000 
#
# Total GULP energy -594660.240856 kJ/mol
# GULP energy per Si atom -12388.755018 kJ/mol
# Density = 2.317069 g / cm^3
# Si number density = 23.223546 Si / 1000 Ang^3
#
#
#
# Elastic Constant Matrix: (Units=GPa)
#
#
# Indices 1 2 3 4 5 6 
#
# 1 90.5922 45.8924 25.9932 0.0000 0.0000 0.0000
# 2 45.8924 90.5922 25.9932 0.0000 0.0000 0.0000
# 3 25.9932 25.9932 64.7315 0.0000 0.0000 0.0000
# 4 0.0000 0.0000 0.0000 31.7429 0.0000 0.0000
# 5 0.0000 0.0000 0.0000 0.0000 31.7429 0.0000
# 6 0.0000 0.0000 0.0000 0.0000 0.0000 22.3499
#
#
#
# Elastic Compliance Matrix: (Units=1/GPa)
#
#
# Indices 1 2 3 4 5 6 
#
# 1 0.015511 -0.006861 -0.003473 0.000000 0.000000 0.000000
# 2 -0.006861 0.015511 -0.003473 0.000000 0.000000 0.000000
# 3 -0.003473 -0.003473 0.018238 0.000000 0.000000 0.000000
# 4 0.000000 0.000000 0.000000 0.031503 0.000000 0.000000
# 5 0.000000 0.000000 0.000000 0.000000 0.031503 0.000000
# 6 0.000000 0.000000 0.000000 0.000000 0.000000 0.044743
#
#
# Mechanical properties :
#
#
# Convention : Reuss Voigt Hill
#
# Bulk Modulus (GPa) = 46.20200 49.07483 47.63841
# Shear Modulus (GPa) = 26.06363 27.03628 26.54995
#
# Velocity S-wave (km/s) = 3.35370 3.41570 3.38484
# Velocity P-wave (km/s) = 5.91050 6.06081 5.98613
#
# Compressibility (1/GPa) = 0.02164408
#
# Stress axis : x y z
#
# Youngs Moduli (GPa) = 64.47181 64.47181 54.83077
#
# Poissons Ratio (x) = 0.44233 0.19045
# Poissons Ratio (y) = 0.44233 0.19045
# Poissons Ratio (z) = 0.22394 0.22394
#
# Static dielectric constant tensor:
#      x y z
#    x 4.424480 0.000000 0.000000 
#    y 0.000000 4.424480 0.000000 
#    z 0.000000 0.000000 3.888400 
# 
# 
# High freq. dielectric constant tensor:
#      x y z
#    x 1.929600 0.000000 0.000000 
#    y 0.000000 1.929600 0.000000 
#    z 0.000000 0.000000 1.887920 
# 
# From -- ./inp_files/1103.got.cif
#   From: 2010.03.12/outbox.cif.g09.slc.cpg/sg170_cif.got.tgz:1103.got - 2010.04.02 06:47:37.
