data_PCOD8324066
_publ_section_title
;
Structure prediction by ZEFSAII (Michael W. Deem and Ramdas Pophale) SiO2 
 PCOD8324066
Probable space group: R -3 M
;
_chemical_formula_sum "Si O2"
_cell_formula_units_Z 144
_cell_length_a 24.623714
_cell_length_b 24.623714
_cell_length_c 14.697956
_cell_angle_alpha 90.000000
_cell_angle_beta 90.000000
_cell_angle_gamma 120.000000
_cell_volume 7717.820812
_symmetry_space_group_name_H-M "R -3 M"
_symmetry_group_IT_number 166
_symmetry_cell_setting 'hexagonal'
loop_
_space_group_symop_operation_xyz
x,y,z
-y,x-y,z
-x+y,-x,z
x-y,-y,-z
-x,-x+y,-z
y,x,-z
-x,-y,-z
y,-x+y,-z
x-y,x,-z
-x+y,y,z
x,x-y,z
-y,-x,z
2/3+x,1/3+y,1/3+z
2/3-y,1/3+x-y,1/3+z
2/3-x+y,1/3-x,1/3+z
2/3+x-y,1/3-y,1/3-z
2/3-x,1/3-x+y,1/3-z
2/3+y,1/3+x,1/3-z
2/3-x,1/3-y,1/3-z
2/3+y,1/3-x+y,1/3-z
2/3+x-y,1/3+x,1/3-z
2/3-x+y,1/3+y,1/3+z
2/3+x,1/3+x-y,1/3+z
2/3-y,1/3-x,1/3+z
1/3+x,2/3+y,2/3+z
1/3-y,2/3+x-y,2/3+z
1/3-x+y,2/3-x,2/3+z
1/3+x-y,2/3-y,2/3-z
1/3-x,2/3-x+y,2/3-z
1/3+y,2/3+x,2/3-z
1/3-x,2/3-y,2/3-z
1/3+y,2/3-x+y,2/3-z
1/3+x-y,2/3+x,2/3-z
1/3-x+y,2/3+y,2/3+z
1/3+x,2/3+x-y,2/3+z
1/3-y,2/3-x,2/3+z
loop_
_atom_site_type_symbol
_atom_site_label
_atom_site_fract_x
_atom_site_fract_y
_atom_site_fract_z
Si Si1 0.622737 0.501630 0.247291
Si Si2 0.678204 0.943702 0.193629
Si Si3 0.852060 0.579771 0.688866
Si Si4 0.207217 0.541605 0.925746
O O1 0.563592 0.436409 0.275891
O O2 0.666667 0.528470 0.333334
O O3 0.598852 0.549817 0.219942
O O4 0.660092 0.491891 0.164899
O O5 0.667779 0.001112 0.166667
O O6 0.609806 0.880930 0.212435
O O7 0.719758 0.961958 0.284430
O O8 0.797398 0.594796 0.660732
O O9 0.823524 0.504725 0.680699
O O10 0.265333 0.530665 0.935118
O O11 0.231362 0.615681 0.922490
#
# Coordination Sequence:
#
# PCOD8324066 Si02
#       4
#    36  36  36  36
#     4  10  20  33  52  76 109 145 178 214 258 313
#     4  10  19  31  54  73  99 133 177 216 257 308
#     4   9  18  35  54  72  98 133 173 217 258 305
#     4   9  17  31  52  77 105 137 172 214 262 313
#
# _framework density 18.658117000000001
#
# number of rings (size 3 to 8) (size 9 to 14) (size 15 to 20)
#    0.000    2.500    0.000    5.500    3.500    0.000 
#    0.000    3.750    0.000    7.750    0.000    0.000 
#    0.000    5.000    0.000    0.000    0.000    0.000 
#
# Total GULP energy -594780.511929 kJ/mol
# GULP energy per Si atom -12391.260665 kJ/mol
# Density = 1.861565 g / cm^3
# Si number density = 18.658117 Si / 1000 Ang^3
#
#
#
# Elastic Constant Matrix: (Units=GPa)
#
#
# Indices 1 2 3 4 5 6 
#
# 1 126.5132 67.4507 57.2859 -8.0611 0.0001 0.0000
# 2 67.4507 126.5132 57.2858 8.0611 -0.0001 0.0000
# 3 57.2859 57.2858 58.8672 0.0000 0.0000 0.0000
# 4 -8.0611 8.0611 0.0000 27.4516 0.0000 -0.0001
# 5 0.0001 -0.0001 0.0000 0.0000 27.4516 -8.0611
# 6 0.0000 0.0000 0.0000 -0.0001 -8.0611 29.5312
#
#
#
# Elastic Compliance Matrix: (Units=1/GPa)
#
#
# Indices 1 2 3 4 5 6 
#
# 1 0.015266 -0.003141 -0.011800 0.005405 0.000000 0.000000
# 2 -0.003141 0.015266 -0.011800 -0.005405 0.000000 0.000000
# 3 -0.011800 -0.011800 0.039953 0.000000 0.000000 0.000000
# 4 0.005405 -0.005405 0.000000 0.039602 0.000000 0.000000
# 5 0.000000 0.000000 0.000000 0.000000 0.039602 0.010810
# 6 0.000000 0.000000 0.000000 0.000000 0.010810 0.036813
#
#
# Mechanical properties :
#
#
# Convention : Reuss Voigt Hill
#
# Bulk Modulus (GPa) = 58.80659 75.10426 66.95542
# Shear Modulus (GPa) = 20.35398 25.54494 22.94946
#
# Velocity S-wave (km/s) = 3.30645 3.70416 3.51094
# Velocity P-wave (km/s) = 6.79435 7.65732 7.23871
#
# Compressibility (1/GPa) = 0.01700490
#
# Stress axis : x y z
#
# Youngs Moduli (GPa) = 65.50441 65.50441 25.02923
#
# Poissons Ratio (x) = 0.20572 0.29534
# Poissons Ratio (y) = 0.20572 0.29534
# Poissons Ratio (z) = 0.77295 0.77295
#
# Static dielectric constant tensor:
#      x y z
#    x 3.446830 0.000000 0.000000 
#    y 0.000000 3.446830 0.000000 
#    z 0.000000 0.000000 3.367470 
# 
# 
# High freq. dielectric constant tensor:
#      x y z
#    x 1.722050 0.000000 0.000000 
#    y 0.000000 1.722050 0.000000 
#    z 0.000000 0.000000 1.700200 
# 
# From -- ./inp_files/5251.got.cif
#   From: 2010.03.12/outbox.cif.g09.slc.cpg/sg166_3_cif.got.tgz:5251.got - 2010.04.02 06:38:31.
