data_PCOD8324177
_publ_section_title
;
Structure prediction by ZEFSAII (Michael W. Deem and Ramdas Pophale) SiO2 
 PCOD8324177
Probable space group: R -3 M
;
_chemical_formula_sum "Si O2"
_cell_formula_units_Z 144
_cell_length_a 30.265722
_cell_length_b 30.265722
_cell_length_c 9.710557
_cell_angle_alpha 90.000000
_cell_angle_beta 90.000000
_cell_angle_gamma 120.000000
_cell_volume 7703.300697
_symmetry_space_group_name_H-M "R -3 M"
_symmetry_group_IT_number 166
_symmetry_cell_setting 'hexagonal'
loop_
_space_group_symop_operation_xyz
x,y,z
-y,x-y,z
-x+y,-x,z
x-y,-y,-z
-x,-x+y,-z
y,x,-z
-x,-y,-z
y,-x+y,-z
x-y,x,-z
-x+y,y,z
x,x-y,z
-y,-x,z
2/3+x,1/3+y,1/3+z
2/3-y,1/3+x-y,1/3+z
2/3-x+y,1/3-x,1/3+z
2/3+x-y,1/3-y,1/3-z
2/3-x,1/3-x+y,1/3-z
2/3+y,1/3+x,1/3-z
2/3-x,1/3-y,1/3-z
2/3+y,1/3-x+y,1/3-z
2/3+x-y,1/3+x,1/3-z
2/3-x+y,1/3+y,1/3+z
2/3+x,1/3+x-y,1/3+z
2/3-y,1/3-x,1/3+z
1/3+x,2/3+y,2/3+z
1/3-y,2/3+x-y,2/3+z
1/3-x+y,2/3-x,2/3+z
1/3+x-y,2/3-y,2/3-z
1/3-x,2/3-x+y,2/3-z
1/3+y,2/3+x,2/3-z
1/3-x,2/3-y,2/3-z
1/3+y,2/3-x+y,2/3-z
1/3+x-y,2/3+x,2/3-z
1/3-x+y,2/3+y,2/3+z
1/3+x,2/3+x-y,2/3+z
1/3-y,2/3-x,2/3+z
loop_
_atom_site_type_symbol
_atom_site_label
_atom_site_fract_x
_atom_site_fract_y
_atom_site_fract_z
Si Si1 0.868097 0.381815 0.754104
Si Si2 0.027580 0.418465 0.144031
Si Si3 0.798437 0.103173 0.032669
Si Si4 0.045307 0.189090 0.895164
O O1 0.860629 0.430314 0.771552
O O2 0.823168 0.333334 0.833334
O O3 0.922446 0.395558 0.821854
O O4 0.861850 0.363727 0.594525
O O5 0.040533 0.373866 0.166667
O O6 0.982884 0.407928 0.247585
O O7 0.000000 0.414186 0.000000
O O8 0.836947 0.163054 0.999450
O O9 0.766052 0.099385 0.166667
O O10 0.829544 0.074356 0.043083
O O11 0.082718 0.165436 0.891710
O O12 0.000000 0.154292 0.000000
#
# Coordination Sequence:
#
# PCOD8324177 Si02
#       4
#    36  36  36  36
#     4  10  22  41  61  88 120 151 194 244 294 349
#     4  11  25  39  53  82 117 160 201 248 293 340
#     4  10  20  37  60  82 112 154 195 241 293 346
#     4  10  22  39  62  89 117 150 192 240 292 356
#
# _framework density 18.693287000000002
#
# number of rings (size 3 to 8) (size 9 to 14) (size 15 to 20)
#    0.000    1.750    2.500    0.750    7.000    5.000 
#    0.000    0.000    0.000    0.500    0.000    0.000 
#    0.000    0.000    0.000    0.000    0.000    0.000 
#
# Total GULP energy -594896.026882 kJ/mol
# GULP energy per Si atom -12393.667227 kJ/mol
# Density = 1.865074 g / cm^3
# Si number density = 18.693287 Si / 1000 Ang^3
#
#
#
# Elastic Constant Matrix: (Units=GPa)
#
#
# Indices 1 2 3 4 5 6 
#
# 1 84.7852 32.8901 66.3943 6.2673 0.0037 -0.0265
# 2 32.8901 84.7839 66.4887 -6.2207 0.0084 -0.0045
# 3 66.3943 66.4887 168.9784 -0.0878 -0.1242 -0.0502
# 4 6.2673 -6.2207 -0.0878 35.9633 -0.0741 -0.0051
# 5 0.0037 0.0084 -0.1242 -0.0741 36.0014 6.2522
# 6 -0.0265 -0.0045 -0.0502 -0.0051 6.2522 25.9207
#
#
#
# Elastic Compliance Matrix: (Units=1/GPa)
#
#
# Indices 1 2 3 4 5 6 
#
# 1 0.017692 -0.002413 -0.006004 -0.003515 -0.000031 0.000013
# 2 -0.002413 0.017703 -0.006016 0.003468 -0.000016 -0.000006
# 3 -0.006004 -0.006016 0.010644 0.000032 0.000038 0.000004
# 4 -0.003515 0.003468 0.000032 0.029019 0.000061 -0.000012
# 5 -0.000031 -0.000016 0.000038 0.000061 0.028991 -0.006993
# 6 0.000013 -0.000006 0.000004 -0.000012 -0.006993 0.040266
#
#
# Mechanical properties :
#
#
# Convention : Reuss Voigt Hill
#
# Bulk Modulus (GPa) = 58.22819 74.45484 66.34152
# Shear Modulus (GPa) = 27.94788 31.09537 29.52163
#
# Velocity S-wave (km/s) = 3.87082 4.08297 3.97831
# Velocity P-wave (km/s) = 7.15503 7.88313 7.52789
#
# Compressibility (1/GPa) = 0.01717381
#
# Stress axis : x y z
#
# Youngs Moduli (GPa) = 56.52296 56.48831 93.94917
#
# Poissons Ratio (x) = 0.13629 0.56406
# Poissons Ratio (y) = 0.13638 0.56518
# Poissons Ratio (z) = 0.33936 0.33982
#
# Static dielectric constant tensor:
#      x y z
#    x 3.510660 -0.000320 0.000460 
#    y -0.000320 3.510830 -0.000240 
#    z 0.000460 -0.000240 3.615640 
# 
# 
# High freq. dielectric constant tensor:
#      x y z
#    x 1.715130 0.000000 -0.000010 
#    y 0.000000 1.715130 0.000000 
#    z -0.000010 0.000000 1.738900 
# 
# From -- ./inp_files/1773.got.cif
#   From: 2010.03.12/outbox.cif.g09.slc.cpg/sg166_1_cif.got.tgz:1773.got - 2010.04.02 06:38:31.
