data_PCOD8324057
_publ_section_title
;
Structure prediction by ZEFSAII (Michael W. Deem and Ramdas Pophale) SiO2 
 PCOD8324057
Probable space group: R -3 M
;
_chemical_formula_sum "Si O2"
_cell_formula_units_Z 216
_cell_length_a 26.645971
_cell_length_b 26.645971
_cell_length_c 19.382358
_cell_angle_alpha 90.000000
_cell_angle_beta 90.000000
_cell_angle_gamma 120.000000
_cell_volume 11917.916667
_symmetry_space_group_name_H-M "R -3 M"
_symmetry_group_IT_number 166
_symmetry_cell_setting 'hexagonal'
loop_
_space_group_symop_operation_xyz
x,y,z
-y,x-y,z
-x+y,-x,z
x-y,-y,-z
-x,-x+y,-z
y,x,-z
-x,-y,-z
y,-x+y,-z
x-y,x,-z
-x+y,y,z
x,x-y,z
-y,-x,z
2/3+x,1/3+y,1/3+z
2/3-y,1/3+x-y,1/3+z
2/3-x+y,1/3-x,1/3+z
2/3+x-y,1/3-y,1/3-z
2/3-x,1/3-x+y,1/3-z
2/3+y,1/3+x,1/3-z
2/3-x,1/3-y,1/3-z
2/3+y,1/3-x+y,1/3-z
2/3+x-y,1/3+x,1/3-z
2/3-x+y,1/3+y,1/3+z
2/3+x,1/3+x-y,1/3+z
2/3-y,1/3-x,1/3+z
1/3+x,2/3+y,2/3+z
1/3-y,2/3+x-y,2/3+z
1/3-x+y,2/3-x,2/3+z
1/3+x-y,2/3-y,2/3-z
1/3-x,2/3-x+y,2/3-z
1/3+y,2/3+x,2/3-z
1/3-x,2/3-y,2/3-z
1/3+y,2/3-x+y,2/3-z
1/3+x-y,2/3+x,2/3-z
1/3-x+y,2/3+y,2/3+z
1/3+x,2/3+x-y,2/3+z
1/3-y,2/3-x,2/3+z
loop_
_atom_site_type_symbol
_atom_site_label
_atom_site_fract_x
_atom_site_fract_y
_atom_site_fract_z
Si Si1 0.486885 0.394649 0.534376
Si Si2 0.772993 0.659185 0.558711
Si Si3 0.544498 0.970559 0.596750
Si Si4 0.338012 0.888690 0.089876
Si Si5 0.204500 0.159495 0.713283
Si Si6 0.442597 0.440814 0.259267
O O1 0.551523 0.448478 0.538246
O O2 0.440848 0.405202 0.577012
O O3 0.460964 0.381615 0.455690
O O4 0.490720 0.340114 0.564590
O O5 0.842318 0.684635 0.559210
O O6 0.760254 0.709747 0.576886
O O7 0.742269 0.607432 0.612882
O O8 0.747887 0.635449 0.481287
O O9 0.484771 0.969542 0.587751
O O10 0.557310 0.959200 0.675802
O O11 0.333334 0.861618 0.166667
O O12 0.278056 0.882624 0.068236
O O13 0.355413 0.855902 0.032378
O O14 0.183584 0.091792 0.727525
O O15 0.496266 0.503735 0.270971
#
# Coordination Sequence:
#
# PCOD8324057 Si02
#       6
#    36  36  36  36  36  36
#     4   9  17  31  51  75  98 123 162 214 261 307
#     4   9  19  33  46  64  98 136 167 202 248 305
#     4   8  14  28  50  73  96 123 156 206 265 300
#     4  10  19  31  46  67  92 131 179 215 248 289
#     4  11  21  34  50  70 100 138 170 206 261 316
#     4   9  16  30  49  70  97 127 163 210 255 294
#
# _framework density 18.123972999999999
#
# number of rings (size 3 to 8) (size 9 to 14) (size 15 to 20)
#    0.000    2.667    1.667    2.000    0.000    2.000 
#    9.000    0.833    0.000    0.333    0.000    0.000 
#    0.000    0.667    0.000    0.000    0.000   19.667 
#
# Total GULP energy -891966.965123 kJ/mol
# GULP energy per Si atom -12388.430071 kJ/mol
# Density = 1.808272 g / cm^3
# Si number density = 18.123973 Si / 1000 Ang^3
#
#
#
# Elastic Constant Matrix: (Units=GPa)
#
#
# Indices 1 2 3 4 5 6 
#
# 1 45.8326 5.9162 25.7891 3.9208 0.0000 0.0000
# 2 5.9162 45.8326 25.7891 -3.9208 0.0000 0.0000
# 3 25.7891 25.7891 145.3738 0.0000 0.0000 0.0000
# 4 3.9208 -3.9208 0.0000 20.7630 0.0000 0.0000
# 5 0.0000 0.0000 0.0000 0.0000 20.7630 3.9208
# 6 0.0000 0.0000 0.0000 0.0000 3.9208 19.9582
#
#
#
# Elastic Compliance Matrix: (Units=1/GPa)
#
#
# Indices 1 2 3 4 5 6 
#
# 1 0.024746 -0.001271 -0.004164 -0.004913 0.000000 0.000000
# 2 -0.001271 0.024746 -0.004164 0.004913 0.000000 0.000000
# 3 -0.004164 -0.004164 0.008356 0.000000 0.000000 0.000000
# 4 -0.004913 0.004913 0.000000 0.050018 0.000000 0.000000
# 5 0.000000 0.000000 0.000000 0.000000 0.050018 -0.009826
# 6 0.000000 0.000000 0.000000 0.000000 -0.009826 0.052035
#
#
# Mechanical properties :
#
#
# Convention : Reuss Voigt Hill
#
# Bulk Modulus (GPa) = 25.87435 39.11421 32.49428
# Shear Modulus (GPa) = 20.66091 24.26647 22.46369
#
# Velocity S-wave (km/s) = 3.38002 3.66309 3.52440
# Velocity P-wave (km/s) = 5.43507 6.28644 5.87619
#
# Compressibility (1/GPa) = 0.03864831
#
# Stress axis : x y z
#
# Youngs Moduli (GPa) = 40.41035 40.41035 119.66977
#
# Poissons Ratio (x) = 0.05138 0.49835
# Poissons Ratio (y) = 0.05138 0.49835
# Poissons Ratio (z) = 0.16828 0.16828
#
# Static dielectric constant tensor:
#      x y z
#    x 3.044280 0.000000 0.000000 
#    y 0.000000 3.044280 0.000000 
#    z 0.000000 0.000000 4.013860 
# 
# 
# High freq. dielectric constant tensor:
#      x y z
#    x 1.662590 0.000000 0.000000 
#    y 0.000000 1.662590 0.000000 
#    z 0.000000 0.000000 1.734200 
# 
# From -- ./inp_files/7124.got.cif
#   From: 2010.03.12/outbox.cif.g09.slc.cpg/sg166_4_cif.got.tgz:7124.got - 2010.04.02 06:38:31.
