data_PCOD8324134
_publ_section_title
;
Structure prediction by ZEFSAII (Michael W. Deem and Ramdas Pophale) SiO2 
 PCOD8324134
Probable space group: R -3 M
;
_chemical_formula_sum "Si O2"
_cell_formula_units_Z 252
_cell_length_a 30.398721
_cell_length_b 30.398721
_cell_length_c 18.297558
_cell_angle_alpha 90.000000
_cell_angle_beta 90.000000
_cell_angle_gamma 120.000000
_cell_volume 14643.145814
_symmetry_space_group_name_H-M "R -3 M"
_symmetry_group_IT_number 166
_symmetry_cell_setting 'hexagonal'
loop_
_space_group_symop_operation_xyz
x,y,z
-y,x-y,z
-x+y,-x,z
x-y,-y,-z
-x,-x+y,-z
y,x,-z
-x,-y,-z
y,-x+y,-z
x-y,x,-z
-x+y,y,z
x,x-y,z
-y,-x,z
2/3+x,1/3+y,1/3+z
2/3-y,1/3+x-y,1/3+z
2/3-x+y,1/3-x,1/3+z
2/3+x-y,1/3-y,1/3-z
2/3-x,1/3-x+y,1/3-z
2/3+y,1/3+x,1/3-z
2/3-x,1/3-y,1/3-z
2/3+y,1/3-x+y,1/3-z
2/3+x-y,1/3+x,1/3-z
2/3-x+y,1/3+y,1/3+z
2/3+x,1/3+x-y,1/3+z
2/3-y,1/3-x,1/3+z
1/3+x,2/3+y,2/3+z
1/3-y,2/3+x-y,2/3+z
1/3-x+y,2/3-x,2/3+z
1/3+x-y,2/3-y,2/3-z
1/3-x,2/3-x+y,2/3-z
1/3+y,2/3+x,2/3-z
1/3-x,2/3-y,2/3-z
1/3+y,2/3-x+y,2/3-z
1/3+x-y,2/3+x,2/3-z
1/3-x+y,2/3+y,2/3+z
1/3+x,2/3+x-y,2/3+z
1/3-y,2/3-x,2/3+z
loop_
_atom_site_type_symbol
_atom_site_label
_atom_site_fract_x
_atom_site_fract_y
_atom_site_fract_z
Si Si1 0.519081 0.381243 0.601121
Si Si2 0.328917 0.045627 0.048512
Si Si3 0.235415 0.858840 0.039690
Si Si4 0.622940 0.861997 0.441463
Si Si5 0.238090 0.248772 0.830567
Si Si6 0.604204 0.719727 0.194073
Si Si7 0.613577 0.486422 0.987350
O O1 0.579521 0.420480 0.587844
O O2 0.497071 0.404325 0.657716
O O3 0.488372 0.371372 0.524339
O O4 0.507332 0.327930 0.638047
O O5 0.277665 0.031686 0.093214
O O6 0.377329 0.064615 0.100144
O O7 0.335035 0.086368 0.988189
O O8 0.324928 0.000000 0.000000
O O9 0.175036 0.824965 0.031554
O O10 0.249285 0.855509 0.122779
O O11 0.627355 0.813678 0.468950
O O12 0.594535 0.877652 0.502729
O O13 0.678193 0.911132 0.426801
O O14 0.590940 0.848445 0.367458
O O15 0.599964 0.666667 0.166667
O O16 0.554278 0.705695 0.242630
O O17 0.572442 0.427559 0.975769
#
# Coordination Sequence:
#
# PCOD8324134 Si02
#       7
#    36  36  36  36  36  36  36
#     4   9  18  34  52  73  96 124 163 204 246 302
#     4  10  20  32  47  69  94 126 166 209 247 296
#     4  10  20  33  47  66  94 127 167 206 245 289
#     4  10  21  34  49  70  98 128 164 208 256 307
#     4   9  20  33  49  70  93 129 165 203 255 295
#     4  12  22  31  46  71  97 135 168 210 249 291
#     4  10  20  36  53  73  99 129 165 207 261 314
#
# _framework density 17.209416000000001
#
# number of rings (size 3 to 8) (size 9 to 14) (size 15 to 20)
#    0.000    2.000    1.429    2.571    4.000    1.714 
#    0.000    2.857    0.000    0.286    0.000    0.000 
#    0.000    0.571    0.000    0.000    0.000    0.714 
#
# Total GULP energy -1040990.586183 kJ/mol
# GULP energy per Si atom -12392.745074 kJ/mol
# Density = 1.717025 g / cm^3
# Si number density = 17.209416 Si / 1000 Ang^3
#
#
#
# Elastic Constant Matrix: (Units=GPa)
#
#
# Indices 1 2 3 4 5 6 
#
# 1 92.6282 53.8073 20.9603 -2.3973 -0.0002 0.0000
# 2 53.8073 92.6282 20.9603 2.3973 0.0002 0.0000
# 3 20.9603 20.9603 50.9265 0.0000 0.0000 0.0000
# 4 -2.3973 2.3973 0.0000 13.2056 0.0000 0.0002
# 5 -0.0002 0.0002 0.0000 0.0000 13.2056 -2.3973
# 6 0.0000 0.0000 0.0000 0.0002 -2.3973 19.4105
#
#
#
# Elastic Compliance Matrix: (Units=1/GPa)
#
#
# Indices 1 2 3 4 5 6 
#
# 1 0.017046 -0.009305 -0.003186 0.004784 0.000000 0.000000
# 2 -0.009305 0.017046 -0.003186 -0.004784 0.000000 0.000000
# 3 -0.003186 -0.003186 0.022259 0.000000 0.000000 0.000000
# 4 0.004784 -0.004784 0.000000 0.077462 0.000000 -0.000001
# 5 0.000000 0.000000 0.000000 0.000000 0.077462 0.009567
# 6 0.000000 0.000000 0.000000 -0.000001 0.009567 0.052700
#
#
# Mechanical properties :
#
#
# Convention : Reuss Voigt Hill
#
# Bulk Modulus (GPa) = 40.00538 47.51540 43.76039
# Shear Modulus (GPa) = 16.46578 18.52799 17.49688
#
# Velocity S-wave (km/s) = 3.09656 3.28475 3.19204
# Velocity P-wave (km/s) = 6.00679 6.48507 6.25051
#
# Compressibility (1/GPa) = 0.02499664
#
# Stress axis : x y z
#
# Youngs Moduli (GPa) = 58.66628 58.66628 44.92607
#
# Poissons Ratio (x) = 0.54586 0.14314
# Poissons Ratio (y) = 0.54586 0.14314
# Poissons Ratio (z) = 0.18691 0.18691
#
# Static dielectric constant tensor:
#      x y z
#    x 3.371390 0.000000 0.000000 
#    y 0.000000 3.371390 0.000000 
#    z 0.000000 0.000000 3.204640 
# 
# 
# High freq. dielectric constant tensor:
#      x y z
#    x 1.646520 0.000000 0.000000 
#    y 0.000000 1.646520 0.000000 
#    z 0.000000 0.000000 1.659710 
# 
# From -- ./inp_files/5867.got.cif
#   From: 2010.03.12/outbox.cif.g09.slc.cpg/sg166_3_cif.got.tgz:5867.got - 2010.04.02 06:38:31.
