data_PCOD8324646
_publ_section_title
;
Structure prediction by ZEFSAII (Michael W. Deem and Ramdas Pophale) SiO2 
 PCOD8324646
Probable space group: P 65
;
_chemical_formula_sum "Si O2"
_cell_formula_units_Z 30
_cell_length_a 14.636504
_cell_length_b 14.636504
_cell_length_c 10.297975
_cell_angle_alpha 90.000000
_cell_angle_beta 90.000000
_cell_angle_gamma 120.000000
_cell_volume 1910.544583
_symmetry_space_group_name_H-M "P 65"
_symmetry_group_IT_number 170
_symmetry_cell_setting 'hexagonal'
loop_
_space_group_symop_operation_xyz
x,y,z
x-y,x,5/6+z
-y,x-y,2/3+z
-x,-y,1/2+z
-x+y,-x,1/3+z
y,-x+y,1/6+z
loop_
_atom_site_type_symbol
_atom_site_label
_atom_site_fract_x
_atom_site_fract_y
_atom_site_fract_z
Si Si1 0.579058 0.689508 0.536060
Si Si2 0.569567 0.512520 0.163408
Si Si3 0.693819 0.582729 0.425462
Si Si4 0.557661 0.196880 0.601773
Si Si5 0.829851 0.406119 0.987135
O O1 0.531237 0.608100 0.658569
O O2 0.669459 0.674481 0.466315
O O3 0.632007 0.812308 0.575199
O O4 0.479362 0.660565 0.440698
O O5 0.632934 0.527873 0.293980
O O6 0.523929 0.592350 0.154491
O O7 0.642958 0.529934 0.036153
O O8 0.658870 0.492525 0.532354
O O9 0.589014 0.312886 0.645544
O O10 0.517698 0.173631 0.453154
#
# Coordination Sequence:
#
# PCOD8324646 Si02
#       5
#     6   6   6   6   6
#     4   9  21  31  50  73 105 133 172 212 256 302
#     4   9  20  34  47  71 103 134 174 209 248 311
#     4  11  20  34  51  73 106 133 178 213 256 308
#     4  10  20  31  48  72 100 138 174 197 261 292
#     4  11  19  32  48  73 100 142 170 209 249 313
#
# _framework density 15.702328
#
# number of rings (size 3 to 8) (size 9 to 14) (size 15 to 20)
#    1.200    0.800    2.000    2.400    5.600    0.000 
#    0.000    0.000    0.000    0.000    0.000    0.000 
#   12.000    0.000    0.000    0.000    0.000    0.000 
#
# Total GULP energy -371671.201398 kJ/mol
# GULP energy per Si atom -12389.040047 kJ/mol
# Density = 1.566659 g / cm^3
# Si number density = 15.702328 Si / 1000 Ang^3
#
#
#
# Elastic Constant Matrix: (Units=GPa)
#
#
# Indices 1 2 3 4 5 6 
#
# 1 89.5670 42.7562 28.6713 0.0000 0.0000 0.0000
# 2 42.7562 89.5670 28.6713 0.0000 0.0000 0.0000
# 3 28.6713 28.6713 110.0028 0.0000 0.0000 0.0000
# 4 0.0000 0.0000 0.0000 16.1573 0.0000 0.0000
# 5 0.0000 0.0000 0.0000 0.0000 16.1573 0.0000
# 6 0.0000 0.0000 0.0000 0.0000 0.0000 23.4054
#
#
#
# Elastic Compliance Matrix: (Units=1/GPa)
#
#
# Indices 1 2 3 4 5 6 
#
# 1 0.014941 -0.006422 -0.002221 0.000000 0.000000 0.000000
# 2 -0.006422 0.014941 -0.002221 0.000000 0.000000 0.000000
# 3 -0.002221 -0.002221 0.010248 0.000000 0.000000 0.000000
# 4 0.000000 0.000000 0.000000 0.061892 0.000000 0.000000
# 5 0.000000 0.000000 0.000000 0.000000 0.061892 0.000000
# 6 0.000000 0.000000 0.000000 0.000000 0.000000 0.042725
#
#
# Mechanical properties :
#
#
# Convention : Reuss Voigt Hill
#
# Bulk Modulus (GPa) = 54.33278 54.37050 54.35164
# Shear Modulus (GPa) = 21.32205 23.74651 22.53428
#
# Velocity S-wave (km/s) = 3.68895 3.89304 3.79237
# Velocity P-wave (km/s) = 7.26783 7.41003 7.33928
#
# Compressibility (1/GPa) = 0.01840510
#
# Stress axis : x y z
#
# Youngs Moduli (GPa) = 66.92959 66.92959 97.57798
#
# Poissons Ratio (x) = 0.42979 0.21668
# Poissons Ratio (y) = 0.42979 0.21668
# Poissons Ratio (z) = 0.14862 0.14862
#
# Static dielectric constant tensor:
#      x y z
#    x 2.825420 0.000000 0.000000 
#    y 0.000000 2.825420 0.000000 
#    z 0.000000 0.000000 3.129580 
# 
# 
# High freq. dielectric constant tensor:
#      x y z
#    x 1.573470 0.000000 0.000000 
#    y 0.000000 1.573470 0.000000 
#    z 0.000000 0.000000 1.618160 
# 
# From -- ./inp_files/536.got.cif
#   From: 2010.03.12/outbox.cif.g09.slc.cpg/sg170_cif.got.tgz:536.got - 2010.04.02 06:47:37.
