data_PCOD8324461
_publ_section_title
;
Structure prediction by ZEFSAII (Michael W. Deem and Ramdas Pophale) SiO2 
 PCOD8324461
Probable space group: P 61
;
_chemical_formula_sum "Si O2"
_cell_formula_units_Z 42
_cell_length_a 13.635147
_cell_length_b 13.635147
_cell_length_c 11.920704
_cell_angle_alpha 90.000000
_cell_angle_beta 90.000000
_cell_angle_gamma 120.000000
_cell_volume 1919.341195
_symmetry_space_group_name_H-M "P 61"
_symmetry_group_IT_number 169
_symmetry_cell_setting 'hexagonal'
loop_
_space_group_symop_operation_xyz
x,y,z
x-y,x,1/6+z
-y,x-y,1/3+z
-x,-y,1/2+z
-x+y,-x,2/3+z
y,-x+y,5/6+z
loop_
_atom_site_type_symbol
_atom_site_label
_atom_site_fract_x
_atom_site_fract_y
_atom_site_fract_z
Si Si1 0.228094 0.596601 0.925240
Si Si2 0.029372 0.864491 0.603578
Si Si3 0.495364 0.501271 0.123372
Si Si4 0.537436 0.204153 0.331750
Si Si5 0.703338 0.091537 0.599453
Si Si6 0.280345 0.410834 0.011282
Si Si7 0.301579 0.123350 0.072469
O O1 0.336470 0.708760 0.875391
O O2 0.270649 0.511615 0.958581
O O3 0.128165 0.526108 0.833884
O O4 0.182881 0.636113 0.032386
O O5 0.086196 0.786337 0.601964
O O6 0.990830 0.871279 0.477757
O O7 0.916909 0.814039 0.681530
O O8 0.614648 0.528234 0.068565
O O9 0.477363 0.424990 0.232943
O O10 0.410504 0.441770 0.018085
O O11 0.451119 0.252884 0.348704
O O12 0.768306 0.119164 0.481927
O O13 0.716364 0.986145 0.645539
O O14 0.241064 0.394099 0.141379
#
# Coordination Sequence:
#
# PCOD8324461 Si02
#       7
#     6   6   6   6   6   6   6
#     4  12  25  45  67  99 138 183 227 291 355 425
#     4  10  19  36  63  95 121 164 223 272 330 395
#     4  11  23  42  68  96 129 188 228 280 351 407
#     4  12  25  44  67  99 143 178 234 289 355 430
#     4  11  21  38  62  95 127 169 230 280 334 409
#     4  10  21  37  67  92 127 166 230 279 328 412
#     4  10  18  36  66  94 121 172 228 277 329 398
#
# _framework density 21.882508000000001
#
# number of rings (size 3 to 8) (size 9 to 14) (size 15 to 20)
#    0.000    1.143    7.143    2.571    2.000    2.286 
#    0.000    1.429    0.000    0.000    0.000    0.000 
#    0.000    0.000    0.000    0.000    0.000    0.000 
#
# Total GULP energy -520440.922560 kJ/mol
# GULP energy per Si atom -12391.450537 kJ/mol
# Density = 2.183270 g / cm^3
# Si number density = 21.882508 Si / 1000 Ang^3
#
#
#
# Elastic Constant Matrix: (Units=GPa)
#
#
# Indices 1 2 3 4 5 6 
#
# 1 81.5734 10.9478 16.2712 0.0000 0.0000 0.0000
# 2 10.9478 81.5734 16.2712 0.0000 0.0000 0.0000
# 3 16.2712 16.2712 43.6686 0.0000 0.0000 0.0000
# 4 0.0000 0.0000 0.0000 24.8706 0.0000 0.0000
# 5 0.0000 0.0000 0.0000 0.0000 24.8706 0.0000
# 6 0.0000 0.0000 0.0000 0.0000 0.0000 35.3128
#
#
#
# Elastic Compliance Matrix: (Units=1/GPa)
#
#
# Indices 1 2 3 4 5 6 
#
# 1 0.013299 -0.000860 -0.004635 0.000000 0.000000 0.000000
# 2 -0.000860 0.013299 -0.004635 0.000000 0.000000 0.000000
# 3 -0.004635 -0.004635 0.026354 0.000000 0.000000 0.000000
# 4 0.000000 0.000000 0.000000 0.040208 0.000000 0.000000
# 5 0.000000 0.000000 0.000000 0.000000 0.040208 0.000000
# 6 0.000000 0.000000 0.000000 0.000000 0.000000 0.028318
#
#
# Mechanical properties :
#
#
# Convention : Reuss Voigt Hill
#
# Bulk Modulus (GPa) = 30.58863 32.64398 31.61630
# Shear Modulus (GPa) = 25.92788 27.89912 26.91350
#
# Velocity S-wave (km/s) = 3.44593 3.57452 3.51081
# Velocity P-wave (km/s) = 5.46273 5.65566 5.56003
#
# Compressibility (1/GPa) = 0.03269188
#
# Stress axis : x y z
#
# Youngs Moduli (GPa) = 75.19456 75.19456 37.94551
#
# Poissons Ratio (x) = 0.06469 0.17586
# Poissons Ratio (y) = 0.06469 0.17586
# Poissons Ratio (z) = 0.34850 0.34850
#
# Static dielectric constant tensor:
#      x y z
#    x 4.203380 0.000000 0.000000 
#    y 0.000000 4.203380 0.000000 
#    z 0.000000 0.000000 3.788540 
# 
# 
# High freq. dielectric constant tensor:
#      x y z
#    x 1.864210 0.000000 0.000000 
#    y 0.000000 1.864210 0.000000 
#    z 0.000000 0.000000 1.818050 
# 
# From -- ./inp_files/1012.got.cif
#   From: 2010.03.12/outbox.cif.g09.slc.cpg/sg169_cif.got.tgz:1012.got - 2010.04.02 06:46:06.
