data_PCOD8324948
_publ_section_title
;
Structure prediction by ZEFSAII (Michael W. Deem and Ramdas Pophale) SiO2 
 PCOD8324948
Probable space group: P -6
;
_chemical_formula_sum "Si O2"
_cell_formula_units_Z 48
_cell_length_a 18.681197
_cell_length_b 18.681197
_cell_length_c 8.975243
_cell_angle_alpha 90.000000
_cell_angle_beta 90.000000
_cell_angle_gamma 120.000000
_cell_volume 2712.603064
_symmetry_space_group_name_H-M "P -6"
_symmetry_group_IT_number 174
_symmetry_cell_setting 'hexagonal'
loop_
_space_group_symop_operation_xyz
x,y,z
-x+y,-x,-z
-y,x-y,z
x,y,-z
-x+y,-x,z
-y,x-y,-z
loop_
_atom_site_type_symbol
_atom_site_label
_atom_site_fract_x
_atom_site_fract_y
_atom_site_fract_z
Si Si1 0.490694 0.665445 0.825100
Si Si2 0.751881 0.667149 0.324161
Si Si3 0.096175 0.761280 0.673496
Si Si4 0.340890 0.250655 0.671056
Si Si5 0.495725 0.829961 0.822819
Si Si6 0.664239 0.170678 0.825608
Si Si7 0.239142 0.915216 0.822913
Si Si8 0.830112 0.332611 0.824264
O O1 0.470271 0.736450 0.778660
O O2 0.422263 0.576722 0.759743
O O3 0.583236 0.691432 0.772761
O O4 0.484144 0.655349 0.000000
O O5 0.742253 0.670585 0.500000
O O6 0.842567 0.684190 0.276091
O O7 0.741013 0.738610 0.247647
O O8 0.682016 0.578639 0.262521
O O9 0.120354 0.773843 0.500000
O O10 0.107577 0.687390 0.739121
O O11 0.150475 0.846367 0.761246
O O12 0.000899 0.735967 0.698463
O O13 0.367197 0.261297 0.500000
O O14 0.420757 0.320003 0.757239
O O15 0.510082 0.844061 0.000000
O O16 0.737759 0.261594 0.782970
O O17 0.578255 0.159733 0.765716
O O18 0.658076 0.157543 0.000000
O O19 0.233137 0.918173 0.000000
O O20 0.847071 0.334003 0.000000
#
# Coordination Sequence:
#
# PCOD8324948 Si02
#       8
#     6   6   6   6   6   6   6   6
#     4   8  15  27  46  69  95 127 165 202 235 272
#     4  10  20  35  53  73  97 129 164 201 247 300
#     4  10  20  35  52  72  98 128 160 199 244 293
#     4   9  20  36  52  71  98 129 164 202 245 296
#     4   9  16  29  48  70  96 132 173 207 237 276
#     4   9  17  29  48  71  99 135 175 213 249 285
#     4  10  20  35  54  77 100 125 159 201 246 297
#     4   9  17  30  47  71 101 135 174 215 251 285
#
# _framework density 17.695181000000002
#
# number of rings (size 3 to 8) (size 9 to 14) (size 15 to 20)
#    0.000    2.750    0.000    2.375    0.000    5.000 
#    0.000    6.875    0.000    2.000    0.000    1.750 
#    0.000    0.000    0.000    0.000    0.000    0.000 
#
# Total GULP energy -595132.734789 kJ/mol
# GULP energy per Si atom -12398.598641 kJ/mol
# Density = 1.765491 g / cm^3
# Si number density = 17.695181 Si / 1000 Ang^3
#
#
#
# Elastic Constant Matrix: (Units=GPa)
#
#
# Indices 1 2 3 4 5 6 
#
# 1 98.0528 63.5311 37.5364 0.0000 0.0000 0.0000
# 2 63.5311 98.0528 37.5364 0.0000 0.0000 0.0000
# 3 37.5364 37.5364 55.9177 0.0000 0.0000 0.0000
# 4 0.0000 0.0000 0.0000 26.0047 0.0000 0.0000
# 5 0.0000 0.0000 0.0000 0.0000 26.0047 0.0000
# 6 0.0000 0.0000 0.0000 0.0000 0.0000 17.2609
#
#
#
# Elastic Compliance Matrix: (Units=1/GPa)
#
#
# Indices 1 2 3 4 5 6 
#
# 1 0.018980 -0.009987 -0.006037 0.000000 0.000000 0.000000
# 2 -0.009987 0.018980 -0.006037 0.000000 0.000000 0.000000
# 3 -0.006037 -0.006037 0.025989 0.000000 0.000000 0.000000
# 4 0.000000 0.000000 0.000000 0.038455 0.000000 0.000000
# 5 0.000000 0.000000 0.000000 0.000000 0.038455 0.000000
# 6 0.000000 0.000000 0.000000 0.000000 0.000000 0.057935
#
#
# Mechanical properties :
#
#
# Convention : Reuss Voigt Hill
#
# Bulk Modulus (GPa) = 50.43605 58.80346 54.61975
# Shear Modulus (GPa) = 20.03805 21.41534 20.72670
#
# Velocity S-wave (km/s) = 3.36877 3.48262 3.42617
# Velocity P-wave (km/s) = 6.61030 7.03385 6.82536
#
# Compressibility (1/GPa) = 0.01982709
#
# Stress axis : x y z
#
# Youngs Moduli (GPa) = 52.68571 52.68571 38.47810
#
# Poissons Ratio (x) = 0.52616 0.23230
# Poissons Ratio (y) = 0.52616 0.23230
# Poissons Ratio (z) = 0.31808 0.31808
#
# Static dielectric constant tensor:
#      x y z
#    x 3.303950 0.000000 0.000000 
#    y 0.000000 3.303950 0.000000 
#    z 0.000000 0.000000 3.162310 
# 
# 
# High freq. dielectric constant tensor:
#      x y z
#    x 1.676040 0.000000 0.000000 
#    y 0.000000 1.676040 0.000000 
#    z 0.000000 0.000000 1.673540 
# 
# From -- ./inp_files/505.got.cif
#   From: 2010.03.12/outbox.cif.g09.slc.cpg/sg174_cif.got.tgz:505.got - 2010.04.02 06:54:58.
