data_PCOD8324232
_publ_section_title
;
Structure prediction by ZEFSAII (Michael W. Deem and Ramdas Pophale) SiO2 
 PCOD8324232
Probable space group: R -3 M
;
_chemical_formula_sum "Si O2"
_cell_formula_units_Z 84
_cell_length_a 13.827898
_cell_length_b 13.827898
_cell_length_c 23.463091
_cell_angle_alpha 90.000000
_cell_angle_beta 90.000000
_cell_angle_gamma 120.000000
_cell_volume 3885.332505
_symmetry_space_group_name_H-M "R -3 M"
_symmetry_group_IT_number 166
_symmetry_cell_setting 'hexagonal'
loop_
_space_group_symop_operation_xyz
x,y,z
-y,x-y,z
-x+y,-x,z
x-y,-y,-z
-x,-x+y,-z
y,x,-z
-x,-y,-z
y,-x+y,-z
x-y,x,-z
-x+y,y,z
x,x-y,z
-y,-x,z
2/3+x,1/3+y,1/3+z
2/3-y,1/3+x-y,1/3+z
2/3-x+y,1/3-x,1/3+z
2/3+x-y,1/3-y,1/3-z
2/3-x,1/3-x+y,1/3-z
2/3+y,1/3+x,1/3-z
2/3-x,1/3-y,1/3-z
2/3+y,1/3-x+y,1/3-z
2/3+x-y,1/3+x,1/3-z
2/3-x+y,1/3+y,1/3+z
2/3+x,1/3+x-y,1/3+z
2/3-y,1/3-x,1/3+z
1/3+x,2/3+y,2/3+z
1/3-y,2/3+x-y,2/3+z
1/3-x+y,2/3-x,2/3+z
1/3+x-y,2/3-y,2/3-z
1/3-x,2/3-x+y,2/3-z
1/3+y,2/3+x,2/3-z
1/3-x,2/3-y,2/3-z
1/3+y,2/3-x+y,2/3-z
1/3+x-y,2/3+x,2/3-z
1/3-x+y,2/3+y,2/3+z
1/3+x,2/3+x-y,2/3+z
1/3-y,2/3-x,2/3+z
loop_
_atom_site_type_symbol
_atom_site_label
_atom_site_fract_x
_atom_site_fract_y
_atom_site_fract_z
Si Si1 0.666667 0.333334 0.178380
Si Si2 0.316498 0.049317 0.437414
Si Si3 0.442802 0.557199 0.030875
Si Si4 0.333334 0.666667 0.374427
Si Si5 0.127501 0.255002 0.887300
O O1 0.729780 0.459561 0.201116
O O2 0.666667 0.333334 0.109265
O O3 0.356989 0.178495 0.442122
O O4 0.424970 0.046665 0.410829
O O5 0.293801 0.000000 0.500000
O O6 0.203045 0.989031 0.401884
O O7 0.395812 0.604189 0.982858
O O8 0.500000 0.500000 0.000000
O O9 0.166667 0.333334 0.833334
#
# Coordination Sequence:
#
# PCOD8324232 Si02
#       5
#     6  36  18   6  18
#     4  12  24  45  66 103 134 166 219 288 336 403
#     4  11  22  42  66  95 128 172 230 274 326 394
#     4  12  28  43  66  96 139 182 216 281 340 401
#     4  12  30  42  61 100 141 172 223 267 351 400
#     4  10  24  38  69  95 128 167 218 285 323 385
#
# _framework density 21.619771
#
# number of rings (size 3 to 8) (size 9 to 14) (size 15 to 20)
#    0.000    0.857    6.429    0.000   12.000    0.000 
#    0.000    2.143    0.000    0.000    0.000    3.000 
#    0.000    0.000    0.000    0.000    0.000    0.000 
#
# Total GULP energy -346933.013016 kJ/mol
# GULP energy per Si atom -12390.464751 kJ/mol
# Density = 2.157056 g / cm^3
# Si number density = 21.619771 Si / 1000 Ang^3
#
#
#
# Elastic Constant Matrix: (Units=GPa)
#
#
# Indices 1 2 3 4 5 6 
#
# 1 123.8703 23.1289 3.0549 2.8542 0.0000 0.0000
# 2 23.1289 123.8706 3.0551 -2.8544 0.0000 0.0000
# 3 3.0549 3.0551 40.9640 0.0001 0.0000 0.0000
# 4 2.8542 -2.8544 0.0001 24.0280 0.0000 0.0000
# 5 0.0000 0.0000 0.0000 0.0000 24.0278 2.8542
# 6 0.0000 0.0000 0.0000 0.0000 2.8542 50.3709
#
#
#
# Elastic Compliance Matrix: (Units=1/GPa)
#
#
# Indices 1 2 3 4 5 6 
#
# 1 0.008409 -0.001585 -0.000509 -0.001187 0.000000 0.000000
# 2 -0.001585 0.008409 -0.000509 0.001187 0.000000 0.000000
# 3 -0.000509 -0.000509 0.024488 0.000000 0.000000 0.000000
# 4 -0.001187 0.001187 0.000000 0.041900 0.000000 0.000000
# 5 0.000000 0.000000 0.000000 0.000000 0.041900 -0.002374
# 6 0.000000 0.000000 0.000000 0.000000 -0.002374 0.019987
#
#
# Mechanical properties :
#
#
# Convention : Reuss Voigt Hill
#
# Bulk Modulus (GPa) = 27.70101 38.57585 33.13843
# Shear Modulus (GPa) = 30.80113 36.98307 33.89210
#
# Velocity S-wave (km/s) = 3.77858 4.14044 3.96364
# Velocity P-wave (km/s) = 5.64602 6.38273 6.02565
#
# Compressibility (1/GPa) = 0.03609977
#
# Stress axis : x y z
#
# Youngs Moduli (GPa) = 118.92318 118.92339 40.83701
#
# Poissons Ratio (x) = 0.18848 0.02078
# Poissons Ratio (y) = 0.18848 0.02078
# Poissons Ratio (z) = 0.06052 0.06052
#
# Static dielectric constant tensor:
#      x y z
#    x 3.853830 0.000000 0.000000 
#    y 0.000000 3.854030 0.000020 
#    z 0.000000 0.000020 3.708500 
# 
# 
# High freq. dielectric constant tensor:
#      x y z
#    x 1.880160 0.000000 0.000000 
#    y 0.000000 1.880160 0.000000 
#    z 0.000000 0.000000 1.808150 
# 
# From -- ./inp_files/7606.got.cif
#   From: 2010.03.12/outbox.cif.g09.slc.cpg/sg166_4_cif.got.tgz:7606.got - 2010.04.02 06:38:31.
