data_PCOD8324045
_publ_section_title
;
Structure prediction by ZEFSAII (Michael W. Deem and Ramdas Pophale) SiO2 
 PCOD8324045
Probable space group: R -3 M
;
_chemical_formula_sum "Si O2"
_cell_formula_units_Z 216
_cell_length_a 25.838226
_cell_length_b 25.838226
_cell_length_c 25.531480
_cell_angle_alpha 90.000000
_cell_angle_beta 90.000000
_cell_angle_gamma 120.000000
_cell_volume 14761.551547
_symmetry_space_group_name_H-M "R -3 M"
_symmetry_group_IT_number 166
_symmetry_cell_setting 'hexagonal'
loop_
_space_group_symop_operation_xyz
x,y,z
-y,x-y,z
-x+y,-x,z
x-y,-y,-z
-x,-x+y,-z
y,x,-z
-x,-y,-z
y,-x+y,-z
x-y,x,-z
-x+y,y,z
x,x-y,z
-y,-x,z
2/3+x,1/3+y,1/3+z
2/3-y,1/3+x-y,1/3+z
2/3-x+y,1/3-x,1/3+z
2/3+x-y,1/3-y,1/3-z
2/3-x,1/3-x+y,1/3-z
2/3+y,1/3+x,1/3-z
2/3-x,1/3-y,1/3-z
2/3+y,1/3-x+y,1/3-z
2/3+x-y,1/3+x,1/3-z
2/3-x+y,1/3+y,1/3+z
2/3+x,1/3+x-y,1/3+z
2/3-y,1/3-x,1/3+z
1/3+x,2/3+y,2/3+z
1/3-y,2/3+x-y,2/3+z
1/3-x+y,2/3-x,2/3+z
1/3+x-y,2/3-y,2/3-z
1/3-x,2/3-x+y,2/3-z
1/3+y,2/3+x,2/3-z
1/3-x,2/3-y,2/3-z
1/3+y,2/3-x+y,2/3-z
1/3+x-y,2/3+x,2/3-z
1/3-x+y,2/3+y,2/3+z
1/3+x,2/3+x-y,2/3+z
1/3-y,2/3-x,2/3+z
loop_
_atom_site_type_symbol
_atom_site_label
_atom_site_fract_x
_atom_site_fract_y
_atom_site_fract_z
Si Si1 0.105773 0.682964 0.577708
Si Si2 0.215703 0.549062 0.604654
Si Si3 0.935713 0.751557 0.484715
Si Si4 0.546432 0.572028 0.288528
Si Si5 0.618308 0.979379 0.377320
Si Si6 0.623934 0.023260 0.143734
O O1 0.155063 0.664164 0.586956
O O2 0.118023 0.739919 0.613177
O O3 0.109023 0.698870 0.516017
O O4 0.040092 0.629540 0.593986
O O5 0.273686 0.547371 0.582697
O O6 0.216111 0.608056 0.582649
O O7 0.218054 0.551387 0.666667
O O8 0.885703 0.771405 0.485619
O O9 0.945410 0.729915 0.427524
O O10 0.915512 0.694989 0.524055
O O11 0.000000 0.808152 0.500000
O O12 0.481130 0.518871 0.292146
O O13 0.557113 0.605743 0.344201
O O14 0.616849 0.932014 0.419414
O O15 0.666667 0.990329 0.333334
O O16 0.659280 0.992613 0.166667
#
# Coordination Sequence:
#
# PCOD8324045 Si02
#       6
#    36  36  36  36  36  36
#     4   9  16  25  39  57  78 105 135 167 198 237
#     4  10  19  29  40  54  74 100 133 176 220 253
#     4   9  16  27  44  64  85 108 134 163 195 235
#     4   9  16  25  40  61  80 103 135 166 198 236
#     4   9  15  24  40  59  83 111 132 157 194 237
#     4   8  15  27  40  59  86 110 132 157 191 234
#
# _framework density 14.632607999999999
#
# number of rings (size 3 to 8) (size 9 to 14) (size 15 to 20)
#    0.000    3.000    0.000    5.167    0.000    3.333 
#    0.000    0.833    0.000    7.667    0.000    0.000 
#    0.000    0.000    0.000    0.000    0.000    0.000 
#
# Total GULP energy -892114.439720 kJ/mol
# GULP energy per Si atom -12390.478329 kJ/mol
# Density = 1.459930 g / cm^3
# Si number density = 14.632608 Si / 1000 Ang^3
#
#
#
# Elastic Constant Matrix: (Units=GPa)
#
#
# Indices 1 2 3 4 5 6 
#
# 1 50.8159 34.2746 26.2991 0.8133 0.0003 0.0000
# 2 34.2746 50.8159 26.2991 -0.8133 -0.0003 0.0000
# 3 26.2991 26.2991 79.1991 0.0000 0.0000 0.0000
# 4 0.8133 -0.8133 0.0000 18.1606 0.0000 -0.0003
# 5 0.0003 -0.0003 0.0000 0.0000 18.1606 0.8133
# 6 0.0000 0.0000 0.0000 -0.0003 0.8133 8.2707
#
#
#
# Elastic Compliance Matrix: (Units=1/GPa)
#
#
# Indices 1 2 3 4 5 6 
#
# 1 0.037755 -0.022967 -0.004910 -0.002719 -0.000001 0.000000
# 2 -0.022967 0.037755 -0.004910 0.002719 0.000001 0.000000
# 3 -0.004910 -0.004910 0.015888 0.000000 0.000000 0.000000
# 4 -0.002719 0.002719 0.000000 0.055308 0.000000 0.000002
# 5 -0.000001 0.000001 0.000000 0.000000 0.055308 -0.005439
# 6 0.000000 0.000000 0.000000 0.000002 -0.005439 0.121444
#
#
# Mechanical properties :
#
#
# Convention : Reuss Voigt Hill
#
# Bulk Modulus (GPa) = 38.72816 39.39740 39.06278
# Shear Modulus (GPa) = 12.57419 15.18226 13.87823
#
# Velocity S-wave (km/s) = 2.93461 3.22462 3.08302
# Velocity P-wave (km/s) = 6.16499 6.39117 6.27910
#
# Compressibility (1/GPa) = 0.02582101
#
# Stress axis : x y z
#
# Youngs Moduli (GPa) = 26.48670 26.48670 62.94242
#
# Poissons Ratio (x) = 0.60833 0.30907
# Poissons Ratio (y) = 0.60833 0.30907
# Poissons Ratio (z) = 0.13006 0.13006
#
# Static dielectric constant tensor:
#      x y z
#    x 2.793560 0.000000 0.000000 
#    y 0.000000 2.793560 0.000000 
#    z 0.000000 0.000000 5.362180 
# 
# 
# High freq. dielectric constant tensor:
#      x y z
#    x 1.535900 0.000000 0.000000 
#    y 0.000000 1.535900 0.000000 
#    z 0.000000 0.000000 1.548220 
# 
# From -- ./inp_files/8656.got.cif
#   From: 2010.03.12/outbox.cif.g09.slc.cpg/sg166_5_cif.got.tgz:8656.got - 2010.04.02 06:38:31.
