data_PCOD8324217
_publ_section_title
;
Structure prediction by ZEFSAII (Michael W. Deem and Ramdas Pophale) SiO2 
 PCOD8324217
Probable space group: R -3 M
;
_chemical_formula_sum "Si O2"
_cell_formula_units_Z 144
_cell_length_a 28.501363
_cell_length_b 28.501363
_cell_length_c 9.365254
_cell_angle_alpha 90.000000
_cell_angle_beta 90.000000
_cell_angle_gamma 120.000000
_cell_volume 6588.422645
_symmetry_space_group_name_H-M "R -3 M"
_symmetry_group_IT_number 166
_symmetry_cell_setting 'hexagonal'
loop_
_space_group_symop_operation_xyz
x,y,z
-y,x-y,z
-x+y,-x,z
x-y,-y,-z
-x,-x+y,-z
y,x,-z
-x,-y,-z
y,-x+y,-z
x-y,x,-z
-x+y,y,z
x,x-y,z
-y,-x,z
2/3+x,1/3+y,1/3+z
2/3-y,1/3+x-y,1/3+z
2/3-x+y,1/3-x,1/3+z
2/3+x-y,1/3-y,1/3-z
2/3-x,1/3-x+y,1/3-z
2/3+y,1/3+x,1/3-z
2/3-x,1/3-y,1/3-z
2/3+y,1/3-x+y,1/3-z
2/3+x-y,1/3+x,1/3-z
2/3-x+y,1/3+y,1/3+z
2/3+x,1/3+x-y,1/3+z
2/3-y,1/3-x,1/3+z
1/3+x,2/3+y,2/3+z
1/3-y,2/3+x-y,2/3+z
1/3-x+y,2/3-x,2/3+z
1/3+x-y,2/3-y,2/3-z
1/3-x,2/3-x+y,2/3-z
1/3+y,2/3+x,2/3-z
1/3-x,2/3-y,2/3-z
1/3+y,2/3-x+y,2/3-z
1/3+x-y,2/3+x,2/3-z
1/3-x+y,2/3+y,2/3+z
1/3+x,2/3+x-y,2/3+z
1/3-y,2/3-x,2/3+z
loop_
_atom_site_type_symbol
_atom_site_label
_atom_site_fract_x
_atom_site_fract_y
_atom_site_fract_z
Si Si1 0.529258 0.580497 0.082129
Si Si2 0.996938 0.825511 0.746367
Si Si3 0.197692 0.284685 0.736651
Si Si4 0.439504 0.772837 0.166667
Si Si5 0.440681 0.666667 0.666667
O O1 0.478659 0.521342 0.101053
O O2 0.551303 0.602695 0.242127
O O3 0.577263 0.577263 0.000000
O O4 0.510568 0.615479 0.989997
O O5 0.044120 0.815898 0.809456
O O6 0.976636 0.848082 0.874457
O O7 0.021973 0.872139 0.626613
O O8 0.145706 0.291411 0.731773
O O9 0.243435 0.333334 0.833334
O O10 0.382577 0.765154 0.111859
O O11 0.432789 0.716395 0.719354
#
# Coordination Sequence:
#
# PCOD8324217 Si02
#       5
#    36  36  36  18  18
#     4  10  21  39  64  93 126 165 213 271 336 408
#     4  12  24  42  67  97 134 180 226 282 346 416
#     4  10  21  39  64  94 127 165 214 273 334 406
#     4  12  23  40  66  98 136 180 232 288 343 406
#     4  12  27  44  66  98 142 192 244 296 345 404
#
# _framework density 21.856521999999998
#
# number of rings (size 3 to 8) (size 9 to 14) (size 15 to 20)
#    0.000    1.000    2.500    4.750    3.500    0.000 
#    0.000    5.000    0.000    0.000    0.000    0.000 
#    0.000    0.000    0.000    0.000    0.000    0.000 
#
# Total GULP energy -595163.347912 kJ/mol
# GULP energy per Si atom -12399.236415 kJ/mol
# Density = 2.180678 g / cm^3
# Si number density = 21.856522 Si / 1000 Ang^3
#
#
#
# Elastic Constant Matrix: (Units=GPa)
#
#
# Indices 1 2 3 4 5 6 
#
# 1 88.1555 37.8227 31.1858 -0.8026 -0.2241 -0.0242
# 2 37.8227 88.4070 31.5917 0.8257 -0.0239 -0.0185
# 3 31.1858 31.5917 100.3847 0.0520 -0.3507 -0.0450
# 4 -0.8026 0.8257 0.0520 34.1706 0.0422 -0.0184
# 5 -0.2241 -0.0239 -0.3507 0.0422 34.0271 -0.8551
# 6 -0.0242 -0.0185 -0.0450 -0.0184 -0.8551 25.2647
#
#
#
# Elastic Compliance Matrix: (Units=1/GPa)
#
#
# Indices 1 2 3 4 5 6 
#
# 1 0.014613 -0.005221 -0.002897 0.000474 0.000062 0.000007
# 2 -0.005221 0.014613 -0.002977 -0.000471 -0.000054 -0.000002
# 3 -0.002897 -0.002977 0.011799 -0.000014 0.000101 0.000019
# 4 0.000474 -0.000471 -0.000014 0.029288 -0.000033 0.000020
# 5 0.000062 -0.000054 0.000101 -0.000033 0.029415 0.000996
# 6 0.000007 -0.000002 0.000019 0.000020 0.000996 0.039615
#
#
# Mechanical properties :
#
#
# Convention : Reuss Voigt Hill
#
# Bulk Modulus (GPa) = 53.09038 53.12750 53.10894
# Shear Modulus (GPa) = 29.79573 30.44894 30.12234
#
# Velocity S-wave (km/s) = 3.69622 3.73651 3.71642
# Velocity P-wave (km/s) = 6.52374 6.55557 6.53967
#
# Compressibility (1/GPa) = 0.01883580
#
# Stress axis : x y z
#
# Youngs Moduli (GPa) = 68.43303 68.43150 84.75491
#
# Poissons Ratio (x) = 0.35728 0.24550
# Poissons Ratio (y) = 0.35729 0.25230
# Poissons Ratio (z) = 0.19822 0.20371
#
# Static dielectric constant tensor:
#      x y z
#    x 3.847220 0.000050 -0.000130 
#    y 0.000050 3.847510 0.000080 
#    z -0.000130 0.000080 4.241110 
# 
# 
# High freq. dielectric constant tensor:
#      x y z
#    x 1.852670 0.000000 -0.000020 
#    y 0.000000 1.852680 0.000000 
#    z -0.000020 0.000000 1.861180 
# 
# From -- ./inp_files/1851.got.cif
#   From: 2010.03.12/outbox.cif.g09.slc.cpg/sg166_1_cif.got.tgz:1851.got - 2010.04.02 06:38:31.
