data_PCOD8324485
_publ_section_title
;
Structure prediction by ZEFSAII (Michael W. Deem and Ramdas Pophale) SiO2 
 PCOD8324485
Probable space group: P 61
;
_chemical_formula_sum "Si O2"
_cell_formula_units_Z 36
_cell_length_a 8.872596
_cell_length_b 8.872596
_cell_length_c 27.888107
_cell_angle_alpha 90.000000
_cell_angle_beta 90.000000
_cell_angle_gamma 120.000000
_cell_volume 1901.301898
_symmetry_space_group_name_H-M "P 61"
_symmetry_group_IT_number 169
_symmetry_cell_setting 'hexagonal'
loop_
_space_group_symop_operation_xyz
x,y,z
x-y,x,1/6+z
-y,x-y,1/3+z
-x,-y,1/2+z
-x+y,-x,2/3+z
y,-x+y,5/6+z
loop_
_atom_site_type_symbol
_atom_site_label
_atom_site_fract_x
_atom_site_fract_y
_atom_site_fract_z
Si Si1 0.712864 0.024997 0.193150
Si Si2 0.386399 0.979512 0.966179
Si Si3 0.691208 0.332735 0.870563
Si Si4 0.800844 0.019368 0.297337
Si Si5 0.620211 0.276036 0.645664
Si Si6 0.481119 0.959225 0.859512
O O1 0.706579 0.200316 0.202476
O O2 0.750074 0.958709 0.242646
O O3 0.868683 0.051327 0.157727
O O4 0.534042 0.888337 0.170338
O O5 0.399812 0.923506 0.912549
O O6 0.228624 0.021989 0.967794
O O7 0.562810 0.147913 0.983811
O O8 0.339524 0.816118 0.999923
O O9 0.767374 0.398836 0.923462
O O10 0.667811 0.140772 0.859243
O O11 0.643931 0.032234 0.320127
O O12 0.790657 0.301265 0.674743
#
# Coordination Sequence:
#
# PCOD8324485 Si02
#       6
#     6   6   6   6   6   6
#     4  11  22  37  64  86 119 160 203 251 300 378
#     4  10  20  37  62  83 120 157 194 252 306 356
#     4  10  21  37  58  91 116 155 206 242 302 369
#     4  10  19  39  58  85 119 157 202 242 301 362
#     4  10  22  37  58  90 118 156 202 247 306 373
#     4   9  18  37  58  83 120 151 197 246 293 360
#
# _framework density 18.934394000000001
#
# number of rings (size 3 to 8) (size 9 to 14) (size 15 to 20)
#    0.000    2.000    6.667    0.000    7.000    1.333 
#    0.000    1.667    0.000    0.000    0.000    0.000 
#    0.000    0.000    0.000    0.000    0.000    0.000 
#
# Total GULP energy -446181.353201 kJ/mol
# GULP energy per Si atom -12393.926478 kJ/mol
# Density = 1.889130 g / cm^3
# Si number density = 18.934394 Si / 1000 Ang^3
#
#
#
# Elastic Constant Matrix: (Units=GPa)
#
#
# Indices 1 2 3 4 5 6 
#
# 1 73.0468 20.5320 51.6745 0.0000 0.0000 0.0000
# 2 20.5320 73.0468 51.6745 0.0000 0.0000 0.0000
# 3 51.6745 51.6745 159.0667 0.0000 0.0000 0.0000
# 4 0.0000 0.0000 0.0000 25.6127 0.0000 0.0000
# 5 0.0000 0.0000 0.0000 0.0000 25.6127 0.0000
# 6 0.0000 0.0000 0.0000 0.0000 0.0000 26.2574
#
#
#
# Elastic Compliance Matrix: (Units=1/GPa)
#
#
# Indices 1 2 3 4 5 6 
#
# 1 0.017854 -0.001188 -0.005414 0.000000 0.000000 0.000000
# 2 -0.001188 0.017854 -0.005414 0.000000 0.000000 0.000000
# 3 -0.005414 -0.005414 0.009804 0.000000 0.000000 0.000000
# 4 0.000000 0.000000 0.000000 0.039043 0.000000 0.000000
# 5 0.000000 0.000000 0.000000 0.000000 0.039043 0.000000
# 6 0.000000 0.000000 0.000000 0.000000 0.000000 0.038085
#
#
# Mechanical properties :
#
#
# Convention : Reuss Voigt Hill
#
# Bulk Modulus (GPa) = 46.55659 61.43581 53.99620
# Shear Modulus (GPa) = 25.92352 27.58182 26.75267
#
# Velocity S-wave (km/s) = 3.70418 3.82082 3.76295
# Velocity P-wave (km/s) = 6.55258 7.20986 6.88906
#
# Compressibility (1/GPa) = 0.02147924
#
# Stress axis : x y z
#
# Youngs Moduli (GPa) = 56.01044 56.01044 101.99699
#
# Poissons Ratio (x) = 0.06657 0.55220
# Poissons Ratio (y) = 0.06657 0.55220
# Poissons Ratio (z) = 0.30324 0.30324
#
# Static dielectric constant tensor:
#      x y z
#    x 3.534530 0.000000 0.000000 
#    y 0.000000 3.534530 0.000000 
#    z 0.000000 0.000000 3.751860 
# 
# 
# High freq. dielectric constant tensor:
#      x y z
#    x 1.715380 0.000000 0.000000 
#    y 0.000000 1.715380 0.000000 
#    z 0.000000 0.000000 1.757130 
# 
# From -- ./inp_files/1728.got.cif
#   From: 2010.03.12/outbox.cif.g09.slc.cpg/sg169_cif.got.tgz:1728.got - 2010.04.02 06:46:06.
