data_PCOD8324051
_publ_section_title
;
Structure prediction by ZEFSAII (Michael W. Deem and Ramdas Pophale) SiO2 
 PCOD8324051
Probable space group: R -3 M
;
_chemical_formula_sum "Si O2"
_cell_formula_units_Z 144
_cell_length_a 23.098140
_cell_length_b 23.098140
_cell_length_c 16.931751
_cell_angle_alpha 90.000000
_cell_angle_beta 90.000000
_cell_angle_gamma 120.000000
_cell_volume 7823.237654
_symmetry_space_group_name_H-M "R -3 M"
_symmetry_group_IT_number 166
_symmetry_cell_setting 'hexagonal'
loop_
_space_group_symop_operation_xyz
x,y,z
-y,x-y,z
-x+y,-x,z
x-y,-y,-z
-x,-x+y,-z
y,x,-z
-x,-y,-z
y,-x+y,-z
x-y,x,-z
-x+y,y,z
x,x-y,z
-y,-x,z
2/3+x,1/3+y,1/3+z
2/3-y,1/3+x-y,1/3+z
2/3-x+y,1/3-x,1/3+z
2/3+x-y,1/3-y,1/3-z
2/3-x,1/3-x+y,1/3-z
2/3+y,1/3+x,1/3-z
2/3-x,1/3-y,1/3-z
2/3+y,1/3-x+y,1/3-z
2/3+x-y,1/3+x,1/3-z
2/3-x+y,1/3+y,1/3+z
2/3+x,1/3+x-y,1/3+z
2/3-y,1/3-x,1/3+z
1/3+x,2/3+y,2/3+z
1/3-y,2/3+x-y,2/3+z
1/3-x+y,2/3-x,2/3+z
1/3+x-y,2/3-y,2/3-z
1/3-x,2/3-x+y,2/3-z
1/3+y,2/3+x,2/3-z
1/3-x,2/3-y,2/3-z
1/3+y,2/3-x+y,2/3-z
1/3+x-y,2/3+x,2/3-z
1/3-x+y,2/3+y,2/3+z
1/3+x,2/3+x-y,2/3+z
1/3-y,2/3-x,2/3+z
loop_
_atom_site_type_symbol
_atom_site_label
_atom_site_fract_x
_atom_site_fract_y
_atom_site_fract_z
Si Si1 0.027443 0.581049 0.386317
Si Si2 0.539888 0.597056 0.204881
Si Si3 0.328400 0.417567 0.525430
Si Si4 0.666314 0.209599 0.241069
O O1 0.009182 0.504591 0.398488
O O2 0.054544 0.605842 0.298745
O O3 0.084148 0.630120 0.446775
O O4 0.963007 0.587896 0.407338
O O5 0.465559 0.534442 0.184924
O O6 0.550433 0.666667 0.166667
O O7 0.597704 0.584459 0.169956
O O8 0.302929 0.465051 0.558343
O O9 0.614816 0.229631 0.202579
O O10 0.740782 0.259219 0.206626
O O11 0.666667 0.219322 0.333334
#
# Coordination Sequence:
#
# PCOD8324051 Si02
#       4
#    36  36  36  36
#     4  10  20  34  55  82 116 150 179 225 281 339
#     4  11  23  39  58  82 114 148 185 232 287 340
#     4  11  19  32  57  80 111 139 187 226 281 336
#     4  10  19  30  45  70 106 147 186 223 265 322
#
# _framework density 18.406701999999999
#
# number of rings (size 3 to 8) (size 9 to 14) (size 15 to 20)
#    0.000    1.500    2.500    6.250    0.000    5.000 
#    0.000    3.750    0.000    0.250    0.000    0.000 
#    0.000    0.000    0.000    0.000    0.000    0.000 
#
# Total GULP energy -594752.998999 kJ/mol
# GULP energy per Si atom -12390.687479 kJ/mol
# Density = 1.836481 g / cm^3
# Si number density = 18.406702 Si / 1000 Ang^3
#
#
#
# Elastic Constant Matrix: (Units=GPa)
#
#
# Indices 1 2 3 4 5 6 
#
# 1 127.7872 30.7685 29.0147 17.0607 0.0003 0.0000
# 2 30.7685 127.7872 29.0147 -17.0607 -0.0003 0.0000
# 3 29.0147 29.0147 76.3188 0.0000 0.0000 0.0000
# 4 17.0607 -17.0607 0.0000 34.6615 0.0000 -0.0003
# 5 0.0003 -0.0003 0.0000 0.0000 34.6615 17.0607
# 6 0.0000 0.0000 0.0000 -0.0003 17.0607 48.5093
#
#
#
# Elastic Compliance Matrix: (Units=1/GPa)
#
#
# Indices 1 2 3 4 5 6 
#
# 1 0.009896 -0.002569 -0.002785 -0.006135 0.000000 0.000000
# 2 -0.002569 0.009896 -0.002785 0.006135 0.000000 0.000000
# 3 -0.002785 -0.002785 0.015221 0.000000 0.000000 0.000000
# 4 -0.006135 0.006135 0.000000 0.034890 0.000000 0.000000
# 5 0.000000 0.000000 0.000000 0.000000 0.034890 -0.012271
# 6 0.000000 0.000000 0.000000 0.000000 -0.012271 0.024930
#
#
# Mechanical properties :
#
#
# Convention : Reuss Voigt Hill
#
# Bulk Modulus (GPa) = 53.38409 56.60989 54.99699
# Shear Modulus (GPa) = 32.84139 39.77283 36.30711
#
# Velocity S-wave (km/s) = 4.22857 4.65346 4.44610
# Velocity P-wave (km/s) = 7.27369 7.72624 7.50338
#
# Compressibility (1/GPa) = 0.01873217
#
# Stress axis : x y z
#
# Youngs Moduli (GPa) = 101.05382 101.05382 65.69981
#
# Poissons Ratio (x) = 0.25965 0.18299
# Poissons Ratio (y) = 0.25965 0.18299
# Poissons Ratio (z) = 0.28147 0.28147
#
# Static dielectric constant tensor:
#      x y z
#    x 3.528610 0.000000 0.000000 
#    y 0.000000 3.528610 0.000000 
#    z 0.000000 0.000000 3.248800 
# 
# 
# High freq. dielectric constant tensor:
#      x y z
#    x 1.712020 0.000000 0.000000 
#    y 0.000000 1.712020 0.000000 
#    z 0.000000 0.000000 1.687940 
# 
# From -- ./inp_files/5244.got.cif
#   From: 2010.03.12/outbox.cif.g09.slc.cpg/sg166_3_cif.got.tgz:5244.got - 2010.04.02 06:38:31.
