data_PCOD8324694
_publ_section_title
;
Structure prediction by ZEFSAII (Michael W. Deem and Ramdas Pophale) SiO2 
 PCOD8324694
Probable space group: P 65
;
_chemical_formula_sum "Si O2"
_cell_formula_units_Z 42
_cell_length_a 14.988753
_cell_length_b 14.988753
_cell_length_c 12.208567
_cell_angle_alpha 90.000000
_cell_angle_beta 90.000000
_cell_angle_gamma 120.000000
_cell_volume 2375.342988
_symmetry_space_group_name_H-M "P 65"
_symmetry_group_IT_number 170
_symmetry_cell_setting 'hexagonal'
loop_
_space_group_symop_operation_xyz
x,y,z
x-y,x,5/6+z
-y,x-y,2/3+z
-x,-y,1/2+z
-x+y,-x,1/3+z
y,-x+y,1/6+z
loop_
_atom_site_type_symbol
_atom_site_label
_atom_site_fract_x
_atom_site_fract_y
_atom_site_fract_z
Si Si1 0.649841 0.003768 0.644130
Si Si2 0.062933 0.605673 0.972230
Si Si3 0.954018 0.389612 0.044751
Si Si4 0.276813 0.731310 0.551907
Si Si5 0.599585 0.830094 0.491399
Si Si6 0.673829 0.254269 0.799652
Si Si7 0.463376 0.421096 0.431436
O O1 0.641143 0.985915 0.774851
O O2 0.668101 0.918662 0.580644
O O3 0.543575 0.994295 0.597441
O O4 0.754528 0.112322 0.623797
O O5 0.144429 0.568572 0.945115
O O6 0.020803 0.623694 0.857455
O O7 0.111604 0.705175 0.048982
O O8 0.965542 0.502038 0.021582
O O9 0.839862 0.307774 0.082150
O O10 0.024335 0.404219 0.149777
O O11 0.304257 0.648118 0.603489
O O12 0.286286 0.739959 0.421553
O O13 0.351961 0.836028 0.617455
O O14 0.487448 0.762209 0.544481
#
# Coordination Sequence:
#
# PCOD8324694 Si02
#       7
#     6   6   6   6   6   6   6
#     4  11  22  38  62  81 117 155 206 254 302 358
#     4  11  23  36  54  81 125 156 202 248 293 362
#     4  11  21  35  56  80 116 162 199 248 292 362
#     4  12  23  34  57  82 118 165 203 246 303 360
#     4  12  21  40  58  84 114 158 200 254 305 357
#     4  12  19  34  53  82 114 156 202 245 290 354
#     4  11  21  39  48  84 122 158 194 247 295 367
#
# _framework density 17.681657000000001
#
# number of rings (size 3 to 8) (size 9 to 14) (size 15 to 20)
#    0.000    0.571   10.000    0.857    4.000    0.000 
#    2.571    0.000    0.000    0.000    0.000    2.000 
#    0.000    0.000    0.000    0.000    0.000    0.000 
#
# Total GULP energy -520488.629007 kJ/mol
# GULP energy per Si atom -12392.586405 kJ/mol
# Density = 1.764141 g / cm^3
# Si number density = 17.681657 Si / 1000 Ang^3
#
#
#
# Elastic Constant Matrix: (Units=GPa)
#
#
# Indices 1 2 3 4 5 6 
#
# 1 83.8946 34.3380 25.9610 0.0000 0.0000 0.0000
# 2 34.3380 83.8946 25.9610 0.0000 0.0000 0.0000
# 3 25.9610 25.9610 90.2053 0.0000 0.0000 0.0000
# 4 0.0000 0.0000 0.0000 28.0853 0.0000 0.0000
# 5 0.0000 0.0000 0.0000 0.0000 28.0853 0.0000
# 6 0.0000 0.0000 0.0000 0.0000 0.0000 24.7783
#
#
#
# Elastic Compliance Matrix: (Units=1/GPa)
#
#
# Indices 1 2 3 4 5 6 
#
# 1 0.014930 -0.005249 -0.002786 0.000000 0.000000 0.000000
# 2 -0.005249 0.014930 -0.002786 0.000000 0.000000 0.000000
# 3 -0.002786 -0.002786 0.012690 0.000000 0.000000 0.000000
# 4 0.000000 0.000000 0.000000 0.035606 0.000000 0.000000
# 5 0.000000 0.000000 0.000000 0.000000 0.035606 0.000000
# 6 0.000000 0.000000 0.000000 0.000000 0.000000 0.040358
#
#
# Mechanical properties :
#
#
# Convention : Reuss Voigt Hill
#
# Bulk Modulus (GPa) = 47.83008 47.83495 47.83251
# Shear Modulus (GPa) = 27.36257 27.63877 27.50067
#
# Velocity S-wave (km/s) = 3.93811 3.95794 3.94804
# Velocity P-wave (km/s) = 6.91286 6.92814 6.92051
#
# Compressibility (1/GPa) = 0.02090735
#
# Stress axis : x y z
#
# Youngs Moduli (GPa) = 66.97817 66.97817 78.80451
#
# Poissons Ratio (x) = 0.35155 0.21958
# Poissons Ratio (y) = 0.35155 0.21958
# Poissons Ratio (z) = 0.18662 0.18662
#
# Static dielectric constant tensor:
#      x y z
#    x 3.156130 0.000000 0.000000 
#    y 0.000000 3.156130 0.000000 
#    z 0.000000 0.000000 3.543870 
# 
# 
# High freq. dielectric constant tensor:
#      x y z
#    x 1.653340 0.000000 0.000000 
#    y 0.000000 1.653340 0.000000 
#    z 0.000000 0.000000 1.703190 
# 
# From -- ./inp_files/1035.got.cif
#   From: 2010.03.12/outbox.cif.g09.slc.cpg/sg170_cif.got.tgz:1035.got - 2010.04.02 06:47:37.
