data_PCOD8324852
_publ_section_title
;
Structure prediction by ZEFSAII (Michael W. Deem and Ramdas Pophale) SiO2 
 PCOD8324852
Probable space group: P 63
;
_chemical_formula_sum "Si O2"
_cell_formula_units_Z 36
_cell_length_a 8.532222
_cell_length_b 8.532222
_cell_length_c 29.070845
_cell_angle_alpha 90.000000
_cell_angle_beta 90.000000
_cell_angle_gamma 120.000000
_cell_volume 1832.789470
_symmetry_space_group_name_H-M "P 63"
_symmetry_group_IT_number 173
_symmetry_cell_setting 'hexagonal'
loop_
_space_group_symop_operation_xyz
x,y,z
x-y,x,1/2+z
-y,x-y,z
-x,-y,1/2+z
-x+y,-x,z
y,-x+y,1/2+z
loop_
_atom_site_type_symbol
_atom_site_label
_atom_site_fract_x
_atom_site_fract_y
_atom_site_fract_z
Si Si1 0.352685 0.476512 0.669150
Si Si2 0.664638 0.131117 0.484470
Si Si3 0.665815 0.131644 0.750999
Si Si4 0.995973 0.664941 0.386241
Si Si5 0.476563 0.123917 0.066389
Si Si6 0.663532 0.668178 0.349012
O O1 0.518629 0.684225 0.675662
O O2 0.364416 0.340433 0.705104
O O3 0.360545 0.407926 0.617755
O O4 0.843611 0.330819 0.483418
O O5 0.668153 0.016753 0.441277
O O6 0.659064 0.023501 0.530291
O O7 0.844167 0.331878 0.752079
O O8 0.673327 0.017699 0.793897
O O9 0.801213 0.600922 0.363555
O O10 0.136099 0.868940 0.371594
O O11 0.068007 0.535858 0.367688
O O12 0.684211 0.165559 0.059879
#
# Coordination Sequence:
#
# PCOD8324852 Si02
#       6
#     6   6   6   6   6   6
#     4   8  18  35  57  85 113 152 200 245 304 364
#     4  10  21  36  55  90 117 154 207 247 311 364
#     4  10  21  36  55  90 117 154 207 247 311 364
#     4  12  24  42  60  88 125 165 211 265 316 380
#     4   8  18  35  57  85 113 152 200 245 304 364
#     4  12  24  42  60  88 125 165 211 265 316 380
#
# _framework density 19.642188999999998
#
# number of rings (size 3 to 8) (size 9 to 14) (size 15 to 20)
#    1.333    0.667    3.333    1.000    4.667    1.333 
#    0.000    0.000    0.000    1.333    0.000    0.000 
#    0.000    0.000    0.000    0.000    0.000    0.000 
#
# Total GULP energy -446142.412772 kJ/mol
# GULP energy per Si atom -12392.844799 kJ/mol
# Density = 1.959748 g / cm^3
# Si number density = 19.642189 Si / 1000 Ang^3
#
#
#
# Elastic Constant Matrix: (Units=GPa)
#
#
# Indices 1 2 3 4 5 6 
#
# 1 53.1117 9.6259 39.0868 0.0000 0.0000 0.0000
# 2 9.6259 53.1117 39.0868 0.0000 0.0000 0.0000
# 3 39.0868 39.0868 184.0066 0.0000 0.0000 0.0000
# 4 0.0000 0.0000 0.0000 31.7170 0.0000 0.0000
# 5 0.0000 0.0000 0.0000 0.0000 31.7170 0.0000
# 6 0.0000 0.0000 0.0000 0.0000 0.0000 21.7429
#
#
#
# Elastic Compliance Matrix: (Units=1/GPa)
#
#
# Indices 1 2 3 4 5 6 
#
# 1 0.022336 -0.000660 -0.004605 0.000000 0.000000 0.000000
# 2 -0.000660 0.022336 -0.004605 0.000000 0.000000 0.000000
# 3 -0.004605 -0.004605 0.007391 0.000000 0.000000 0.000000
# 4 0.000000 0.000000 0.000000 0.031529 0.000000 0.000000
# 5 0.000000 0.000000 0.000000 0.000000 0.031529 0.000000
# 6 0.000000 0.000000 0.000000 0.000000 0.000000 0.045992
#
#
# Mechanical properties :
#
#
# Convention : Reuss Voigt Hill
#
# Bulk Modulus (GPa) = 30.93463 51.75878 41.34670
# Shear Modulus (GPa) = 26.09244 30.53075 28.31160
#
# Velocity S-wave (km/s) = 3.64866 3.94680 3.80065
# Velocity P-wave (km/s) = 5.79082 6.86860 6.35260
#
# Compressibility (1/GPa) = 0.03232623
#
# Stress axis : x y z
#
# Youngs Moduli (GPa) = 44.76982 44.76982 135.30288
#
# Poissons Ratio (x) = 0.02953 0.62302
# Poissons Ratio (y) = 0.02953 0.62302
# Poissons Ratio (z) = 0.20615 0.20615
#
# Static dielectric constant tensor:
#      x y z
#    x 3.199740 0.000000 0.000000 
#    y 0.000000 3.199740 0.000000 
#    z 0.000000 0.000000 3.477260 
# 
# 
# High freq. dielectric constant tensor:
#      x y z
#    x 1.737930 0.000000 0.000000 
#    y 0.000000 1.737930 0.000000 
#    z 0.000000 0.000000 1.776780 
# 
# From -- ./inp_files/1482.got.cif
#   From: 2010.03.12/outbox.cif.g09.slc.cpg/sg173_cif.got.tgz:1482.got - 2010.04.02 06:54:12.
