data_PCOD8324060
_publ_section_title
;
Structure prediction by ZEFSAII (Michael W. Deem and Ramdas Pophale) SiO2 
 PCOD8324060
Probable space group: R -3 M
;
_chemical_formula_sum "Si O2"
_cell_formula_units_Z 216
_cell_length_a 26.041855
_cell_length_b 26.041855
_cell_length_c 21.738663
_cell_angle_alpha 90.000000
_cell_angle_beta 90.000000
_cell_angle_gamma 120.000000
_cell_volume 12767.541983
_symmetry_space_group_name_H-M "R -3 M"
_symmetry_group_IT_number 166
_symmetry_cell_setting 'hexagonal'
loop_
_space_group_symop_operation_xyz
x,y,z
-y,x-y,z
-x+y,-x,z
x-y,-y,-z
-x,-x+y,-z
y,x,-z
-x,-y,-z
y,-x+y,-z
x-y,x,-z
-x+y,y,z
x,x-y,z
-y,-x,z
2/3+x,1/3+y,1/3+z
2/3-y,1/3+x-y,1/3+z
2/3-x+y,1/3-x,1/3+z
2/3+x-y,1/3-y,1/3-z
2/3-x,1/3-x+y,1/3-z
2/3+y,1/3+x,1/3-z
2/3-x,1/3-y,1/3-z
2/3+y,1/3-x+y,1/3-z
2/3+x-y,1/3+x,1/3-z
2/3-x+y,1/3+y,1/3+z
2/3+x,1/3+x-y,1/3+z
2/3-y,1/3-x,1/3+z
1/3+x,2/3+y,2/3+z
1/3-y,2/3+x-y,2/3+z
1/3-x+y,2/3-x,2/3+z
1/3+x-y,2/3-y,2/3-z
1/3-x,2/3-x+y,2/3-z
1/3+y,2/3+x,2/3-z
1/3-x,2/3-y,2/3-z
1/3+y,2/3-x+y,2/3-z
1/3+x-y,2/3+x,2/3-z
1/3-x+y,2/3+y,2/3+z
1/3+x,2/3+x-y,2/3+z
1/3-y,2/3-x,2/3+z
loop_
_atom_site_type_symbol
_atom_site_label
_atom_site_fract_x
_atom_site_fract_y
_atom_site_fract_z
Si Si1 0.796621 0.958485 0.440635
Si Si2 0.030193 0.753751 0.910179
Si Si3 0.589586 0.681239 0.890043
Si Si4 0.773729 0.108820 0.597453
Si Si5 0.773567 0.945518 0.658108
Si Si6 0.303771 0.209482 0.969556
O O1 0.815292 0.907646 0.440189
O O2 0.725718 0.928446 0.440096
O O3 0.823904 0.000000 0.500000
O O4 0.820680 0.998158 0.379431
O O5 0.043165 0.699790 0.907712
O O6 0.040326 0.785793 0.844037
O O7 0.961624 0.728004 0.925593
O O8 0.074829 0.798204 0.961483
O O9 0.556318 0.610300 0.890651
O O10 0.558496 0.704654 0.937036
O O11 0.823552 0.176449 0.604793
O O12 0.750053 0.083387 0.666667
O O13 0.792511 0.896256 0.652991
O O14 0.707462 0.921488 0.632265
O O15 0.289385 0.144693 0.947428
#
# Coordination Sequence:
#
# PCOD8324060 Si02
#       6
#    36  36  36  36  36  36
#     4  11  23  37  53  74 102 134 170 213 258 304
#     4   9  19  30  46  71  95 135 165 190 239 289
#     4  10  19  31  48  69 101 130 163 203 244 295
#     4  10  20  32  48  72 100 128 159 201 252 300
#     4  10  20  34  52  72  94 127 170 212 251 294
#     4   9  18  32  48  69 100 130 164 200 233 289
#
# _framework density 16.917901000000001
#
# number of rings (size 3 to 8) (size 9 to 14) (size 15 to 20)
#    0.000    2.167    1.667    1.500    7.000    1.333 
#    0.000    3.333    0.000    3.000    0.000    0.000 
#    0.000    0.000    0.000   16.000    0.000    0.000 
#
# Total GULP energy -892527.883345 kJ/mol
# GULP energy per Si atom -12396.220602 kJ/mol
# Density = 1.687939 g / cm^3
# Si number density = 16.917901 Si / 1000 Ang^3
#
#
#
# Elastic Constant Matrix: (Units=GPa)
#
#
# Indices 1 2 3 4 5 6 
#
# 1 54.5419 16.5767 12.7863 -0.3367 0.0000 0.0000
# 2 16.5767 54.5419 12.7863 0.3367 0.0000 0.0000
# 3 12.7863 12.7863 88.4167 0.0000 0.0000 0.0000
# 4 -0.3367 0.3367 0.0000 21.7596 0.0000 0.0000
# 5 0.0000 0.0000 0.0000 0.0000 21.7596 -0.3367
# 6 0.0000 0.0000 0.0000 0.0000 -0.3367 18.9826
#
#
#
# Elastic Compliance Matrix: (Units=1/GPa)
#
#
# Indices 1 2 3 4 5 6 
#
# 1 0.020590 -0.005757 -0.002145 0.000408 0.000000 0.000000
# 2 -0.005757 0.020590 -0.002145 -0.000408 0.000000 0.000000
# 3 -0.002145 -0.002145 0.011930 0.000000 0.000000 0.000000
# 4 0.000408 -0.000408 0.000000 0.045969 0.000000 0.000000
# 5 0.000000 0.000000 0.000000 0.000000 0.045969 0.000815
# 6 0.000000 0.000000 0.000000 0.000000 0.000815 0.052694
#
#
# Mechanical properties :
#
#
# Convention : Reuss Voigt Hill
#
# Bulk Modulus (GPa) = 30.28906 31.31100 30.80003
# Shear Modulus (GPa) = 21.84908 22.85712 22.35310
#
# Velocity S-wave (km/s) = 3.59761 3.67967 3.63887
# Velocity P-wave (km/s) = 5.93292 6.04988 5.99168
#
# Compressibility (1/GPa) = 0.03301522
#
# Stress axis : x y z
#
# Youngs Moduli (GPa) = 48.56792 48.56792 83.81902
#
# Poissons Ratio (x) = 0.27963 0.17979
# Poissons Ratio (y) = 0.27963 0.17979
# Poissons Ratio (z) = 0.10418 0.10418
#
# Static dielectric constant tensor:
#      x y z
#    x 3.005210 0.000000 0.000000 
#    y 0.000000 3.005210 0.000000 
#    z 0.000000 0.000000 3.332160 
# 
# 
# High freq. dielectric constant tensor:
#      x y z
#    x 1.629000 0.000000 0.000000 
#    y 0.000000 1.629000 0.000000 
#    z 0.000000 0.000000 1.663910 
# 
# From -- ./inp_files/7151.got.cif
#   From: 2010.03.12/outbox.cif.g09.slc.cpg/sg166_4_cif.got.tgz:7151.got - 2010.04.02 06:38:31.
