data_PCOD8324628
_publ_section_title
;
Structure prediction by ZEFSAII (Michael W. Deem and Ramdas Pophale) SiO2 
 PCOD8324628
Probable space group: P 65
;
_chemical_formula_sum "Si O2"
_cell_formula_units_Z 36
_cell_length_a 11.643886
_cell_length_b 11.643886
_cell_length_c 11.175185
_cell_angle_alpha 90.000000
_cell_angle_beta 90.000000
_cell_angle_gamma 120.000000
_cell_volume 1312.143226
_symmetry_space_group_name_H-M "P 65"
_symmetry_group_IT_number 170
_symmetry_cell_setting 'hexagonal'
loop_
_space_group_symop_operation_xyz
x,y,z
x-y,x,5/6+z
-y,x-y,2/3+z
-x,-y,1/2+z
-x+y,-x,1/3+z
y,-x+y,1/6+z
loop_
_atom_site_type_symbol
_atom_site_label
_atom_site_fract_x
_atom_site_fract_y
_atom_site_fract_z
Si Si1 0.804292 0.302390 0.218540
Si Si2 0.708578 0.490806 0.565212
Si Si3 0.876468 0.236005 0.469111
Si Si4 0.480767 0.447914 0.190577
Si Si5 0.375806 0.966355 0.098685
Si Si6 0.775537 0.868288 0.990567
O O1 0.666329 0.299487 0.197114
O O2 0.809735 0.260059 0.354142
O O3 0.932125 0.454510 0.187627
O O4 0.818519 0.197222 0.135942
O O5 0.636019 0.512224 0.681335
O O6 0.861334 0.541703 0.601077
O O7 0.693494 0.570598 0.451039
O O8 0.947367 0.371615 0.549926
O O9 0.772603 0.112016 0.548265
O O10 0.990454 0.205447 0.429652
O O11 0.483424 0.388846 0.057988
O O12 0.854495 0.021754 0.030831
#
# Coordination Sequence:
#
# PCOD8324628 Si02
#       6
#     6   6   6   6   6   6
#     4  10  17  33  58  86 125 148 200 254 314 367
#     4  10  18  35  52  86 125 158 189 249 310 366
#     4  10  18  33  55  89 115 157 204 254 305 357
#     4   9  19  32  53  83 121 161 190 250 309 367
#     4   9  20  32  55  86 117 158 196 249 301 366
#     4  10  20  35  59  92 123 166 215 260 305 377
#
# _framework density 27.436028
#
# number of rings (size 3 to 8) (size 9 to 14) (size 15 to 20)
#    1.000    1.333    3.333    1.000    0.000    2.667 
#    0.000    0.000    0.000    2.000    0.000    0.000 
#    0.000    0.000    0.000    0.000    0.000    0.000 
#
# Total GULP energy -446227.439433 kJ/mol
# GULP energy per Si atom -12395.206651 kJ/mol
# Density = 2.737358 g / cm^3
# Si number density = 27.436028 Si / 1000 Ang^3
#
#
#
# Elastic Constant Matrix: (Units=GPa)
#
#
# Indices 1 2 3 4 5 6 
#
# 1 149.3111 47.9330 15.1038 0.0000 0.0000 0.0000
# 2 47.9330 149.3111 15.1038 0.0000 0.0000 0.0000
# 3 15.1038 15.1038 57.9262 0.0000 0.0000 0.0000
# 4 0.0000 0.0000 0.0000 37.8597 0.0000 0.0000
# 5 0.0000 0.0000 0.0000 0.0000 37.8597 0.0000
# 6 0.0000 0.0000 0.0000 0.0000 0.0000 50.6890
#
#
#
# Elastic Compliance Matrix: (Units=1/GPa)
#
#
# Indices 1 2 3 4 5 6 
#
# 1 0.007572 -0.002292 -0.001377 0.000000 0.000000 0.000000
# 2 -0.002292 0.007572 -0.001377 0.000000 0.000000 0.000000
# 3 -0.001377 -0.001377 0.017981 0.000000 0.000000 0.000000
# 4 0.000000 0.000000 0.000000 0.026413 0.000000 0.000000
# 5 0.000000 0.000000 0.000000 0.000000 0.026413 0.000000
# 6 0.000000 0.000000 0.000000 0.000000 0.000000 0.019728
#
#
# Mechanical properties :
#
#
# Convention : Reuss Voigt Hill
#
# Bulk Modulus (GPa) = 43.41178 56.98106 50.19642
# Shear Modulus (GPa) = 40.50213 43.84221 42.17217
#
# Velocity S-wave (km/s) = 3.84635 4.00181 3.92485
# Velocity P-wave (km/s) = 5.96516 6.49357 6.23497
#
# Compressibility (1/GPa) = 0.02303522
#
# Stress axis : x y z
#
# Youngs Moduli (GPa) = 132.05857 132.05857 55.61307
#
# Poissons Ratio (x) = 0.30263 0.07657
# Poissons Ratio (y) = 0.30263 0.07657
# Poissons Ratio (z) = 0.18183 0.18183
#
# Static dielectric constant tensor:
#      x y z
#    x 4.972020 0.000000 0.000000 
#    y 0.000000 4.972020 0.000000 
#    z 0.000000 0.000000 5.362570 
# 
# 
# High freq. dielectric constant tensor:
#      x y z
#    x 2.101570 0.000000 0.000000 
#    y 0.000000 2.101570 0.000000 
#    z 0.000000 0.000000 2.150050 
# 
# From -- ./inp_files/1360.got.cif
#   From: 2010.03.12/outbox.cif.g09.slc.cpg/sg170_cif.got.tgz:1360.got - 2010.04.02 06:47:37.
