data_PCOD8324975
_publ_section_title
;
Structure prediction by ZEFSAII (Michael W. Deem and Ramdas Pophale) SiO2 
 PCOD8324975
Probable space group: P -6
;
_chemical_formula_sum "Si O2"
_cell_formula_units_Z 26
_cell_length_a 10.959358
_cell_length_b 10.959358
_cell_length_c 13.202335
_cell_angle_alpha 90.000000
_cell_angle_beta 90.000000
_cell_angle_gamma 120.000000
_cell_volume 1373.256325
_symmetry_space_group_name_H-M "P -6"
_symmetry_group_IT_number 174
_symmetry_cell_setting 'hexagonal'
loop_
_space_group_symop_operation_xyz
x,y,z
-x+y,-x,-z
-y,x-y,z
x,y,-z
-x+y,-x,z
-y,x-y,-z
loop_
_atom_site_type_symbol
_atom_site_label
_atom_site_fract_x
_atom_site_fract_y
_atom_site_fract_z
Si Si1 0.804387 0.501410 0.389783
Si Si2 0.078576 0.702914 0.115994
Si Si3 0.369618 0.961677 0.882390
Si Si4 0.000000 0.000000 0.375365
Si Si5 0.268228 0.140168 0.754652
O O1 0.638208 0.455905 0.379380
O O2 0.860728 0.570840 0.500000
O O3 0.889250 0.613406 0.304790
O O4 0.245354 0.801049 0.131324
O O5 0.031066 0.544880 0.154749
O O6 0.001315 0.781164 0.167611
O O7 0.035820 0.691939 0.000000
O O8 0.337019 0.062046 0.813442
O O9 0.380764 0.008389 0.000000
O O10 0.000000 0.000000 0.500000
O O11 0.888393 0.848729 0.327291
#
# Coordination Sequence:
#
# PCOD8324975 Si02
#       5
#     6   6   6   2   6
#     4   8  17  33  55  82 104 138 188 239 291 338
#     4  10  21  37  58  85 117 151 191 234 285 352
#     4  10  21  37  58  85 117 151 191 234 285 352
#     4  12  27  39  55  86 118 156 204 255 295 341
#     4  12  20  38  56  86 114 158 190 238 294 351
#
# _framework density 18.933101000000001
#
# number of rings (size 3 to 8) (size 9 to 14) (size 15 to 20)
#    0.462    1.385    2.308    3.231    0.000    1.846 
#    1.385    0.000    0.000    0.000    0.000    0.000 
#    0.000    0.000    0.000    0.000    0.000    0.000 
#
# Total GULP energy -322094.051235 kJ/mol
# GULP energy per Si atom -12388.232740 kJ/mol
# Density = 1.889001 g / cm^3
# Si number density = 18.933101 Si / 1000 Ang^3
#
#
#
# Elastic Constant Matrix: (Units=GPa)
#
#
# Indices 1 2 3 4 5 6 
#
# 1 60.2768 6.2842 33.9618 0.0000 0.0000 0.0000
# 2 6.2842 60.2768 33.9618 0.0000 0.0000 0.0000
# 3 33.9618 33.9618 86.2892 0.0000 0.0000 0.0000
# 4 0.0000 0.0000 0.0000 24.6591 0.0000 0.0000
# 5 0.0000 0.0000 0.0000 0.0000 24.6591 0.0000
# 6 0.0000 0.0000 0.0000 0.0000 0.0000 26.9963
#
#
#
# Elastic Compliance Matrix: (Units=1/GPa)
#
#
# Indices 1 2 3 4 5 6 
#
# 1 0.021815 0.003294 -0.009882 0.000000 0.000000 0.000000
# 2 0.003294 0.021815 -0.009882 0.000000 0.000000 0.000000
# 3 -0.009882 -0.009882 0.019368 0.000000 0.000000 0.000000
# 4 0.000000 0.000000 0.000000 0.040553 0.000000 0.000000
# 5 0.000000 0.000000 0.000000 0.000000 0.040553 0.000000
# 6 0.000000 0.000000 0.000000 0.000000 0.000000 0.037042
#
#
# Mechanical properties :
#
#
# Convention : Reuss Voigt Hill
#
# Bulk Modulus (GPa) = 33.27153 39.47315 36.37234
# Shear Modulus (GPa) = 22.31097 24.10523 23.20810
#
# Velocity S-wave (km/s) = 3.43652 3.57203 3.50493
# Velocity P-wave (km/s) = 5.77560 6.15683 5.96926
#
# Compressibility (1/GPa) = 0.03005572
#
# Stress axis : x y z
#
# Youngs Moduli (GPa) = 45.84081 45.84081 51.63223
#
# Poissons Ratio (x) = -0.15098 0.51023
# Poissons Ratio (y) = -0.15098 0.51023
# Poissons Ratio (z) = 0.45300 0.45300
#
# Static dielectric constant tensor:
#      x y z
#    x 3.283300 0.000000 0.000000 
#    y 0.000000 3.283300 0.000000 
#    z 0.000000 0.000000 3.495200 
# 
# 
# High freq. dielectric constant tensor:
#      x y z
#    x 1.724010 0.000000 0.000000 
#    y 0.000000 1.724010 0.000000 
#    z 0.000000 0.000000 1.738940 
# 
# From -- ./inp_files/669.got.cif
#   From: 2010.03.12/outbox.cif.g09.slc.cpg/sg174_cif.got.tgz:669.got - 2010.04.02 06:54:58.
