data_PCOD8324027
_publ_section_title
;
Structure prediction by ZEFSAII (Michael W. Deem and Ramdas Pophale) SiO2 
 PCOD8324027
Probable space group: R -3 M
;
_chemical_formula_sum "Si O2"
_cell_formula_units_Z 216
_cell_length_a 25.435147
_cell_length_b 25.435147
_cell_length_c 23.974811
_cell_angle_alpha 90.000000
_cell_angle_beta 90.000000
_cell_angle_gamma 120.000000
_cell_volume 13432.422012
_symmetry_space_group_name_H-M "R -3 M"
_symmetry_group_IT_number 166
_symmetry_cell_setting 'hexagonal'
loop_
_space_group_symop_operation_xyz
x,y,z
-y,x-y,z
-x+y,-x,z
x-y,-y,-z
-x,-x+y,-z
y,x,-z
-x,-y,-z
y,-x+y,-z
x-y,x,-z
-x+y,y,z
x,x-y,z
-y,-x,z
2/3+x,1/3+y,1/3+z
2/3-y,1/3+x-y,1/3+z
2/3-x+y,1/3-x,1/3+z
2/3+x-y,1/3-y,1/3-z
2/3-x,1/3-x+y,1/3-z
2/3+y,1/3+x,1/3-z
2/3-x,1/3-y,1/3-z
2/3+y,1/3-x+y,1/3-z
2/3+x-y,1/3+x,1/3-z
2/3-x+y,1/3+y,1/3+z
2/3+x,1/3+x-y,1/3+z
2/3-y,1/3-x,1/3+z
1/3+x,2/3+y,2/3+z
1/3-y,2/3+x-y,2/3+z
1/3-x+y,2/3-x,2/3+z
1/3+x-y,2/3-y,2/3-z
1/3-x,2/3-x+y,2/3-z
1/3+y,2/3+x,2/3-z
1/3-x,2/3-y,2/3-z
1/3+y,2/3-x+y,2/3-z
1/3+x-y,2/3+x,2/3-z
1/3-x+y,2/3+y,2/3+z
1/3+x,2/3+x-y,2/3+z
1/3-y,2/3-x,2/3+z
loop_
_atom_site_type_symbol
_atom_site_label
_atom_site_fract_x
_atom_site_fract_y
_atom_site_fract_z
Si Si1 0.623302 0.030585 0.126513
Si Si2 0.056323 0.667852 0.576519
Si Si3 0.594967 0.067950 0.019003
Si Si4 0.027439 0.455657 0.661250
Si Si5 0.160083 0.435927 0.024441
Si Si6 0.485325 0.087317 0.819010
O O1 0.657057 0.072705 0.180313
O O2 0.663579 0.008014 0.093684
O O3 0.607227 0.070393 0.085278
O O4 0.563463 0.971353 0.147823
O O5 0.055767 0.610702 0.605389
O O6 0.098370 0.724417 0.615230
O O7 0.538576 0.077151 0.005705
O O8 0.652190 0.125596 0.989115
O O9 0.579767 0.000000 0.000000
O O10 0.054873 0.527437 0.667836
O O11 0.955247 0.420220 0.650500
O O12 0.235000 0.470000 0.017176
O O13 0.143708 0.409082 0.086655
O O14 0.551364 0.102728 0.839794
O O15 0.478747 0.145413 0.833334
#
# Coordination Sequence:
#
# PCOD8324027 Si02
#       6
#    36  36  36  36  36  36
#     4  11  19  31  46  71  99 129 159 203 250 288
#     4  10  19  30  48  70  99 128 159 204 238 278
#     4  11  22  33  50  74 101 128 162 212 262 297
#     4  10  18  31  49  67  93 132 168 191 231 293
#     4  10  20  33  48  67  95 132 168 197 235 298
#     4  11  20  31  48  70  93 122 160 202 244 292
#
# _framework density 16.080496
#
# number of rings (size 3 to 8) (size 9 to 14) (size 15 to 20)
#    0.000    1.500    5.000    2.500    0.000    2.667 
#    0.000    2.500    0.000    0.500    0.000    0.000 
#    0.000    0.000    0.000   16.000    0.000    0.000 
#
# Total GULP energy -892114.894572 kJ/mol
# GULP energy per Si atom -12390.484647 kJ/mol
# Density = 1.604390 g / cm^3
# Si number density = 16.080496 Si / 1000 Ang^3
#
#
#
# Elastic Constant Matrix: (Units=GPa)
#
#
# Indices 1 2 3 4 5 6 
#
# 1 86.6706 45.8058 36.3452 -2.4964 0.0000 0.0000
# 2 45.8058 86.6706 36.3452 2.4964 0.0000 0.0000
# 3 36.3452 36.3452 80.7000 0.0000 0.0000 0.0000
# 4 -2.4964 2.4964 0.0000 19.0085 0.0000 0.0000
# 5 0.0000 0.0000 0.0000 0.0000 19.0085 -2.4964
# 6 0.0000 0.0000 0.0000 0.0000 -2.4964 20.4324
#
#
#
# Elastic Compliance Matrix: (Units=1/GPa)
#
#
# Indices 1 2 3 4 5 6 
#
# 1 0.017448 -0.007422 -0.004516 0.003266 0.000000 0.000000
# 2 -0.007422 0.017448 -0.004516 -0.003266 0.000000 0.000000
# 3 -0.004516 -0.004516 0.016459 0.000000 0.000000 0.000000
# 4 0.003266 -0.003266 0.000000 0.053466 0.000000 0.000000
# 5 0.000000 0.000000 0.000000 0.000000 0.053466 0.006532
# 6 0.000000 0.000000 0.000000 0.000000 0.006532 0.049740
#
#
# Mechanical properties :
#
#
# Convention : Reuss Voigt Hill
#
# Bulk Modulus (GPa) = 54.20294 54.55929 54.38112
# Shear Modulus (GPa) = 20.23613 20.72621 20.48117
#
# Velocity S-wave (km/s) = 3.55128 3.59403 3.57272
# Velocity P-wave (km/s) = 7.11308 7.15718 7.13516
#
# Compressibility (1/GPa) = 0.01844918
#
# Stress axis : x y z
#
# Youngs Moduli (GPa) = 57.31280 57.31280 60.75716
#
# Poissons Ratio (x) = 0.42537 0.27435
# Poissons Ratio (y) = 0.42537 0.27435
# Poissons Ratio (z) = 0.25880 0.25880
#
# Static dielectric constant tensor:
#      x y z
#    x 2.990490 0.000000 0.000000 
#    y 0.000000 2.990490 0.000000 
#    z 0.000000 0.000000 3.252720 
# 
# 
# High freq. dielectric constant tensor:
#      x y z
#    x 1.590400 0.000000 0.000000 
#    y 0.000000 1.590400 0.000000 
#    z 0.000000 0.000000 1.630820 
# 
# From -- ./inp_files/8638.got.cif
#   From: 2010.03.12/outbox.cif.g09.slc.cpg/sg166_5_cif.got.tgz:8638.got - 2010.04.02 06:38:31.
