data_PCOD8324075
_publ_section_title
;
Structure prediction by ZEFSAII (Michael W. Deem and Ramdas Pophale) SiO2 
 PCOD8324075
Probable space group: R -3 M
;
_chemical_formula_sum "Si O2"
_cell_formula_units_Z 162
_cell_length_a 22.964836
_cell_length_b 22.964836
_cell_length_c 18.224346
_cell_angle_alpha 90.000000
_cell_angle_beta 90.000000
_cell_angle_gamma 120.000000
_cell_volume 8323.563182
_symmetry_space_group_name_H-M "R -3 M"
_symmetry_group_IT_number 166
_symmetry_cell_setting 'hexagonal'
loop_
_space_group_symop_operation_xyz
x,y,z
-y,x-y,z
-x+y,-x,z
x-y,-y,-z
-x,-x+y,-z
y,x,-z
-x,-y,-z
y,-x+y,-z
x-y,x,-z
-x+y,y,z
x,x-y,z
-y,-x,z
2/3+x,1/3+y,1/3+z
2/3-y,1/3+x-y,1/3+z
2/3-x+y,1/3-x,1/3+z
2/3+x-y,1/3-y,1/3-z
2/3-x,1/3-x+y,1/3-z
2/3+y,1/3+x,1/3-z
2/3-x,1/3-y,1/3-z
2/3+y,1/3-x+y,1/3-z
2/3+x-y,1/3+x,1/3-z
2/3-x+y,1/3+y,1/3+z
2/3+x,1/3+x-y,1/3+z
2/3-y,1/3-x,1/3+z
1/3+x,2/3+y,2/3+z
1/3-y,2/3+x-y,2/3+z
1/3-x+y,2/3-x,2/3+z
1/3+x-y,2/3-y,2/3-z
1/3-x,2/3-x+y,2/3-z
1/3+y,2/3+x,2/3-z
1/3-x,2/3-y,2/3-z
1/3+y,2/3-x+y,2/3-z
1/3+x-y,2/3+x,2/3-z
1/3-x+y,2/3+y,2/3+z
1/3+x,2/3+x-y,2/3+z
1/3-y,2/3-x,2/3+z
loop_
_atom_site_type_symbol
_atom_site_label
_atom_site_fract_x
_atom_site_fract_y
_atom_site_fract_z
Si Si1 0.334190 0.532822 0.367617
Si Si2 0.569229 0.933838 0.049928
Si Si3 0.237599 0.894047 0.135158
Si Si4 0.532676 0.333334 0.333334
Si Si5 0.138673 0.638464 0.815032
O O1 0.276806 0.553611 0.366216
O O2 0.403932 0.596069 0.338067
O O3 0.308568 0.465785 0.320062
O O4 0.348395 0.517119 0.450127
O O5 0.629783 0.920104 0.068408
O O6 0.539566 0.943601 0.125931
O O7 0.594834 0.000000 0.000000
O O8 0.169963 0.830037 0.105309
O O9 0.226592 0.955718 0.157908
O O10 0.542488 0.271244 0.349260
O O11 0.487409 0.320719 0.260986
O O12 0.138160 0.569080 0.812889
#
# Coordination Sequence:
#
# PCOD8324075 Si02
#       5
#    36  36  36  18  36
#     4  11  22  38  61  91 124 158 197 246 301 358
#     4  11  22  37  62  88 119 155 201 249 299 355
#     4  10  21  38  58  84 116 155 199 244 297 357
#     4  10  19  32  50  76 110 154 199 242 294 358
#     4   9  19  34  55  79 112 153 196 241 290 349
#
# _framework density 19.462817999999999
#
# number of rings (size 3 to 8) (size 9 to 14) (size 15 to 20)
#    0.000    1.778    2.222    2.333    1.556    0.889 
#    0.000    2.222    0.000    1.333    0.000    7.778 
#    0.000    0.000    0.000    0.000    0.000    0.000 
#
# Total GULP energy -669455.221823 kJ/mol
# GULP energy per Si atom -12397.318923 kJ/mol
# Density = 1.941852 g / cm^3
# Si number density = 19.462818 Si / 1000 Ang^3
#
#
#
# Elastic Constant Matrix: (Units=GPa)
#
#
# Indices 1 2 3 4 5 6 
#
# 1 83.5615 38.9939 20.9119 -5.3607 0.0003 0.0000
# 2 38.9939 83.5615 20.9119 5.3607 -0.0003 0.0000
# 3 20.9119 20.9119 90.6834 0.0000 0.0000 0.0000
# 4 -5.3607 5.3607 0.0000 29.6271 0.0000 -0.0003
# 5 0.0003 -0.0003 0.0000 0.0000 29.6271 -5.3607
# 6 0.0000 0.0000 0.0000 -0.0003 -5.3607 22.2838
#
#
#
# Elastic Compliance Matrix: (Units=1/GPa)
#
#
# Indices 1 2 3 4 5 6 
#
# 1 0.016158 -0.007301 -0.002042 0.004245 0.000000 0.000000
# 2 -0.007301 0.016158 -0.002042 -0.004245 0.000000 0.000000
# 3 -0.002042 -0.002042 0.011969 0.000000 0.000000 0.000000
# 4 0.004245 -0.004245 0.000000 0.035289 0.000000 0.000001
# 5 0.000000 0.000000 0.000000 0.000000 0.035289 0.008489
# 6 0.000000 0.000000 0.000000 0.000001 0.008489 0.046918
#
#
# Mechanical properties :
#
#
# Convention : Reuss Voigt Hill
#
# Bulk Modulus (GPa) = 46.48345 46.60464 46.54405
# Shear Modulus (GPa) = 26.07923 28.10683 27.09303
#
# Velocity S-wave (km/s) = 3.66451 3.80429 3.73505
# Velocity P-wave (km/s) = 6.46837 6.57984 6.52435
#
# Compressibility (1/GPa) = 0.02151303
#
# Stress axis : x y z
#
# Youngs Moduli (GPa) = 61.88978 61.88978 83.54686
#
# Poissons Ratio (x) = 0.45187 0.17063
# Poissons Ratio (y) = 0.45187 0.17063
# Poissons Ratio (z) = 0.12640 0.12640
#
# Static dielectric constant tensor:
#      x y z
#    x 3.489650 0.000000 0.000000 
#    y 0.000000 3.489650 0.000000 
#    z 0.000000 0.000000 3.760190 
# 
# 
# High freq. dielectric constant tensor:
#      x y z
#    x 1.751480 0.000000 0.000000 
#    y 0.000000 1.751480 0.000000 
#    z 0.000000 0.000000 1.760440 
# 
# From -- ./inp_files/5439.got.cif
#   From: 2010.03.12/outbox.cif.g09.slc.cpg/sg166_3_cif.got.tgz:5439.got - 2010.04.02 06:38:31.
