data_PCOD8324716
_publ_section_title
;
Structure prediction by ZEFSAII (Michael W. Deem and Ramdas Pophale) SiO2 
 PCOD8324716
Probable space group: P 65
;
_chemical_formula_sum "Si O2"
_cell_formula_units_Z 36
_cell_length_a 7.725655
_cell_length_b 7.725655
_cell_length_c 28.273726
_cell_angle_alpha 90.000000
_cell_angle_beta 90.000000
_cell_angle_gamma 120.000000
_cell_volume 1461.451129
_symmetry_space_group_name_H-M "P 65"
_symmetry_group_IT_number 170
_symmetry_cell_setting 'hexagonal'
loop_
_space_group_symop_operation_xyz
x,y,z
x-y,x,5/6+z
-y,x-y,2/3+z
-x,-y,1/2+z
-x+y,-x,1/3+z
y,-x+y,1/6+z
loop_
_atom_site_type_symbol
_atom_site_label
_atom_site_fract_x
_atom_site_fract_y
_atom_site_fract_z
Si Si1 0.010737 0.981443 0.519410
Si Si2 0.257651 0.898803 0.966958
Si Si3 0.304492 0.664163 0.120678
Si Si4 0.220223 0.742258 0.695646
Si Si5 0.004970 0.245051 0.936425
Si Si6 0.845906 0.384265 0.382289
O O1 0.247822 0.072271 0.516250
O O2 0.927648 0.123095 0.498457
O O3 0.920361 0.779723 0.487726
O O4 0.941331 0.924205 0.572895
O O5 0.170798 0.790124 0.916623
O O6 0.411820 0.128854 0.955668
O O7 0.372936 0.800017 0.992931
O O8 0.468697 0.812912 0.082752
O O9 0.228342 0.438792 0.105197
O O10 0.392652 0.685793 0.173665
O O11 0.440548 0.935106 0.691798
O O12 0.176338 0.452584 0.913607
#
# Coordination Sequence:
#
# PCOD8324716 Si02
#       6
#     6   6   6   6   6   6
#     4  12  27  51  75 117 152 221 262 338 410 489
#     4  12  28  49  84 112 162 211 275 337 412 502
#     4  11  27  48  73 118 151 212 262 334 411 485
#     4  11  29  48  79 112 161 206 267 337 399 491
#     4  11  27  47  75 108 158 198 271 331 402 491
#     4  11  28  49  76 113 156 206 267 335 402 492
#
# _framework density 24.633047999999999
#
# number of rings (size 3 to 8) (size 9 to 14) (size 15 to 20)
#    0.000    0.667    3.333    1.000   18.667    1.333 
#    0.000    0.000    0.000    0.000    0.000    0.000 
#    0.000    0.000    0.000    0.000    0.000    0.000 
#
# Total GULP energy -446359.187080 kJ/mol
# GULP energy per Si atom -12398.866308 kJ/mol
# Density = 2.457698 g / cm^3
# Si number density = 24.633048 Si / 1000 Ang^3
#
#
#
# Elastic Constant Matrix: (Units=GPa)
#
#
# Indices 1 2 3 4 5 6 
#
# 1 91.4726 21.4010 28.9781 0.0000 0.0000 0.0000
# 2 21.4010 91.4726 28.9781 0.0000 0.0000 0.0000
# 3 28.9781 28.9781 97.4298 0.0000 0.0000 0.0000
# 4 0.0000 0.0000 0.0000 38.9824 0.0000 0.0000
# 5 0.0000 0.0000 0.0000 0.0000 38.9824 0.0000
# 6 0.0000 0.0000 0.0000 0.0000 0.0000 35.0358
#
#
#
# Elastic Compliance Matrix: (Units=1/GPa)
#
#
# Indices 1 2 3 4 5 6 
#
# 1 0.012364 -0.001907 -0.003110 0.000000 0.000000 0.000000
# 2 -0.001907 0.012364 -0.003110 0.000000 0.000000 0.000000
# 3 -0.003110 -0.003110 0.012114 0.000000 0.000000 0.000000
# 4 0.000000 0.000000 0.000000 0.025653 0.000000 0.000000
# 5 0.000000 0.000000 0.000000 0.000000 0.025653 0.000000
# 6 0.000000 0.000000 0.000000 0.000000 0.000000 0.028542
#
#
# Mechanical properties :
#
#
# Convention : Reuss Voigt Hill
#
# Bulk Modulus (GPa) = 48.57548 48.78769 48.68159
# Shear Modulus (GPa) = 35.76399 36.00133 35.88266
#
# Velocity S-wave (km/s) = 3.81448 3.82711 3.82080
# Velocity P-wave (km/s) = 6.25801 6.27518 6.26660
#
# Compressibility (1/GPa) = 0.02058652
#
# Stress axis : x y z
#
# Youngs Moduli (GPa) = 80.88182 80.88182 82.55072
#
# Poissons Ratio (x) = 0.15427 0.25673
# Poissons Ratio (y) = 0.15427 0.25673
# Poissons Ratio (z) = 0.25154 0.25154
#
# Static dielectric constant tensor:
#      x y z
#    x 4.340040 0.000000 0.000000 
#    y 0.000000 4.340040 0.000000 
#    z 0.000000 0.000000 4.691720 
# 
# 
# High freq. dielectric constant tensor:
#      x y z
#    x 1.977790 0.000000 0.000000 
#    y 0.000000 1.977790 0.000000 
#    z 0.000000 0.000000 1.994610 
# 
# From -- ./inp_files/1769.got.cif
#   From: 2010.03.12/outbox.cif.g09.slc.cpg/sg170_cif.got.tgz:1769.got - 2010.04.02 06:47:37.
