data_PCOD8324690
_publ_section_title
;
Structure prediction by ZEFSAII (Michael W. Deem and Ramdas Pophale) SiO2 
 PCOD8324690
Probable space group: P 65
;
_chemical_formula_sum "Si O2"
_cell_formula_units_Z 24
_cell_length_a 13.790046
_cell_length_b 13.790046
_cell_length_c 6.983336
_cell_angle_alpha 90.000000
_cell_angle_beta 90.000000
_cell_angle_gamma 120.000000
_cell_volume 1150.071920
_symmetry_space_group_name_H-M "P 65"
_symmetry_group_IT_number 170
_symmetry_cell_setting 'hexagonal'
loop_
_space_group_symop_operation_xyz
x,y,z
x-y,x,5/6+z
-y,x-y,2/3+z
-x,-y,1/2+z
-x+y,-x,1/3+z
y,-x+y,1/6+z
loop_
_atom_site_type_symbol
_atom_site_label
_atom_site_fract_x
_atom_site_fract_y
_atom_site_fract_z
Si Si1 0.790327 0.998857 0.516590
Si Si2 0.604345 0.242167 0.233073
Si Si3 0.379856 0.301036 0.540190
Si Si4 0.358051 0.091021 0.376916
O O1 0.699028 0.015826 0.398960
O O2 0.911137 0.105276 0.555661
O O3 0.740948 0.968235 0.728077
O O4 0.656363 0.352636 0.365201
O O5 0.646955 0.155041 0.267098
O O6 0.471597 0.168877 0.259021
O O7 0.326693 0.170266 0.495591
O O8 0.361696 0.365316 0.358913
#
# Coordination Sequence:
#
# PCOD8324690 Si02
#       4
#     6   6   6   6
#     4  12  26  42  70  96 136 182 234 284 348 410
#     4  10  26  44  70 104 144 180 232 292 360 434
#     4  11  24  44  66  98 139 181 231 288 346 425
#     4  11  24  44  66  98 139 181 231 288 346 425
#
# _framework density 20.868259999999999
#
# number of rings (size 3 to 8) (size 9 to 14) (size 15 to 20)
#    0.000    1.000    5.000    0.000    7.000    2.000 
#    4.500    0.000    0.000    0.000    0.000    0.000 
#    0.000    0.000    0.000    0.000    0.000    0.000 
#
# Total GULP energy -297404.554609 kJ/mol
# GULP energy per Si atom -12391.856442 kJ/mol
# Density = 2.082076 g / cm^3
# Si number density = 20.868260 Si / 1000 Ang^3
#
#
#
# Elastic Constant Matrix: (Units=GPa)
#
#
# Indices 1 2 3 4 5 6 
#
# 1 75.0151 12.9590 16.7939 0.0000 0.0000 0.0000
# 2 12.9590 75.0151 16.7939 0.0000 0.0000 0.0000
# 3 16.7939 16.7939 28.4066 0.0000 0.0000 0.0000
# 4 0.0000 0.0000 0.0000 39.1119 0.0000 0.0000
# 5 0.0000 0.0000 0.0000 0.0000 39.1119 0.0000
# 6 0.0000 0.0000 0.0000 0.0000 0.0000 31.0280
#
#
#
# Elastic Compliance Matrix: (Units=1/GPa)
#
#
# Indices 1 2 3 4 5 6 
#
# 1 0.015398 -0.000717 -0.008679 0.000000 0.000000 0.000000
# 2 -0.000717 0.015398 -0.008679 0.000000 0.000000 0.000000
# 3 -0.008679 -0.008679 0.045465 0.000000 0.000000 0.000000
# 4 0.000000 0.000000 0.000000 0.025568 0.000000 0.000000
# 5 0.000000 0.000000 0.000000 0.000000 0.025568 0.000000
# 6 0.000000 0.000000 0.000000 0.000000 0.000000 0.032229
#
#
# Mechanical properties :
#
#
# Convention : Reuss Voigt Hill
#
# Bulk Modulus (GPa) = 24.93148 30.17003 27.55075
# Shear Modulus (GPa) = 23.90689 30.64301 27.27495
#
# Velocity S-wave (km/s) = 3.38836 3.83613 3.61918
# Velocity P-wave (km/s) = 5.22312 5.84037 5.54035
#
# Compressibility (1/GPa) = 0.04010994
#
# Stress axis : x y z
#
# Youngs Moduli (GPa) = 64.94551 64.94551 21.99488
#
# Poissons Ratio (x) = 0.04656 0.19090
# Poissons Ratio (y) = 0.04656 0.19090
# Poissons Ratio (z) = 0.56367 0.56367
#
# Static dielectric constant tensor:
#      x y z
#    x 3.796260 0.000000 0.000000 
#    y 0.000000 3.796260 0.000000 
#    z 0.000000 0.000000 3.815210 
# 
# 
# High freq. dielectric constant tensor:
#      x y z
#    x 1.822020 0.000000 0.000000 
#    y 0.000000 1.822020 0.000000 
#    z 0.000000 0.000000 1.828330 
# 
# From -- ./inp_files/50.got.cif
#   From: 2010.03.12/outbox.cif.g09.slc.cpg/sg170_cif.got.tgz:50.got - 2010.04.02 06:47:37.
