data_PCOD8324022
_publ_section_title
;
Structure prediction by ZEFSAII (Michael W. Deem and Ramdas Pophale) SiO2 
 PCOD8324022
Probable space group: R -3 M
;
_chemical_formula_sum "Si O2"
_cell_formula_units_Z 216
_cell_length_a 25.801965
_cell_length_b 25.801965
_cell_length_c 22.860394
_cell_angle_alpha 90.000000
_cell_angle_beta 90.000000
_cell_angle_gamma 120.000000
_cell_volume 13180.136452
_symmetry_space_group_name_H-M "R -3 M"
_symmetry_group_IT_number 166
_symmetry_cell_setting 'hexagonal'
loop_
_space_group_symop_operation_xyz
x,y,z
-y,x-y,z
-x+y,-x,z
x-y,-y,-z
-x,-x+y,-z
y,x,-z
-x,-y,-z
y,-x+y,-z
x-y,x,-z
-x+y,y,z
x,x-y,z
-y,-x,z
2/3+x,1/3+y,1/3+z
2/3-y,1/3+x-y,1/3+z
2/3-x+y,1/3-x,1/3+z
2/3+x-y,1/3-y,1/3-z
2/3-x,1/3-x+y,1/3-z
2/3+y,1/3+x,1/3-z
2/3-x,1/3-y,1/3-z
2/3+y,1/3-x+y,1/3-z
2/3+x-y,1/3+x,1/3-z
2/3-x+y,1/3+y,1/3+z
2/3+x,1/3+x-y,1/3+z
2/3-y,1/3-x,1/3+z
1/3+x,2/3+y,2/3+z
1/3-y,2/3+x-y,2/3+z
1/3-x+y,2/3-x,2/3+z
1/3+x-y,2/3-y,2/3-z
1/3-x,2/3-x+y,2/3-z
1/3+y,2/3+x,2/3-z
1/3-x,2/3-y,2/3-z
1/3+y,2/3-x+y,2/3-z
1/3+x-y,2/3+x,2/3-z
1/3-x+y,2/3+y,2/3+z
1/3+x,2/3+x-y,2/3+z
1/3-y,2/3-x,2/3+z
loop_
_atom_site_type_symbol
_atom_site_label
_atom_site_fract_x
_atom_site_fract_y
_atom_site_fract_z
Si Si1 0.160103 0.439713 0.413773
Si Si2 0.660930 0.729285 0.190775
Si Si3 0.802333 0.962490 0.057492
Si Si4 0.667504 0.212753 0.502191
Si Si5 0.441223 0.999694 0.736502
Si Si6 0.685216 0.083169 0.693766
O O1 0.209632 0.419263 0.418272
O O2 0.102685 0.394491 0.451652
O O3 0.186037 0.506196 0.438992
O O4 0.141385 0.437860 0.346040
O O5 0.653560 0.666667 0.166667
O O6 0.648758 0.763101 0.138196
O O7 0.611797 0.715125 0.241872
O O8 0.802903 0.901452 0.053798
O O9 0.734197 0.948133 0.063251
O O10 0.840152 0.999845 0.113608
O O11 0.832802 0.000000 0.000000
O O12 0.603921 0.207842 0.508813
O O13 0.718148 0.281853 0.493892
O O14 0.502121 0.004241 0.714314
O O15 0.431091 0.044722 0.696696
O O16 0.707653 0.040987 0.666667
#
# Coordination Sequence:
#
# PCOD8324022 Si02
#       6
#    36  36  36  36  36  36
#     4  10  19  33  51  72  97 128 166 203 243 294
#     4   9  17  30  48  71  96 125 156 196 243 287
#     4  10  19  31  49  69  93 126 165 206 249 297
#     4  10  20  34  52  73  98 130 169 214 257 294
#     4  10  18  30  48  69  96 128 160 194 237 296
#     4   9  19  31  47  72  96 126 156 200 244 285
#
# _framework density 16.388297000000001
#
# number of rings (size 3 to 8) (size 9 to 14) (size 15 to 20)
#    0.000    2.333    1.667    1.667    0.000    4.333 
#    0.000    0.000    0.000    3.167    0.000    0.000 
#    0.000    0.000    0.000    0.000    0.000   53.000 
#
# Total GULP energy -892667.584214 kJ/mol
# GULP energy per Si atom -12398.160892 kJ/mol
# Density = 1.635100 g / cm^3
# Si number density = 16.388297 Si / 1000 Ang^3
#
#
#
# Elastic Constant Matrix: (Units=GPa)
#
#
# Indices 1 2 3 4 5 6 
#
# 1 74.9384 39.5553 33.4017 -0.5589 -0.0002 0.0000
# 2 39.5553 74.9384 33.4017 0.5589 0.0002 0.0000
# 3 33.4017 33.4017 92.6890 0.0000 0.0000 0.0000
# 4 -0.5589 0.5589 0.0000 20.0018 0.0000 0.0002
# 5 -0.0002 0.0002 0.0000 0.0000 20.0018 -0.5589
# 6 0.0000 0.0000 0.0000 0.0002 -0.5589 17.6916
#
#
#
# Elastic Compliance Matrix: (Units=1/GPa)
#
#
# Indices 1 2 3 4 5 6 
#
# 1 0.019673 -0.008614 -0.003985 0.000790 0.000000 0.000000
# 2 -0.008614 0.019673 -0.003985 -0.000790 0.000000 0.000000
# 3 -0.003985 -0.003985 0.013661 0.000000 0.000000 0.000000
# 4 0.000790 -0.000790 0.000000 0.050040 0.000000 -0.000001
# 5 0.000000 0.000000 0.000000 0.000000 0.050040 0.001581
# 6 0.000000 0.000000 0.000000 -0.000001 0.001581 0.056574
#
#
# Mechanical properties :
#
#
# Convention : Reuss Voigt Hill
#
# Bulk Modulus (GPa) = 50.40726 50.58701 50.49713
# Shear Modulus (GPa) = 20.04467 20.61953 20.33210
#
# Velocity S-wave (km/s) = 3.50109 3.55094 3.52610
# Velocity P-wave (km/s) = 6.86792 6.90992 6.88895
#
# Compressibility (1/GPa) = 0.01983841
#
# Stress axis : x y z
#
# Youngs Moduli (GPa) = 50.83044 50.83044 73.20022
#
# Poissons Ratio (x) = 0.43784 0.29173
# Poissons Ratio (y) = 0.43784 0.29173
# Poissons Ratio (z) = 0.20258 0.20258
#
# Static dielectric constant tensor:
#      x y z
#    x 2.975940 0.000000 0.000000 
#    y 0.000000 2.975940 0.000000 
#    z 0.000000 0.000000 3.368210 
# 
# 
# High freq. dielectric constant tensor:
#      x y z
#    x 1.616620 0.000000 0.000000 
#    y 0.000000 1.616620 0.000000 
#    z 0.000000 0.000000 1.639510 
# 
# From -- ./inp_files/8442.got.cif
#   From: 2010.03.12/outbox.cif.g09.slc.cpg/sg166_5_cif.got.tgz:8442.got - 2010.04.02 06:38:31.
