data_PCOD8324700
_publ_section_title
;
Structure prediction by ZEFSAII (Michael W. Deem and Ramdas Pophale) SiO2 
 PCOD8324700
Probable space group: P 65
;
_chemical_formula_sum "Si O2"
_cell_formula_units_Z 48
_cell_length_a 14.484874
_cell_length_b 14.484874
_cell_length_c 12.489571
_cell_angle_alpha 90.000000
_cell_angle_beta 90.000000
_cell_angle_gamma 120.000000
_cell_volume 2269.381951
_symmetry_space_group_name_H-M "P 65"
_symmetry_group_IT_number 170
_symmetry_cell_setting 'hexagonal'
loop_
_space_group_symop_operation_xyz
x,y,z
x-y,x,5/6+z
-y,x-y,2/3+z
-x,-y,1/2+z
-x+y,-x,1/3+z
y,-x+y,1/6+z
loop_
_atom_site_type_symbol
_atom_site_label
_atom_site_fract_x
_atom_site_fract_y
_atom_site_fract_z
Si Si1 0.426006 0.927810 0.356290
Si Si2 0.670043 0.764108 0.259341
Si Si3 0.592532 0.871694 0.428611
Si Si4 0.418885 0.686535 0.546487
Si Si5 0.176703 0.045149 0.606055
Si Si6 0.393631 0.917612 0.749044
Si Si7 0.689725 0.438823 0.847408
Si Si8 0.631078 0.975737 0.045193
O O1 0.533885 0.919808 0.358967
O O2 0.337626 0.821137 0.301976
O O3 0.481907 0.037011 0.285775
O O4 0.375520 0.940051 0.465582
O O5 0.622937 0.798112 0.358107
O O6 0.727755 0.700851 0.307180
O O7 0.754254 0.863170 0.190497
O O8 0.575378 0.688837 0.180717
O O9 0.505764 0.808664 0.520746
O O10 0.298397 0.656534 0.579813
O O11 0.398303 0.618588 0.439225
O O12 0.128900 0.081926 0.509254
O O13 0.249633 0.004914 0.547432
O O14 0.354713 0.804920 0.694892
O O15 0.393334 0.002942 0.665047
O O16 0.694005 0.551068 0.831710
#
# Coordination Sequence:
#
# PCOD8324700 Si02
#       8
#     6   6   6   6   6   6   6   6
#     4  11  24  41  63  97 132 179 226 280 342 403
#     4  11  21  41  70 103 132 170 237 279 346 400
#     4  11  24  40  69 100 136 180 225 289 335 418
#     4  12  25  41  61  95 143 177 228 275 351 416
#     4  12  23  45  76 105 133 175 235 296 346 421
#     4  11  22  38  67  95 129 177 225 287 333 404
#     4  12  24  40  64  96 131 180 226 280 334 422
#     4  12  23  42  68  99 134 176 236 286 349 408
#
# _framework density 21.151133999999999
#
# number of rings (size 3 to 8) (size 9 to 14) (size 15 to 20)
#    0.000    0.500    6.250    3.000    3.500    1.000 
#    2.250    1.250    0.000    0.000    0.000    0.000 
#    0.000    0.000    0.000    0.000    0.000    0.000 
#
# Total GULP energy -594721.997155 kJ/mol
# GULP energy per Si atom -12390.041607 kJ/mol
# Density = 2.110299 g / cm^3
# Si number density = 21.151134 Si / 1000 Ang^3
#
#
#
# Elastic Constant Matrix: (Units=GPa)
#
#
# Indices 1 2 3 4 5 6 
#
# 1 84.7254 29.3162 44.3887 0.0000 0.0000 0.0000
# 2 29.3162 84.7254 44.3887 0.0000 0.0000 0.0000
# 3 44.3887 44.3887 86.8658 0.0000 0.0000 0.0000
# 4 0.0000 0.0000 0.0000 39.5746 0.0000 0.0000
# 5 0.0000 0.0000 0.0000 0.0000 39.5746 0.0000
# 6 0.0000 0.0000 0.0000 0.0000 0.0000 27.7046
#
#
#
# Elastic Compliance Matrix: (Units=1/GPa)
#
#
# Indices 1 2 3 4 5 6 
#
# 1 0.016304 -0.001743 -0.007441 0.000000 0.000000 0.000000
# 2 -0.001743 0.016304 -0.007441 0.000000 0.000000 0.000000
# 3 -0.007441 -0.007441 0.019117 0.000000 0.000000 0.000000
# 4 0.000000 0.000000 0.000000 0.025269 0.000000 0.000000
# 5 0.000000 0.000000 0.000000 0.000000 0.025269 0.000000
# 6 0.000000 0.000000 0.000000 0.000000 0.000000 0.036095
#
#
# Mechanical properties :
#
#
# Convention : Reuss Voigt Hill
#
# Bulk Modulus (GPa) = 54.12529 54.72266 54.42398
# Shear Modulus (GPa) = 28.12687 30.58561 29.35624
#
# Velocity S-wave (km/s) = 3.65060 3.80682 3.72953
# Velocity P-wave (km/s) = 6.58897 6.72688 6.65828
#
# Compressibility (1/GPa) = 0.01847565
#
# Stress axis : x y z
#
# Youngs Moduli (GPa) = 61.33335 61.33335 52.31071
#
# Poissons Ratio (x) = 0.10692 0.38923
# Poissons Ratio (y) = 0.10692 0.38923
# Poissons Ratio (z) = 0.45637 0.45637
#
# Static dielectric constant tensor:
#      x y z
#    x 4.023430 0.000000 0.000000 
#    y 0.000000 4.023430 0.000000 
#    z 0.000000 0.000000 3.709240 
# 
# 
# High freq. dielectric constant tensor:
#      x y z
#    x 1.829210 0.000000 0.000000 
#    y 0.000000 1.829210 0.000000 
#    z 0.000000 0.000000 1.816580 
# 
# From -- ./inp_files/1099.got.cif
#   From: 2010.03.12/outbox.cif.g09.slc.cpg/sg170_cif.got.tgz:1099.got - 2010.04.02 06:47:37.
