data_PCOD8324990
_publ_section_title
;
Structure prediction by ZEFSAII (Michael W. Deem and Ramdas Pophale) SiO2 
 PCOD8324990
Probable space group: P -6
;
_chemical_formula_sum "Si O2"
_cell_formula_units_Z 20
_cell_length_a 11.478432
_cell_length_b 11.478432
_cell_length_c 8.474878
_cell_angle_alpha 90.000000
_cell_angle_beta 90.000000
_cell_angle_gamma 120.000000
_cell_volume 967.006110
_symmetry_space_group_name_H-M "P -6"
_symmetry_group_IT_number 174
_symmetry_cell_setting 'hexagonal'
loop_
_space_group_symop_operation_xyz
x,y,z
-x+y,-x,-z
-y,x-y,z
x,y,-z
-x+y,-x,z
-y,x-y,-z
loop_
_atom_site_type_symbol
_atom_site_label
_atom_site_fract_x
_atom_site_fract_y
_atom_site_fract_z
Si Si1 0.840940 0.128661 0.813818
Si Si2 0.582578 0.922536 0.316962
Si Si3 0.000000 0.000000 0.686789
Si Si4 0.588427 0.672433 0.815482
O O1 0.946845 0.279562 0.759022
O O2 0.693499 0.074379 0.737221
O O3 0.828203 0.121157 0.000000
O O4 0.883716 0.023697 0.752517
O O5 0.597543 0.900257 0.500000
O O6 0.606389 0.817741 0.216614
O O7 0.435783 0.899994 0.285366
O O8 0.000000 0.000000 0.500000
O O9 0.561159 0.639031 0.000000
#
# Coordination Sequence:
#
# PCOD8324990 Si02
#       4
#     6   6   2   6
#     4  11  23  41  66  93 125 167 212 255 308 376
#     4  12  25  41  65  95 130 163 207 264 319 370
#     4  12  22  35  64  99 130 158 199 261 316 362
#     4  11  24  43  67  91 125 168 214 256 307 378
#
# _framework density 20.682393000000001
#
# number of rings (size 3 to 8) (size 9 to 14) (size 15 to 20)
#    0.000    0.600    3.000    6.000    0.000    3.600 
#    1.800    0.000    0.000    0.000    0.000    0.000 
#    0.000    0.000    0.000    0.000    0.000    0.000 
#
# Total GULP energy -248111.503259 kJ/mol
# GULP energy per Si atom -12405.575163 kJ/mol
# Density = 2.063532 g / cm^3
# Si number density = 20.682393 Si / 1000 Ang^3
#
#
#
# Elastic Constant Matrix: (Units=GPa)
#
#
# Indices 1 2 3 4 5 6 
#
# 1 102.6454 33.2533 22.0783 0.0000 0.0000 0.0000
# 2 33.2533 102.6454 22.0783 0.0000 0.0000 0.0000
# 3 22.0783 22.0783 59.2604 0.0000 0.0000 0.0000
# 4 0.0000 0.0000 0.0000 23.9187 0.0000 0.0000
# 5 0.0000 0.0000 0.0000 0.0000 23.9187 0.0000
# 6 0.0000 0.0000 0.0000 0.0000 0.0000 34.6960
#
#
#
# Elastic Compliance Matrix: (Units=1/GPa)
#
#
# Indices 1 2 3 4 5 6 
#
# 1 0.011391 -0.003019 -0.003119 0.000000 0.000000 0.000000
# 2 -0.003019 0.011391 -0.003119 0.000000 0.000000 0.000000
# 3 -0.003119 -0.003119 0.019199 0.000000 0.000000 0.000000
# 4 0.000000 0.000000 0.000000 0.041808 0.000000 0.000000
# 5 0.000000 0.000000 0.000000 0.000000 0.041808 0.000000
# 6 0.000000 0.000000 0.000000 0.000000 0.000000 0.028822
#
#
# Mechanical properties :
#
#
# Convention : Reuss Voigt Hill
#
# Bulk Modulus (GPa) = 42.61435 46.59681 44.60558
# Shear Modulus (GPa) = 27.66141 28.98277 28.32209
#
# Velocity S-wave (km/s) = 3.66107 3.74749 3.70453
# Velocity P-wave (km/s) = 6.20646 6.42678 6.31758
#
# Compressibility (1/GPa) = 0.02346628
#
# Stress axis : x y z
#
# Youngs Moduli (GPa) = 87.78576 87.78576 52.08658
#
# Poissons Ratio (x) = 0.26507 0.16246
# Poissons Ratio (y) = 0.26507 0.16246
# Poissons Ratio (z) = 0.27381 0.27381
#
# Static dielectric constant tensor:
#      x y z
#    x 3.796620 0.000000 0.000000 
#    y 0.000000 3.796620 0.000000 
#    z 0.000000 0.000000 3.686480 
# 
# 
# High freq. dielectric constant tensor:
#      x y z
#    x 1.809650 0.000000 0.000000 
#    y 0.000000 1.809650 0.000000 
#    z 0.000000 0.000000 1.819330 
# 
# From -- ./inp_files/133.got.cif
#   From: 2010.03.12/outbox.cif.g09.slc.cpg/sg174_cif.got.tgz:133.got - 2010.04.02 06:54:58.
