data_PCOD8324823
_publ_section_title
;
Structure prediction by ZEFSAII (Michael W. Deem and Ramdas Pophale) SiO2 
 PCOD8324823
Probable space group: P 64
;
_chemical_formula_sum "Si O2"
_cell_formula_units_Z 24
_cell_length_a 16.660664
_cell_length_b 16.660664
_cell_length_c 4.884607
_cell_angle_alpha 90.000000
_cell_angle_beta 90.000000
_cell_angle_gamma 120.000000
_cell_volume 1174.207557
_symmetry_space_group_name_H-M "P 64"
_symmetry_group_IT_number 172
_symmetry_cell_setting 'hexagonal'
loop_
_space_group_symop_operation_xyz
x,y,z
x-y,x,2/3+z
-y,x-y,1/3+z
-x,-y,z
-x+y,-x,2/3+z
y,-x+y,1/3+z
loop_
_atom_site_type_symbol
_atom_site_label
_atom_site_fract_x
_atom_site_fract_y
_atom_site_fract_z
Si Si1 0.689747 0.787879 0.917020
Si Si2 0.794767 0.311169 0.695544
Si Si3 0.313435 0.107205 0.423207
Si Si4 0.486500 0.689288 0.855213
O O1 0.725858 0.875736 0.708969
O O2 0.589874 0.704614 0.808688
O O3 0.677629 0.813399 0.222432
O O4 0.763512 0.753506 0.945452
O O5 0.877481 0.294550 0.805740
O O6 0.830274 0.420040 0.660333
O O7 0.768846 0.271725 0.391998
O O8 0.706477 0.259625 0.903034
#
# Coordination Sequence:
#
# PCOD8324823 Si02
#       4
#     6   6   6   6
#     4  10  21  37  57  80 106 139 178 223 278 334
#     4  10  19  31  50  77 110 148 185 219 257 306
#     4  10  21  37  57  80 106 139 178 223 278 334
#     4  10  19  31  50  77 110 148 185 219 257 306
#
# _framework density 20.439316999999999
#
# number of rings (size 3 to 8) (size 9 to 14) (size 15 to 20)
#    0.000    2.000    0.000    4.500    0.000    1.000 
#    0.000    0.000    0.000   25.500    0.000    0.000 
#    0.000    0.000    0.000    0.000    0.000    0.000 
#
# Total GULP energy -297439.598113 kJ/mol
# GULP energy per Si atom -12393.316588 kJ/mol
# Density = 2.039280 g / cm^3
# Si number density = 20.439317 Si / 1000 Ang^3
#
#
#
# Elastic Constant Matrix: (Units=GPa)
#
#
# Indices 1 2 3 4 5 6 
#
# 1 84.3562 47.6506 19.8630 0.0000 0.0000 0.0000
# 2 47.6506 84.3562 19.8630 0.0000 0.0000 0.0000
# 3 19.8630 19.8630 98.4166 0.0000 0.0000 0.0000
# 4 0.0000 0.0000 0.0000 32.9351 0.0000 0.0000
# 5 0.0000 0.0000 0.0000 0.0000 32.9351 0.0000
# 6 0.0000 0.0000 0.0000 0.0000 0.0000 18.3528
#
#
#
# Elastic Compliance Matrix: (Units=1/GPa)
#
#
# Indices 1 2 3 4 5 6 
#
# 1 0.017655 -0.009589 -0.001628 0.000000 0.000000 0.000000
# 2 -0.009589 0.017655 -0.001628 0.000000 0.000000 0.000000
# 3 -0.001628 -0.001628 0.010818 0.000000 0.000000 0.000000
# 4 0.000000 0.000000 0.000000 0.030363 0.000000 0.000000
# 5 0.000000 0.000000 0.000000 0.000000 0.030363 0.000000
# 6 0.000000 0.000000 0.000000 0.000000 0.000000 0.054488
#
#
# Mechanical properties :
#
#
# Convention : Reuss Voigt Hill
#
# Bulk Modulus (GPa) = 48.93012 49.09803 49.01408
# Shear Modulus (GPa) = 25.79419 28.82810 27.31114
#
# Velocity S-wave (km/s) = 3.55630 3.75964 3.65938
# Velocity P-wave (km/s) = 6.39173 6.55133 6.47203
#
# Compressibility (1/GPa) = 0.02043731
#
# Stress axis : x y z
#
# Youngs Moduli (GPa) = 56.64272 56.64272 92.43906
#
# Poissons Ratio (x) = 0.54316 0.15047
# Poissons Ratio (y) = 0.54316 0.15047
# Poissons Ratio (z) = 0.09220 0.09220
#
# Static dielectric constant tensor:
#      x y z
#    x 3.484660 0.000000 0.000000 
#    y 0.000000 3.484660 0.000000 
#    z 0.000000 0.000000 3.861850 
# 
# 
# High freq. dielectric constant tensor:
#      x y z
#    x 1.767440 0.000000 0.000000 
#    y 0.000000 1.767440 0.000000 
#    z 0.000000 0.000000 1.822770 
# 
# From -- ./inp_files/111.got.cif
#   From: 2010.03.12/outbox.cif.g09.slc.cpg/sg172_1_cif.got.tgz:111.got - 2010.04.02 06:52:29.
