data_PCOD8324521
_publ_section_title
;
Structure prediction by ZEFSAII (Michael W. Deem and Ramdas Pophale) SiO2 
 PCOD8324521
Probable space group: P 61
;
_chemical_formula_sum "Si O2"
_cell_formula_units_Z 48
_cell_length_a 16.821126
_cell_length_b 16.821126
_cell_length_c 8.895238
_cell_angle_alpha 90.000000
_cell_angle_beta 90.000000
_cell_angle_gamma 120.000000
_cell_volume 2179.708070
_symmetry_space_group_name_H-M "P 61"
_symmetry_group_IT_number 169
_symmetry_cell_setting 'hexagonal'
loop_
_space_group_symop_operation_xyz
x,y,z
x-y,x,1/6+z
-y,x-y,1/3+z
-x,-y,1/2+z
-x+y,-x,2/3+z
y,-x+y,5/6+z
loop_
_atom_site_type_symbol
_atom_site_label
_atom_site_fract_x
_atom_site_fract_y
_atom_site_fract_z
Si Si1 0.569719 0.766561 0.228230
Si Si2 0.524846 0.884105 0.663239
Si Si3 0.589136 0.019327 0.162464
Si Si4 0.657709 0.292044 0.102964
Si Si5 0.819430 0.950893 0.922205
Si Si6 0.946812 0.289427 0.238032
Si Si7 0.167543 0.139076 0.124999
Si Si8 0.884968 0.272651 0.799614
O O1 0.581700 0.680532 0.255486
O O2 0.468644 0.740995 0.280789
O O3 0.642261 0.856203 0.318884
O O4 0.586907 0.790071 0.050622
O O5 0.494620 0.961050 0.679515
O O6 0.442051 0.796728 0.583734
O O7 0.617838 0.922830 0.570484
O O8 0.554888 0.856332 0.814865
O O9 0.609221 0.998509 0.329368
O O10 0.564816 0.932054 0.060391
O O11 0.654873 0.331255 0.272534
O O12 0.800858 0.891942 0.772227
O O13 0.723635 0.948691 0.956623
O O14 0.902498 0.055829 0.890536
O O15 0.017465 0.252387 0.241641
O O16 0.076624 0.145252 0.155584
#
# Coordination Sequence:
#
# PCOD8324521 Si02
#       8
#     6   6   6   6   6   6   6   6
#     4  10  22  40  60  90 129 165 225 275 338 414
#     4  11  22  39  63  93 128 166 223 278 337 424
#     4  10  23  39  61  90 128 169 216 281 340 408
#     4  11  22  41  65  95 134 175 227 288 349 412
#     4  10  21  40  62  92 132 169 225 283 338 420
#     4  11  21  40  64  89 128 173 215 276 338 407
#     4  10  21  39  62  91 129 166 220 270 332 403
#     4  11  22  40  65  92 130 175 225 275 354 410
#
# _framework density 22.021298000000002
#
# number of rings (size 3 to 8) (size 9 to 14) (size 15 to 20)
#    0.000    1.500    1.250    4.500    0.000    0.000 
#    0.000   21.250    0.000    0.000    0.000    0.000 
#    0.000    0.000    0.000    0.000    0.000    0.000 
#
# Total GULP energy -594833.034869 kJ/mol
# GULP energy per Si atom -12392.354893 kJ/mol
# Density = 2.197118 g / cm^3
# Si number density = 22.021298 Si / 1000 Ang^3
#
#
#
# Elastic Constant Matrix: (Units=GPa)
#
#
# Indices 1 2 3 4 5 6 
#
# 1 66.7329 8.7872 19.5516 0.0000 0.0000 0.0000
# 2 8.7872 66.7329 19.5516 0.0000 0.0000 0.0000
# 3 19.5516 19.5516 113.6909 0.0000 0.0000 0.0000
# 4 0.0000 0.0000 0.0000 23.8155 0.0000 0.0000
# 5 0.0000 0.0000 0.0000 0.0000 23.8155 0.0000
# 6 0.0000 0.0000 0.0000 0.0000 0.0000 28.9728
#
#
#
# Elastic Compliance Matrix: (Units=1/GPa)
#
#
# Indices 1 2 3 4 5 6 
#
# 1 0.015897 -0.001361 -0.002500 0.000000 0.000000 0.000000
# 2 -0.001361 0.015897 -0.002500 0.000000 0.000000 0.000000
# 3 -0.002500 -0.002500 0.009656 0.000000 0.000000 0.000000
# 4 0.000000 0.000000 0.000000 0.041989 0.000000 0.000000
# 5 0.000000 0.000000 0.000000 0.000000 0.041989 0.000000
# 6 0.000000 0.000000 0.000000 0.000000 0.000000 0.034515
#
#
# Mechanical properties :
#
#
# Convention : Reuss Voigt Hill
#
# Bulk Modulus (GPa) = 34.80898 38.10419 36.45659
# Shear Modulus (GPa) = 27.43642 28.60521 28.02081
#
# Velocity S-wave (km/s) = 3.53357 3.60805 3.57100
# Velocity P-wave (km/s) = 5.69995 5.89052 5.79602
#
# Compressibility (1/GPa) = 0.02872822
#
# Stress axis : x y z
#
# Youngs Moduli (GPa) = 62.90619 62.90619 103.56738
#
# Poissons Ratio (x) = 0.08561 0.25889
# Poissons Ratio (y) = 0.08561 0.25889
# Poissons Ratio (z) = 0.15725 0.15725
#
# Static dielectric constant tensor:
#      x y z
#    x 3.936460 0.000000 0.000000 
#    y 0.000000 3.936460 0.000000 
#    z 0.000000 0.000000 4.107560 
# 
# 
# High freq. dielectric constant tensor:
#      x y z
#    x 1.863030 0.000000 0.000000 
#    y 0.000000 1.863030 0.000000 
#    z 0.000000 0.000000 1.874360 
# 
# From -- ./inp_files/722.got.cif
#   From: 2010.03.12/outbox.cif.g09.slc.cpg/sg169_cif.got.tgz:722.got - 2010.04.02 06:46:06.
