data_PCOD8324500
_publ_section_title
;
Structure prediction by ZEFSAII (Michael W. Deem and Ramdas Pophale) SiO2 
 PCOD8324500
Probable space group: P 61
;
_chemical_formula_sum "Si O2"
_cell_formula_units_Z 36
_cell_length_a 14.124342
_cell_length_b 14.124342
_cell_length_c 8.865111
_cell_angle_alpha 90.000000
_cell_angle_beta 90.000000
_cell_angle_gamma 120.000000
_cell_volume 1531.620812
_symmetry_space_group_name_H-M "P 61"
_symmetry_group_IT_number 169
_symmetry_cell_setting 'hexagonal'
loop_
_space_group_symop_operation_xyz
x,y,z
x-y,x,1/6+z
-y,x-y,1/3+z
-x,-y,1/2+z
-x+y,-x,2/3+z
y,-x+y,5/6+z
loop_
_atom_site_type_symbol
_atom_site_label
_atom_site_fract_x
_atom_site_fract_y
_atom_site_fract_z
Si Si1 0.240667 0.654410 0.054110
Si Si2 0.830698 0.613361 0.697246
Si Si3 0.409833 0.064173 0.801690
Si Si4 0.546573 0.361665 0.608663
Si Si5 0.145882 0.723762 0.311040
Si Si6 0.916626 0.138921 0.619249
O O1 0.359437 0.673130 0.093308
O O2 0.170117 0.648695 0.198609
O O3 0.253750 0.750392 0.939934
O O4 0.171152 0.540348 0.958577
O O5 0.770390 0.632049 0.553974
O O6 0.872272 0.712913 0.813012
O O7 0.937540 0.609750 0.653172
O O8 0.528230 0.094405 0.864931
O O9 0.424661 0.081734 0.623108
O O10 0.437794 0.263521 0.533258
O O11 0.072463 0.765081 0.228217
O O12 0.031651 0.162818 0.554974
#
# Coordination Sequence:
#
# PCOD8324500 Si02
#       6
#     6   6   6   6   6   6
#     4  10  20  38  66  98 141 188 225 285 352 423
#     4  10  23  43  70  99 141 181 234 297 358 429
#     4  11  23  43  68 104 141 189 239 292 366 436
#     4  11  20  41  69  99 142 191 230 283 359 430
#     4  11  23  40  69 105 141 178 237 300 351 435
#     4  11  25  51  72 101 138 185 237 305 378 433
#
# _framework density 23.504511999999998
#
# number of rings (size 3 to 8) (size 9 to 14) (size 15 to 20)
#    0.000    1.333    5.000    0.000    2.333    0.000 
#    6.000    3.333    0.000    0.000    0.000    0.000 
#    0.000    0.000    0.000    0.000    0.000    0.000 
#
# Total GULP energy -446196.435488 kJ/mol
# GULP energy per Si atom -12394.345430 kJ/mol
# Density = 2.345101 g / cm^3
# Si number density = 23.504512 Si / 1000 Ang^3
#
#
#
# Elastic Constant Matrix: (Units=GPa)
#
#
# Indices 1 2 3 4 5 6 
#
# 1 63.3060 6.7370 14.4128 0.0000 0.0000 0.0000
# 2 6.7370 63.3060 14.4128 0.0000 0.0000 0.0000
# 3 14.4128 14.4128 141.5816 0.0000 0.0000 0.0000
# 4 0.0000 0.0000 0.0000 32.1385 0.0000 0.0000
# 5 0.0000 0.0000 0.0000 0.0000 32.1385 0.0000
# 6 0.0000 0.0000 0.0000 0.0000 0.0000 28.2845
#
#
#
# Elastic Compliance Matrix: (Units=1/GPa)
#
#
# Indices 1 2 3 4 5 6 
#
# 1 0.016289 -0.001388 -0.001517 0.000000 0.000000 0.000000
# 2 -0.001388 0.016289 -0.001517 0.000000 0.000000 0.000000
# 3 -0.001517 -0.001517 0.007372 0.000000 0.000000 0.000000
# 4 0.000000 0.000000 0.000000 0.031115 0.000000 0.000000
# 5 0.000000 0.000000 0.000000 0.000000 0.031115 0.000000
# 6 0.000000 0.000000 0.000000 0.000000 0.000000 0.035355
#
#
# Mechanical properties :
#
#
# Convention : Reuss Voigt Hill
#
# Bulk Modulus (GPa) = 32.14745 37.70207 34.92476
# Shear Modulus (GPa) = 31.89807 34.02103 32.95955
#
# Velocity S-wave (km/s) = 3.68789 3.80863 3.74875
# Velocity P-wave (km/s) = 5.64277 5.95114 5.79900
#
# Compressibility (1/GPa) = 0.03110667
#
# Stress axis : x y z
#
# Youngs Moduli (GPa) = 61.38971 61.38971 135.65011
#
# Poissons Ratio (x) = 0.08522 0.20577
# Poissons Ratio (y) = 0.08522 0.20577
# Poissons Ratio (z) = 0.09312 0.09312
#
# Static dielectric constant tensor:
#      x y z
#    x 4.087460 0.000000 0.000000 
#    y 0.000000 4.087460 0.000000 
#    z 0.000000 0.000000 5.187780 
# 
# 
# High freq. dielectric constant tensor:
#      x y z
#    x 1.916100 0.000000 0.000000 
#    y 0.000000 1.916100 0.000000 
#    z 0.000000 0.000000 1.964210 
# 
# From -- ./inp_files/607.got.cif
#   From: 2010.03.12/outbox.cif.g09.slc.cpg/sg169_cif.got.tgz:607.got - 2010.04.02 06:46:06.
