data_PCOD8324939
_publ_section_title
;
Structure prediction by ZEFSAII (Michael W. Deem and Ramdas Pophale) SiO2 
 PCOD8324939
Probable space group: P -6
;
_chemical_formula_sum "Si O2"
_cell_formula_units_Z 26
_cell_length_a 11.544612
_cell_length_b 11.544612
_cell_length_c 14.084947
_cell_angle_alpha 90.000000
_cell_angle_beta 90.000000
_cell_angle_gamma 120.000000
_cell_volume 1625.715445
_symmetry_space_group_name_H-M "P -6"
_symmetry_group_IT_number 174
_symmetry_cell_setting 'hexagonal'
loop_
_space_group_symop_operation_xyz
x,y,z
-x+y,-x,-z
-y,x-y,z
x,y,-z
-x+y,-x,z
-y,x-y,-z
loop_
_atom_site_type_symbol
_atom_site_label
_atom_site_fract_x
_atom_site_fract_y
_atom_site_fract_z
Si Si1 0.184584 0.376949 0.199654
Si Si2 0.929661 0.327627 0.889096
Si Si3 0.660916 0.065095 0.889132
Si Si4 0.249509 0.754366 0.604464
Si Si5 0.333334 0.666668 0.112802
O O1 0.270293 0.310129 0.165829
O O2 0.188988 0.383514 0.314135
O O3 0.239306 0.520092 0.151513
O O4 0.030458 0.292613 0.166990
O O5 0.779559 0.213065 0.865976
O O6 0.945876 0.468480 0.854923
O O7 0.961117 0.332380 0.000000
O O8 0.653301 0.032081 0.000000
O O9 0.181969 0.592692 0.614431
O O10 0.215804 0.789723 0.500000
O O11 0.333334 0.666668 0.000000
#
# Coordination Sequence:
#
# PCOD8324939 Si02
#       5
#     6   6   6   6   2
#     4  12  18  30  50  74  96 123 158 208 245 286
#     4  10  20  32  46  66  97 134 166 194 234 292
#     4  10  20  32  46  66  97 134 166 194 234 292
#     4   8  14  26  44  72 102 120 144 192 252 298
#     4  12  18  24  46  80 100 111 144 204 247 278
#
# _framework density 15.992958
#
# number of rings (size 3 to 8) (size 9 to 14) (size 15 to 20)
#    0.462    1.385    4.615    2.538    0.000    1.846 
#    1.385    0.000    0.000    1.385    0.000    0.000 
#    0.000    3.692    0.000    0.000    0.000    0.000 
#
# Total GULP energy -322297.937519 kJ/mol
# GULP energy per Si atom -12396.074520 kJ/mol
# Density = 1.595656 g / cm^3
# Si number density = 15.992958 Si / 1000 Ang^3
#
#
#
# Elastic Constant Matrix: (Units=GPa)
#
#
# Indices 1 2 3 4 5 6 
#
# 1 61.3297 20.9868 27.3276 0.0000 0.0000 0.0007
# 2 20.9868 61.3276 27.3261 0.0000 0.0000 -0.0014
# 3 27.3276 27.3261 99.2687 0.0000 0.0000 -0.0001
# 4 0.0000 0.0000 0.0000 16.5522 0.0000 0.0000
# 5 0.0000 0.0000 0.0000 0.0000 16.5522 0.0000
# 6 0.0007 -0.0014 -0.0001 0.0000 0.0000 20.1683
#
#
#
# Elastic Compliance Matrix: (Units=1/GPa)
#
#
# Indices 1 2 3 4 5 6 
#
# 1 0.019827 -0.004961 -0.004092 0.000000 0.000000 -0.000001
# 2 -0.004961 0.019827 -0.004092 0.000000 0.000000 0.000002
# 3 -0.004092 -0.004092 0.012327 0.000000 0.000000 0.000000
# 4 0.000000 0.000000 0.000000 0.060415 0.000000 0.000000
# 5 0.000000 0.000000 0.000000 0.000000 0.060415 0.000000
# 6 -0.000001 0.000002 0.000000 0.000000 0.000000 0.049583
#
#
# Mechanical properties :
#
#
# Convention : Reuss Voigt Hill
#
# Bulk Modulus (GPa) = 38.92747 41.46742 40.19745
# Shear Modulus (GPa) = 19.43656 20.40691 19.92173
#
# Velocity S-wave (km/s) = 3.48993 3.57598 3.53321
# Velocity P-wave (km/s) = 6.37438 6.56011 6.46791
#
# Compressibility (1/GPa) = 0.02568880
#
# Stress axis : x y z
#
# Youngs Moduli (GPa) = 50.43747 50.43627 81.12493
#
# Poissons Ratio (x) = 0.25023 0.33199
# Poissons Ratio (y) = 0.25024 0.33197
# Poissons Ratio (z) = 0.20640 0.20639
#
# Static dielectric constant tensor:
#      x y z
#    x 3.007750 0.000010 0.000000 
#    y 0.000010 3.007520 0.000000 
#    z 0.000000 0.000000 2.952870 
# 
# 
# High freq. dielectric constant tensor:
#      x y z
#    x 1.592520 0.000000 0.000000 
#    y 0.000000 1.592520 0.000000 
#    z 0.000000 0.000000 1.599820 
# 
# From -- ./inp_files/846.got.cif
#   From: 2010.03.12/outbox.cif.g09.slc.cpg/sg174_cif.got.tgz:846.got - 2010.04.02 06:54:58.
