data_PCOD8324023
_publ_section_title
;
Structure prediction by ZEFSAII (Michael W. Deem and Ramdas Pophale) SiO2 
 PCOD8324023
Probable space group: R -3 M
;
_chemical_formula_sum "Si O2"
_cell_formula_units_Z 216
_cell_length_a 23.771761
_cell_length_b 23.771761
_cell_length_c 25.415556
_cell_angle_alpha 90.000000
_cell_angle_beta 90.000000
_cell_angle_gamma 120.000000
_cell_volume 12438.068867
_symmetry_space_group_name_H-M "R -3 M"
_symmetry_group_IT_number 166
_symmetry_cell_setting 'hexagonal'
loop_
_space_group_symop_operation_xyz
x,y,z
-y,x-y,z
-x+y,-x,z
x-y,-y,-z
-x,-x+y,-z
y,x,-z
-x,-y,-z
y,-x+y,-z
x-y,x,-z
-x+y,y,z
x,x-y,z
-y,-x,z
2/3+x,1/3+y,1/3+z
2/3-y,1/3+x-y,1/3+z
2/3-x+y,1/3-x,1/3+z
2/3+x-y,1/3-y,1/3-z
2/3-x,1/3-x+y,1/3-z
2/3+y,1/3+x,1/3-z
2/3-x,1/3-y,1/3-z
2/3+y,1/3-x+y,1/3-z
2/3+x-y,1/3+x,1/3-z
2/3-x+y,1/3+y,1/3+z
2/3+x,1/3+x-y,1/3+z
2/3-y,1/3-x,1/3+z
1/3+x,2/3+y,2/3+z
1/3-y,2/3+x-y,2/3+z
1/3-x+y,2/3-x,2/3+z
1/3+x-y,2/3-y,2/3-z
1/3-x,2/3-x+y,2/3-z
1/3+y,2/3+x,2/3-z
1/3-x,2/3-y,2/3-z
1/3+y,2/3-x+y,2/3-z
1/3+x-y,2/3+x,2/3-z
1/3-x+y,2/3+y,2/3+z
1/3+x,2/3+x-y,2/3+z
1/3-y,2/3-x,2/3+z
loop_
_atom_site_type_symbol
_atom_site_label
_atom_site_fract_x
_atom_site_fract_y
_atom_site_fract_z
Si Si1 0.482661 0.639801 0.824755
Si Si2 0.551585 0.103170 0.473258
Si Si3 0.032555 0.516278 0.416278
Si Si4 0.772250 0.673912 0.837486
Si Si5 0.040246 0.658810 0.082235
Si Si6 0.125208 0.126447 0.270589
Si Si7 0.077718 0.430638 0.361338
O O1 0.419105 0.580896 0.795189
O O2 0.522484 0.705408 0.790568
O O3 0.529894 0.613026 0.843117
O O4 0.456455 0.661133 0.874451
O O5 0.542466 0.084931 0.535776
O O6 0.519710 0.039419 0.438558
O O7 0.041907 0.469381 0.377444
O O8 0.827712 0.655424 0.849840
O O9 0.726483 0.661962 0.887589
O O10 0.729375 0.629610 0.788510
O O11 0.969201 0.630476 0.058727
O O12 0.089741 0.674925 0.034534
O O13 0.056392 0.112784 0.293921
O O14 0.180373 0.196693 0.289963
O O15 0.138534 0.069267 0.289289
#
# Coordination Sequence:
#
# PCOD8324023 Si02
#       7
#    36  18  18  36  36  36  36
#     4  10  18  30  48  71 101 134 171 212 259 315
#     4  11  18  32  50  76 104 141 177 218 265 337
#     4  11  20  30  54  74 106 139 175 218 278 328
#     4  10  20  36  53  73 103 143 180 219 267 329
#     4  10  22  34  53  78 104 137 179 226 274 320
#     4  11  20  33  50  75 108 142 173 211 264 326
#     4  11  20  35  52  79 108 135 177 225 276 326
#
# _framework density 17.366040000000002
#
# number of rings (size 3 to 8) (size 9 to 14) (size 15 to 20)
#    0.000    1.500    5.000    1.167    1.167    3.333 
#    0.500    1.667    0.000    0.000    0.000    0.000 
#    0.000    0.000    0.000   12.833    0.000    0.000 
#
# Total GULP energy -892318.504929 kJ/mol
# GULP energy per Si atom -12393.312568 kJ/mol
# Density = 1.732651 g / cm^3
# Si number density = 17.366040 Si / 1000 Ang^3
#
#
#
# Elastic Constant Matrix: (Units=GPa)
#
#
# Indices 1 2 3 4 5 6 
#
# 1 103.2511 50.3292 30.3971 -6.1159 0.0000 0.0000
# 2 50.3292 103.2511 30.3971 6.1159 0.0000 0.0000
# 3 30.3971 30.3971 65.2223 0.0000 0.0000 0.0000
# 4 -6.1159 6.1159 0.0000 9.4706 0.0000 0.0000
# 5 0.0000 0.0000 0.0000 0.0000 9.4706 -6.1159
# 6 0.0000 0.0000 0.0000 0.0000 -6.1159 26.4610
#
#
#
# Elastic Compliance Matrix: (Units=1/GPa)
#
#
# Indices 1 2 3 4 5 6 
#
# 1 0.015098 -0.007113 -0.003721 0.014343 0.000000 0.000000
# 2 -0.007113 0.015098 -0.003721 -0.014343 0.000000 0.000000
# 3 -0.003721 -0.003721 0.018801 0.000000 0.000000 0.000000
# 4 0.014343 -0.014343 0.000000 0.124114 0.000000 0.000000
# 5 0.000000 0.000000 0.000000 0.000000 0.124114 0.028686
# 6 0.000000 0.000000 0.000000 0.000000 0.028686 0.044422
#
#
# Mechanical properties :
#
#
# Convention : Reuss Voigt Hill
#
# Bulk Modulus (GPa) = 50.28979 54.88571 52.58775
# Shear Modulus (GPa) = 13.24904 19.78720 16.51812
#
# Velocity S-wave (km/s) = 2.76511 3.37919 3.08746
# Velocity P-wave (km/s) = 6.26227 6.84829 6.56182
#
# Compressibility (1/GPa) = 0.01988475
#
# Stress axis : x y z
#
# Youngs Moduli (GPa) = 66.23586 66.23586 53.18973
#
# Poissons Ratio (x) = 0.47116 0.19792
# Poissons Ratio (y) = 0.47116 0.19792
# Poissons Ratio (z) = 0.24647 0.24647
#
# Static dielectric constant tensor:
#      x y z
#    x 3.373040 0.000000 0.000000 
#    y 0.000000 3.373040 0.000000 
#    z 0.000000 0.000000 3.018520 
# 
# 
# High freq. dielectric constant tensor:
#      x y z
#    x 1.678350 0.000000 0.000000 
#    y 0.000000 1.678350 0.000000 
#    z 0.000000 0.000000 1.630570 
# 
# From -- ./inp_files/9758.got.cif
#   From: 2010.03.12/outbox.cif.g09.slc.cpg/sg166_5_cif.got.tgz:9758.got - 2010.04.02 06:38:31.
