data_PCOD8324719
_publ_section_title
;
Structure prediction by ZEFSAII (Michael W. Deem and Ramdas Pophale) SiO2 
 PCOD8324719
Probable space group: P 65
;
_chemical_formula_sum "Si O2"
_cell_formula_units_Z 36
_cell_length_a 8.358058
_cell_length_b 8.358058
_cell_length_c 27.197549
_cell_angle_alpha 90.000000
_cell_angle_beta 90.000000
_cell_angle_gamma 120.000000
_cell_volume 1645.398741
_symmetry_space_group_name_H-M "P 65"
_symmetry_group_IT_number 170
_symmetry_cell_setting 'hexagonal'
loop_
_space_group_symop_operation_xyz
x,y,z
x-y,x,5/6+z
-y,x-y,2/3+z
-x,-y,1/2+z
-x+y,-x,1/3+z
y,-x+y,1/6+z
loop_
_atom_site_type_symbol
_atom_site_label
_atom_site_fract_x
_atom_site_fract_y
_atom_site_fract_z
Si Si1 0.449186 0.570572 0.646800
Si Si2 0.888780 0.454758 0.762918
Si Si3 0.727718 0.206217 0.993463
Si Si4 0.204635 0.740062 0.080847
Si Si5 0.786039 0.924838 0.263408
Si Si6 0.912785 0.772077 0.826142
O O1 0.509824 0.766804 0.621995
O O2 0.616748 0.531525 0.642846
O O3 0.396158 0.578265 0.703148
O O4 0.275423 0.414977 0.617673
O O5 0.776768 0.479133 0.718127
O O6 0.943426 0.613741 0.803050
O O7 0.072981 0.470335 0.740794
O O8 0.556381 0.200286 0.965448
O O9 0.733527 0.023116 0.980032
O O10 0.045241 0.791762 0.078869
O O11 0.938268 0.028407 0.305312
O O12 0.832346 0.064017 0.217912
#
# Coordination Sequence:
#
# PCOD8324719 Si02
#       6
#     6   6   6   6   6   6
#     4  12  27  47  72 107 144 188 241 294 358 427
#     4  12  27  47  72 107 144 188 241 294 358 427
#     4  12  27  47  74 106 143 190 242 297 359 426
#     4  12  27  47  74 106 143 190 242 297 359 426
#     4  12  25  47  75 106 145 188 238 299 362 427
#     4  12  25  47  75 106 145 188 238 299 362 427
#
# _framework density 21.879193000000001
#
# number of rings (size 3 to 8) (size 9 to 14) (size 15 to 20)
#    0.000    0.000    3.333    7.000    4.667    0.000 
#    0.000    0.000    0.000    0.000    0.000    0.000 
#    0.000    0.000    0.000    0.000    0.000    0.000 
#
# Total GULP energy -446818.377517 kJ/mol
# GULP energy per Si atom -12411.621598 kJ/mol
# Density = 2.182940 g / cm^3
# Si number density = 21.879193 Si / 1000 Ang^3
#
#
#
# Elastic Constant Matrix: (Units=GPa)
#
#
# Indices 1 2 3 4 5 6 
#
# 1 99.3706 23.1934 14.0223 0.0000 0.0000 0.0000
# 2 23.1934 99.3706 14.0223 0.0000 0.0000 0.0000
# 3 14.0223 14.0223 95.5099 0.0000 0.0000 0.0000
# 4 0.0000 0.0000 0.0000 37.2219 0.0000 0.0000
# 5 0.0000 0.0000 0.0000 0.0000 37.2219 0.0000
# 6 0.0000 0.0000 0.0000 0.0000 0.0000 38.0886
#
#
#
# Elastic Compliance Matrix: (Units=1/GPa)
#
#
# Indices 1 2 3 4 5 6 
#
# 1 0.010785 -0.002342 -0.001240 0.000000 0.000000 0.000000
# 2 -0.002342 0.010785 -0.001240 0.000000 0.000000 0.000000
# 3 -0.001240 -0.001240 0.010834 0.000000 0.000000 0.000000
# 4 0.000000 0.000000 0.000000 0.026866 0.000000 0.000000
# 5 0.000000 0.000000 0.000000 0.000000 0.026866 0.000000
# 6 0.000000 0.000000 0.000000 0.000000 0.000000 0.026255
#
#
# Mechanical properties :
#
#
# Convention : Reuss Voigt Hill
#
# Bulk Modulus (GPa) = 43.93420 44.08076 44.00748
# Shear Modulus (GPa) = 38.57423 38.70734 38.64079
#
# Velocity S-wave (km/s) = 4.20343 4.21068 4.20706
# Velocity P-wave (km/s) = 6.60927 6.62048 6.61488
#
# Compressibility (1/GPa) = 0.02276131
#
# Stress axis : x y z
#
# Youngs Moduli (GPa) = 92.72174 92.72174 92.30134
#
# Poissons Ratio (x) = 0.21719 0.11441
# Poissons Ratio (y) = 0.21719 0.11441
# Poissons Ratio (z) = 0.11493 0.11493
#
# Static dielectric constant tensor:
#      x y z
#    x 3.961000 0.000000 0.000000 
#    y 0.000000 3.961000 0.000000 
#    z 0.000000 0.000000 4.013630 
# 
# 
# High freq. dielectric constant tensor:
#      x y z
#    x 1.870050 0.000000 0.000000 
#    y 0.000000 1.870050 0.000000 
#    z 0.000000 0.000000 1.873820 
# 
# From -- ./inp_files/1805.got.cif
#   From: 2010.03.12/outbox.cif.g09.slc.cpg/sg170_cif.got.tgz:1805.got - 2010.04.02 06:47:37.
