data_PCOD8324008
_publ_section_title
;
Structure prediction by ZEFSAII (Michael W. Deem and Ramdas Pophale) SiO2 
 PCOD8324008
Probable space group: R -3 M
;
_chemical_formula_sum "Si O2"
_cell_formula_units_Z 144
_cell_length_a 23.385985
_cell_length_b 23.385985
_cell_length_c 18.391055
_cell_angle_alpha 90.000000
_cell_angle_beta 90.000000
_cell_angle_gamma 120.000000
_cell_volume 8710.610781
_symmetry_space_group_name_H-M "R -3 M"
_symmetry_group_IT_number 166
_symmetry_cell_setting 'hexagonal'
loop_
_space_group_symop_operation_xyz
x,y,z
-y,x-y,z
-x+y,-x,z
x-y,-y,-z
-x,-x+y,-z
y,x,-z
-x,-y,-z
y,-x+y,-z
x-y,x,-z
-x+y,y,z
x,x-y,z
-y,-x,z
2/3+x,1/3+y,1/3+z
2/3-y,1/3+x-y,1/3+z
2/3-x+y,1/3-x,1/3+z
2/3+x-y,1/3-y,1/3-z
2/3-x,1/3-x+y,1/3-z
2/3+y,1/3+x,1/3-z
2/3-x,1/3-y,1/3-z
2/3+y,1/3-x+y,1/3-z
2/3+x-y,1/3+x,1/3-z
2/3-x+y,1/3+y,1/3+z
2/3+x,1/3+x-y,1/3+z
2/3-y,1/3-x,1/3+z
1/3+x,2/3+y,2/3+z
1/3-y,2/3+x-y,2/3+z
1/3-x+y,2/3-x,2/3+z
1/3+x-y,2/3-y,2/3-z
1/3-x,2/3-x+y,2/3-z
1/3+y,2/3+x,2/3-z
1/3-x,2/3-y,2/3-z
1/3+y,2/3-x+y,2/3-z
1/3+x-y,2/3+x,2/3-z
1/3-x+y,2/3+y,2/3+z
1/3+x,2/3+x-y,2/3+z
1/3-y,2/3-x,2/3+z
loop_
_atom_site_type_symbol
_atom_site_label
_atom_site_fract_x
_atom_site_fract_y
_atom_site_fract_z
Si Si1 0.000968 0.870011 0.842531
Si Si2 0.596072 0.535214 0.128064
Si Si3 0.888454 0.236698 0.377886
Si Si4 0.823262 0.823262 0.000000
Si Si5 0.031159 0.333334 0.333334
O O1 0.941514 0.883027 0.822908
O O2 0.989664 0.802971 0.803224
O O3 0.004410 0.865224 0.929506
O O4 0.069230 0.930771 0.813011
O O5 0.531510 0.468491 0.104717
O O6 0.586655 0.562518 0.203888
O O7 0.606604 0.589491 0.069426
O O8 0.842876 0.157125 0.365943
O O9 0.850458 0.268650 0.337124
O O10 0.961489 0.266822 0.346216
#
# Coordination Sequence:
#
# PCOD8324008 Si02
#       5
#    36  36  36  18  18
#     4  10  18  28  43  64  91 121 152 183 214 250
#     4   9  19  33  46  63  88 115 144 183 225 261
#     4   9  18  31  45  65  92 115 139 179 224 256
#     4   9  16  28  44  62  90 126 152 171 202 246
#     4  11  19  30  51  68  81 112 153 181 214 274
#
# _framework density 16.531562000000001
#
# number of rings (size 3 to 8) (size 9 to 14) (size 15 to 20)
#    0.000    2.500    0.000    5.125    0.000    1.000 
#    0.000    1.250    0.000    9.000    0.000    0.000 
#    0.000    0.000    0.000    0.000    0.000   75.750 
#
# Total GULP energy -594977.737357 kJ/mol
# GULP energy per Si atom -12395.369528 kJ/mol
# Density = 1.649394 g / cm^3
# Si number density = 16.531562 Si / 1000 Ang^3
#
#
#
# Elastic Constant Matrix: (Units=GPa)
#
#
# Indices 1 2 3 4 5 6 
#
# 1 50.8275 31.0723 23.0191 -5.3685 -0.0001 0.0000
# 2 31.0723 50.8275 23.0191 5.3685 0.0001 0.0000
# 3 23.0191 23.0191 45.9011 0.0000 0.0000 0.0000
# 4 -5.3685 5.3685 0.0000 3.3017 0.0000 0.0001
# 5 -0.0001 0.0001 0.0000 0.0000 3.3017 -5.3685
# 6 0.0000 0.0000 0.0000 0.0001 -5.3685 9.8776
#
#
#
# Elastic Compliance Matrix: (Units=1/GPa)
#
#
# Indices 1 2 3 4 5 6 
#
# 1 0.226172 -0.209169 -0.008527 0.707856 0.000018 0.000000
# 2 -0.209169 0.226172 -0.008527 -0.707856 -0.000018 0.000000
# 3 -0.008527 -0.008527 0.030338 0.000000 0.000000 0.000000
# 4 0.707856 -0.707856 0.000000 2.604794 0.000001 -0.000036
# 5 0.000018 -0.000018 0.000000 0.000001 2.604792 1.415711
# 6 0.000000 0.000000 0.000000 -0.000036 1.415711 0.870681
#
#
# Mechanical properties :
#
#
# Convention : Reuss Voigt Hill
#
# Bulk Modulus (GPa) = 33.07212 33.53078 33.30145
# Shear Modulus (GPa) = 0.71170 7.99258 4.35214
#
# Velocity S-wave (km/s) = 0.65684 2.20119 1.62430
# Velocity P-wave (km/s) = 4.54138 5.17564 4.86885
#
# Compressibility (1/GPa) = 0.03023695
#
# Stress axis : x y z
#
# Youngs Moduli (GPa) = 4.42141 4.42141 32.96144
#
# Poissons Ratio (x) = 0.92482 0.28106
# Poissons Ratio (y) = 0.92482 0.28106
# Poissons Ratio (z) = 0.03770 0.03770
#
# Static dielectric constant tensor:
#      x y z
#    x 3.088840 0.000000 0.000000 
#    y 0.000000 3.088840 0.000000 
#    z 0.000000 0.000000 2.871700 
# 
# 
# High freq. dielectric constant tensor:
#      x y z
#    x 1.630700 0.000000 0.000000 
#    y 0.000000 1.630700 0.000000 
#    z 0.000000 0.000000 1.614380 
# 
# From -- ./inp_files/5316.got.cif
#   From: 2010.03.12/outbox.cif.g09.slc.cpg/sg166_3_cif.got.tgz:5316.got - 2010.04.02 06:38:31.
