data_PCOD8324977
_publ_section_title
;
Structure prediction by ZEFSAII (Michael W. Deem and Ramdas Pophale) SiO2 
 PCOD8324977
Probable space group: P -6
;
_chemical_formula_sum "Si O2"
_cell_formula_units_Z 44
_cell_length_a 11.742931
_cell_length_b 11.742931
_cell_length_c 19.780000
_cell_angle_alpha 90.000000
_cell_angle_beta 90.000000
_cell_angle_gamma 120.000000
_cell_volume 2362.163405
_symmetry_space_group_name_H-M "P -6"
_symmetry_group_IT_number 174
_symmetry_cell_setting 'hexagonal'
loop_
_space_group_symop_operation_xyz
x,y,z
-x+y,-x,-z
-y,x-y,z
x,y,-z
-x+y,-x,z
-y,x-y,-z
loop_
_atom_site_type_symbol
_atom_site_label
_atom_site_fract_x
_atom_site_fract_y
_atom_site_fract_z
Si Si1 0.851840 0.703680 0.580154
Si Si2 0.000000 0.000000 0.419984
Si Si3 0.670548 0.073744 0.073526
Si Si4 0.331224 0.396674 0.349951
Si Si5 0.403196 0.073744 0.926474
Si Si6 0.603326 0.668776 0.349951
Si Si7 0.077757 0.669807 0.198983
Si Si8 0.330193 0.922243 0.801017
O O1 0.845854 0.691709 0.500000
O O2 0.702035 0.638704 0.606706
O O3 0.926259 0.852518 0.607504
O O4 0.936669 0.638704 0.606706
O O5 0.000000 0.000000 0.500000
O O6 0.526377 0.052754 0.074944
O O7 0.773017 0.226983 0.082817
O O8 0.690862 0.996625 0.136373
O O9 0.692170 0.023747 0.000000
O O10 0.455606 0.544394 0.356580
O O11 0.199286 0.398573 0.374564
O O12 0.310714 0.342609 0.272887
O O13 0.305762 0.996625 0.863627
O O14 0.331577 0.023747 0.000000
O O15 0.657391 0.689286 0.272887
O O16 0.232627 0.767373 0.190954
O O17 0.045808 0.522904 0.193654
#
# Coordination Sequence:
#
# PCOD8324977 Si02
#       8
#     6   2   6   6   6   6   6   6
#     4  11  22  38  60  84 111 144 184 230 279 333
#     4   9  18  36  60  84 108 138 178 230 280 321
#     4   9  17  29  46  69  98 133 172 213 256 304
#     4  10  21  38  60  85 114 149 188 230 276 331
#     4   9  17  29  46  69  98 133 172 213 256 304
#     4  10  21  38  60  85 114 149 188 230 276 331
#     4   9  18  32  51  75 103 134 170 212 260 310
#     4   9  18  32  51  75 103 134 170 212 260 310
#
# _framework density 18.626992999999999
#
# number of rings (size 3 to 8) (size 9 to 14) (size 15 to 20)
#    0.000    2.455    1.364    0.818    1.909    4.364 
#    0.818    0.000    0.000    3.818    0.000    0.000 
#    0.000    0.000    0.000    0.000    0.000    0.000 
#
# Total GULP energy -545075.020002 kJ/mol
# GULP energy per Si atom -12388.068636 kJ/mol
# Density = 1.858460 g / cm^3
# Si number density = 18.626993 Si / 1000 Ang^3
#
#
#
# Elastic Constant Matrix: (Units=GPa)
#
#
# Indices 1 2 3 4 5 6 
#
# 1 69.6565 16.1056 42.5148 0.0000 0.0000 0.0000
# 2 16.1056 69.6565 42.5148 0.0000 0.0000 0.0000
# 3 42.5148 42.5148 127.0761 0.0000 0.0000 0.0000
# 4 0.0000 0.0000 0.0000 23.7192 0.0000 0.0000
# 5 0.0000 0.0000 0.0000 0.0000 23.7192 0.0000
# 6 0.0000 0.0000 0.0000 0.0000 0.0000 26.7755
#
#
#
# Elastic Compliance Matrix: (Units=1/GPa)
#
#
# Indices 1 2 3 4 5 6 
#
# 1 0.018061 -0.000613 -0.005837 0.000000 0.000000 0.000000
# 2 -0.000613 0.018061 -0.005837 0.000000 0.000000 0.000000
# 3 -0.005837 -0.005837 0.011775 0.000000 0.000000 0.000000
# 4 0.000000 0.000000 0.000000 0.042160 0.000000 0.000000
# 5 0.000000 0.000000 0.000000 0.000000 0.042160 0.000000
# 6 0.000000 0.000000 0.000000 0.000000 0.000000 0.037348
#
#
# Mechanical properties :
#
#
# Convention : Reuss Voigt Hill
#
# Bulk Modulus (GPa) = 42.87947 52.07330 47.47638
# Shear Modulus (GPa) = 24.76312 25.85971 25.31141
#
# Velocity S-wave (km/s) = 3.65008 3.73002 3.69027
# Velocity P-wave (km/s) = 6.39016 6.82402 6.61065
#
# Compressibility (1/GPa) = 0.02332118
#
# Stress axis : x y z
#
# Youngs Moduli (GPa) = 55.36877 55.36877 84.92432
#
# Poissons Ratio (x) = 0.03395 0.49573
# Poissons Ratio (y) = 0.03395 0.49573
# Poissons Ratio (z) = 0.32320 0.32320
#
# Static dielectric constant tensor:
#      x y z
#    x 3.235620 0.000000 0.000000 
#    y 0.000000 3.235620 0.000000 
#    z 0.000000 0.000000 3.940060 
# 
# 
# High freq. dielectric constant tensor:
#      x y z
#    x 1.700720 0.000000 0.000000 
#    y 0.000000 1.700720 0.000000 
#    z 0.000000 0.000000 1.739420 
# 
# From -- ./inp_files/1014.got.cif
#   From: 2010.03.12/outbox.cif.g09.slc.cpg/sg174_cif.got.tgz:1014.got - 2010.04.02 06:54:58.
