data_PCOD8324386
_publ_section_title
;
Structure prediction by ZEFSAII (Michael W. Deem and Ramdas Pophale) SiO2 
 PCOD8324386
Probable space group: R -3 C 
;
_chemical_formula_sum "Si O2"
_cell_formula_units_Z 144
_cell_length_a 18.658258
_cell_length_b 18.658258
_cell_length_c 22.329325
_cell_angle_alpha 90.000000
_cell_angle_beta 90.000000
_cell_angle_gamma 120.000000
_cell_volume 6732.066769
_symmetry_space_group_name_H-M "R -3 C "
_symmetry_group_IT_number 167
_symmetry_cell_setting 'hexagonal'
loop_
_space_group_symop_operation_xyz
x,y,z
-y,x-y,z
-x+y,-x,z
x-y,-y,1/2-z
-x,-x+y,1/2-z
y,x,1/2-z
-x,-y,-z
y,-x+y,-z
x-y,x,-z
-x+y,y,1/2+z
x,x-y,1/2+z
-y,-x,1/2+z
2/3+x,1/3+y,1/3+z
2/3-y,1/3+x-y,1/3+z
2/3-x+y,1/3-x,1/3+z
2/3+x-y,1/3-y,5/6-z
2/3-x,1/3-x+y,5/6-z
2/3+y,1/3+x,5/6-z
2/3-x,1/3-y,1/3-z
2/3+y,1/3-x+y,1/3-z
2/3+x-y,1/3+x,1/3-z
2/3-x+y,1/3+y,5/6+z
2/3+x,1/3+x-y,5/6+z
2/3-y,1/3-x,5/6+z
1/3+x,2/3+y,2/3+z
1/3-y,2/3+x-y,2/3+z
1/3-x+y,2/3-x,2/3+z
1/3+x-y,2/3-y,1/6-z
1/3-x,2/3-x+y,1/6-z
1/3+y,2/3+x,1/6-z
1/3-x,2/3-y,2/3-z
1/3+y,2/3-x+y,2/3-z
1/3+x-y,2/3+x,2/3-z
1/3-x+y,2/3+y,1/6+z
1/3+x,2/3+x-y,1/6+z
1/3-y,2/3-x,1/6+z
loop_
_atom_site_type_symbol
_atom_site_label
_atom_site_fract_x
_atom_site_fract_y
_atom_site_fract_z
Si Si1 0.318777 0.107358 0.852140
Si Si2 0.356611 0.492073 0.301965
Si Si3 0.012552 0.345885 0.416667
Si Si4 0.906354 0.000000 0.750000
Si Si5 0.400630 0.836806 0.145310
O O1 0.333334 0.075690 0.916667
O O2 0.243090 0.121733 0.864002
O O3 0.291339 0.040792 0.799905
O O4 0.400214 0.190735 0.829298
O O5 0.333041 0.397860 0.289773
O O6 0.323250 0.512697 0.361797
O O7 0.317613 0.517850 0.248780
O O8 0.000000 0.080975 0.750000
O O9 0.458744 0.796670 0.138003
#
# Coordination Sequence:
#
# PCOD8324386 Si02
#       5
#    36  36  18  18  36
#     4  11  21  43  68  94 141 176 227 287 351 421
#     4  11  23  47  65 100 140 177 234 287 353 424
#     4  10  24  39  69 104 126 182 228 288 354 413
#     4  10  28  45  67  96 140 190 226 284 354 423
#     4  11  23  40  70 101 134 181 232 289 349 417
#
# _framework density 21.390163999999999
#
# number of rings (size 3 to 8) (size 9 to 14) (size 15 to 20)
#    0.250    1.000    3.750    1.750    7.000    0.000 
#    0.000    2.500    0.000    0.000    0.000    0.000 
#    0.000    0.000    0.000    0.000    0.000    0.000 
#
# Total GULP energy -594720.329615 kJ/mol
# GULP energy per Si atom -12390.006867 kJ/mol
# Density = 2.134148 g / cm^3
# Si number density = 21.390164 Si / 1000 Ang^3
#
#
#
# Elastic Constant Matrix: (Units=GPa)
#
#
# Indices 1 2 3 4 5 6 
#
# 1 60.4942 14.1262 51.2279 8.2551 0.0003 0.0000
# 2 14.1262 60.4942 51.2279 -8.2551 -0.0003 0.0000
# 3 51.2279 51.2279 152.0805 0.0000 0.0000 0.0000
# 4 8.2551 -8.2551 0.0000 33.7244 0.0000 -0.0003
# 5 0.0003 -0.0003 0.0000 0.0000 33.7244 8.2551
# 6 0.0000 0.0000 0.0000 -0.0003 8.2551 23.1840
#
#
#
# Elastic Compliance Matrix: (Units=1/GPa)
#
#
# Indices 1 2 3 4 5 6 
#
# 1 0.024279 0.000653 -0.008398 -0.005783 0.000000 0.000000
# 2 0.000653 0.024279 -0.008398 0.005783 0.000000 0.000000
# 3 -0.008398 -0.008398 0.012233 0.000000 0.000000 0.000000
# 4 -0.005783 0.005783 0.000000 0.032483 0.000000 0.000000
# 5 0.000000 0.000000 0.000000 0.000000 0.032483 -0.011566
# 6 0.000000 0.000000 0.000000 0.000000 -0.011566 0.047252
#
#
# Mechanical properties :
#
#
# Convention : Reuss Voigt Hill
#
# Bulk Modulus (GPa) = 35.08204 56.24812 45.66508
# Shear Modulus (GPa) = 23.27758 28.55898 25.91828
#
# Velocity S-wave (km/s) = 3.30242 3.65793 3.48471
# Velocity P-wave (km/s) = 5.56578 6.64785 6.13074
#
# Compressibility (1/GPa) = 0.02850461
#
# Stress axis : x y z
#
# Youngs Moduli (GPa) = 41.18760 41.18760 81.74312
#
# Poissons Ratio (x) = -0.02691 0.68651
# Poissons Ratio (y) = -0.02691 0.68651
# Poissons Ratio (z) = 0.34591 0.34591
#
# Static dielectric constant tensor:
#      x y z
#    x 3.852770 0.000000 0.000000 
#    y 0.000000 3.852770 0.000000 
#    z 0.000000 0.000000 4.189550 
# 
# 
# High freq. dielectric constant tensor:
#      x y z
#    x 1.835060 0.000000 0.000000 
#    y 0.000000 1.835060 0.000000 
#    z 0.000000 0.000000 1.850510 
# 
# From -- ./inp_files/4380.got.cif
#   From: 2010.03.12/outbox.cif.g09.slc.cpg/sg167_3_cif.got.tgz:4380.got - 2010.04.02 06:42:56.
