data_PCOD8324324
_publ_section_title
;
Structure prediction by ZEFSAII (Michael W. Deem and Ramdas Pophale) SiO2 
 PCOD8324324
Probable space group: R -3 C 
;
_chemical_formula_sum "Si O2"
_cell_formula_units_Z 84
_cell_length_a 15.141933
_cell_length_b 15.141933
_cell_length_c 18.123921
_cell_angle_alpha 90.000000
_cell_angle_beta 90.000000
_cell_angle_gamma 120.000000
_cell_volume 3598.698249
_symmetry_space_group_name_H-M "R -3 C "
_symmetry_group_IT_number 167
_symmetry_cell_setting 'hexagonal'
loop_
_space_group_symop_operation_xyz
x,y,z
-y,x-y,z
-x+y,-x,z
x-y,-y,1/2-z
-x,-x+y,1/2-z
y,x,1/2-z
-x,-y,-z
y,-x+y,-z
x-y,x,-z
-x+y,y,1/2+z
x,x-y,1/2+z
-y,-x,1/2+z
2/3+x,1/3+y,1/3+z
2/3-y,1/3+x-y,1/3+z
2/3-x+y,1/3-x,1/3+z
2/3+x-y,1/3-y,5/6-z
2/3-x,1/3-x+y,5/6-z
2/3+y,1/3+x,5/6-z
2/3-x,1/3-y,1/3-z
2/3+y,1/3-x+y,1/3-z
2/3+x-y,1/3+x,1/3-z
2/3-x+y,1/3+y,5/6+z
2/3+x,1/3+x-y,5/6+z
2/3-y,1/3-x,5/6+z
1/3+x,2/3+y,2/3+z
1/3-y,2/3+x-y,2/3+z
1/3-x+y,2/3-x,2/3+z
1/3+x-y,2/3-y,1/6-z
1/3-x,2/3-x+y,1/6-z
1/3+y,2/3+x,1/6-z
1/3-x,2/3-y,2/3-z
1/3+y,2/3-x+y,2/3-z
1/3+x-y,2/3+x,2/3-z
1/3-x+y,2/3+y,1/6+z
1/3+x,2/3+x-y,1/6+z
1/3-y,2/3-x,1/6+z
loop_
_atom_site_type_symbol
_atom_site_label
_atom_site_fract_x
_atom_site_fract_y
_atom_site_fract_z
Si Si1 0.666668 0.333334 0.746202
Si Si2 0.059261 0.505574 0.898872
Si Si3 0.869920 0.517362 0.468310
O O1 0.666668 0.333335 0.833334
O O2 0.707912 0.261542 0.716372
O O3 0.150603 0.483936 0.916667
O O4 0.075564 0.564853 0.820259
O O5 0.950667 0.398034 0.899807
O O6 0.064737 0.583221 0.961420
#
# Coordination Sequence:
#
# PCOD8324324 Si02
#       3
#    12  36  36
#     4  12  24  40  62  94 132 174 223 275 337 414
#     4  10  20  39  68  92 125 168 220 274 335 407
#     4  10  22  39  64  98 124 167 223 274 332 404
#
# _framework density 23.341773
#
# number of rings (size 3 to 8) (size 9 to 14) (size 15 to 20)
#    0.000    1.714    4.286    0.000    0.000    3.429 
#    0.000    0.000    0.000    0.000    0.000    0.000 
#    0.000    0.000    0.000    0.000    0.000    0.000 
#
# Total GULP energy -346871.469801 kJ/mol
# GULP energy per Si atom -12388.266779 kJ/mol
# Density = 2.328865 g / cm^3
# Si number density = 23.341773 Si / 1000 Ang^3
#
#
#
# Elastic Constant Matrix: (Units=GPa)
#
#
# Indices 1 2 3 4 5 6 
#
# 1 121.2550 62.2482 38.2990 -12.1530 0.0001 0.0000
# 2 62.2482 121.2569 38.3003 12.1526 -0.0001 0.0000
# 3 38.2990 38.3003 56.6425 -0.0004 0.0000 0.0000
# 4 -12.1530 12.1526 -0.0004 23.2418 0.0000 -0.0001
# 5 0.0001 -0.0001 0.0000 0.0000 23.2416 -12.1526
# 6 0.0000 0.0000 0.0000 -0.0001 -12.1526 29.5041
#
#
#
# Elastic Compliance Matrix: (Units=1/GPa)
#
#
# Indices 1 2 3 4 5 6 
#
# 1 0.014596 -0.007003 -0.005133 0.011294 0.000000 0.000000
# 2 -0.007003 0.014596 -0.005134 -0.011294 0.000000 0.000000
# 3 -0.005133 -0.005134 0.024597 0.000001 0.000000 0.000000
# 4 0.011294 -0.011294 0.000001 0.054837 0.000000 0.000000
# 5 0.000000 0.000000 0.000000 0.000000 0.054837 0.022587
# 6 0.000000 0.000000 0.000000 0.000000 0.022587 0.043197
#
#
# Mechanical properties :
#
#
# Convention : Reuss Voigt Hill
#
# Bulk Modulus (GPa) = 51.95609 64.09436 58.02522
# Shear Modulus (GPa) = 20.19258 25.88461 23.03860
#
# Velocity S-wave (km/s) = 2.94442 3.33369 3.14508
# Velocity P-wave (km/s) = 5.81951 6.50666 6.17265
#
# Compressibility (1/GPa) = 0.01924702
#
# Stress axis : x y z
#
# Youngs Moduli (GPa) = 68.51370 68.51363 40.65524
#
# Poissons Ratio (x) = 0.47982 0.20870
# Poissons Ratio (y) = 0.47982 0.20873
# Poissons Ratio (z) = 0.35171 0.35175
#
# Static dielectric constant tensor:
#      x y z
#    x 4.310520 0.000000 0.000000 
#    y 0.000000 4.310500 0.000000 
#    z 0.000000 0.000000 4.016620 
# 
# 
# High freq. dielectric constant tensor:
#      x y z
#    x 1.922650 0.000000 0.000000 
#    y 0.000000 1.922650 0.000000 
#    z 0.000000 0.000000 1.884560 
# 
# From -- ./inp_files/1870.got.cif
#   From: 2010.03.12/outbox.cif.g09.slc.cpg/sg167_1_cif.got.tgz:1870.got - 2010.04.02 06:42:56.
