data_PCOD8324892
_publ_section_title
;
Structure prediction by ZEFSAII (Michael W. Deem and Ramdas Pophale) SiO2 
 PCOD8324892
Probable space group: P 63
;
_chemical_formula_sum "Si O2"
_cell_formula_units_Z 40
_cell_length_a 10.827369
_cell_length_b 10.827369
_cell_length_c 17.256653
_cell_angle_alpha 90.000000
_cell_angle_beta 90.000000
_cell_angle_gamma 120.000000
_cell_volume 1751.995853
_symmetry_space_group_name_H-M "P 63"
_symmetry_group_IT_number 173
_symmetry_cell_setting 'hexagonal'
loop_
_space_group_symop_operation_xyz
x,y,z
x-y,x,1/2+z
-y,x-y,z
-x,-y,1/2+z
-x+y,-x,z
y,-x+y,1/2+z
loop_
_atom_site_type_symbol
_atom_site_label
_atom_site_fract_x
_atom_site_fract_y
_atom_site_fract_z
Si Si1 0.124458 0.306529 0.315480
Si Si2 0.613548 0.627712 0.731510
Si Si3 0.000000 0.000000 0.569585
Si Si4 0.000000 0.000000 0.384997
Si Si5 0.586618 0.932490 0.543665
Si Si6 0.320475 0.126792 0.583068
Si Si7 0.394202 0.313554 0.968941
Si Si8 0.397513 0.096638 0.214026
O O1 0.292210 0.390770 0.297536
O O2 0.086286 0.158578 0.353691
O O3 0.082430 0.395229 0.375412
O O4 0.043391 0.287745 0.232884
O O5 0.679121 0.614239 0.647985
O O6 0.452609 0.510245 0.749254
O O7 0.613547 0.773359 0.749311
O O8 0.000000 0.000000 0.477326
O O9 0.157421 0.072148 0.605613
O O10 0.643582 0.846306 0.493889
O O11 0.443286 0.903873 0.501553
O O12 0.552542 0.856812 0.626466
O O13 0.702662 0.099011 0.564433
O O14 0.332977 0.067156 0.499966
#
# Coordination Sequence:
#
# PCOD8324892 Si02
#       8
#     6   6   2   2   6   6   6   6
#     4  12  27  45  72 109 151 195 254 330 386 453
#     4  12  26  46  74 112 153 196 255 314 390 462
#     4  12  21  40  74 109 138 184 251 322 369 439
#     4  12  21  43  74 106 144 181 254 334 375 442
#     4  12  24  46  75 104 144 199 251 309 377 471
#     4  12  22  42  77 105 142 188 253 311 376 455
#     4  12  27  46  71 108 148 199 254 315 387 463
#     4  12  24  46  73 107 148 198 248 311 386 467
#
# _framework density 22.831105000000001
#
# number of rings (size 3 to 8) (size 9 to 14) (size 15 to 20)
#    0.000    0.000    9.000    0.600    2.100    0.000 
#    1.800    1.500    0.000    0.000    0.000    0.000 
#    0.000    0.000    0.000    0.000    0.000    0.000 
#
# Total GULP energy -495633.601624 kJ/mol
# GULP energy per Si atom -12390.840041 kJ/mol
# Density = 2.277914 g / cm^3
# Si number density = 22.831105 Si / 1000 Ang^3
#
#
#
# Elastic Constant Matrix: (Units=GPa)
#
#
# Indices 1 2 3 4 5 6 
#
# 1 91.6252 17.2152 26.2823 0.0000 0.0000 0.0000
# 2 17.2152 91.6252 26.2823 0.0000 0.0000 0.0000
# 3 26.2823 26.2823 95.1880 0.0000 0.0000 0.0000
# 4 0.0000 0.0000 0.0000 30.5729 0.0000 0.0000
# 5 0.0000 0.0000 0.0000 0.0000 30.5729 0.0000
# 6 0.0000 0.0000 0.0000 0.0000 0.0000 37.2050
#
#
#
# Elastic Compliance Matrix: (Units=1/GPa)
#
#
# Indices 1 2 3 4 5 6 
#
# 1 0.012020 -0.001419 -0.002927 0.000000 0.000000 0.000000
# 2 -0.001419 0.012020 -0.002927 0.000000 0.000000 0.000000
# 3 -0.002927 -0.002927 0.012122 0.000000 0.000000 0.000000
# 4 0.000000 0.000000 0.000000 0.032709 0.000000 0.000000
# 5 0.000000 0.000000 0.000000 0.000000 0.032709 0.000000
# 6 0.000000 0.000000 0.000000 0.000000 0.000000 0.026878
#
#
# Mechanical properties :
#
#
# Convention : Reuss Voigt Hill
#
# Bulk Modulus (GPa) = 46.26157 46.44421 46.35289
# Shear Modulus (GPa) = 33.28684 33.58075 33.43380
#
# Velocity S-wave (km/s) = 3.82247 3.83931 3.83090
# Velocity P-wave (km/s) = 6.30779 6.32775 6.31777
#
# Compressibility (1/GPa) = 0.02161621
#
# Stress axis : x y z
#
# Youngs Moduli (GPa) = 83.19301 83.19301 82.49499
#
# Poissons Ratio (x) = 0.11803 0.24148
# Poissons Ratio (y) = 0.11803 0.24148
# Poissons Ratio (z) = 0.24352 0.24352
#
# Static dielectric constant tensor:
#      x y z
#    x 4.164950 0.000000 0.000000 
#    y 0.000000 4.164950 0.000000 
#    z 0.000000 0.000000 4.367950 
# 
# 
# High freq. dielectric constant tensor:
#      x y z
#    x 1.900130 0.000000 0.000000 
#    y 0.000000 1.900130 0.000000 
#    z 0.000000 0.000000 1.903080 
# 
# From -- ./inp_files/1322.got.cif
#   From: 2010.03.12/outbox.cif.g09.slc.cpg/sg173_cif.got.tgz:1322.got - 2010.04.02 06:54:12.
