data_PCOD8324784
_publ_section_title
;
Structure prediction by ZEFSAII (Michael W. Deem and Ramdas Pophale) SiO2 
 PCOD8324784
Probable space group: P 62
;
_chemical_formula_sum "Si O2"
_cell_formula_units_Z 39
_cell_length_a 12.302731
_cell_length_b 12.302731
_cell_length_c 13.914502
_cell_angle_alpha 90.000000
_cell_angle_beta 90.000000
_cell_angle_gamma 120.000000
_cell_volume 1823.901396
_symmetry_space_group_name_H-M "P 62"
_symmetry_group_IT_number 171
_symmetry_cell_setting 'hexagonal'
loop_
_space_group_symop_operation_xyz
x,y,z
x-y,x,1/3+z
-y,x-y,2/3+z
-x,-y,z
-x+y,-x,1/3+z
y,-x+y,2/3+z
loop_
_atom_site_type_symbol
_atom_site_label
_atom_site_fract_x
_atom_site_fract_y
_atom_site_fract_z
Si Si1 0.927100 0.196285 0.243270
Si Si2 0.220183 0.692143 0.148966
Si Si3 0.496316 0.790979 0.112564
Si Si4 0.170732 0.392829 0.630254
Si Si5 0.116045 0.137907 0.712226
Si Si6 0.527110 0.630919 0.954759
Si Si7 0.500000 0.500000 0.333078
O O1 0.817971 0.224715 0.213994
O O2 0.970678 0.137783 0.158274
O O3 0.051350 0.325530 0.272632
O O4 0.866606 0.099662 0.331324
O O5 0.365222 0.740701 0.167207
O O6 0.145316 0.547219 0.184966
O O7 0.194793 0.716281 0.038395
O O8 0.604456 0.826020 0.190801
O O9 0.476033 0.690706 0.031071
O O10 0.543643 0.923508 0.065088
O O11 0.096473 0.246882 0.662510
O O12 0.086733 0.458894 0.608815
O O13 0.000000 0.000000 0.695553
O O14 0.500000 0.500000 0.001434
#
# Coordination Sequence:
#
# PCOD8324784 Si02
#       7
#     6   6   6   6   6   6   3
#     4  10  24  43  65  95 131 175 222 278 326 402
#     4   9  20  44  64  95 130 168 218 270 337 397
#     4  11  23  40  69  97 132 172 217 282 335 401
#     4  10  24  40  68  95 131 173 220 277 333 402
#     4  11  25  43  64  91 130 177 227 270 329 398
#     4  10  23  42  65  97 133 172 221 272 337 401
#     4  10  24  44  62 100 134 162 226 274 338 406
#
# _framework density 21.382733999999999
#
# number of rings (size 3 to 8) (size 9 to 14) (size 15 to 20)
#    0.000    1.846    0.000    2.308    9.692    4.923 
#    4.154    0.000    0.000    0.000    0.000    0.000 
#    0.000    0.000    0.000    0.000    0.000    0.000 
#
# Total GULP energy -483375.460061 kJ/mol
# GULP energy per Si atom -12394.242566 kJ/mol
# Density = 2.133407 g / cm^3
# Si number density = 21.382734 Si / 1000 Ang^3
#
#
#
# Elastic Constant Matrix: (Units=GPa)
#
#
# Indices 1 2 3 4 5 6 
#
# 1 96.5369 20.2642 29.5818 0.0000 0.0000 0.0000
# 2 20.2642 96.5369 29.5818 0.0000 0.0000 0.0000
# 3 29.5818 29.5818 78.3152 0.0000 0.0000 0.0000
# 4 0.0000 0.0000 0.0000 23.8450 0.0000 0.0000
# 5 0.0000 0.0000 0.0000 0.0000 23.8450 0.0000
# 6 0.0000 0.0000 0.0000 0.0000 0.0000 38.1364
#
#
#
# Elastic Compliance Matrix: (Units=1/GPa)
#
#
# Indices 1 2 3 4 5 6 
#
# 1 0.011849 -0.001262 -0.003999 0.000000 0.000000 0.000000
# 2 -0.001262 0.011849 -0.003999 0.000000 0.000000 0.000000
# 3 -0.003999 -0.003999 0.015790 0.000000 0.000000 0.000000
# 4 0.000000 0.000000 0.000000 0.041937 0.000000 0.000000
# 5 0.000000 0.000000 0.000000 0.000000 0.041937 0.000000
# 6 0.000000 0.000000 0.000000 0.000000 0.000000 0.026222
#
#
# Mechanical properties :
#
#
# Convention : Reuss Voigt Hill
#
# Bulk Modulus (GPa) = 47.69138 47.80497 47.74818
# Shear Modulus (GPa) = 28.55607 29.96270 29.25938
#
# Velocity S-wave (km/s) = 3.65838 3.74740 3.70315
# Velocity P-wave (km/s) = 6.34012 6.41321 6.37677
#
# Compressibility (1/GPa) = 0.02096815
#
# Stress axis : x y z
#
# Youngs Moduli (GPa) = 84.39503 84.39503 63.33105
#
# Poissons Ratio (x) = 0.10649 0.25327
# Poissons Ratio (y) = 0.10649 0.25327
# Poissons Ratio (z) = 0.33750 0.33750
#
# Static dielectric constant tensor:
#      x y z
#    x 3.904110 0.000000 0.000000 
#    y 0.000000 3.904110 0.000000 
#    z 0.000000 0.000000 3.713450 
# 
# 
# High freq. dielectric constant tensor:
#      x y z
#    x 1.844660 0.000000 0.000000 
#    y 0.000000 1.844660 0.000000 
#    z 0.000000 0.000000 1.829160 
# 
# From -- ./inp_files/2003.got.cif
#   From: 2010.03.12/outbox.cif.g09.slc.cpg/sg171_2_cif.got.tgz:2003.got - 2010.04.02 06:49:11.
