data_PCOD8324387
_publ_section_title
;
Structure prediction by ZEFSAII (Michael W. Deem and Ramdas Pophale) SiO2 
 PCOD8324387
Probable space group: R -3 C 
;
_chemical_formula_sum "Si O2"
_cell_formula_units_Z 162
_cell_length_a 21.710397
_cell_length_b 21.710397
_cell_length_c 18.431320
_cell_angle_alpha 90.000000
_cell_angle_beta 90.000000
_cell_angle_gamma 120.000000
_cell_volume 7523.546356
_symmetry_space_group_name_H-M "R -3 C "
_symmetry_group_IT_number 167
_symmetry_cell_setting 'hexagonal'
loop_
_space_group_symop_operation_xyz
x,y,z
-y,x-y,z
-x+y,-x,z
x-y,-y,1/2-z
-x,-x+y,1/2-z
y,x,1/2-z
-x,-y,-z
y,-x+y,-z
x-y,x,-z
-x+y,y,1/2+z
x,x-y,1/2+z
-y,-x,1/2+z
2/3+x,1/3+y,1/3+z
2/3-y,1/3+x-y,1/3+z
2/3-x+y,1/3-x,1/3+z
2/3+x-y,1/3-y,5/6-z
2/3-x,1/3-x+y,5/6-z
2/3+y,1/3+x,5/6-z
2/3-x,1/3-y,1/3-z
2/3+y,1/3-x+y,1/3-z
2/3+x-y,1/3+x,1/3-z
2/3-x+y,1/3+y,5/6+z
2/3+x,1/3+x-y,5/6+z
2/3-y,1/3-x,5/6+z
1/3+x,2/3+y,2/3+z
1/3-y,2/3+x-y,2/3+z
1/3-x+y,2/3-x,2/3+z
1/3+x-y,2/3-y,1/6-z
1/3-x,2/3-x+y,1/6-z
1/3+y,2/3+x,1/6-z
1/3-x,2/3-y,2/3-z
1/3+y,2/3-x+y,2/3-z
1/3+x-y,2/3+x,2/3-z
1/3-x+y,2/3+y,1/6+z
1/3+x,2/3+x-y,1/6+z
1/3-y,2/3-x,1/6+z
loop_
_atom_site_type_symbol
_atom_site_label
_atom_site_fract_x
_atom_site_fract_y
_atom_site_fract_z
Si Si1 0.540496 0.387778 0.428600
Si Si2 0.922225 0.294427 0.152710
Si Si3 0.333334 0.079678 0.916667
Si Si4 0.124520 0.650923 0.501891
Si Si5 0.566473 0.435476 0.264040
O O1 0.476327 0.398275 0.458337
O O2 0.608913 0.443504 0.474410
O O3 0.550566 0.400567 0.342753
O O4 0.526662 0.307332 0.438099
O O5 0.910382 0.333334 0.083334
O O6 0.991797 0.362033 0.183749
O O7 0.939770 0.231129 0.139542
O O8 0.268066 0.088227 0.939688
O O9 0.130857 0.666667 0.416667
O O10 0.166708 0.725588 0.543739
#
# Coordination Sequence:
#
# PCOD8324387 Si02
#       5
#    36  36  18  36  36
#     4  11  25  48  68 102 138 190 239 298 358 425
#     4  11  25  43  69 105 145 181 234 298 370 425
#     4  10  24  40  68 104 138 178 222 294 360 424
#     4  12  27  43  72 104 139 191 240 295 354 430
#     4  11  25  44  72  98 143 184 241 291 359 425
#
# _framework density 21.532398000000001
#
# number of rings (size 3 to 8) (size 9 to 14) (size 15 to 20)
#    0.000    0.889    3.333    2.000   14.000    0.000 
#    1.333    1.111    0.000    0.000    0.000    0.000 
#    0.000    0.000    0.000    0.000    0.000    0.000 
#
# Total GULP energy -669114.823472 kJ/mol
# GULP energy per Si atom -12391.015249 kJ/mol
# Density = 2.148339 g / cm^3
# Si number density = 21.532398 Si / 1000 Ang^3
#
#
#
# Elastic Constant Matrix: (Units=GPa)
#
#
# Indices 1 2 3 4 5 6 
#
# 1 84.6735 22.7456 19.3652 -4.0499 0.0002 0.0000
# 2 22.7456 84.6735 19.3652 4.0499 -0.0002 0.0000
# 3 19.3652 19.3652 100.5225 0.0000 0.0000 0.0000
# 4 -4.0499 4.0499 0.0000 37.4427 0.0000 -0.0002
# 5 0.0002 -0.0002 0.0000 0.0000 37.4427 -4.0499
# 6 0.0000 0.0000 0.0000 -0.0002 -4.0499 30.9639
#
#
#
# Elastic Compliance Matrix: (Units=1/GPa)
#
#
# Indices 1 2 3 4 5 6 
#
# 1 0.013192 -0.003188 -0.001927 0.001772 0.000000 0.000000
# 2 -0.003188 0.013192 -0.001927 -0.001772 0.000000 0.000000
# 3 -0.001927 -0.001927 0.010691 0.000000 0.000000 0.000000
# 4 0.001772 -0.001772 0.000000 0.027091 0.000000 0.000000
# 5 0.000000 0.000000 0.000000 0.000000 0.027091 0.003543
# 6 0.000000 0.000000 0.000000 0.000000 0.003543 0.032759
#
#
# Mechanical properties :
#
#
# Convention : Reuss Voigt Hill
#
# Bulk Modulus (GPa) = 43.49728 43.64684 43.57206
# Shear Modulus (GPa) = 34.30235 35.06276 34.68255
#
# Velocity S-wave (km/s) = 3.99564 4.03969 4.01773
# Velocity P-wave (km/s) = 6.44450 6.48638 6.46547
#
# Compressibility (1/GPa) = 0.02298994
#
# Stress axis : x y z
#
# Youngs Moduli (GPa) = 75.80420 75.80420 93.54027
#
# Poissons Ratio (x) = 0.24164 0.18028
# Poissons Ratio (y) = 0.24164 0.18028
# Poissons Ratio (z) = 0.14609 0.14609
#
# Static dielectric constant tensor:
#      x y z
#    x 4.310130 0.000000 0.000000 
#    y 0.000000 4.310130 0.000000 
#    z 0.000000 0.000000 3.607750 
# 
# 
# High freq. dielectric constant tensor:
#      x y z
#    x 1.846570 0.000000 0.000000 
#    y 0.000000 1.846570 0.000000 
#    z 0.000000 0.000000 1.854870 
# 
# From -- ./inp_files/3416.got.cif
#   From: 2010.03.12/outbox.cif.g09.slc.cpg/sg167_2_cif.got.tgz:3416.got - 2010.04.02 06:42:56.
