data_PCOD8324989
_publ_section_title
;
Structure prediction by ZEFSAII (Michael W. Deem and Ramdas Pophale) SiO2 
 PCOD8324989
Probable space group: P -6
;
_chemical_formula_sum "Si O2"
_cell_formula_units_Z 32
_cell_length_a 14.924383
_cell_length_b 14.924383
_cell_length_c 8.939399
_cell_angle_alpha 90.000000
_cell_angle_beta 90.000000
_cell_angle_gamma 120.000000
_cell_volume 1724.375029
_symmetry_space_group_name_H-M "P -6"
_symmetry_group_IT_number 174
_symmetry_cell_setting 'hexagonal'
loop_
_space_group_symop_operation_xyz
x,y,z
-x+y,-x,-z
-y,x-y,z
x,y,-z
-x+y,-x,z
-y,x-y,-z
loop_
_atom_site_type_symbol
_atom_site_label
_atom_site_fract_x
_atom_site_fract_y
_atom_site_fract_z
Si Si1 0.872333 0.908264 0.668271
Si Si2 0.813121 0.248272 0.677806
Si Si3 0.333335 0.666667 0.322674
Si Si4 0.491991 0.598006 0.677735
Si Si5 0.276052 0.983922 0.175153
Si Si6 0.893790 0.479506 0.675896
O O1 0.828045 0.875661 0.500000
O O2 0.781173 0.844960 0.786435
O O3 0.917845 0.031527 0.691076
O O4 0.823852 0.241490 0.500000
O O5 0.900808 0.233680 0.757143
O O6 0.829338 0.359872 0.724800
O O7 0.701735 0.160539 0.742138
O O8 0.333334 0.666668 0.500000
O O9 0.215361 0.601374 0.264246
O O10 0.505978 0.610722 0.500000
O O11 0.597066 0.685744 0.750906
O O12 0.470510 0.484185 0.727912
O O13 0.294003 0.987151 0.000000
O O14 0.888587 0.486421 0.500000
#
# Coordination Sequence:
#
# PCOD8324989 Si02
#       6
#     6   6   2   6   6   6
#     4   8  17  35  57  77  97 126 168 213 255 304
#     4   9  16  29  50  74 104 137 178 223 263 312
#     4   9  18  36  61  83 103 135 187 248 289 306
#     4   9  18  35  56  77 104 137 181 232 276 318
#     4  11  21  33  50  76 110 145 172 207 263 325
#     4   8  14  26  48  75 100 132 174 223 270 311
#
# _framework density 18.557448999999998
#
# number of rings (size 3 to 8) (size 9 to 14) (size 15 to 20)
#    0.375    2.625    0.000    3.188    0.000    2.250 
#    3.375    4.688    0.000    0.000    0.000    0.000 
#    0.000    0.000    0.000    0.000    0.000    0.000 
#
# Total GULP energy -396552.478451 kJ/mol
# GULP energy per Si atom -12392.264952 kJ/mol
# Density = 1.851521 g / cm^3
# Si number density = 18.557449 Si / 1000 Ang^3
#
#
#
# Elastic Constant Matrix: (Units=GPa)
#
#
# Indices 1 2 3 4 5 6 
#
# 1 102.3833 54.2764 22.0032 0.0000 0.0000 -0.0004
# 2 54.2764 102.3852 22.0042 0.0000 0.0000 0.0000
# 3 22.0032 22.0042 48.6537 0.0000 0.0000 0.0000
# 4 0.0000 0.0000 0.0000 8.8950 0.0001 0.0000
# 5 0.0000 0.0000 0.0000 0.0001 8.8948 0.0000
# 6 -0.0004 0.0000 0.0000 0.0000 0.0000 24.0534
#
#
#
# Elastic Compliance Matrix: (Units=1/GPa)
#
#
# Indices 1 2 3 4 5 6 
#
# 1 0.014049 -0.006737 -0.003307 0.000000 0.000000 0.000000
# 2 -0.006737 0.014049 -0.003307 0.000000 0.000000 0.000000
# 3 -0.003307 -0.003307 0.023545 0.000000 0.000000 0.000000
# 4 0.000000 0.000000 0.000000 0.112422 -0.000001 0.000000
# 5 0.000000 0.000000 0.000000 -0.000001 0.112425 0.000000
# 6 0.000000 0.000000 0.000000 0.000000 0.000000 0.041574
#
#
# Mechanical properties :
#
#
# Convention : Reuss Voigt Hill
#
# Bulk Modulus (GPa) = 40.09436 49.99884 45.04660
# Shear Modulus (GPa) = 14.16107 18.71121 16.43614
#
# Velocity S-wave (km/s) = 2.76541 3.17880 2.97928
# Velocity P-wave (km/s) = 5.64350 6.36194 6.01346
#
# Compressibility (1/GPa) = 0.02494116
#
# Stress axis : x y z
#
# Youngs Moduli (GPa) = 71.17707 71.17780 42.47265
#
# Poissons Ratio (x) = 0.47954 0.14045
# Poissons Ratio (y) = 0.47954 0.14046
# Poissons Ratio (z) = 0.23537 0.23539
#
# Static dielectric constant tensor:
#      x y z
#    x 3.483350 0.000010 0.000000 
#    y 0.000010 3.483350 0.000000 
#    z 0.000000 0.000000 2.970780 
# 
# 
# High freq. dielectric constant tensor:
#      x y z
#    x 1.714020 0.000000 0.000000 
#    y 0.000000 1.714020 0.000000 
#    z 0.000000 0.000000 1.677110 
# 
# From -- ./inp_files/329.got.cif
#   From: 2010.03.12/outbox.cif.g09.slc.cpg/sg174_cif.got.tgz:329.got - 2010.04.02 06:54:58.
