data_PCOD8324148
_publ_section_title
;
Structure prediction by ZEFSAII (Michael W. Deem and Ramdas Pophale) SiO2 
 PCOD8324148
Probable space group: R -3 M
;
_chemical_formula_sum "Si O2"
_cell_formula_units_Z 90
_cell_length_a 17.172860
_cell_length_b 17.172860
_cell_length_c 18.911167
_cell_angle_alpha 90.000000
_cell_angle_beta 90.000000
_cell_angle_gamma 120.000000
_cell_volume 4829.856419
_symmetry_space_group_name_H-M "R -3 M"
_symmetry_group_IT_number 166
_symmetry_cell_setting 'hexagonal'
loop_
_space_group_symop_operation_xyz
x,y,z
-y,x-y,z
-x+y,-x,z
x-y,-y,-z
-x,-x+y,-z
y,x,-z
-x,-y,-z
y,-x+y,-z
x-y,x,-z
-x+y,y,z
x,x-y,z
-y,-x,z
2/3+x,1/3+y,1/3+z
2/3-y,1/3+x-y,1/3+z
2/3-x+y,1/3-x,1/3+z
2/3+x-y,1/3-y,1/3-z
2/3-x,1/3-x+y,1/3-z
2/3+y,1/3+x,1/3-z
2/3-x,1/3-y,1/3-z
2/3+y,1/3-x+y,1/3-z
2/3+x-y,1/3+x,1/3-z
2/3-x+y,1/3+y,1/3+z
2/3+x,1/3+x-y,1/3+z
2/3-y,1/3-x,1/3+z
1/3+x,2/3+y,2/3+z
1/3-y,2/3+x-y,2/3+z
1/3-x+y,2/3-x,2/3+z
1/3+x-y,2/3-y,2/3-z
1/3-x,2/3-x+y,2/3-z
1/3+y,2/3+x,2/3-z
1/3-x,2/3-y,2/3-z
1/3+y,2/3-x+y,2/3-z
1/3+x-y,2/3+x,2/3-z
1/3-x+y,2/3+y,2/3+z
1/3+x,2/3+x-y,2/3+z
1/3-y,2/3-x,2/3+z
loop_
_atom_site_type_symbol
_atom_site_label
_atom_site_fract_x
_atom_site_fract_y
_atom_site_fract_z
Si Si1 0.359274 0.333334 0.333334
Si Si2 0.820849 0.820897 0.721827
Si Si3 0.512619 0.666747 0.551598
O O1 0.262119 0.245723 0.326369
O O2 0.402996 0.317370 0.402474
O O3 0.845273 0.922637 0.707767
O O4 0.794633 0.795060 0.803523
O O5 0.906169 0.812337 0.699692
O O6 0.488429 0.744215 0.566077
O O7 0.427181 0.572820 0.574362
#
# Coordination Sequence:
#
# PCOD8324148 Si02
#       3
#    18  36  36
#     4  12  21  32  51  80 110 132 164 212 263 304
#     4  10  21  37  55  75 101 136 175 211 250 300
#     4  10  20  34  53  77 106 138 170 206 251 305
#
# _framework density 18.634094999999999
#
# number of rings (size 3 to 8) (size 9 to 14) (size 15 to 20)
#    0.000    1.600    0.000    6.200    0.000    6.400 
#    0.000    2.000    0.000    0.000    0.000    0.000 
#    0.000   19.200    0.000    0.000    0.000    0.000 
#
# Total GULP energy -372182.745990 kJ/mol
# GULP energy per Si atom -12406.091533 kJ/mol
# Density = 1.859168 g / cm^3
# Si number density = 18.634095 Si / 1000 Ang^3
#
#
#
# Elastic Constant Matrix: (Units=GPa)
#
#
# Indices 1 2 3 4 5 6 
#
# 1 139.9377 62.8992 62.4790 5.7647 0.0006 0.0000
# 2 62.8992 139.9377 62.4790 -5.7647 -0.0006 0.0000
# 3 62.4790 62.4790 51.4998 0.0000 0.0000 0.0000
# 4 5.7647 -5.7647 0.0000 26.3729 0.0000 -0.0006
# 5 0.0006 -0.0006 0.0000 0.0000 26.3729 5.7647
# 6 0.0000 0.0000 0.0000 -0.0006 5.7647 38.5193
#
#
#
# Elastic Compliance Matrix: (Units=1/GPa)
#
#
# Indices 1 2 3 4 5 6 
#
# 1 0.016468 0.003048 -0.023677 -0.002933 0.000000 0.000000
# 2 0.003048 0.016468 -0.023677 0.002933 0.000000 0.000000
# 3 -0.023677 -0.023677 0.076867 0.000000 0.000000 0.000000
# 4 -0.002933 0.002933 0.000000 0.039200 0.000000 0.000001
# 5 0.000000 0.000000 0.000000 0.000000 0.039200 -0.005867
# 6 0.000000 0.000000 0.000000 0.000001 -0.005867 0.026839
#
#
# Mechanical properties :
#
#
# Convention : Reuss Voigt Hill
#
# Bulk Modulus (GPa) = 47.18855 78.56550 62.87702
# Shear Modulus (GPa) = 16.09182 27.82088 21.95635
#
# Velocity S-wave (km/s) = 2.94184 3.86814 3.43635
# Velocity P-wave (km/s) = 6.07602 7.88694 7.03995
#
# Compressibility (1/GPa) = 0.02119158
#
# Stress axis : x y z
#
# Youngs Moduli (GPa) = 60.72414 60.72414 13.00950
#
# Poissons Ratio (x) = -0.18511 0.30803
# Poissons Ratio (y) = -0.18511 0.30803
# Poissons Ratio (z) = 1.43776 1.43776
#
# Static dielectric constant tensor:
#      x y z
#    x 3.481760 0.000000 0.000000 
#    y 0.000000 3.481760 0.000000 
#    z 0.000000 0.000000 3.361450 
# 
# 
# High freq. dielectric constant tensor:
#      x y z
#    x 1.733390 0.000000 0.000000 
#    y 0.000000 1.733390 0.000000 
#    z 0.000000 0.000000 1.708870 
# 
# From -- ./inp_files/4691.got.cif
#   From: 2010.03.12/outbox.cif.g09.slc.cpg/sg166_3_cif.got.tgz:4691.got - 2010.04.02 06:38:31.
