data_PCOD8324278
_publ_section_title
;
Structure prediction by ZEFSAII (Michael W. Deem and Ramdas Pophale) SiO2 
 PCOD8324278
Probable space group: R -3 C 
;
_chemical_formula_sum "Si O2"
_cell_formula_units_Z 234
_cell_length_a 25.393104
_cell_length_b 25.393104
_cell_length_c 21.635700
_cell_angle_alpha 90.000000
_cell_angle_beta 90.000000
_cell_angle_gamma 120.000000
_cell_volume 12081.842372
_symmetry_space_group_name_H-M "R -3 C "
_symmetry_group_IT_number 167
_symmetry_cell_setting 'hexagonal'
loop_
_space_group_symop_operation_xyz
x,y,z
-y,x-y,z
-x+y,-x,z
x-y,-y,1/2-z
-x,-x+y,1/2-z
y,x,1/2-z
-x,-y,-z
y,-x+y,-z
x-y,x,-z
-x+y,y,1/2+z
x,x-y,1/2+z
-y,-x,1/2+z
2/3+x,1/3+y,1/3+z
2/3-y,1/3+x-y,1/3+z
2/3-x+y,1/3-x,1/3+z
2/3+x-y,1/3-y,5/6-z
2/3-x,1/3-x+y,5/6-z
2/3+y,1/3+x,5/6-z
2/3-x,1/3-y,1/3-z
2/3+y,1/3-x+y,1/3-z
2/3+x-y,1/3+x,1/3-z
2/3-x+y,1/3+y,5/6+z
2/3+x,1/3+x-y,5/6+z
2/3-y,1/3-x,5/6+z
1/3+x,2/3+y,2/3+z
1/3-y,2/3+x-y,2/3+z
1/3-x+y,2/3-x,2/3+z
1/3+x-y,2/3-y,1/6-z
1/3-x,2/3-x+y,1/6-z
1/3+y,2/3+x,1/6-z
1/3-x,2/3-y,2/3-z
1/3+y,2/3-x+y,2/3-z
1/3+x-y,2/3+x,2/3-z
1/3-x+y,2/3+y,1/6+z
1/3+x,2/3+x-y,1/6+z
1/3-y,2/3-x,1/6+z
loop_
_atom_site_type_symbol
_atom_site_label
_atom_site_fract_x
_atom_site_fract_y
_atom_site_fract_z
Si Si1 0.239263 0.223342 0.982820
Si Si2 0.984885 0.648557 0.513914
Si Si3 0.120378 0.466441 0.548362
Si Si4 0.670582 0.551334 0.684714
Si Si5 0.444967 0.538796 0.839839
Si Si6 0.000000 0.472944 0.750000
Si Si7 0.130379 0.263762 0.810710
O O1 0.271905 0.293704 0.002520
O O2 0.194653 0.211154 0.924191
O O3 0.287960 0.205476 0.958080
O O4 0.203675 0.187854 0.044410
O O5 0.960192 0.626858 0.583334
O O6 0.056823 0.671269 0.509276
O O7 0.942998 0.595276 0.466874
O O8 0.181053 0.471053 0.518693
O O9 0.112579 0.520271 0.520716
O O10 0.611817 0.488849 0.662244
O O11 0.727479 0.564880 0.643072
O O12 0.471212 0.506625 0.795969
O O13 0.440717 0.512271 0.908034
O O14 0.166667 0.333334 0.833334
#
# Coordination Sequence:
#
# PCOD8324278 Si02
#       7
#    36  36  36  36  36  18  36
#     4  10  20  37  56  82 120 153 198 235 289 357
#     4  10  18  35  51  82 116 152 192 237 286 344
#     4  12  25  34  57  88 121 153 193 253 295 349
#     4  10  22  40  62  78 114 162 197 241 296 357
#     4  11  24  40  55  84 120 155 197 242 295 359
#     4  10  20  38  56  80 114 160 196 232 294 354
#     4  12  24  38  60  86 116 152 203 248 300 358
#
# _framework density 19.367906999999999
#
# number of rings (size 3 to 8) (size 9 to 14) (size 15 to 20)
#    0.000    1.231    5.385    3.231    4.308    3.692 
#    0.000    0.000    0.000    0.615    0.000    2.154 
#    0.000    6.154    0.000    0.000    0.000    0.000 
#
# Total GULP energy -966735.406228 kJ/mol
# GULP energy per Si atom -12394.043670 kJ/mol
# Density = 1.932382 g / cm^3
# Si number density = 19.367907 Si / 1000 Ang^3
#
#
#
# Elastic Constant Matrix: (Units=GPa)
#
#
# Indices 1 2 3 4 5 6 
#
# 1 70.1788 24.4728 15.6396 -2.0239 0.0000 0.0000
# 2 24.4728 70.1788 15.6396 2.0239 0.0000 0.0000
# 3 15.6396 15.6396 126.5373 0.0000 0.0000 0.0000
# 4 -2.0239 2.0239 0.0000 20.9267 0.0000 0.0000
# 5 0.0000 0.0000 0.0000 0.0000 20.9267 -2.0239
# 6 0.0000 0.0000 0.0000 0.0000 -2.0239 22.8530
#
#
#
# Elastic Compliance Matrix: (Units=1/GPa)
#
#
# Indices 1 2 3 4 5 6 
#
# 1 0.016541 -0.005526 -0.001361 0.002134 0.000000 0.000000
# 2 -0.005526 0.016541 -0.001361 -0.002134 0.000000 0.000000
# 3 -0.001361 -0.001361 0.008239 0.000000 0.000000 0.000000
# 4 0.002134 -0.002134 0.000000 0.048199 0.000000 0.000000
# 5 0.000000 0.000000 0.000000 0.000000 0.048199 0.004269
# 6 0.000000 0.000000 0.000000 0.000000 0.004269 0.044136
#
#
# Mechanical properties :
#
#
# Convention : Reuss Voigt Hill
#
# Bulk Modulus (GPa) = 40.28422 42.04432 41.16427
# Shear Modulus (GPa) = 24.19801 27.01750 25.60776
#
# Velocity S-wave (km/s) = 3.53850 3.73897 3.64012
# Velocity P-wave (km/s) = 6.12693 6.35573 6.24238
#
# Compressibility (1/GPa) = 0.02482361
#
# Stress axis : x y z
#
# Youngs Moduli (GPa) = 60.45417 60.45417 121.36898
#
# Poissons Ratio (x) = 0.33410 0.16523
# Poissons Ratio (y) = 0.33410 0.16523
# Poissons Ratio (z) = 0.08230 0.08230
#
# Static dielectric constant tensor:
#      x y z
#    x 3.324240 0.000000 0.000000 
#    y 0.000000 3.324240 0.000000 
#    z 0.000000 0.000000 3.886550 
# 
# 
# High freq. dielectric constant tensor:
#      x y z
#    x 1.723210 0.000000 0.000000 
#    y 0.000000 1.723210 0.000000 
#    z 0.000000 0.000000 1.778850 
# 
# From -- ./inp_files/4710.got.cif
#   From: 2010.03.12/outbox.cif.g09.slc.cpg/sg167_3_cif.got.tgz:4710.got - 2010.04.02 06:42:56.
