data_PCOD8324137
_publ_section_title
;
Structure prediction by ZEFSAII (Michael W. Deem and Ramdas Pophale) SiO2 
 PCOD8324137
Probable space group: R -3 M
;
_chemical_formula_sum "Si O2"
_cell_formula_units_Z 144
_cell_length_a 22.462861
_cell_length_b 22.462861
_cell_length_c 19.263707
_cell_angle_alpha 90.000000
_cell_angle_beta 90.000000
_cell_angle_gamma 120.000000
_cell_volume 8417.839387
_symmetry_space_group_name_H-M "R -3 M"
_symmetry_group_IT_number 166
_symmetry_cell_setting 'hexagonal'
loop_
_space_group_symop_operation_xyz
x,y,z
-y,x-y,z
-x+y,-x,z
x-y,-y,-z
-x,-x+y,-z
y,x,-z
-x,-y,-z
y,-x+y,-z
x-y,x,-z
-x+y,y,z
x,x-y,z
-y,-x,z
2/3+x,1/3+y,1/3+z
2/3-y,1/3+x-y,1/3+z
2/3-x+y,1/3-x,1/3+z
2/3+x-y,1/3-y,1/3-z
2/3-x,1/3-x+y,1/3-z
2/3+y,1/3+x,1/3-z
2/3-x,1/3-y,1/3-z
2/3+y,1/3-x+y,1/3-z
2/3+x-y,1/3+x,1/3-z
2/3-x+y,1/3+y,1/3+z
2/3+x,1/3+x-y,1/3+z
2/3-y,1/3-x,1/3+z
1/3+x,2/3+y,2/3+z
1/3-y,2/3+x-y,2/3+z
1/3-x+y,2/3-x,2/3+z
1/3+x-y,2/3-y,2/3-z
1/3-x,2/3-x+y,2/3-z
1/3+y,2/3+x,2/3-z
1/3-x,2/3-y,2/3-z
1/3+y,2/3-x+y,2/3-z
1/3+x-y,2/3+x,2/3-z
1/3-x+y,2/3+y,2/3+z
1/3+x,2/3+x-y,2/3+z
1/3-y,2/3-x,2/3+z
loop_
_atom_site_type_symbol
_atom_site_label
_atom_site_fract_x
_atom_site_fract_y
_atom_site_fract_z
Si Si1 0.058215 0.253989 0.550494
Si Si2 0.931848 0.594340 0.641757
Si Si3 0.198706 0.258028 0.166679
Si Si4 0.075595 0.791201 0.899676
O O1 0.119433 0.238866 0.546544
O O2 0.027882 0.235801 0.628208
O O3 0.081380 0.330608 0.522825
O O4 0.000000 0.200376 0.500000
O O5 0.879187 0.573401 0.577613
O O6 0.942195 0.666667 0.666667
O O7 0.005286 0.601068 0.625747
O O8 0.119966 0.239932 0.159739
O O9 0.214217 0.210380 0.115312
O O10 0.131888 0.868112 0.923124
O O11 0.101580 0.768247 0.833334
#
# Coordination Sequence:
#
# PCOD8324137 Si02
#       4
#    36  36  36  36
#     4  11  21  34  51  76 105 136 170 207 252 302
#     4  11  18  31  49  73 104 133 161 196 248 306
#     4  10  20  32  50  75 103 131 165 207 252 299
#     4   9  17  31  50  71  97 129 162 200 248 300
#
# _framework density 17.106527
#
# number of rings (size 3 to 8) (size 9 to 14) (size 15 to 20)
#    0.000    1.750    5.000    1.500    0.000    2.500 
#    0.000    0.000    0.000    0.750    0.000    1.750 
#    0.000    1.000    0.000    0.000    0.000    0.000 
#
# Total GULP energy -594971.642795 kJ/mol
# GULP energy per Si atom -12395.242558 kJ/mol
# Density = 1.706759 g / cm^3
# Si number density = 17.106527 Si / 1000 Ang^3
#
#
#
# Elastic Constant Matrix: (Units=GPa)
#
#
# Indices 1 2 3 4 5 6 
#
# 1 79.5815 27.5392 9.7476 1.1326 0.0003 0.0000
# 2 27.5392 79.5815 9.7476 -1.1326 -0.0003 0.0000
# 3 9.7476 9.7476 65.4648 0.0000 0.0000 0.0000
# 4 1.1326 -1.1326 0.0000 17.6410 0.0000 -0.0003
# 5 0.0003 -0.0003 0.0000 0.0000 17.6410 1.1326
# 6 0.0000 0.0000 0.0000 -0.0003 1.1326 26.0211
#
#
#
# Elastic Compliance Matrix: (Units=1/GPa)
#
#
# Indices 1 2 3 4 5 6 
#
# 1 0.014432 -0.004837 -0.001429 -0.001237 0.000000 0.000000
# 2 -0.004837 0.014432 -0.001429 0.001237 0.000000 0.000000
# 3 -0.001429 -0.001429 0.015701 0.000000 0.000000 0.000000
# 4 -0.001237 0.001237 0.000000 0.056845 0.000000 0.000001
# 5 0.000000 0.000000 0.000000 0.000000 0.056845 -0.002474
# 6 0.000000 0.000000 0.000000 0.000001 -0.002474 0.038538
#
#
# Mechanical properties :
#
#
# Convention : Reuss Voigt Hill
#
# Bulk Modulus (GPa) = 34.27412 35.41072 34.84242
# Shear Modulus (GPa) = 22.53196 24.10020 23.31608
#
# Velocity S-wave (km/s) = 3.63320 3.75751 3.69588
# Velocity P-wave (km/s) = 6.13835 6.29049 6.21489
#
# Compressibility (1/GPa) = 0.02917654
#
# Stress axis : x y z
#
# Youngs Moduli (GPa) = 69.28979 69.28979 63.69085
#
# Poissons Ratio (x) = 0.33514 0.09100
# Poissons Ratio (y) = 0.33514 0.09100
# Poissons Ratio (z) = 0.09900 0.09900
#
# Static dielectric constant tensor:
#      x y z
#    x 3.084380 0.000000 0.000000 
#    y 0.000000 3.084380 0.000000 
#    z 0.000000 0.000000 3.291030 
# 
# 
# High freq. dielectric constant tensor:
#      x y z
#    x 1.632550 0.000000 0.000000 
#    y 0.000000 1.632550 0.000000 
#    z 0.000000 0.000000 1.675230 
# 
# From -- ./inp_files/5229.got.cif
#   From: 2010.03.12/outbox.cif.g09.slc.cpg/sg166_3_cif.got.tgz:5229.got - 2010.04.02 06:38:31.
