data_PCOD8324566
_publ_section_title
;
Structure prediction by ZEFSAII (Michael W. Deem and Ramdas Pophale) SiO2 
 PCOD8324566
Probable space group: P 61
;
_chemical_formula_sum "Si O2"
_cell_formula_units_Z 24
_cell_length_a 15.065294
_cell_length_b 15.065294
_cell_length_c 5.051870
_cell_angle_alpha 90.000000
_cell_angle_beta 90.000000
_cell_angle_gamma 120.000000
_cell_volume 992.974328
_symmetry_space_group_name_H-M "P 61"
_symmetry_group_IT_number 169
_symmetry_cell_setting 'hexagonal'
loop_
_space_group_symop_operation_xyz
x,y,z
x-y,x,1/6+z
-y,x-y,1/3+z
-x,-y,1/2+z
-x+y,-x,2/3+z
y,-x+y,5/6+z
loop_
_atom_site_type_symbol
_atom_site_label
_atom_site_fract_x
_atom_site_fract_y
_atom_site_fract_z
Si Si1 0.345980 0.076880 0.381890
Si Si2 0.938594 0.162811 0.204839
Si Si3 0.577793 0.233086 0.276897
Si Si4 0.565637 0.051092 0.027285
O O1 0.284109 0.104896 0.594511
O O2 0.463337 0.167487 0.387790
O O3 0.341168 0.969763 0.461942
O O4 0.300376 0.059611 0.089158
O O5 0.049960 0.179666 0.149649
O O6 0.659300 0.253048 0.507085
O O7 0.600888 0.171547 0.045596
O O8 0.524181 0.002427 0.314932
#
# Coordination Sequence:
#
# PCOD8324566 Si02
#       4
#     6   6   6   6
#     4  11  26  50  78 115 153 207 251 311 386 459
#     4  12  29  53  82 112 149 194 254 328 395 463
#     4  11  28  44  76 113 162 207 254 313 363 454
#     4  10  23  47  70 102 154 206 255 306 366 436
#
# _framework density 24.169809999999998
#
# number of rings (size 3 to 8) (size 9 to 14) (size 15 to 20)
#    0.000    1.000    0.000    4.500   14.000    4.000 
#    9.000    0.000    0.000    0.000    0.000    0.000 
#    0.000    0.000    0.000    0.000    0.000    0.000 
#
# Total GULP energy -297664.680933 kJ/mol
# GULP energy per Si atom -12402.695039 kJ/mol
# Density = 2.411480 g / cm^3
# Si number density = 24.169810 Si / 1000 Ang^3
#
#
#
# Elastic Constant Matrix: (Units=GPa)
#
#
# Indices 1 2 3 4 5 6 
#
# 1 133.2179 44.6995 32.0955 0.0000 0.0000 0.0000
# 2 44.6995 133.2179 32.0955 0.0000 0.0000 0.0000
# 3 32.0955 32.0955 106.8045 0.0000 0.0000 0.0000
# 4 0.0000 0.0000 0.0000 36.1957 0.0000 0.0000
# 5 0.0000 0.0000 0.0000 0.0000 36.1957 0.0000
# 6 0.0000 0.0000 0.0000 0.0000 0.0000 44.2592
#
#
#
# Elastic Compliance Matrix: (Units=1/GPa)
#
#
# Indices 1 2 3 4 5 6 
#
# 1 0.008801 -0.002497 -0.001894 0.000000 0.000000 0.000000
# 2 -0.002497 0.008801 -0.001894 0.000000 0.000000 0.000000
# 3 -0.001894 -0.001894 0.010501 0.000000 0.000000 0.000000
# 4 0.000000 0.000000 0.000000 0.027628 0.000000 0.000000
# 5 0.000000 0.000000 0.000000 0.000000 0.027628 0.000000
# 6 0.000000 0.000000 0.000000 0.000000 0.000000 0.022594
#
#
# Mechanical properties :
#
#
# Convention : Reuss Voigt Hill
#
# Bulk Modulus (GPa) = 64.38344 65.66906 65.02625
# Shear Modulus (GPa) = 40.42037 40.95344 40.68690
#
# Velocity S-wave (km/s) = 4.09387 4.12078 4.10735
# Velocity P-wave (km/s) = 7.00301 7.06187 7.03250
#
# Compressibility (1/GPa) = 0.01553194
#
# Stress axis : x y z
#
# Youngs Moduli (GPa) = 113.62887 113.62887 95.22469
#
# Poissons Ratio (x) = 0.28367 0.18040
# Poissons Ratio (y) = 0.28367 0.18040
# Poissons Ratio (z) = 0.21526 0.21526
#
# Static dielectric constant tensor:
#      x y z
#    x 4.438070 0.000000 0.000000 
#    y 0.000000 4.438070 0.000000 
#    z 0.000000 0.000000 4.449330 
# 
# 
# High freq. dielectric constant tensor:
#      x y z
#    x 1.961760 0.000000 0.000000 
#    y 0.000000 1.961760 0.000000 
#    z 0.000000 0.000000 1.974510 
# 
# From -- ./inp_files/96.got.cif
#   From: 2010.03.12/outbox.cif.g09.slc.cpg/sg169_cif.got.tgz:96.got - 2010.04.02 06:46:06.
