data_PCOD8324437
_publ_section_title
;
Structure prediction by ZEFSAII (Michael W. Deem and Ramdas Pophale) SiO2 
 PCOD8324437
Probable space group: P 6
;
_chemical_formula_sum "Si O2"
_cell_formula_units_Z 40
_cell_length_a 18.678788
_cell_length_b 18.678788
_cell_length_c 7.490198
_cell_angle_alpha 90.000000
_cell_angle_beta 90.000000
_cell_angle_gamma 120.000000
_cell_volume 2263.191565
_symmetry_space_group_name_H-M "P 6"
_symmetry_group_IT_number 168
_symmetry_cell_setting 'hexagonal'
loop_
_space_group_symop_operation_xyz
x,y,z
x-y,x,z
-y,x-y,z
-x,-y,z
-x+y,-x,z
y,-x+y,z
loop_
_atom_site_type_symbol
_atom_site_label
_atom_site_fract_x
_atom_site_fract_y
_atom_site_fract_z
Si Si1 0.820593 0.179406 0.837240
Si Si2 0.436955 0.406478 0.140802
Si Si3 0.593522 0.563046 0.533682
Si Si4 0.214510 0.484813 0.138748
Si Si5 0.687441 0.687441 0.837241
Si Si6 0.515188 0.785490 0.535733
Si Si7 0.666668 0.333334 0.548858
Si Si8 0.333334 0.666668 0.125615
O O1 0.919781 0.221268 0.829706
O O2 0.787892 0.202504 0.660983
O O3 0.778733 0.080218 0.844775
O O4 0.797495 0.212107 0.013498
O O5 0.500000 0.500000 0.081136
O O6 0.401942 0.401942 0.337242
O O7 0.486197 0.356809 0.136214
O O8 0.359138 0.366526 0.009798
O O9 0.500000 0.500000 0.593347
O O10 0.633473 0.640862 0.664686
O O11 0.643192 0.513804 0.538272
O O12 0.234078 0.468153 0.337239
O O13 0.283878 0.572490 0.058511
O O14 0.427510 0.716122 0.615963
O O15 0.666668 0.333334 0.337236
#
# Coordination Sequence:
#
# PCOD8324437 Si02
#       8
#     6   6   6   6   6   6   2   2
#     4  10  22  36  58  73 104 128 169 210 260 310
#     4  10  21  32  54  73 103 138 175 212 253 295
#     4  10  21  32  54  73 103 138 175 212 253 295
#     4  10  21  35  50  75 102 138 175 216 249 296
#     4  10  21  38  52  79  98 132 166 214 256 315
#     4  10  21  35  50  75 102 138 175 216 249 296
#     4   9  21  31  50  67 103 137 175 211 251 283
#     4   9  21  31  50  67 103 137 175 211 251 283
#
# _framework density 17.674156
#
# number of rings (size 3 to 8) (size 9 to 14) (size 15 to 20)
#    0.000    2.100    0.000    2.250   16.800    1.200 
#    0.000    0.000    0.000    0.300    0.000    0.000 
#    0.000    0.000    0.000    9.600    0.000    0.000 
#
# Total GULP energy -496093.480011 kJ/mol
# GULP energy per Si atom -12402.337000 kJ/mol
# Density = 1.763393 g / cm^3
# Si number density = 17.674156 Si / 1000 Ang^3
#
#
#
# Elastic Constant Matrix: (Units=GPa)
#
#
# Indices 1 2 3 4 5 6 
#
# 1 104.6345 64.6086 35.2881 0.0000 0.0000 -0.0030
# 2 64.6086 104.6353 35.2883 0.0000 0.0000 0.0023
# 3 35.2881 35.2883 78.7453 0.0000 0.0000 0.0001
# 4 0.0000 0.0000 0.0000 224.2114 -0.0844 0.0000
# 5 0.0000 0.0000 0.0000 -0.0844 224.9733 0.0000
# 6 -0.0030 0.0023 0.0001 0.0000 0.0000 20.0145
#
#
#
# Elastic Compliance Matrix: (Units=1/GPa)
#
#
# Indices 1 2 3 4 5 6 
#
# 1 0.016125 -0.008858 -0.003256 0.000000 0.000000 0.000003
# 2 -0.008858 0.016125 -0.003256 0.000000 0.000000 -0.000003
# 3 -0.003256 -0.003256 0.015618 0.000000 0.000000 0.000000
# 4 0.000000 0.000000 0.000000 0.004460 0.000002 0.000000
# 5 0.000000 0.000000 0.000000 0.000002 0.004445 0.000000
# 6 0.000003 -0.000003 0.000000 0.000000 0.000000 0.049964
#
#
# Mechanical properties :
#
#
# Convention : Reuss Voigt Hill
#
# Bulk Modulus (GPa) = 58.39283 62.04279 60.21781
# Shear Modulus (GPa) = 34.91920 104.02851 69.47386
#
# Velocity S-wave (km/s) = 4.44973 7.68029 6.27642
# Velocity P-wave (km/s) = 7.71430 10.66907 9.30966
#
# Compressibility (1/GPa) = 0.01712539
#
# Stress axis : x y z
#
# Youngs Moduli (GPa) = 62.01501 62.01548 64.02972
#
# Poissons Ratio (x) = 0.54936 0.20851
# Poissons Ratio (y) = 0.54936 0.20851
# Poissons Ratio (z) = 0.20195 0.20195
#
# Static dielectric constant tensor:
#      x y z
#    x -22.657400 -0.010340 0.000000 
#    y -0.010340 -22.747780 0.000000 
#    z 0.000000 0.000000 3.387860 
# 
# 
# High freq. dielectric constant tensor:
#      x y z
#    x 1.670280 0.000000 0.000000 
#    y 0.000000 1.670280 0.000000 
#    z 0.000000 0.000000 1.696090 
# 
# From -- ./inp_files/330.got.cif
#   From: 2010.03.12/outbox.cif.g09.slc.cpg/sg168_cif.got.tgz:330.got - 2010.04.02 06:45:48.
