data_PCOD8324167
_publ_section_title
;
Structure prediction by ZEFSAII (Michael W. Deem and Ramdas Pophale) SiO2 
 PCOD8324167
Probable space group: R -3 M
;
_chemical_formula_sum "Si O2"
_cell_formula_units_Z 144
_cell_length_a 23.099974
_cell_length_b 23.099974
_cell_length_c 15.211962
_cell_angle_alpha 90.000000
_cell_angle_beta 90.000000
_cell_angle_gamma 120.000000
_cell_volume 7029.733252
_symmetry_space_group_name_H-M "R -3 M"
_symmetry_group_IT_number 166
_symmetry_cell_setting 'hexagonal'
loop_
_space_group_symop_operation_xyz
x,y,z
-y,x-y,z
-x+y,-x,z
x-y,-y,-z
-x,-x+y,-z
y,x,-z
-x,-y,-z
y,-x+y,-z
x-y,x,-z
-x+y,y,z
x,x-y,z
-y,-x,z
2/3+x,1/3+y,1/3+z
2/3-y,1/3+x-y,1/3+z
2/3-x+y,1/3-x,1/3+z
2/3+x-y,1/3-y,1/3-z
2/3-x,1/3-x+y,1/3-z
2/3+y,1/3+x,1/3-z
2/3-x,1/3-y,1/3-z
2/3+y,1/3-x+y,1/3-z
2/3+x-y,1/3+x,1/3-z
2/3-x+y,1/3+y,1/3+z
2/3+x,1/3+x-y,1/3+z
2/3-y,1/3-x,1/3+z
1/3+x,2/3+y,2/3+z
1/3-y,2/3+x-y,2/3+z
1/3-x+y,2/3-x,2/3+z
1/3+x-y,2/3-y,2/3-z
1/3-x,2/3-x+y,2/3-z
1/3+y,2/3+x,2/3-z
1/3-x,2/3-y,2/3-z
1/3+y,2/3-x+y,2/3-z
1/3+x-y,2/3+x,2/3-z
1/3-x+y,2/3+y,2/3+z
1/3+x,2/3+x-y,2/3+z
1/3-y,2/3-x,2/3+z
loop_
_atom_site_type_symbol
_atom_site_label
_atom_site_fract_x
_atom_site_fract_y
_atom_site_fract_z
Si Si1 0.907636 0.687892 0.441583
Si Si2 0.795388 0.964516 0.091975
Si Si3 0.553872 0.624876 0.040509
Si Si4 0.798353 0.465282 0.597172
O O1 0.846367 0.692733 0.398152
O O2 0.884514 0.611489 0.464976
O O3 0.932293 0.734764 0.527483
O O4 0.967985 0.714133 0.372239
O O5 0.807653 0.903827 0.072669
O O6 0.846983 0.011580 0.166612
O O7 0.802365 0.000000 0.000000
O O8 0.570791 0.570791 0.000000
O O9 0.495812 0.631976 0.992803
O O10 0.719133 0.438266 0.592163
O O11 0.809653 0.404827 0.631132
#
# Coordination Sequence:
#
# PCOD8324167 Si02
#       4
#    36  36  36  36
#     4  10  21  36  57  85 118 155 195 244 302 363
#     4  10  20  36  57  83 119 157 200 247 296 355
#     4  11  21  37  61  87 119 154 200 248 304 360
#     4  11  23  39  61  88 122 162 205 251 298 355
#
# _framework density 20.484418000000002
#
# number of rings (size 3 to 8) (size 9 to 14) (size 15 to 20)
#    0.000    1.500    2.500    3.250    0.000    1.000 
#    0.000    0.000    0.000   10.000    0.000    8.750 
#    0.000    0.000    0.000    0.000    0.000    0.000 
#
# Total GULP energy -594906.503926 kJ/mol
# GULP energy per Si atom -12393.885498 kJ/mol
# Density = 2.043779 g / cm^3
# Si number density = 20.484418 Si / 1000 Ang^3
#
#
#
# Elastic Constant Matrix: (Units=GPa)
#
#
# Indices 1 2 3 4 5 6 
#
# 1 97.8109 46.0284 23.6779 -5.0951 0.0000 0.0000
# 2 46.0284 97.8109 23.6779 5.0951 0.0000 0.0000
# 3 23.6779 23.6779 82.6698 0.0000 0.0000 0.0000
# 4 -5.0951 5.0951 0.0000 26.9028 0.0000 0.0000
# 5 0.0000 0.0000 0.0000 0.0000 26.9028 -5.0951
# 6 0.0000 0.0000 0.0000 0.0000 -5.0951 25.8913
#
#
#
# Elastic Compliance Matrix: (Units=1/GPa)
#
#
# Indices 1 2 3 4 5 6 
#
# 1 0.013868 -0.006192 -0.002199 0.003799 0.000000 0.000000
# 2 -0.006192 0.013868 -0.002199 -0.003799 0.000000 0.000000
# 3 -0.002199 -0.002199 0.013356 0.000000 0.000000 0.000000
# 4 0.003799 -0.003799 0.000000 0.038610 0.000000 0.000000
# 5 0.000000 0.000000 0.000000 0.000000 0.038610 0.007598
# 6 0.000000 0.000000 0.000000 0.000000 0.007598 0.040118
#
#
# Mechanical properties :
#
#
# Convention : Reuss Voigt Hill
#
# Bulk Modulus (GPa) = 50.21688 51.67333 50.94510
# Shear Modulus (GPa) = 26.84653 28.26655 27.55654
#
# Velocity S-wave (km/s) = 3.62412 3.71874 3.67174
# Velocity P-wave (km/s) = 6.48693 6.61204 6.54979
#
# Compressibility (1/GPa) = 0.01991362
#
# Stress axis : x y z
#
# Youngs Moduli (GPa) = 72.11068 72.11068 74.87437
#
# Poissons Ratio (x) = 0.44648 0.16461
# Poissons Ratio (y) = 0.44648 0.16461
# Poissons Ratio (z) = 0.15854 0.15854
#
# Static dielectric constant tensor:
#      x y z
#    x 3.730930 0.000000 0.000000 
#    y 0.000000 3.730930 0.000000 
#    z 0.000000 0.000000 3.549800 
# 
# 
# High freq. dielectric constant tensor:
#      x y z
#    x 1.803770 0.000000 0.000000 
#    y 0.000000 1.803770 0.000000 
#    z 0.000000 0.000000 1.785980 
# 
# From -- ./inp_files/5247.got.cif
#   From: 2010.03.12/outbox.cif.g09.slc.cpg/sg166_3_cif.got.tgz:5247.got - 2010.04.02 06:38:31.
