data_PCOD8324345
_publ_section_title
;
Structure prediction by ZEFSAII (Michael W. Deem and Ramdas Pophale) SiO2 
 PCOD8324345
Probable space group: R -3 C 
;
_chemical_formula_sum "Si O2"
_cell_formula_units_Z 252
_cell_length_a 28.352520
_cell_length_b 28.352520
_cell_length_c 17.835088
_cell_angle_alpha 90.000000
_cell_angle_beta 90.000000
_cell_angle_gamma 120.000000
_cell_volume 12416.214854
_symmetry_space_group_name_H-M "R -3 C "
_symmetry_group_IT_number 167
_symmetry_cell_setting 'hexagonal'
loop_
_space_group_symop_operation_xyz
x,y,z
-y,x-y,z
-x+y,-x,z
x-y,-y,1/2-z
-x,-x+y,1/2-z
y,x,1/2-z
-x,-y,-z
y,-x+y,-z
x-y,x,-z
-x+y,y,1/2+z
x,x-y,1/2+z
-y,-x,1/2+z
2/3+x,1/3+y,1/3+z
2/3-y,1/3+x-y,1/3+z
2/3-x+y,1/3-x,1/3+z
2/3+x-y,1/3-y,5/6-z
2/3-x,1/3-x+y,5/6-z
2/3+y,1/3+x,5/6-z
2/3-x,1/3-y,1/3-z
2/3+y,1/3-x+y,1/3-z
2/3+x-y,1/3+x,1/3-z
2/3-x+y,1/3+y,5/6+z
2/3+x,1/3+x-y,5/6+z
2/3-y,1/3-x,5/6+z
1/3+x,2/3+y,2/3+z
1/3-y,2/3+x-y,2/3+z
1/3-x+y,2/3-x,2/3+z
1/3+x-y,2/3-y,1/6-z
1/3-x,2/3-x+y,1/6-z
1/3+y,2/3+x,1/6-z
1/3-x,2/3-y,2/3-z
1/3+y,2/3-x+y,2/3-z
1/3+x-y,2/3+x,2/3-z
1/3-x+y,2/3+y,1/6+z
1/3+x,2/3+x-y,1/6+z
1/3-y,2/3-x,1/6+z
loop_
_atom_site_type_symbol
_atom_site_label
_atom_site_fract_x
_atom_site_fract_y
_atom_site_fract_z
Si Si1 0.268999 0.949527 0.919940
Si Si2 0.604252 0.094721 0.062995
Si Si3 0.550978 0.775590 0.254907
Si Si4 0.766282 0.230083 0.469307
Si Si5 0.878582 0.932161 0.519895
Si Si6 0.231806 0.381433 0.635158
Si Si7 0.124182 0.660807 0.005168
O O1 0.250000 0.885994 0.905311
O O2 0.246774 0.975362 0.858981
O O3 0.333334 0.986776 0.916667
O O4 0.243239 0.947230 0.003089
O O5 0.666667 0.129314 0.083334
O O6 0.572598 0.117785 0.112799
O O7 0.594634 0.104028 0.977619
O O8 0.507846 0.773586 0.195450
O O9 0.607762 0.792859 0.211104
O O10 0.528678 0.717497 0.296290
O O11 0.738705 0.265358 0.440219
O O12 0.819812 0.253878 0.416768
O O13 0.720134 0.166263 0.459437
O O14 0.918844 0.908909 0.518897
O O15 0.187316 0.333334 0.583334
O O16 0.132627 0.666667 0.916667
#
# Coordination Sequence:
#
# PCOD8324345 Si02
#       7
#    36  36  36  36  36  36  36
#     4  10  24  43  61  94 132 166 217 268 331 381
#     4  11  22  41  66  94 123 170 219 270 326 390
#     4  10  22  39  63  91 127 163 217 266 315 391
#     4  11  22  39  66  90 125 171 216 262 323 389
#     4  11  22  39  62  94 127 164 207 264 325 387
#     4  10  21  39  62  91 126 165 214 264 318 389
#     4  11  22  41  64  91 130 167 211 273 324 383
#
# _framework density 20.296040999999999
#
# number of rings (size 3 to 8) (size 9 to 14) (size 15 to 20)
#    0.000    1.429    4.286    1.000    0.000    4.571 
#    0.000    0.000    0.000    0.000    0.000    0.000 
#    0.000    0.000    0.000    0.000    0.000    0.000 
#
# Total GULP energy -1040867.787555 kJ/mol
# GULP energy per Si atom -12391.283185 kJ/mol
# Density = 2.024985 g / cm^3
# Si number density = 20.296041 Si / 1000 Ang^3
#
#
#
# Elastic Constant Matrix: (Units=GPa)
#
#
# Indices 1 2 3 4 5 6 
#
# 1 89.5694 39.7298 28.8088 -3.2543 -0.0006 0.0000
# 2 39.7298 89.5694 28.8088 3.2543 0.0006 0.0000
# 3 28.8088 28.8088 101.9527 0.0000 0.0000 0.0000
# 4 -3.2543 3.2543 0.0000 29.2947 0.0000 0.0006
# 5 -0.0006 0.0006 0.0000 0.0000 29.2947 -3.2543
# 6 0.0000 0.0000 0.0000 0.0006 -3.2543 24.9198
#
#
#
# Elastic Compliance Matrix: (Units=1/GPa)
#
#
# Indices 1 2 3 4 5 6 
#
# 1 0.014604 -0.005756 -0.002500 0.002262 0.000000 0.000000
# 2 -0.005756 0.014604 -0.002500 -0.002262 0.000000 0.000000
# 3 -0.002500 -0.002500 0.011221 0.000000 0.000000 0.000000
# 4 0.002262 -0.002262 0.000000 0.034638 0.000000 -0.000001
# 5 0.000000 0.000000 0.000000 0.000000 0.034638 0.004523
# 6 0.000000 0.000000 0.000000 -0.000001 0.004523 0.040719
#
#
# Mechanical properties :
#
#
# Convention : Reuss Voigt Hill
#
# Bulk Modulus (GPa) = 52.86297 52.86515 52.86406
# Shear Modulus (GPa) = 28.05151 28.95146 28.50148
#
# Velocity S-wave (km/s) = 3.72172 3.78095 3.75145
# Velocity P-wave (km/s) = 6.67613 6.72044 6.69832
#
# Compressibility (1/GPa) = 0.01891683
#
# Stress axis : x y z
#
# Youngs Moduli (GPa) = 68.47469 68.47469 89.11503
#
# Poissons Ratio (x) = 0.39413 0.22281
# Poissons Ratio (y) = 0.39413 0.22281
# Poissons Ratio (z) = 0.17120 0.17120
#
# Static dielectric constant tensor:
#      x y z
#    x 3.718780 0.000000 0.000000 
#    y 0.000000 3.718780 0.000000 
#    z 0.000000 0.000000 3.909680 
# 
# 
# High freq. dielectric constant tensor:
#      x y z
#    x 1.787550 0.000000 0.000000 
#    y 0.000000 1.787550 0.000000 
#    z 0.000000 0.000000 1.797780 
# 
# From -- ./inp_files/3710.got.cif
#   From: 2010.03.12/outbox.cif.g09.slc.cpg/sg167_2_cif.got.tgz:3710.got - 2010.04.02 06:42:56.
