data_PCOD8324991
_publ_section_title
;
Structure prediction by ZEFSAII (Michael W. Deem and Ramdas Pophale) SiO2 
 PCOD8324991
Probable space group: P -6
;
_chemical_formula_sum "Si O2"
_cell_formula_units_Z 32
_cell_length_a 14.324759
_cell_length_b 14.324759
_cell_length_c 8.465071
_cell_angle_alpha 90.000000
_cell_angle_beta 90.000000
_cell_angle_gamma 120.000000
_cell_volume 1504.304951
_symmetry_space_group_name_H-M "P -6"
_symmetry_group_IT_number 174
_symmetry_cell_setting 'hexagonal'
loop_
_space_group_symop_operation_xyz
x,y,z
-x+y,-x,-z
-y,x-y,z
x,y,-z
-x+y,-x,z
-y,x-y,-z
loop_
_atom_site_type_symbol
_atom_site_label
_atom_site_fract_x
_atom_site_fract_y
_atom_site_fract_z
Si Si1 0.668492 0.546720 0.685873
Si Si2 0.139594 0.214769 0.318890
Si Si3 0.842965 0.762941 0.184428
Si Si4 0.105797 0.496923 0.818947
Si Si5 0.666668 0.333334 0.312611
Si Si6 0.173337 0.718053 0.322044
O O1 0.648205 0.540858 0.500000
O O2 0.784543 0.648778 0.726345
O O3 0.573457 0.555013 0.771316
O O4 0.666606 0.439680 0.749587
O O5 0.101377 0.185914 0.500000
O O6 0.163071 0.126016 0.247286
O O7 0.247227 0.330289 0.305275
O O8 0.047188 0.220161 0.218789
O O9 0.842937 0.741270 0.000000
O O10 0.144778 0.622619 0.799593
O O11 0.179048 0.468164 0.711073
O O12 0.119562 0.474003 0.000000
O O13 0.666667 0.333334 0.500000
O O14 0.173604 0.677936 0.500000
#
# Coordination Sequence:
#
# PCOD8324991 Si02
#       6
#     6   6   6   6   2   6
#     4  11  23  45  70  97 130 175 227 274 324 393
#     4  11  24  43  68  95 127 173 222 266 318 393
#     4  12  25  42  66  99 137 172 211 273 336 392
#     4  12  25  42  66  99 137 172 211 273 336 392
#     4   9  24  45  70  95 124 171 229 278 316 375
#     4  11  24  43  68  95 127 173 222 266 318 393
#
# _framework density 21.272283999999999
#
# number of rings (size 3 to 8) (size 9 to 14) (size 15 to 20)
#    0.000    0.750    1.875    5.812    2.625    2.250 
#    0.000    2.812    0.000    0.000    0.000    0.000 
#    0.000    0.000    0.000    0.000    0.000    0.000 
#
# Total GULP energy -397053.959841 kJ/mol
# GULP energy per Si atom -12407.936245 kJ/mol
# Density = 2.122387 g / cm^3
# Si number density = 21.272284 Si / 1000 Ang^3
#
#
#
# Elastic Constant Matrix: (Units=GPa)
#
#
# Indices 1 2 3 4 5 6 
#
# 1 108.7667 27.7534 12.9227 0.0000 0.0000 0.0000
# 2 27.7534 108.7658 12.9227 0.0000 0.0000 -0.0004
# 3 12.9227 12.9227 77.3773 0.0000 0.0000 0.0000
# 4 0.0000 0.0000 0.0000 17.1345 0.0002 0.0000
# 5 0.0000 0.0000 0.0000 0.0002 17.1335 0.0000
# 6 0.0000 -0.0004 0.0000 0.0000 0.0000 40.5061
#
#
#
# Elastic Compliance Matrix: (Units=1/GPa)
#
#
# Indices 1 2 3 4 5 6 
#
# 1 0.009954 -0.002390 -0.001263 0.000000 0.000000 0.000000
# 2 -0.002390 0.009954 -0.001263 0.000000 0.000000 0.000000
# 3 -0.001263 -0.001263 0.013346 0.000000 0.000000 0.000000
# 4 0.000000 0.000000 0.000000 0.058362 -0.000001 0.000000
# 5 0.000000 0.000000 0.000000 -0.000001 0.058365 0.000000
# 6 0.000000 0.000000 0.000000 0.000000 0.000000 0.024688
#
#
# Mechanical properties :
#
#
# Convention : Reuss Voigt Hill
#
# Bulk Modulus (GPa) = 42.69712 44.67857 43.68785
# Shear Modulus (GPa) = 26.00002 31.04223 28.52113
#
# Velocity S-wave (km/s) = 3.49986 3.82420 3.66562
# Velocity P-wave (km/s) = 6.03716 6.36774 6.20465
#
# Compressibility (1/GPa) = 0.02342078
#
# Stress axis : x y z
#
# Youngs Moduli (GPa) = 100.46341 100.46259 74.93079
#
# Poissons Ratio (x) = 0.24009 0.09466
# Poissons Ratio (y) = 0.24009 0.09466
# Poissons Ratio (z) = 0.12691 0.12691
#
# Static dielectric constant tensor:
#      x y z
#    x 3.872050 0.000000 0.000000 
#    y 0.000000 3.872070 0.000000 
#    z 0.000000 0.000000 3.796420 
# 
# 
# High freq. dielectric constant tensor:
#      x y z
#    x 1.841940 0.000000 0.000000 
#    y 0.000000 1.841940 0.000000 
#    z 0.000000 0.000000 1.837040 
# 
# From -- ./inp_files/357.got.cif
#   From: 2010.03.12/outbox.cif.g09.slc.cpg/sg174_cif.got.tgz:357.got - 2010.04.02 06:54:58.
