data_PCOD8324812
_publ_section_title
;
Structure prediction by ZEFSAII (Michael W. Deem and Ramdas Pophale) SiO2 
 PCOD8324812
Probable space group: P 62
;
_chemical_formula_sum "Si O2"
_cell_formula_units_Z 33
_cell_length_a 12.262950
_cell_length_b 12.262950
_cell_length_c 10.740562
_cell_angle_alpha 90.000000
_cell_angle_beta 90.000000
_cell_angle_gamma 120.000000
_cell_volume 1398.774006
_symmetry_space_group_name_H-M "P 62"
_symmetry_group_IT_number 171
_symmetry_cell_setting 'hexagonal'
loop_
_space_group_symop_operation_xyz
x,y,z
x-y,x,1/3+z
-y,x-y,2/3+z
-x,-y,z
-x+y,-x,1/3+z
y,-x+y,2/3+z
loop_
_atom_site_type_symbol
_atom_site_label
_atom_site_fract_x
_atom_site_fract_y
_atom_site_fract_z
Si Si1 0.600906 0.353992 0.647020
Si Si2 0.500000 0.500000 0.106162
Si Si3 0.846201 0.660401 0.877664
Si Si4 0.352712 0.131220 0.268080
Si Si5 0.061775 0.307620 0.361672
Si Si6 0.269074 0.498475 0.224861
O O1 0.491819 0.260118 0.550806
O O2 0.678272 0.497672 0.598994
O O3 0.698049 0.301769 0.664148
O O4 0.528443 0.327926 0.778097
O O5 0.569983 0.616942 0.014829
O O6 0.400386 0.509289 0.193102
O O7 0.836791 0.697467 0.736867
O O8 0.987021 0.697240 0.902667
O O9 0.807960 0.738936 0.975960
O O10 0.300145 0.196115 0.169829
O O11 0.181329 0.352915 0.269401
#
# Coordination Sequence:
#
# PCOD8324812 Si02
#       6
#     6   3   6   6   6   6
#     4  12  22  45  74 113 152 191 248 319 391 461
#     4  12  24  42  76 106 150 200 240 320 396 470
#     4  12  28  49  76 111 153 204 256 325 390 463
#     4  12  29  49  78 112 152 202 265 323 382 472
#     4  12  27  48  75 109 154 209 254 316 398 473
#     4  12  23  44  76 112 150 196 251 310 395 467
#
# _framework density 23.592091
#
# number of rings (size 3 to 8) (size 9 to 14) (size 15 to 20)
#    0.000    0.000    7.273    1.636    2.545    0.000 
#    0.000    2.727    0.000    0.000    0.000    0.000 
#    0.000    0.000    0.000    0.000    0.000    0.000 
#
# Total GULP energy -408836.086184 kJ/mol
# GULP energy per Si atom -12388.972309 kJ/mol
# Density = 2.353839 g / cm^3
# Si number density = 23.592091 Si / 1000 Ang^3
#
#
#
# Elastic Constant Matrix: (Units=GPa)
#
#
# Indices 1 2 3 4 5 6 
#
# 1 76.4821 51.8429 32.1986 0.0000 0.0000 0.0000
# 2 51.8429 76.4821 32.1986 0.0000 0.0000 0.0000
# 3 32.1986 32.1986 124.4472 0.0000 0.0000 0.0000
# 4 0.0000 0.0000 0.0000 30.2565 0.0000 0.0000
# 5 0.0000 0.0000 0.0000 0.0000 30.2565 0.0000
# 6 0.0000 0.0000 0.0000 0.0000 0.0000 12.3196
#
#
#
# Elastic Compliance Matrix: (Units=1/GPa)
#
#
# Indices 1 2 3 4 5 6 
#
# 1 0.024771 -0.015815 -0.002317 0.000000 0.000000 0.000000
# 2 -0.015815 0.024771 -0.002317 0.000000 0.000000 0.000000
# 3 -0.002317 -0.002317 0.009235 0.000000 0.000000 0.000000
# 4 0.000000 0.000000 0.000000 0.033051 0.000000 0.000000
# 5 0.000000 0.000000 0.000000 0.000000 0.033051 0.000000
# 6 0.000000 0.000000 0.000000 0.000000 0.000000 0.081171
#
#
# Mechanical properties :
#
#
# Convention : Reuss Voigt Hill
#
# Bulk Modulus (GPa) = 55.93713 56.65459 56.29586
# Shear Modulus (GPa) = 19.77021 25.31130 22.54076
#
# Velocity S-wave (km/s) = 2.89797 3.27903 3.09437
# Velocity P-wave (km/s) = 5.91263 6.19697 6.05647
#
# Compressibility (1/GPa) = 0.01787721
#
# Stress axis : x y z
#
# Youngs Moduli (GPa) = 40.37052 40.37052 108.28901
#
# Poissons Ratio (x) = 0.63846 0.25091
# Poissons Ratio (y) = 0.63846 0.25091
# Poissons Ratio (z) = 0.09354 0.09354
#
# Static dielectric constant tensor:
#      x y z
#    x 4.499350 0.000000 0.000000 
#    y 0.000000 4.499350 0.000000 
#    z 0.000000 0.000000 4.453840 
# 
# 
# High freq. dielectric constant tensor:
#      x y z
#    x 1.933740 0.000000 0.000000 
#    y 0.000000 1.933740 0.000000 
#    z 0.000000 0.000000 1.942490 
# 
# From -- ./inp_files/1523.got.cif
#   From: 2010.03.12/outbox.cif.g09.slc.cpg/sg171_1_cif.got.tgz:1523.got - 2010.04.02 06:49:11.
