data_PCOD8324429
_publ_section_title
;
Structure prediction by ZEFSAII (Michael W. Deem and Ramdas Pophale) SiO2 
 PCOD8324429
Probable space group: R -3 C 
;
_chemical_formula_sum "Si O2"
_cell_formula_units_Z 48
_cell_length_a 30.000000
_cell_length_b 30.000000
_cell_length_c 9.000000
_cell_angle_alpha 90.000000
_cell_angle_beta 90.000000
_cell_angle_gamma 120.000000
_cell_volume 7014.805771
_symmetry_space_group_name_H-M "R -3 C "
_symmetry_group_IT_number 167
_symmetry_cell_setting 'hexagonal'
loop_
_space_group_symop_operation_xyz
x,y,z
-y,x-y,z
-x+y,-x,z
x-y,-y,1/2-z
-x,-x+y,1/2-z
y,x,1/2-z
-x,-y,-z
y,-x+y,-z
x-y,x,-z
-x+y,y,1/2+z
x,x-y,1/2+z
-y,-x,1/2+z
2/3+x,1/3+y,1/3+z
2/3-y,1/3+x-y,1/3+z
2/3-x+y,1/3-x,1/3+z
2/3+x-y,1/3-y,5/6-z
2/3-x,1/3-x+y,5/6-z
2/3+y,1/3+x,5/6-z
2/3-x,1/3-y,1/3-z
2/3+y,1/3-x+y,1/3-z
2/3+x-y,1/3+x,1/3-z
2/3-x+y,1/3+y,5/6+z
2/3+x,1/3+x-y,5/6+z
2/3-y,1/3-x,5/6+z
1/3+x,2/3+y,2/3+z
1/3-y,2/3+x-y,2/3+z
1/3-x+y,2/3-x,2/3+z
1/3+x-y,2/3-y,1/6-z
1/3-x,2/3-x+y,1/6-z
1/3+y,2/3+x,1/6-z
1/3-x,2/3-y,2/3-z
1/3+y,2/3-x+y,2/3-z
1/3+x-y,2/3+x,2/3-z
1/3-x+y,2/3+y,1/6+z
1/3+x,2/3+x-y,1/6+z
1/3-y,2/3-x,1/6+z
loop_
_atom_site_type_symbol
_atom_site_label
_atom_site_fract_x
_atom_site_fract_y
_atom_site_fract_z
Si Si1 0.805249 0.703843 0.049925
Si Si2 0.235563 0.369835 0.717821
Si Si3 0.096595 0.093785 0.924565
Si Si4 0.533157 0.865779 0.591221
O O1 0.759310 0.668286 0.164855
O O2 0.862393 0.720741 0.114948
O O3 0.806791 0.755882 0.003474
O O4 0.794633 0.666667 0.916667
O O5 0.208011 0.333334 0.583334
O O6 0.288634 0.419127 0.678113
O O7 0.084343 0.084343 0.750000
O O8 0.150569 0.144394 0.955966
O O9 0.053140 0.099604 0.007953
O O10 0.543268 0.876602 0.416667
#
# Coordination Sequence:
#
# PCOD8324429 Si02
#       4
#    36  36  36  36
#     4  10  22  40  60  89 122 163 208 248 312 370
#     4  10  20  40  63  84 123 166 199 250 311 368
#     4  11  24  44  68  97 131 168 211 262 321 384
#     4  11  22  40  64  94 123 165 212 264 308 373
#
# _framework density 6.84267
#
# number of rings (size 3 to 8) (size 9 to 14) (size 15 to 20)
#    0.000    1.500    2.500    2.500    0.000    1.000 
#   13.500    0.000    0.000    0.000    0.000    0.000 
#    0.000    0.000    0.000    0.000    0.000    0.000 
#
# Total GULP energy -594703.688229 kJ/mol
# GULP energy per Si atom -12389.660171 kJ/mol
# Density = 0.682710 g / cm^3
# Si number density = 6.842670 Si / 1000 Ang^3
#
#
#
# Elastic Constant Matrix: (Units=GPa)
#
#
# Indices 1 2 3 4 5 6 
#
# 1 44.2744 -33.7262 -26.9484 -7.9481 -0.0424 0.0267
# 2 -33.7262 44.2006 -27.1202 8.0298 -0.0906 0.0232
# 3 -26.9484 -27.1202 29.7993 0.0737 0.1285 0.0913
# 4 -7.9481 8.0298 0.0737 24.9707 0.0204 0.0044
# 5 -0.0424 -0.0906 0.1285 0.0204 25.1088 -7.8859
# 6 0.0267 0.0232 0.0913 0.0044 -7.8859 39.0570
#
#
#
# Elastic Compliance Matrix: (Units=1/GPa)
#
#
# Indices 1 2 3 4 5 6 
#
# 1 -0.006016 -0.019836 -0.023505 0.004533 0.000061 0.000083
# 2 -0.019836 -0.006202 -0.023573 -0.004250 0.000097 0.000092
# 3 -0.023505 -0.023573 -0.009152 0.000126 -0.000066 0.000038
# 4 0.004533 -0.004250 0.000126 0.042856 -0.000048 -0.000015
# 5 0.000061 0.000097 -0.000066 -0.000048 0.042524 0.008586
# 6 0.000083 0.000092 0.000038 -0.000015 0.008586 0.027337
#
#
# Mechanical properties :
#
#
# Convention : Reuss Voigt Hill
#
# Bulk Modulus (GPa) = -6.44347 -6.36838 -6.40592
# Shear Modulus (GPa) = 28.82832 31.56526 30.19679
#
# Velocity S-wave (km/s) = 3.75152 3.92557 3.83953
# Velocity P-wave (km/s) = 3.95215 4.17585 4.06554
#
# Compressibility (1/GPa) = -0.15519593
#
# Stress axis : x y z
#
# Youngs Moduli (GPa) = -166.21997 -161.22928 -109.26939
#
# Poissons Ratio (x) = -3.19807 -2.56832
# Poissons Ratio (y) = -3.29706 -2.57579
# Poissons Ratio (z) = -3.90692 -3.80063
#
# Static dielectric constant tensor:
#      x y z
#    x 3.677710 0.000000 -0.000580 
#    y 0.000000 3.677800 -0.000200 
#    z -0.000580 -0.000200 2.890560 
# 
# 
# High freq. dielectric constant tensor:
#      x y z
#    x 1.800560 0.000000 -0.000030 
#    y 0.000000 1.800580 0.000000 
#    z -0.000030 0.000000 1.798390 
# 
# From -- ./inp_files/756.got.cif
#   From: 2010.03.12/outbox.ucp.g09.slc.cvg/sg167_1_cif.got.tgz:756.got - 2010.05.04 20:40:36.
