data_PCOD8324748
_publ_section_title
;
Structure prediction by ZEFSAII (Michael W. Deem and Ramdas Pophale) SiO2 
 PCOD8324748
Probable space group: P 62
;
_chemical_formula_sum "Si O2"
_cell_formula_units_Z 39
_cell_length_a 18.780296
_cell_length_b 18.780296
_cell_length_c 6.531526
_cell_angle_alpha 90.000000
_cell_angle_beta 90.000000
_cell_angle_gamma 120.000000
_cell_volume 1995.033339
_symmetry_space_group_name_H-M "P 62"
_symmetry_group_IT_number 171
_symmetry_cell_setting 'hexagonal'
loop_
_space_group_symop_operation_xyz
x,y,z
x-y,x,1/3+z
-y,x-y,2/3+z
-x,-y,z
-x+y,-x,1/3+z
y,-x+y,2/3+z
loop_
_atom_site_type_symbol
_atom_site_label
_atom_site_fract_x
_atom_site_fract_y
_atom_site_fract_z
Si Si1 0.541884 0.652114 0.486840
Si Si2 0.500000 0.500000 0.250922
Si Si3 0.329598 0.450794 0.106241
Si Si4 0.291569 0.584870 0.974238
Si Si5 0.079630 0.771483 0.742150
Si Si6 0.760481 0.073438 0.840609
Si Si7 0.334552 0.342222 0.789569
O O1 0.486401 0.566008 0.375134
O O2 0.483168 0.686424 0.557552
O O3 0.611855 0.718878 0.336032
O O4 0.578063 0.624464 0.676249
O O5 0.418007 0.456033 0.119029
O O6 0.329464 0.536174 0.095641
O O7 0.275270 0.398925 0.301617
O O8 0.306700 0.404551 0.887217
O O9 0.282864 0.647568 0.123640
O O10 0.145029 0.863456 0.798956
O O11 0.010920 0.765794 0.584847
O O12 0.031031 0.732783 0.949362
O O13 0.718430 0.056541 0.620968
#
# Coordination Sequence:
#
# PCOD8324748 Si02
#       7
#     6   3   6   6   6   6   6
#     4  11  24  40  60  89 117 164 214 266 306 376
#     4  12  22  38  60  92 122 156 228 260 312 362
#     4  11  24  40  60  89 117 164 214 266 306 376
#     4  12  29  44  60  89 130 178 209 260 334 387
#     4  10  21  40  62  95 125 157 206 263 313 372
#     4  10  21  40  62  95 125 157 206 263 313 372
#     4  10  20  39  64  92 115 166 204 270 312 346
#
# _framework density 19.548545000000001
#
# number of rings (size 3 to 8) (size 9 to 14) (size 15 to 20)
#    0.000    1.231    4.615    2.769    4.308    9.846 
#    0.000    0.000    0.000    0.000    0.000    5.385 
#    0.000    0.000    0.000    0.000    0.000    0.000 
#
# Total GULP energy -483239.897375 kJ/mol
# GULP energy per Si atom -12390.766599 kJ/mol
# Density = 1.950405 g / cm^3
# Si number density = 19.548545 Si / 1000 Ang^3
#
#
#
# Elastic Constant Matrix: (Units=GPa)
#
#
# Indices 1 2 3 4 5 6 
#
# 1 105.4780 32.6797 27.3967 0.0000 0.0000 0.0000
# 2 32.6797 105.4780 27.3967 0.0000 0.0000 0.0000
# 3 27.3967 27.3967 92.4630 0.0000 0.0000 0.0000
# 4 0.0000 0.0000 0.0000 19.3279 0.0000 0.0000
# 5 0.0000 0.0000 0.0000 0.0000 19.3279 0.0000
# 6 0.0000 0.0000 0.0000 0.0000 0.0000 36.3992
#
#
#
# Elastic Compliance Matrix: (Units=1/GPa)
#
#
# Indices 1 2 3 4 5 6 
#
# 1 0.010969 -0.002767 -0.002430 0.000000 0.000000 0.000000
# 2 -0.002767 0.010969 -0.002430 0.000000 0.000000 0.000000
# 3 -0.002430 -0.002430 0.012255 0.000000 0.000000 0.000000
# 4 0.000000 0.000000 0.000000 0.051739 0.000000 0.000000
# 5 0.000000 0.000000 0.000000 0.000000 0.051739 0.000000
# 6 0.000000 0.000000 0.000000 0.000000 0.000000 0.027473
#
#
# Mechanical properties :
#
#
# Convention : Reuss Voigt Hill
#
# Bulk Modulus (GPa) = 52.80318 53.15168 52.97743
# Shear Modulus (GPa) = 26.77912 29.40739 28.09325
#
# Velocity S-wave (km/s) = 3.70520 3.88277 3.79503
# Velocity P-wave (km/s) = 6.73607 6.88112 6.80898
#
# Compressibility (1/GPa) = 0.01893825
#
# Stress axis : x y z
#
# Youngs Moduli (GPa) = 91.16390 91.16390 81.59743
#
# Poissons Ratio (x) = 0.25228 0.19830
# Poissons Ratio (y) = 0.25228 0.19830
# Poissons Ratio (z) = 0.22155 0.22155
#
# Static dielectric constant tensor:
#      x y z
#    x 3.639580 0.000000 0.000000 
#    y 0.000000 3.639580 0.000000 
#    z 0.000000 0.000000 3.785840 
# 
# 
# High freq. dielectric constant tensor:
#      x y z
#    x 1.750200 0.000000 0.000000 
#    y 0.000000 1.750200 0.000000 
#    z 0.000000 0.000000 1.782150 
# 
# From -- ./inp_files/739.got.cif
#   From: 2010.03.12/outbox.cif.g09.slc.cpg/sg171_1_cif.got.tgz:739.got - 2010.04.02 06:49:11.
