data_PCOD8324693
_publ_section_title
;
Structure prediction by ZEFSAII (Michael W. Deem and Ramdas Pophale) SiO2 
 PCOD8324693
Probable space group: P 65
;
_chemical_formula_sum "Si O2"
_cell_formula_units_Z 36
_cell_length_a 14.363518
_cell_length_b 14.363518
_cell_length_c 9.697629
_cell_angle_alpha 90.000000
_cell_angle_beta 90.000000
_cell_angle_gamma 120.000000
_cell_volume 1732.677928
_symmetry_space_group_name_H-M "P 65"
_symmetry_group_IT_number 170
_symmetry_cell_setting 'hexagonal'
loop_
_space_group_symop_operation_xyz
x,y,z
x-y,x,5/6+z
-y,x-y,2/3+z
-x,-y,1/2+z
-x+y,-x,1/3+z
y,-x+y,1/6+z
loop_
_atom_site_type_symbol
_atom_site_label
_atom_site_fract_x
_atom_site_fract_y
_atom_site_fract_z
Si Si1 0.209928 0.129875 0.767310
Si Si2 0.257925 0.370738 0.399442
Si Si3 0.177664 0.575749 0.800343
Si Si4 0.609520 0.642708 0.268418
Si Si5 0.821215 0.385622 0.594891
Si Si6 0.574777 0.684016 0.951149
O O1 0.149020 0.032208 0.872605
O O2 0.179811 0.272179 0.497130
O O3 0.300628 0.243425 0.832191
O O4 0.310075 0.490087 0.467537
O O5 0.353146 0.348360 0.356186
O O6 0.189396 0.376355 0.270637
O O7 0.083169 0.493476 0.700815
O O8 0.288641 0.588198 0.748527
O O9 0.156254 0.538385 0.960277
O O10 0.658226 0.563183 0.266473
O O11 0.579353 0.656054 0.111931
O O12 0.832149 0.453371 0.731502
#
# Coordination Sequence:
#
# PCOD8324693 Si02
#       6
#     6   6   6   6   6   6
#     4  11  21  39  72  92 121 166 225 273 326 390
#     4  11  20  39  62  96 120 170 219 265 316 395
#     4  12  24  39  64  96 134 172 220 262 328 395
#     4  11  21  42  69  94 127 171 222 274 326 396
#     4  12  23  42  60  98 136 176 212 270 334 396
#     4  11  23  39  65  92 128 169 220 270 328 390
#
# _framework density 20.777087999999999
#
# number of rings (size 3 to 8) (size 9 to 14) (size 15 to 20)
#    0.000    0.667    6.667    4.000    0.000    1.333 
#    3.000    0.000    7.333    0.000    0.000    0.000 
#    0.000    0.000    0.000    0.000    0.000    0.000 
#
# Total GULP energy -446188.983581 kJ/mol
# GULP energy per Si atom -12394.138433 kJ/mol
# Density = 2.072980 g / cm^3
# Si number density = 20.777088 Si / 1000 Ang^3
#
#
#
# Elastic Constant Matrix: (Units=GPa)
#
#
# Indices 1 2 3 4 5 6 
#
# 1 113.1453 36.1925 30.4997 0.0000 0.0000 0.0000
# 2 36.1925 113.1453 30.4997 0.0000 0.0000 0.0000
# 3 30.4997 30.4997 60.5549 0.0000 0.0000 0.0000
# 4 0.0000 0.0000 0.0000 21.5323 0.0000 0.0000
# 5 0.0000 0.0000 0.0000 0.0000 21.5323 0.0000
# 6 0.0000 0.0000 0.0000 0.0000 0.0000 38.4764
#
#
#
# Elastic Compliance Matrix: (Units=1/GPa)
#
#
# Indices 1 2 3 4 5 6 
#
# 1 0.010713 -0.002282 -0.004246 0.000000 0.000000 0.000000
# 2 -0.002282 0.010713 -0.004246 0.000000 0.000000 0.000000
# 3 -0.004246 -0.004246 0.020791 0.000000 0.000000 0.000000
# 4 0.000000 0.000000 0.000000 0.046442 0.000000 0.000000
# 5 0.000000 0.000000 0.000000 0.000000 0.046442 0.000000
# 6 0.000000 0.000000 0.000000 0.000000 0.000000 0.025990
#
#
# Mechanical properties :
#
#
# Convention : Reuss Voigt Hill
#
# Bulk Modulus (GPa) = 48.38481 53.46989 50.92735
# Shear Modulus (GPa) = 26.38116 28.95179 27.66648
#
# Velocity S-wave (km/s) = 3.56718 3.73694 3.65305
# Velocity P-wave (km/s) = 6.34859 6.66412 6.50827
#
# Compressibility (1/GPa) = 0.02066764
#
# Stress axis : x y z
#
# Youngs Moduli (GPa) = 93.34599 93.34599 48.09680
#
# Poissons Ratio (x) = 0.21303 0.20423
# Poissons Ratio (y) = 0.21303 0.20423
# Poissons Ratio (z) = 0.39637 0.39637
#
# Static dielectric constant tensor:
#      x y z
#    x 3.963370 0.000000 0.000000 
#    y 0.000000 3.963370 0.000000 
#    z 0.000000 0.000000 3.491600 
# 
# 
# High freq. dielectric constant tensor:
#      x y z
#    x 1.825490 0.000000 0.000000 
#    y 0.000000 1.825490 0.000000 
#    z 0.000000 0.000000 1.772390 
# 
# From -- ./inp_files/580.got.cif
#   From: 2010.03.12/outbox.cif.g09.slc.cpg/sg170_cif.got.tgz:580.got - 2010.04.02 06:47:37.
