data_PCOD8324455
_publ_section_title
;
Structure prediction by ZEFSAII (Michael W. Deem and Ramdas Pophale) SiO2 
 PCOD8324455
Probable space group: P 61
;
_chemical_formula_sum "Si O2"
_cell_formula_units_Z 48
_cell_length_a 17.303595
_cell_length_b 17.303595
_cell_length_c 9.196031
_cell_angle_alpha 90.000000
_cell_angle_beta 90.000000
_cell_angle_gamma 120.000000
_cell_volume 2384.535221
_symmetry_space_group_name_H-M "P 61"
_symmetry_group_IT_number 169
_symmetry_cell_setting 'hexagonal'
loop_
_space_group_symop_operation_xyz
x,y,z
x-y,x,1/6+z
-y,x-y,1/3+z
-x,-y,1/2+z
-x+y,-x,2/3+z
y,-x+y,5/6+z
loop_
_atom_site_type_symbol
_atom_site_label
_atom_site_fract_x
_atom_site_fract_y
_atom_site_fract_z
Si Si1 0.839609 0.658996 0.872040
Si Si2 0.483837 0.358796 0.170400
Si Si3 0.648882 0.801577 0.029582
Si Si4 0.096618 0.183947 0.894588
Si Si5 0.646427 0.534078 0.177513
Si Si6 0.243968 0.287394 0.125498
Si Si7 0.597517 0.572520 0.466791
Si Si8 0.964907 0.567309 0.132168
O O1 0.803704 0.550689 0.860927
O O2 0.780074 0.689207 0.782694
O O3 0.938019 0.703439 0.807075
O O4 0.845258 0.689221 0.038324
O O5 0.590744 0.424801 0.186700
O O6 0.453271 0.374094 0.012356
O O7 0.430680 0.385678 0.290747
O O8 0.729963 0.839155 0.141679
O O9 0.570252 0.823377 0.060730
O O10 0.599054 0.695937 0.042160
O O11 0.122635 0.126984 0.785977
O O12 0.156239 0.220491 0.037552
O O13 0.605306 0.574829 0.292533
O O14 0.635099 0.567747 0.017876
O O15 0.303986 0.380366 0.039081
O O16 0.533816 0.469204 0.517410
#
# Coordination Sequence:
#
# PCOD8324455 Si02
#       8
#     6   6   6   6   6   6   6   6
#     4  10  23  37  60  87 119 156 208 253 310 370
#     4   8  18  35  56  81 110 147 186 236 286 356
#     4  11  23  36  62  92 120 158 202 260 305 375
#     4  12  26  46  62  90 123 165 221 274 333 377
#     4  10  18  33  58  85 116 147 188 239 298 350
#     4  11  21  40  64  85 118 160 206 259 313 376
#     4   9  18  34  58  84 110 148 184 238 291 363
#     4   9  19  35  56  86 116 145 193 239 300 353
#
# _framework density 20.129708999999998
#
# number of rings (size 3 to 8) (size 9 to 14) (size 15 to 20)
#    0.000    2.000    2.500    0.750    7.000    0.000 
#    2.250    0.000    8.250    0.000    0.000    0.000 
#    0.000    0.000    0.000    0.000    0.000    0.000 
#
# Total GULP energy -594627.372180 kJ/mol
# GULP energy per Si atom -12388.070254 kJ/mol
# Density = 2.008389 g / cm^3
# Si number density = 20.129709 Si / 1000 Ang^3
#
#
#
# Elastic Constant Matrix: (Units=GPa)
#
#
# Indices 1 2 3 4 5 6 
#
# 1 60.5490 13.8961 -6.1579 0.0000 0.0000 0.0000
# 2 13.8961 60.5490 -6.1579 0.0000 0.0000 0.0000
# 3 -6.1579 -6.1579 48.2745 0.0000 0.0000 0.0000
# 4 0.0000 0.0000 0.0000 27.9920 0.0000 0.0000
# 5 0.0000 0.0000 0.0000 0.0000 27.9920 0.0000
# 6 0.0000 0.0000 0.0000 0.0000 0.0000 23.3265
#
#
#
# Elastic Compliance Matrix: (Units=1/GPa)
#
#
# Indices 1 2 3 4 5 6 
#
# 1 0.017579 -0.003856 0.001750 0.000000 0.000000 0.000000
# 2 -0.003856 0.017579 0.001750 0.000000 0.000000 0.000000
# 3 0.001750 0.001750 0.021161 0.000000 0.000000 0.000000
# 4 0.000000 0.000000 0.000000 0.035724 0.000000 0.000000
# 5 0.000000 0.000000 0.000000 0.000000 0.035724 0.000000
# 6 0.000000 0.000000 0.000000 0.000000 0.000000 0.042870
#
#
# Mechanical properties :
#
#
# Convention : Reuss Voigt Hill
#
# Bulk Modulus (GPa) = 17.98312 19.17034 18.57673
# Shear Modulus (GPa) = 26.33184 27.04824 26.69004
#
# Velocity S-wave (km/s) = 3.62070 3.66962 3.64525
# Velocity P-wave (km/s) = 5.14124 5.24394 5.19284
#
# Compressibility (1/GPa) = 0.05560772
#
# Stress axis : x y z
#
# Youngs Moduli (GPa) = 56.88738 56.88738 47.25574
#
# Poissons Ratio (x) = 0.21937 -0.08272
# Poissons Ratio (y) = 0.21937 -0.08272
# Poissons Ratio (z) = -0.09958 -0.09958
#
# Static dielectric constant tensor:
#      x y z
#    x 3.694410 0.000000 0.000000 
#    y 0.000000 3.694410 0.000000 
#    z 0.000000 0.000000 3.748490 
# 
# 
# High freq. dielectric constant tensor:
#      x y z
#    x 1.770830 0.000000 0.000000 
#    y 0.000000 1.770830 0.000000 
#    z 0.000000 0.000000 1.793900 
# 
# From -- ./inp_files/753.got.cif
#   From: 2010.03.12/outbox.cif.g09.slc.cpg/sg169_cif.got.tgz:753.got - 2010.04.02 06:46:06.
