data_PCOD8324932
_publ_section_title
;
Structure prediction by ZEFSAII (Michael W. Deem and Ramdas Pophale) SiO2 
 PCOD8324932
Probable space group: P -6
;
_chemical_formula_sum "Si O2"
_cell_formula_units_Z 32
_cell_length_a 14.579300
_cell_length_b 14.579300
_cell_length_c 8.692142
_cell_angle_alpha 90.000000
_cell_angle_beta 90.000000
_cell_angle_gamma 120.000000
_cell_volume 1600.039814
_symmetry_space_group_name_H-M "P -6"
_symmetry_group_IT_number 174
_symmetry_cell_setting 'hexagonal'
loop_
_space_group_symop_operation_xyz
x,y,z
-x+y,-x,-z
-y,x-y,z
x,y,-z
-x+y,-x,z
-y,x-y,-z
loop_
_atom_site_type_symbol
_atom_site_label
_atom_site_fract_x
_atom_site_fract_y
_atom_site_fract_z
Si Si1 0.000000 0.000000 0.682803
Si Si2 0.002559 0.210622 0.681726
Si Si3 0.122062 0.591383 0.175786
Si Si4 0.742827 0.573974 0.816407
Si Si5 0.516258 0.402197 0.823664
Si Si6 0.560608 0.745028 0.321066
O O1 0.891119 0.899362 0.743716
O O2 0.000000 0.000000 0.500000
O O3 0.988644 0.205767 0.500000
O O4 0.109793 0.317600 0.730091
O O5 0.901651 0.209869 0.753590
O O6 0.204120 0.710052 0.221430
O O7 0.126704 0.506007 0.286397
O O8 0.006181 0.576696 0.195563
O O9 0.142929 0.571030 0.000000
O O10 0.624930 0.495770 0.750766
O O11 0.813389 0.525937 0.748487
O O12 0.745882 0.581969 0.000000
O O13 0.542408 0.393770 0.000000
O O14 0.552618 0.766027 0.500000
#
# Coordination Sequence:
#
# PCOD8324932 Si02
#       6
#     2   6   6   6   6   6
#     4   9  21  42  61  80 112 156 202 239 286 348
#     4  10  22  40  62  85 114 155 198 241 291 343
#     4  11  22  38  59  87 117 153 192 235 291 349
#     4  10  19  37  61  87 119 152 189 234 286 347
#     4   9  19  34  58  88 116 149 186 228 286 346
#     4  11  23  39  59  87 118 153 193 241 294 347
#
# _framework density 19.999502
#
# number of rings (size 3 to 8) (size 9 to 14) (size 15 to 20)
#    0.000    1.875    1.875    1.875    2.625    2.250 
#    0.000    2.812    0.000    0.000    0.000    0.000 
#    0.000    0.000    0.000    0.000    0.000    0.000 
#
# Total GULP energy -396807.090776 kJ/mol
# GULP energy per Si atom -12400.221587 kJ/mol
# Density = 1.995398 g / cm^3
# Si number density = 19.999502 Si / 1000 Ang^3
#
#
#
# Elastic Constant Matrix: (Units=GPa)
#
#
# Indices 1 2 3 4 5 6 
#
# 1 138.8560 56.4020 24.7014 0.0000 0.0000 0.0000
# 2 56.4020 138.8560 24.7014 0.0000 0.0000 0.0000
# 3 24.7014 24.7014 23.1295 0.0000 0.0000 0.0000
# 4 0.0000 0.0000 0.0000 22.2826 0.0000 0.0000
# 5 0.0000 0.0000 0.0000 0.0000 22.2826 0.0000
# 6 0.0000 0.0000 0.0000 0.0000 0.0000 41.2270
#
#
#
# Elastic Compliance Matrix: (Units=1/GPa)
#
#
# Indices 1 2 3 4 5 6 
#
# 1 0.009573 -0.002555 -0.007495 0.000000 0.000000 0.000000
# 2 -0.002555 0.009573 -0.007495 0.000000 0.000000 0.000000
# 3 -0.007495 -0.007495 0.059243 0.000000 0.000000 0.000000
# 4 0.000000 0.000000 0.000000 0.044878 0.000000 0.000000
# 5 0.000000 0.000000 0.000000 0.000000 0.044878 0.000000
# 6 0.000000 0.000000 0.000000 0.000000 0.000000 0.024256
#
#
# Mechanical properties :
#
#
# Convention : Reuss Voigt Hill
#
# Bulk Modulus (GPa) = 23.09490 56.93901 40.01695
# Shear Modulus (GPa) = 20.66780 30.16089 25.41435
#
# Velocity S-wave (km/s) = 3.21817 3.88762 3.56862
# Velocity P-wave (km/s) = 5.03802 6.97735 6.08543
#
# Compressibility (1/GPa) = 0.04329961
#
# Stress axis : x y z
#
# Youngs Moduli (GPa) = 104.46252 104.46252 16.87974
#
# Poissons Ratio (x) = 0.26692 0.12651
# Poissons Ratio (y) = 0.26692 0.12651
# Poissons Ratio (z) = 0.78290 0.78290
#
# Static dielectric constant tensor:
#      x y z
#    x 3.769310 0.000000 0.000000 
#    y 0.000000 3.769310 0.000000 
#    z 0.000000 0.000000 3.312780 
# 
# 
# High freq. dielectric constant tensor:
#      x y z
#    x 1.792300 0.000000 0.000000 
#    y 0.000000 1.792300 0.000000 
#    z 0.000000 0.000000 1.748360 
# 
# From -- ./inp_files/312.got.cif
#   From: 2010.03.12/outbox.cif.g09.slc.cpg/sg174_cif.got.tgz:312.got - 2010.04.02 06:54:58.
