data_PCOD8324326
_publ_section_title
;
Structure prediction by ZEFSAII (Michael W. Deem and Ramdas Pophale) SiO2 
 PCOD8324326
Probable space group: R -3 C 
;
_chemical_formula_sum "Si O2"
_cell_formula_units_Z 192
_cell_length_a 22.385653
_cell_length_b 22.385653
_cell_length_c 21.500639
_cell_angle_alpha 90.000000
_cell_angle_beta 90.000000
_cell_angle_gamma 120.000000
_cell_volume 9330.857007
_symmetry_space_group_name_H-M "R -3 C "
_symmetry_group_IT_number 167
_symmetry_cell_setting 'hexagonal'
loop_
_space_group_symop_operation_xyz
x,y,z
-y,x-y,z
-x+y,-x,z
x-y,-y,1/2-z
-x,-x+y,1/2-z
y,x,1/2-z
-x,-y,-z
y,-x+y,-z
x-y,x,-z
-x+y,y,1/2+z
x,x-y,1/2+z
-y,-x,1/2+z
2/3+x,1/3+y,1/3+z
2/3-y,1/3+x-y,1/3+z
2/3-x+y,1/3-x,1/3+z
2/3+x-y,1/3-y,5/6-z
2/3-x,1/3-x+y,5/6-z
2/3+y,1/3+x,5/6-z
2/3-x,1/3-y,1/3-z
2/3+y,1/3-x+y,1/3-z
2/3+x-y,1/3+x,1/3-z
2/3-x+y,1/3+y,5/6+z
2/3+x,1/3+x-y,5/6+z
2/3-y,1/3-x,5/6+z
1/3+x,2/3+y,2/3+z
1/3-y,2/3+x-y,2/3+z
1/3-x+y,2/3-x,2/3+z
1/3+x-y,2/3-y,1/6-z
1/3-x,2/3-x+y,1/6-z
1/3+y,2/3+x,1/6-z
1/3-x,2/3-y,2/3-z
1/3+y,2/3-x+y,2/3-z
1/3+x-y,2/3+x,2/3-z
1/3-x+y,2/3+y,1/6+z
1/3+x,2/3+x-y,1/6+z
1/3-y,2/3-x,1/6+z
loop_
_atom_site_type_symbol
_atom_site_label
_atom_site_fract_x
_atom_site_fract_y
_atom_site_fract_z
Si Si1 0.868811 0.219841 0.221665
Si Si2 0.344163 0.332910 0.180945
Si Si3 0.510379 0.894679 0.362682
Si Si4 0.159989 0.084848 0.915642
Si Si5 0.858901 0.546296 0.808051
Si Si6 0.000000 0.000000 0.427390
O O1 0.833334 0.166667 0.166667
O O2 0.934139 0.292498 0.198505
O O3 0.885040 0.175828 0.270265
O O4 0.823764 0.245855 0.260788
O O5 0.312529 0.312529 0.250000
O O6 0.423345 0.350288 0.182734
O O7 0.337054 0.397033 0.156880
O O8 0.512031 0.845364 0.416667
O O9 0.444018 0.853774 0.320197
O O10 0.078558 0.037703 0.905257
O O11 0.196423 0.043287 0.938587
O O12 0.179772 0.146706 0.963975
O O13 0.000000 0.000000 0.500000
#
# Coordination Sequence:
#
# PCOD8324326 Si02
#       6
#    36  36  36  36  36  12
#     4  10  24  42  61  93 136 174 214 270 333 398
#     4  10  20  40  62  92 130 168 218 271 323 392
#     4   9  21  42  65  90 127 175 217 263 334 402
#     4  12  23  41  69  97 129 173 225 282 342 406
#     4  11  23  39  63  97 124 170 219 274 331 399
#     4  12  24  45  64 101 133 159 228 286 335 403
#
# _framework density 20.576889000000001
#
# number of rings (size 3 to 8) (size 9 to 14) (size 15 to 20)
#    0.000    1.500    3.750    1.688    2.625    4.500 
#   10.125    2.812    0.000    0.000    0.000    0.000 
#    0.000    0.000    0.000    0.000    0.000    0.000 
#
# Total GULP energy -793106.576434 kJ/mol
# GULP energy per Si atom -12392.290257 kJ/mol
# Density = 2.053005 g / cm^3
# Si number density = 20.576889 Si / 1000 Ang^3
#
#
#
# Elastic Constant Matrix: (Units=GPa)
#
#
# Indices 1 2 3 4 5 6 
#
# 1 97.2422 44.8403 46.1630 4.8688 0.0001 0.0000
# 2 44.8403 97.2422 46.1630 -4.8688 -0.0001 0.0000
# 3 46.1630 46.1630 126.2528 0.0000 0.0000 0.0000
# 4 4.8688 -4.8688 0.0000 25.5025 0.0000 -0.0001
# 5 0.0001 -0.0001 0.0000 0.0000 25.5025 4.8688
# 6 0.0000 0.0000 0.0000 -0.0001 4.8688 26.2010
#
#
#
# Elastic Compliance Matrix: (Units=1/GPa)
#
#
# Indices 1 2 3 4 5 6 
#
# 1 0.014508 -0.005277 -0.003375 -0.003777 0.000000 0.000000
# 2 -0.005277 0.014508 -0.003375 0.003777 0.000000 0.000000
# 3 -0.003375 -0.003375 0.010389 0.000000 0.000000 0.000000
# 4 -0.003777 0.003777 0.000000 0.040654 0.000000 0.000000
# 5 0.000000 0.000000 0.000000 0.000000 0.040654 -0.007555
# 6 0.000000 0.000000 0.000000 0.000000 -0.007555 0.039570
#
#
# Mechanical properties :
#
#
# Convention : Reuss Voigt Hill
#
# Bulk Modulus (GPa) = 65.14493 66.11888 65.63190
# Shear Modulus (GPa) = 26.39129 27.67926 27.03528
#
# Velocity S-wave (km/s) = 3.58518 3.67162 3.62866
# Velocity P-wave (km/s) = 6.99043 7.08356 7.03715
#
# Compressibility (1/GPa) = 0.01535039
#
# Stress axis : x y z
#
# Youngs Moduli (GPa) = 68.92579 68.92579 96.25589
#
# Poissons Ratio (x) = 0.36371 0.32490
# Poissons Ratio (y) = 0.36371 0.32490
# Poissons Ratio (z) = 0.23265 0.23265
#
# Static dielectric constant tensor:
#      x y z
#    x 3.683350 0.000000 0.000000 
#    y 0.000000 3.683350 0.000000 
#    z 0.000000 0.000000 3.913030 
# 
# 
# High freq. dielectric constant tensor:
#      x y z
#    x 1.793210 0.000000 0.000000 
#    y 0.000000 1.793210 0.000000 
#    z 0.000000 0.000000 1.820350 
# 
# From -- ./inp_files/5437.got.cif
#   From: 2010.03.12/outbox.cif.g09.slc.cpg/sg167_3_cif.got.tgz:5437.got - 2010.04.02 06:42:56.
