data_PCOD8324749
_publ_section_title
;
Structure prediction by ZEFSAII (Michael W. Deem and Ramdas Pophale) SiO2 
 PCOD8324749
Probable space group: P 62
;
_chemical_formula_sum "Si O2"
_cell_formula_units_Z 36
_cell_length_a 7.908569
_cell_length_b 7.908569
_cell_length_c 26.946323
_cell_angle_alpha 90.000000
_cell_angle_beta 90.000000
_cell_angle_gamma 120.000000
_cell_volume 1459.573464
_symmetry_space_group_name_H-M "P 62"
_symmetry_group_IT_number 171
_symmetry_cell_setting 'hexagonal'
loop_
_space_group_symop_operation_xyz
x,y,z
x-y,x,1/3+z
-y,x-y,2/3+z
-x,-y,z
-x+y,-x,1/3+z
y,-x+y,2/3+z
loop_
_atom_site_type_symbol
_atom_site_label
_atom_site_fract_x
_atom_site_fract_y
_atom_site_fract_z
Si Si1 0.957363 0.249722 0.762000
Si Si2 0.957363 0.707642 0.876374
Si Si3 0.398637 0.269080 0.872882
Si Si4 0.870443 0.269080 0.432159
Si Si5 0.282974 0.561307 0.593938
Si Si6 0.282974 0.721667 0.044436
O O1 0.834847 0.335442 0.734562
O O2 1.000000 0.316370 0.819187
O O3 0.168394 0.340849 0.734305
O O4 0.834589 0.012991 0.757544
O O5 0.834589 0.821599 0.880830
O O6 0.834847 0.499404 0.903813
O O7 0.168394 0.827546 0.904069
O O8 0.500000 0.500000 0.879039
O O9 0.445978 0.222989 0.819187
O O10 0.493548 0.183500 0.911915
O O11 0.689952 0.183500 0.393126
O O12 0.000000 0.500000 0.426001
O O13 0.274402 0.548803 0.652520
#
# Coordination Sequence:
#
# PCOD8324749 Si02
#       6
#     6   6   6   6   6   6
#     4  10  21  41  67  99 142 185 242 314 363 448
#     4  10  21  41  67  99 142 185 242 314 363 448
#     4  10  21  40  71 103 135 188 250 299 368 461
#     4  10  21  40  71 103 135 188 250 299 368 461
#     4  10  20  39  69 101 137 195 244 297 387 460
#     4  10  20  39  69 101 137 195 244 297 387 460
#
# _framework density 24.664739999999998
#
# number of rings (size 3 to 8) (size 9 to 14) (size 15 to 20)
#    0.000    2.000    0.000    6.000    0.000    6.667 
#   18.000    0.000    7.333    0.000    0.000    0.000 
#    0.000    0.000    0.000    0.000    0.000    0.000 
#
# Total GULP energy -446012.317288 kJ/mol
# GULP energy per Si atom -12389.231036 kJ/mol
# Density = 2.460860 g / cm^3
# Si number density = 24.664740 Si / 1000 Ang^3
#
#
#
# Elastic Constant Matrix: (Units=GPa)
#
#
# Indices 1 2 3 4 5 6 
#
# 1 10.8208 139.0728 62.2693 0.0000 0.0000 0.0000
# 2 139.0728 10.8208 62.2693 0.0000 0.0000 0.0000
# 3 62.2693 62.2693 246.4519 0.0000 0.0000 0.0000
# 4 0.0000 0.0000 0.0000 6.6506 0.0000 0.0000
# 5 0.0000 0.0000 0.0000 0.0000 6.6506 0.0000
# 6 0.0000 0.0000 0.0000 0.0000 0.0000 -64.1260
#
#
#
# Elastic Compliance Matrix: (Units=1/GPa)
#
#
# Indices 1 2 3 4 5 6 
#
# 1 0.000323 0.008121 -0.002133 0.000000 0.000000 0.000000
# 2 0.008121 0.000323 -0.002133 0.000000 0.000000 0.000000
# 3 -0.002133 -0.002133 0.005136 0.000000 0.000000 0.000000
# 4 0.000000 0.000000 0.000000 0.150362 0.000000 0.000000
# 5 0.000000 0.000000 0.000000 0.000000 0.150362 0.000000
# 6 0.000000 0.000000 0.000000 0.000000 0.000000 -0.015594
#
#
# Mechanical properties :
#
#
# Convention : Reuss Voigt Hill
#
# Bulk Modulus (GPa) = 74.13040 88.36846 81.24943
# Shear Modulus (GPa) = 17.37909 -9.86615 3.75647
#
# Velocity S-wave (km/s) = 2.65733 -2.00220 1.23544
# Velocity P-wave (km/s) = 6.28774 5.52816 5.92015
#
# Compressibility (1/GPa) = 0.01348974
#
# Stress axis : x y z
#
# Youngs Moduli (GPa) = 3091.93226 3091.93245 194.71573
#
# Poissons Ratio (x) = -25.10826 0.41542
# Poissons Ratio (y) = -25.10826 0.41542
# Poissons Ratio (z) = 6.59659 6.59659
#
# Static dielectric constant tensor:
#      x y z
#    x 5.883910 0.000000 0.000000 
#    y 0.000000 5.883910 0.000000 
#    z 0.000000 0.000000 4.153060 
# 
# 
# High freq. dielectric constant tensor:
#      x y z
#    x 1.996450 0.000000 0.000000 
#    y 0.000000 1.996450 0.000000 
#    z 0.000000 0.000000 1.958620 
# 
# From -- ./inp_files/5790.got.cif
#   From: 2010.03.12/outbox.cif.g09.slc.cpg/sg171_3_cif.got.tgz:5790.got - 2010.04.02 06:49:11.
