data_PCOD8324685
_publ_section_title
;
Structure prediction by ZEFSAII (Michael W. Deem and Ramdas Pophale) SiO2 
 PCOD8324685
Probable space group: P 65
;
_chemical_formula_sum "Si O2"
_cell_formula_units_Z 36
_cell_length_a 13.598127
_cell_length_b 13.598127
_cell_length_c 10.141115
_cell_angle_alpha 90.000000
_cell_angle_beta 90.000000
_cell_angle_gamma 120.000000
_cell_volume 1623.956999
_symmetry_space_group_name_H-M "P 65"
_symmetry_group_IT_number 170
_symmetry_cell_setting 'hexagonal'
loop_
_space_group_symop_operation_xyz
x,y,z
x-y,x,5/6+z
-y,x-y,2/3+z
-x,-y,1/2+z
-x+y,-x,1/3+z
y,-x+y,1/6+z
loop_
_atom_site_type_symbol
_atom_site_label
_atom_site_fract_x
_atom_site_fract_y
_atom_site_fract_z
Si Si1 0.044753 0.700504 0.126240
Si Si2 0.553625 0.750011 0.294773
Si Si3 0.192281 0.737895 0.512117
Si Si4 0.867795 0.391941 0.265186
Si Si5 0.884080 0.441079 0.787722
Si Si6 0.778344 0.929718 0.702239
O O1 0.097036 0.622087 0.165787
O O2 0.019320 0.754528 0.254405
O O3 0.924412 0.622794 0.052090
O O4 0.136212 0.791374 0.027761
O O5 0.480034 0.776551 0.194739
O O6 0.472174 0.657830 0.402097
O O7 0.114128 0.665508 0.634782
O O8 0.318567 0.809475 0.565111
O O9 0.182875 0.646490 0.404837
O O10 0.155967 0.825479 0.455471
O O11 0.990259 0.461652 0.336195
O O12 0.838482 0.866202 0.633720
#
# Coordination Sequence:
#
# PCOD8324685 Si02
#       6
#     6   6   6   6   6   6
#     4  10  23  43  70  98 134 181 232 278 354 417
#     4  11  25  44  67 102 139 188 228 295 347 430
#     4  11  24  45  69 102 141 183 233 288 366 423
#     4  11  26  43  68 100 140 181 240 287 355 425
#     4  10  25  42  67  99 137 177 226 292 346 441
#     4  11  23  47  75 101 137 186 239 296 354 420
#
# _framework density 22.168074000000001
#
# number of rings (size 3 to 8) (size 9 to 14) (size 15 to 20)
#    0.000    1.333    1.667    2.000   11.667    1.333 
#    0.000    3.333    0.000    0.000    0.000    0.000 
#    0.000    0.000    0.000    0.000    0.000    0.000 
#
# Total GULP energy -446352.247649 kJ/mol
# GULP energy per Si atom -12398.673546 kJ/mol
# Density = 2.211762 g / cm^3
# Si number density = 22.168074 Si / 1000 Ang^3
#
#
#
# Elastic Constant Matrix: (Units=GPa)
#
#
# Indices 1 2 3 4 5 6 
#
# 1 144.2564 81.6584 55.9269 0.0000 0.0000 0.0000
# 2 81.6584 144.2564 55.9269 0.0000 0.0000 0.0000
# 3 55.9269 55.9269 73.0393 0.0000 0.0000 0.0000
# 4 0.0000 0.0000 0.0000 36.7192 0.0000 0.0000
# 5 0.0000 0.0000 0.0000 0.0000 36.7192 0.0000
# 6 0.0000 0.0000 0.0000 0.0000 0.0000 31.2990
#
#
#
# Elastic Compliance Matrix: (Units=1/GPa)
#
#
# Indices 1 2 3 4 5 6 
#
# 1 0.011552 -0.004423 -0.005459 0.000000 0.000000 0.000000
# 2 -0.004423 0.011552 -0.005459 0.000000 0.000000 0.000000
# 3 -0.005459 -0.005459 0.022051 0.000000 0.000000 0.000000
# 4 0.000000 0.000000 0.000000 0.027234 0.000000 0.000000
# 5 0.000000 0.000000 0.000000 0.000000 0.027234 0.000000
# 6 0.000000 0.000000 0.000000 0.000000 0.000000 0.031950
#
#
# Mechanical properties :
#
#
# Convention : Reuss Voigt Hill
#
# Bulk Modulus (GPa) = 69.08968 83.17517 76.13243
# Shear Modulus (GPa) = 29.92601 32.15014 31.03808
#
# Velocity S-wave (km/s) = 3.67817 3.81240 3.74588
# Velocity P-wave (km/s) = 7.01944 7.54857 7.28881
#
# Compressibility (1/GPa) = 0.01447394
#
# Stress axis : x y z
#
# Youngs Moduli (GPa) = 86.56439 86.56439 45.34908
#
# Poissons Ratio (x) = 0.38286 0.24756
# Poissons Ratio (y) = 0.38286 0.24756
# Poissons Ratio (z) = 0.47255 0.47255
#
# Static dielectric constant tensor:
#      x y z
#    x 4.091380 0.000000 0.000000 
#    y 0.000000 4.091380 0.000000 
#    z 0.000000 0.000000 3.989870 
# 
# 
# High freq. dielectric constant tensor:
#      x y z
#    x 1.880020 0.000000 0.000000 
#    y 0.000000 1.880020 0.000000 
#    z 0.000000 0.000000 1.864500 
# 
# From -- ./inp_files/626.got.cif
#   From: 2010.03.12/outbox.cif.g09.slc.cpg/sg170_cif.got.tgz:626.got - 2010.04.02 06:47:37.
