data_PCOD8324885
_publ_section_title
;
Structure prediction by ZEFSAII (Michael W. Deem and Ramdas Pophale) SiO2 
 PCOD8324885
Probable space group: P 63
;
_chemical_formula_sum "Si O2"
_cell_formula_units_Z 34
_cell_length_a 14.452505
_cell_length_b 14.452505
_cell_length_c 8.294492
_cell_angle_alpha 90.000000
_cell_angle_beta 90.000000
_cell_angle_gamma 120.000000
_cell_volume 1500.398706
_symmetry_space_group_name_H-M "P 63"
_symmetry_group_IT_number 173
_symmetry_cell_setting 'hexagonal'
loop_
_space_group_symop_operation_xyz
x,y,z
x-y,x,1/2+z
-y,x-y,z
-x,-y,1/2+z
-x+y,-x,z
y,-x+y,1/2+z
loop_
_atom_site_type_symbol
_atom_site_label
_atom_site_fract_x
_atom_site_fract_y
_atom_site_fract_z
Si Si1 0.201842 0.251315 0.908370
Si Si2 0.666668 0.333335 0.385011
Si Si3 0.405166 0.514674 0.405463
Si Si4 0.666666 0.333333 0.768089
Si Si5 0.402585 0.372434 0.117291
Si Si6 0.799183 0.256887 0.207382
Si Si7 0.043119 0.134815 0.151986
O O1 0.227690 0.348616 0.793756
O O2 0.204033 0.155729 0.807326
O O3 0.288547 0.286475 0.048111
O O4 0.085213 0.209339 0.993125
O O5 0.666668 0.333334 0.576397
O O6 0.770442 0.329434 0.321156
O O7 0.404953 0.618301 0.334092
O O8 0.381297 0.432383 0.261706
O O9 0.521445 0.546758 0.477978
O O10 0.315770 0.460057 0.542697
O O11 0.464011 0.312736 0.176507
O O12 0.119238 0.080874 0.152271
#
# Coordination Sequence:
#
# PCOD8324885 Si02
#       7
#     6   2   6   2   6   6   6
#     4  12  26  44  73 111 144 198 255 311 374 448
#     4  12  25  50  76 111 142 206 244 306 400 446
#     4  12  26  52  72 116 151 200 247 316 391 446
#     4  12  25  47  85  99 157 203 247 300 400 467
#     4  12  28  44  78 108 149 195 254 318 370 469
#     4  12  26  48  76 105 155 192 250 317 372 466
#     4  10  24  47  74 100 150 198 251 312 371 444
#
# _framework density 22.660643
#
# number of rings (size 3 to 8) (size 9 to 14) (size 15 to 20)
#    0.353    0.000    3.529    4.235    7.412    1.412 
#    0.000    0.000    0.000    0.000    0.000    0.000 
#    0.000    0.000    0.000    0.000    0.000    0.000 
#
# Total GULP energy -421555.373273 kJ/mol
# GULP energy per Si atom -12398.687449 kJ/mol
# Density = 2.260907 g / cm^3
# Si number density = 22.660643 Si / 1000 Ang^3
#
#
#
# Elastic Constant Matrix: (Units=GPa)
#
#
# Indices 1 2 3 4 5 6 
#
# 1 100.9425 55.1715 72.8012 0.0000 0.0000 -0.0001
# 2 55.1715 100.9417 72.8012 0.0000 0.0000 -0.0002
# 3 72.8012 72.8012 187.2141 0.0000 0.0000 -0.0002
# 4 0.0000 0.0000 0.0000 47.1372 -0.0007 0.0000
# 5 0.0000 0.0000 0.0000 -0.0007 47.1368 0.0000
# 6 -0.0001 -0.0002 -0.0002 0.0000 0.0000 22.8845
#
#
#
# Elastic Compliance Matrix: (Units=1/GPa)
#
#
# Indices 1 2 3 4 5 6 
#
# 1 0.015949 -0.005899 -0.003908 0.000000 0.000000 0.000000
# 2 -0.005899 0.015950 -0.003908 0.000000 0.000000 0.000000
# 3 -0.003908 -0.003908 0.008381 0.000000 0.000000 0.000000
# 4 0.000000 0.000000 0.000000 0.021215 0.000000 0.000000
# 5 0.000000 0.000000 0.000000 0.000000 0.021215 0.000000
# 6 0.000000 0.000000 0.000000 0.000000 0.000000 0.043698
#
#
# Mechanical properties :
#
#
# Convention : Reuss Voigt Hill
#
# Bulk Modulus (GPa) = 77.82601 87.84959 82.83780
# Shear Modulus (GPa) = 31.62128 35.98667 33.80398
#
# Velocity S-wave (km/s) = 3.73959 3.98938 3.86651
# Velocity P-wave (km/s) = 7.28456 7.75060 7.52119
#
# Compressibility (1/GPa) = 0.01284917
#
# Stress axis : x y z
#
# Youngs Moduli (GPa) = 62.69828 62.69762 119.31458
#
# Poissons Ratio (x) = 0.36983 0.46633
# Poissons Ratio (y) = 0.36983 0.46634
# Poissons Ratio (z) = 0.24505 0.24505
#
# Static dielectric constant tensor:
#      x y z
#    x 4.068380 0.000010 0.000000 
#    y 0.000010 4.068370 0.000000 
#    z 0.000000 0.000000 4.213080 
# 
# 
# High freq. dielectric constant tensor:
#      x y z
#    x 1.892900 0.000000 0.000000 
#    y 0.000000 1.892900 0.000000 
#    z 0.000000 0.000000 1.908860 
# 
# From -- ./inp_files/572.got.cif
#   From: 2010.03.12/outbox.cif.g09.slc.cpg/sg173_cif.got.tgz:572.got - 2010.04.02 06:54:12.
