data_PCOD8324327
_publ_section_title
;
Structure prediction by ZEFSAII (Michael W. Deem and Ramdas Pophale) SiO2 
 PCOD8324327
Probable space group: R -3 C 
;
_chemical_formula_sum "Si O2"
_cell_formula_units_Z 162
_cell_length_a 22.902133
_cell_length_b 22.902133
_cell_length_c 17.453041
_cell_angle_alpha 90.000000
_cell_angle_beta 90.000000
_cell_angle_gamma 120.000000
_cell_volume 7927.816796
_symmetry_space_group_name_H-M "R -3 C "
_symmetry_group_IT_number 167
_symmetry_cell_setting 'hexagonal'
loop_
_space_group_symop_operation_xyz
x,y,z
-y,x-y,z
-x+y,-x,z
x-y,-y,1/2-z
-x,-x+y,1/2-z
y,x,1/2-z
-x,-y,-z
y,-x+y,-z
x-y,x,-z
-x+y,y,1/2+z
x,x-y,1/2+z
-y,-x,1/2+z
2/3+x,1/3+y,1/3+z
2/3-y,1/3+x-y,1/3+z
2/3-x+y,1/3-x,1/3+z
2/3+x-y,1/3-y,5/6-z
2/3-x,1/3-x+y,5/6-z
2/3+y,1/3+x,5/6-z
2/3-x,1/3-y,1/3-z
2/3+y,1/3-x+y,1/3-z
2/3+x-y,1/3+x,1/3-z
2/3-x+y,1/3+y,5/6+z
2/3+x,1/3+x-y,5/6+z
2/3-y,1/3-x,5/6+z
1/3+x,2/3+y,2/3+z
1/3-y,2/3+x-y,2/3+z
1/3-x+y,2/3-x,2/3+z
1/3+x-y,2/3-y,1/6-z
1/3-x,2/3-x+y,1/6-z
1/3+y,2/3+x,1/6-z
1/3-x,2/3-y,2/3-z
1/3+y,2/3-x+y,2/3-z
1/3+x-y,2/3+x,2/3-z
1/3-x+y,2/3+y,1/6+z
1/3+x,2/3+x-y,1/6+z
1/3-y,2/3-x,1/6+z
loop_
_atom_site_type_symbol
_atom_site_label
_atom_site_fract_x
_atom_site_fract_y
_atom_site_fract_z
Si Si1 0.703377 0.190741 0.735964
Si Si2 0.523642 0.746375 0.097532
Si Si3 0.666667 0.873940 0.583334
Si Si4 0.068317 0.739430 0.420678
Si Si5 0.201206 0.039684 0.177348
O O1 0.728872 0.231069 0.815678
O O2 0.628120 0.178150 0.721094
O O3 0.709989 0.124303 0.733587
O O4 0.751562 0.235673 0.668200
O O5 0.602823 0.802057 0.099230
O O6 0.517089 0.678762 0.060475
O O7 0.652090 0.904568 0.507274
O O8 0.001622 0.666667 0.416667
O O9 0.123627 0.738716 0.361053
O O10 0.158064 0.000000 0.250000
#
# Coordination Sequence:
#
# PCOD8324327 Si02
#       5
#    36  36  18  36  36
#     4  11  24  40  70 100 133 184 223 276 340 416
#     4  11  22  42  67  97 134 174 231 273 336 404
#     4  10  20  40  66  92 136 174 210 282 342 386
#     4  10  21  41  67 100 134 174 219 280 343 401
#     4  11  22  45  66  93 139 173 221 290 330 388
#
# _framework density 20.434377000000001
#
# number of rings (size 3 to 8) (size 9 to 14) (size 15 to 20)
#    0.000    1.333    6.667    0.667    1.556    0.889 
#    1.333    3.333    0.000    0.000    0.000    0.000 
#    0.000    0.000    0.000    0.000    0.000    0.000 
#
# Total GULP energy -668998.830615 kJ/mol
# GULP energy per Si atom -12388.867234 kJ/mol
# Density = 2.038787 g / cm^3
# Si number density = 20.434377 Si / 1000 Ang^3
#
#
#
# Elastic Constant Matrix: (Units=GPa)
#
#
# Indices 1 2 3 4 5 6 
#
# 1 95.8332 50.7576 16.3392 -4.5794 0.0002 0.0000
# 2 50.7576 95.8332 16.3392 4.5794 -0.0002 0.0000
# 3 16.3392 16.3392 59.7468 0.0000 0.0000 0.0000
# 4 -4.5794 4.5794 0.0000 31.7578 0.0000 -0.0002
# 5 0.0002 -0.0002 0.0000 0.0000 31.7578 -4.5794
# 6 0.0000 0.0000 0.0000 -0.0002 -4.5794 22.5378
#
#
#
# Elastic Compliance Matrix: (Units=1/GPa)
#
#
# Indices 1 2 3 4 5 6 
#
# 1 0.015060 -0.007795 -0.001987 0.003296 0.000000 0.000000
# 2 -0.007795 0.015060 -0.001987 -0.003296 0.000000 0.000000
# 3 -0.001987 -0.001987 0.017824 0.000000 0.000000 0.000000
# 4 0.003296 -0.003296 0.000000 0.032439 0.000000 0.000000
# 5 0.000000 0.000000 0.000000 0.000000 0.032439 0.006591
# 6 0.000000 0.000000 0.000000 0.000000 0.006591 0.045709
#
#
# Mechanical properties :
#
#
# Convention : Reuss Voigt Hill
#
# Bulk Modulus (GPa) = 40.97289 46.47611 43.72450
# Shear Modulus (GPa) = 26.28786 28.40916 27.34851
#
# Velocity S-wave (km/s) = 3.59061 3.73267 3.66233
# Velocity P-wave (km/s) = 6.10610 6.43199 6.27116
#
# Compressibility (1/GPa) = 0.02440638
#
# Stress axis : x y z
#
# Youngs Moduli (GPa) = 66.40292 66.40292 56.10447
#
# Poissons Ratio (x) = 0.51761 0.11146
# Poissons Ratio (y) = 0.51761 0.11146
# Poissons Ratio (z) = 0.13192 0.13192
#
# Static dielectric constant tensor:
#      x y z
#    x 3.703800 0.000000 0.000000 
#    y 0.000000 3.703800 0.000000 
#    z 0.000000 0.000000 3.785120 
# 
# 
# High freq. dielectric constant tensor:
#      x y z
#    x 1.795500 0.000000 0.000000 
#    y 0.000000 1.795500 0.000000 
#    z 0.000000 0.000000 1.794380 
# 
# From -- ./inp_files/3414.got.cif
#   From: 2010.03.12/outbox.cif.g09.slc.cpg/sg167_2_cif.got.tgz:3414.got - 2010.04.02 06:42:56.
