data_PCOD8324087
_publ_section_title
;
Structure prediction by ZEFSAII (Michael W. Deem and Ramdas Pophale) SiO2 
 PCOD8324087
Probable space group: R -3 M
;
_chemical_formula_sum "Si O2"
_cell_formula_units_Z 216
_cell_length_a 23.478108
_cell_length_b 23.478108
_cell_length_c 27.803551
_cell_angle_alpha 90.000000
_cell_angle_beta 90.000000
_cell_angle_gamma 120.000000
_cell_volume 13272.633133
_symmetry_space_group_name_H-M "R -3 M"
_symmetry_group_IT_number 166
_symmetry_cell_setting 'hexagonal'
loop_
_space_group_symop_operation_xyz
x,y,z
-y,x-y,z
-x+y,-x,z
x-y,-y,-z
-x,-x+y,-z
y,x,-z
-x,-y,-z
y,-x+y,-z
x-y,x,-z
-x+y,y,z
x,x-y,z
-y,-x,z
2/3+x,1/3+y,1/3+z
2/3-y,1/3+x-y,1/3+z
2/3-x+y,1/3-x,1/3+z
2/3+x-y,1/3-y,1/3-z
2/3-x,1/3-x+y,1/3-z
2/3+y,1/3+x,1/3-z
2/3-x,1/3-y,1/3-z
2/3+y,1/3-x+y,1/3-z
2/3+x-y,1/3+x,1/3-z
2/3-x+y,1/3+y,1/3+z
2/3+x,1/3+x-y,1/3+z
2/3-y,1/3-x,1/3+z
1/3+x,2/3+y,2/3+z
1/3-y,2/3+x-y,2/3+z
1/3-x+y,2/3-x,2/3+z
1/3+x-y,2/3-y,2/3-z
1/3-x,2/3-x+y,2/3-z
1/3+y,2/3+x,2/3-z
1/3-x,2/3-y,2/3-z
1/3+y,2/3-x+y,2/3-z
1/3+x-y,2/3+x,2/3-z
1/3-x+y,2/3+y,2/3+z
1/3+x,2/3+x-y,2/3+z
1/3-y,2/3-x,2/3+z
loop_
_atom_site_type_symbol
_atom_site_label
_atom_site_fract_x
_atom_site_fract_y
_atom_site_fract_z
Si Si1 0.504877 0.369150 0.613428
Si Si2 0.523497 0.476504 0.933979
Si Si3 0.885603 0.114398 0.703538
Si Si4 0.079118 0.794525 0.631798
Si Si5 0.688291 0.074421 0.781500
Si Si6 0.937705 0.741322 0.027876
Si Si7 0.592364 0.605214 0.445649
O O1 0.584251 0.415750 0.605782
O O2 0.478084 0.291936 0.606933
O O3 0.488324 0.375405 0.668557
O O4 0.472272 0.399032 0.577633
O O5 0.485334 0.514667 0.947255
O O6 0.475967 0.415364 0.901595
O O7 0.549082 0.450919 0.978835
O O8 0.148135 0.851866 0.612851
O O9 0.089036 0.743175 0.662664
O O10 0.039511 0.759813 0.585413
O O11 0.666667 0.085265 0.833334
O O12 0.704583 0.015909 0.780481
O O13 0.878951 0.757902 0.029505
O O14 0.949606 0.721591 0.081700
O O15 0.000000 0.801413 0.000000
O O16 0.576947 0.576947 0.500000
#
# Coordination Sequence:
#
# PCOD8324087 Si02
#       7
#    36  18  18  36  36  36  36
#     4  10  20  34  53  74 102 135 176 220 260 311
#     4  11  22  34  54  78 105 151 179 217 273 316
#     4  11  20  34  56  76 105 137 187 221 265 324
#     4   9  18  32  49  71  99 136 170 210 257 303
#     4  11  21  32  50  77 111 140 177 217 259 317
#     4  10  19  32  53  74 101 133 169 208 256 313
#     4  10  20  34  53  81 105 135 168 212 263 322
#
# _framework density 16.274087999999999
#
# number of rings (size 3 to 8) (size 9 to 14) (size 15 to 20)
#    0.000    1.833    5.000    1.500    1.167    1.333 
#    0.500    0.000    1.833    0.167    0.000    0.000 
#    0.000    1.333    0.000    0.000    0.000    0.000 
#
# Total GULP energy -892303.561254 kJ/mol
# GULP energy per Si atom -12393.105017 kJ/mol
# Density = 1.623705 g / cm^3
# Si number density = 16.274088 Si / 1000 Ang^3
#
#
#
# Elastic Constant Matrix: (Units=GPa)
#
#
# Indices 1 2 3 4 5 6 
#
# 1 76.0913 15.9485 29.5378 -6.7843 0.0013 0.0000
# 2 15.9485 76.0913 29.5378 6.7843 -0.0013 0.0000
# 3 29.5378 29.5378 98.6538 0.0000 0.0000 0.0000
# 4 -6.7843 6.7843 0.0000 24.5772 0.0000 -0.0013
# 5 0.0013 -0.0013 0.0000 0.0000 24.5772 -6.7843
# 6 0.0000 0.0000 0.0000 -0.0013 -6.7843 30.0714
#
#
#
# Elastic Compliance Matrix: (Units=1/GPa)
#
#
# Indices 1 2 3 4 5 6 
#
# 1 0.015590 -0.002141 -0.004027 0.004895 -0.000001 0.000000
# 2 -0.002141 0.015590 -0.004027 -0.004895 0.000001 0.000000
# 3 -0.004027 -0.004027 0.012548 0.000000 0.000000 0.000000
# 4 0.004895 -0.004895 0.000000 0.043390 0.000000 0.000002
# 5 -0.000001 0.000001 0.000000 0.000000 0.043390 0.009789
# 6 0.000000 0.000000 0.000000 0.000002 0.009789 0.035463
#
#
# Mechanical properties :
#
#
# Convention : Reuss Voigt Hill
#
# Bulk Modulus (GPa) = 42.84624 44.54274 43.69449
# Shear Modulus (GPa) = 25.75445 27.56599 26.66022
#
# Velocity S-wave (km/s) = 3.98243 4.12012 4.05186
# Velocity P-wave (km/s) = 6.89430 7.07556 6.98552
#
# Compressibility (1/GPa) = 0.02333927
#
# Stress axis : x y z
#
# Youngs Moduli (GPa) = 64.14189 64.14189 79.69499
#
# Poissons Ratio (x) = 0.13732 0.32092
# Poissons Ratio (y) = 0.13732 0.32092
# Poissons Ratio (z) = 0.25829 0.25829
#
# Static dielectric constant tensor:
#      x y z
#    x 6.419530 0.000000 0.000000 
#    y 0.000000 6.419530 0.000000 
#    z 0.000000 0.000000 3.157280 
# 
# 
# High freq. dielectric constant tensor:
#      x y z
#    x 1.613130 0.000000 0.000000 
#    y 0.000000 1.613130 0.000000 
#    z 0.000000 0.000000 1.626000 
# 
# From -- ./inp_files/8537.got.cif
#   From: 2010.03.12/outbox.cif.g09.slc.cpg/sg166_5_cif.got.tgz:8537.got - 2010.04.02 06:38:31.
