data_PCOD8324635
_publ_section_title
;
Structure prediction by ZEFSAII (Michael W. Deem and Ramdas Pophale) SiO2 
 PCOD8324635
Probable space group: P 65
;
_chemical_formula_sum "Si O2"
_cell_formula_units_Z 48
_cell_length_a 14.996813
_cell_length_b 14.996813
_cell_length_c 12.778249
_cell_angle_alpha 90.000000
_cell_angle_beta 90.000000
_cell_angle_gamma 120.000000
_cell_volume 2488.856921
_symmetry_space_group_name_H-M "P 65"
_symmetry_group_IT_number 170
_symmetry_cell_setting 'hexagonal'
loop_
_space_group_symop_operation_xyz
x,y,z
x-y,x,5/6+z
-y,x-y,2/3+z
-x,-y,1/2+z
-x+y,-x,1/3+z
y,-x+y,1/6+z
loop_
_atom_site_type_symbol
_atom_site_label
_atom_site_fract_x
_atom_site_fract_y
_atom_site_fract_z
Si Si1 0.360160 0.009975 0.344870
Si Si2 0.067321 0.730560 0.940041
Si Si3 0.296549 0.808246 0.667422
Si Si4 0.488948 0.495718 0.521515
Si Si5 0.877515 0.600633 0.049524
Si Si6 0.145906 0.335309 0.152970
Si Si7 0.588113 0.455839 0.821976
Si Si8 0.845231 0.857962 0.967614
O O1 0.414869 0.965411 0.271829
O O2 0.347893 0.094654 0.278083
O O3 0.427874 0.066466 0.447207
O O4 0.250129 0.919833 0.385145
O O5 0.187977 0.808372 0.966768
O O6 0.054918 0.627077 0.892628
O O7 0.045878 0.790477 0.849058
O O8 0.995181 0.698478 0.044469
O O9 0.422093 0.881875 0.672463
O O10 0.244667 0.837316 0.763159
O O11 0.267256 0.835801 0.556604
O O12 0.249794 0.683485 0.675440
O O13 0.483804 0.555592 0.419848
O O14 0.867309 0.490528 0.070672
O O15 0.099356 0.232818 0.222425
O O16 0.943821 0.880525 0.898053
#
# Coordination Sequence:
#
# PCOD8324635 Si02
#       8
#     6   6   6   6   6   6   6   6
#     4  11  22  37  60  91 123 163 204 258 310 372
#     4  11  19  36  60  89 121 150 204 256 308 359
#     4  10  19  33  56  88 116 148 200 261 302 348
#     4  11  21  38  58  87 126 161 202 254 314 370
#     4  11  21  36  58  89 118 160 200 258 307 367
#     4  11  20  35  63  91 117 154 210 252 306 362
#     4  11  21  37  59  86 123 164 204 253 313 367
#     4  12  21  36  68 101 120 152 204 264 316 369
#
# _framework density 19.285962000000001
#
# number of rings (size 3 to 8) (size 9 to 14) (size 15 to 20)
#    0.000    1.000   10.000    0.000    0.000    0.000 
#    2.250    2.500    2.750    0.000    0.000    0.000 
#    0.000    0.000    0.000    0.000    0.000    0.000 
#
# Total GULP energy -594848.995270 kJ/mol
# GULP energy per Si atom -12392.687401 kJ/mol
# Density = 1.924207 g / cm^3
# Si number density = 19.285962 Si / 1000 Ang^3
#
#
#
# Elastic Constant Matrix: (Units=GPa)
#
#
# Indices 1 2 3 4 5 6 
#
# 1 87.6146 49.6958 38.0247 0.0000 0.0000 0.0000
# 2 49.6958 87.6146 38.0247 0.0000 0.0000 0.0000
# 3 38.0247 38.0247 61.4745 0.0000 0.0000 0.0000
# 4 0.0000 0.0000 0.0000 27.3578 0.0000 0.0000
# 5 0.0000 0.0000 0.0000 0.0000 27.3578 0.0000
# 6 0.0000 0.0000 0.0000 0.0000 0.0000 18.9594
#
#
#
# Elastic Compliance Matrix: (Units=1/GPa)
#
#
# Indices 1 2 3 4 5 6 
#
# 1 0.018725 -0.007647 -0.006852 0.000000 0.000000 0.000000
# 2 -0.007647 0.018725 -0.006852 0.000000 0.000000 0.000000
# 3 -0.006852 -0.006852 0.024744 0.000000 0.000000 0.000000
# 4 0.000000 0.000000 0.000000 0.036553 0.000000 0.000000
# 5 0.000000 0.000000 0.000000 0.000000 0.036553 0.000000
# 6 0.000000 0.000000 0.000000 0.000000 0.000000 0.052744
#
#
# Mechanical properties :
#
#
# Convention : Reuss Voigt Hill
#
# Bulk Modulus (GPa) = 51.30642 54.24381 52.77511
# Shear Modulus (GPa) = 21.07544 22.13224 21.60384
#
# Velocity S-wave (km/s) = 3.30932 3.39127 3.35055
# Velocity P-wave (km/s) = 6.42362 6.59708 6.51093
#
# Compressibility (1/GPa) = 0.01949074
#
# Stress axis : x y z
#
# Youngs Moduli (GPa) = 53.40455 53.40455 40.41444
#
# Poissons Ratio (x) = 0.40839 0.27693
# Poissons Ratio (y) = 0.40839 0.27693
# Poissons Ratio (z) = 0.36594 0.36594
#
# Static dielectric constant tensor:
#      x y z
#    x 3.583300 0.000000 0.000000 
#    y 0.000000 3.583300 0.000000 
#    z 0.000000 0.000000 3.239730 
# 
# 
# High freq. dielectric constant tensor:
#      x y z
#    x 1.742960 0.000000 0.000000 
#    y 0.000000 1.742960 0.000000 
#    z 0.000000 0.000000 1.719320 
# 
# From -- ./inp_files/1283.got.cif
#   From: 2010.03.12/outbox.cif.g09.slc.cpg/sg170_cif.got.tgz:1283.got - 2010.04.02 06:47:37.
