data_PCOD8324727
_publ_section_title
;
Structure prediction by ZEFSAII (Michael W. Deem and Ramdas Pophale) SiO2 
 PCOD8324727
Probable space group: P 62
;
_chemical_formula_sum "Si O2"
_cell_formula_units_Z 42
_cell_length_a 14.584632
_cell_length_b 14.584632
_cell_length_c 11.689753
_cell_angle_alpha 90.000000
_cell_angle_beta 90.000000
_cell_angle_gamma 120.000000
_cell_volume 2153.410952
_symmetry_space_group_name_H-M "P 62"
_symmetry_group_IT_number 171
_symmetry_cell_setting 'hexagonal'
loop_
_space_group_symop_operation_xyz
x,y,z
x-y,x,1/3+z
-y,x-y,2/3+z
-x,-y,z
-x+y,-x,1/3+z
y,-x+y,2/3+z
loop_
_atom_site_type_symbol
_atom_site_label
_atom_site_fract_x
_atom_site_fract_y
_atom_site_fract_z
Si Si1 0.621118 0.588038 0.817020
Si Si2 0.670796 0.988323 0.728740
Si Si3 0.590830 0.611105 0.297195
Si Si4 0.827691 0.085798 0.413678
Si Si5 0.805628 0.886188 0.488303
Si Si6 0.116915 0.809607 0.754699
Si Si7 0.211743 0.393768 0.667855
O O1 0.500000 0.500000 0.804305
O O2 0.652556 0.705152 0.771037
O O3 0.679602 0.539653 0.739132
O O4 0.655372 0.598136 0.949931
O O5 0.609607 0.014786 0.825914
O O6 0.779060 0.096445 0.694775
O O7 0.696651 0.902969 0.785884
O O8 0.500000 0.500000 0.344613
O O9 0.706478 0.643695 0.342941
O O10 0.552014 0.691517 0.339496
O O11 0.843757 0.085432 0.278244
O O12 0.871128 0.015195 0.481227
O O13 0.859533 0.819539 0.443797
O O14 0.717729 0.869792 0.396921
O O15 0.143493 0.769358 0.870969
#
# Coordination Sequence:
#
# PCOD8324727 Si02
#       7
#     6   6   6   6   6   6   6
#     4  11  22  39  66  91 119 165 212 264 325 376
#     4  11  22  39  63  89 129 164 207 254 324 391
#     4  10  22  38  63  85 120 167 206 253 318 379
#     4  11  20  37  62  92 128 165 204 260 320 385
#     4  10  18  35  59  90 128 159 195 249 306 386
#     4  10  20  38  59  90 124 164 200 249 312 383
#     4   9  19  38  60  86 120 151 206 259 304 372
#
# _framework density 19.503941000000001
#
# number of rings (size 3 to 8) (size 9 to 14) (size 15 to 20)
#    0.000    1.714    5.714    1.286    0.000    1.143 
#    0.000    1.429   18.857    0.000    0.000    0.000 
#    0.000    0.000    0.000    0.000    0.000    0.000 
#
# Total GULP energy -520338.445449 kJ/mol
# GULP energy per Si atom -12389.010606 kJ/mol
# Density = 1.945955 g / cm^3
# Si number density = 19.503941 Si / 1000 Ang^3
#
#
#
# Elastic Constant Matrix: (Units=GPa)
#
#
# Indices 1 2 3 4 5 6 
#
# 1 108.0567 54.3759 30.7058 0.0000 0.0000 0.0000
# 2 54.3759 108.0567 30.7058 0.0000 0.0000 0.0000
# 3 30.7058 30.7058 90.4251 0.0000 0.0000 0.0000
# 4 0.0000 0.0000 0.0000 18.9672 0.0000 0.0000
# 5 0.0000 0.0000 0.0000 0.0000 18.9672 0.0000
# 6 0.0000 0.0000 0.0000 0.0000 0.0000 26.8404
#
#
#
# Elastic Compliance Matrix: (Units=1/GPa)
#
#
# Indices 1 2 3 4 5 6 
#
# 1 0.012846 -0.005783 -0.002398 0.000000 0.000000 0.000000
# 2 -0.005783 0.012846 -0.002398 0.000000 0.000000 0.000000
# 3 -0.002398 -0.002398 0.012688 0.000000 0.000000 0.000000
# 4 0.000000 0.000000 0.000000 0.052723 0.000000 0.000000
# 5 0.000000 0.000000 0.000000 0.000000 0.052723 0.000000
# 6 0.000000 0.000000 0.000000 0.000000 0.000000 0.037257
#
#
# Mechanical properties :
#
#
# Convention : Reuss Voigt Hill
#
# Bulk Modulus (GPa) = 58.07094 59.79041 58.93067
# Shear Modulus (GPa) = 24.04062 25.67170 24.85616
#
# Velocity S-wave (km/s) = 3.51465 3.63193 3.57377
# Velocity P-wave (km/s) = 6.80507 6.95054 6.87819
#
# Compressibility (1/GPa) = 0.01722032
#
# Stress axis : x y z
#
# Youngs Moduli (GPa) = 77.84576 77.84576 78.81598
#
# Poissons Ratio (x) = 0.45016 0.18904
# Poissons Ratio (y) = 0.45016 0.18904
# Poissons Ratio (z) = 0.18671 0.18671
#
# Static dielectric constant tensor:
#      x y z
#    x 3.565780 0.000000 0.000000 
#    y 0.000000 3.565780 0.000000 
#    z 0.000000 0.000000 3.782040 
# 
# 
# High freq. dielectric constant tensor:
#      x y z
#    x 1.736960 0.000000 0.000000 
#    y 0.000000 1.736960 0.000000 
#    z 0.000000 0.000000 1.781120 
# 
# From -- ./inp_files/1651.got.cif
#   From: 2010.03.12/outbox.cif.g09.slc.cpg/sg171_1_cif.got.tgz:1651.got - 2010.04.02 06:49:11.
