data_PCOD8324032
_publ_section_title
;
Structure prediction by ZEFSAII (Michael W. Deem and Ramdas Pophale) SiO2 
 PCOD8324032
Probable space group: R -3 M
;
_chemical_formula_sum "Si O2"
_cell_formula_units_Z 162
_cell_length_a 26.751031
_cell_length_b 26.751031
_cell_length_c 14.453095
_cell_angle_alpha 90.000000
_cell_angle_beta 90.000000
_cell_angle_gamma 120.000000
_cell_volume 8957.205504
_symmetry_space_group_name_H-M "R -3 M"
_symmetry_group_IT_number 166
_symmetry_cell_setting 'hexagonal'
loop_
_space_group_symop_operation_xyz
x,y,z
-y,x-y,z
-x+y,-x,z
x-y,-y,-z
-x,-x+y,-z
y,x,-z
-x,-y,-z
y,-x+y,-z
x-y,x,-z
-x+y,y,z
x,x-y,z
-y,-x,z
2/3+x,1/3+y,1/3+z
2/3-y,1/3+x-y,1/3+z
2/3-x+y,1/3-x,1/3+z
2/3+x-y,1/3-y,1/3-z
2/3-x,1/3-x+y,1/3-z
2/3+y,1/3+x,1/3-z
2/3-x,1/3-y,1/3-z
2/3+y,1/3-x+y,1/3-z
2/3+x-y,1/3+x,1/3-z
2/3-x+y,1/3+y,1/3+z
2/3+x,1/3+x-y,1/3+z
2/3-y,1/3-x,1/3+z
1/3+x,2/3+y,2/3+z
1/3-y,2/3+x-y,2/3+z
1/3-x+y,2/3-x,2/3+z
1/3+x-y,2/3-y,2/3-z
1/3-x,2/3-x+y,2/3-z
1/3+y,2/3+x,2/3-z
1/3-x,2/3-y,2/3-z
1/3+y,2/3-x+y,2/3-z
1/3+x-y,2/3+x,2/3-z
1/3-x+y,2/3+y,2/3+z
1/3+x,2/3+x-y,2/3+z
1/3-y,2/3-x,2/3+z
loop_
_atom_site_type_symbol
_atom_site_label
_atom_site_fract_x
_atom_site_fract_y
_atom_site_fract_z
Si Si1 0.490892 0.333334 0.833334
Si Si2 0.101618 0.608243 0.445075
Si Si3 0.219846 0.667418 0.346762
Si Si4 0.992852 0.716275 0.892799
Si Si5 0.869192 0.624740 0.921580
O O1 0.517420 0.316687 0.748199
O O2 0.428968 0.278168 0.853252
O O3 0.087106 0.543553 0.474428
O O4 0.168882 0.646207 0.421109
O O5 0.091733 0.641658 0.529512
O O6 0.061223 0.604663 0.358476
O O7 0.235334 0.617667 0.327671
O O8 0.276055 0.723946 0.385750
O O9 0.924057 0.680613 0.878378
O O10 0.018365 0.685032 0.833334
O O11 0.000000 0.709804 0.000000
O O12 0.821636 0.643272 0.925887
#
# Coordination Sequence:
#
# PCOD8324032 Si02
#       5
#    18  36  36  36  36
#     4  10  18  32  51  78 119 158 196 232 282 342
#     4   9  21  39  57  80 113 150 188 237 288 337
#     4  10  19  33  54  81 114 152 194 239 287 339
#     4  12  23  38  60  86 114 148 190 239 284 342
#     4  10  20  35  56  81 114 154 191 231 287 339
#
# _framework density 18.085998
#
# number of rings (size 3 to 8) (size 9 to 14) (size 15 to 20)
#    0.000    1.778    3.333    3.556    0.000    2.222 
#    0.000    1.111    0.000    4.667    0.000    0.000 
#    0.000    4.444    0.000    0.000    0.000    0.000 
#
# Total GULP energy -669434.327545 kJ/mol
# GULP energy per Si atom -12396.931992 kJ/mol
# Density = 1.804483 g / cm^3
# Si number density = 18.085998 Si / 1000 Ang^3
#
#
#
# Elastic Constant Matrix: (Units=GPa)
#
#
# Indices 1 2 3 4 5 6 
#
# 1 120.3832 55.9223 44.5780 4.3519 0.0003 0.0000
# 2 55.9223 120.3832 44.5779 -4.3519 -0.0002 0.0000
# 3 44.5780 44.5779 87.0358 0.0000 0.0000 0.0000
# 4 4.3519 -4.3519 0.0000 24.1585 0.0000 -0.0002
# 5 0.0003 -0.0002 0.0000 0.0000 24.1585 4.3519
# 6 0.0000 0.0000 0.0000 -0.0002 4.3519 32.2304
#
#
#
# Elastic Compliance Matrix: (Units=1/GPa)
#
#
# Indices 1 2 3 4 5 6 
#
# 1 0.011777 -0.004123 -0.003920 -0.002864 0.000000 0.000000
# 2 -0.004123 0.011777 -0.003920 0.002864 0.000000 0.000000
# 3 -0.003920 -0.003920 0.015506 0.000000 0.000000 0.000000
# 4 -0.002864 0.002864 0.000000 0.042425 0.000000 0.000000
# 5 0.000000 0.000000 0.000000 0.000000 0.042425 -0.005728
# 6 0.000000 0.000000 0.000000 0.000000 -0.005728 0.031800
#
#
# Mechanical properties :
#
#
# Convention : Reuss Voigt Hill
#
# Bulk Modulus (GPa) = 66.08248 68.66206 67.37227
# Shear Modulus (GPa) = 27.07352 28.29107 27.68229
#
# Velocity S-wave (km/s) = 3.87322 3.95935 3.91652
# Velocity P-wave (km/s) = 7.52460 7.67780 7.60159
#
# Compressibility (1/GPa) = 0.01513260
#
# Stress axis : x y z
#
# Youngs Moduli (GPa) = 84.90923 84.90928 64.49319
#
# Poissons Ratio (x) = 0.35006 0.25285
# Poissons Ratio (y) = 0.35006 0.25284
# Poissons Ratio (z) = 0.33289 0.33289
#
# Static dielectric constant tensor:
#      x y z
#    x 3.487460 0.000000 0.000000 
#    y 0.000000 3.487460 0.000000 
#    z 0.000000 0.000000 12.636240 
# 
# 
# High freq. dielectric constant tensor:
#      x y z
#    x 1.706800 0.000000 0.000000 
#    y 0.000000 1.706800 0.000000 
#    z 0.000000 0.000000 1.675250 
# 
# From -- ./inp_files/4163.got.cif
#   From: 2010.03.12/outbox.cif.g09.slc.cpg/sg166_3_cif.got.tgz:4163.got - 2010.04.02 06:38:31.
