data_PCOD8324723
_publ_section_title
;
Structure prediction by ZEFSAII (Michael W. Deem and Ramdas Pophale) SiO2 
 PCOD8324723
Probable space group: P 62
;
_chemical_formula_sum "Si O2"
_cell_formula_units_Z 45
_cell_length_a 13.164576
_cell_length_b 13.164576
_cell_length_c 18.694790
_cell_angle_alpha 90.000000
_cell_angle_beta 90.000000
_cell_angle_gamma 120.000000
_cell_volume 2805.853391
_symmetry_space_group_name_H-M "P 62"
_symmetry_group_IT_number 171
_symmetry_cell_setting 'hexagonal'
loop_
_space_group_symop_operation_xyz
x,y,z
x-y,x,1/3+z
-y,x-y,2/3+z
-x,-y,z
-x+y,-x,1/3+z
y,-x+y,2/3+z
loop_
_atom_site_type_symbol
_atom_site_label
_atom_site_fract_x
_atom_site_fract_y
_atom_site_fract_z
Si Si1 0.754816 0.930712 0.677620
Si Si2 0.420886 0.559502 0.949217
Si Si3 0.148886 0.182799 0.290367
Si Si4 0.365041 0.458036 0.089175
Si Si5 0.409529 0.212622 0.883583
Si Si6 0.924358 0.273826 0.196046
Si Si7 0.000000 0.000000 0.174267
Si Si8 0.787756 0.931471 0.405792
O O1 0.675440 0.967581 0.725147
O O2 0.713002 0.899758 0.595737
O O3 0.760656 0.821742 0.711424
O O4 0.885002 0.041764 0.676431
O O5 0.500000 0.500000 0.965719
O O6 0.485977 0.697710 0.935336
O O7 0.342851 0.488302 0.880277
O O8 0.354590 0.537836 0.025605
O O9 0.215935 0.316596 0.262815
O O10 0.233769 0.154785 0.338811
O O11 0.103872 0.098394 0.222097
O O12 0.500000 0.500000 0.110726
O O13 0.297233 0.467526 0.157543
O O14 0.354185 0.288958 0.852888
O O15 0.877285 0.208230 0.120189
O O16 0.940037 0.054331 0.126121
#
# Coordination Sequence:
#
# PCOD8324723 Si02
#       8
#     6   6   6   6   6   6   3   6
#     4  10  16  27  40  65  97 123 157 191 228 292
#     4   8  17  32  49  70  89 114 169 213 237 278
#     4  11  19  25  39  67 100 128 160 180 227 313
#     4  10  18  30  51  71  91 122 161 211 252 275
#     4  10  18  31  48  68  93 122 159 209 250 282
#     4   9  17  28  45  65  91 121 161 198 237 283
#     4  12  16  24  34  60  98 138 154 166 218 304
#     4  12  17  25  41  65 100 134 154 181 238 303
#
# _framework density 16.037901000000002
#
# number of rings (size 3 to 8) (size 9 to 14) (size 15 to 20)
#    0.000    1.867    6.667    2.400    0.000    0.000 
#    0.000    0.000    2.933    0.000    0.000    0.000 
#    0.000    0.000    0.000    0.000    0.000    0.000 
#
# Total GULP energy -557526.818271 kJ/mol
# GULP energy per Si atom -12389.484850 kJ/mol
# Density = 1.600140 g / cm^3
# Si number density = 16.037901 Si / 1000 Ang^3
#
#
#
# Elastic Constant Matrix: (Units=GPa)
#
#
# Indices 1 2 3 4 5 6 
#
# 1 62.8301 30.4573 44.0580 0.0000 0.0000 0.0000
# 2 30.4573 62.8301 44.0580 0.0000 0.0000 0.0000
# 3 44.0580 44.0580 98.8304 0.0000 0.0000 0.0000
# 4 0.0000 0.0000 0.0000 23.5526 0.0000 0.0000
# 5 0.0000 0.0000 0.0000 0.0000 23.5526 0.0000
# 6 0.0000 0.0000 0.0000 0.0000 0.0000 16.1864
#
#
#
# Elastic Compliance Matrix: (Units=1/GPa)
#
#
# Indices 1 2 3 4 5 6 
#
# 1 0.024703 -0.006187 -0.008255 0.000000 0.000000 0.000000
# 2 -0.006187 0.024703 -0.008255 0.000000 0.000000 0.000000
# 3 -0.008255 -0.008255 0.017478 0.000000 0.000000 0.000000
# 4 0.000000 0.000000 0.000000 0.042458 0.000000 0.000000
# 5 0.000000 0.000000 0.000000 0.000000 0.042458 0.000000
# 6 0.000000 0.000000 0.000000 0.000000 0.000000 0.061780
#
#
# Mechanical properties :
#
#
# Convention : Reuss Voigt Hill
#
# Bulk Modulus (GPa) = 46.52714 51.29303 48.91009
# Shear Modulus (GPa) = 18.78729 19.71946 19.25338
#
# Velocity S-wave (km/s) = 3.42633 3.51030 3.46857
# Velocity P-wave (km/s) = 6.68780 6.96286 6.82672
#
# Compressibility (1/GPa) = 0.02149283
#
# Stress axis : x y z
#
# Youngs Moduli (GPa) = 40.48039 40.48039 57.21471
#
# Poissons Ratio (x) = 0.25044 0.47228
# Poissons Ratio (y) = 0.25044 0.47228
# Poissons Ratio (z) = 0.33415 0.33415
#
# Static dielectric constant tensor:
#      x y z
#    x 2.934880 0.000000 0.000000 
#    y 0.000000 2.934880 0.000000 
#    z 0.000000 0.000000 3.232710 
# 
# 
# High freq. dielectric constant tensor:
#      x y z
#    x 1.581260 0.000000 0.000000 
#    y 0.000000 1.581260 0.000000 
#    z 0.000000 0.000000 1.629080 
# 
# From -- ./inp_files/3080.got.cif
#   From: 2010.03.12/outbox.cif.g09.slc.cpg/sg171_2_cif.got.tgz:3080.got - 2010.04.02 06:49:11.
