data_PCOD8324426
_publ_section_title
;
Structure prediction by ZEFSAII (Michael W. Deem and Ramdas Pophale) SiO2 
 PCOD8324426
Probable space group: R -3 C 
;
_chemical_formula_sum "Si O2"
_cell_formula_units_Z 108
_cell_length_a 14.606247
_cell_length_b 14.606247
_cell_length_c 24.328468
_cell_angle_alpha 90.000000
_cell_angle_beta 90.000000
_cell_angle_gamma 120.000000
_cell_volume 4494.927325
_symmetry_space_group_name_H-M "R -3 C "
_symmetry_group_IT_number 167
_symmetry_cell_setting 'hexagonal'
loop_
_space_group_symop_operation_xyz
x,y,z
-y,x-y,z
-x+y,-x,z
x-y,-y,1/2-z
-x,-x+y,1/2-z
y,x,1/2-z
-x,-y,-z
y,-x+y,-z
x-y,x,-z
-x+y,y,1/2+z
x,x-y,1/2+z
-y,-x,1/2+z
2/3+x,1/3+y,1/3+z
2/3-y,1/3+x-y,1/3+z
2/3-x+y,1/3-x,1/3+z
2/3+x-y,1/3-y,5/6-z
2/3-x,1/3-x+y,5/6-z
2/3+y,1/3+x,5/6-z
2/3-x,1/3-y,1/3-z
2/3+y,1/3-x+y,1/3-z
2/3+x-y,1/3+x,1/3-z
2/3-x+y,1/3+y,5/6+z
2/3+x,1/3+x-y,5/6+z
2/3-y,1/3-x,5/6+z
1/3+x,2/3+y,2/3+z
1/3-y,2/3+x-y,2/3+z
1/3-x+y,2/3-x,2/3+z
1/3+x-y,2/3-y,1/6-z
1/3-x,2/3-x+y,1/6-z
1/3+y,2/3+x,1/6-z
1/3-x,2/3-y,2/3-z
1/3+y,2/3-x+y,2/3-z
1/3+x-y,2/3+x,2/3-z
1/3-x+y,2/3+y,1/6+z
1/3+x,2/3+x-y,1/6+z
1/3-y,2/3-x,1/6+z
loop_
_atom_site_type_symbol
_atom_site_label
_atom_site_fract_x
_atom_site_fract_y
_atom_site_fract_z
Si Si1 0.528536 0.128346 0.139850
Si Si2 0.409325 0.525918 0.518236
Si Si3 0.270009 0.444644 0.190418
O O1 0.498783 0.165449 0.083334
O O2 0.645232 0.141109 0.141349
O O3 0.524587 0.205175 0.185935
O O4 0.442148 0.010630 0.157353
O O5 0.500000 0.500000 0.500000
O O6 0.365334 0.486296 0.578866
O O7 0.181815 0.477344 0.179988
#
# Coordination Sequence:
#
# PCOD8324426 Si02
#       3
#    36  36  36
#     4  12  26  46  78 111 152 200 263 327 390 462
#     4  12  26  47  75 114 154 201 262 323 394 467
#     4  12  28  49  77 110 159 206 258 320 399 471
#
# _framework density 24.027086000000001
#
# number of rings (size 3 to 8) (size 9 to 14) (size 15 to 20)
#    0.000    0.000    3.333    6.000    0.000    6.667 
#    0.000    0.000    0.000    0.000    0.000    0.000 
#    0.000    0.000    0.000    0.000    0.000    0.000 
#
# Total GULP energy -446329.563507 kJ/mol
# GULP energy per Si atom -12398.043431 kJ/mol
# Density = 2.397240 g / cm^3
# Si number density = 24.027086 Si / 1000 Ang^3
#
#
#
# Elastic Constant Matrix: (Units=GPa)
#
#
# Indices 1 2 3 4 5 6 
#
# 1 129.9419 31.5063 29.7612 4.9787 0.0000 0.0000
# 2 31.5063 129.9419 29.7612 -4.9787 0.0000 0.0000
# 3 29.7612 29.7612 89.5213 0.0000 0.0000 0.0000
# 4 4.9787 -4.9787 0.0000 33.6315 0.0000 0.0000
# 5 0.0000 0.0000 0.0000 0.0000 33.6315 4.9787
# 6 0.0000 0.0000 0.0000 0.0000 4.9787 49.2178
#
#
#
# Elastic Compliance Matrix: (Units=1/GPa)
#
#
# Indices 1 2 3 4 5 6 
#
# 1 0.008686 -0.001627 -0.002347 -0.001527 0.000000 0.000000
# 2 -0.001627 0.008686 -0.002347 0.001527 0.000000 0.000000
# 3 -0.002347 -0.002347 0.012731 0.000000 0.000000 0.000000
# 4 -0.001527 0.001527 0.000000 0.030186 0.000000 0.000000
# 5 0.000000 0.000000 0.000000 0.000000 0.030186 -0.003054
# 6 0.000000 0.000000 0.000000 0.000000 -0.003054 0.020627
#
#
# Mechanical properties :
#
#
# Convention : Reuss Voigt Hill
#
# Bulk Modulus (GPa) = 57.26719 59.05137 58.15928
# Shear Modulus (GPa) = 38.59088 40.52129 39.55608
#
# Velocity S-wave (km/s) = 4.01202 4.11114 4.06188
# Velocity P-wave (km/s) = 6.73408 6.86772 6.80123
#
# Compressibility (1/GPa) = 0.01746200
#
# Stress axis : x y z
#
# Youngs Moduli (GPa) = 115.12440 115.12440 78.54904
#
# Poissons Ratio (x) = 0.18732 0.18434
# Poissons Ratio (y) = 0.18732 0.18434
# Poissons Ratio (z) = 0.27017 0.27017
#
# Static dielectric constant tensor:
#      x y z
#    x 4.692400 0.000000 0.000000 
#    y 0.000000 4.692400 0.000000 
#    z 0.000000 0.000000 4.455480 
# 
# 
# High freq. dielectric constant tensor:
#      x y z
#    x 1.968690 0.000000 0.000000 
#    y 0.000000 1.968690 0.000000 
#    z 0.000000 0.000000 1.947430 
# 
# From -- ./inp_files/6793.got.cif
#   From: 2010.03.12/outbox.cif.g09.slc.cpg/sg167_4_cif.got.tgz:6793.got - 2010.04.02 06:42:56.
