data_PCOD8324097
_publ_section_title
;
Structure prediction by ZEFSAII (Michael W. Deem and Ramdas Pophale) SiO2 
 PCOD8324097
Probable space group: R -3 M
;
_chemical_formula_sum "Si O2"
_cell_formula_units_Z 144
_cell_length_a 31.658720
_cell_length_b 31.658720
_cell_length_c 8.910718
_cell_angle_alpha 90.000000
_cell_angle_beta 90.000000
_cell_angle_gamma 120.000000
_cell_volume 7734.460663
_symmetry_space_group_name_H-M "R -3 M"
_symmetry_group_IT_number 166
_symmetry_cell_setting 'hexagonal'
loop_
_space_group_symop_operation_xyz
x,y,z
-y,x-y,z
-x+y,-x,z
x-y,-y,-z
-x,-x+y,-z
y,x,-z
-x,-y,-z
y,-x+y,-z
x-y,x,-z
-x+y,y,z
x,x-y,z
-y,-x,z
2/3+x,1/3+y,1/3+z
2/3-y,1/3+x-y,1/3+z
2/3-x+y,1/3-x,1/3+z
2/3+x-y,1/3-y,1/3-z
2/3-x,1/3-x+y,1/3-z
2/3+y,1/3+x,1/3-z
2/3-x,1/3-y,1/3-z
2/3+y,1/3-x+y,1/3-z
2/3+x-y,1/3+x,1/3-z
2/3-x+y,1/3+y,1/3+z
2/3+x,1/3+x-y,1/3+z
2/3-y,1/3-x,1/3+z
1/3+x,2/3+y,2/3+z
1/3-y,2/3+x-y,2/3+z
1/3-x+y,2/3-x,2/3+z
1/3+x-y,2/3-y,2/3-z
1/3-x,2/3-x+y,2/3-z
1/3+y,2/3+x,2/3-z
1/3-x,2/3-y,2/3-z
1/3+y,2/3-x+y,2/3-z
1/3+x-y,2/3+x,2/3-z
1/3-x+y,2/3+y,2/3+z
1/3+x,2/3+x-y,2/3+z
1/3-y,2/3-x,2/3+z
loop_
_atom_site_type_symbol
_atom_site_label
_atom_site_fract_x
_atom_site_fract_y
_atom_site_fract_z
Si Si1 0.277013 0.390609 0.198048
Si Si2 0.428551 0.957290 0.807018
Si Si3 0.851318 0.801313 0.066255
Si Si4 0.472126 0.621022 0.261631
O O1 0.333334 0.406737 0.166667
O O2 0.268974 0.385586 0.375600
O O3 0.240358 0.343933 0.095916
O O4 0.263863 0.431874 0.159514
O O5 0.479971 0.959941 0.837402
O O6 0.398263 0.917388 0.678430
O O7 0.906814 0.813627 0.042443
O O8 0.837806 0.801806 0.239555
O O9 0.844927 0.844927 0.000000
O O10 0.414625 0.585376 0.269585
O O11 0.478239 0.666667 0.166667
#
# Coordination Sequence:
#
# PCOD8324097 Si02
#       4
#    36  36  36  36
#     4  10  19  33  53  77 105 139 183 221 272 318
#     4  10  20  36  55  74 105 146 184 219 274 331
#     4  10  21  36  55  82 108 139 178 221 269 325
#     4  10  20  34  55  79 105 135 177 224 269 323
#
# _framework density 18.617975999999999
#
# number of rings (size 3 to 8) (size 9 to 14) (size 15 to 20)
#    0.000    2.000    0.000    6.000    0.000    4.000 
#    4.500    3.750    0.000    0.500    0.000    0.000 
#    0.000    0.000    0.000    0.000    0.000    0.000 
#
# Total GULP energy -594659.877168 kJ/mol
# GULP energy per Si atom -12388.747441 kJ/mol
# Density = 1.857560 g / cm^3
# Si number density = 18.617976 Si / 1000 Ang^3
#
#
#
# Elastic Constant Matrix: (Units=GPa)
#
#
# Indices 1 2 3 4 5 6 
#
# 1 97.9771 46.1878 38.0563 2.7678 0.0014 -0.0007
# 2 46.1878 97.9751 38.0394 -2.8405 0.0111 -0.0056
# 3 38.0563 38.0394 83.4271 -0.1149 0.0489 -0.0025
# 4 2.7678 -2.8405 -0.1149 21.4731 -0.0835 -0.0075
# 5 0.0014 0.0111 0.0489 -0.0835 21.5082 2.8144
# 6 -0.0007 -0.0056 -0.0025 -0.0075 2.8144 25.8956
#
#
#
# Elastic Compliance Matrix: (Units=1/GPa)
#
#
# Indices 1 2 3 4 5 6 
#
# 1 0.014363 -0.005225 -0.004173 -0.002565 0.000002 -0.000002
# 2 -0.005225 0.014359 -0.004160 0.002551 0.000012 0.000002
# 3 -0.004173 -0.004160 0.015787 0.000072 -0.000034 0.000004
# 4 -0.002565 0.002551 0.000072 0.047239 0.000183 -0.000006
# 5 0.000002 0.000012 -0.000034 0.000183 0.047165 -0.005126
# 6 -0.000002 0.000002 0.000004 -0.000006 -0.005126 0.039174
#
#
# Mechanical properties :
#
#
# Convention : Reuss Voigt Hill
#
# Bulk Modulus (GPa) = 57.49574 58.21627 57.85600
# Shear Modulus (GPa) = 23.69652 24.24843 23.97248
#
# Velocity S-wave (km/s) = 3.57147 3.61282 3.59221
# Velocity P-wave (km/s) = 6.92503 6.98141 6.95328
#
# Compressibility (1/GPa) = 0.01739259
#
# Stress axis : x y z
#
# Youngs Moduli (GPa) = 69.62324 69.64207 63.34335
#
# Poissons Ratio (x) = 0.36390 0.26432
# Poissons Ratio (y) = 0.36380 0.26352
# Poissons Ratio (z) = 0.29053 0.28972
#
# Static dielectric constant tensor:
#      x y z
#    x 3.429640 -0.000050 -0.000470 
#    y -0.000050 3.429770 -0.000130 
#    z -0.000470 -0.000130 3.662690 
# 
# 
# High freq. dielectric constant tensor:
#      x y z
#    x 1.716760 0.000000 -0.000040 
#    y 0.000000 1.716770 0.000000 
#    z -0.000040 0.000000 1.729250 
# 
# From -- ./inp_files/1776.got.cif
#   From: 2010.03.12/outbox.cif.g09.slc.cpg/sg166_1_cif.got.tgz:1776.got - 2010.04.02 06:38:31.
