data_PCOD8324930
_publ_section_title
;
Structure prediction by ZEFSAII (Michael W. Deem and Ramdas Pophale) SiO2 
 PCOD8324930
Probable space group: P -6
;
_chemical_formula_sum "Si O2"
_cell_formula_units_Z 28
_cell_length_a 14.265301
_cell_length_b 14.265301
_cell_length_c 8.698307
_cell_angle_alpha 90.000000
_cell_angle_beta 90.000000
_cell_angle_gamma 120.000000
_cell_volume 1532.947364
_symmetry_space_group_name_H-M "P -6"
_symmetry_group_IT_number 174
_symmetry_cell_setting 'hexagonal'
loop_
_space_group_symop_operation_xyz
x,y,z
-x+y,-x,-z
-y,x-y,z
x,y,-z
-x+y,-x,z
-y,x-y,-z
loop_
_atom_site_type_symbol
_atom_site_label
_atom_site_fract_x
_atom_site_fract_y
_atom_site_fract_z
Si Si1 0.331403 0.298002 0.680962
Si Si2 0.000000 0.000000 0.182117
Si Si3 0.666668 0.333334 0.682176
Si Si4 0.753636 0.658698 0.818366
Si Si5 0.887256 0.451018 0.182018
Si Si6 0.759199 0.875543 0.818811
O O1 0.341974 0.299218 0.500000
O O2 0.324366 0.187878 0.742931
O O3 0.432860 0.407094 0.750380
O O4 0.229010 0.310884 0.729865
O O5 0.075200 0.120222 0.242298
O O6 0.000000 0.000000 0.000000
O O7 0.666667 0.333334 0.500000
O O8 0.659221 0.225241 0.749581
O O9 0.646315 0.551165 0.760028
O O10 0.729250 0.754335 0.773740
O O11 0.770426 0.656167 0.000000
O O12 0.886310 0.456703 0.000000
O O13 0.746491 0.885627 0.000000
#
# Coordination Sequence:
#
# PCOD8324930 Si02
#       6
#     6   2   2   6   6   6
#     4  12  24  35  53  83 118 152 184 230 286 338
#     4   9  15  27  55  83 109 144 178 224 271 327
#     4  12  22  32  52  87 121 149 181 231 289 338
#     4  10  21  37  60  83 107 146 192 236 280 332
#     4  11  22  37  57  81 112 154 197 233 275 336
#     4  10  19  36  57  81 111 147 188 228 275 335
#
# _framework density 18.265467999999998
#
# number of rings (size 3 to 8) (size 9 to 14) (size 15 to 20)
#    0.000    1.286    4.286    3.214    0.000    1.714 
#    0.000    0.000    0.000    0.857    0.000    3.000 
#    0.000    0.000    0.000    0.000    0.000    0.000 
#
# Total GULP energy -347139.493610 kJ/mol
# GULP energy per Si atom -12397.839058 kJ/mol
# Density = 1.822389 g / cm^3
# Si number density = 18.265468 Si / 1000 Ang^3
#
#
#
# Elastic Constant Matrix: (Units=GPa)
#
#
# Indices 1 2 3 4 5 6 
#
# 1 105.1006 18.0699 32.5658 0.0000 0.0000 0.0109
# 2 18.0699 105.0984 32.5670 0.0000 0.0000 -0.0105
# 3 32.5658 32.5670 79.9161 0.0000 0.0000 0.0005
# 4 0.0000 0.0000 0.0000 16.7623 0.0000 0.0000
# 5 0.0000 0.0000 0.0000 0.0000 16.7623 0.0000
# 6 0.0109 -0.0105 0.0005 0.0000 0.0000 43.5250
#
#
#
# Elastic Compliance Matrix: (Units=1/GPa)
#
#
# Indices 1 2 3 4 5 6 
#
# 1 0.010920 -0.000571 -0.004217 0.000000 0.000000 -0.000003
# 2 -0.000571 0.010920 -0.004217 0.000000 0.000000 0.000003
# 3 -0.004217 -0.004217 0.015950 0.000000 0.000000 0.000000
# 4 0.000000 0.000000 0.000000 0.059658 0.000000 0.000000
# 5 0.000000 0.000000 0.000000 0.000000 0.059658 0.000000
# 6 -0.000003 0.000003 0.000000 0.000000 0.000000 0.022975
#
#
# Mechanical properties :
#
#
# Convention : Reuss Voigt Hill
#
# Bulk Modulus (GPa) = 50.55832 50.72449 50.64140
# Shear Modulus (GPa) = 24.42790 29.20407 26.81599
#
# Velocity S-wave (km/s) = 3.66099 4.00292 3.83577
# Velocity P-wave (km/s) = 6.75354 7.01395 6.88498
#
# Compressibility (1/GPa) = 0.01977914
#
# Stress axis : x y z
#
# Youngs Moduli (GPa) = 91.57923 91.57613 62.69475
#
# Poissons Ratio (x) = 0.05226 0.26439
# Poissons Ratio (y) = 0.05226 0.26441
# Poissons Ratio (z) = 0.38620 0.38622
#
# Static dielectric constant tensor:
#      x y z
#    x 3.447590 0.000020 0.000000 
#    y 0.000020 3.447580 0.000000 
#    z 0.000000 0.000000 3.185850 
# 
# 
# High freq. dielectric constant tensor:
#      x y z
#    x 1.700160 0.000000 0.000000 
#    y 0.000000 1.700160 0.000000 
#    z 0.000000 0.000000 1.698170 
# 
# From -- ./inp_files/300.got.cif
#   From: 2010.03.12/outbox.cif.g09.slc.cpg/sg174_cif.got.tgz:300.got - 2010.04.02 06:54:58.
