data_PCOD8324506
_publ_section_title
;
Structure prediction by ZEFSAII (Michael W. Deem and Ramdas Pophale) SiO2 
 PCOD8324506
Probable space group: P 61
;
_chemical_formula_sum "Si O2"
_cell_formula_units_Z 42
_cell_length_a 8.886230
_cell_length_b 8.886230
_cell_length_c 27.324830
_cell_angle_alpha 90.000000
_cell_angle_beta 90.000000
_cell_angle_gamma 120.000000
_cell_volume 1868.629497
_symmetry_space_group_name_H-M "P 61"
_symmetry_group_IT_number 169
_symmetry_cell_setting 'hexagonal'
loop_
_space_group_symop_operation_xyz
x,y,z
x-y,x,1/6+z
-y,x-y,1/3+z
-x,-y,1/2+z
-x+y,-x,2/3+z
y,-x+y,5/6+z
loop_
_atom_site_type_symbol
_atom_site_label
_atom_site_fract_x
_atom_site_fract_y
_atom_site_fract_z
Si Si1 0.874686 0.024534 0.006200
Si Si2 0.790630 0.916712 0.547097
Si Si3 0.015900 0.373756 0.291832
Si Si4 0.335534 0.015899 0.595356
Si Si5 0.686351 0.824190 0.803327
Si Si6 0.341582 0.687907 0.763927
Si Si7 0.368748 0.542449 0.329423
O O1 0.736884 0.041916 0.040560
O O2 0.817417 0.823903 0.994615
O O3 0.042478 0.103400 0.040414
O O4 0.906370 0.136836 0.957343
O O5 0.653691 0.738256 0.573199
O O6 0.737136 0.941597 0.492941
O O7 0.823992 0.079197 0.580682
O O8 0.187613 0.537704 0.315145
O O9 0.853343 0.402747 0.284989
O O10 0.534207 0.154813 0.586378
O O11 0.337361 0.858996 0.624778
O O12 0.496182 0.810457 0.802242
O O13 0.674689 0.658507 0.831861
O O14 0.364428 0.798983 0.715114
#
# Coordination Sequence:
#
# PCOD8324506 Si02
#       7
#     6   6   6   6   6   6   6
#     4  12  21  42  66 103 136 183 233 292 353 420
#     4  11  19  39  69  99 124 184 236 274 352 423
#     4  11  23  38  74  94 137 181 234 289 351 427
#     4  11  27  39  68 100 144 180 236 294 350 425
#     4  10  20  40  73  97 136 186 227 285 349 429
#     4  11  24  42  66 102 138 185 233 290 361 420
#     4  10  22  44  66  97 141 181 229 292 350 422
#
# _framework density 22.476367
#
# number of rings (size 3 to 8) (size 9 to 14) (size 15 to 20)
#    0.000    1.143    5.714    0.857    2.000    1.143 
#    0.000    2.857    0.000    0.000    0.000    0.000 
#    0.000    0.000    0.000    0.000    0.000    0.000 
#
# Total GULP energy -520531.492087 kJ/mol
# GULP energy per Si atom -12393.606954 kJ/mol
# Density = 2.242521 g / cm^3
# Si number density = 22.476367 Si / 1000 Ang^3
#
#
#
# Elastic Constant Matrix: (Units=GPa)
#
#
# Indices 1 2 3 4 5 6 
#
# 1 84.0403 13.3840 26.7088 0.0000 0.0000 0.0000
# 2 13.3840 84.0403 26.7088 0.0000 0.0000 0.0000
# 3 26.7088 26.7088 84.8232 0.0000 0.0000 0.0000
# 4 0.0000 0.0000 0.0000 34.7899 0.0000 0.0000
# 5 0.0000 0.0000 0.0000 0.0000 34.7898 0.0000
# 6 0.0000 0.0000 0.0000 0.0000 0.0000 35.3281
#
#
#
# Elastic Compliance Matrix: (Units=1/GPa)
#
#
# Indices 1 2 3 4 5 6 
#
# 1 0.013280 -0.000873 -0.003906 0.000000 0.000000 0.000000
# 2 -0.000873 0.013280 -0.003906 0.000000 0.000000 0.000000
# 3 -0.003906 -0.003906 0.014249 0.000000 0.000000 0.000000
# 4 0.000000 0.000000 0.000000 0.028744 0.000000 0.000000
# 5 0.000000 0.000000 0.000000 0.000000 0.028744 0.000000
# 6 0.000000 0.000000 0.000000 0.000000 0.000000 0.028306
#
#
# Mechanical properties :
#
#
# Convention : Reuss Voigt Hill
#
# Bulk Modulus (GPa) = 42.66923 42.94525 42.80724
# Shear Modulus (GPa) = 32.94084 33.38837 33.16461
#
# Velocity S-wave (km/s) = 3.83244 3.85838 3.84543
# Velocity P-wave (km/s) = 6.21359 6.24482 6.22923
#
# Compressibility (1/GPa) = 0.02343609
#
# Stress axis : x y z
#
# Youngs Moduli (GPa) = 75.30318 75.30318 70.17879
#
# Poissons Ratio (x) = 0.06577 0.27415
# Poissons Ratio (y) = 0.06577 0.27415
# Poissons Ratio (z) = 0.29417 0.29417
#
# Static dielectric constant tensor:
#      x y z
#    x 4.004380 0.000000 0.000000 
#    y 0.000000 4.004380 0.000000 
#    z 0.000000 0.000000 3.924520 
# 
# 
# High freq. dielectric constant tensor:
#      x y z
#    x 1.874170 0.000000 0.000000 
#    y 0.000000 1.874170 0.000000 
#    z 0.000000 0.000000 1.886680 
# 
# From -- ./inp_files/1874.got.cif
#   From: 2010.03.12/outbox.cif.g09.slc.cpg/sg169_cif.got.tgz:1874.got - 2010.04.02 06:46:06.
