data_PCOD8324936
_publ_section_title
;
Structure prediction by ZEFSAII (Michael W. Deem and Ramdas Pophale) SiO2 
 PCOD8324936
Probable space group: P -6
;
_chemical_formula_sum "Si O2"
_cell_formula_units_Z 38
_cell_length_a 14.540921
_cell_length_b 14.540921
_cell_length_c 13.906868
_cell_angle_alpha 90.000000
_cell_angle_beta 90.000000
_cell_angle_gamma 120.000000
_cell_volume 2546.500666
_symmetry_space_group_name_H-M "P -6"
_symmetry_group_IT_number 174
_symmetry_cell_setting 'hexagonal'
loop_
_space_group_symop_operation_xyz
x,y,z
-x+y,-x,-z
-y,x-y,z
x,y,-z
-x+y,-x,z
-y,x-y,-z
loop_
_atom_site_type_symbol
_atom_site_label
_atom_site_fract_x
_atom_site_fract_y
_atom_site_fract_z
Si Si1 0.433280 0.909395 0.385289
Si Si2 0.910492 0.142934 0.301391
Si Si3 0.073257 0.871205 0.609525
Si Si4 0.874062 0.325904 0.385453
Si Si5 0.666668 0.333335 0.386142
Si Si6 0.243734 0.447389 0.390462
Si Si7 0.955174 0.089118 0.893593
O O1 0.429391 0.912556 0.500000
O O2 0.516598 0.875743 0.344188
O O3 0.319813 0.819930 0.342336
O O4 0.465390 0.027441 0.349877
O O5 0.885443 0.232404 0.336455
O O6 0.924786 0.150076 0.185742
O O7 0.010696 0.141831 0.349010
O O8 0.814381 0.028285 0.330801
O O9 0.039097 0.872694 0.500000
O O10 0.158467 0.834288 0.618040
O O11 0.873690 0.310890 0.500000
O O12 0.766151 0.321788 0.349792
O O13 0.666667 0.333334 0.500000
O O14 0.267914 0.486090 0.500000
O O15 0.078437 0.117948 0.882090
O O16 0.937966 0.123676 0.000000
#
# Coordination Sequence:
#
# PCOD8324936 Si02
#       7
#     6   6   6   6   2   6   6
#     4   9  16  28  42  57  80 116 154 192 225 261
#     4  12  19  30  44  67  93 125 150 186 234 280
#     4  11  20  27  38  63  96 125 149 173 219 274
#     4  10  20  32  45  61  89 125 168 201 224 269
#     4   9  21  36  45  57  85 137 178 204 231 252
#     4   9  17  27  40  58  82 115 153 185 222 258
#     4   8  15  30  47  65  91 121 149 181 226 284
#
# _framework density 14.922439000000001
#
# number of rings (size 3 to 8) (size 9 to 14) (size 15 to 20)
#    0.316    1.895    3.158    2.053    2.211    1.263 
#    0.000    0.000    0.000    0.000    0.000    1.105 
#    0.000    0.000    0.000    0.000    0.000    0.000 
#
# Total GULP energy -470874.059158 kJ/mol
# GULP energy per Si atom -12391.422609 kJ/mol
# Density = 1.488848 g / cm^3
# Si number density = 14.922439 Si / 1000 Ang^3
#
#
#
# Elastic Constant Matrix: (Units=GPa)
#
#
# Indices 1 2 3 4 5 6 
#
# 1 67.6551 23.2391 21.2658 0.0000 0.0000 -0.0001
# 2 23.2391 67.6553 21.2654 0.0000 0.0000 -0.0003
# 3 21.2658 21.2654 60.1025 0.0000 0.0000 0.0000
# 4 0.0000 0.0000 0.0000 8.5134 0.0001 0.0000
# 5 0.0000 0.0000 0.0000 0.0001 8.5135 0.0000
# 6 -0.0001 -0.0003 0.0000 0.0000 0.0000 22.2079
#
#
#
# Elastic Compliance Matrix: (Units=1/GPa)
#
#
# Indices 1 2 3 4 5 6 
#
# 1 0.017850 -0.004665 -0.004665 0.000000 0.000000 0.000000
# 2 -0.004665 0.017849 -0.004665 0.000000 0.000000 0.000000
# 3 -0.004665 -0.004665 0.019939 0.000000 0.000000 0.000000
# 4 0.000000 0.000000 0.000000 0.117463 -0.000002 0.000000
# 5 0.000000 0.000000 0.000000 -0.000002 0.117460 0.000000
# 6 0.000000 0.000000 0.000000 0.000000 0.000000 0.045029
#
#
# Mechanical properties :
#
#
# Convention : Reuss Voigt Hill
#
# Bulk Modulus (GPa) = 36.16815 36.32815 36.24815
# Shear Modulus (GPa) = 13.41216 16.48980 14.95098
#
# Velocity S-wave (km/s) = 3.00124 3.32781 3.16873
# Velocity P-wave (km/s) = 6.02494 6.25806 6.14261
#
# Compressibility (1/GPa) = 0.02764864
#
# Stress axis : x y z
#
# Youngs Moduli (GPa) = 56.02380 56.02422 50.15190
#
# Poissons Ratio (x) = 0.26134 0.23396
# Poissons Ratio (y) = 0.26134 0.23396
# Poissons Ratio (z) = 0.26136 0.26135
#
# Static dielectric constant tensor:
#      x y z
#    x 2.910940 0.000000 0.000000 
#    y 0.000000 2.910940 0.000000 
#    z 0.000000 0.000000 2.481740 
# 
# 
# High freq. dielectric constant tensor:
#      x y z
#    x 1.572380 0.000000 0.000000 
#    y 0.000000 1.572380 0.000000 
#    z 0.000000 0.000000 1.506970 
# 
# From -- ./inp_files/735.got.cif
#   From: 2010.03.12/outbox.cif.g09.slc.cpg/sg174_cif.got.tgz:735.got - 2010.04.02 06:54:58.
