data_PCOD8324933
_publ_section_title
;
Structure prediction by ZEFSAII (Michael W. Deem and Ramdas Pophale) SiO2 
 PCOD8324933
Probable space group: P -6
;
_chemical_formula_sum "Si O2"
_cell_formula_units_Z 35
_cell_length_a 8.426656
_cell_length_b 8.426656
_cell_length_c 27.812318
_cell_angle_alpha 90.000000
_cell_angle_beta 90.000000
_cell_angle_gamma 120.000000
_cell_volume 1710.323836
_symmetry_space_group_name_H-M "P -6"
_symmetry_group_IT_number 174
_symmetry_cell_setting 'hexagonal'
loop_
_space_group_symop_operation_xyz
x,y,z
-x+y,-x,-z
-y,x-y,z
x,y,-z
-x+y,-x,z
-y,x-y,-z
loop_
_atom_site_type_symbol
_atom_site_label
_atom_site_fract_x
_atom_site_fract_y
_atom_site_fract_z
Si Si1 0.370802 0.998694 0.843458
Si Si2 0.294686 0.444251 0.500000
Si Si3 0.701698 0.999661 0.878733
Si Si4 0.994474 0.346026 0.640684
Si Si5 0.000000 0.000000 0.943341
Si Si6 0.107391 0.498798 0.259702
Si Si7 0.317375 0.326492 0.601865
O O1 0.528984 0.035216 0.883625
O O2 0.309432 0.149185 0.846128
O O3 0.439282 0.007472 0.789416
O O4 0.194154 0.801683 0.851986
O O5 0.139331 0.506153 0.500000
O O6 0.269894 0.316331 0.545524
O O7 0.810770 0.992423 0.926290
O O8 0.972047 0.383815 0.696678
O O9 0.204248 0.402568 0.631014
O O10 0.938260 0.468776 0.608873
O O11 0.868756 0.137258 0.623862
O O12 0.000000 0.000000 0.000000
O O13 0.282213 0.465826 0.262161
#
# Coordination Sequence:
#
# PCOD8324933 Si02
#       7
#     6   3   6   6   2   6   6
#     4  11  20  37  61  97 128 181 226 271 321 386
#     4  10  20  42  76  88 114 166 206 258 326 384
#     4  10  21  37  63  96 136 171 227 280 329 385
#     4  12  24  42  64  96 130 165 206 259 322 382
#     4   9  21  42  66  96 135 177 222 288 351 394
#     4  10  19  37  66  87 129 182 218 255 319 389
#     4  12  24  43  66  96 124 162 208 259 324 386
#
# _framework density 20.463961999999999
#
# number of rings (size 3 to 8) (size 9 to 14) (size 15 to 20)
#    0.514    0.686    5.143    2.057    0.000    4.114 
#    0.000    3.429    0.000    0.000    0.000    0.000 
#    0.000    0.000    0.000    0.000    0.000    0.000 
#
# Total GULP energy -433776.365655 kJ/mol
# GULP energy per Si atom -12393.610447 kJ/mol
# Density = 2.041739 g / cm^3
# Si number density = 20.463962 Si / 1000 Ang^3
#
#
#
# Elastic Constant Matrix: (Units=GPa)
#
#
# Indices 1 2 3 4 5 6 
#
# 1 84.5886 11.6397 35.9399 0.0000 0.0000 0.0000
# 2 11.6397 84.5886 35.9399 0.0000 0.0000 0.0000
# 3 35.9399 35.9399 133.9090 0.0000 0.0000 0.0000
# 4 0.0000 0.0000 0.0000 24.5971 0.0000 0.0000
# 5 0.0000 0.0000 0.0000 0.0000 24.5971 0.0000
# 6 0.0000 0.0000 0.0000 0.0000 0.0000 36.4745
#
#
#
# Elastic Compliance Matrix: (Units=1/GPa)
#
#
# Indices 1 2 3 4 5 6 
#
# 1 0.013353 -0.000355 -0.003488 0.000000 0.000000 0.000000
# 2 -0.000355 0.013353 -0.003488 0.000000 0.000000 0.000000
# 3 -0.003488 -0.003488 0.009340 0.000000 0.000000 0.000000
# 4 0.000000 0.000000 0.000000 0.040655 0.000000 0.000000
# 5 0.000000 0.000000 0.000000 0.000000 0.040655 0.000000
# 6 0.000000 0.000000 0.000000 0.000000 0.000000 0.027416
#
#
# Mechanical properties :
#
#
# Convention : Reuss Voigt Hill
#
# Bulk Modulus (GPa) = 46.76852 52.23614 49.50233
# Shear Modulus (GPa) = 30.01833 31.77150 30.89491
#
# Velocity S-wave (km/s) = 3.83415 3.94453 3.88973
# Velocity P-wave (km/s) = 6.51956 6.80640 6.66452
#
# Compressibility (1/GPa) = 0.02138190
#
# Stress axis : x y z
#
# Youngs Moduli (GPa) = 74.88963 74.88963 107.06290
#
# Poissons Ratio (x) = 0.02660 0.37349
# Poissons Ratio (y) = 0.02660 0.37349
# Poissons Ratio (z) = 0.26125 0.26125
#
# Static dielectric constant tensor:
#      x y z
#    x 3.617520 0.000000 0.000000 
#    y 0.000000 3.617520 0.000000 
#    z 0.000000 0.000000 3.389460 
# 
# 
# High freq. dielectric constant tensor:
#      x y z
#    x 1.796000 0.000000 0.000000 
#    y 0.000000 1.796000 0.000000 
#    z 0.000000 0.000000 1.775490 
# 
# From -- ./inp_files/1089.got.cif
#   From: 2010.03.12/outbox.cif.g09.slc.cpg/sg174_cif.got.tgz:1089.got - 2010.04.02 06:54:58.
