data_PCOD8324791
_publ_section_title
;
Structure prediction by ZEFSAII (Michael W. Deem and Ramdas Pophale) SiO2 
 PCOD8324791
Probable space group: P 62
;
_chemical_formula_sum "Si O2"
_cell_formula_units_Z 42
_cell_length_a 12.423929
_cell_length_b 12.423929
_cell_length_c 13.301634
_cell_angle_alpha 90.000000
_cell_angle_beta 90.000000
_cell_angle_gamma 120.000000
_cell_volume 1778.089213
_symmetry_space_group_name_H-M "P 62"
_symmetry_group_IT_number 171
_symmetry_cell_setting 'hexagonal'
loop_
_space_group_symop_operation_xyz
x,y,z
x-y,x,1/3+z
-y,x-y,2/3+z
-x,-y,z
-x+y,-x,1/3+z
y,-x+y,2/3+z
loop_
_atom_site_type_symbol
_atom_site_label
_atom_site_fract_x
_atom_site_fract_y
_atom_site_fract_z
Si Si1 0.407318 0.723227 0.844280
Si Si2 0.125235 0.121077 0.800659
Si Si3 0.259251 0.481089 0.961128
Si Si4 0.277280 0.965959 0.162288
Si Si5 0.761566 0.766200 0.996325
Si Si6 0.228384 0.839770 0.836461
Si Si7 0.949900 0.361029 0.623288
O O1 0.350492 0.584449 0.883902
O O2 0.459021 0.718458 0.734700
O O3 0.302672 0.764845 0.837824
O O4 0.515861 0.805314 0.924482
O O5 0.093574 0.231851 0.782095
O O6 0.186715 0.087824 0.707355
O O7 0.222067 0.162442 0.892324
O O8 0.000000 0.000000 0.833777
O O9 0.125292 0.415905 0.906435
O O10 0.305009 0.381914 0.979609
O O11 0.327614 0.094388 0.224577
O O12 0.378875 0.013861 0.072742
O O13 0.668967 0.799140 0.056263
O O14 0.290869 0.974214 0.887566
O O15 0.000000 0.500000 0.586758
#
# Coordination Sequence:
#
# PCOD8324791 Si02
#       7
#     6   6   6   6   6   6   6
#     4  11  25  50  75 104 153 200 262 313 377 467
#     4  11  24  42  68 105 152 189 243 313 376 450
#     4  11  27  47  72 109 151 200 251 322 387 446
#     4  11  26  42  72 107 151 190 251 307 391 444
#     4  11  25  45  68 108 148 199 246 305 387 458
#     4  11  24  41  76 103 141 197 261 301 380 466
#     4  10  24  45  72 102 138 197 256 302 365 460
#
# _framework density 23.62086
#
# number of rings (size 3 to 8) (size 9 to 14) (size 15 to 20)
#    0.000    1.143    2.857    1.286   12.000    1.143 
#    0.000    4.286    0.000    0.000    0.000    0.000 
#    0.000    0.000    0.000    0.000    0.000    0.000 
#
# Total GULP energy -520523.956302 kJ/mol
# GULP energy per Si atom -12393.427531 kJ/mol
# Density = 2.356710 g / cm^3
# Si number density = 23.620860 Si / 1000 Ang^3
#
#
#
# Elastic Constant Matrix: (Units=GPa)
#
#
# Indices 1 2 3 4 5 6 
#
# 1 104.2324 35.8219 29.6194 0.0000 0.0000 0.0000
# 2 35.8219 104.2324 29.6194 0.0000 0.0000 0.0000
# 3 29.6194 29.6194 87.0590 0.0000 0.0000 0.0000
# 4 0.0000 0.0000 0.0000 40.9287 0.0000 0.0000
# 5 0.0000 0.0000 0.0000 0.0000 40.9287 0.0000
# 6 0.0000 0.0000 0.0000 0.0000 0.0000 34.2052
#
#
#
# Elastic Compliance Matrix: (Units=1/GPa)
#
#
# Indices 1 2 3 4 5 6 
#
# 1 0.011479 -0.003139 -0.002838 0.000000 0.000000 0.000000
# 2 -0.003139 0.011479 -0.002838 0.000000 0.000000 0.000000
# 3 -0.002838 -0.002838 0.013417 0.000000 0.000000 0.000000
# 4 0.000000 0.000000 0.000000 0.024433 0.000000 0.000000
# 5 0.000000 0.000000 0.000000 0.000000 0.024433 0.000000
# 6 0.000000 0.000000 0.000000 0.000000 0.000000 0.029235
#
#
# Mechanical properties :
#
#
# Convention : Reuss Voigt Hill
#
# Bulk Modulus (GPa) = 53.34007 53.96057 53.65032
# Shear Modulus (GPa) = 36.13951 36.57672 36.35811
#
# Velocity S-wave (km/s) = 3.91574 3.93936 3.92757
# Velocity P-wave (km/s) = 6.56314 6.60193 6.58256
#
# Compressibility (1/GPa) = 0.01874763
#
# Stress axis : x y z
#
# Youngs Moduli (GPa) = 87.11585 87.11585 74.53089
#
# Poissons Ratio (x) = 0.27343 0.21149
# Poissons Ratio (y) = 0.27343 0.21149
# Poissons Ratio (z) = 0.24720 0.24720
#
# Static dielectric constant tensor:
#      x y z
#    x 4.412610 0.000000 0.000000 
#    y 0.000000 4.412610 0.000000 
#    z 0.000000 0.000000 4.148910 
# 
# 
# High freq. dielectric constant tensor:
#      x y z
#    x 1.942870 0.000000 0.000000 
#    y 0.000000 1.942870 0.000000 
#    z 0.000000 0.000000 1.933550 
# 
# From -- ./inp_files/2475.got.cif
#   From: 2010.03.12/outbox.cif.g09.slc.cpg/sg171_2_cif.got.tgz:2475.got - 2010.04.02 06:49:11.
