data_PCOD8324405
_publ_section_title
;
Structure prediction by ZEFSAII (Michael W. Deem and Ramdas Pophale) SiO2 
 PCOD8324405
Probable space group: R -3 C 
;
_chemical_formula_sum "Si O2"
_cell_formula_units_Z 126
_cell_length_a 18.654355
_cell_length_b 18.654355
_cell_length_c 17.618457
_cell_angle_alpha 90.000000
_cell_angle_beta 90.000000
_cell_angle_gamma 120.000000
_cell_volume 5309.565432
_symmetry_space_group_name_H-M "R -3 C "
_symmetry_group_IT_number 167
_symmetry_cell_setting 'hexagonal'
loop_
_space_group_symop_operation_xyz
x,y,z
-y,x-y,z
-x+y,-x,z
x-y,-y,1/2-z
-x,-x+y,1/2-z
y,x,1/2-z
-x,-y,-z
y,-x+y,-z
x-y,x,-z
-x+y,y,1/2+z
x,x-y,1/2+z
-y,-x,1/2+z
2/3+x,1/3+y,1/3+z
2/3-y,1/3+x-y,1/3+z
2/3-x+y,1/3-x,1/3+z
2/3+x-y,1/3-y,5/6-z
2/3-x,1/3-x+y,5/6-z
2/3+y,1/3+x,5/6-z
2/3-x,1/3-y,1/3-z
2/3+y,1/3-x+y,1/3-z
2/3+x-y,1/3+x,1/3-z
2/3-x+y,1/3+y,5/6+z
2/3+x,1/3+x-y,5/6+z
2/3-y,1/3-x,5/6+z
1/3+x,2/3+y,2/3+z
1/3-y,2/3+x-y,2/3+z
1/3-x+y,2/3-x,2/3+z
1/3+x-y,2/3-y,1/6-z
1/3-x,2/3-x+y,1/6-z
1/3+y,2/3+x,1/6-z
1/3-x,2/3-y,2/3-z
1/3+y,2/3-x+y,2/3-z
1/3+x-y,2/3+x,2/3-z
1/3-x+y,2/3+y,1/6+z
1/3+x,2/3+x-y,1/6+z
1/3-y,2/3-x,1/6+z
loop_
_atom_site_type_symbol
_atom_site_label
_atom_site_fract_x
_atom_site_fract_y
_atom_site_fract_z
Si Si1 0.483137 0.884235 0.475786
Si Si2 0.225062 0.481608 0.684898
Si Si3 0.916621 0.617496 0.656635
Si Si4 0.788924 0.666667 0.916667
O O1 0.484679 0.818012 0.416667
O O2 0.478265 0.859815 0.563907
O O3 0.407321 0.897943 0.455604
O O4 0.567689 0.970584 0.462449
O O5 0.195075 0.537558 0.640856
O O6 0.193876 0.390772 0.644638
O O7 0.977367 0.644033 0.583334
O O8 0.930923 0.558021 0.710694
#
# Coordination Sequence:
#
# PCOD8324405 Si02
#       4
#    36  36  36  18
#     4  11  25  41  68 103 145 190 239 304 374 446
#     4  12  28  48  72 107 148 198 246 309 378 459
#     4  11  23  42  65 104 142 180 243 308 369 434
#     4  12  24  44  76 102 142 194 256 308 376 446
#
# _framework density 23.730757000000001
#
# number of rings (size 3 to 8) (size 9 to 14) (size 15 to 20)
#    0.000    0.571    7.143    0.286    4.000    2.286 
#    0.000    0.000    0.000    0.571    0.000    0.000 
#    0.000    0.000    0.000    0.000    0.000    0.000 
#
# Total GULP energy -520464.701135 kJ/mol
# GULP energy per Si atom -12392.016694 kJ/mol
# Density = 2.367674 g / cm^3
# Si number density = 23.730757 Si / 1000 Ang^3
#
#
#
# Elastic Constant Matrix: (Units=GPa)
#
#
# Indices 1 2 3 4 5 6 
#
# 1 90.5812 41.8125 25.4312 0.8430 -0.0003 0.0000
# 2 41.8125 90.5812 25.4312 -0.8430 0.0003 0.0000
# 3 25.4312 25.4312 127.2131 0.0000 0.0000 0.0000
# 4 0.8430 -0.8430 0.0000 33.0568 0.0000 0.0003
# 5 -0.0003 0.0003 0.0000 0.0000 33.0568 0.8430
# 6 0.0000 0.0000 0.0000 0.0003 0.8430 24.3844
#
#
#
# Elastic Compliance Matrix: (Units=1/GPa)
#
#
# Indices 1 2 3 4 5 6 
#
# 1 0.014352 -0.006171 -0.001636 -0.000523 0.000000 0.000000
# 2 -0.006171 0.014352 -0.001636 0.000523 0.000000 0.000000
# 3 -0.001636 -0.001636 0.008515 0.000000 0.000000 0.000000
# 4 -0.000523 0.000523 0.000000 0.030278 0.000000 0.000000
# 5 0.000000 0.000000 0.000000 0.000000 0.030278 -0.001047
# 6 0.000000 0.000000 0.000000 0.000000 -0.001047 0.041046
#
#
# Mechanical properties :
#
#
# Convention : Reuss Voigt Hill
#
# Bulk Modulus (GPa) = 54.53870 54.85835 54.69853
# Shear Modulus (GPa) = 30.52200 32.47967 31.50083
#
# Velocity S-wave (km/s) = 3.59022 3.70357 3.64734
# Velocity P-wave (km/s) = 6.34180 6.43862 6.39039
#
# Compressibility (1/GPa) = 0.01833560
#
# Stress axis : x y z
#
# Youngs Moduli (GPa) = 69.67524 69.67524 117.44308
#
# Poissons Ratio (x) = 0.42995 0.19209
# Poissons Ratio (y) = 0.42995 0.19209
# Poissons Ratio (z) = 0.11396 0.11396
#
# Static dielectric constant tensor:
#      x y z
#    x 4.157970 0.000000 0.000000 
#    y 0.000000 4.157970 0.000000 
#    z 0.000000 0.000000 4.530200 
# 
# 
# High freq. dielectric constant tensor:
#      x y z
#    x 1.928660 0.000000 0.000000 
#    y 0.000000 1.928660 0.000000 
#    z 0.000000 0.000000 1.955000 
# 
# From -- ./inp_files/3026.got.cif
#   From: 2010.03.12/outbox.cif.g09.slc.cpg/sg167_2_cif.got.tgz:3026.got - 2010.04.02 06:42:56.
