data_PCOD8324985
_publ_section_title
;
Structure prediction by ZEFSAII (Michael W. Deem and Ramdas Pophale) SiO2 
 PCOD8324985
Probable space group: P -6
;
_chemical_formula_sum "Si O2"
_cell_formula_units_Z 44
_cell_length_a 11.646705
_cell_length_b 11.646705
_cell_length_c 17.337388
_cell_angle_alpha 90.000000
_cell_angle_beta 90.000000
_cell_angle_gamma 120.000000
_cell_volume 2036.668990
_symmetry_space_group_name_H-M "P -6"
_symmetry_group_IT_number 174
_symmetry_cell_setting 'hexagonal'
loop_
_space_group_symop_operation_xyz
x,y,z
-x+y,-x,-z
-y,x-y,z
x,y,-z
-x+y,-x,z
-y,x-y,-z
loop_
_atom_site_type_symbol
_atom_site_label
_atom_site_fract_x
_atom_site_fract_y
_atom_site_fract_z
Si Si1 0.859808 0.233149 0.183878
Si Si2 0.910566 0.587491 0.589318
Si Si3 0.656577 0.589272 0.650134
Si Si4 0.069894 0.249829 0.085260
Si Si5 0.333333 0.666666 0.591566
Si Si6 0.046864 0.691277 0.817657
Si Si7 0.460333 0.000607 0.084778
Si Si8 0.611246 0.830122 0.345376
O O1 0.925245 0.317504 0.259702
O O2 0.861171 0.340634 0.122750
O O3 0.948012 0.173691 0.145685
O O4 0.717482 0.109131 0.205884
O O5 0.920105 0.560755 0.500000
O O6 0.772357 0.582432 0.604259
O O7 0.928427 0.477905 0.636575
O O8 0.027589 0.734403 0.614407
O O9 0.647678 0.719714 0.626242
O O10 0.200341 0.258366 0.120760
O O11 0.098689 0.401295 0.077517
O O12 0.039157 0.181936 0.000000
O O13 0.333334 0.666668 0.500000
O O14 0.324033 0.534072 0.624297
O O15 0.146832 0.763052 0.746840
O O16 0.075902 0.586742 0.860380
O O17 0.528886 0.032186 0.000000
#
# Coordination Sequence:
#
# PCOD8324985 Si02
#       8
#     6   6   6   6   2   6   6   6
#     4  10  22  42  62  93 132 172 226 279 328 412
#     4  12  27  46  73 106 141 188 234 289 370 437
#     4  12  25  48  73 103 146 181 238 296 354 438
#     4   9  21  40  60  92 133 170 224 279 327 396
#     4  12  27  45  72 105 139 173 229 303 366 435
#     4  12  22  41  69  94 132 182 224 281 352 413
#     4   9  21  40  61  94 134 171 225 287 339 399
#     4  12  25  44  74 107 137 183 236 296 362 434
#
# _framework density 21.603902999999999
#
# number of rings (size 3 to 8) (size 9 to 14) (size 15 to 20)
#    0.818    0.273    4.091    2.318    1.909    3.818 
#    3.273    1.364    0.000    0.000    0.000    0.000 
#    0.000    0.000    0.000    0.000    0.000    0.000 
#
# Total GULP energy -545087.613241 kJ/mol
# GULP energy per Si atom -12388.354846 kJ/mol
# Density = 2.155473 g / cm^3
# Si number density = 21.603903 Si / 1000 Ang^3
#
#
#
# Elastic Constant Matrix: (Units=GPa)
#
#
# Indices 1 2 3 4 5 6 
#
# 1 92.0029 38.0683 28.6937 0.0000 0.0000 0.0000
# 2 38.0683 92.0032 28.6937 0.0000 0.0000 0.0000
# 3 28.6937 28.6937 128.8060 0.0000 0.0000 0.0002
# 4 0.0000 0.0000 0.0000 24.1711 0.0000 0.0000
# 5 0.0000 0.0000 0.0000 0.0000 24.1711 0.0000
# 6 0.0000 0.0000 0.0002 0.0000 0.0000 26.9673
#
#
#
# Elastic Compliance Matrix: (Units=1/GPa)
#
#
# Indices 1 2 3 4 5 6 
#
# 1 0.013534 -0.005007 -0.001899 0.000000 0.000000 0.000000
# 2 -0.005007 0.013533 -0.001899 0.000000 0.000000 0.000000
# 3 -0.001899 -0.001899 0.008610 0.000000 0.000000 0.000000
# 4 0.000000 0.000000 0.000000 0.041372 0.000000 0.000000
# 5 0.000000 0.000000 0.000000 0.000000 0.041372 0.000000
# 6 0.000000 0.000000 0.000000 0.000000 0.000000 0.037082
#
#
# Mechanical properties :
#
#
# Convention : Reuss Voigt Hill
#
# Bulk Modulus (GPa) = 55.35666 55.96925 55.66295
# Shear Modulus (GPa) = 27.91177 29.55233 28.73205
#
# Velocity S-wave (km/s) = 3.59831 3.70255 3.65080
# Velocity P-wave (km/s) = 6.55308 6.65145 6.60245
#
# Compressibility (1/GPa) = 0.01806468
#
# Stress axis : x y z
#
# Youngs Moduli (GPa) = 73.89062 73.89085 116.14637
#
# Poissons Ratio (x) = 0.37000 0.22060
# Poissons Ratio (y) = 0.37000 0.22060
# Poissons Ratio (z) = 0.14034 0.14034
#
# Static dielectric constant tensor:
#      x y z
#    x 3.655620 0.000000 0.000000 
#    y 0.000000 3.655620 0.000000 
#    z 0.000000 0.000000 3.986710 
# 
# 
# High freq. dielectric constant tensor:
#      x y z
#    x 1.833810 0.000000 0.000000 
#    y 0.000000 1.833810 0.000000 
#    z 0.000000 0.000000 1.862320 
# 
# From -- ./inp_files/1027.got.cif
#   From: 2010.03.12/outbox.cif.g09.slc.cpg/sg174_cif.got.tgz:1027.got - 2010.04.02 06:54:58.
