data_PCOD8324539
_publ_section_title
;
Structure prediction by ZEFSAII (Michael W. Deem and Ramdas Pophale) SiO2 
 PCOD8324539
Probable space group: P 61
;
_chemical_formula_sum "Si O2"
_cell_formula_units_Z 48
_cell_length_a 14.574737
_cell_length_b 14.574737
_cell_length_c 11.988114
_cell_angle_alpha 90.000000
_cell_angle_beta 90.000000
_cell_angle_gamma 120.000000
_cell_volume 2205.377550
_symmetry_space_group_name_H-M "P 61"
_symmetry_group_IT_number 169
_symmetry_cell_setting 'hexagonal'
loop_
_space_group_symop_operation_xyz
x,y,z
x-y,x,1/6+z
-y,x-y,1/3+z
-x,-y,1/2+z
-x+y,-x,2/3+z
y,-x+y,5/6+z
loop_
_atom_site_type_symbol
_atom_site_label
_atom_site_fract_x
_atom_site_fract_y
_atom_site_fract_z
Si Si1 0.680359 0.262029 0.654430
Si Si2 0.264492 0.400370 0.956749
Si Si3 0.393492 0.450992 0.180086
Si Si4 0.926829 0.651671 0.016997
Si Si5 0.355977 0.768878 0.640112
Si Si6 0.368122 0.476400 0.722967
Si Si7 0.760892 0.703856 0.060091
Si Si8 0.894294 0.077194 0.057695
O O1 0.706934 0.172259 0.685816
O O2 0.642203 0.290005 0.766690
O O3 0.774187 0.368717 0.596517
O O4 0.588046 0.216125 0.559810
O O5 0.345442 0.422387 0.057311
O O6 0.197680 0.462761 0.972345
O O7 0.336327 0.426627 0.846454
O O8 0.177311 0.277704 0.952094
O O9 0.334644 0.341295 0.250546
O O10 0.375187 0.543313 0.227335
O O11 0.519321 0.505071 0.183166
O O12 0.874620 0.727960 0.007914
O O13 0.992224 0.677052 0.131065
O O14 0.281810 0.402928 0.632611
O O15 0.772106 0.796355 0.139552
O O16 0.888944 0.999246 0.153853
#
# Coordination Sequence:
#
# PCOD8324539 Si02
#       8
#     6   6   6   6   6   6   6   6
#     4  10  22  39  61 105 144 187 231 278 353 441
#     4  11  24  47  72 105 148 188 241 297 364 446
#     4  11  25  43  66 109 146 187 233 295 369 436
#     4  11  25  43  68 104 143 188 238 307 371 423
#     4  11  21  41  69 101 146 188 229 281 355 440
#     4  10  23  40  71 101 136 193 234 287 351 433
#     4  12  22  45  75  97 136 182 253 301 356 435
#     4  12  26  52  76 104 129 185 253 316 369 428
#
# _framework density 21.764980000000001
#
# number of rings (size 3 to 8) (size 9 to 14) (size 15 to 20)
#    0.000    1.000    3.750    2.250    5.250    2.000 
#   11.250    0.000    0.000    0.000    0.000    0.000 
#    0.000    0.000    0.000    0.000    0.000    0.000 
#
# Total GULP energy -594940.710122 kJ/mol
# GULP energy per Si atom -12394.598128 kJ/mol
# Density = 2.171544 g / cm^3
# Si number density = 21.764980 Si / 1000 Ang^3
#
#
#
# Elastic Constant Matrix: (Units=GPa)
#
#
# Indices 1 2 3 4 5 6 
#
# 1 91.0507 37.8421 56.7528 0.0000 0.0000 0.0000
# 2 37.8421 91.0507 56.7528 0.0000 0.0000 0.0000
# 3 56.7528 56.7528 110.3187 0.0000 0.0000 0.0000
# 4 0.0000 0.0000 0.0000 37.8484 0.0000 0.0000
# 5 0.0000 0.0000 0.0000 0.0000 37.8484 0.0000
# 6 0.0000 0.0000 0.0000 0.0000 0.0000 26.6043
#
#
#
# Elastic Compliance Matrix: (Units=1/GPa)
#
#
# Indices 1 2 3 4 5 6 
#
# 1 0.016489 -0.002305 -0.007297 0.000000 0.000000 0.000000
# 2 -0.002305 0.016489 -0.007297 0.000000 0.000000 0.000000
# 3 -0.007297 -0.007297 0.016572 0.000000 0.000000 0.000000
# 4 0.000000 0.000000 0.000000 0.026421 0.000000 0.000000
# 5 0.000000 0.000000 0.000000 0.000000 0.026421 0.000000
# 6 0.000000 0.000000 0.000000 0.000000 0.000000 0.037588
#
#
# Mechanical properties :
#
#
# Convention : Reuss Voigt Hill
#
# Bulk Modulus (GPa) = 63.48018 66.12398 64.80208
# Shear Modulus (GPa) = 27.92833 29.86507 28.89670
#
# Velocity S-wave (km/s) = 3.58603 3.70829 3.64767
# Velocity P-wave (km/s) = 6.80997 6.98442 6.89774
#
# Compressibility (1/GPa) = 0.01575295
#
# Stress axis : x y z
#
# Youngs Moduli (GPa) = 60.64605 60.64605 60.34101
#
# Poissons Ratio (x) = 0.13978 0.44031
# Poissons Ratio (y) = 0.13978 0.44031
# Poissons Ratio (z) = 0.44254 0.44254
#
# Static dielectric constant tensor:
#      x y z
#    x 4.088440 0.000000 0.000000 
#    y 0.000000 4.088440 0.000000 
#    z 0.000000 0.000000 3.888310 
# 
# 
# High freq. dielectric constant tensor:
#      x y z
#    x 1.856530 0.000000 0.000000 
#    y 0.000000 1.856530 0.000000 
#    z 0.000000 0.000000 1.858010 
# 
# From -- ./inp_files/1059.got.cif
#   From: 2010.03.12/outbox.cif.g09.slc.cpg/sg169_cif.got.tgz:1059.got - 2010.04.02 06:46:06.
