data_PCOD8324739
_publ_section_title
;
Structure prediction by ZEFSAII (Michael W. Deem and Ramdas Pophale) SiO2 
 PCOD8324739
Probable space group: P 62
;
_chemical_formula_sum "Si O2"
_cell_formula_units_Z 24
_cell_length_a 9.103390
_cell_length_b 9.103390
_cell_length_c 14.350870
_cell_angle_alpha 90.000000
_cell_angle_beta 90.000000
_cell_angle_gamma 120.000000
_cell_volume 1029.947670
_symmetry_space_group_name_H-M "P 62"
_symmetry_group_IT_number 171
_symmetry_cell_setting 'hexagonal'
loop_
_space_group_symop_operation_xyz
x,y,z
x-y,x,1/3+z
-y,x-y,2/3+z
-x,-y,z
-x+y,-x,1/3+z
y,-x+y,2/3+z
loop_
_atom_site_type_symbol
_atom_site_label
_atom_site_fract_x
_atom_site_fract_y
_atom_site_fract_z
Si Si1 0.688285 0.531818 0.242990
Si Si2 0.866407 0.056620 0.005038
Si Si3 0.568613 0.381647 0.068157
Si Si4 0.306400 0.354048 0.509875
O O1 0.500000 0.500000 0.247984
O O2 0.819340 0.721168 0.276451
O O3 0.728135 0.495573 0.137410
O O4 0.691240 0.391802 0.312819
O O5 0.957754 0.228826 0.943662
O O6 0.000000 0.000000 0.034236
O O7 0.784793 0.080644 0.100794
O O8 0.500000 0.500000 0.027080
O O9 0.428227 0.235990 0.135206
O O10 0.500000 0.500000 0.522687
#
# Coordination Sequence:
#
# PCOD8324739 Si02
#       4
#     6   6   6   6
#     4  10  20  41  69  98 132 187 238 284 365 417
#     4  11  22  43  70 102 142 191 236 301 377 443
#     4  10  19  38  68  94 130 177 232 282 348 417
#     4  11  24  44  73 100 142 194 243 305 369 444
#
# _framework density 23.302154999999999
#
# number of rings (size 3 to 8) (size 9 to 14) (size 15 to 20)
#    0.000    1.500    5.000    3.750    0.000    0.000 
#    9.000    0.000    0.000    3.000    0.000    0.000 
#    0.000    0.000    0.000    0.000    0.000    0.000 
#
# Total GULP energy -297344.595524 kJ/mol
# GULP energy per Si atom -12389.358147 kJ/mol
# Density = 2.324912 g / cm^3
# Si number density = 23.302155 Si / 1000 Ang^3
#
#
#
# Elastic Constant Matrix: (Units=GPa)
#
#
# Indices 1 2 3 4 5 6 
#
# 1 96.0959 32.6868 46.9264 0.0000 0.0000 0.0000
# 2 32.6868 96.0959 46.9264 0.0000 0.0000 0.0000
# 3 46.9264 46.9264 159.8360 0.0000 0.0000 0.0000
# 4 0.0000 0.0000 0.0000 26.0771 0.0000 0.0000
# 5 0.0000 0.0000 0.0000 0.0000 26.0771 0.0000
# 6 0.0000 0.0000 0.0000 0.0000 0.0000 31.7045
#
#
#
# Elastic Compliance Matrix: (Units=1/GPa)
#
#
# Indices 1 2 3 4 5 6 
#
# 1 0.012825 -0.002946 -0.002900 0.000000 0.000000 0.000000
# 2 -0.002946 0.012825 -0.002900 0.000000 0.000000 0.000000
# 3 -0.002900 -0.002900 0.007959 0.000000 0.000000 0.000000
# 4 0.000000 0.000000 0.000000 0.038348 0.000000 0.000000
# 5 0.000000 0.000000 0.000000 0.000000 0.038348 0.000000
# 6 0.000000 0.000000 0.000000 0.000000 0.000000 0.031541
#
#
# Mechanical properties :
#
#
# Convention : Reuss Voigt Hill
#
# Bulk Modulus (GPa) = 62.05174 67.23410 64.64292
# Shear Modulus (GPa) = 30.35631 31.80430 31.08030
#
# Velocity S-wave (km/s) = 3.61324 3.69842 3.65608
# Velocity P-wave (km/s) = 6.64036 6.86684 6.75455
#
# Compressibility (1/GPa) = 0.01611558
#
# Stress axis : x y z
#
# Youngs Moduli (GPa) = 77.97492 77.97492 125.63755
#
# Poissons Ratio (x) = 0.22971 0.36438
# Poissons Ratio (y) = 0.22971 0.36438
# Poissons Ratio (z) = 0.22615 0.22615
#
# Static dielectric constant tensor:
#      x y z
#    x 4.112220 0.000000 0.000000 
#    y 0.000000 4.112220 0.000000 
#    z 0.000000 0.000000 4.846730 
# 
# 
# High freq. dielectric constant tensor:
#      x y z
#    x 1.898270 0.000000 0.000000 
#    y 0.000000 1.898270 0.000000 
#    z 0.000000 0.000000 1.934800 
# 
# From -- ./inp_files/2736.got.cif
#   From: 2010.03.12/outbox.cif.g09.slc.cpg/sg171_2_cif.got.tgz:2736.got - 2010.04.02 06:49:11.
