data_PCOD8324295
_publ_section_title
;
Structure prediction by ZEFSAII (Michael W. Deem and Ramdas Pophale) SiO2 
 PCOD8324295
Probable space group: R -3 C 
;
_chemical_formula_sum "Si O2"
_cell_formula_units_Z 204
_cell_length_a 19.499927
_cell_length_b 19.499927
_cell_length_c 32.300553
_cell_angle_alpha 90.000000
_cell_angle_beta 90.000000
_cell_angle_gamma 120.000000
_cell_volume 10636.691428
_symmetry_space_group_name_H-M "R -3 C "
_symmetry_group_IT_number 167
_symmetry_cell_setting 'hexagonal'
loop_
_space_group_symop_operation_xyz
x,y,z
-y,x-y,z
-x+y,-x,z
x-y,-y,1/2-z
-x,-x+y,1/2-z
y,x,1/2-z
-x,-y,-z
y,-x+y,-z
x-y,x,-z
-x+y,y,1/2+z
x,x-y,1/2+z
-y,-x,1/2+z
2/3+x,1/3+y,1/3+z
2/3-y,1/3+x-y,1/3+z
2/3-x+y,1/3-x,1/3+z
2/3+x-y,1/3-y,5/6-z
2/3-x,1/3-x+y,5/6-z
2/3+y,1/3+x,5/6-z
2/3-x,1/3-y,1/3-z
2/3+y,1/3-x+y,1/3-z
2/3+x-y,1/3+x,1/3-z
2/3-x+y,1/3+y,5/6+z
2/3+x,1/3+x-y,5/6+z
2/3-y,1/3-x,5/6+z
1/3+x,2/3+y,2/3+z
1/3-y,2/3+x-y,2/3+z
1/3-x+y,2/3-x,2/3+z
1/3+x-y,2/3-y,1/6-z
1/3-x,2/3-x+y,1/6-z
1/3+y,2/3+x,1/6-z
1/3-x,2/3-y,2/3-z
1/3+y,2/3-x+y,2/3-z
1/3+x-y,2/3+x,2/3-z
1/3-x+y,2/3+y,1/6+z
1/3+x,2/3+x-y,1/6+z
1/3-y,2/3-x,1/6+z
loop_
_atom_site_type_symbol
_atom_site_label
_atom_site_fract_x
_atom_site_fract_y
_atom_site_fract_z
Si Si1 0.346202 0.524937 0.718617
Si Si2 0.426654 0.028650 0.703086
Si Si3 0.666668 0.333334 0.886547
Si Si4 0.748509 0.027121 0.294035
Si Si5 0.822929 0.934786 0.144331
Si Si6 0.261044 0.141111 0.515779
Si Si7 0.666668 0.333334 0.182785
O O1 0.370621 0.613986 0.704350
O O2 0.364012 0.520596 0.766248
O O3 0.392369 0.495804 0.689277
O O4 0.251706 0.472054 0.713834
O O5 0.505826 0.112410 0.693392
O O6 0.427097 0.000000 0.750000
O O7 0.345231 0.030665 0.694883
O O8 0.428276 0.968488 0.670220
O O9 0.666668 0.333334 0.935220
O O10 0.808880 0.028857 0.328081
O O11 0.765692 0.116587 0.289572
O O12 0.766249 0.000000 0.250000
O O13 0.908984 0.964157 0.164935
#
# Coordination Sequence:
#
# PCOD8324295 Si02
#       7
#    36  36  12  36  36  36  12
#     4  11  20  34  54  87 119 158 196 234 298 361
#     4  10  19  35  58  85 119 158 193 239 297 358
#     4   9  21  28  49  85 127 142 182 238 286 361
#     4  10  23  39  58  86 121 158 204 254 305 346
#     4  10  22  40  64  85 121 158 206 245 301 366
#     4  11  20  33  55  86 120 158 195 237 288 362
#     4   9  21  42  62  86 108 154 203 259 300 344
#
# _framework density 19.178896000000002
#
# number of rings (size 3 to 8) (size 9 to 14) (size 15 to 20)
#    0.000    1.765    3.529    1.059    0.000    4.941 
#    0.000    4.412    0.000    4.235    0.000    0.000 
#    0.000    0.000    0.000    0.000    0.000    0.000 
#
# Total GULP energy -842740.759675 kJ/mol
# GULP energy per Si atom -12393.246466 kJ/mol
# Density = 1.913524 g / cm^3
# Si number density = 19.178896 Si / 1000 Ang^3
#
#
#
# Elastic Constant Matrix: (Units=GPa)
#
#
# Indices 1 2 3 4 5 6 
#
# 1 105.3593 64.6827 48.9980 8.0147 0.0000 0.0000
# 2 64.6827 105.3591 48.9996 -8.0141 0.0000 0.0000
# 3 48.9980 48.9996 83.4708 0.0004 0.0000 0.0000
# 4 8.0147 -8.0141 0.0004 16.4044 0.0000 0.0000
# 5 0.0000 0.0000 0.0000 0.0000 16.4026 8.0161
# 6 0.0000 0.0000 0.0000 0.0000 8.0161 20.3371
#
#
#
# Elastic Compliance Matrix: (Units=1/GPa)
#
#
# Indices 1 2 3 4 5 6 
#
# 1 0.019666 -0.010779 -0.005217 -0.014874 0.000000 0.000000
# 2 -0.010779 0.019667 -0.005218 0.014874 0.000000 0.000000
# 3 -0.005217 -0.005218 0.018105 -0.000001 0.000000 0.000000
# 4 -0.014874 0.014874 -0.000001 0.075493 0.000000 0.000000
# 5 0.000000 0.000000 0.000000 0.000000 0.075512 -0.029764
# 6 0.000000 0.000000 0.000000 0.000000 -0.029764 0.060903
#
#
# Mechanical properties :
#
#
# Convention : Reuss Voigt Hill
#
# Bulk Modulus (GPa) = 66.61383 68.83888 67.72635
# Shear Modulus (GPa) = 15.78399 19.39609 17.59004
#
# Velocity S-wave (km/s) = 2.87189 3.18358 3.03174
# Velocity P-wave (km/s) = 6.76796 7.03453 6.90253
#
# Compressibility (1/GPa) = 0.01501190
#
# Stress axis : x y z
#
# Youngs Moduli (GPa) = 50.84849 50.84709 55.23208
#
# Poissons Ratio (x) = 0.54807 0.28813
# Poissons Ratio (y) = 0.54809 0.28819
# Poissons Ratio (z) = 0.26526 0.26531
#
# Static dielectric constant tensor:
#      x y z
#    x 3.706140 0.000000 0.000000 
#    y 0.000000 3.706160 0.000000 
#    z 0.000000 0.000000 3.296800 
# 
# 
# High freq. dielectric constant tensor:
#      x y z
#    x 1.745750 0.000000 0.000000 
#    y 0.000000 1.745750 0.000000 
#    z 0.000000 0.000000 1.727900 
# 
# From -- ./inp_files/7141.got.cif
#   From: 2010.03.12/outbox.cif.g09.slc.cpg/sg167_4_cif.got.tgz:7141.got - 2010.04.02 06:42:56.
