data_PCOD8324828
_publ_section_title
;
Structure prediction by ZEFSAII (Michael W. Deem and Ramdas Pophale) SiO2 
 PCOD8324828
Probable space group: P 64
;
_chemical_formula_sum "Si O2"
_cell_formula_units_Z 39
_cell_length_a 14.317816
_cell_length_b 14.317816
_cell_length_c 10.802685
_cell_angle_alpha 90.000000
_cell_angle_beta 90.000000
_cell_angle_gamma 120.000000
_cell_volume 1917.855570
_symmetry_space_group_name_H-M "P 64"
_symmetry_group_IT_number 172
_symmetry_cell_setting 'hexagonal'
loop_
_space_group_symop_operation_xyz
x,y,z
x-y,x,2/3+z
-y,x-y,1/3+z
-x,-y,z
-x+y,-x,2/3+z
y,-x+y,1/3+z
loop_
_atom_site_type_symbol
_atom_site_label
_atom_site_fract_x
_atom_site_fract_y
_atom_site_fract_z
Si Si1 0.095419 0.664164 0.240220
Si Si2 0.500000 0.500000 0.785324
Si Si3 0.311616 0.262387 0.376669
Si Si4 0.385491 0.826396 0.726737
Si Si5 0.254194 0.307126 0.111307
Si Si6 0.564137 0.689358 0.972316
Si Si7 0.628680 0.446797 0.135721
O O1 0.049508 0.610696 0.373049
O O2 0.105551 0.570420 0.169867
O O3 0.211871 0.767463 0.253414
O O4 0.022934 0.702922 0.165056
O O5 0.510468 0.597030 0.868644
O O6 0.437230 0.318469 0.347541
O O7 0.252636 0.272292 0.254194
O O8 0.265633 0.135629 0.407481
O O9 0.305656 0.703593 0.764431
O O10 0.459998 0.826987 0.616520
O O11 0.327348 0.434272 0.084337
O O12 0.311089 0.263409 0.015605
O O13 0.491809 0.637385 0.094004
#
# Coordination Sequence:
#
# PCOD8324828 Si02
#       7
#     6   3   6   6   6   6   6
#     4  12  27  41  65  96 139 179 220 277 339 404
#     4  12  28  44  58 100 142 176 220 270 336 414
#     4  11  24  44  69  95 128 178 232 283 335 396
#     4  11  22  38  64  98 138 176 217 262 327 411
#     4  11  24  44  69  95 128 178 232 283 335 396
#     4  12  27  41  65  96 139 179 220 277 339 404
#     4  11  22  38  64  98 138 176 217 262 327 411
#
# _framework density 20.335211999999999
#
# number of rings (size 3 to 8) (size 9 to 14) (size 15 to 20)
#    0.000    0.615    6.154    0.923   10.769    0.000 
#    0.000    0.000    0.000    2.769    0.000    0.000 
#    0.000    0.000    0.000    0.000    0.000    0.000 
#
# Total GULP energy -483560.414711 kJ/mol
# GULP energy per Si atom -12398.984993 kJ/mol
# Density = 2.028893 g / cm^3
# Si number density = 20.335212 Si / 1000 Ang^3
#
#
#
# Elastic Constant Matrix: (Units=GPa)
#
#
# Indices 1 2 3 4 5 6 
#
# 1 89.5539 31.6538 32.1197 0.0000 0.0000 0.0000
# 2 31.6538 89.5539 32.1197 0.0000 0.0000 0.0000
# 3 32.1197 32.1197 98.9328 0.0000 0.0000 0.0000
# 4 0.0000 0.0000 0.0000 25.9685 0.0000 0.0000
# 5 0.0000 0.0000 0.0000 0.0000 25.9685 0.0000
# 6 0.0000 0.0000 0.0000 0.0000 0.0000 28.9500
#
#
#
# Elastic Compliance Matrix: (Units=1/GPa)
#
#
# Indices 1 2 3 4 5 6 
#
# 1 0.013618 -0.003653 -0.003235 0.000000 0.000000 0.000000
# 2 -0.003653 0.013618 -0.003235 0.000000 0.000000 0.000000
# 3 -0.003235 -0.003235 0.012209 0.000000 0.000000 0.000000
# 4 0.000000 0.000000 0.000000 0.038508 0.000000 0.000000
# 5 0.000000 0.000000 0.000000 0.000000 0.038508 0.000000
# 6 0.000000 0.000000 0.000000 0.000000 0.000000 0.034542
#
#
# Mechanical properties :
#
#
# Convention : Reuss Voigt Hill
#
# Bulk Modulus (GPa) = 52.09001 52.20302 52.14651
# Shear Modulus (GPa) = 28.14527 28.32055 28.23291
#
# Velocity S-wave (km/s) = 3.72434 3.73592 3.73013
# Velocity P-wave (km/s) = 6.64572 6.65856 6.65214
#
# Compressibility (1/GPa) = 0.01919754
#
# Stress axis : x y z
#
# Youngs Moduli (GPa) = 73.43194 73.43194 81.90952
#
# Poissons Ratio (x) = 0.26825 0.26500
# Poissons Ratio (y) = 0.26825 0.26500
# Poissons Ratio (z) = 0.23757 0.23757
#
# Static dielectric constant tensor:
#      x y z
#    x 3.655180 0.000000 0.000000 
#    y 0.000000 3.655180 0.000000 
#    z 0.000000 0.000000 3.680140 
# 
# 
# High freq. dielectric constant tensor:
#      x y z
#    x 1.782250 0.000000 0.000000 
#    y 0.000000 1.782250 0.000000 
#    z 0.000000 0.000000 1.806720 
# 
# From -- ./inp_files/1064.got.cif
#   From: 2010.03.12/outbox.cif.g09.slc.cpg/sg172_1_cif.got.tgz:1064.got - 2010.04.02 06:52:29.
