data_PCOD8324623
_publ_section_title
;
Structure prediction by ZEFSAII (Michael W. Deem and Ramdas Pophale) SiO2 
 PCOD8324623
Probable space group: P 61
;
_chemical_formula_sum "Si O2"
_cell_formula_units_Z 18
_cell_length_a 12.842017
_cell_length_b 12.842017
_cell_length_c 4.894022
_cell_angle_alpha 90.000000
_cell_angle_beta 90.000000
_cell_angle_gamma 120.000000
_cell_volume 698.977233
_symmetry_space_group_name_H-M "P 61"
_symmetry_group_IT_number 169
_symmetry_cell_setting 'hexagonal'
loop_
_space_group_symop_operation_xyz
x,y,z
x-y,x,1/6+z
-y,x-y,1/3+z
-x,-y,1/2+z
-x+y,-x,2/3+z
y,-x+y,5/6+z
loop_
_atom_site_type_symbol
_atom_site_label
_atom_site_fract_x
_atom_site_fract_y
_atom_site_fract_z
Si Si1 0.589756 0.198352 0.393110
Si Si2 0.634883 0.624010 0.387777
Si Si3 0.004263 0.768949 0.058327
O O1 0.718628 0.277279 0.537813
O O2 0.486258 0.137411 0.620856
O O3 0.590529 0.094333 0.211200
O O4 0.687465 0.652712 0.693640
O O5 0.705830 0.738288 0.187120
O O6 0.899961 0.782717 0.921375
#
# Coordination Sequence:
#
# PCOD8324623 Si02
#       3
#     6   6   6
#     4  12  32  52  82 120 166 214 276 334 416 486
#     4  12  29  53  80 120 162 220 272 340 404 484
#     4  12  29  51  82 118 168 216 276 336 404 482
#
# _framework density 25.751912000000001
#
# number of rings (size 3 to 8) (size 9 to 14) (size 15 to 20)
#    0.000    0.000    0.000    6.000   23.333    2.667 
#    0.000    0.000    0.000    0.000    0.000    0.000 
#    0.000    0.000    0.000    0.000    0.000    0.000 
#
# Total GULP energy -223426.868275 kJ/mol
# GULP energy per Si atom -12412.603793 kJ/mol
# Density = 2.569330 g / cm^3
# Si number density = 25.751912 Si / 1000 Ang^3
#
#
#
# Elastic Constant Matrix: (Units=GPa)
#
#
# Indices 1 2 3 4 5 6 
#
# 1 120.4295 28.7183 10.0163 0.0000 0.0000 0.0000
# 2 28.7183 120.4295 10.0163 0.0000 0.0000 0.0000
# 3 10.0163 10.0163 81.0715 0.0000 0.0000 0.0000
# 4 0.0000 0.0000 0.0000 51.8838 0.0000 0.0000
# 5 0.0000 0.0000 0.0000 0.0000 51.8838 0.0000
# 6 0.0000 0.0000 0.0000 0.0000 0.0000 45.8556
#
#
#
# Elastic Compliance Matrix: (Units=1/GPa)
#
#
# Indices 1 2 3 4 5 6 
#
# 1 0.008861 -0.002043 -0.000842 0.000000 0.000000 0.000000
# 2 -0.002043 0.008861 -0.000842 0.000000 0.000000 0.000000
# 3 -0.000842 -0.000842 0.012543 0.000000 0.000000 0.000000
# 4 0.000000 0.000000 0.000000 0.019274 0.000000 0.000000
# 5 0.000000 0.000000 0.000000 0.000000 0.019274 0.000000
# 6 0.000000 0.000000 0.000000 0.000000 0.000000 0.021808
#
#
# Mechanical properties :
#
#
# Convention : Reuss Voigt Hill
#
# Bulk Modulus (GPa) = 43.84168 46.60360 45.22264
# Shear Modulus (GPa) = 47.31340 48.13660 47.72500
#
# Velocity S-wave (km/s) = 4.29100 4.32817 4.30962
# Velocity P-wave (km/s) = 6.45072 6.56611 6.50867
#
# Compressibility (1/GPa) = 0.02280934
#
# Stress axis : x y z
#
# Youngs Moduli (GPa) = 112.85605 112.85605 79.72619
#
# Poissons Ratio (x) = 0.23056 0.06716
# Poissons Ratio (y) = 0.23056 0.06716
# Poissons Ratio (z) = 0.09506 0.09506
#
# Static dielectric constant tensor:
#      x y z
#    x 4.633300 0.000000 0.000000 
#    y 0.000000 4.633300 0.000000 
#    z 0.000000 0.000000 4.708070 
# 
# 
# High freq. dielectric constant tensor:
#      x y z
#    x 2.040300 0.000000 0.000000 
#    y 0.000000 2.040300 0.000000 
#    z 0.000000 0.000000 2.043690 
# 
# From -- ./inp_files/42.got.cif
#   From: 2010.03.12/outbox.cif.g09.slc.cpg/sg169_cif.got.tgz:42.got - 2010.04.02 06:46:06.
