data_PCOD8324814
_publ_section_title
;
Structure prediction by ZEFSAII (Michael W. Deem and Ramdas Pophale) SiO2 
 PCOD8324814
Probable space group: P 62
;
_chemical_formula_sum "Si O2"
_cell_formula_units_Z 15
_cell_length_a 10.097284
_cell_length_b 10.097284
_cell_length_c 6.306094
_cell_angle_alpha 90.000000
_cell_angle_beta 90.000000
_cell_angle_gamma 120.000000
_cell_volume 556.801267
_symmetry_space_group_name_H-M "P 62"
_symmetry_group_IT_number 171
_symmetry_cell_setting 'hexagonal'
loop_
_space_group_symop_operation_xyz
x,y,z
x-y,x,1/3+z
-y,x-y,2/3+z
-x,-y,z
-x+y,-x,1/3+z
y,-x+y,2/3+z
loop_
_atom_site_type_symbol
_atom_site_label
_atom_site_fract_x
_atom_site_fract_y
_atom_site_fract_z
Si Si1 0.754063 0.804790 0.583340
Si Si2 0.538431 0.231192 0.733955
Si Si3 0.500000 0.500000 0.385230
O O1 0.898019 0.819760 0.716653
O O2 0.646277 0.846812 0.726529
O O3 0.639322 0.628231 0.521347
O O4 0.596508 0.219891 0.498765
O O5 0.587761 0.146220 0.903043
#
# Coordination Sequence:
#
# PCOD8324814 Si02
#       3
#     6   6   3
#     4  12  27  51  82 121 167 223 282 348 424 505
#     4  12  23  46  79 119 159 209 277 341 413 497
#     4  12  24  48  78 118 164 222 274 344 414 500
#
# _framework density 26.939591
#
# number of rings (size 3 to 8) (size 9 to 14) (size 15 to 20)
#    0.000    0.000    4.000    7.200    0.000    0.000 
#    0.000   10.000    0.000    0.000    0.000    0.000 
#    0.000    0.000    0.000    0.000    0.000    0.000 
#
# Total GULP energy -185897.849605 kJ/mol
# GULP energy per Si atom -12393.189974 kJ/mol
# Density = 2.687828 g / cm^3
# Si number density = 26.939591 Si / 1000 Ang^3
#
#
#
# Elastic Constant Matrix: (Units=GPa)
#
#
# Indices 1 2 3 4 5 6 
#
# 1 126.4872 42.9243 66.3178 0.0000 0.0000 0.0000
# 2 42.9243 126.4872 66.3178 0.0000 0.0000 0.0000
# 3 66.3178 66.3178 118.3025 0.0000 0.0000 0.0000
# 4 0.0000 0.0000 0.0000 66.4997 0.0000 0.0000
# 5 0.0000 0.0000 0.0000 0.0000 66.4997 0.0000
# 6 0.0000 0.0000 0.0000 0.0000 0.0000 41.7814
#
#
#
# Elastic Compliance Matrix: (Units=1/GPa)
#
#
# Indices 1 2 3 4 5 6 
#
# 1 0.011243 -0.000724 -0.005897 0.000000 0.000000 0.000000
# 2 -0.000724 0.011243 -0.005897 0.000000 0.000000 0.000000
# 3 -0.005897 -0.005897 0.015065 0.000000 0.000000 0.000000
# 4 0.000000 0.000000 0.000000 0.015038 0.000000 0.000000
# 5 0.000000 0.000000 0.000000 0.000000 0.015038 0.000000
# 6 0.000000 0.000000 0.000000 0.000000 0.000000 0.023934
#
#
# Mechanical properties :
#
#
# Convention : Reuss Voigt Hill
#
# Bulk Modulus (GPa) = 79.90109 80.26629 80.08369
# Shear Modulus (GPa) = 41.40152 48.00395 44.70273
#
# Velocity S-wave (km/s) = 3.92449 4.22585 4.07795
# Velocity P-wave (km/s) = 7.08938 7.32598 7.20865
#
# Compressibility (1/GPa) = 0.01251547
#
# Stress axis : x y z
#
# Youngs Moduli (GPa) = 88.94097 88.94097 66.38101
#
# Poissons Ratio (x) = 0.06436 0.39146
# Poissons Ratio (y) = 0.06436 0.39146
# Poissons Ratio (z) = 0.52450 0.52450
#
# Static dielectric constant tensor:
#      x y z
#    x 4.874060 0.000000 0.000000 
#    y 0.000000 4.874060 0.000000 
#    z 0.000000 0.000000 4.839850 
# 
# 
# High freq. dielectric constant tensor:
#      x y z
#    x 2.083720 0.000000 0.000000 
#    y 0.000000 2.083720 0.000000 
#    z 0.000000 0.000000 2.088310 
# 
# From -- ./inp_files/69.got.cif
#   From: 2010.03.12/outbox.cif.g09.slc.cpg/sg171_1_cif.got.tgz:69.got - 2010.04.02 06:49:11.
