data_PCOD8324034
_publ_section_title
;
Structure prediction by ZEFSAII (Michael W. Deem and Ramdas Pophale) SiO2 
 PCOD8324034
Probable space group: R -3 M
;
_chemical_formula_sum "Si O2"
_cell_formula_units_Z 216
_cell_length_a 23.360211
_cell_length_b 23.360211
_cell_length_c 25.986036
_cell_angle_alpha 90.000000
_cell_angle_beta 90.000000
_cell_angle_gamma 120.000000
_cell_volume 12280.730188
_symmetry_space_group_name_H-M "R -3 M"
_symmetry_group_IT_number 166
_symmetry_cell_setting 'hexagonal'
loop_
_space_group_symop_operation_xyz
x,y,z
-y,x-y,z
-x+y,-x,z
x-y,-y,-z
-x,-x+y,-z
y,x,-z
-x,-y,-z
y,-x+y,-z
x-y,x,-z
-x+y,y,z
x,x-y,z
-y,-x,z
2/3+x,1/3+y,1/3+z
2/3-y,1/3+x-y,1/3+z
2/3-x+y,1/3-x,1/3+z
2/3+x-y,1/3-y,1/3-z
2/3-x,1/3-x+y,1/3-z
2/3+y,1/3+x,1/3-z
2/3-x,1/3-y,1/3-z
2/3+y,1/3-x+y,1/3-z
2/3+x-y,1/3+x,1/3-z
2/3-x+y,1/3+y,1/3+z
2/3+x,1/3+x-y,1/3+z
2/3-y,1/3-x,1/3+z
1/3+x,2/3+y,2/3+z
1/3-y,2/3+x-y,2/3+z
1/3-x+y,2/3-x,2/3+z
1/3+x-y,2/3-y,2/3-z
1/3-x,2/3-x+y,2/3-z
1/3+y,2/3+x,2/3-z
1/3-x,2/3-y,2/3-z
1/3+y,2/3-x+y,2/3-z
1/3+x-y,2/3+x,2/3-z
1/3-x+y,2/3+y,2/3+z
1/3+x,2/3+x-y,2/3+z
1/3-y,2/3-x,2/3+z
loop_
_atom_site_type_symbol
_atom_site_label
_atom_site_fract_x
_atom_site_fract_y
_atom_site_fract_z
Si Si1 0.202055 0.665804 0.376096
Si Si2 0.527444 0.930064 0.525489
Si Si3 0.240669 0.055882 0.794711
Si Si4 0.638237 0.717890 0.707450
Si Si5 0.058340 0.813023 0.633319
Si Si6 0.029069 0.382093 0.107905
O O1 0.206694 0.603347 0.397357
O O2 0.274950 0.725051 0.364189
O O3 0.164291 0.685898 0.416770
O O4 0.160989 0.647109 0.323453
O O5 0.452717 0.905433 0.505914
O O6 0.552969 0.880348 0.509418
O O7 0.524523 0.936195 0.587868
O O8 0.577481 0.000000 0.500000
O O9 0.238953 0.119477 0.815416
O O10 0.314664 0.080596 0.772925
O O11 0.585832 0.666667 0.666667
O O12 0.701408 0.774989 0.678417
O O13 0.657338 0.678588 0.747843
O O14 0.129449 0.870552 0.611058
O O15 0.009661 0.764953 0.589173
O O16 0.045111 0.378444 0.166667
#
# Coordination Sequence:
#
# PCOD8324034 Si02
#       6
#    36  36  36  36  36  36
#     4  10  20  35  54  77 103 134 176 222 270 318
#     4  11  19  33  56  79 105 139 181 224 267 317
#     4  11  21  33  51  78 110 144 177 215 268 327
#     4  10  18  32  53  76 108 136 173 217 261 315
#     4  10  21  35  55  79 106 141 178 220 267 319
#     4  11  20  36  51  75 111 139 178 212 263 317
#
# _framework density 17.588529999999999
#
# number of rings (size 3 to 8) (size 9 to 14) (size 15 to 20)
#    0.000    1.500    5.000    1.167    0.000    4.000 
#    0.000    2.500    0.000    0.333    0.000    0.000 
#    0.000    4.000    0.000    0.000    0.000    0.000 
#
# Total GULP energy -892296.390159 kJ/mol
# GULP energy per Si atom -12393.005419 kJ/mol
# Density = 1.754850 g / cm^3
# Si number density = 17.588530 Si / 1000 Ang^3
#
#
#
# Elastic Constant Matrix: (Units=GPa)
#
#
# Indices 1 2 3 4 5 6 
#
# 1 106.9482 63.2776 46.8611 -1.7508 -0.0003 0.0000
# 2 63.2776 106.9482 46.8611 1.7508 0.0003 0.0000
# 3 46.8611 46.8611 93.1046 0.0000 0.0000 0.0000
# 4 -1.7508 1.7508 0.0000 18.4305 0.0000 0.0003
# 5 -0.0003 0.0003 0.0000 0.0000 18.4305 -1.7508
# 6 0.0000 0.0000 0.0000 0.0003 -1.7508 21.8353
#
#
#
# Elastic Compliance Matrix: (Units=1/GPa)
#
#
# Indices 1 2 3 4 5 6 
#
# 1 0.015600 -0.007474 -0.004090 0.002192 0.000000 0.000000
# 2 -0.007474 0.015600 -0.004090 -0.002192 0.000000 0.000000
# 3 -0.004090 -0.004090 0.014858 0.000000 0.000000 0.000000
# 4 0.002192 -0.002192 0.000000 0.054674 0.000000 -0.000001
# 5 0.000000 0.000000 0.000000 0.000000 0.054674 0.004384
# 6 0.000000 0.000000 0.000000 -0.000001 0.004384 0.046149
#
#
# Mechanical properties :
#
#
# Convention : Reuss Voigt Hill
#
# Bulk Modulus (GPa) = 67.79600 69.00011 68.39805
# Shear Modulus (GPa) = 21.02764 21.73933 21.38348
#
# Velocity S-wave (km/s) = 3.46140 3.51949 3.49056
# Velocity P-wave (km/s) = 7.38947 7.47202 7.43086
#
# Compressibility (1/GPa) = 0.01475013
#
# Stress axis : x y z
#
# Youngs Moduli (GPa) = 64.10054 64.10054 67.30402
#
# Poissons Ratio (x) = 0.47909 0.27529
# Poissons Ratio (y) = 0.47909 0.27529
# Poissons Ratio (z) = 0.26219 0.26219
#
# Static dielectric constant tensor:
#      x y z
#    x 3.327930 0.000000 0.000000 
#    y 0.000000 3.327930 0.000000 
#    z 0.000000 0.000000 3.379340 
# 
# 
# High freq. dielectric constant tensor:
#      x y z
#    x 1.673840 0.000000 0.000000 
#    y 0.000000 1.673840 0.000000 
#    z 0.000000 0.000000 1.672460 
# 
# From -- ./inp_files/8481.got.cif
#   From: 2010.03.12/outbox.cif.g09.slc.cpg/sg166_5_cif.got.tgz:8481.got - 2010.04.02 06:38:31.
