data_PCOD8324227
_publ_section_title
;
Structure prediction by ZEFSAII (Michael W. Deem and Ramdas Pophale) SiO2 
 PCOD8324227
Probable space group: R -3 M
;
_chemical_formula_sum "Si O2"
_cell_formula_units_Z 162
_cell_length_a 22.599254
_cell_length_b 22.599254
_cell_length_c 19.489622
_cell_angle_alpha 90.000000
_cell_angle_beta 90.000000
_cell_angle_gamma 120.000000
_cell_volume 8620.297504
_symmetry_space_group_name_H-M "R -3 M"
_symmetry_group_IT_number 166
_symmetry_cell_setting 'hexagonal'
loop_
_space_group_symop_operation_xyz
x,y,z
-y,x-y,z
-x+y,-x,z
x-y,-y,-z
-x,-x+y,-z
y,x,-z
-x,-y,-z
y,-x+y,-z
x-y,x,-z
-x+y,y,z
x,x-y,z
-y,-x,z
2/3+x,1/3+y,1/3+z
2/3-y,1/3+x-y,1/3+z
2/3-x+y,1/3-x,1/3+z
2/3+x-y,1/3-y,1/3-z
2/3-x,1/3-x+y,1/3-z
2/3+y,1/3+x,1/3-z
2/3-x,1/3-y,1/3-z
2/3+y,1/3-x+y,1/3-z
2/3+x-y,1/3+x,1/3-z
2/3-x+y,1/3+y,1/3+z
2/3+x,1/3+x-y,1/3+z
2/3-y,1/3-x,1/3+z
1/3+x,2/3+y,2/3+z
1/3-y,2/3+x-y,2/3+z
1/3-x+y,2/3-x,2/3+z
1/3+x-y,2/3-y,2/3-z
1/3-x,2/3-x+y,2/3-z
1/3+y,2/3+x,2/3-z
1/3-x,2/3-y,2/3-z
1/3+y,2/3-x+y,2/3-z
1/3+x-y,2/3+x,2/3-z
1/3-x+y,2/3+y,2/3+z
1/3+x,2/3+x-y,2/3+z
1/3-y,2/3-x,2/3+z
loop_
_atom_site_type_symbol
_atom_site_label
_atom_site_fract_x
_atom_site_fract_y
_atom_site_fract_z
Si Si1 0.261004 0.130502 0.701107
Si Si2 0.080178 0.919823 0.575087
Si Si3 0.082697 0.420661 0.887114
Si Si4 0.522099 0.477902 0.568188
Si Si5 0.642281 0.037010 0.259365
Si Si6 0.744684 0.489368 0.753148
Si Si7 0.692003 0.846002 0.620151
O O1 0.333334 0.166667 0.666667
O O2 0.248338 0.068550 0.749748
O O3 0.214117 0.107059 0.635570
O O4 0.093668 0.906333 0.496472
O O5 0.113049 0.886952 0.623525
O O6 0.001741 0.889003 0.592039
O O7 0.151713 0.422026 0.909674
O O8 0.088863 0.422919 0.804308
O O9 0.012706 0.354425 0.915201
O O10 0.500000 0.500000 0.500000
O O11 0.497742 0.502259 0.635540
O O12 0.666667 0.074802 0.333334
O O13 0.559966 0.996364 0.251244
#
# Coordination Sequence:
#
# PCOD8324227 Si02
#       7
#    18  18  36  18  36  18  18
#     4  12  27  39  57  92 132 168 200 263 317 375
#     4  10  23  40  61  86 111 170 207 261 294 363
#     4  11  24  40  62  88 129 161 209 254 324 373
#     4  12  20  41  64  87 115 165 209 266 314 384
#     4  11  22  39  59  88 119 162 202 258 309 378
#     4  10  23  41  60  83 120 155 218 248 303 350
#     4  12  23  35  60  87 121 154 212 249 321 377
#
# _framework density 18.792853999999998
#
# number of rings (size 3 to 8) (size 9 to 14) (size 15 to 20)
#    0.000    0.889    4.444    2.889    6.222    2.667 
#    0.000    0.000    0.000    0.444    0.000    0.000 
#    0.000    0.000    0.000   10.667    0.000    0.000 
#
# Total GULP energy -669127.539048 kJ/mol
# GULP energy per Si atom -12391.250723 kJ/mol
# Density = 1.875008 g / cm^3
# Si number density = 18.792854 Si / 1000 Ang^3
#
#
#
# Elastic Constant Matrix: (Units=GPa)
#
#
# Indices 1 2 3 4 5 6 
#
# 1 131.6542 58.3504 38.2898 -18.8770 0.0000 0.0000
# 2 58.3504 131.6542 38.2898 18.8770 0.0000 0.0000
# 3 38.2898 38.2898 118.3928 0.0000 0.0000 0.0000
# 4 -18.8770 18.8770 0.0000 66.4540 0.0000 0.0000
# 5 0.0000 0.0000 0.0000 0.0000 66.4540 -18.8770
# 6 0.0000 0.0000 0.0000 0.0000 -18.8770 36.6519
#
#
#
# Elastic Compliance Matrix: (Units=1/GPa)
#
#
# Indices 1 2 3 4 5 6 
#
# 1 0.011016 -0.004964 -0.001957 0.004539 0.000000 0.000000
# 2 -0.004964 0.011016 -0.001957 -0.004539 0.000000 0.000000
# 3 -0.001957 -0.001957 0.009712 0.000000 0.000000 0.000000
# 4 0.004539 -0.004539 0.000000 0.017627 0.000000 0.000000
# 5 0.000000 0.000000 0.000000 0.000000 0.017627 0.009078
# 6 0.000000 0.000000 0.000000 0.000000 0.009078 0.031959
#
#
# Mechanical properties :
#
#
# Convention : Reuss Voigt Hill
#
# Bulk Modulus (GPa) = 71.49394 72.39569 71.94482
# Shear Modulus (GPa) = 41.19417 50.36339 45.77878
#
# Velocity S-wave (km/s) = 4.68697 5.18241 4.94091
# Velocity P-wave (km/s) = 8.21073 8.62650 8.42118
#
# Compressibility (1/GPa) = 0.01398720
#
# Stress axis : x y z
#
# Youngs Moduli (GPa) = 90.77875 90.77875 102.96051
#
# Poissons Ratio (x) = 0.45062 0.20152
# Poissons Ratio (y) = 0.45062 0.20152
# Poissons Ratio (z) = 0.17768 0.17768
#
# Static dielectric constant tensor:
#      x y z
#    x 3.533760 0.000000 0.000000 
#    y 0.000000 3.533760 0.000000 
#    z 0.000000 0.000000 3.766050 
# 
# 
# High freq. dielectric constant tensor:
#      x y z
#    x 1.721460 0.000000 0.000000 
#    y 0.000000 1.721460 0.000000 
#    z 0.000000 0.000000 1.755390 
# 
# From -- ./inp_files/5505.got.cif
#   From: 2010.03.12/outbox.cif.g09.slc.cpg/sg166_3_cif.got.tgz:5505.got - 2010.04.02 06:38:31.
