data_PCOD8324299
_publ_section_title
;
Structure prediction by ZEFSAII (Michael W. Deem and Ramdas Pophale) SiO2 
 PCOD8324299
Probable space group: R -3 C 
;
_chemical_formula_sum "Si O2"
_cell_formula_units_Z 144
_cell_length_a 23.107994
_cell_length_b 23.107994
_cell_length_c 14.023944
_cell_angle_alpha 90.000000
_cell_angle_beta 90.000000
_cell_angle_gamma 120.000000
_cell_volume 6485.228652
_symmetry_space_group_name_H-M "R -3 C "
_symmetry_group_IT_number 167
_symmetry_cell_setting 'hexagonal'
loop_
_space_group_symop_operation_xyz
x,y,z
-y,x-y,z
-x+y,-x,z
x-y,-y,1/2-z
-x,-x+y,1/2-z
y,x,1/2-z
-x,-y,-z
y,-x+y,-z
x-y,x,-z
-x+y,y,1/2+z
x,x-y,1/2+z
-y,-x,1/2+z
2/3+x,1/3+y,1/3+z
2/3-y,1/3+x-y,1/3+z
2/3-x+y,1/3-x,1/3+z
2/3+x-y,1/3-y,5/6-z
2/3-x,1/3-x+y,5/6-z
2/3+y,1/3+x,5/6-z
2/3-x,1/3-y,1/3-z
2/3+y,1/3-x+y,1/3-z
2/3+x-y,1/3+x,1/3-z
2/3-x+y,1/3+y,5/6+z
2/3+x,1/3+x-y,5/6+z
2/3-y,1/3-x,5/6+z
1/3+x,2/3+y,2/3+z
1/3-y,2/3+x-y,2/3+z
1/3-x+y,2/3-x,2/3+z
1/3+x-y,2/3-y,1/6-z
1/3-x,2/3-x+y,1/6-z
1/3+y,2/3+x,1/6-z
1/3-x,2/3-y,2/3-z
1/3+y,2/3-x+y,2/3-z
1/3+x-y,2/3+x,2/3-z
1/3-x+y,2/3+y,1/6+z
1/3+x,2/3+x-y,1/6+z
1/3-y,2/3-x,1/6+z
loop_
_atom_site_type_symbol
_atom_site_label
_atom_site_fract_x
_atom_site_fract_y
_atom_site_fract_z
Si Si1 0.846041 0.111640 0.380643
Si Si2 0.520139 0.261717 0.813053
Si Si3 0.411391 0.442311 0.420069
Si Si4 0.249095 0.429331 0.841782
O O1 0.779558 0.112891 0.416667
O O2 0.876337 0.089222 0.464807
O O3 0.898164 0.188169 0.349124
O O4 0.829678 0.062489 0.287494
O O5 0.562111 0.329490 0.873430
O O6 0.500842 0.281442 0.711329
O O7 0.333334 0.392583 0.416667
O O8 0.434932 0.501745 0.498528
O O9 0.446690 0.399227 0.448524
#
# Coordination Sequence:
#
# PCOD8324299 Si02
#       4
#    36  36  36  36
#     4  10  19  38  67  92 130 170 204 265 340 391
#     4  12  25  42  64  90 126 175 227 279 331 390
#     4   9  16  33  64  92 129 165 203 254 320 400
#     4   9  20  37  61  94 127 167 213 264 323 401
#
# _framework density 22.204305000000002
#
# number of rings (size 3 to 8) (size 9 to 14) (size 15 to 20)
#    1.500    0.500    2.500    1.750    0.000    1.000 
#    0.000    1.250    5.500    3.000    0.000    0.000 
#    0.000    0.000    0.000    0.000    0.000    0.000 
#
# Total GULP energy -594764.185109 kJ/mol
# GULP energy per Si atom -12390.920523 kJ/mol
# Density = 2.215377 g / cm^3
# Si number density = 22.204305 Si / 1000 Ang^3
#
#
#
# Elastic Constant Matrix: (Units=GPa)
#
#
# Indices 1 2 3 4 5 6 
#
# 1 57.7711 14.9686 18.3455 -1.4751 -0.0004 0.0000
# 2 14.9686 57.7711 18.3455 1.4751 0.0004 0.0000
# 3 18.3455 18.3455 89.6598 0.0000 0.0000 0.0000
# 4 -1.4751 1.4751 0.0000 21.9899 0.0000 0.0004
# 5 -0.0004 0.0004 0.0000 0.0000 21.9899 -1.4751
# 6 0.0000 0.0000 0.0000 0.0004 -1.4751 21.4013
#
#
#
# Elastic Compliance Matrix: (Units=1/GPa)
#
#
# Indices 1 2 3 4 5 6 
#
# 1 0.019401 -0.004071 -0.003137 0.001574 0.000000 0.000000
# 2 -0.004071 0.019401 -0.003137 -0.001574 0.000000 0.000000
# 3 -0.003137 -0.003137 0.012437 0.000000 0.000000 0.000000
# 4 0.001574 -0.001574 0.000000 0.045687 0.000000 -0.000001
# 5 0.000000 0.000000 0.000000 0.000000 0.045687 0.003149
# 6 0.000000 0.000000 0.000000 -0.000001 0.003149 0.046943
#
#
# Mechanical properties :
#
#
# Convention : Reuss Voigt Hill
#
# Bulk Modulus (GPa) = 32.73339 34.28013 33.50676
# Shear Modulus (GPa) = 22.68327 23.31236 22.99781
#
# Velocity S-wave (km/s) = 3.19967 3.24374 3.22178
# Velocity P-wave (km/s) = 5.33146 5.43149 5.38171
#
# Compressibility (1/GPa) = 0.03054984
#
# Stress axis : x y z
#
# Youngs Moduli (GPa) = 51.54447 51.54447 80.40609
#
# Poissons Ratio (x) = 0.20983 0.25221
# Poissons Ratio (y) = 0.20983 0.25221
# Poissons Ratio (z) = 0.16168 0.16168
#
# Static dielectric constant tensor:
#      x y z
#    x 3.654920 0.000000 0.000000 
#    y 0.000000 3.654920 0.000000 
#    z 0.000000 0.000000 3.983880 
# 
# 
# High freq. dielectric constant tensor:
#      x y z
#    x 1.856450 0.000000 0.000000 
#    y 0.000000 1.856450 0.000000 
#    z 0.000000 0.000000 1.869780 
# 
# From -- ./inp_files/3279.got.cif
#   From: 2010.03.12/outbox.cif.g09.slc.cpg/sg167_2_cif.got.tgz:3279.got - 2010.04.02 06:42:56.
