data_PCOD8324279
_publ_section_title
;
Structure prediction by ZEFSAII (Michael W. Deem and Ramdas Pophale) SiO2 
 PCOD8324279
Probable space group: R -3 C 
;
_chemical_formula_sum "Si O2"
_cell_formula_units_Z 210
_cell_length_a 27.623640
_cell_length_b 27.623640
_cell_length_c 17.227967
_cell_angle_alpha 90.000000
_cell_angle_beta 90.000000
_cell_angle_gamma 120.000000
_cell_volume 11384.828005
_symmetry_space_group_name_H-M "R -3 C "
_symmetry_group_IT_number 167
_symmetry_cell_setting 'hexagonal'
loop_
_space_group_symop_operation_xyz
x,y,z
-y,x-y,z
-x+y,-x,z
x-y,-y,1/2-z
-x,-x+y,1/2-z
y,x,1/2-z
-x,-y,-z
y,-x+y,-z
x-y,x,-z
-x+y,y,1/2+z
x,x-y,1/2+z
-y,-x,1/2+z
2/3+x,1/3+y,1/3+z
2/3-y,1/3+x-y,1/3+z
2/3-x+y,1/3-x,1/3+z
2/3+x-y,1/3-y,5/6-z
2/3-x,1/3-x+y,5/6-z
2/3+y,1/3+x,5/6-z
2/3-x,1/3-y,1/3-z
2/3+y,1/3-x+y,1/3-z
2/3+x-y,1/3+x,1/3-z
2/3-x+y,1/3+y,5/6+z
2/3+x,1/3+x-y,5/6+z
2/3-y,1/3-x,5/6+z
1/3+x,2/3+y,2/3+z
1/3-y,2/3+x-y,2/3+z
1/3-x+y,2/3-x,2/3+z
1/3+x-y,2/3-y,1/6-z
1/3-x,2/3-x+y,1/6-z
1/3+y,2/3+x,1/6-z
1/3-x,2/3-y,2/3-z
1/3+y,2/3-x+y,2/3-z
1/3+x-y,2/3+x,2/3-z
1/3-x+y,2/3+y,1/6+z
1/3+x,2/3+x-y,1/6+z
1/3-y,2/3-x,1/6+z
loop_
_atom_site_type_symbol
_atom_site_label
_atom_site_fract_x
_atom_site_fract_y
_atom_site_fract_z
Si Si1 0.559050 0.795060 0.989002
Si Si2 0.722761 0.806253 0.535586
Si Si3 0.566896 0.666667 0.416667
Si Si4 0.707307 0.977960 0.412502
Si Si5 0.284374 0.720356 0.468694
Si Si6 0.000000 0.000000 0.408013
Si Si7 0.513618 0.517659 0.588267
O O1 0.560692 0.840105 0.928568
O O2 0.499747 0.738274 0.987094
O O3 0.610410 0.786816 0.963542
O O4 0.562050 0.812769 0.078875
O O5 0.666667 0.783094 0.583334
O O6 0.735136 0.754970 0.525603
O O7 0.713452 0.832067 0.456967
O O8 0.604272 0.674291 0.341977
O O9 0.693993 0.916359 0.434157
O O10 0.653375 0.986709 0.416667
O O11 0.255413 0.666667 0.416667
O O12 0.333334 0.768781 0.416667
O O13 0.308830 0.706046 0.545190
O O14 0.000000 0.000000 0.500000
O O15 0.500000 0.500000 0.500000
#
# Coordination Sequence:
#
# PCOD8324279 Si02
#       7
#    36  36  18  36  36  12  36
#     4  10  18  35  59  81 113 153 199 236 295 350
#     4   8  19  38  56  77 115 158 193 236 299 361
#     4  10  18  36  62  84 108 164 198 232 286 382
#     4  10  21  37  60  86 115 155 203 241 301 364
#     4   9  18  34  58  84 114 154 195 236 295 366
#     4   9  19  38  58  84 115 152 193 246 301 359
#     4  11  21  37  59  89 117 152 205 255 291 355
#
# _framework density 18.445601
#
# number of rings (size 3 to 8) (size 9 to 14) (size 15 to 20)
#    0.000    2.400    2.571    1.714    0.000    0.686 
#    4.629    8.571    0.000    0.000    0.000    0.000 
#    0.000    0.000    0.000    0.000    0.000    0.000 
#
# Total GULP energy -867429.880372 kJ/mol
# GULP energy per Si atom -12391.855434 kJ/mol
# Density = 1.840362 g / cm^3
# Si number density = 18.445601 Si / 1000 Ang^3
#
#
#
# Elastic Constant Matrix: (Units=GPa)
#
#
# Indices 1 2 3 4 5 6 
#
# 1 100.6649 39.2824 40.8911 2.8459 0.0007 0.0000
# 2 39.2824 100.6649 40.8911 -2.8459 -0.0007 0.0000
# 3 40.8911 40.8911 95.4381 0.0000 0.0000 0.0000
# 4 2.8459 -2.8459 0.0000 20.5027 0.0000 -0.0007
# 5 0.0007 -0.0007 0.0000 0.0000 20.5027 2.8459
# 6 0.0000 0.0000 0.0000 -0.0007 2.8459 30.6913
#
#
#
# Elastic Compliance Matrix: (Units=1/GPa)
#
#
# Indices 1 2 3 4 5 6 
#
# 1 0.013018 -0.003486 -0.004084 -0.002291 -0.000001 0.000000
# 2 -0.003486 0.013018 -0.004084 0.002291 0.000001 0.000000
# 3 -0.004084 -0.004084 0.013978 0.000000 0.000000 0.000000
# 4 -0.002291 0.002291 0.000000 0.049410 0.000000 0.000001
# 5 -0.000001 0.000001 0.000000 0.000000 0.049410 -0.004582
# 6 0.000000 0.000000 0.000000 0.000001 -0.004582 0.033007
#
#
# Mechanical properties :
#
#
# Convention : Reuss Voigt Hill
#
# Bulk Modulus (GPa) = 59.86004 59.87744 59.86874
# Shear Modulus (GPa) = 24.91061 26.05290 25.48176
#
# Velocity S-wave (km/s) = 3.67889 3.76229 3.72082
# Velocity P-wave (km/s) = 7.11114 7.16974 7.14050
#
# Compressibility (1/GPa) = 0.01670563
#
# Stress axis : x y z
#
# Youngs Moduli (GPa) = 76.81686 76.81686 71.54227
#
# Poissons Ratio (x) = 0.26776 0.29219
# Poissons Ratio (y) = 0.26776 0.29219
# Poissons Ratio (z) = 0.31373 0.31373
#
# Static dielectric constant tensor:
#      x y z
#    x 4.046520 0.000000 0.000000 
#    y 0.000000 4.046520 0.000000 
#    z 0.000000 0.000000 3.751750 
# 
# 
# High freq. dielectric constant tensor:
#      x y z
#    x 1.711170 0.000000 0.000000 
#    y 0.000000 1.711170 0.000000 
#    z 0.000000 0.000000 1.702720 
# 
# From -- ./inp_files/2518.got.cif
#   From: 2010.03.12/outbox.cif.g09.slc.cpg/sg167_2_cif.got.tgz:2518.got - 2010.04.02 06:42:56.
