data_PCOD8324288
_publ_section_title
;
Structure prediction by ZEFSAII (Michael W. Deem and Ramdas Pophale) SiO2 
 PCOD8324288
Probable space group: R -3 C 
;
_chemical_formula_sum "Si O2"
_cell_formula_units_Z 144
_cell_length_a 18.065451
_cell_length_b 18.065451
_cell_length_c 27.196387
_cell_angle_alpha 90.000000
_cell_angle_beta 90.000000
_cell_angle_gamma 120.000000
_cell_volume 7686.691661
_symmetry_space_group_name_H-M "R -3 C "
_symmetry_group_IT_number 167
_symmetry_cell_setting 'hexagonal'
loop_
_space_group_symop_operation_xyz
x,y,z
-y,x-y,z
-x+y,-x,z
x-y,-y,1/2-z
-x,-x+y,1/2-z
y,x,1/2-z
-x,-y,-z
y,-x+y,-z
x-y,x,-z
-x+y,y,1/2+z
x,x-y,1/2+z
-y,-x,1/2+z
2/3+x,1/3+y,1/3+z
2/3-y,1/3+x-y,1/3+z
2/3-x+y,1/3-x,1/3+z
2/3+x-y,1/3-y,5/6-z
2/3-x,1/3-x+y,5/6-z
2/3+y,1/3+x,5/6-z
2/3-x,1/3-y,1/3-z
2/3+y,1/3-x+y,1/3-z
2/3+x-y,1/3+x,1/3-z
2/3-x+y,1/3+y,5/6+z
2/3+x,1/3+x-y,5/6+z
2/3-y,1/3-x,5/6+z
1/3+x,2/3+y,2/3+z
1/3-y,2/3+x-y,2/3+z
1/3-x+y,2/3-x,2/3+z
1/3+x-y,2/3-y,1/6-z
1/3-x,2/3-x+y,1/6-z
1/3+y,2/3+x,1/6-z
1/3-x,2/3-y,2/3-z
1/3+y,2/3-x+y,2/3-z
1/3+x-y,2/3+x,2/3-z
1/3-x+y,2/3+y,1/6+z
1/3+x,2/3+x-y,1/6+z
1/3-y,2/3-x,1/6+z
loop_
_atom_site_type_symbol
_atom_site_label
_atom_site_fract_x
_atom_site_fract_y
_atom_site_fract_z
Si Si1 0.625405 0.086993 0.487858
Si Si2 0.188218 0.375137 0.484622
Si Si3 0.106083 0.772750 0.583334
Si Si4 0.585552 0.530029 0.435481
Si Si5 0.000000 0.724016 0.750000
O O1 0.717103 0.168332 0.501543
O O2 0.560265 0.114718 0.463849
O O3 0.583970 0.035448 0.537530
O O4 0.633632 0.025845 0.448264
O O5 0.174604 0.319707 0.533867
O O6 0.114523 0.300618 0.452911
O O7 0.278697 0.414053 0.455113
O O8 0.105131 0.686423 0.568505
#
# Coordination Sequence:
#
# PCOD8324288 Si02
#       5
#    36  36  18  36  18
#     4  10  19  35  56  85 121 152 183 248 300 337
#     4  11  20  32  56  84 119 149 197 238 293 343
#     4  12  21  36  58  90 117 150 198 242 282 357
#     4  10  20  36  56  85 119 146 190 241 296 332
#     4  10  19  32  54  86 115 150 194 238 288 363
#
# _framework density 18.733678000000001
#
# number of rings (size 3 to 8) (size 9 to 14) (size 15 to 20)
#    0.000    1.500    5.000    0.750    0.000    2.000 
#    0.000    0.000    0.000    1.000    6.500    1.750 
#    0.000    0.000    0.000    0.000    0.000    0.000 
#
# Total GULP energy -594770.582737 kJ/mol
# GULP energy per Si atom -12391.053807 kJ/mol
# Density = 1.869104 g / cm^3
# Si number density = 18.733678 Si / 1000 Ang^3
#
#
#
# Elastic Constant Matrix: (Units=GPa)
#
#
# Indices 1 2 3 4 5 6 
#
# 1 58.9662 28.1065 29.0081 2.8508 -0.0003 0.0000
# 2 28.1065 58.9662 29.0081 -2.8508 0.0003 0.0000
# 3 29.0081 29.0081 143.1666 0.0000 0.0000 0.0000
# 4 2.8508 -2.8508 0.0000 28.4787 0.0000 0.0003
# 5 -0.0003 0.0003 0.0000 0.0000 28.4787 2.8508
# 6 0.0000 0.0000 0.0000 0.0003 2.8508 15.4299
#
#
#
# Elastic Compliance Matrix: (Units=1/GPa)
#
#
# Indices 1 2 3 4 5 6 
#
# 1 0.023146 -0.009869 -0.002690 -0.003305 0.000000 0.000000
# 2 -0.009869 0.023146 -0.002690 0.003305 0.000000 0.000000
# 3 -0.002690 -0.002690 0.008075 0.000000 0.000000 0.000000
# 4 -0.003305 0.003305 0.000000 0.035776 0.000000 -0.000001
# 5 0.000000 0.000000 0.000000 0.000000 0.035776 -0.006610
# 6 0.000000 0.000000 0.000000 -0.000001 -0.006610 0.066031
#
#
# Mechanical properties :
#
#
# Convention : Reuss Voigt Hill
#
# Bulk Modulus (GPa) = 41.89616 48.14938 45.02277
# Shear Modulus (GPa) = 21.70099 26.14255 23.92177
#
# Velocity S-wave (km/s) = 3.40721 3.73967 3.57731
# Velocity P-wave (km/s) = 6.15560 6.66368 6.41468
#
# Compressibility (1/GPa) = 0.02386854
#
# Stress axis : x y z
#
# Youngs Moduli (GPa) = 43.20361 43.20361 123.83862
#
# Poissons Ratio (x) = 0.42638 0.33315
# Poissons Ratio (y) = 0.42638 0.33315
# Poissons Ratio (z) = 0.11623 0.11623
#
# Static dielectric constant tensor:
#      x y z
#    x 3.443180 0.000000 0.000000 
#    y 0.000000 3.443180 0.000000 
#    z 0.000000 0.000000 3.628090 
# 
# 
# High freq. dielectric constant tensor:
#      x y z
#    x 1.698880 0.000000 0.000000 
#    y 0.000000 1.698880 0.000000 
#    z 0.000000 0.000000 1.764780 
# 
# From -- ./inp_files/5249.got.cif
#   From: 2010.03.12/outbox.cif.g09.slc.cpg/sg167_3_cif.got.tgz:5249.got - 2010.04.02 06:42:56.
