data_PCOD8324743
_publ_section_title
;
Structure prediction by ZEFSAII (Michael W. Deem and Ramdas Pophale) SiO2 
 PCOD8324743
Probable space group: P 62
;
_chemical_formula_sum "Si O2"
_cell_formula_units_Z 36
_cell_length_a 9.007163
_cell_length_b 9.007163
_cell_length_c 23.787308
_cell_angle_alpha 90.000000
_cell_angle_beta 90.000000
_cell_angle_gamma 120.000000
_cell_volume 1671.290605
_symmetry_space_group_name_H-M "P 62"
_symmetry_group_IT_number 171
_symmetry_cell_setting 'hexagonal'
loop_
_space_group_symop_operation_xyz
x,y,z
x-y,x,1/3+z
-y,x-y,2/3+z
-x,-y,z
-x+y,-x,1/3+z
y,-x+y,2/3+z
loop_
_atom_site_type_symbol
_atom_site_label
_atom_site_fract_x
_atom_site_fract_y
_atom_site_fract_z
Si Si1 0.835104 0.016764 0.500000
Si Si2 0.843242 0.514192 0.836738
Si Si3 0.649106 0.475303 0.137570
Si Si4 0.989348 0.824611 0.300113
Si Si5 0.149354 0.481144 0.965329
Si Si6 0.518153 0.344747 0.013415
O O1 0.837985 0.177691 0.468523
O O2 0.827340 0.040861 0.566946
O O3 0.668608 0.844619 0.476995
O O4 0.000000 0.000000 0.483933
O O5 0.661112 0.340196 0.837728
O O6 0.897736 0.563410 0.900698
O O7 0.000000 0.500000 0.807135
O O8 0.500000 0.500000 0.166714
O O9 0.574980 0.384210 0.077808
O O10 0.834750 0.663163 0.334153
O O11 0.165083 0.845080 0.324772
O O12 0.000000 0.000000 0.317356
O O13 0.000000 0.500000 0.995478
O O14 0.328322 0.656096 0.978227
O O15 0.500000 0.500000 0.986673
#
# Coordination Sequence:
#
# PCOD8324743 Si02
#       6
#     6   6   6   6   6   6
#     4  10  20  36  61  88 112 146 194 245 292 342
#     4  10  20  36  57  82 112 148 189 236 286 341
#     4  11  22  36  54  81 117 155 188 230 290 351
#     4   9  18  36  60  83 108 142 189 241 290 338
#     4   9  18  34  56  80 107 141 184 233 281 333
#     4   9  19  36  54  78 112 148 184 225 282 349
#
# _framework density 21.540240000000001
#
# number of rings (size 3 to 8) (size 9 to 14) (size 15 to 20)
#    0.000    2.333    0.000    2.500    0.000    5.333 
#    0.000   15.000    0.000    0.000    0.000    0.000 
#    0.000    0.000    0.000    0.000    0.000    0.000 
#
# Total GULP energy -446031.644682 kJ/mol
# GULP energy per Si atom -12389.767908 kJ/mol
# Density = 2.149121 g / cm^3
# Si number density = 21.540240 Si / 1000 Ang^3
#
#
#
# Elastic Constant Matrix: (Units=GPa)
#
#
# Indices 1 2 3 4 5 6 
#
# 1 168.6460 76.4537 18.0045 0.0000 0.0000 0.0000
# 2 76.4537 168.6460 18.0045 0.0000 0.0000 0.0000
# 3 18.0045 18.0045 38.8029 0.0000 0.0000 0.0000
# 4 0.0000 0.0000 0.0000 17.1169 0.0000 0.0000
# 5 0.0000 0.0000 0.0000 0.0000 17.1169 0.0000
# 6 0.0000 0.0000 0.0000 0.0000 0.0000 46.0962
#
#
#
# Elastic Compliance Matrix: (Units=1/GPa)
#
#
# Indices 1 2 3 4 5 6 
#
# 1 0.007613 -0.003234 -0.002032 0.000000 0.000000 0.000000
# 2 -0.003234 0.007613 -0.002032 0.000000 0.000000 0.000000
# 3 -0.002032 -0.002032 0.027657 0.000000 0.000000 0.000000
# 4 0.000000 0.000000 0.000000 0.058422 0.000000 0.000000
# 5 0.000000 0.000000 0.000000 0.000000 0.058422 0.000000
# 6 0.000000 0.000000 0.000000 0.000000 0.000000 0.021694
#
#
# Mechanical properties :
#
#
# Convention : Reuss Voigt Hill
#
# Bulk Modulus (GPa) = 35.35181 66.78004 51.06592
# Shear Modulus (GPa) = 24.33767 33.64149 28.98958
#
# Velocity S-wave (km/s) = 3.36500 3.95625 3.67254
# Velocity P-wave (km/s) = 5.61652 7.20687 6.46081
#
# Compressibility (1/GPa) = 0.02828710
#
# Stress axis : x y z
#
# Youngs Moduli (GPa) = 131.36002 131.36002 36.15777
#
# Poissons Ratio (x) = 0.42485 0.07346
# Poissons Ratio (y) = 0.42485 0.07346
# Poissons Ratio (z) = 0.26687 0.26687
#
# Static dielectric constant tensor:
#      x y z
#    x 4.206330 0.000000 0.000000 
#    y 0.000000 4.206330 0.000000 
#    z 0.000000 0.000000 3.380630 
# 
# 
# High freq. dielectric constant tensor:
#      x y z
#    x 1.850000 0.000000 0.000000 
#    y 0.000000 1.850000 0.000000 
#    z 0.000000 0.000000 1.809630 
# 
# From -- ./inp_files/5959.got.cif
#   From: 2010.03.12/outbox.cif.g09.slc.cpg/sg171_3_cif.got.tgz:5959.got - 2010.04.02 06:49:11.
