data_PCOD8324515
_publ_section_title
;
Structure prediction by ZEFSAII (Michael W. Deem and Ramdas Pophale) SiO2 
 PCOD8324515
Probable space group: P 61
;
_chemical_formula_sum "Si O2"
_cell_formula_units_Z 36
_cell_length_a 17.678458
_cell_length_b 17.678458
_cell_length_c 6.669343
_cell_angle_alpha 90.000000
_cell_angle_beta 90.000000
_cell_angle_gamma 120.000000
_cell_volume 1805.104909
_symmetry_space_group_name_H-M "P 61"
_symmetry_group_IT_number 169
_symmetry_cell_setting 'hexagonal'
loop_
_space_group_symop_operation_xyz
x,y,z
x-y,x,1/6+z
-y,x-y,1/3+z
-x,-y,1/2+z
-x+y,-x,2/3+z
y,-x+y,5/6+z
loop_
_atom_site_type_symbol
_atom_site_label
_atom_site_fract_x
_atom_site_fract_y
_atom_site_fract_z
Si Si1 0.166125 0.318607 0.731820
Si Si2 0.866743 0.569248 0.525996
Si Si3 0.317947 0.024342 0.891359
Si Si4 0.570804 0.832435 0.684108
Si Si5 0.375933 0.749095 0.664087
Si Si6 0.142693 0.960951 0.119346
O O1 0.224337 0.366885 0.539959
O O2 0.085797 0.225116 0.663852
O O3 0.130236 0.377046 0.829980
O O4 0.221899 0.302685 0.894361
O O5 0.812697 0.574127 0.711671
O O6 0.828272 0.470199 0.452742
O O7 0.964761 0.613943 0.613181
O O8 0.394016 0.080296 0.050602
O O9 0.224087 0.967292 0.996955
O O10 0.471982 0.795285 0.763445
O O11 0.298912 0.675090 0.795124
O O12 0.054964 0.902408 0.992040
#
# Coordination Sequence:
#
# PCOD8324515 Si02
#       6
#     6   6   6   6   6   6
#     4  11  21  40  65  83 117 175 205 246 321 378
#     4  10  21  37  63  91 122 160 208 260 311 380
#     4  11  22  41  59  89 125 163 212 254 313 381
#     4  10  21  40  62  86 124 163 208 255 317 386
#     4  10  21  40  65  97 126 161 209 263 314 379
#     4  12  24  40  60  88 120 158 208 260 308 366
#
# _framework density 19.943438
#
# number of rings (size 3 to 8) (size 9 to 14) (size 15 to 20)
#    0.000    1.333    3.333    3.000    0.000    1.333 
#    3.000    0.000    0.000    0.000    0.000    0.000 
#    0.000    0.000    0.000    0.000    0.000    0.000 
#
# Total GULP energy -446364.375774 kJ/mol
# GULP energy per Si atom -12399.010438 kJ/mol
# Density = 1.989805 g / cm^3
# Si number density = 19.943438 Si / 1000 Ang^3
#
#
#
# Elastic Constant Matrix: (Units=GPa)
#
#
# Indices 1 2 3 4 5 6 
#
# 1 83.3369 32.7538 16.5747 0.0000 0.0000 0.0000
# 2 32.7538 83.3369 16.5747 0.0000 0.0000 0.0000
# 3 16.5747 16.5747 72.0206 0.0000 0.0000 0.0000
# 4 0.0000 0.0000 0.0000 26.8091 0.0000 0.0000
# 5 0.0000 0.0000 0.0000 0.0000 26.8091 0.0000
# 6 0.0000 0.0000 0.0000 0.0000 0.0000 25.2915
#
#
#
# Elastic Compliance Matrix: (Units=1/GPa)
#
#
# Indices 1 2 3 4 5 6 
#
# 1 0.014495 -0.005275 -0.002122 0.000000 0.000000 0.000000
# 2 -0.005275 0.014495 -0.002122 0.000000 0.000000 0.000000
# 3 -0.002122 -0.002122 0.014862 0.000000 0.000000 0.000000
# 4 0.000000 0.000000 0.000000 0.037301 0.000000 0.000000
# 5 0.000000 0.000000 0.000000 0.000000 0.037301 0.000000
# 6 0.000000 0.000000 0.000000 0.000000 0.000000 0.039539
#
#
# Mechanical properties :
#
#
# Convention : Reuss Voigt Hill
#
# Bulk Modulus (GPa) = 40.30003 41.16675 40.73339
# Shear Modulus (GPa) = 26.98334 27.30136 27.14235
#
# Velocity S-wave (km/s) = 3.68230 3.70393 3.69313
# Velocity P-wave (km/s) = 6.19113 6.24329 6.21727
#
# Compressibility (1/GPa) = 0.02481388
#
# Stress axis : x y z
#
# Youngs Moduli (GPa) = 68.99097 68.99097 67.28775
#
# Poissons Ratio (x) = 0.36391 0.14277
# Poissons Ratio (y) = 0.36391 0.14277
# Poissons Ratio (z) = 0.14639 0.14639
#
# Static dielectric constant tensor:
#      x y z
#    x 3.768810 0.000000 0.000000 
#    y 0.000000 3.768810 0.000000 
#    z 0.000000 0.000000 3.661980 
# 
# 
# High freq. dielectric constant tensor:
#      x y z
#    x 1.776930 0.000000 0.000000 
#    y 0.000000 1.776930 0.000000 
#    z 0.000000 0.000000 1.782340 
# 
# From -- ./inp_files/259.got.cif
#   From: 2010.03.12/outbox.cif.g09.slc.cpg/sg169_cif.got.tgz:259.got - 2010.04.02 06:46:06.
