data_PCOD8324222
_publ_section_title
;
Structure prediction by ZEFSAII (Michael W. Deem and Ramdas Pophale) SiO2 
 PCOD8324222
Probable space group: R -3 M
;
_chemical_formula_sum "Si O2"
_cell_formula_units_Z 162
_cell_length_a 20.507189
_cell_length_b 20.507189
_cell_length_c 22.818867
_cell_angle_alpha 90.000000
_cell_angle_beta 90.000000
_cell_angle_gamma 120.000000
_cell_volume 8310.687971
_symmetry_space_group_name_H-M "R -3 M"
_symmetry_group_IT_number 166
_symmetry_cell_setting 'hexagonal'
loop_
_space_group_symop_operation_xyz
x,y,z
-y,x-y,z
-x+y,-x,z
x-y,-y,-z
-x,-x+y,-z
y,x,-z
-x,-y,-z
y,-x+y,-z
x-y,x,-z
-x+y,y,z
x,x-y,z
-y,-x,z
2/3+x,1/3+y,1/3+z
2/3-y,1/3+x-y,1/3+z
2/3-x+y,1/3-x,1/3+z
2/3+x-y,1/3-y,1/3-z
2/3-x,1/3-x+y,1/3-z
2/3+y,1/3+x,1/3-z
2/3-x,1/3-y,1/3-z
2/3+y,1/3-x+y,1/3-z
2/3+x-y,1/3+x,1/3-z
2/3-x+y,1/3+y,1/3+z
2/3+x,1/3+x-y,1/3+z
2/3-y,1/3-x,1/3+z
1/3+x,2/3+y,2/3+z
1/3-y,2/3+x-y,2/3+z
1/3-x+y,2/3-x,2/3+z
1/3+x-y,2/3-y,2/3-z
1/3-x,2/3-x+y,2/3-z
1/3+y,2/3+x,2/3-z
1/3-x,2/3-y,2/3-z
1/3+y,2/3-x+y,2/3-z
1/3+x-y,2/3+x,2/3-z
1/3-x+y,2/3+y,2/3+z
1/3+x,2/3+x-y,2/3+z
1/3-y,2/3-x,2/3+z
loop_
_atom_site_type_symbol
_atom_site_label
_atom_site_fract_x
_atom_site_fract_y
_atom_site_fract_z
Si Si1 0.051101 0.799666 0.158621
Si Si2 0.817994 0.485140 0.727912
Si Si3 0.436508 0.293988 0.060598
Si Si4 0.248021 0.000000 0.500000
Si Si5 0.873610 0.595679 0.280126
O O1 0.119851 0.880150 0.140429
O O2 0.078510 0.739413 0.154188
O O3 0.023268 0.806142 0.222752
O O4 0.982988 0.776841 0.113947
O O5 0.731232 0.462463 0.726847
O O6 0.823078 0.411539 0.742483
O O7 0.855317 0.520786 0.666032
O O8 0.861839 0.546772 0.777227
O O9 0.446523 0.223262 0.077038
O O10 0.349581 0.269792 0.055125
O O11 0.792353 0.584705 0.290906
O O12 0.889663 0.556330 0.333334
#
# Coordination Sequence:
#
# PCOD8324222 Si02
#       5
#    36  36  36  18  36
#     4  12  23  39  63  90 123 159 200 250 299 354
#     4  11  23  40  60  85 118 158 200 244 300 363
#     4  10  22  40  63  90 121 155 199 250 300 358
#     4  12  24  40  58  88 122 156 204 248 300 350
#     4  11  22  40  64  91 123 158 200 248 300 359
#
# _framework density 19.492971000000001
#
# number of rings (size 3 to 8) (size 9 to 14) (size 15 to 20)
#    0.000    0.889    2.222    5.556    0.000    3.556 
#    0.000    3.333    0.000    9.778    0.000    0.000 
#    0.000    0.000    0.000    0.000    0.000    0.000 
#
# Total GULP energy -670019.502224 kJ/mol
# GULP energy per Si atom -12407.768560 kJ/mol
# Density = 1.944860 g / cm^3
# Si number density = 19.492971 Si / 1000 Ang^3
#
#
#
# Elastic Constant Matrix: (Units=GPa)
#
#
# Indices 1 2 3 4 5 6 
#
# 1 68.3693 12.2640 17.1031 -6.9150 -0.0004 0.0000
# 2 12.2640 68.3693 17.1031 6.9150 0.0004 0.0000
# 3 17.1031 17.1031 92.0058 0.0000 0.0000 0.0000
# 4 -6.9150 6.9150 0.0000 34.8682 0.0000 0.0004
# 5 -0.0004 0.0004 0.0000 0.0000 34.8682 -6.9150
# 6 0.0000 0.0000 0.0000 0.0004 -6.9150 28.0526
#
#
#
# Elastic Compliance Matrix: (Units=1/GPa)
#
#
# Indices 1 2 3 4 5 6 
#
# 1 0.016102 -0.002638 -0.002503 0.003716 0.000000 0.000000
# 2 -0.002638 0.016102 -0.002503 -0.003716 0.000000 0.000000
# 3 -0.002503 -0.002503 0.011799 0.000000 0.000000 0.000000
# 4 0.003716 -0.003716 0.000000 0.030154 0.000000 0.000000
# 5 0.000000 0.000000 0.000000 0.000000 0.030154 0.007433
# 6 0.000000 0.000000 0.000000 0.000000 0.007433 0.037479
#
#
# Mechanical properties :
#
#
# Convention : Reuss Voigt Hill
#
# Bulk Modulus (GPa) = 34.82453 35.74278 35.28365
# Shear Modulus (GPa) = 30.00333 31.70941 30.85637
#
# Velocity S-wave (km/s) = 3.92750 4.03762 3.98294
# Velocity P-wave (km/s) = 6.20250 6.33345 6.26832
#
# Compressibility (1/GPa) = 0.02871540
#
# Stress axis : x y z
#
# Youngs Moduli (GPa) = 62.10549 62.10549 84.75038
#
# Poissons Ratio (x) = 0.16384 0.21211
# Poissons Ratio (y) = 0.16384 0.21211
# Poissons Ratio (z) = 0.15544 0.15544
#
# Static dielectric constant tensor:
#      x y z
#    x 3.612340 0.000000 0.000000 
#    y 0.000000 3.612340 0.000000 
#    z 0.000000 0.000000 3.854920 
# 
# 
# High freq. dielectric constant tensor:
#      x y z
#    x 1.764560 0.000000 0.000000 
#    y 0.000000 1.764560 0.000000 
#    z 0.000000 0.000000 1.776050 
# 
# From -- ./inp_files/6724.got.cif
#   From: 2010.03.12/outbox.cif.g09.slc.cpg/sg166_4_cif.got.tgz:6724.got - 2010.04.02 06:38:31.
