data_PCOD8324031
_publ_section_title
;
Structure prediction by ZEFSAII (Michael W. Deem and Ramdas Pophale) SiO2 
 PCOD8324031
Probable space group: R -3 M
;
_chemical_formula_sum "Si O2"
_cell_formula_units_Z 126
_cell_length_a 22.177773
_cell_length_b 22.177773
_cell_length_c 16.992491
_cell_angle_alpha 90.000000
_cell_angle_beta 90.000000
_cell_angle_gamma 120.000000
_cell_volume 7238.082821
_symmetry_space_group_name_H-M "R -3 M"
_symmetry_group_IT_number 166
_symmetry_cell_setting 'hexagonal'
loop_
_space_group_symop_operation_xyz
x,y,z
-y,x-y,z
-x+y,-x,z
x-y,-y,-z
-x,-x+y,-z
y,x,-z
-x,-y,-z
y,-x+y,-z
x-y,x,-z
-x+y,y,z
x,x-y,z
-y,-x,z
2/3+x,1/3+y,1/3+z
2/3-y,1/3+x-y,1/3+z
2/3-x+y,1/3-x,1/3+z
2/3+x-y,1/3-y,1/3-z
2/3-x,1/3-x+y,1/3-z
2/3+y,1/3+x,1/3-z
2/3-x,1/3-y,1/3-z
2/3+y,1/3-x+y,1/3-z
2/3+x-y,1/3+x,1/3-z
2/3-x+y,1/3+y,1/3+z
2/3+x,1/3+x-y,1/3+z
2/3-y,1/3-x,1/3+z
1/3+x,2/3+y,2/3+z
1/3-y,2/3+x-y,2/3+z
1/3-x+y,2/3-x,2/3+z
1/3+x-y,2/3-y,2/3-z
1/3-x,2/3-x+y,2/3-z
1/3+y,2/3+x,2/3-z
1/3-x,2/3-y,2/3-z
1/3+y,2/3-x+y,2/3-z
1/3+x-y,2/3+x,2/3-z
1/3-x+y,2/3+y,2/3+z
1/3+x,2/3+x-y,2/3+z
1/3-y,2/3-x,2/3+z
loop_
_atom_site_type_symbol
_atom_site_label
_atom_site_fract_x
_atom_site_fract_y
_atom_site_fract_z
Si Si1 0.000000 0.753769 0.500000
Si Si2 0.874924 0.264283 0.557200
Si Si3 0.738903 0.936031 0.046372
Si Si4 0.750552 0.945126 0.656174
O O1 0.055604 0.741194 0.450551
O O2 0.033306 0.813826 0.566874
O O3 0.810009 0.189992 0.585223
O O4 0.860469 0.283665 0.471378
O O5 0.882001 0.324937 0.615403
O O6 0.745561 0.872781 0.015133
O O7 0.662731 0.921142 0.021900
O O8 0.797391 0.000000 0.000000
O O9 0.760496 0.880248 0.683493
#
# Coordination Sequence:
#
# PCOD8324031 Si02
#       4
#    18  36  36  36
#     4  10  18  32  51  74 103 130 162 202 250 300
#     4  10  20  33  51  75 103 134 165 202 249 297
#     4   9  18  32  49  73 102 130 162 201 246 296
#     4  10  20  32  49  74 101 129 164 204 246 296
#
# _framework density 17.407926
#
# number of rings (size 3 to 8) (size 9 to 14) (size 15 to 20)
#    0.000    2.286    0.000    6.857    0.000    4.571 
#    0.000    3.571    0.000    0.857    0.000    1.000 
#    0.000    0.000    0.000    0.000    0.000    0.000 
#
# Total GULP energy -520317.337419 kJ/mol
# GULP energy per Si atom -12388.508034 kJ/mol
# Density = 1.736830 g / cm^3
# Si number density = 17.407926 Si / 1000 Ang^3
#
#
#
# Elastic Constant Matrix: (Units=GPa)
#
#
# Indices 1 2 3 4 5 6 
#
# 1 85.9588 46.6256 53.7363 -6.3537 0.0000 0.0000
# 2 46.6256 85.9588 53.7363 6.3537 0.0000 0.0000
# 3 53.7363 53.7363 74.4403 0.0000 0.0000 0.0000
# 4 -6.3537 6.3537 0.0000 29.8206 0.0000 0.0000
# 5 0.0000 0.0000 0.0000 0.0000 29.8206 -6.3537
# 6 0.0000 0.0000 0.0000 0.0000 -6.3537 19.6666
#
#
#
# Elastic Compliance Matrix: (Units=1/GPa)
#
#
# Indices 1 2 3 4 5 6 
#
# 1 0.022742 -0.004561 -0.013124 0.005817 0.000000 0.000000
# 2 -0.004561 0.022742 -0.013124 -0.005817 0.000000 0.000000
# 3 -0.013124 -0.013124 0.032382 0.000000 0.000000 0.000000
# 4 0.005817 -0.005817 0.000000 0.036013 0.000000 0.000000
# 5 0.000000 0.000000 0.000000 0.000000 0.036013 0.011635
# 6 0.000000 0.000000 0.000000 0.000000 0.011635 0.054606
#
#
# Mechanical properties :
#
#
# Convention : Reuss Voigt Hill
#
# Bulk Modulus (GPa) = 61.55226 61.61716 61.58471
# Shear Modulus (GPa) = 18.41403 22.01220 20.21312
#
# Velocity S-wave (km/s) = 3.25591 3.55983 3.41125
# Velocity P-wave (km/s) = 7.04060 7.23667 7.13931
#
# Compressibility (1/GPa) = 0.01624636
#
# Stress axis : x y z
#
# Youngs Moduli (GPa) = 43.97153 43.97153 30.88182
#
# Poissons Ratio (x) = 0.20056 0.40530
# Poissons Ratio (y) = 0.20056 0.40530
# Poissons Ratio (z) = 0.57709 0.57709
#
# Static dielectric constant tensor:
#      x y z
#    x 3.106120 0.000000 0.000000 
#    y 0.000000 3.106120 0.000000 
#    z 0.000000 0.000000 3.352450 
# 
# 
# High freq. dielectric constant tensor:
#      x y z
#    x 1.651950 0.000000 0.000000 
#    y 0.000000 1.651950 0.000000 
#    z 0.000000 0.000000 1.687380 
# 
# From -- ./inp_files/4871.got.cif
#   From: 2010.03.12/outbox.cif.g09.slc.cpg/sg166_3_cif.got.tgz:4871.got - 2010.04.02 06:38:31.
