data_PCOD8324108
_publ_section_title
;
Structure prediction by ZEFSAII (Michael W. Deem and Ramdas Pophale) SiO2 
 PCOD8324108
Probable space group: R -3 M
;
_chemical_formula_sum "Si O2"
_cell_formula_units_Z 144
_cell_length_a 20.979384
_cell_length_b 20.979384
_cell_length_c 18.271113
_cell_angle_alpha 90.000000
_cell_angle_beta 90.000000
_cell_angle_gamma 120.000000
_cell_volume 6964.358192
_symmetry_space_group_name_H-M "R -3 M"
_symmetry_group_IT_number 166
_symmetry_cell_setting 'hexagonal'
loop_
_space_group_symop_operation_xyz
x,y,z
-y,x-y,z
-x+y,-x,z
x-y,-y,-z
-x,-x+y,-z
y,x,-z
-x,-y,-z
y,-x+y,-z
x-y,x,-z
-x+y,y,z
x,x-y,z
-y,-x,z
2/3+x,1/3+y,1/3+z
2/3-y,1/3+x-y,1/3+z
2/3-x+y,1/3-x,1/3+z
2/3+x-y,1/3-y,1/3-z
2/3-x,1/3-x+y,1/3-z
2/3+y,1/3+x,1/3-z
2/3-x,1/3-y,1/3-z
2/3+y,1/3-x+y,1/3-z
2/3+x-y,1/3+x,1/3-z
2/3-x+y,1/3+y,1/3+z
2/3+x,1/3+x-y,1/3+z
2/3-y,1/3-x,1/3+z
1/3+x,2/3+y,2/3+z
1/3-y,2/3+x-y,2/3+z
1/3-x+y,2/3-x,2/3+z
1/3+x-y,2/3-y,2/3-z
1/3-x,2/3-x+y,2/3-z
1/3+y,2/3+x,2/3-z
1/3-x,2/3-y,2/3-z
1/3+y,2/3-x+y,2/3-z
1/3+x-y,2/3+x,2/3-z
1/3-x+y,2/3+y,2/3+z
1/3+x,2/3+x-y,2/3+z
1/3-y,2/3-x,2/3+z
loop_
_atom_site_type_symbol
_atom_site_label
_atom_site_fract_x
_atom_site_fract_y
_atom_site_fract_z
Si Si1 0.982512 0.562233 0.217326
Si Si2 0.579016 0.719072 0.836160
Si Si3 0.388115 0.290737 0.729469
Si Si4 0.521262 0.332470 0.640991
O O1 0.982551 0.491276 0.249900
O O2 0.897712 0.542989 0.212075
O O3 0.023938 0.629618 0.272527
O O4 0.024252 0.583239 0.139351
O O5 0.559432 0.779716 0.805176
O O6 0.666667 0.751895 0.833334
O O7 0.545622 0.694669 0.917281
O O8 0.333334 0.239480 0.666667
O O9 0.469553 0.303899 0.713014
O O10 0.529312 0.264656 0.608856
O O11 0.601604 0.398397 0.663038
#
# Coordination Sequence:
#
# PCOD8324108 Si02
#       4
#    36  36  36  36
#     4  11  21  35  56  84 113 145 193 239 282 345
#     4  10  19  34  54  77 107 141 181 233 287 334
#     4  11  21  36  56  82 114 151 188 236 292 337
#     4  11  22  36  55  80 113 152 190 228 277 341
#
# _framework density 20.676708000000001
#
# number of rings (size 3 to 8) (size 9 to 14) (size 15 to 20)
#    0.000    1.250    5.000    2.500    0.000    1.000 
#    0.000    1.250    0.000    0.500    0.000    8.750 
#    0.000    1.000    0.000    0.000    0.000    0.000 
#
# Total GULP energy -594962.978206 kJ/mol
# GULP energy per Si atom -12395.062046 kJ/mol
# Density = 2.062965 g / cm^3
# Si number density = 20.676708 Si / 1000 Ang^3
#
#
#
# Elastic Constant Matrix: (Units=GPa)
#
#
# Indices 1 2 3 4 5 6 
#
# 1 111.1945 48.9019 14.4465 -0.3244 0.0000 0.0000
# 2 48.9019 111.1945 14.4465 0.3244 0.0000 0.0000
# 3 14.4465 14.4465 31.5797 0.0000 0.0000 0.0000
# 4 -0.3244 0.3244 0.0000 17.9463 0.0000 0.0000
# 5 0.0000 0.0000 0.0000 0.0000 17.9463 -0.3244
# 6 0.0000 0.0000 0.0000 0.0000 -0.3244 31.1463
#
#
#
# Elastic Compliance Matrix: (Units=1/GPa)
#
#
# Indices 1 2 3 4 5 6 
#
# 1 0.011432 -0.004624 -0.003115 0.000290 0.000000 0.000000
# 2 -0.004624 0.011432 -0.003115 -0.000290 0.000000 0.000000
# 3 -0.003115 -0.003115 0.034515 0.000000 0.000000 0.000000
# 4 0.000290 -0.000290 0.000000 0.055732 0.000000 0.000000
# 5 0.000000 0.000000 0.000000 0.000000 0.055732 0.000580
# 6 0.000000 0.000000 0.000000 0.000000 0.000580 0.032113
#
#
# Mechanical properties :
#
#
# Convention : Reuss Voigt Hill
#
# Bulk Modulus (GPa) = 28.03167 45.50650 36.76909
# Shear Modulus (GPa) = 21.31701 25.15272 23.23487
#
# Velocity S-wave (km/s) = 3.21435 3.49159 3.35583
# Velocity P-wave (km/s) = 5.23093 6.18961 5.73035
#
# Compressibility (1/GPa) = 0.03567393
#
# Stress axis : x y z
#
# Youngs Moduli (GPa) = 87.47138 87.47138 28.97251
#
# Poissons Ratio (x) = 0.40447 0.09024
# Poissons Ratio (y) = 0.40447 0.09024
# Poissons Ratio (z) = 0.27243 0.27243
#
# Static dielectric constant tensor:
#      x y z
#    x 3.963000 0.000000 0.000000 
#    y 0.000000 3.963000 0.000000 
#    z 0.000000 0.000000 3.356580 
# 
# 
# High freq. dielectric constant tensor:
#      x y z
#    x 1.819000 0.000000 0.000000 
#    y 0.000000 1.819000 0.000000 
#    z 0.000000 0.000000 1.763470 
# 
# From -- ./inp_files/6614.got.cif
#   From: 2010.03.12/outbox.cif.g09.slc.cpg/sg166_4_cif.got.tgz:6614.got - 2010.04.02 06:38:31.
