data_PCOD8324757
_publ_section_title
;
Structure prediction by ZEFSAII (Michael W. Deem and Ramdas Pophale) SiO2 
 PCOD8324757
Probable space group: P 62
;
_chemical_formula_sum "Si O2"
_cell_formula_units_Z 30
_cell_length_a 18.247611
_cell_length_b 18.247611
_cell_length_c 5.151150
_cell_angle_alpha 90.000000
_cell_angle_beta 90.000000
_cell_angle_gamma 120.000000
_cell_volume 1485.411755
_symmetry_space_group_name_H-M "P 62"
_symmetry_group_IT_number 171
_symmetry_cell_setting 'hexagonal'
loop_
_space_group_symop_operation_xyz
x,y,z
x-y,x,1/3+z
-y,x-y,2/3+z
-x,-y,z
-x+y,-x,1/3+z
y,-x+y,2/3+z
loop_
_atom_site_type_symbol
_atom_site_label
_atom_site_fract_x
_atom_site_fract_y
_atom_site_fract_z
Si Si1 0.419435 0.601632 0.410010
Si Si2 0.697349 0.709826 0.761537
Si Si3 0.823291 0.657448 0.862309
Si Si4 0.210657 0.684932 0.231721
Si Si5 0.670512 0.065702 0.937816
O O1 0.381169 0.542194 0.664537
O O2 0.435764 0.693269 0.480831
O O3 0.506163 0.605760 0.320068
O O4 0.357838 0.568919 0.166774
O O5 0.791921 0.724019 0.793663
O O6 0.700797 0.800769 0.739425
O O7 0.656709 0.655303 0.500062
O O8 0.635080 0.655352 0.995526
O O9 0.740575 0.573594 0.965679
O O10 0.858433 0.627947 0.617051
#
# Coordination Sequence:
#
# PCOD8324757 Si02
#       5
#     6   6   6   6   6
#     4  11  21  36  52  85 111 161 200 249 282 346
#     4  10  21  39  63  85 117 151 195 238 298 358
#     4   9  24  38  64  86 119 152 198 242 295 361
#     4  11  22  34  58  81 117 157 208 245 297 333
#     4   9  22  37  60  81 124 142 198 235 295 344
#
# _framework density 20.196421000000001
#
# number of rings (size 3 to 8) (size 9 to 14) (size 15 to 20)
#    1.200    0.800    0.000    3.600    8.400    0.000 
#    0.000    6.000    0.000    0.000    0.000    7.000 
#    0.000    0.000    0.000    0.000    0.000    0.000 
#
# Total GULP energy -371686.497838 kJ/mol
# GULP energy per Si atom -12389.549928 kJ/mol
# Density = 2.015045 g / cm^3
# Si number density = 20.196421 Si / 1000 Ang^3
#
#
#
# Elastic Constant Matrix: (Units=GPa)
#
#
# Indices 1 2 3 4 5 6 
#
# 1 74.4891 47.8903 26.7566 0.0000 0.0000 0.0000
# 2 47.8903 74.4891 26.7566 0.0000 0.0000 0.0000
# 3 26.7566 26.7566 115.0807 0.0000 0.0000 0.0000
# 4 0.0000 0.0000 0.0000 16.5299 0.0000 0.0000
# 5 0.0000 0.0000 0.0000 0.0000 16.5299 0.0000
# 6 0.0000 0.0000 0.0000 0.0000 0.0000 13.2994
#
#
#
# Elastic Compliance Matrix: (Units=1/GPa)
#
#
# Indices 1 2 3 4 5 6 
#
# 1 0.023346 -0.014250 -0.002115 0.000000 0.000000 0.000000
# 2 -0.014250 0.023346 -0.002115 0.000000 0.000000 0.000000
# 3 -0.002115 -0.002115 0.009673 0.000000 0.000000 0.000000
# 4 0.000000 0.000000 0.000000 0.060496 0.000000 0.000000
# 5 0.000000 0.000000 0.000000 0.000000 0.060496 0.000000
# 6 0.000000 0.000000 0.000000 0.000000 0.000000 0.075191
#
#
# Mechanical properties :
#
#
# Convention : Reuss Voigt Hill
#
# Bulk Modulus (GPa) = 51.53127 51.87397 51.70262
# Shear Modulus (GPa) = 16.89322 20.11553 18.50438
#
# Velocity S-wave (km/s) = 2.89528 3.15936 3.03020
# Velocity P-wave (km/s) = 6.06195 6.24894 6.15616
#
# Compressibility (1/GPa) = 0.01940569
#
# Stress axis : x y z
#
# Youngs Moduli (GPa) = 42.83407 42.83407 103.38080
#
# Poissons Ratio (x) = 0.61038 0.21864
# Poissons Ratio (y) = 0.61038 0.21864
# Poissons Ratio (z) = 0.09059 0.09059
#
# Static dielectric constant tensor:
#      x y z
#    x 3.535500 0.000000 0.000000 
#    y 0.000000 3.535500 0.000000 
#    z 0.000000 0.000000 3.604860 
# 
# 
# High freq. dielectric constant tensor:
#      x y z
#    x 1.767260 0.000000 0.000000 
#    y 0.000000 1.767260 0.000000 
#    z 0.000000 0.000000 1.794170 
# 
# From -- ./inp_files/311.got.cif
#   From: 2010.03.12/outbox.cif.g09.slc.cpg/sg171_1_cif.got.tgz:311.got - 2010.04.02 06:49:11.
