data_PCOD8324946
_publ_section_title
;
Structure prediction by ZEFSAII (Michael W. Deem and Ramdas Pophale) SiO2 
 PCOD8324946
Probable space group: P -6
;
_chemical_formula_sum "Si O2"
_cell_formula_units_Z 32
_cell_length_a 14.480862
_cell_length_b 14.480862
_cell_length_c 9.151266
_cell_angle_alpha 90.000000
_cell_angle_beta 90.000000
_cell_angle_gamma 120.000000
_cell_volume 1661.883747
_symmetry_space_group_name_H-M "P -6"
_symmetry_group_IT_number 174
_symmetry_cell_setting 'hexagonal'
loop_
_space_group_symop_operation_xyz
x,y,z
-x+y,-x,-z
-y,x-y,z
x,y,-z
-x+y,-x,z
-y,x-y,-z
loop_
_atom_site_type_symbol
_atom_site_label
_atom_site_fract_x
_atom_site_fract_y
_atom_site_fract_z
Si Si1 0.157563 0.237595 0.168337
Si Si2 0.417753 0.800671 0.164893
Si Si3 0.447163 0.242525 0.672325
Si Si4 0.666668 0.333335 0.175563
Si Si5 0.036990 0.639456 0.669417
Si Si6 0.919453 0.160967 0.169582
O O1 0.244764 0.336957 0.258355
O O2 0.169301 0.134439 0.196704
O O3 0.041382 0.212377 0.219527
O O4 0.176335 0.270741 0.000000
O O5 0.289819 0.742551 0.190979
O O6 0.481271 0.901641 0.271068
O O7 0.445314 0.843989 0.000000
O O8 0.463438 0.232326 0.500000
O O9 0.548475 0.258161 0.762405
O O10 0.430255 0.342435 0.706893
O O11 0.345943 0.134284 0.729040
O O12 0.666667 0.333334 0.000000
O O13 0.056276 0.657233 0.500000
O O14 0.908807 0.184777 0.000000
#
# Coordination Sequence:
#
# PCOD8324946 Si02
#       6
#     6   6   6   2   6   6
#     4   9  17  30  52  78 112 147 183 228 272 318
#     4   8  17  34  54  76 103 136 172 214 263 314
#     4  10  22  40  59  80 112 147 183 233 290 338
#     4  12  25  44  67  87 103 140 196 246 292 341
#     4  10  20  34  54  81 110 144 180 218 272 333
#     4   9  17  32  54  84 114 150 192 231 275 330
#
# _framework density 19.255257
#
# number of rings (size 3 to 8) (size 9 to 14) (size 15 to 20)
#    0.375    2.250    0.000    2.062    0.000    5.250 
#    3.375    0.000    0.000    2.250    0.000    0.000 
#    0.000    0.000    0.000    0.000    0.000    0.000 
#
# Total GULP energy -396712.511999 kJ/mol
# GULP energy per Si atom -12397.266000 kJ/mol
# Density = 1.921143 g / cm^3
# Si number density = 19.255257 Si / 1000 Ang^3
#
#
#
# Elastic Constant Matrix: (Units=GPa)
#
#
# Indices 1 2 3 4 5 6 
#
# 1 60.4336 19.7326 34.8866 0.0000 0.0000 -0.0009
# 2 19.7326 60.4336 34.8864 0.0000 0.0000 -0.0006
# 3 34.8866 34.8864 81.8606 0.0000 0.0000 -0.0005
# 4 0.0000 0.0000 0.0000 29.2019 -0.0001 0.0000
# 5 0.0000 0.0000 0.0000 -0.0001 29.2021 0.0000
# 6 -0.0009 -0.0006 -0.0005 0.0000 0.0000 20.3501
#
#
#
# Elastic Compliance Matrix: (Units=1/GPa)
#
#
# Indices 1 2 3 4 5 6 
#
# 1 0.022199 -0.002370 -0.008451 0.000000 0.000000 0.000001
# 2 -0.002370 0.022199 -0.008450 0.000000 0.000000 0.000000
# 3 -0.008451 -0.008450 0.019419 0.000000 0.000000 0.000000
# 4 0.000000 0.000000 0.000000 0.034244 0.000000 0.000000
# 5 0.000000 0.000000 0.000000 0.000000 0.034244 0.000000
# 6 0.000001 0.000000 0.000000 0.000000 0.000000 0.049140
#
#
# Mechanical properties :
#
#
# Convention : Reuss Voigt Hill
#
# Bulk Modulus (GPa) = 39.56547 42.41544 40.99045
# Shear Modulus (GPa) = 21.89020 23.29897 22.59459
#
# Velocity S-wave (km/s) = 3.37537 3.48229 3.42924
# Velocity P-wave (km/s) = 5.98191 6.18419 6.08389
#
# Compressibility (1/GPa) = 0.02527456
#
# Stress axis : x y z
#
# Youngs Moduli (GPa) = 45.04649 45.04673 51.49704
#
# Poissons Ratio (x) = 0.10677 0.43518
# Poissons Ratio (y) = 0.10677 0.43517
# Poissons Ratio (z) = 0.38067 0.38067
#
# Static dielectric constant tensor:
#      x y z
#    x 3.425610 0.000000 0.000000 
#    y 0.000000 3.425590 0.000000 
#    z 0.000000 0.000000 3.429330 
# 
# 
# High freq. dielectric constant tensor:
#      x y z
#    x 1.740810 0.000000 0.000000 
#    y 0.000000 1.740810 0.000000 
#    z 0.000000 0.000000 1.744920 
# 
# From -- ./inp_files/360.got.cif
#   From: 2010.03.12/outbox.cif.g09.slc.cpg/sg174_cif.got.tgz:360.got - 2010.04.02 06:54:58.
