data_PCOD8324551
_publ_section_title
;
Structure prediction by ZEFSAII (Michael W. Deem and Ramdas Pophale) SiO2 
 PCOD8324551
Probable space group: P 61
;
_chemical_formula_sum "Si O2"
_cell_formula_units_Z 48
_cell_length_a 14.519697
_cell_length_b 14.519697
_cell_length_c 11.487586
_cell_angle_alpha 90.000000
_cell_angle_beta 90.000000
_cell_angle_gamma 120.000000
_cell_volume 2097.367405
_symmetry_space_group_name_H-M "P 61"
_symmetry_group_IT_number 169
_symmetry_cell_setting 'hexagonal'
loop_
_space_group_symop_operation_xyz
x,y,z
x-y,x,1/6+z
-y,x-y,1/3+z
-x,-y,1/2+z
-x+y,-x,2/3+z
y,-x+y,5/6+z
loop_
_atom_site_type_symbol
_atom_site_label
_atom_site_fract_x
_atom_site_fract_y
_atom_site_fract_z
Si Si1 0.597311 0.163633 0.481800
Si Si2 0.574708 0.080303 0.241410
Si Si3 0.977298 0.824802 0.971892
Si Si4 0.663032 0.061495 0.678544
Si Si5 0.344565 0.838445 0.397703
Si Si6 0.591067 0.295090 0.775554
Si Si7 0.360588 0.379949 0.719798
Si Si8 0.985586 0.153154 0.842071
O O1 0.590835 0.085253 0.378983
O O2 0.656937 0.143490 0.588288
O O3 0.656402 0.282493 0.434474
O O4 0.475034 0.134234 0.513126
O O5 0.653026 0.196242 0.191928
O O6 0.609485 0.998225 0.190194
O O7 0.451881 0.039102 0.207810
O O8 0.931204 0.845965 0.850750
O O9 0.989121 0.720661 0.959024
O O10 0.890587 0.791291 0.072703
O O11 0.714593 0.128886 0.798874
O O12 0.430514 0.817755 0.328356
O O13 0.272844 0.732462 0.477824
O O14 0.404525 0.934924 0.487250
O O15 0.272348 0.260185 0.694227
O O16 0.088734 0.147632 0.796811
#
# Coordination Sequence:
#
# PCOD8324551 Si02
#       8
#     6   6   6   6   6   6   6   6
#     4  11  23  40  61  94 139 184 221 272 332 411
#     4  10  23  44  58  95 137 181 224 281 325 405
#     4  10  23  42  71 101 129 167 225 292 345 411
#     4  11  24  39  69  97 135 177 233 277 342 409
#     4  11  21  39  55  99 123 179 219 274 326 396
#     4  11  23  36  64  87 137 176 226 271 331 407
#     4  10  23  40  66  93 137 174 225 279 341 409
#     4  10  22  42  72 100 127 170 229 296 346 412
#
# _framework density 22.885833999999999
#
# number of rings (size 3 to 8) (size 9 to 14) (size 15 to 20)
#    0.000    1.500    2.500    2.250    5.250    0.000 
#    2.250    0.000   16.500    0.000    0.000    0.000 
#    0.000    0.000    0.000    0.000    0.000    0.000 
#
# Total GULP energy -594667.989318 kJ/mol
# GULP energy per Si atom -12388.916444 kJ/mol
# Density = 2.283374 g / cm^3
# Si number density = 22.885834 Si / 1000 Ang^3
#
#
#
# Elastic Constant Matrix: (Units=GPa)
#
#
# Indices 1 2 3 4 5 6 
#
# 1 60.0076 6.7906 24.4516 0.0000 0.0000 0.0000
# 2 6.7906 60.0076 24.4516 0.0000 0.0000 0.0000
# 3 24.4516 24.4516 101.5383 0.0000 0.0000 0.0000
# 4 0.0000 0.0000 0.0000 33.6077 0.0000 0.0000
# 5 0.0000 0.0000 0.0000 0.0000 33.6077 0.0000
# 6 0.0000 0.0000 0.0000 0.0000 0.0000 26.6085
#
#
#
# Elastic Compliance Matrix: (Units=1/GPa)
#
#
# Indices 1 2 3 4 5 6 
#
# 1 0.018483 -0.000308 -0.004377 0.000000 0.000000 0.000000
# 2 -0.000308 0.018483 -0.004377 0.000000 0.000000 0.000000
# 3 -0.004377 -0.004377 0.011956 0.000000 0.000000 0.000000
# 4 0.000000 0.000000 0.000000 0.029755 0.000000 0.000000
# 5 0.000000 0.000000 0.000000 0.000000 0.029755 0.000000
# 6 0.000000 0.000000 0.000000 0.000000 0.000000 0.037582
#
#
# Mechanical properties :
#
#
# Convention : Reuss Voigt Hill
#
# Bulk Modulus (GPa) = 32.46857 36.99347 34.73102
# Shear Modulus (GPa) = 28.66913 29.82208 29.24560
#
# Velocity S-wave (km/s) = 3.54319 3.61374 3.57864
# Velocity P-wave (km/s) = 5.56390 5.79755 5.68192
#
# Compressibility (1/GPa) = 0.03079902
#
# Stress axis : x y z
#
# Youngs Moduli (GPa) = 54.10426 54.10426 83.63711
#
# Poissons Ratio (x) = 0.01667 0.36605
# Poissons Ratio (y) = 0.01667 0.36605
# Poissons Ratio (z) = 0.23680 0.23680
#
# Static dielectric constant tensor:
#      x y z
#    x 4.020230 0.000000 0.000000 
#    y 0.000000 4.020230 0.000000 
#    z 0.000000 0.000000 4.487510 
# 
# 
# High freq. dielectric constant tensor:
#      x y z
#    x 1.892300 0.000000 0.000000 
#    y 0.000000 1.892300 0.000000 
#    z 0.000000 0.000000 1.910770 
# 
# From -- ./inp_files/1025.got.cif
#   From: 2010.03.12/outbox.cif.g09.slc.cpg/sg169_cif.got.tgz:1025.got - 2010.04.02 06:46:06.
