data_PCOD8324763
_publ_section_title
;
Structure prediction by ZEFSAII (Michael W. Deem and Ramdas Pophale) SiO2 
 PCOD8324763
Probable space group: P 62
;
_chemical_formula_sum "Si O2"
_cell_formula_units_Z 30
_cell_length_a 19.324555
_cell_length_b 19.324555
_cell_length_c 4.950466
_cell_angle_alpha 90.000000
_cell_angle_beta 90.000000
_cell_angle_gamma 120.000000
_cell_volume 1601.016168
_symmetry_space_group_name_H-M "P 62"
_symmetry_group_IT_number 171
_symmetry_cell_setting 'hexagonal'
loop_
_space_group_symop_operation_xyz
x,y,z
x-y,x,1/3+z
-y,x-y,2/3+z
-x,-y,z
-x+y,-x,1/3+z
y,-x+y,2/3+z
loop_
_atom_site_type_symbol
_atom_site_label
_atom_site_fract_x
_atom_site_fract_y
_atom_site_fract_z
Si Si1 0.402671 0.048482 0.592380
Si Si2 0.799778 0.215524 0.062313
Si Si3 0.345716 0.941961 0.085371
Si Si4 0.742147 0.258926 0.560394
Si Si5 0.579244 0.151493 0.800157
O O1 0.370267 0.106827 0.481779
O O2 0.497735 0.092963 0.641507
O O3 0.381336 0.979162 0.375579
O O4 0.357605 0.009905 0.872281
O O5 0.749903 0.119872 0.118441
O O6 0.758226 0.253939 0.244575
O O7 0.788584 0.226209 0.746275
O O8 0.394290 0.898445 0.989390
O O9 0.647807 0.205118 0.587462
O O10 0.782942 0.352359 0.642554
#
# Coordination Sequence:
#
# PCOD8324763 Si02
#       5
#     6   6   6   6   6
#     4  11  23  37  57  78 103 140 180 233 278 325
#     4  10  22  39  50  74 105 130 171 220 280 326
#     4  11  23  37  57  78 103 140 180 233 278 325
#     4  10  22  34  50  68 104 142 173 238 279 306
#     4  10  23  37  52  78 105 142 198 230 275 328
#
# _framework density 18.738098000000001
#
# number of rings (size 3 to 8) (size 9 to 14) (size 15 to 20)
#    0.000    1.600    0.000    5.400    0.000   25.600 
#    0.000    0.000    0.000    0.000    0.000    0.000 
#    0.000    0.000    0.000    9.000    0.000    2.000 
#
# Total GULP energy -371735.128517 kJ/mol
# GULP energy per Si atom -12391.170951 kJ/mol
# Density = 1.869545 g / cm^3
# Si number density = 18.738098 Si / 1000 Ang^3
#
#
#
# Elastic Constant Matrix: (Units=GPa)
#
#
# Indices 1 2 3 4 5 6 
#
# 1 83.0621 25.7746 4.2665 0.0000 0.0000 0.0000
# 2 25.7746 83.0621 4.2665 0.0000 0.0000 0.0000
# 3 4.2665 4.2665 52.1519 0.0000 0.0000 0.0000
# 4 0.0000 0.0000 0.0000 25.3482 0.0000 0.0000
# 5 0.0000 0.0000 0.0000 0.0000 25.3482 0.0000
# 6 0.0000 0.0000 0.0000 0.0000 0.0000 28.6437
#
#
#
# Elastic Compliance Matrix: (Units=1/GPa)
#
#
# Indices 1 2 3 4 5 6 
#
# 1 0.013352 -0.004104 -0.000757 0.000000 0.000000 0.000000
# 2 -0.004104 0.013352 -0.000757 0.000000 0.000000 0.000000
# 3 -0.000757 -0.000757 0.019299 0.000000 0.000000 0.000000
# 4 0.000000 0.000000 0.000000 0.039450 0.000000 0.000000
# 5 0.000000 0.000000 0.000000 0.000000 0.039450 0.000000
# 6 0.000000 0.000000 0.000000 0.000000 0.000000 0.034912
#
#
# Mechanical properties :
#
#
# Convention : Reuss Voigt Hill
#
# Bulk Modulus (GPa) = 28.76270 31.87680 30.31975
# Shear Modulus (GPa) = 27.37657 28.13261 27.75459
#
# Velocity S-wave (km/s) = 3.82646 3.87894 3.85279
# Velocity P-wave (km/s) = 5.90810 6.09182 6.00066
#
# Compressibility (1/GPa) = 0.03476725
#
# Stress axis : x y z
#
# Youngs Moduli (GPa) = 74.89736 74.89736 51.81738
#
# Poissons Ratio (x) = 0.30739 0.03920
# Poissons Ratio (y) = 0.30739 0.03920
# Poissons Ratio (z) = 0.05666 0.05666
#
# Static dielectric constant tensor:
#      x y z
#    x 3.590670 0.000000 0.000000 
#    y 0.000000 3.590670 0.000000 
#    z 0.000000 0.000000 3.491950 
# 
# 
# High freq. dielectric constant tensor:
#      x y z
#    x 1.700610 0.000000 0.000000 
#    y 0.000000 1.700610 0.000000 
#    z 0.000000 0.000000 1.746950 
# 
# From -- ./inp_files/316.got.cif
#   From: 2010.03.12/outbox.cif.g09.slc.cpg/sg171_1_cif.got.tgz:316.got - 2010.04.02 06:49:11.
