data_PCOD8324867
_publ_section_title
;
Structure prediction by ZEFSAII (Michael W. Deem and Ramdas Pophale) SiO2 
 PCOD8324867
Probable space group: P 63
;
_chemical_formula_sum "Si O2"
_cell_formula_units_Z 40
_cell_length_a 8.516045
_cell_length_b 8.516045
_cell_length_c 31.295444
_cell_angle_alpha 90.000000
_cell_angle_beta 90.000000
_cell_angle_gamma 120.000000
_cell_volume 1965.566060
_symmetry_space_group_name_H-M "P 63"
_symmetry_group_IT_number 173
_symmetry_cell_setting 'hexagonal'
loop_
_space_group_symop_operation_xyz
x,y,z
x-y,x,1/2+z
-y,x-y,z
-x,-y,1/2+z
-x+y,-x,z
y,-x+y,1/2+z
loop_
_atom_site_type_symbol
_atom_site_label
_atom_site_fract_x
_atom_site_fract_y
_atom_site_fract_z
Si Si1 0.659166 0.687348 0.372970
Si Si2 0.666667 0.333333 0.089188
Si Si3 0.340903 0.297938 0.501206
Si Si4 0.040485 0.336218 0.277423
Si Si5 0.971613 0.659761 0.405536
Si Si6 0.632645 0.673763 0.746845
Si Si7 0.666668 0.333334 0.189899
Si Si8 0.674800 0.040728 0.031970
O O1 0.632689 0.748659 0.325700
O O2 0.842383 0.679038 0.371635
O O3 0.501980 0.498833 0.389566
O O4 0.674454 0.834572 0.406631
O O5 0.666668 0.333334 0.139504
O O6 0.679405 0.156470 0.073926
O O7 0.363642 0.248223 0.452770
O O8 0.524643 0.480597 0.510533
O O9 0.177364 0.340326 0.501827
O O10 0.304658 0.139415 0.536076
O O11 0.194290 0.359035 0.242499
O O12 0.976444 0.482077 0.272558
O O13 0.861382 0.141176 0.272664
O O14 0.527731 0.688522 0.704708
#
# Coordination Sequence:
#
# PCOD8324867 Si02
#       8
#     6   2   6   6   6   6   2   6
#     4  12  24  36  53  80 117 164 212 263 303 334
#     4   9  21  45  69  96 120 141 183 243 309 381
#     4  11  20  38  55  85 120 161 209 247 295 361
#     4  11  20  38  55  85 120 161 209 247 295 361
#     4  12  24  36  53  80 117 164 212 263 303 334
#     4  10  22  37  64  87 118 158 193 243 301 362
#     4   9  21  45  69  96 120 141 183 243 309 381
#     4  10  22  37  64  87 118 158 193 243 301 362
#
# _framework density 20.350373999999999
#
# number of rings (size 3 to 8) (size 9 to 14) (size 15 to 20)
#    0.000    1.200    0.000    8.100    0.000    0.000 
#    0.000    6.000    0.000    0.000    0.000    0.000 
#    0.000    0.000    0.000    0.000    0.000    0.000 
#
# Total GULP energy -495585.859019 kJ/mol
# GULP energy per Si atom -12389.646475 kJ/mol
# Density = 2.030406 g / cm^3
# Si number density = 20.350374 Si / 1000 Ang^3
#
#
#
# Elastic Constant Matrix: (Units=GPa)
#
#
# Indices 1 2 3 4 5 6 
#
# 1 115.3217 33.0796 37.9212 0.0000 0.0000 0.0000
# 2 33.0796 115.3220 37.9212 0.0000 0.0000 0.0000
# 3 37.9212 37.9212 118.0931 0.0000 0.0000 -0.0001
# 4 0.0000 0.0000 0.0000 20.0488 0.0000 0.0000
# 5 0.0000 0.0000 0.0000 0.0000 20.0487 0.0000
# 6 0.0000 0.0000 -0.0001 0.0000 0.0000 41.1212
#
#
#
# Elastic Compliance Matrix: (Units=1/GPa)
#
#
# Indices 1 2 3 4 5 6 
#
# 1 0.010110 -0.002049 -0.002589 0.000000 0.000000 0.000000
# 2 -0.002049 0.010110 -0.002589 0.000000 0.000000 0.000000
# 3 -0.002589 -0.002589 0.010130 0.000000 0.000000 0.000000
# 4 0.000000 0.000000 0.000000 0.049878 0.000000 0.000000
# 5 0.000000 0.000000 0.000000 0.000000 0.049879 0.000000
# 6 0.000000 0.000000 0.000000 0.000000 0.000000 0.024318
#
#
# Mechanical properties :
#
#
# Convention : Reuss Voigt Hill
#
# Bulk Modulus (GPa) = 62.89814 62.95344 62.92579
# Shear Modulus (GPa) = 28.70627 32.23140 30.46883
#
# Velocity S-wave (km/s) = 3.75987 3.98405 3.87358
# Velocity P-wave (km/s) = 7.05858 7.22256 7.14104
#
# Compressibility (1/GPa) = 0.01589872
#
# Stress axis : x y z
#
# Youngs Moduli (GPa) = 98.90878 98.90904 98.71303
#
# Poissons Ratio (x) = 0.20265 0.25553
# Poissons Ratio (y) = 0.20265 0.25553
# Poissons Ratio (z) = 0.25604 0.25604
#
# Static dielectric constant tensor:
#      x y z
#    x 3.971270 0.000000 0.000000 
#    y 0.000000 3.971270 0.000000 
#    z 0.000000 0.000000 3.249850 
# 
# 
# High freq. dielectric constant tensor:
#      x y z
#    x 1.815120 0.000000 0.000000 
#    y 0.000000 1.815120 0.000000 
#    z 0.000000 0.000000 1.743010 
# 
# From -- ./inp_files/1506.got.cif
#   From: 2010.03.12/outbox.cif.g09.slc.cpg/sg173_cif.got.tgz:1506.got - 2010.04.02 06:54:12.
