data_PCOD8324745
_publ_section_title
;
Structure prediction by ZEFSAII (Michael W. Deem and Ramdas Pophale) SiO2 
 PCOD8324745
Probable space group: P 62
;
_chemical_formula_sum "Si O2"
_cell_formula_units_Z 36
_cell_length_a 13.172121
_cell_length_b 13.172121
_cell_length_c 11.974873
_cell_angle_alpha 90.000000
_cell_angle_beta 90.000000
_cell_angle_gamma 120.000000
_cell_volume 1799.338908
_symmetry_space_group_name_H-M "P 62"
_symmetry_group_IT_number 171
_symmetry_cell_setting 'hexagonal'
loop_
_space_group_symop_operation_xyz
x,y,z
x-y,x,1/3+z
-y,x-y,2/3+z
-x,-y,z
-x+y,-x,1/3+z
y,-x+y,2/3+z
loop_
_atom_site_type_symbol
_atom_site_label
_atom_site_fract_x
_atom_site_fract_y
_atom_site_fract_z
Si Si1 0.216156 0.470337 0.775200
Si Si2 0.073448 0.802927 0.263518
Si Si3 0.129647 0.607547 0.909724
Si Si4 0.297689 0.335909 0.389690
Si Si5 0.717937 0.896745 0.851940
Si Si6 0.966104 0.091532 0.831692
O O1 0.228154 0.380424 0.854436
O O2 0.217479 0.570479 0.853251
O O3 0.321452 0.518398 0.686795
O O4 0.090651 0.409963 0.713705
O O5 0.094406 0.779583 0.391064
O O6 0.943261 0.723115 0.214240
O O7 0.110973 0.940213 0.259801
O O8 0.113187 0.690802 0.822295
O O9 0.000000 0.500000 0.941704
O O10 0.278470 0.379092 0.268148
O O11 0.177581 0.212652 0.405373
O O12 0.838479 0.014793 0.884106
O O13 0.000000 0.000000 0.774588
#
# Coordination Sequence:
#
# PCOD8324745 Si02
#       6
#     6   6   6   6   6   6
#     4  10  23  43  67  86 117 162 216 260 310 369
#     4  10  23  31  55  88 128 165 200 241 307 387
#     4  10  23  45  69  92 116 167 216 266 312 370
#     4  10  20  36  63  89 129 162 203 253 310 384
#     4  11  20  32  51  93 132 165 195 242 306 381
#     4   9  19  29  46  85 131 173 194 228 297 389
#
# _framework density 20.007348
#
# number of rings (size 3 to 8) (size 9 to 14) (size 15 to 20)
#    0.000    2.000    1.667    1.000   14.000    0.000 
#    3.000    0.000    0.000    0.000    0.000    0.000 
#    0.000    0.000    0.000    0.000    0.000    0.000 
#
# Total GULP energy -446098.013427 kJ/mol
# GULP energy per Si atom -12391.611484 kJ/mol
# Density = 1.996181 g / cm^3
# Si number density = 20.007348 Si / 1000 Ang^3
#
#
#
# Elastic Constant Matrix: (Units=GPa)
#
#
# Indices 1 2 3 4 5 6 
#
# 1 79.3607 36.5054 56.9954 0.0000 0.0000 0.0000
# 2 36.5054 79.3607 56.9954 0.0000 0.0000 0.0000
# 3 56.9954 56.9954 157.3033 0.0000 0.0000 0.0000
# 4 0.0000 0.0000 0.0000 23.0743 0.0000 0.0000
# 5 0.0000 0.0000 0.0000 0.0000 23.0743 0.0000
# 6 0.0000 0.0000 0.0000 0.0000 0.0000 21.4276
#
#
#
# Elastic Compliance Matrix: (Units=1/GPa)
#
#
# Indices 1 2 3 4 5 6 
#
# 1 0.018373 -0.004962 -0.004859 0.000000 0.000000 0.000000
# 2 -0.004962 0.018373 -0.004859 0.000000 0.000000 0.000000
# 3 -0.004859 -0.004859 0.009878 0.000000 0.000000 0.000000
# 4 0.000000 0.000000 0.000000 0.043338 0.000000 0.000000
# 5 0.000000 0.000000 0.000000 0.000000 0.043338 0.000000
# 6 0.000000 0.000000 0.000000 0.000000 0.000000 0.046669
#
#
# Mechanical properties :
#
#
# Convention : Reuss Voigt Hill
#
# Bulk Modulus (GPa) = 57.92438 68.55747 63.24093
# Shear Modulus (GPa) = 23.24671 24.55048 23.89860
#
# Velocity S-wave (km/s) = 3.41238 3.50676 3.45989
# Velocity P-wave (km/s) = 6.67384 7.12299 6.90207
#
# Compressibility (1/GPa) = 0.01726389
#
# Stress axis : x y z
#
# Youngs Moduli (GPa) = 54.42823 54.42823 101.23038
#
# Poissons Ratio (x) = 0.27005 0.49191
# Poissons Ratio (y) = 0.27005 0.49191
# Poissons Ratio (z) = 0.26448 0.26448
#
# Static dielectric constant tensor:
#      x y z
#    x 3.537170 0.000000 0.000000 
#    y 0.000000 3.537170 0.000000 
#    z 0.000000 0.000000 3.619160 
# 
# 
# High freq. dielectric constant tensor:
#      x y z
#    x 1.756520 0.000000 0.000000 
#    y 0.000000 1.756520 0.000000 
#    z 0.000000 0.000000 1.792980 
# 
# From -- ./inp_files/1926.got.cif
#   From: 2010.03.12/outbox.cif.g09.slc.cpg/sg171_1_cif.got.tgz:1926.got - 2010.04.02 06:49:11.
