data_PCOD8324656
_publ_section_title
;
Structure prediction by ZEFSAII (Michael W. Deem and Ramdas Pophale) SiO2 
 PCOD8324656
Probable space group: P 65
;
_chemical_formula_sum "Si O2"
_cell_formula_units_Z 42
_cell_length_a 20.726752
_cell_length_b 20.726752
_cell_length_c 5.055650
_cell_angle_alpha 90.000000
_cell_angle_beta 90.000000
_cell_angle_gamma 120.000000
_cell_volume 1880.919176
_symmetry_space_group_name_H-M "P 65"
_symmetry_group_IT_number 170
_symmetry_cell_setting 'hexagonal'
loop_
_space_group_symop_operation_xyz
x,y,z
x-y,x,5/6+z
-y,x-y,2/3+z
-x,-y,1/2+z
-x+y,-x,1/3+z
y,-x+y,1/6+z
loop_
_atom_site_type_symbol
_atom_site_label
_atom_site_fract_x
_atom_site_fract_y
_atom_site_fract_z
Si Si1 0.131522 0.507021 0.047850
Si Si2 0.864616 0.112255 0.371304
Si Si3 0.542709 0.135083 0.393923
Si Si4 0.984537 0.358242 0.049625
Si Si5 0.728995 0.701995 0.221193
Si Si6 0.709144 0.294716 0.884434
Si Si7 0.839144 0.914317 0.706351
O O1 0.129021 0.531270 0.349032
O O2 0.213063 0.516503 0.977197
O O3 0.069114 0.422331 0.993230
O O4 0.115900 0.558134 0.851401
O O5 0.896924 0.199016 0.444046
O O6 0.919672 0.099153 0.567715
O O7 0.780367 0.049719 0.436997
O O8 0.867843 0.101277 0.056362
O O9 0.459403 0.073341 0.328881
O O10 0.554497 0.218898 0.408136
O O11 0.985742 0.335202 0.351185
O O12 0.958433 0.289541 0.848635
O O13 0.724835 0.351644 0.648238
O O14 0.891547 0.879771 0.709610
#
# Coordination Sequence:
#
# PCOD8324656 Si02
#       7
#     6   6   6   6   6   6   6
#     4  11  23  41  69  97 141 177 225 288 347 416
#     4  12  24  45  66  94 128 181 216 287 344 392
#     4  11  23  41  69  97 141 177 225 288 347 416
#     4  12  26  45  66 102 133 192 232 270 336 424
#     4  12  26  45  70  92 137 176 240 280 338 420
#     4  10  20  38  65 104 136 173 228 293 356 390
#     4  12  22  39  65  96 126 156 218 278 344 410
#
# _framework density 22.329505999999999
#
# number of rings (size 3 to 8) (size 9 to 14) (size 15 to 20)
#    0.000    0.571    4.286    4.286    0.000    3.429 
#    0.000    0.000    0.000    0.000    0.000    0.000 
#    0.000    0.000    0.000    0.000    0.000    0.000 
#
# Total GULP energy -520308.936020 kJ/mol
# GULP energy per Si atom -12388.308000 kJ/mol
# Density = 2.227868 g / cm^3
# Si number density = 22.329506 Si / 1000 Ang^3
#
#
#
# Elastic Constant Matrix: (Units=GPa)
#
#
# Indices 1 2 3 4 5 6 
#
# 1 52.8464 4.9967 10.7326 0.0000 0.0000 0.0000
# 2 4.9967 52.8464 10.7326 0.0000 0.0000 0.0000
# 3 10.7326 10.7326 91.9962 0.0000 0.0000 0.0000
# 4 0.0000 0.0000 0.0000 37.5780 0.0000 0.0000
# 5 0.0000 0.0000 0.0000 0.0000 37.5780 0.0000
# 6 0.0000 0.0000 0.0000 0.0000 0.0000 23.9248
#
#
#
# Elastic Compliance Matrix: (Units=1/GPa)
#
#
# Indices 1 2 3 4 5 6 
#
# 1 0.019485 -0.001414 -0.002108 0.000000 0.000000 0.000000
# 2 -0.001414 0.019485 -0.002108 0.000000 0.000000 0.000000
# 3 -0.002108 -0.002108 0.011362 0.000000 0.000000 0.000000
# 4 0.000000 0.000000 0.000000 0.026611 0.000000 0.000000
# 5 0.000000 0.000000 0.000000 0.000000 0.026611 0.000000
# 6 0.000000 0.000000 0.000000 0.000000 0.000000 0.041798
#
#
# Mechanical properties :
#
#
# Convention : Reuss Voigt Hill
#
# Bulk Modulus (GPa) = 25.59496 27.84586 26.72041
# Shear Modulus (GPa) = 29.47494 31.23133 30.35314
#
# Velocity S-wave (km/s) = 3.63712 3.74392 3.69091
# Velocity P-wave (km/s) = 5.39680 5.58451 5.49146
#
# Compressibility (1/GPa) = 0.03907020
#
# Stress axis : x y z
#
# Youngs Moduli (GPa) = 51.32254 51.32254 88.01345
#
# Poissons Ratio (x) = 0.07258 0.18555
# Poissons Ratio (y) = 0.07258 0.18555
# Poissons Ratio (z) = 0.10820 0.10820
#
# Static dielectric constant tensor:
#      x y z
#    x 4.173040 0.000000 0.000000 
#    y 0.000000 4.173040 0.000000 
#    z 0.000000 0.000000 4.050090 
# 
# 
# High freq. dielectric constant tensor:
#      x y z
#    x 1.874710 0.000000 0.000000 
#    y 0.000000 1.874710 0.000000 
#    z 0.000000 0.000000 1.890970 
# 
# From -- ./inp_files/274.got.cif
#   From: 2010.03.12/outbox.cif.g09.slc.cpg/sg170_cif.got.tgz:274.got - 2010.04.02 06:47:37.
