data_PCOD8324833
_publ_section_title
;
Structure prediction by ZEFSAII (Michael W. Deem and Ramdas Pophale) SiO2 
 PCOD8324833
Probable space group: P 63
;
_chemical_formula_sum "Si O2"
_cell_formula_units_Z 48
_cell_length_a 22.748716
_cell_length_b 22.748716
_cell_length_c 8.828604
_cell_angle_alpha 90.000000
_cell_angle_beta 90.000000
_cell_angle_gamma 120.000000
_cell_volume 3956.730283
_symmetry_space_group_name_H-M "P 63"
_symmetry_group_IT_number 173
_symmetry_cell_setting 'hexagonal'
loop_
_space_group_symop_operation_xyz
x,y,z
x-y,x,1/2+z
-y,x-y,z
-x,-y,1/2+z
-x+y,-x,z
y,-x+y,1/2+z
loop_
_atom_site_type_symbol
_atom_site_label
_atom_site_fract_x
_atom_site_fract_y
_atom_site_fract_z
Si Si1 0.602663 0.061701 0.310230
Si Si2 0.460982 0.672976 0.823832
Si Si3 0.456645 0.794372 0.964443
Si Si4 0.931424 0.398290 0.310605
Si Si5 0.205628 0.662272 0.322095
Si Si6 0.938299 0.540962 0.976308
Si Si7 0.533134 0.931424 0.475933
Si Si8 0.788006 0.460982 0.962706
O O1 0.657633 0.136522 0.369900
O O2 0.531109 0.058565 0.302244
O O3 0.597345 0.001602 0.416382
O O4 0.623154 0.049919 0.143269
O O5 0.456774 0.679048 0.643269
O O6 0.479491 0.741995 0.908218
O O7 0.388724 0.612904 0.880277
O O8 0.444572 0.789148 0.143269
O O9 0.517345 0.869284 0.921726
O O10 0.916092 0.365344 0.143269
O O11 0.001602 0.404257 0.370156
O O12 0.130716 0.648061 0.364812
O O13 0.258005 0.737496 0.378320
O O14 0.224179 0.611275 0.406261
O O15 0.863478 0.521112 0.916638
O O16 0.941434 0.472544 0.984294
#
# Coordination Sequence:
#
# PCOD8324833 Si02
#       8
#     6   6   6   6   6   6   6   6
#     4   8  15  26  39  52  64  81 105 133 161 192
#     4  10  19  30  40  50  67  88 109 133 166 203
#     4  11  20  28  38  52  69  87 109 134 163 200
#     4   9  16  26  39  52  66  84 105 130 160 193
#     4  11  20  28  38  52  69  87 109 134 163 200
#     4   8  15  26  39  52  64  81 105 133 161 192
#     4   9  16  26  39  52  66  84 105 130 160 193
#     4  10  19  30  40  50  67  88 109 133 166 203
#
# _framework density 12.131228
#
# number of rings (size 3 to 8) (size 9 to 14) (size 15 to 20)
#    0.000    2.500    0.000    5.750    0.000    7.000 
#    0.000    0.000    0.000    0.000    0.000    0.000 
#    0.000    0.000    0.000    0.000    0.000    0.000 
#
# Total GULP energy -594970.056148 kJ/mol
# GULP energy per Si atom -12395.209503 kJ/mol
# Density = 1.210362 g / cm^3
# Si number density = 12.131228 Si / 1000 Ang^3
#
#
#
# Elastic Constant Matrix: (Units=GPa)
#
#
# Indices 1 2 3 4 5 6 
#
# 1 48.6199 27.3973 19.2533 0.0000 0.0000 0.0000
# 2 27.3973 48.6199 19.2533 0.0000 0.0000 0.0000
# 3 19.2533 19.2533 62.9126 0.0000 0.0000 0.0000
# 4 0.0000 0.0000 0.0000 17.7415 0.0000 0.0000
# 5 0.0000 0.0000 0.0000 0.0000 17.7415 0.0000
# 6 0.0000 0.0000 0.0000 0.0000 0.0000 10.6113
#
#
#
# Elastic Compliance Matrix: (Units=1/GPa)
#
#
# Indices 1 2 3 4 5 6 
#
# 1 0.031344 -0.015776 -0.004764 0.000000 0.000000 0.000000
# 2 -0.015776 0.031344 -0.004764 0.000000 0.000000 0.000000
# 3 -0.004764 -0.004764 0.018811 0.000000 0.000000 0.000000
# 4 0.000000 0.000000 0.000000 0.056365 0.000000 0.000000
# 5 0.000000 0.000000 0.000000 0.000000 0.056365 0.000000
# 6 0.000000 0.000000 0.000000 0.000000 0.000000 0.094239
#
#
# Mechanical properties :
#
#
# Convention : Reuss Voigt Hill
#
# Bulk Modulus (GPa) = 32.37273 32.44003 32.40638
# Shear Modulus (GPa) = 14.31130 15.50208 14.90669
#
# Velocity S-wave (km/s) = 3.43841 3.57860 3.50921
# Velocity P-wave (km/s) = 6.51974 6.62376 6.57195
#
# Compressibility (1/GPa) = 0.03089020
#
# Stress axis : x y z
#
# Youngs Moduli (GPa) = 31.90406 31.90406 53.15980
#
# Poissons Ratio (x) = 0.50331 0.25328
# Poissons Ratio (y) = 0.50331 0.25328
# Poissons Ratio (z) = 0.15200 0.15200
#
# Static dielectric constant tensor:
#      x y z
#    x 2.400070 0.000000 0.000000 
#    y 0.000000 2.400070 0.000000 
#    z 0.000000 0.000000 2.726180 
# 
# 
# High freq. dielectric constant tensor:
#      x y z
#    x 1.424940 0.000000 0.000000 
#    y 0.000000 1.424940 0.000000 
#    z 0.000000 0.000000 1.478700 
# 
# From -- ./inp_files/705.got.cif
#   From: 2010.03.12/outbox.cif.g09.slc.cpg/sg173_cif.got.tgz:705.got - 2010.04.02 06:54:12.
