data_PCOD8324721
_publ_section_title
;
Structure prediction by ZEFSAII (Michael W. Deem and Ramdas Pophale) SiO2 
 PCOD8324721
Probable space group: P 65
;
_chemical_formula_sum "Si O2"
_cell_formula_units_Z 24
_cell_length_a 14.188773
_cell_length_b 14.188773
_cell_length_c 6.718192
_cell_angle_alpha 90.000000
_cell_angle_beta 90.000000
_cell_angle_gamma 120.000000
_cell_volume 1171.312356
_symmetry_space_group_name_H-M "P 65"
_symmetry_group_IT_number 170
_symmetry_cell_setting 'hexagonal'
loop_
_space_group_symop_operation_xyz
x,y,z
x-y,x,5/6+z
-y,x-y,2/3+z
-x,-y,1/2+z
-x+y,-x,1/3+z
y,-x+y,1/6+z
loop_
_atom_site_type_symbol
_atom_site_label
_atom_site_fract_x
_atom_site_fract_y
_atom_site_fract_z
Si Si1 0.394542 0.627489 0.588370
Si Si2 0.108483 0.371005 0.082997
Si Si3 0.106107 0.234705 0.726062
Si Si4 0.392777 0.123185 0.582868
O O1 0.390961 0.720938 0.460185
O O2 0.517453 0.660296 0.636498
O O3 0.481038 0.828578 0.125912
O O4 0.208022 0.382523 0.211845
O O5 0.006302 0.342373 0.223635
O O6 0.075282 0.273958 0.926660
O O7 0.160105 0.161441 0.767825
O O8 0.187236 0.339705 0.598645
#
# Coordination Sequence:
#
# PCOD8324721 Si02
#       4
#     6   6   6   6
#     4  12  26  44  72 104 138 178 228 282 340 402
#     4  12  26  44  72 104 138 178 228 282 340 402
#     4  12  26  44  72 104 138 178 228 282 340 402
#     4  12  26  44  72 104 138 178 228 282 340 402
#
# _framework density 20.489840000000001
#
# number of rings (size 3 to 8) (size 9 to 14) (size 15 to 20)
#    0.000    0.000   10.000    0.000    0.000    8.000 
#    0.000    0.000    0.000    0.000    0.000    0.000 
#    0.000    0.000    0.000    0.000    0.000    0.000 
#
# Total GULP energy -297845.136429 kJ/mol
# GULP energy per Si atom -12410.214018 kJ/mol
# Density = 2.044320 g / cm^3
# Si number density = 20.489840 Si / 1000 Ang^3
#
#
#
# Elastic Constant Matrix: (Units=GPa)
#
#
# Indices 1 2 3 4 5 6 
#
# 1 93.5574 32.8781 15.5936 0.0000 0.0000 0.0000
# 2 32.8781 93.5574 15.5936 0.0000 0.0000 0.0000
# 3 15.5936 15.5936 73.1389 0.0000 0.0000 0.0000
# 4 0.0000 0.0000 0.0000 38.8753 0.0000 0.0000
# 5 0.0000 0.0000 0.0000 0.0000 38.8753 0.0000
# 6 0.0000 0.0000 0.0000 0.0000 0.0000 30.3397
#
#
#
# Elastic Compliance Matrix: (Units=1/GPa)
#
#
# Indices 1 2 3 4 5 6 
#
# 1 0.012414 -0.004066 -0.001780 0.000000 0.000000 0.000000
# 2 -0.004066 0.012414 -0.001780 0.000000 0.000000 0.000000
# 3 -0.001780 -0.001780 0.014432 0.000000 0.000000 0.000000
# 4 0.000000 0.000000 0.000000 0.025723 0.000000 0.000000
# 5 0.000000 0.000000 0.000000 0.000000 0.025723 0.000000
# 6 0.000000 0.000000 0.000000 0.000000 0.000000 0.032960
#
#
# Mechanical properties :
#
#
# Convention : Reuss Voigt Hill
#
# Bulk Modulus (GPa) = 41.65198 43.15380 42.40289
# Shear Modulus (GPa) = 34.03197 34.69730 34.36464
#
# Velocity S-wave (km/s) = 4.07986 4.11955 4.09975
# Velocity P-wave (km/s) = 6.52426 6.61320 6.56888
#
# Compressibility (1/GPa) = 0.02400846
#
# Stress axis : x y z
#
# Youngs Moduli (GPa) = 80.55332 80.55332 69.29258
#
# Poissons Ratio (x) = 0.32752 0.12333
# Poissons Ratio (y) = 0.32752 0.12333
# Poissons Ratio (z) = 0.14337 0.14337
#
# Static dielectric constant tensor:
#      x y z
#    x 3.708400 0.000000 0.000000 
#    y 0.000000 3.708400 0.000000 
#    z 0.000000 0.000000 3.739920 
# 
# 
# High freq. dielectric constant tensor:
#      x y z
#    x 1.809400 0.000000 0.000000 
#    y 0.000000 1.809400 0.000000 
#    z 0.000000 0.000000 1.813760 
# 
# From -- ./inp_files/51.got.cif
#   From: 2010.03.12/outbox.cif.g09.slc.cpg/sg170_cif.got.tgz:51.got - 2010.04.02 06:47:37.
