data_PCOD8324192
_publ_section_title
;
Structure prediction by ZEFSAII (Michael W. Deem and Ramdas Pophale) SiO2 
 PCOD8324192
Probable space group: R -3 M
;
_chemical_formula_sum "Si O2"
_cell_formula_units_Z 126
_cell_length_a 26.433528
_cell_length_b 26.433528
_cell_length_c 12.323355
_cell_angle_alpha 90.000000
_cell_angle_beta 90.000000
_cell_angle_gamma 120.000000
_cell_volume 7457.098041
_symmetry_space_group_name_H-M "R -3 M"
_symmetry_group_IT_number 166
_symmetry_cell_setting 'hexagonal'
loop_
_space_group_symop_operation_xyz
x,y,z
-y,x-y,z
-x+y,-x,z
x-y,-y,-z
-x,-x+y,-z
y,x,-z
-x,-y,-z
y,-x+y,-z
x-y,x,-z
-x+y,y,z
x,x-y,z
-y,-x,z
2/3+x,1/3+y,1/3+z
2/3-y,1/3+x-y,1/3+z
2/3-x+y,1/3-x,1/3+z
2/3+x-y,1/3-y,1/3-z
2/3-x,1/3-x+y,1/3-z
2/3+y,1/3+x,1/3-z
2/3-x,1/3-y,1/3-z
2/3+y,1/3-x+y,1/3-z
2/3+x-y,1/3+x,1/3-z
2/3-x+y,1/3+y,1/3+z
2/3+x,1/3+x-y,1/3+z
2/3-y,1/3-x,1/3+z
1/3+x,2/3+y,2/3+z
1/3-y,2/3+x-y,2/3+z
1/3-x+y,2/3-x,2/3+z
1/3+x-y,2/3-y,2/3-z
1/3-x,2/3-x+y,2/3-z
1/3+y,2/3+x,2/3-z
1/3-x,2/3-y,2/3-z
1/3+y,2/3-x+y,2/3-z
1/3+x-y,2/3+x,2/3-z
1/3-x+y,2/3+y,2/3+z
1/3+x,2/3+x-y,2/3+z
1/3-y,2/3-x,2/3+z
loop_
_atom_site_type_symbol
_atom_site_label
_atom_site_fract_x
_atom_site_fract_y
_atom_site_fract_z
Si Si1 0.454931 0.788264 0.166667
Si Si2 0.167522 0.951532 0.681071
Si Si3 0.835479 0.047849 0.075059
Si Si4 0.728114 0.064007 0.294793
O O1 0.390734 0.781468 0.152477
O O2 0.495071 0.822367 0.062657
O O3 0.112390 0.887611 0.679312
O O4 0.183101 0.977610 0.802839
O O5 0.222176 0.943850 0.643997
O O6 0.898950 0.101051 0.082476
O O7 0.792702 0.065954 0.012222
O O8 0.838696 0.000000 0.000000
O O9 0.732470 0.065803 0.166667
O O10 0.666667 0.010310 0.333334
#
# Coordination Sequence:
#
# PCOD8324192 Si02
#       4
#    18  36  36  36
#     4  10  21  36  54  72  94 128 169 210 248 288
#     4   9  18  32  49  69  95 127 161 198 241 285
#     4   9  17  30  48  70  94 123 158 195 239 287
#     4   9  17  28  46  71  95 126 156 191 232 286
#
# _framework density 16.896653000000001
#
# number of rings (size 3 to 8) (size 9 to 14) (size 15 to 20)
#    0.000    2.857    0.000    1.000    2.000    4.571 
#    0.000    0.000    0.000    1.143    0.000    0.000 
#    0.000    0.000    0.000    0.000    0.000    0.000 
#
# Total GULP energy -520356.133243 kJ/mol
# GULP energy per Si atom -12389.431744 kJ/mol
# Density = 1.685820 g / cm^3
# Si number density = 16.896653 Si / 1000 Ang^3
#
#
#
# Elastic Constant Matrix: (Units=GPa)
#
#
# Indices 1 2 3 4 5 6 
#
# 1 78.4453 36.0262 43.0144 -3.7796 0.0004 0.0000
# 2 36.0262 78.4452 43.0146 3.7795 -0.0005 0.0000
# 3 43.0144 43.0146 64.3025 0.0011 0.0012 -0.0001
# 4 -3.7796 3.7795 0.0011 31.3768 0.0005 -0.0004
# 5 0.0004 -0.0005 0.0012 0.0005 31.3769 -3.7796
# 6 0.0000 0.0000 -0.0001 -0.0004 -3.7796 21.2095
#
#
#
# Elastic Compliance Matrix: (Units=1/GPa)
#
#
# Indices 1 2 3 4 5 6 
#
# 1 0.020829 -0.003262 -0.011752 0.002902 0.000000 0.000000
# 2 -0.003262 0.020830 -0.011752 -0.002902 0.000001 0.000000
# 3 -0.011752 -0.011752 0.031274 -0.000001 -0.000001 0.000000
# 4 0.002902 -0.002902 -0.000001 0.032570 -0.000001 0.000001
# 5 0.000000 0.000001 -0.000001 -0.000001 0.032570 0.005804
# 6 0.000000 0.000000 0.000000 0.000001 0.005804 0.048183
#
#
# Mechanical properties :
#
#
# Convention : Reuss Voigt Hill
#
# Bulk Modulus (GPa) = 51.54022 51.70038 51.62030
# Shear Modulus (GPa) = 20.30434 23.40184 21.85309
#
# Velocity S-wave (km/s) = 3.47028 3.72559 3.60020
# Velocity P-wave (km/s) = 6.82837 7.01222 6.92090
#
# Compressibility (1/GPa) = 0.01940232
#
# Stress axis : x y z
#
# Youngs Moduli (GPa) = 48.00894 48.00883 31.97575
#
# Poissons Ratio (x) = 0.15660 0.37577
# Poissons Ratio (y) = 0.15660 0.37577
# Poissons Ratio (z) = 0.56418 0.56418
#
# Static dielectric constant tensor:
#      x y z
#    x 3.215120 0.000000 0.000000 
#    y 0.000000 3.215120 0.000000 
#    z 0.000000 0.000000 3.542980 
# 
# 
# High freq. dielectric constant tensor:
#      x y z
#    x 1.645900 0.000000 0.000000 
#    y 0.000000 1.645900 0.000000 
#    z 0.000000 0.000000 1.642300 
# 
# From -- ./inp_files/1824.got.cif
#   From: 2010.03.12/outbox.cif.g09.slc.cpg/sg166_1_cif.got.tgz:1824.got - 2010.04.02 06:38:31.
