data_PCOD8324157
_publ_section_title
;
Structure prediction by ZEFSAII (Michael W. Deem and Ramdas Pophale) SiO2 
 PCOD8324157
Probable space group: R -3 M
;
_chemical_formula_sum "Si O2"
_cell_formula_units_Z 216
_cell_length_a 21.823473
_cell_length_b 21.823473
_cell_length_c 27.284150
_cell_angle_alpha 90.000000
_cell_angle_beta 90.000000
_cell_angle_gamma 120.000000
_cell_volume 11253.530477
_symmetry_space_group_name_H-M "R -3 M"
_symmetry_group_IT_number 166
_symmetry_cell_setting 'hexagonal'
loop_
_space_group_symop_operation_xyz
x,y,z
-y,x-y,z
-x+y,-x,z
x-y,-y,-z
-x,-x+y,-z
y,x,-z
-x,-y,-z
y,-x+y,-z
x-y,x,-z
-x+y,y,z
x,x-y,z
-y,-x,z
2/3+x,1/3+y,1/3+z
2/3-y,1/3+x-y,1/3+z
2/3-x+y,1/3-x,1/3+z
2/3+x-y,1/3-y,1/3-z
2/3-x,1/3-x+y,1/3-z
2/3+y,1/3+x,1/3-z
2/3-x,1/3-y,1/3-z
2/3+y,1/3-x+y,1/3-z
2/3+x-y,1/3+x,1/3-z
2/3-x+y,1/3+y,1/3+z
2/3+x,1/3+x-y,1/3+z
2/3-y,1/3-x,1/3+z
1/3+x,2/3+y,2/3+z
1/3-y,2/3+x-y,2/3+z
1/3-x+y,2/3-x,2/3+z
1/3+x-y,2/3-y,2/3-z
1/3-x,2/3-x+y,2/3-z
1/3+y,2/3+x,2/3-z
1/3-x,2/3-y,2/3-z
1/3+y,2/3-x+y,2/3-z
1/3+x-y,2/3+x,2/3-z
1/3-x+y,2/3+y,2/3+z
1/3+x,2/3+x-y,2/3+z
1/3-y,2/3-x,2/3+z
loop_
_atom_site_type_symbol
_atom_site_label
_atom_site_fract_x
_atom_site_fract_y
_atom_site_fract_z
Si Si1 0.142283 0.143581 0.274477
Si Si2 0.908339 0.383531 0.148397
Si Si3 0.874197 0.262657 0.209872
Si Si4 0.462892 0.068697 0.872200
Si Si5 0.742550 0.116476 0.320033
Si Si6 0.411358 0.316020 0.685314
O O1 0.151669 0.075835 0.280900
O O2 0.184361 0.185929 0.226220
O O3 0.175129 0.195780 0.320170
O O4 0.059564 0.119128 0.270550
O O5 0.902809 0.451405 0.160023
O O6 0.888431 0.341131 0.199660
O O7 0.986531 0.403858 0.131556
O O8 0.790571 0.209430 0.207858
O O9 0.913893 0.247226 0.166667
O O10 0.903561 0.257639 0.262824
O O11 0.540804 0.081608 0.861633
O O12 0.448054 0.114721 0.833334
O O13 0.458242 0.092987 0.926617
O O14 0.804124 0.195877 0.332145
O O15 0.666667 0.108821 0.333334
O O16 0.754077 0.060699 0.350924
O O17 0.333334 0.257083 0.666667
#
# Coordination Sequence:
#
# PCOD8324157 Si02
#       6
#    36  36  36  36  36  36
#     4  11  22  37  59  88 122 159 202 249 302 366
#     4  10  21  35  57  87 118 155 197 241 294 356
#     4  10  20  35  56  81 114 152 190 234 291 351
#     4  11  25  42  62  89 121 157 200 250 302 356
#     4  10  23  38  57  89 122 157 199 250 305 359
#     4  11  22  39  62  86 120 158 202 252 309 367
#
# _framework density 19.193975999999999
#
# number of rings (size 3 to 8) (size 9 to 14) (size 15 to 20)
#    0.000    1.500    1.667    3.167    7.000    4.000 
#    0.000    0.000    0.000    0.667    0.000    0.000 
#    0.000    0.000    0.000    0.000    0.000    0.000 
#
# Total GULP energy -892959.462410 kJ/mol
# GULP energy per Si atom -12402.214756 kJ/mol
# Density = 1.915029 g / cm^3
# Si number density = 19.193976 Si / 1000 Ang^3
#
#
#
# Elastic Constant Matrix: (Units=GPa)
#
#
# Indices 1 2 3 4 5 6 
#
# 1 98.7326 48.2378 37.9045 0.0141 0.0000 0.0000
# 2 48.2378 98.7326 37.9045 -0.0141 0.0000 0.0000
# 3 37.9045 37.9045 72.6414 0.0000 0.0000 0.0000
# 4 0.0141 -0.0141 0.0000 31.7199 0.0000 0.0000
# 5 0.0000 0.0000 0.0000 0.0000 31.7199 0.0141
# 6 0.0000 0.0000 0.0000 0.0000 0.0141 25.2474
#
#
#
# Elastic Compliance Matrix: (Units=1/GPa)
#
#
# Indices 1 2 3 4 5 6 
#
# 1 0.014557 -0.005247 -0.004858 -0.000009 0.000000 0.000000
# 2 -0.005247 0.014557 -0.004858 0.000009 0.000000 0.000000
# 3 -0.004858 -0.004858 0.018836 0.000000 0.000000 0.000000
# 4 -0.000009 0.000009 0.000000 0.031526 0.000000 0.000000
# 5 0.000000 0.000000 0.000000 0.000000 0.031526 -0.000018
# 6 0.000000 0.000000 0.000000 0.000000 -0.000018 0.039608
#
#
# Mechanical properties :
#
#
# Convention : Reuss Voigt Hill
#
# Bulk Modulus (GPa) = 55.48136 57.57779 56.52958
# Shear Modulus (GPa) = 26.80337 27.47475 27.13906
#
# Velocity S-wave (km/s) = 3.74096 3.78752 3.76431
# Velocity P-wave (km/s) = 6.90131 7.01356 6.95766
#
# Compressibility (1/GPa) = 0.01802407
#
# Stress axis : x y z
#
# Youngs Moduli (GPa) = 68.69575 68.69575 53.08990
#
# Poissons Ratio (x) = 0.36045 0.25791
# Poissons Ratio (y) = 0.36045 0.25791
# Poissons Ratio (z) = 0.33372 0.33372
#
# Static dielectric constant tensor:
#      x y z
#    x 3.535580 0.000000 0.000000 
#    y 0.000000 3.535580 0.000000 
#    z 0.000000 0.000000 3.553030 
# 
# 
# High freq. dielectric constant tensor:
#      x y z
#    x 1.744500 0.000000 0.000000 
#    y 0.000000 1.744500 0.000000 
#    z 0.000000 0.000000 1.748250 
# 
# From -- ./inp_files/8480.got.cif
#   From: 2010.03.12/outbox.cif.g09.slc.cpg/sg166_5_cif.got.tgz:8480.got - 2010.04.02 06:38:31.
