data_PCOD8324120
_publ_section_title
;
Structure prediction by ZEFSAII (Michael W. Deem and Ramdas Pophale) SiO2 
 PCOD8324120
Probable space group: R -3 M
;
_chemical_formula_sum "Si O2"
_cell_formula_units_Z 216
_cell_length_a 23.139246
_cell_length_b 23.139246
_cell_length_c 27.296705
_cell_angle_alpha 90.000000
_cell_angle_beta 90.000000
_cell_angle_gamma 120.000000
_cell_volume 12657.247268
_symmetry_space_group_name_H-M "R -3 M"
_symmetry_group_IT_number 166
_symmetry_cell_setting 'hexagonal'
loop_
_space_group_symop_operation_xyz
x,y,z
-y,x-y,z
-x+y,-x,z
x-y,-y,-z
-x,-x+y,-z
y,x,-z
-x,-y,-z
y,-x+y,-z
x-y,x,-z
-x+y,y,z
x,x-y,z
-y,-x,z
2/3+x,1/3+y,1/3+z
2/3-y,1/3+x-y,1/3+z
2/3-x+y,1/3-x,1/3+z
2/3+x-y,1/3-y,1/3-z
2/3-x,1/3-x+y,1/3-z
2/3+y,1/3+x,1/3-z
2/3-x,1/3-y,1/3-z
2/3+y,1/3-x+y,1/3-z
2/3+x-y,1/3+x,1/3-z
2/3-x+y,1/3+y,1/3+z
2/3+x,1/3+x-y,1/3+z
2/3-y,1/3-x,1/3+z
1/3+x,2/3+y,2/3+z
1/3-y,2/3+x-y,2/3+z
1/3-x+y,2/3-x,2/3+z
1/3+x-y,2/3-y,2/3-z
1/3-x,2/3-x+y,2/3-z
1/3+y,2/3+x,2/3-z
1/3-x,2/3-y,2/3-z
1/3+y,2/3-x+y,2/3-z
1/3+x-y,2/3+x,2/3-z
1/3-x+y,2/3+y,2/3+z
1/3+x,2/3+x-y,2/3+z
1/3-y,2/3-x,2/3+z
loop_
_atom_site_type_symbol
_atom_site_label
_atom_site_fract_x
_atom_site_fract_y
_atom_site_fract_z
Si Si1 0.845902 0.819380 0.552027
Si Si2 0.205730 0.278174 0.122145
Si Si3 0.470010 0.067350 0.720359
Si Si4 0.044471 0.455531 0.547663
Si Si5 0.945510 0.308309 0.035729
Si Si6 0.770961 0.669376 0.770793
O O1 0.854232 0.854232 0.500000
O O2 0.919688 0.839375 0.571616
O O3 0.806927 0.842614 0.588138
O O4 0.799966 0.740223 0.547251
O O5 0.128797 0.257593 0.109113
O O6 0.259496 0.342734 0.090622
O O7 0.223213 0.219216 0.113646
O O8 0.217404 0.290418 0.179590
O O9 0.521874 0.043747 0.706997
O O10 0.442224 0.079151 0.669734
O O11 0.067945 0.533973 0.547184
O O12 0.000000 0.418519 0.500000
O O13 0.998497 0.420805 0.594769
O O14 0.977160 0.378596 0.063455
O O15 0.000000 0.304930 0.000000
O O16 0.841736 0.683471 0.748752
#
# Coordination Sequence:
#
# PCOD8324120 Si02
#       6
#    36  36  36  36  36  36
#     4  11  20  32  51  76 103 138 178 217 258 299
#     4  10  19  35  57  76 102 138 178 218 257 307
#     4  11  22  35  53  77 103 139 177 215 262 312
#     4  11  22  36  54  77 108 141 175 213 264 324
#     4  12  21  32  52  76 113 139 165 210 259 322
#     4  10  20  32  51  76 104 137 177 214 253 303
#
# _framework density 17.065321999999998
#
# number of rings (size 3 to 8) (size 9 to 14) (size 15 to 20)
#    0.000    1.167    6.667    1.000    0.000    1.000 
#    0.000    0.000    0.000    3.333    0.000    0.000 
#    0.000    2.000    0.000    0.000    0.000    0.000 
#
# Total GULP energy -892149.544484 kJ/mol
# GULP energy per Si atom -12390.965896 kJ/mol
# Density = 1.702648 g / cm^3
# Si number density = 17.065322 Si / 1000 Ang^3
#
#
#
# Elastic Constant Matrix: (Units=GPa)
#
#
# Indices 1 2 3 4 5 6 
#
# 1 83.6762 37.5819 28.6531 0.8510 0.0000 0.0000
# 2 37.5819 83.6762 28.6531 -0.8510 0.0000 0.0000
# 3 28.6531 28.6531 95.8210 0.0000 0.0000 0.0000
# 4 0.8510 -0.8510 0.0000 17.0226 0.0000 0.0000
# 5 0.0000 0.0000 0.0000 0.0000 17.0226 0.8510
# 6 0.0000 0.0000 0.0000 0.0000 0.8510 23.0471
#
#
#
# Elastic Compliance Matrix: (Units=1/GPa)
#
#
# Indices 1 2 3 4 5 6 
#
# 1 0.015669 -0.006065 -0.002872 -0.001087 0.000000 0.000000
# 2 -0.006065 0.015669 -0.002872 0.001087 0.000000 0.000000
# 3 -0.002872 -0.002872 0.012154 0.000000 0.000000 0.000000
# 4 -0.001087 0.001087 0.000000 0.058854 0.000000 0.000000
# 5 0.000000 0.000000 0.000000 0.000000 0.058854 -0.002173
# 6 0.000000 0.000000 0.000000 0.000000 -0.002173 0.043470
#
#
# Mechanical properties :
#
#
# Convention : Reuss Voigt Hill
#
# Bulk Modulus (GPa) = 50.31615 50.32774 50.32194
# Shear Modulus (GPa) = 21.28445 22.63748 21.96097
#
# Velocity S-wave (km/s) = 3.53545 3.64609 3.59120
# Velocity P-wave (km/s) = 6.79811 6.87609 6.83721
#
# Compressibility (1/GPa) = 0.01987434
#
# Stress axis : x y z
#
# Youngs Moduli (GPa) = 63.81837 63.81837 82.27963
#
# Poissons Ratio (x) = 0.38708 0.23630
# Poissons Ratio (y) = 0.38708 0.23630
# Poissons Ratio (z) = 0.18328 0.18328
#
# Static dielectric constant tensor:
#      x y z
#    x 3.196630 0.000000 0.000000 
#    y 0.000000 3.196630 0.000000 
#    z 0.000000 0.000000 3.301060 
# 
# 
# High freq. dielectric constant tensor:
#      x y z
#    x 1.640150 0.000000 0.000000 
#    y 0.000000 1.640150 0.000000 
#    z 0.000000 0.000000 1.665970 
# 
# From -- ./inp_files/8471.got.cif
#   From: 2010.03.12/outbox.cif.g09.slc.cpg/sg166_5_cif.got.tgz:8471.got - 2010.04.02 06:38:31.
