data_PCOD8324964
_publ_section_title
;
Structure prediction by ZEFSAII (Michael W. Deem and Ramdas Pophale) SiO2 
 PCOD8324964
Probable space group: P -6
;
_chemical_formula_sum "Si O2"
_cell_formula_units_Z 30
_cell_length_a 8.552714
_cell_length_b 8.552714
_cell_length_c 24.226170
_cell_angle_alpha 90.000000
_cell_angle_beta 90.000000
_cell_angle_gamma 120.000000
_cell_volume 1534.699287
_symmetry_space_group_name_H-M "P -6"
_symmetry_group_IT_number 174
_symmetry_cell_setting 'hexagonal'
loop_
_space_group_symop_operation_xyz
x,y,z
-x+y,-x,-z
-y,x-y,z
x,y,-z
-x+y,-x,z
-y,x-y,-z
loop_
_atom_site_type_symbol
_atom_site_label
_atom_site_fract_x
_atom_site_fract_y
_atom_site_fract_z
Si Si1 0.544534 0.857918 0.881027
Si Si2 0.001240 0.673444 0.337461
Si Si3 0.349943 0.876308 0.500000
Si Si4 0.542257 0.855304 0.000000
Si Si5 0.659839 0.659157 0.618147
Si Si6 0.197618 0.203562 0.781352
O O1 0.351167 0.851159 0.875627
O O2 0.638872 0.942352 0.941260
O O3 0.682701 0.986378 0.834884
O O4 0.804593 0.602700 0.363674
O O5 0.063594 0.530224 0.351767
O O6 0.136366 0.867057 0.363585
O O7 0.001735 0.689354 0.271622
O O8 0.517611 0.836428 0.500000
O O9 0.360085 0.994142 0.552475
O O10 0.351362 0.852065 0.000000
O O11 0.180683 0.005790 0.781238
#
# Coordination Sequence:
#
# PCOD8324964 Si02
#       6
#     6   6   3   3   6   6
#     4   8  16  29  56  83 101 153 203 243 291 356
#     4  12  24  43  61  95 119 170 194 258 310 375
#     4  10  20  42  66  96 116 152 202 250 298 374
#     4   6  10  26  46  78 114 132 194 256 286 340
#     4  12  24  42  68  88 126 154 204 249 316 367
#     4  10  21  36  51  80 127 151 193 252 301 352
#
# _framework density 19.547801
#
# number of rings (size 3 to 8) (size 9 to 14) (size 15 to 20)
#    1.200    0.800    4.000    1.200    2.800    1.600 
#    0.000    1.000    0.000    0.800    0.000    0.000 
#    0.000    0.000    0.000    0.000    0.000    0.000 
#
# Total GULP energy -371683.908244 kJ/mol
# GULP energy per Si atom -12389.463608 kJ/mol
# Density = 1.950331 g / cm^3
# Si number density = 19.547801 Si / 1000 Ang^3
#
#
#
# Elastic Constant Matrix: (Units=GPa)
#
#
# Indices 1 2 3 4 5 6 
#
# 1 49.7579 5.8446 36.5414 0.0000 0.0000 0.0000
# 2 5.8446 49.7579 36.5414 0.0000 0.0000 0.0000
# 3 36.5414 36.5414 212.9684 0.0000 0.0000 0.0000
# 4 0.0000 0.0000 0.0000 25.1695 0.0000 0.0000
# 5 0.0000 0.0000 0.0000 0.0000 25.1695 0.0000
# 6 0.0000 0.0000 0.0000 0.0000 0.0000 21.9566
#
#
#
# Elastic Compliance Matrix: (Units=1/GPa)
#
#
# Indices 1 2 3 4 5 6 
#
# 1 0.022997 0.000225 -0.003984 0.000000 0.000000 0.000000
# 2 0.000225 0.022997 -0.003984 0.000000 0.000000 0.000000
# 3 -0.003984 -0.003984 0.006063 0.000000 0.000000 0.000000
# 4 0.000000 0.000000 0.000000 0.039731 0.000000 0.000000
# 5 0.000000 0.000000 0.000000 0.000000 0.039731 0.000000
# 6 0.000000 0.000000 0.000000 0.000000 0.000000 0.045544
#
#
# Mechanical properties :
#
#
# Convention : Reuss Voigt Hill
#
# Bulk Modulus (GPa) = 27.34570 52.25991 39.80281
# Shear Modulus (GPa) = 24.42121 30.02959 27.22540
#
# Velocity S-wave (km/s) = 3.53839 3.92371 3.73602
# Velocity P-wave (km/s) = 5.54194 6.87894 6.24631
#
# Compressibility (1/GPa) = 0.03656882
#
# Stress axis : x y z
#
# Youngs Moduli (GPa) = 43.48390 43.48390 164.93906
#
# Poissons Ratio (x) = -0.00978 0.65719
# Poissons Ratio (y) = -0.00978 0.65719
# Poissons Ratio (z) = 0.17326 0.17326
#
# Static dielectric constant tensor:
#      x y z
#    x 3.156400 0.000000 0.000000 
#    y 0.000000 3.156400 0.000000 
#    z 0.000000 0.000000 3.619280 
# 
# 
# High freq. dielectric constant tensor:
#      x y z
#    x 1.727530 0.000000 0.000000 
#    y 0.000000 1.727530 0.000000 
#    z 0.000000 0.000000 1.781060 
# 
# From -- ./inp_files/1077.got.cif
#   From: 2010.03.12/outbox.cif.g09.slc.cpg/sg174_cif.got.tgz:1077.got - 2010.04.02 06:54:58.
