data_PCOD8324950
_publ_section_title
;
Structure prediction by ZEFSAII (Michael W. Deem and Ramdas Pophale) SiO2 
 PCOD8324950
Probable space group: P -6
;
_chemical_formula_sum "Si O2"
_cell_formula_units_Z 45
_cell_length_a 18.247212
_cell_length_b 18.247212
_cell_length_c 7.842277
_cell_angle_alpha 90.000000
_cell_angle_beta 90.000000
_cell_angle_gamma 120.000000
_cell_volume 2261.339899
_symmetry_space_group_name_H-M "P -6"
_symmetry_group_IT_number 174
_symmetry_cell_setting 'hexagonal'
loop_
_space_group_symop_operation_xyz
x,y,z
-x+y,-x,-z
-y,x-y,z
x,y,-z
-x+y,-x,z
-y,x-y,-z
loop_
_atom_site_type_symbol
_atom_site_label
_atom_site_fract_x
_atom_site_fract_y
_atom_site_fract_z
Si Si1 0.498321 0.915481 0.193434
Si Si2 0.841466 0.613556 0.297644
Si Si3 0.569393 0.672465 0.195019
Si Si4 0.788761 0.998153 0.296619
Si Si5 0.914505 0.339157 0.296201
Si Si6 0.903539 0.494459 0.307724
Si Si7 0.607768 0.848125 0.691239
Si Si8 0.002617 0.907361 0.000000
O O1 0.401072 0.876835 0.254926
O O2 0.531290 0.848666 0.205448
O O3 0.559364 0.996662 0.306270
O O4 0.502832 0.946247 0.000000
O O5 0.839298 0.606129 0.500000
O O6 0.753319 0.600827 0.226646
O O7 0.855259 0.538631 0.218189
O O8 0.917168 0.704864 0.244393
O O9 0.638008 0.643114 0.222744
O O10 0.596899 0.755702 0.304602
O O11 0.569119 0.697483 0.000000
O O12 0.808324 0.996203 0.500000
O O13 0.699801 0.917632 0.240914
O O14 0.858376 0.995465 0.176365
O O15 0.919842 0.343165 0.500000
O O16 0.887661 0.406423 0.223951
O O17 0.871116 0.473936 0.500000
O O18 0.599345 0.872197 0.500000
O O19 0.084721 0.002338 0.000000
#
# Coordination Sequence:
#
# PCOD8324950 Si02
#       8
#     6   6   6   6   6   6   6   3
#     4  10  20  35  57  82 111 148 186 232 288 344
#     4   9  17  33  55  84 117 152 195 242 297 352
#     4  10  22  38  55  82 116 149 187 239 297 348
#     4  10  22  40  65  93 122 159 208 260 308 367
#     4   9  18  33  54  80 113 151 189 235 290 347
#     4   9  16  31  54  78 111 149 187 232 276 342
#     4  11  22  37  61  89 114 153 198 241 297 355
#     4  10  26  46  62  92 122 158 206 248 320 386
#
# _framework density 19.899705999999998
#
# number of rings (size 3 to 8) (size 9 to 14) (size 15 to 20)
#    0.133    2.133    1.333    1.200    1.867    3.200 
#    2.800    2.667    0.000    0.000    0.000    0.000 
#    0.000    0.000    0.000    0.000    0.000    0.000 
#
# Total GULP energy -557756.839363 kJ/mol
# GULP energy per Si atom -12394.596430 kJ/mol
# Density = 1.985441 g / cm^3
# Si number density = 19.899706 Si / 1000 Ang^3
#
#
#
# Elastic Constant Matrix: (Units=GPa)
#
#
# Indices 1 2 3 4 5 6 
#
# 1 152.3329 85.3840 23.8232 0.0000 0.0000 0.0000
# 2 85.3840 152.3329 23.8232 0.0000 0.0000 0.0000
# 3 23.8232 23.8232 48.0969 0.0000 0.0000 0.0000
# 4 0.0000 0.0000 0.0000 21.0393 0.0000 0.0000
# 5 0.0000 0.0000 0.0000 0.0000 21.0393 0.0000
# 6 0.0000 0.0000 0.0000 0.0000 0.0000 33.4745
#
#
#
# Elastic Compliance Matrix: (Units=1/GPa)
#
#
# Indices 1 2 3 4 5 6 
#
# 1 0.009804 -0.005133 -0.002313 0.000000 0.000000 0.000000
# 2 -0.005133 0.009804 -0.002313 0.000000 0.000000 0.000000
# 3 -0.002313 -0.002313 0.023083 0.000000 0.000000 0.000000
# 4 0.000000 0.000000 0.000000 0.047530 0.000000 0.000000
# 5 0.000000 0.000000 0.000000 0.000000 0.047530 0.000000
# 6 0.000000 0.000000 0.000000 0.000000 0.000000 0.029873
#
#
# Mechanical properties :
#
#
# Convention : Reuss Voigt Hill
#
# Bulk Modulus (GPa) = 43.15838 68.75818 55.95828
# Shear Modulus (GPa) = 25.65854 29.75944 27.70899
#
# Velocity S-wave (km/s) = 3.59471 3.87133 3.73558
# Velocity P-wave (km/s) = 6.24214 7.38988 6.84012
#
# Compressibility (1/GPa) = 0.02317047
#
# Stress axis : x y z
#
# Youngs Moduli (GPa) = 102.00388 102.00388 43.32193
#
# Poissons Ratio (x) = 0.52361 0.10022
# Poissons Ratio (y) = 0.52361 0.10022
# Poissons Ratio (z) = 0.23597 0.23597
#
# Static dielectric constant tensor:
#      x y z
#    x 3.641320 0.000000 0.000000 
#    y 0.000000 3.641320 0.000000 
#    z 0.000000 0.000000 3.371850 
# 
# 
# High freq. dielectric constant tensor:
#      x y z
#    x 1.771920 0.000000 0.000000 
#    y 0.000000 1.771920 0.000000 
#    z 0.000000 0.000000 1.764290 
# 
# From -- ./inp_files/503.got.cif
#   From: 2010.03.12/outbox.cif.g09.slc.cpg/sg174_cif.got.tgz:503.got - 2010.04.02 06:54:58.
