data_PCOD8324938
_publ_section_title
;
Structure prediction by ZEFSAII (Michael W. Deem and Ramdas Pophale) SiO2 
 PCOD8324938
Probable space group: P -6
;
_chemical_formula_sum "Si O2"
_cell_formula_units_Z 32
_cell_length_a 16.313623
_cell_length_b 16.313623
_cell_length_c 8.775585
_cell_angle_alpha 90.000000
_cell_angle_beta 90.000000
_cell_angle_gamma 120.000000
_cell_volume 2022.588587
_symmetry_space_group_name_H-M "P -6"
_symmetry_group_IT_number 174
_symmetry_cell_setting 'hexagonal'
loop_
_space_group_symop_operation_xyz
x,y,z
-x+y,-x,-z
-y,x-y,z
x,y,-z
-x+y,-x,z
-y,x-y,-z
loop_
_atom_site_type_symbol
_atom_site_label
_atom_site_fract_x
_atom_site_fract_y
_atom_site_fract_z
Si Si1 0.615121 0.564425 0.678278
Si Si2 0.666668 0.333334 0.319604
Si Si3 0.147503 0.670261 0.822546
Si Si4 0.336223 0.855621 0.822607
Si Si5 0.765861 0.229693 0.179522
Si Si6 0.624196 0.047680 0.321696
O O1 0.635500 0.570463 0.500000
O O2 0.593027 0.646226 0.726948
O O3 0.709079 0.583048 0.766535
O O4 0.527204 0.462189 0.723845
O O5 0.666667 0.333334 0.500000
O O6 0.701524 0.264145 0.261738
O O7 0.236520 0.768632 0.769943
O O8 0.171407 0.587823 0.786517
O O9 0.057549 0.655617 0.726597
O O10 0.125166 0.671159 0.000000
O O11 0.336080 0.878487 0.000000
O O12 0.719280 0.120351 0.230696
O O13 0.760524 0.237981 0.000000
O O14 0.645000 0.061077 0.500000
#
# Coordination Sequence:
#
# PCOD8324938 Si02
#       6
#     6   2   6   6   6   6
#     4  10  20  32  46  65  94 126 157 196 237 278
#     4  12  22  32  46  66  94 128 160 192 232 275
#     4   9  17  30  48  69  94 124 160 198 236 278
#     4   9  17  30  48  69  94 124 160 198 236 278
#     4  12  22  32  48  68  92 126 164 196 230 277
#     4  10  20  32  46  65  94 126 157 196 237 278
#
# _framework density 15.821308999999999
#
# number of rings (size 3 to 8) (size 9 to 14) (size 15 to 20)
#    0.000    1.875    1.875    3.750    0.000    3.750 
#    0.000    0.000    0.000    2.250    0.000    0.000 
#    1.875    0.000    3.375    0.000    3.375    0.000 
#
# Total GULP energy -396889.901267 kJ/mol
# GULP energy per Si atom -12402.809415 kJ/mol
# Density = 1.578530 g / cm^3
# Si number density = 15.821309 Si / 1000 Ang^3
#
#
#
# Elastic Constant Matrix: (Units=GPa)
#
#
# Indices 1 2 3 4 5 6 
#
# 1 99.1329 41.9214 41.6698 0.0000 0.0000 0.0013
# 2 41.9214 99.1351 41.6707 0.0000 0.0000 -0.0004
# 3 41.6698 41.6707 91.0066 0.0000 0.0000 0.0011
# 4 0.0000 0.0000 0.0000 23.6430 0.0000 0.0000
# 5 0.0000 0.0000 0.0000 0.0000 23.6429 0.0000
# 6 0.0013 -0.0004 0.0011 0.0000 0.0000 28.6075
#
#
#
# Elastic Compliance Matrix: (Units=1/GPa)
#
#
# Indices 1 2 3 4 5 6 
#
# 1 0.013599 -0.003880 -0.004450 0.000000 0.000000 -0.000001
# 2 -0.003880 0.013599 -0.004450 0.000000 0.000000 0.000001
# 3 -0.004450 -0.004450 0.015063 0.000000 0.000000 0.000000
# 4 0.000000 0.000000 0.000000 0.042296 0.000000 0.000000
# 5 0.000000 0.000000 0.000000 0.000000 0.042296 0.000000
# 6 -0.000001 0.000001 0.000000 0.000000 0.000000 0.034956
#
#
# Mechanical properties :
#
#
# Convention : Reuss Voigt Hill
#
# Bulk Modulus (GPa) = 59.87784 59.97759 59.92771
# Shear Modulus (GPa) = 25.91545 26.11287 26.01416
#
# Velocity S-wave (km/s) = 4.05162 4.06703 4.05933
# Velocity P-wave (km/s) = 7.73408 7.74893 7.74151
#
# Compressibility (1/GPa) = 0.01670067
#
# Stress axis : x y z
#
# Youngs Moduli (GPa) = 73.53620 73.53746 66.38642
#
# Poissons Ratio (x) = 0.28533 0.29542
# Poissons Ratio (y) = 0.28532 0.29542
# Poissons Ratio (z) = 0.32723 0.32724
#
# Static dielectric constant tensor:
#      x y z
#    x 2.939860 0.000000 0.000000 
#    y 0.000000 2.939860 0.000000 
#    z 0.000000 0.000000 3.030360 
# 
# 
# High freq. dielectric constant tensor:
#      x y z
#    x 1.587960 0.000000 0.000000 
#    y 0.000000 1.587960 0.000000 
#    z 0.000000 0.000000 1.618600 
# 
# From -- ./inp_files/317.got.cif
#   From: 2010.03.12/outbox.cif.g09.slc.cpg/sg174_cif.got.tgz:317.got - 2010.04.02 06:54:58.
