data_PCOD8324085
_publ_section_title
;
Structure prediction by ZEFSAII (Michael W. Deem and Ramdas Pophale) SiO2 
 PCOD8324085
Probable space group: R -3 M
;
_chemical_formula_sum "Si O2"
_cell_formula_units_Z 216
_cell_length_a 26.380311
_cell_length_b 26.380311
_cell_length_c 19.655546
_cell_angle_alpha 90.000000
_cell_angle_beta 90.000000
_cell_angle_gamma 120.000000
_cell_volume 11846.104690
_symmetry_space_group_name_H-M "R -3 M"
_symmetry_group_IT_number 166
_symmetry_cell_setting 'hexagonal'
loop_
_space_group_symop_operation_xyz
x,y,z
-y,x-y,z
-x+y,-x,z
x-y,-y,-z
-x,-x+y,-z
y,x,-z
-x,-y,-z
y,-x+y,-z
x-y,x,-z
-x+y,y,z
x,x-y,z
-y,-x,z
2/3+x,1/3+y,1/3+z
2/3-y,1/3+x-y,1/3+z
2/3-x+y,1/3-x,1/3+z
2/3+x-y,1/3-y,1/3-z
2/3-x,1/3-x+y,1/3-z
2/3+y,1/3+x,1/3-z
2/3-x,1/3-y,1/3-z
2/3+y,1/3-x+y,1/3-z
2/3+x-y,1/3+x,1/3-z
2/3-x+y,1/3+y,1/3+z
2/3+x,1/3+x-y,1/3+z
2/3-y,1/3-x,1/3+z
1/3+x,2/3+y,2/3+z
1/3-y,2/3+x-y,2/3+z
1/3-x+y,2/3-x,2/3+z
1/3+x-y,2/3-y,2/3-z
1/3-x,2/3-x+y,2/3-z
1/3+y,2/3+x,2/3-z
1/3-x,2/3-y,2/3-z
1/3+y,2/3-x+y,2/3-z
1/3+x-y,2/3+x,2/3-z
1/3-x+y,2/3+y,2/3+z
1/3+x,2/3+x-y,2/3+z
1/3-y,2/3-x,2/3+z
loop_
_atom_site_type_symbol
_atom_site_label
_atom_site_fract_x
_atom_site_fract_y
_atom_site_fract_z
Si Si1 0.046690 0.211480 0.059346
Si Si2 0.973775 0.831075 0.691757
Si Si3 0.702060 0.911041 0.270017
Si Si4 0.219375 0.667019 0.833935
Si Si5 0.505058 0.377881 0.771867
Si Si6 0.771768 0.663211 0.456861
O O1 0.105176 0.210351 0.037763
O O2 0.018638 0.173872 0.127474
O O3 0.059966 0.277428 0.074519
O O4 0.000000 0.184088 0.000000
O O5 0.914547 0.829094 0.666565
O O6 0.960108 0.769014 0.721233
O O7 0.004107 0.877271 0.752228
O O8 0.017960 0.848977 0.629292
O O9 0.694111 0.847056 0.269119
O O10 0.666667 0.917061 0.333334
O O11 0.677093 0.921673 0.199566
O O12 0.239889 0.619945 0.819832
O O13 0.270129 0.729872 0.808033
O O14 0.564794 0.435207 0.793047
O O15 0.488056 0.333334 0.833334
O O16 0.454503 0.394890 0.759898
O O17 0.827887 0.655773 0.462978
#
# Coordination Sequence:
#
# PCOD8324085 Si02
#       6
#    36  36  36  36  36  36
#     4  10  19  34  56  80 110 147 186 226 275 333
#     4  10  19  33  53  79 110 145 183 225 272 329
#     4   9  15  27  50  75  97 126 168 221 274 315
#     4  10  19  32  52  80 113 147 187 230 273 323
#     4  11  22  36  55  79 109 146 186 227 275 330
#     4   9  18  34  52  74 102 134 176 226 275 320
#
# _framework density 18.233841999999999
#
# number of rings (size 3 to 8) (size 9 to 14) (size 15 to 20)
#    0.000    2.167    1.667    2.667    0.000    2.667 
#    0.000    2.500    0.000    6.667    0.000    4.667 
#    0.000    0.000    0.000    0.000    0.000    0.000 
#
# Total GULP energy -892660.385352 kJ/mol
# GULP energy per Si atom -12398.060908 kJ/mol
# Density = 1.819234 g / cm^3
# Si number density = 18.233842 Si / 1000 Ang^3
#
#
#
# Elastic Constant Matrix: (Units=GPa)
#
#
# Indices 1 2 3 4 5 6 
#
# 1 83.5000 37.1481 34.8937 -1.8531 0.0000 0.0000
# 2 37.1481 83.5000 34.8937 1.8531 0.0000 0.0000
# 3 34.8937 34.8937 96.8304 0.0000 0.0000 0.0000
# 4 -1.8531 1.8531 0.0000 25.4080 0.0000 0.0000
# 5 0.0000 0.0000 0.0000 0.0000 25.4080 -1.8531
# 6 0.0000 0.0000 0.0000 0.0000 -1.8531 23.1760
#
#
#
# Elastic Compliance Matrix: (Units=1/GPa)
#
#
# Indices 1 2 3 4 5 6 
#
# 1 0.016086 -0.005615 -0.003773 0.001583 0.000000 0.000000
# 2 -0.005615 0.016086 -0.003773 -0.001583 0.000000 0.000000
# 3 -0.003773 -0.003773 0.013047 0.000000 0.000000 0.000000
# 4 0.001583 -0.001583 0.000000 0.039589 0.000000 0.000000
# 5 0.000000 0.000000 0.000000 0.000000 0.039589 0.003165
# 6 0.000000 0.000000 0.000000 0.000000 0.003165 0.043401
#
#
# Mechanical properties :
#
#
# Convention : Reuss Voigt Hill
#
# Bulk Modulus (GPa) = 52.92190 53.07792 52.99991
# Shear Modulus (GPa) = 24.94777 25.25806 25.10291
#
# Velocity S-wave (km/s) = 3.70295 3.72590 3.71444
# Velocity P-wave (km/s) = 6.88255 6.90526 6.89391
#
# Compressibility (1/GPa) = 0.01889577
#
# Stress axis : x y z
#
# Youngs Moduli (GPa) = 62.16611 62.16611 76.64654
#
# Poissons Ratio (x) = 0.34904 0.28922
# Poissons Ratio (y) = 0.34904 0.28922
# Poissons Ratio (z) = 0.23458 0.23458
#
# Static dielectric constant tensor:
#      x y z
#    x 3.244150 0.000000 0.000000 
#    y 0.000000 3.244150 0.000000 
#    z 0.000000 0.000000 3.414190 
# 
# 
# High freq. dielectric constant tensor:
#      x y z
#    x 1.692530 0.000000 0.000000 
#    y 0.000000 1.692530 0.000000 
#    z 0.000000 0.000000 1.707670 
# 
# From -- ./inp_files/7152.got.cif
#   From: 2010.03.12/outbox.cif.g09.slc.cpg/sg166_4_cif.got.tgz:7152.got - 2010.04.02 06:38:31.
