data_PCOD8324298
_publ_section_title
;
Structure prediction by ZEFSAII (Michael W. Deem and Ramdas Pophale) SiO2 
 PCOD8324298
Probable space group: R -3 C 
;
_chemical_formula_sum "Si O2"
_cell_formula_units_Z 102
_cell_length_a 16.142400
_cell_length_b 16.142400
_cell_length_c 25.702856
_cell_angle_alpha 90.000000
_cell_angle_beta 90.000000
_cell_angle_gamma 120.000000
_cell_volume 5800.270186
_symmetry_space_group_name_H-M "R -3 C "
_symmetry_group_IT_number 167
_symmetry_cell_setting 'hexagonal'
loop_
_space_group_symop_operation_xyz
x,y,z
-y,x-y,z
-x+y,-x,z
x-y,-y,1/2-z
-x,-x+y,1/2-z
y,x,1/2-z
-x,-y,-z
y,-x+y,-z
x-y,x,-z
-x+y,y,1/2+z
x,x-y,1/2+z
-y,-x,1/2+z
2/3+x,1/3+y,1/3+z
2/3-y,1/3+x-y,1/3+z
2/3-x+y,1/3-x,1/3+z
2/3+x-y,1/3-y,5/6-z
2/3-x,1/3-x+y,5/6-z
2/3+y,1/3+x,5/6-z
2/3-x,1/3-y,1/3-z
2/3+y,1/3-x+y,1/3-z
2/3+x-y,1/3+x,1/3-z
2/3-x+y,1/3+y,5/6+z
2/3+x,1/3+x-y,5/6+z
2/3-y,1/3-x,5/6+z
1/3+x,2/3+y,2/3+z
1/3-y,2/3+x-y,2/3+z
1/3-x+y,2/3-x,2/3+z
1/3+x-y,2/3-y,1/6-z
1/3-x,2/3-x+y,1/6-z
1/3+y,2/3+x,1/6-z
1/3-x,2/3-y,2/3-z
1/3+y,2/3-x+y,2/3-z
1/3+x-y,2/3+x,2/3-z
1/3-x+y,2/3+y,1/6+z
1/3+x,2/3+x-y,1/6+z
1/3-y,2/3-x,1/6+z
loop_
_atom_site_type_symbol
_atom_site_label
_atom_site_fract_x
_atom_site_fract_y
_atom_site_fract_z
Si Si1 0.504345 0.164143 0.640683
Si Si2 0.655589 0.483617 0.960319
Si Si3 0.656819 0.666667 0.916667
Si Si4 0.333334 0.666667 0.727241
O O1 0.543336 0.210003 0.583334
O O2 0.586222 0.157333 0.671312
O O3 0.467254 0.227520 0.670853
O O4 0.415210 0.056050 0.632776
O O5 0.668376 0.578373 0.933882
O O6 0.646668 0.415653 0.913153
O O7 0.333335 0.666668 0.666667
#
# Coordination Sequence:
#
# PCOD8324298 Si02
#       4
#    36  36  18  12
#     4   9  20  35  60  81 110 151 191 235 281 341
#     4  10  19  38  56  83 113 147 196 228 283 342
#     4  10  22  32  56  84 118 138 178 242 292 318
#     4   9  21  36  58  74 106 156 192 219 265 356
#
# _framework density 17.585387999999998
#
# number of rings (size 3 to 8) (size 9 to 14) (size 15 to 20)
#    1.059    1.412    0.000    2.824    0.000    2.824 
#    0.000    3.529    0.000    0.000    0.000    0.000 
#    0.000    0.000    0.000    0.000    0.000    0.000 
#
# Total GULP energy -421290.604389 kJ/mol
# GULP energy per Si atom -12390.900129 kJ/mol
# Density = 1.754536 g / cm^3
# Si number density = 17.585388 Si / 1000 Ang^3
#
#
#
# Elastic Constant Matrix: (Units=GPa)
#
#
# Indices 1 2 3 4 5 6 
#
# 1 111.7873 54.1815 51.9304 -4.0068 -0.0002 0.0000
# 2 54.1815 111.7860 51.9303 4.0058 0.0002 0.0000
# 3 51.9304 51.9303 124.8759 -0.0003 0.0000 0.0000
# 4 -4.0068 4.0058 -0.0003 29.3889 0.0000 0.0002
# 5 -0.0002 0.0002 0.0000 0.0000 29.3889 -4.0063
# 6 0.0000 0.0000 0.0000 0.0002 -4.0063 28.8024
#
#
#
# Elastic Compliance Matrix: (Units=1/GPa)
#
#
# Indices 1 2 3 4 5 6 
#
# 1 0.012920 -0.004775 -0.003387 0.002412 0.000000 0.000000
# 2 -0.004775 0.012920 -0.003387 -0.002412 0.000000 0.000000
# 3 -0.003387 -0.003387 0.010825 0.000000 0.000000 0.000000
# 4 0.002412 -0.002412 0.000000 0.034684 0.000000 0.000000
# 5 0.000000 0.000000 0.000000 0.000000 0.034684 0.004824
# 6 0.000000 0.000000 0.000000 0.000000 0.004824 0.035390
#
#
# Mechanical properties :
#
#
# Convention : Reuss Voigt Hill
#
# Bulk Modulus (GPa) = 73.71158 73.83708 73.77433
# Shear Modulus (GPa) = 29.57806 30.20984 29.89395
#
# Velocity S-wave (km/s) = 4.10563 4.14925 4.12750
# Velocity P-wave (km/s) = 8.03009 8.06436 8.04724
#
# Compressibility (1/GPa) = 0.01356639
#
# Stress axis : x y z
#
# Youngs Moduli (GPa) = 77.40009 77.39921 92.37851
#
# Poissons Ratio (x) = 0.36959 0.31289
# Poissons Ratio (y) = 0.36959 0.31290
# Poissons Ratio (z) = 0.26216 0.26216
#
# Static dielectric constant tensor:
#      x y z
#    x 3.223120 0.000000 0.000000 
#    y 0.000000 3.223130 0.000000 
#    z 0.000000 0.000000 3.207820 
# 
# 
# High freq. dielectric constant tensor:
#      x y z
#    x 1.677070 0.000000 0.000000 
#    y 0.000000 1.677070 0.000000 
#    z 0.000000 0.000000 1.678400 
# 
# From -- ./inp_files/6910.got.cif
#   From: 2010.03.12/outbox.cif.g09.slc.cpg/sg167_4_cif.got.tgz:6910.got - 2010.04.02 06:42:56.
