data_PCOD8324848
_publ_section_title
;
Structure prediction by ZEFSAII (Michael W. Deem and Ramdas Pophale) SiO2 
 PCOD8324848
Probable space group: P 63
;
_chemical_formula_sum "Si O2"
_cell_formula_units_Z 36
_cell_length_a 8.517574
_cell_length_b 8.517574
_cell_length_c 25.887021
_cell_angle_alpha 90.000000
_cell_angle_beta 90.000000
_cell_angle_gamma 120.000000
_cell_volume 1626.464312
_symmetry_space_group_name_H-M "P 63"
_symmetry_group_IT_number 173
_symmetry_cell_setting 'hexagonal'
loop_
_space_group_symop_operation_xyz
x,y,z
x-y,x,1/2+z
-y,x-y,z
-x,-y,1/2+z
-x+y,-x,z
y,-x+y,1/2+z
loop_
_atom_site_type_symbol
_atom_site_label
_atom_site_fract_x
_atom_site_fract_y
_atom_site_fract_z
Si Si1 0.352322 0.338841 0.012440
Si Si2 0.657092 0.646529 0.730144
Si Si3 0.669493 0.971142 0.767817
Si Si4 0.490704 0.116712 0.615957
Si Si5 0.774167 0.208031 0.369304
Si Si6 0.974369 0.668670 0.473201
O O1 0.410427 0.373045 0.073100
O O2 0.378314 0.184574 0.985231
O O3 0.467302 0.523235 0.979522
O O4 0.144616 0.291757 0.013463
O O5 0.690990 0.849421 0.723596
O O6 0.481016 0.527675 0.765864
O O7 0.613245 0.565912 0.673408
O O8 0.821615 0.641397 0.759043
O O9 0.692800 0.873955 0.819636
O O10 0.702731 0.175620 0.608795
O O11 0.872406 0.428490 0.370047
O O12 0.796491 0.101552 0.417941
#
# Coordination Sequence:
#
# PCOD8324848 Si02
#       6
#     6   6   6   6   6   6
#     4  12  24  43  73 101 148 187 242 299 364 432
#     4  12  24  43  73 105 149 191 245 299 363 438
#     4  12  24  45  70 112 146 192 242 307 363 443
#     4  10  20  42  73 102 141 198 238 294 370 432
#     4  10  20  44  73  95 136 189 231 291 378 421
#     4  12  24  45  70 109 140 193 240 306 362 442
#
# _framework density 22.133899
#
# number of rings (size 3 to 8) (size 9 to 14) (size 15 to 20)
#    0.667    0.000    6.667    2.000    0.000    4.000 
#    0.000    0.000    0.000    0.000    0.000    0.000 
#    0.000    0.000    0.000    0.000    0.000    0.000 
#
# Total GULP energy -445982.899665 kJ/mol
# GULP energy per Si atom -12388.413880 kJ/mol
# Density = 2.208352 g / cm^3
# Si number density = 22.133899 Si / 1000 Ang^3
#
#
#
# Elastic Constant Matrix: (Units=GPa)
#
#
# Indices 1 2 3 4 5 6 
#
# 1 89.4729 18.4361 37.8392 0.0000 0.0000 0.0000
# 2 18.4361 89.4729 37.8392 0.0000 0.0000 0.0000
# 3 37.8392 37.8392 159.0693 0.0000 0.0000 0.0000
# 4 0.0000 0.0000 0.0000 35.6702 0.0000 0.0000
# 5 0.0000 0.0000 0.0000 0.0000 35.6702 0.0000
# 6 0.0000 0.0000 0.0000 0.0000 0.0000 35.5184
#
#
#
# Elastic Compliance Matrix: (Units=1/GPa)
#
#
# Indices 1 2 3 4 5 6 
#
# 1 0.012600 -0.001477 -0.002646 0.000000 0.000000 0.000000
# 2 -0.001477 0.012600 -0.002646 0.000000 0.000000 0.000000
# 3 -0.002646 -0.002646 0.007545 0.000000 0.000000 0.000000
# 4 0.000000 0.000000 0.000000 0.028035 0.000000 0.000000
# 5 0.000000 0.000000 0.000000 0.000000 0.028035 0.000000
# 6 0.000000 0.000000 0.000000 0.000000 0.000000 0.028154
#
#
# Mechanical properties :
#
#
# Convention : Reuss Voigt Hill
#
# Bulk Modulus (GPa) = 52.06362 58.47157 55.26760
# Shear Modulus (GPa) = 36.52057 37.63181 37.07619
#
# Velocity S-wave (km/s) = 4.06641 4.12781 4.09722
# Velocity P-wave (km/s) = 6.75431 7.01377 6.88526
#
# Compressibility (1/GPa) = 0.01920727
#
# Stress axis : x y z
#
# Youngs Moduli (GPa) = 79.36553 79.36553 132.53197
#
# Poissons Ratio (x) = 0.11725 0.35066
# Poissons Ratio (y) = 0.11725 0.35066
# Poissons Ratio (z) = 0.20999 0.20999
#
# Static dielectric constant tensor:
#      x y z
#    x 3.790940 0.000000 0.000000 
#    y 0.000000 3.790940 0.000000 
#    z 0.000000 0.000000 3.892630 
# 
# 
# High freq. dielectric constant tensor:
#      x y z
#    x 1.856630 0.000000 0.000000 
#    y 0.000000 1.856630 0.000000 
#    z 0.000000 0.000000 1.876500 
# 
# From -- ./inp_files/1479.got.cif
#   From: 2010.03.12/outbox.cif.g09.slc.cpg/sg173_cif.got.tgz:1479.got - 2010.04.02 06:54:12.
