data_PCOD8324504
_publ_section_title
;
Structure prediction by ZEFSAII (Michael W. Deem and Ramdas Pophale) SiO2 
 PCOD8324504
Probable space group: P 61
;
_chemical_formula_sum "Si O2"
_cell_formula_units_Z 36
_cell_length_a 11.584504
_cell_length_b 11.584504
_cell_length_c 14.421472
_cell_angle_alpha 90.000000
_cell_angle_beta 90.000000
_cell_angle_gamma 120.000000
_cell_volume 1676.081415
_symmetry_space_group_name_H-M "P 61"
_symmetry_group_IT_number 169
_symmetry_cell_setting 'hexagonal'
loop_
_space_group_symop_operation_xyz
x,y,z
x-y,x,1/6+z
-y,x-y,1/3+z
-x,-y,1/2+z
-x+y,-x,2/3+z
y,-x+y,5/6+z
loop_
_atom_site_type_symbol
_atom_site_label
_atom_site_fract_x
_atom_site_fract_y
_atom_site_fract_z
Si Si1 0.954926 0.132841 0.724240
Si Si2 0.409860 0.229623 0.619208
Si Si3 0.962538 0.430308 0.051933
Si Si4 0.227714 0.465864 0.586816
Si Si5 0.670793 0.153420 0.380763
Si Si6 0.935340 0.419812 0.360734
O O1 0.006745 0.105112 0.627342
O O2 0.067087 0.256925 0.781220
O O3 0.840658 0.168194 0.696876
O O4 0.425661 0.148687 0.702842
O O5 0.447145 0.180640 0.524339
O O6 0.508625 0.387080 0.628370
O O7 0.031224 0.505488 0.958038
O O8 0.891490 0.503502 0.098221
O O9 0.066938 0.425100 0.121578
O O10 0.356684 0.583279 0.537821
O O11 0.826185 0.265151 0.379830
O O12 0.634724 0.063075 0.474031
#
# Coordination Sequence:
#
# PCOD8324504 Si02
#       6
#     6   6   6   6   6   6
#     4  10  20  40  66  94 130 176 230 272 330 410
#     4  11  21  43  70  98 132 171 236 286 343 407
#     4  12  26  40  74 100 138 182 222 300 358 402
#     4  11  21  43  70  98 132 171 236 286 343 407
#     4  12  26  44  68 107 143 179 229 291 354 418
#     4  12  26  44  68 107 143 179 229 291 354 418
#
# _framework density 21.478672
#
# number of rings (size 3 to 8) (size 9 to 14) (size 15 to 20)
#    0.000    0.667    6.667    2.000    7.000    0.000 
#    0.000    1.667    0.000    0.000    0.000    0.000 
#    0.000    0.000    0.000    0.000    0.000    0.000 
#
# Total GULP energy -446463.870129 kJ/mol
# GULP energy per Si atom -12401.774170 kJ/mol
# Density = 2.142979 g / cm^3
# Si number density = 21.478672 Si / 1000 Ang^3
#
#
#
# Elastic Constant Matrix: (Units=GPa)
#
#
# Indices 1 2 3 4 5 6 
#
# 1 69.2226 6.2086 0.5123 0.0000 0.0000 0.0000
# 2 6.2086 69.2226 0.5123 0.0000 0.0000 0.0000
# 3 0.5123 0.5123 47.0636 0.0000 0.0000 0.0000
# 4 0.0000 0.0000 0.0000 34.0375 0.0000 0.0000
# 5 0.0000 0.0000 0.0000 0.0000 34.0375 0.0000
# 6 0.0000 0.0000 0.0000 0.0000 0.0000 31.5070
#
#
#
# Elastic Compliance Matrix: (Units=1/GPa)
#
#
# Indices 1 2 3 4 5 6 
#
# 1 0.014564 -0.001305 -0.000144 0.000000 0.000000 0.000000
# 2 -0.001305 0.014564 -0.000144 0.000000 0.000000 0.000000
# 3 -0.000144 -0.000144 0.021251 0.000000 0.000000 0.000000
# 4 0.000000 0.000000 0.000000 0.029379 0.000000 0.000000
# 5 0.000000 0.000000 0.000000 0.000000 0.029379 0.000000
# 6 0.000000 0.000000 0.000000 0.000000 0.000000 0.031739
#
#
# Mechanical properties :
#
#
# Convention : Reuss Voigt Hill
#
# Bulk Modulus (GPa) = 21.19013 22.21949 21.70481
# Shear Modulus (GPa) = 31.28997 31.80143 31.54570
#
# Velocity S-wave (km/s) = 3.82094 3.85204 3.83652
# Velocity P-wave (km/s) = 5.41785 5.49105 5.45457
#
# Compressibility (1/GPa) = 0.04719179
#
# Stress axis : x y z
#
# Youngs Moduli (GPa) = 68.66113 68.66113 47.05660
#
# Poissons Ratio (x) = 0.08962 0.00679
# Poissons Ratio (y) = 0.08962 0.00679
# Poissons Ratio (z) = 0.00991 0.00991
#
# Static dielectric constant tensor:
#      x y z
#    x 3.866650 0.000000 0.000000 
#    y 0.000000 3.866650 0.000000 
#    z 0.000000 0.000000 3.845260 
# 
# 
# High freq. dielectric constant tensor:
#      x y z
#    x 1.840240 0.000000 0.000000 
#    y 0.000000 1.840240 0.000000 
#    z 0.000000 0.000000 1.842800 
# 
# From -- ./inp_files/1154.got.cif
#   From: 2010.03.12/outbox.cif.g09.slc.cpg/sg169_cif.got.tgz:1154.got - 2010.04.02 06:46:06.
