data_PCOD8324495
_publ_section_title
;
Structure prediction by ZEFSAII (Michael W. Deem and Ramdas Pophale) SiO2 
 PCOD8324495
Probable space group: P 61
;
_chemical_formula_sum "Si O2"
_cell_formula_units_Z 48
_cell_length_a 17.159318
_cell_length_b 17.159318
_cell_length_c 9.183544
_cell_angle_alpha 90.000000
_cell_angle_beta 90.000000
_cell_angle_gamma 120.000000
_cell_volume 2341.752477
_symmetry_space_group_name_H-M "P 61"
_symmetry_group_IT_number 169
_symmetry_cell_setting 'hexagonal'
loop_
_space_group_symop_operation_xyz
x,y,z
x-y,x,1/6+z
-y,x-y,1/3+z
-x,-y,1/2+z
-x+y,-x,2/3+z
y,-x+y,5/6+z
loop_
_atom_site_type_symbol
_atom_site_label
_atom_site_fract_x
_atom_site_fract_y
_atom_site_fract_z
Si Si1 0.374839 0.476490 0.260700
Si Si2 0.880666 0.512012 0.602486
Si Si3 0.462465 0.093088 0.773861
Si Si4 0.360192 0.194208 0.762939
Si Si5 0.913208 0.218493 0.536681
Si Si6 0.910604 0.097540 0.277576
Si Si7 0.651154 0.764975 0.931866
Si Si8 0.111946 0.496423 0.429993
O O1 0.415295 0.563294 0.364841
O O2 0.271495 0.406326 0.304148
O O3 0.432694 0.427205 0.265506
O O4 0.379354 0.509909 0.096010
O O5 0.834939 0.559045 0.515550
O O6 0.847270 0.494843 0.769187
O O7 0.986798 0.573692 0.594515
O O8 0.382533 0.114289 0.752631
O O9 0.542207 0.137898 0.654316
O O10 0.265285 0.163784 0.841981
O O11 0.356130 0.218027 0.598387
O O12 0.932094 0.165761 0.410236
O O13 0.854428 0.152858 0.666722
O O14 0.006992 0.291318 0.602559
O O15 0.998291 0.124699 0.178220
O O16 0.550926 0.702144 0.868178
#
# Coordination Sequence:
#
# PCOD8324495 Si02
#       8
#     6   6   6   6   6   6   6   6
#     4   9  19  36  64  92 119 160 206 265 324 392
#     4  10  21  38  65  94 127 166 215 267 333 399
#     4  10  20  37  63  93 125 161 216 267 328 391
#     4  12  25  39  68  98 134 176 228 283 337 420
#     4  11  22  42  68  96 129 174 225 283 347 414
#     4  12  26  49  69  97 137 189 243 299 361 419
#     4  11  25  39  64  96 133 171 226 282 342 409
#     4   9  20  38  61  90 124 161 207 262 322 398
#
# _framework density 20.497468999999999
#
# number of rings (size 3 to 8) (size 9 to 14) (size 15 to 20)
#    0.000    1.500    2.500    2.250    7.000    2.000 
#    2.250    0.000    5.500    0.000    0.000    0.000 
#    0.000    0.000    0.000    0.000    0.000    0.000 
#
# Total GULP energy -595126.365689 kJ/mol
# GULP energy per Si atom -12398.465952 kJ/mol
# Density = 2.045082 g / cm^3
# Si number density = 20.497469 Si / 1000 Ang^3
#
#
#
# Elastic Constant Matrix: (Units=GPa)
#
#
# Indices 1 2 3 4 5 6 
#
# 1 80.3747 21.9398 37.7764 0.0000 0.0000 0.0000
# 2 21.9398 80.3747 37.7764 0.0000 0.0000 0.0000
# 3 37.7764 37.7764 157.5768 0.0000 0.0000 0.0000
# 4 0.0000 0.0000 0.0000 34.6880 0.0000 0.0000
# 5 0.0000 0.0000 0.0000 0.0000 34.6880 0.0000
# 6 0.0000 0.0000 0.0000 0.0000 0.0000 29.2174
#
#
#
# Elastic Compliance Matrix: (Units=1/GPa)
#
#
# Indices 1 2 3 4 5 6 
#
# 1 0.014495 -0.002618 -0.002847 0.000000 0.000000 0.000000
# 2 -0.002618 0.014495 -0.002847 0.000000 0.000000 0.000000
# 3 -0.002847 -0.002847 0.007711 0.000000 0.000000 0.000000
# 4 0.000000 0.000000 0.000000 0.028828 0.000000 0.000000
# 5 0.000000 0.000000 0.000000 0.000000 0.028828 0.000000
# 6 0.000000 0.000000 0.000000 0.000000 0.000000 0.034226
#
#
# Mechanical properties :
#
#
# Convention : Reuss Voigt Hill
#
# Bulk Modulus (GPa) = 49.81285 57.03461 53.42373
# Shear Modulus (GPa) = 32.91627 34.44091 33.67859
#
# Velocity S-wave (km/s) = 4.01168 4.10353 4.05787
# Velocity P-wave (km/s) = 6.76851 7.09490 6.93363
#
# Compressibility (1/GPa) = 0.02007514
#
# Stress axis : x y z
#
# Youngs Moduli (GPa) = 68.99102 68.99102 129.68125
#
# Poissons Ratio (x) = 0.18065 0.36922
# Poissons Ratio (y) = 0.18065 0.36922
# Poissons Ratio (z) = 0.19643 0.19643
#
# Static dielectric constant tensor:
#      x y z
#    x 3.686900 0.000000 0.000000 
#    y 0.000000 3.686900 0.000000 
#    z 0.000000 0.000000 3.953170 
# 
# 
# High freq. dielectric constant tensor:
#      x y z
#    x 1.788950 0.000000 0.000000 
#    y 0.000000 1.788950 0.000000 
#    z 0.000000 0.000000 1.818020 
# 
# From -- ./inp_files/765.got.cif
#   From: 2010.03.12/outbox.cif.g09.slc.cpg/sg169_cif.got.tgz:765.got - 2010.04.02 06:46:06.
