data_PCOD8324328
_publ_section_title
;
Structure prediction by ZEFSAII (Michael W. Deem and Ramdas Pophale) SiO2 
 PCOD8324328
Probable space group: R -3 C 
;
_chemical_formula_sum "Si O2"
_cell_formula_units_Z 120
_cell_length_a 23.206263
_cell_length_b 23.206263
_cell_length_c 12.966882
_cell_angle_alpha 90.000000
_cell_angle_beta 90.000000
_cell_angle_gamma 120.000000
_cell_volume 6047.510209
_symmetry_space_group_name_H-M "R -3 C "
_symmetry_group_IT_number 167
_symmetry_cell_setting 'hexagonal'
loop_
_space_group_symop_operation_xyz
x,y,z
-y,x-y,z
-x+y,-x,z
x-y,-y,1/2-z
-x,-x+y,1/2-z
y,x,1/2-z
-x,-y,-z
y,-x+y,-z
x-y,x,-z
-x+y,y,1/2+z
x,x-y,1/2+z
-y,-x,1/2+z
2/3+x,1/3+y,1/3+z
2/3-y,1/3+x-y,1/3+z
2/3-x+y,1/3-x,1/3+z
2/3+x-y,1/3-y,5/6-z
2/3-x,1/3-x+y,5/6-z
2/3+y,1/3+x,5/6-z
2/3-x,1/3-y,1/3-z
2/3+y,1/3-x+y,1/3-z
2/3+x-y,1/3+x,1/3-z
2/3-x+y,1/3+y,5/6+z
2/3+x,1/3+x-y,5/6+z
2/3-y,1/3-x,5/6+z
1/3+x,2/3+y,2/3+z
1/3-y,2/3+x-y,2/3+z
1/3-x+y,2/3-x,2/3+z
1/3+x-y,2/3-y,1/6-z
1/3-x,2/3-x+y,1/6-z
1/3+y,2/3+x,1/6-z
1/3-x,2/3-y,2/3-z
1/3+y,2/3-x+y,2/3-z
1/3+x-y,2/3+x,2/3-z
1/3-x+y,2/3+y,1/6+z
1/3+x,2/3+x-y,1/6+z
1/3-y,2/3-x,1/6+z
loop_
_atom_site_type_symbol
_atom_site_label
_atom_site_fract_x
_atom_site_fract_y
_atom_site_fract_z
Si Si1 0.285804 0.257945 0.095667
Si Si2 0.547252 0.547252 0.750000
Si Si3 0.505215 0.581341 0.377542
Si Si4 0.000000 0.108623 0.750000
Si Si5 0.000000 0.000000 0.618042
O O1 0.346769 0.333334 0.083334
O O2 0.216394 0.255829 0.115954
O O3 0.297232 0.219803 0.192157
O O4 0.280995 0.224182 0.984845
O O5 0.532897 0.492785 0.663326
O O6 0.450657 0.601880 0.409846
O O7 0.007062 0.069947 0.847477
O O8 0.000000 0.000000 0.500000
#
# Coordination Sequence:
#
# PCOD8324328 Si02
#       5
#    36  18  36  18  12
#     4  10  21  40  61  86 127 163 199 255 308 363
#     4  12  22  37  66  92 117 168 204 244 312 376
#     4  10  22  40  59  89 128 154 208 255 302 367
#     4   8  20  39  56  88 123 152 196 268 284 356
#     4  10  20  40  67  80 118 166 206 244 319 347
#
# _framework density 19.842877000000001
#
# number of rings (size 3 to 8) (size 9 to 14) (size 15 to 20)
#    0.000    2.400    1.500    2.700    0.000    4.800 
#    5.400    3.000    0.000    0.000    0.000    0.000 
#    0.000    0.000    0.000    0.000    0.000    0.000 
#
# Total GULP energy -495692.672986 kJ/mol
# GULP energy per Si atom -12392.316825 kJ/mol
# Density = 1.979771 g / cm^3
# Si number density = 19.842877 Si / 1000 Ang^3
#
#
#
# Elastic Constant Matrix: (Units=GPa)
#
#
# Indices 1 2 3 4 5 6 
#
# 1 91.1516 44.9480 60.2207 3.0144 -0.0003 0.0000
# 2 44.9480 91.1516 60.2207 -3.0144 0.0004 0.0000
# 3 60.2207 60.2207 154.8636 0.0000 0.0000 0.0000
# 4 3.0144 -3.0144 0.0000 36.4850 0.0000 0.0004
# 5 -0.0003 0.0004 0.0000 0.0000 36.4850 3.0144
# 6 0.0000 0.0000 0.0000 0.0004 3.0144 23.1018
#
#
#
# Elastic Compliance Matrix: (Units=1/GPa)
#
#
# Indices 1 2 3 4 5 6 
#
# 1 0.016541 -0.005338 -0.004356 -0.001808 0.000000 0.000000
# 2 -0.005338 0.016541 -0.004356 0.001808 0.000000 0.000000
# 3 -0.004356 -0.004356 0.009845 0.000000 0.000000 0.000000
# 4 -0.001808 0.001808 0.000000 0.027707 0.000000 0.000000
# 5 0.000000 0.000000 0.000000 0.000000 0.027707 -0.003615
# 6 0.000000 0.000000 0.000000 0.000000 -0.003615 0.043758
#
#
# Mechanical properties :
#
#
# Convention : Reuss Voigt Hill
#
# Bulk Modulus (GPa) = 67.45162 74.21617 70.83389
# Shear Modulus (GPa) = 28.54800 30.66619 29.60710
#
# Velocity S-wave (km/s) = 3.79714 3.93549 3.86693
# Velocity P-wave (km/s) = 7.30007 7.62456 7.46408
#
# Compressibility (1/GPa) = 0.01482544
#
# Stress axis : x y z
#
# Youngs Moduli (GPa) = 60.45605 60.45606 101.57127
#
# Poissons Ratio (x) = 0.32273 0.44248
# Poissons Ratio (y) = 0.32273 0.44248
# Poissons Ratio (z) = 0.26337 0.26336
#
# Static dielectric constant tensor:
#      x y z
#    x 3.579140 0.000000 0.000000 
#    y 0.000000 3.579140 0.000000 
#    z 0.000000 0.000000 3.643100 
# 
# 
# High freq. dielectric constant tensor:
#      x y z
#    x 1.765450 0.000000 0.000000 
#    y 0.000000 1.765450 0.000000 
#    z 0.000000 0.000000 1.779760 
# 
# From -- ./inp_files/1440.got.cif
#   From: 2010.03.12/outbox.cif.g09.slc.cpg/sg167_1_cif.got.tgz:1440.got - 2010.04.02 06:42:56.
