data_PCOD8324584
_publ_section_title
;
Structure prediction by ZEFSAII (Michael W. Deem and Ramdas Pophale) SiO2 
 PCOD8324584
Probable space group: P 61
;
_chemical_formula_sum "Si O2"
_cell_formula_units_Z 48
_cell_length_a 14.233684
_cell_length_b 14.233684
_cell_length_c 12.280454
_cell_angle_alpha 90.000000
_cell_angle_beta 90.000000
_cell_angle_gamma 120.000000
_cell_volume 2154.664688
_symmetry_space_group_name_H-M "P 61"
_symmetry_group_IT_number 169
_symmetry_cell_setting 'hexagonal'
loop_
_space_group_symop_operation_xyz
x,y,z
x-y,x,1/6+z
-y,x-y,1/3+z
-x,-y,1/2+z
-x+y,-x,2/3+z
y,-x+y,5/6+z
loop_
_atom_site_type_symbol
_atom_site_label
_atom_site_fract_x
_atom_site_fract_y
_atom_site_fract_z
Si Si1 0.972044 0.829665 0.936300
Si Si2 0.786261 0.450079 0.706496
Si Si3 0.962420 0.251559 0.725946
Si Si4 0.655966 0.530685 0.464468
Si Si5 0.205205 0.378512 0.761264
Si Si6 0.383239 0.681665 0.050408
Si Si7 0.534103 0.961668 0.739466
Si Si8 0.609463 0.905006 0.531307
O O1 0.934547 0.871767 0.833277
O O2 0.023578 0.758229 0.895929
O O3 0.871599 0.759963 0.017521
O O4 0.674956 0.344239 0.666791
O O5 0.780331 0.408772 0.830650
O O6 0.882621 0.459267 0.634282
O O7 0.789964 0.565643 0.704073
O O8 0.912706 0.272615 0.833925
O O9 0.967598 0.329805 0.630056
O O10 0.082817 0.278471 0.758477
O O11 0.742737 0.616630 0.379374
O O12 0.683033 0.436680 0.492925
O O13 0.538864 0.464463 0.407010
O O14 0.656728 0.593652 0.575367
O O15 0.208907 0.491250 0.735305
O O16 0.535151 0.928158 0.614296
#
# Coordination Sequence:
#
# PCOD8324584 Si02
#       8
#     6   6   6   6   6   6   6   6
#     4  12  27  55  79 109 147 198 272 337 390 461
#     4  11  23  39  68 106 146 195 237 296 375 457
#     4  12  25  46  78 108 136 196 266 314 375 451
#     4  11  28  42  68 108 151 197 240 311 389 452
#     4  12  25  45  73 103 150 193 250 318 371 457
#     4  11  21  40  65 102 146 193 237 296 374 455
#     4  12  24  42  75 108 146 197 254 302 374 467
#     4  11  27  47  72 106 154 195 248 310 380 468
#
# _framework density 22.277249000000001
#
# number of rings (size 3 to 8) (size 9 to 14) (size 15 to 20)
#    0.000    0.500    7.500    0.000    3.500    2.000 
#    2.250    0.000    0.000    0.000    0.000    0.000 
#    0.000    0.000    0.000    0.000    0.000    0.000 
#
# Total GULP energy -595070.676358 kJ/mol
# GULP energy per Si atom -12397.305757 kJ/mol
# Density = 2.222654 g / cm^3
# Si number density = 22.277249 Si / 1000 Ang^3
#
#
#
# Elastic Constant Matrix: (Units=GPa)
#
#
# Indices 1 2 3 4 5 6 
#
# 1 89.9613 27.4255 38.5226 0.0000 0.0000 0.0000
# 2 27.4255 89.9613 38.5226 0.0000 0.0000 0.0000
# 3 38.5226 38.5226 138.5283 0.0000 0.0000 0.0000
# 4 0.0000 0.0000 0.0000 36.8963 0.0000 0.0000
# 5 0.0000 0.0000 0.0000 0.0000 36.8963 0.0000
# 6 0.0000 0.0000 0.0000 0.0000 0.0000 31.2679
#
#
#
# Elastic Compliance Matrix: (Units=1/GPa)
#
#
# Indices 1 2 3 4 5 6 
#
# 1 0.013206 -0.002785 -0.002898 0.000000 0.000000 0.000000
# 2 -0.002785 0.013206 -0.002898 0.000000 0.000000 0.000000
# 3 -0.002898 -0.002898 0.008830 0.000000 0.000000 0.000000
# 4 0.000000 0.000000 0.000000 0.027103 0.000000 0.000000
# 5 0.000000 0.000000 0.000000 0.000000 0.027103 0.000000
# 6 0.000000 0.000000 0.000000 0.000000 0.000000 0.031982
#
#
# Mechanical properties :
#
#
# Convention : Reuss Voigt Hill
#
# Bulk Modulus (GPa) = 55.30787 58.59914 56.95351
# Shear Modulus (GPa) = 34.57380 35.27744 34.92562
#
# Velocity S-wave (km/s) = 3.94379 3.98372 3.96380
# Velocity P-wave (km/s) = 6.75418 6.89359 6.82424
#
# Compressibility (1/GPa) = 0.01808061
#
# Stress axis : x y z
#
# Youngs Moduli (GPa) = 75.72408 75.72408 113.24460
#
# Poissons Ratio (x) = 0.21089 0.32817
# Poissons Ratio (y) = 0.21089 0.32817
# Poissons Ratio (z) = 0.21944 0.21944
#
# Static dielectric constant tensor:
#      x y z
#    x 3.876910 0.000000 0.000000 
#    y 0.000000 3.876910 0.000000 
#    z 0.000000 0.000000 4.349080 
# 
# 
# High freq. dielectric constant tensor:
#      x y z
#    x 1.869260 0.000000 0.000000 
#    y 0.000000 1.869260 0.000000 
#    z 0.000000 0.000000 1.895490 
# 
# From -- ./inp_files/1055.got.cif
#   From: 2010.03.12/outbox.cif.g09.slc.cpg/sg169_cif.got.tgz:1055.got - 2010.04.02 06:46:06.
