data_PCOD8324706
_publ_section_title
;
Structure prediction by ZEFSAII (Michael W. Deem and Ramdas Pophale) SiO2 
 PCOD8324706
Probable space group: P 65
;
_chemical_formula_sum "Si O2"
_cell_formula_units_Z 48
_cell_length_a 14.318844
_cell_length_b 14.318844
_cell_length_c 14.514244
_cell_angle_alpha 90.000000
_cell_angle_beta 90.000000
_cell_angle_gamma 120.000000
_cell_volume 2577.157535
_symmetry_space_group_name_H-M "P 65"
_symmetry_group_IT_number 170
_symmetry_cell_setting 'hexagonal'
loop_
_space_group_symop_operation_xyz
x,y,z
x-y,x,5/6+z
-y,x-y,2/3+z
-x,-y,1/2+z
-x+y,-x,1/3+z
y,-x+y,1/6+z
loop_
_atom_site_type_symbol
_atom_site_label
_atom_site_fract_x
_atom_site_fract_y
_atom_site_fract_z
Si Si1 0.525888 0.848872 0.331850
Si Si2 0.218997 0.713865 0.806997
Si Si3 0.396023 0.283561 0.335194
Si Si4 0.441223 0.927576 0.831516
Si Si5 0.714413 0.219989 0.815437
Si Si6 0.473838 0.322610 0.957627
Si Si7 0.927970 0.441599 0.789724
Si Si8 0.283804 0.395839 0.286404
O O1 0.565165 0.857049 0.225656
O O2 0.395615 0.776996 0.328005
O O3 0.569203 0.784895 0.394900
O O4 0.568070 0.970261 0.370632
O O5 0.334954 0.812850 0.832340
O O6 0.222743 0.604145 0.794869
O O7 0.178494 0.734484 0.712072
O O8 0.444869 0.263017 0.244209
O O9 0.475840 0.391885 0.390426
O O10 0.290803 0.290230 0.309586
O O11 0.354715 0.178174 0.395435
O O12 0.480489 0.962067 0.727232
O O13 0.523717 0.914203 0.896345
O O14 0.708144 0.142986 0.730665
O O15 0.812672 0.335926 0.788699
O O16 0.431165 0.401253 0.918454
#
# Coordination Sequence:
#
# PCOD8324706 Si02
#       8
#     6   6   6   6   6   6   6   6
#     4  11  23  40  56  86 125 166 211 248 309 370
#     4  11  23  35  58  84 119 166 202 251 303 363
#     4  12  24  39  61  89 122 162 209 260 314 369
#     4  12  22  39  57  87 128 163 208 258 301 383
#     4  11  23  35  58  84 119 166 202 251 303 363
#     4  11  23  40  56  86 125 166 211 248 309 370
#     4  12  22  39  57  87 128 163 208 258 301 383
#     4  12  24  39  61  89 122 162 209 260 314 369
#
# _framework density 18.625171999999999
#
# number of rings (size 3 to 8) (size 9 to 14) (size 15 to 20)
#    0.000    0.500    7.500    2.250    3.500    0.000 
#    0.000    0.000    0.000    0.000    0.000    1.750 
#    0.000    0.000    0.000    0.000    0.000    0.000 
#
# Total GULP energy -594869.219968 kJ/mol
# GULP energy per Si atom -12393.108749 kJ/mol
# Density = 1.858278 g / cm^3
# Si number density = 18.625172 Si / 1000 Ang^3
#
#
#
# Elastic Constant Matrix: (Units=GPa)
#
#
# Indices 1 2 3 4 5 6 
#
# 1 73.8920 44.8071 26.9016 0.0000 0.0000 0.0000
# 2 44.8071 73.8920 26.9016 0.0000 0.0000 0.0000
# 3 26.9016 26.9016 118.2277 0.0000 0.0000 0.0000
# 4 0.0000 0.0000 0.0000 19.1019 0.0000 0.0000
# 5 0.0000 0.0000 0.0000 0.0000 19.1019 0.0000
# 6 0.0000 0.0000 0.0000 0.0000 0.0000 14.5424
#
#
#
# Elastic Compliance Matrix: (Units=1/GPa)
#
#
# Indices 1 2 3 4 5 6 
#
# 1 0.021888 -0.012494 -0.002137 0.000000 0.000000 0.000000
# 2 -0.012494 0.021888 -0.002137 0.000000 0.000000 0.000000
# 3 -0.002137 -0.002137 0.009431 0.000000 0.000000 0.000000
# 4 0.000000 0.000000 0.000000 0.052351 0.000000 0.000000
# 5 0.000000 0.000000 0.000000 0.000000 0.052351 0.000000
# 6 0.000000 0.000000 0.000000 0.000000 0.000000 0.068764
#
#
# Mechanical properties :
#
#
# Convention : Reuss Voigt Hill
#
# Bulk Modulus (GPa) = 50.84317 51.47026 51.15672
# Shear Modulus (GPa) = 18.74295 21.70933 20.22614
#
# Velocity S-wave (km/s) = 3.17570 3.41778 3.29896
# Velocity P-wave (km/s) = 6.38781 6.57797 6.48359
#
# Compressibility (1/GPa) = 0.01966832
#
# Stress axis : x y z
#
# Youngs Moduli (GPa) = 45.68746 45.68746 106.03390
#
# Poissons Ratio (x) = 0.57084 0.22664
# Poissons Ratio (y) = 0.57084 0.22664
# Poissons Ratio (z) = 0.09765 0.09765
#
# Static dielectric constant tensor:
#      x y z
#    x 3.747570 0.000000 0.000000 
#    y 0.000000 3.747570 0.000000 
#    z 0.000000 0.000000 3.957260 
# 
# 
# High freq. dielectric constant tensor:
#      x y z
#    x 1.694690 0.000000 0.000000 
#    y 0.000000 1.694690 0.000000 
#    z 0.000000 0.000000 1.760020 
# 
# From -- ./inp_files/1299.got.cif
#   From: 2010.03.12/outbox.cif.g09.slc.cpg/sg170_cif.got.tgz:1299.got - 2010.04.02 06:47:37.
