data_PCOD8324492
_publ_section_title
;
Structure prediction by ZEFSAII (Michael W. Deem and Ramdas Pophale) SiO2 
 PCOD8324492
Probable space group: P 61
;
_chemical_formula_sum "Si O2"
_cell_formula_units_Z 48
_cell_length_a 14.140948
_cell_length_b 14.140948
_cell_length_c 13.447789
_cell_angle_alpha 90.000000
_cell_angle_beta 90.000000
_cell_angle_gamma 120.000000
_cell_volume 2328.834190
_symmetry_space_group_name_H-M "P 61"
_symmetry_group_IT_number 169
_symmetry_cell_setting 'hexagonal'
loop_
_space_group_symop_operation_xyz
x,y,z
x-y,x,1/6+z
-y,x-y,1/3+z
-x,-y,1/2+z
-x+y,-x,2/3+z
y,-x+y,5/6+z
loop_
_atom_site_type_symbol
_atom_site_label
_atom_site_fract_x
_atom_site_fract_y
_atom_site_fract_z
Si Si1 0.596959 0.180528 0.015780
Si Si2 0.098500 0.171818 0.035812
Si Si3 0.569486 0.271313 0.362254
Si Si4 0.573243 0.800013 0.049800
Si Si5 0.117683 0.522747 0.060918
Si Si6 0.117182 0.613410 0.541108
Si Si7 0.416953 0.164356 0.892769
Si Si8 0.100785 0.176019 0.719580
O O1 0.629584 0.301930 0.054411
O O2 0.586014 0.107491 0.109159
O O3 0.682483 0.181324 0.935709
O O4 0.476001 0.121332 0.967446
O O5 0.208250 0.287742 0.052540
O O6 0.039627 0.126514 0.143703
O O7 0.017037 0.188479 0.961709
O O8 0.486712 0.200832 0.448599
O O9 0.544591 0.189716 0.269945
O O10 0.548275 0.370788 0.337080
O O11 0.573350 0.896283 0.114424
O O12 0.698853 0.830022 0.034390
O O13 0.158363 0.440610 0.097519
O O14 0.993590 0.470053 0.097314
O O15 0.189039 0.708958 0.620483
O O16 0.106754 0.123799 0.612116
#
# Coordination Sequence:
#
# PCOD8324492 Si02
#       8
#     6   6   6   6   6   6   6   6
#     4  10  20  36  58  87 128 173 212 253 319 395
#     4  10  21  38  63  96 128 155 216 280 326 376
#     4  10  21  39  55  84 129 170 210 260 328 385
#     4  11  20  35  61  89 128 166 212 273 319 387
#     4  11  22  35  58  86 125 170 212 264 315 391
#     4  11  21  33  58  90 120 167 213 257 319 374
#     4  11  19  36  60  90 127 160 213 258 317 377
#     4  10  22  38  63  96 129 159 220 285 337 381
#
# _framework density 20.611170999999999
#
# number of rings (size 3 to 8) (size 9 to 14) (size 15 to 20)
#    0.000    1.500    3.750    4.500    1.750    2.000 
#    0.000    1.250    0.000   16.500    0.000    0.000 
#    0.000    0.000    0.000    0.000    0.000    0.000 
#
# Total GULP energy -594644.722497 kJ/mol
# GULP energy per Si atom -12388.431719 kJ/mol
# Density = 2.056426 g / cm^3
# Si number density = 20.611171 Si / 1000 Ang^3
#
#
#
# Elastic Constant Matrix: (Units=GPa)
#
#
# Indices 1 2 3 4 5 6 
#
# 1 99.1471 43.1165 34.5524 0.0000 0.0000 0.0000
# 2 43.1165 99.1471 34.5524 0.0000 0.0000 0.0000
# 3 34.5524 34.5524 79.3978 0.0000 0.0000 0.0000
# 4 0.0000 0.0000 0.0000 25.6449 0.0000 0.0000
# 5 0.0000 0.0000 0.0000 0.0000 25.6449 0.0000
# 6 0.0000 0.0000 0.0000 0.0000 0.0000 28.0153
#
#
#
# Elastic Compliance Matrix: (Units=1/GPa)
#
#
# Indices 1 2 3 4 5 6 
#
# 1 0.013380 -0.004467 -0.003879 0.000000 0.000000 0.000000
# 2 -0.004467 0.013380 -0.003879 0.000000 0.000000 0.000000
# 3 -0.003879 -0.003879 0.015971 0.000000 0.000000 0.000000
# 4 0.000000 0.000000 0.000000 0.038994 0.000000 0.000000
# 5 0.000000 0.000000 0.000000 0.000000 0.038994 0.000000
# 6 0.000000 0.000000 0.000000 0.000000 0.000000 0.035695
#
#
# Mechanical properties :
#
#
# Convention : Reuss Voigt Hill
#
# Bulk Modulus (GPa) = 54.69879 55.79271 55.24575
# Shear Modulus (GPa) = 26.74391 26.89239 26.81815
#
# Velocity S-wave (km/s) = 3.60605 3.61605 3.61105
# Velocity P-wave (km/s) = 6.62829 6.67550 6.65194
#
# Compressibility (1/GPa) = 0.01828194
#
# Stress axis : x y z
#
# Youngs Moduli (GPa) = 74.73615 74.73615 62.61387
#
# Poissons Ratio (x) = 0.33385 0.24288
# Poissons Ratio (y) = 0.33385 0.24288
# Poissons Ratio (z) = 0.28990 0.28990
#
# Static dielectric constant tensor:
#      x y z
#    x 3.595140 0.000000 0.000000 
#    y 0.000000 3.595140 0.000000 
#    z 0.000000 0.000000 3.662650 
# 
# 
# High freq. dielectric constant tensor:
#      x y z
#    x 1.790990 0.000000 0.000000 
#    y 0.000000 1.790990 0.000000 
#    z 0.000000 0.000000 1.792200 
# 
# From -- ./inp_files/1048.got.cif
#   From: 2010.03.12/outbox.cif.g09.slc.cpg/sg169_cif.got.tgz:1048.got - 2010.04.02 06:46:06.
