data_PCOD8324430
_publ_section_title
;
Structure prediction by ZEFSAII (Michael W. Deem and Ramdas Pophale) SiO2 
 PCOD8324430
Probable space group: P 6
;
_chemical_formula_sum "Si O2"
_cell_formula_units_Z 34
_cell_length_a 13.630544
_cell_length_b 13.630544
_cell_length_c 11.106505
_cell_angle_alpha 90.000000
_cell_angle_beta 90.000000
_cell_angle_gamma 120.000000
_cell_volume 1787.040628
_symmetry_space_group_name_H-M "P 6"
_symmetry_group_IT_number 168
_symmetry_cell_setting 'hexagonal'
loop_
_space_group_symop_operation_xyz
x,y,z
x-y,x,z
-y,x-y,z
-x,-y,z
-x+y,-x,z
y,-x+y,z
loop_
_atom_site_type_symbol
_atom_site_label
_atom_site_fract_x
_atom_site_fract_y
_atom_site_fract_z
Si Si1 0.941695 0.747934 0.763540
Si Si2 0.465584 0.875100 0.946002
Si Si3 0.609295 0.111179 0.687440
Si Si4 0.666668 0.333335 0.270054
Si Si5 0.666668 0.333335 0.553839
Si Si6 0.755253 0.815727 0.048562
Si Si7 0.523152 0.744315 0.097760
O O1 0.846610 0.779488 0.719937
O O2 0.915052 0.625453 0.714042
O O3 0.940065 0.738965 0.906185
O O4 0.562104 0.851230 0.002246
O O5 0.359927 0.787742 0.023683
O O6 0.500000 0.000000 0.980707
O O7 0.437428 0.853105 0.804860
O O8 0.654343 0.214849 0.595783
O O9 0.500000 0.000000 0.632481
O O10 0.666668 0.333334 0.411518
O O11 0.718945 0.464109 0.223830
O O12 0.850902 0.791762 0.094513
O O13 0.635922 0.735774 0.117114
#
# Coordination Sequence:
#
# PCOD8324430 Si02
#       7
#     6   6   6   2   2   6   6
#     4  10  20  34  53  83 121 157 190 225 281 355
#     4  10  19  29  50  79 107 132 172 221 276 339
#     4  11  22  34  58  86 116 154 195 233 296 356
#     4   9  24  40  56  76 108 144 202 227 301 336
#     4  12  24  43  56  79 120 153 190 266 283 336
#     4  10  19  30  50  79 117 150 180 221 277 344
#     4  10  18  34  52  76 102 146 179 229 275 346
#
# _framework density 19.025869
#
# number of rings (size 3 to 8) (size 9 to 14) (size 15 to 20)
#    0.000    1.765    1.765    3.882    7.412    1.412 
#    0.000    5.294    0.000    0.000    0.000    0.000 
#    0.000    2.824    0.000    0.000    0.000    0.000 
#
# Total GULP energy -421238.855933 kJ/mol
# GULP energy per Si atom -12389.378116 kJ/mol
# Density = 1.898257 g / cm^3
# Si number density = 19.025869 Si / 1000 Ang^3
#
#
#
# Elastic Constant Matrix: (Units=GPa)
#
#
# Indices 1 2 3 4 5 6 
#
# 1 93.5545 29.0032 29.1433 0.0000 0.0000 0.0000
# 2 29.0032 93.5557 29.1444 0.0000 0.0000 0.0004
# 3 29.1433 29.1444 63.9894 0.0000 0.0000 0.0000
# 4 0.0000 0.0000 0.0000 12.0029 0.0000 0.0000
# 5 0.0000 0.0000 0.0000 0.0000 12.0025 0.0000
# 6 0.0000 0.0004 0.0000 0.0000 0.0000 32.2763
#
#
#
# Elastic Compliance Matrix: (Units=1/GPa)
#
#
# Indices 1 2 3 4 5 6 
#
# 1 0.012953 -0.002538 -0.004744 0.000000 0.000000 0.000000
# 2 -0.002538 0.012953 -0.004744 0.000000 0.000000 0.000000
# 3 -0.004744 -0.004744 0.019949 0.000000 0.000000 0.000000
# 4 0.000000 0.000000 0.000000 0.083313 0.000000 0.000000
# 5 0.000000 0.000000 0.000000 0.000000 0.083316 0.000000
# 6 0.000000 0.000000 0.000000 0.000000 0.000000 0.030982
#
#
# Mechanical properties :
#
#
# Convention : Reuss Voigt Hill
#
# Bulk Modulus (GPa) = 45.86164 47.29792 46.57978
# Shear Modulus (GPa) = 18.19595 22.17691 20.18643
#
# Velocity S-wave (km/s) = 3.09589 3.41782 3.26083
# Velocity P-wave (km/s) = 6.07755 6.36310 6.22197
#
# Compressibility (1/GPa) = 0.02180471
#
# Stress axis : x y z
#
# Youngs Moduli (GPa) = 77.19953 77.19975 50.12887
#
# Poissons Ratio (x) = 0.19593 0.23779
# Poissons Ratio (y) = 0.19593 0.23780
# Poissons Ratio (z) = 0.36620 0.36622
#
# Static dielectric constant tensor:
#      x y z
#    x 4.076100 -0.000010 0.000000 
#    y -0.000010 4.076100 0.000000 
#    z 0.000000 0.000000 2.834090 
# 
# 
# High freq. dielectric constant tensor:
#      x y z
#    x 1.763150 0.000000 0.000000 
#    y 0.000000 1.763150 0.000000 
#    z 0.000000 0.000000 1.657760 
# 
# From -- ./inp_files/280.got.cif
#   From: 2010.03.12/outbox.cif.g09.slc.cpg/sg168_cif.got.tgz:280.got - 2010.04.02 06:45:48.
