data_PCOD8324592
_publ_section_title
;
Structure prediction by ZEFSAII (Michael W. Deem and Ramdas Pophale) SiO2 
 PCOD8324592
Probable space group: P 61
;
_chemical_formula_sum "Si O2"
_cell_formula_units_Z 42
_cell_length_a 14.307828
_cell_length_b 14.307828
_cell_length_c 11.210596
_cell_angle_alpha 90.000000
_cell_angle_beta 90.000000
_cell_angle_gamma 120.000000
_cell_volume 1987.498251
_symmetry_space_group_name_H-M "P 61"
_symmetry_group_IT_number 169
_symmetry_cell_setting 'hexagonal'
loop_
_space_group_symop_operation_xyz
x,y,z
x-y,x,1/6+z
-y,x-y,1/3+z
-x,-y,1/2+z
-x+y,-x,2/3+z
y,-x+y,5/6+z
loop_
_atom_site_type_symbol
_atom_site_label
_atom_site_fract_x
_atom_site_fract_y
_atom_site_fract_z
Si Si1 0.017824 0.176299 0.604680
Si Si2 0.576311 0.068112 0.606165
Si Si3 0.683808 0.165577 0.369801
Si Si4 0.522074 0.252070 0.385883
Si Si5 0.619181 0.888050 0.677863
Si Si6 0.633907 0.819232 0.092261
Si Si7 0.626126 0.667752 0.295424
O O1 0.939193 0.190874 0.512188
O O2 0.086320 0.134389 0.535596
O O3 0.089821 0.289712 0.670538
O O4 0.635622 0.084102 0.480231
O O5 0.625312 0.178701 0.684852
O O6 0.588642 0.980656 0.681473
O O7 0.452065 0.020549 0.576243
O O8 0.625115 0.237201 0.360635
O O9 0.810860 0.245091 0.396207
O O10 0.670052 0.094482 0.254977
O O11 0.422726 0.175663 0.301272
O O12 0.479933 0.220743 0.522029
O O13 0.609283 0.746744 0.209243
O O14 0.695278 0.944754 0.135070
#
# Coordination Sequence:
#
# PCOD8324592 Si02
#       7
#     6   6   6   6   6   6   6
#     4  12  23  46  75 102 134 187 246 301 355 433
#     4  11  24  42  72 100 137 195 234 289 357 436
#     4  11  26  45  66 108 150 183 240 297 365 436
#     4  11  22  45  74 100 137 183 246 290 352 445
#     4  11  22  45  71  99 141 196 237 293 359 433
#     4  12  24  45  74 103 132 190 241 300 360 426
#     4  12  27  44  70 104 147 186 234 304 368 421
#
# _framework density 21.132093999999999
#
# number of rings (size 3 to 8) (size 9 to 14) (size 15 to 20)
#    0.000    0.571    7.143    0.857    4.000    1.143 
#    2.571    0.000    0.000    0.000    0.000    0.000 
#    0.000    0.000    0.000    0.000    0.000    0.000 
#
# Total GULP energy -520871.210202 kJ/mol
# GULP energy per Si atom -12401.695481 kJ/mol
# Density = 2.108400 g / cm^3
# Si number density = 21.132094 Si / 1000 Ang^3
#
#
#
# Elastic Constant Matrix: (Units=GPa)
#
#
# Indices 1 2 3 4 5 6 
#
# 1 102.8395 41.7560 45.6527 0.0000 0.0000 0.0000
# 2 41.7560 102.8395 45.6527 0.0000 0.0000 0.0000
# 3 45.6527 45.6527 105.3022 0.0000 0.0000 0.0000
# 4 0.0000 0.0000 0.0000 28.3496 0.0000 0.0000
# 5 0.0000 0.0000 0.0000 0.0000 28.3496 0.0000
# 6 0.0000 0.0000 0.0000 0.0000 0.0000 30.5418
#
#
#
# Elastic Compliance Matrix: (Units=1/GPa)
#
#
# Indices 1 2 3 4 5 6 
#
# 1 0.012947 -0.003424 -0.004129 0.000000 0.000000 0.000000
# 2 -0.003424 0.012947 -0.004129 0.000000 0.000000 0.000000
# 3 -0.004129 -0.004129 0.013076 0.000000 0.000000 0.000000
# 4 0.000000 0.000000 0.000000 0.035274 0.000000 0.000000
# 5 0.000000 0.000000 0.000000 0.000000 0.035274 0.000000
# 6 0.000000 0.000000 0.000000 0.000000 0.000000 0.032742
#
#
# Mechanical properties :
#
#
# Convention : Reuss Voigt Hill
#
# Bulk Modulus (GPa) = 64.07057 64.12264 64.09661
# Shear Modulus (GPa) = 29.26977 29.30952 29.28965
#
# Velocity S-wave (km/s) = 3.72571 3.72824 3.72698
# Velocity P-wave (km/s) = 6.99234 6.99590 6.99412
#
# Compressibility (1/GPa) = 0.01560779
#
# Stress axis : x y z
#
# Youngs Moduli (GPa) = 77.23844 77.23844 76.47467
#
# Poissons Ratio (x) = 0.26447 0.31573
# Poissons Ratio (y) = 0.26447 0.31573
# Poissons Ratio (z) = 0.31888 0.31888
#
# Static dielectric constant tensor:
#      x y z
#    x 3.938440 0.000000 0.000000 
#    y 0.000000 3.938440 0.000000 
#    z 0.000000 0.000000 3.745490 
# 
# 
# High freq. dielectric constant tensor:
#      x y z
#    x 1.832380 0.000000 0.000000 
#    y 0.000000 1.832380 0.000000 
#    z 0.000000 0.000000 1.821450 
# 
# From -- ./inp_files/967.got.cif
#   From: 2010.03.12/outbox.cif.g09.slc.cpg/sg169_cif.got.tgz:967.got - 2010.04.02 06:46:06.
