data_PCOD8324625
_publ_section_title
;
Structure prediction by ZEFSAII (Michael W. Deem and Ramdas Pophale) SiO2 
 PCOD8324625
Probable space group: P 65
;
_chemical_formula_sum "Si O2"
_cell_formula_units_Z 48
_cell_length_a 16.684280
_cell_length_b 16.684280
_cell_length_c 10.453188
_cell_angle_alpha 90.000000
_cell_angle_beta 90.000000
_cell_angle_gamma 120.000000
_cell_volume 2519.963975
_symmetry_space_group_name_H-M "P 65"
_symmetry_group_IT_number 170
_symmetry_cell_setting 'hexagonal'
loop_
_space_group_symop_operation_xyz
x,y,z
x-y,x,5/6+z
-y,x-y,2/3+z
-x,-y,1/2+z
-x+y,-x,1/3+z
y,-x+y,1/6+z
loop_
_atom_site_type_symbol
_atom_site_label
_atom_site_fract_x
_atom_site_fract_y
_atom_site_fract_z
Si Si1 0.957286 0.125113 0.733860
Si Si2 0.485598 0.826889 0.699541
Si Si3 0.966100 0.699356 0.070784
Si Si4 0.380795 0.146045 0.776179
Si Si5 0.380662 0.969609 0.144815
Si Si6 0.363438 0.196025 0.066388
Si Si7 0.187503 0.606902 0.882194
Si Si8 0.731545 0.383182 0.652166
O O1 0.884010 0.151914 0.792235
O O2 0.023382 0.120764 0.839978
O O3 0.018032 0.205442 0.633441
O O4 0.552034 0.791358 0.647702
O O5 0.396812 0.795249 0.607543
O O6 0.445582 0.765083 0.828843
O O7 0.539872 0.937057 0.712591
O O8 0.858933 0.651721 0.026260
O O9 0.986649 0.634760 0.169387
O O10 0.033996 0.722405 0.947822
O O11 0.476607 0.168089 0.714002
O O12 0.384108 0.177867 0.922155
O O13 0.290164 0.931010 0.234304
O O14 0.418242 0.897943 0.145367
O O15 0.277519 0.628066 0.800471
O O16 0.202444 0.586665 0.028218
#
# Coordination Sequence:
#
# PCOD8324625 Si02
#       8
#     6   6   6   6   6   6   6   6
#     4  11  18  29  52  88 109 132 172 225 283 321
#     4  11  19  34  53  79 108 146 179 228 280 336
#     4  10  17  30  53  79 107 133 173 235 275 316
#     4  10  18  30  51  80 108 137 172 226 282 322
#     4  11  18  30  54  76 101 138 187 222 273 317
#     4  10  16  32  54  79 110 130 176 238 269 313
#     4  11  20  34  51  77 109 148 183 232 278 330
#     4  10  20  33  50  70 112 146 174 226 284 323
#
# _framework density 19.047892000000001
#
# number of rings (size 3 to 8) (size 9 to 14) (size 15 to 20)
#    0.000    1.500   10.000    0.750    0.000    1.000 
#    0.000    2.500    0.000    0.000    6.500    0.000 
#    0.000    0.000    0.000    0.000    0.000    0.000 
#
# Total GULP energy -594629.543269 kJ/mol
# GULP energy per Si atom -12388.115485 kJ/mol
# Density = 1.900454 g / cm^3
# Si number density = 19.047892 Si / 1000 Ang^3
#
#
#
# Elastic Constant Matrix: (Units=GPa)
#
#
# Indices 1 2 3 4 5 6 
#
# 1 107.7786 23.1463 6.6400 0.0000 0.0000 0.0000
# 2 23.1463 107.7786 6.6400 0.0000 0.0000 0.0000
# 3 6.6400 6.6400 16.4566 0.0000 0.0000 0.0000
# 4 0.0000 0.0000 0.0000 17.8785 0.0000 0.0000
# 5 0.0000 0.0000 0.0000 0.0000 17.8785 0.0000
# 6 0.0000 0.0000 0.0000 0.0000 0.0000 42.3161
#
#
#
# Elastic Compliance Matrix: (Units=1/GPa)
#
#
# Indices 1 2 3 4 5 6 
#
# 1 0.009890 -0.001926 -0.003213 0.000000 0.000000 0.000000
# 2 -0.001926 0.009890 -0.003213 0.000000 0.000000 0.000000
# 3 -0.003213 -0.003213 0.063359 0.000000 0.000000 0.000000
# 4 0.000000 0.000000 0.000000 0.055933 0.000000 0.000000
# 5 0.000000 0.000000 0.000000 0.000000 0.055933 0.000000
# 6 0.000000 0.000000 0.000000 0.000000 0.000000 0.023632
#
#
# Mechanical properties :
#
#
# Convention : Reuss Voigt Hill
#
# Bulk Modulus (GPa) = 15.05269 33.87406 24.46337
# Shear Modulus (GPa) = 19.41851 28.65377 24.03614
#
# Velocity S-wave (km/s) = 3.19636 3.88274 3.55615
# Velocity P-wave (km/s) = 4.64133 6.15818 5.45276
#
# Compressibility (1/GPa) = 0.06643333
#
# Stress axis : x y z
#
# Youngs Moduli (GPa) = 101.11360 101.11360 15.78312
#
# Poissons Ratio (x) = 0.19474 0.05072
# Poissons Ratio (y) = 0.19474 0.05072
# Poissons Ratio (z) = 0.32491 0.32491
#
# Static dielectric constant tensor:
#      x y z
#    x 3.865730 0.000000 0.000000 
#    y 0.000000 3.865730 0.000000 
#    z 0.000000 0.000000 2.937210 
# 
# 
# High freq. dielectric constant tensor:
#      x y z
#    x 1.754950 0.000000 0.000000 
#    y 0.000000 1.754950 0.000000 
#    z 0.000000 0.000000 1.663910 
# 
# From -- ./inp_files/1123.got.cif
#   From: 2010.03.12/outbox.cif.g09.slc.cpg/sg170_cif.got.tgz:1123.got - 2010.04.02 06:47:37.
