data_PCOD8324755
_publ_section_title
;
Structure prediction by ZEFSAII (Michael W. Deem and Ramdas Pophale) SiO2 
 PCOD8324755
Probable space group: P 62
;
_chemical_formula_sum "Si O2"
_cell_formula_units_Z 42
_cell_length_a 17.300383
_cell_length_b 17.300383
_cell_length_c 8.625482
_cell_angle_alpha 90.000000
_cell_angle_beta 90.000000
_cell_angle_gamma 120.000000
_cell_volume 2235.761331
_symmetry_space_group_name_H-M "P 62"
_symmetry_group_IT_number 171
_symmetry_cell_setting 'hexagonal'
loop_
_space_group_symop_operation_xyz
x,y,z
x-y,x,1/3+z
-y,x-y,2/3+z
-x,-y,z
-x+y,-x,1/3+z
y,-x+y,2/3+z
loop_
_atom_site_type_symbol
_atom_site_label
_atom_site_fract_x
_atom_site_fract_y
_atom_site_fract_z
Si Si1 0.287333 0.652871 0.491950
Si Si2 0.590650 0.592976 0.120240
Si Si3 0.164137 0.479210 0.637298
Si Si4 0.420846 0.130788 0.398376
Si Si5 0.437458 0.903125 0.245252
Si Si6 0.317412 0.936290 0.466427
Si Si7 0.743388 0.561306 0.082375
O O1 0.338434 0.673666 0.326115
O O2 0.209019 0.549335 0.495732
O O3 0.254646 0.724578 0.494148
O O4 0.500000 0.500000 0.084065
O O5 0.580482 0.640595 0.270636
O O6 0.677731 0.587584 0.170040
O O7 0.614302 0.662349 0.980156
O O8 0.199832 0.409053 0.655410
O O9 0.169337 0.531989 0.796626
O O10 0.504300 0.138296 0.305848
O O11 0.452149 0.160983 0.573427
O O12 0.333041 0.031010 0.392500
O O13 0.390466 0.916811 0.393332
O O14 0.500000 0.000000 0.164634
O O15 0.218196 0.850500 0.434514
#
# Coordination Sequence:
#
# PCOD8324755 Si02
#       7
#     6   6   6   6   6   6   6
#     4  12  26  37  54  83 119 157 210 254 303 362
#     4  11  22  40  55  81 121 154 192 251 313 365
#     4  12  22  37  55  84 116 150 198 250 305 363
#     4  10  22  38  57  82 116 151 201 254 299 360
#     4  10  21  36  58  80 112 154 198 243 301 356
#     4  10  21  39  58  77 107 159 200 241 304 359
#     4  11  22  38  61  81 111 161 204 247 301 372
#
# _framework density 18.785546
#
# number of rings (size 3 to 8) (size 9 to 14) (size 15 to 20)
#    0.000    1.143    2.857    5.143    4.000    0.000 
#    2.571    0.000    0.000    0.000    0.000    0.000 
#    0.000   13.714    0.000    0.000    0.000    0.000 
#
# Total GULP energy -520318.305084 kJ/mol
# GULP energy per Si atom -12388.531073 kJ/mol
# Density = 1.874279 g / cm^3
# Si number density = 18.785546 Si / 1000 Ang^3
#
#
#
# Elastic Constant Matrix: (Units=GPa)
#
#
# Indices 1 2 3 4 5 6 
#
# 1 110.0220 49.5768 30.1913 0.0000 0.0000 0.0000
# 2 49.5768 110.0220 30.1913 0.0000 0.0000 0.0000
# 3 30.1913 30.1913 74.9000 0.0000 0.0000 0.0000
# 4 0.0000 0.0000 0.0000 24.0124 0.0000 0.0000
# 5 0.0000 0.0000 0.0000 0.0000 24.0124 0.0000
# 6 0.0000 0.0000 0.0000 0.0000 0.0000 30.2226
#
#
#
# Elastic Compliance Matrix: (Units=1/GPa)
#
#
# Indices 1 2 3 4 5 6 
#
# 1 0.011969 -0.004575 -0.002980 0.000000 0.000000 0.000000
# 2 -0.004575 0.011969 -0.002980 0.000000 0.000000 0.000000
# 3 -0.002980 -0.002980 0.015754 0.000000 0.000000 0.000000
# 4 0.000000 0.000000 0.000000 0.041645 0.000000 0.000000
# 5 0.000000 0.000000 0.000000 0.000000 0.041645 0.000000
# 6 0.000000 0.000000 0.000000 0.000000 0.000000 0.033088
#
#
# Mechanical properties :
#
#
# Convention : Reuss Voigt Hill
#
# Bulk Modulus (GPa) = 53.70689 57.20699 55.45694
# Shear Modulus (GPa) = 27.27076 27.98179 27.62628
#
# Velocity S-wave (km/s) = 3.81424 3.86364 3.83902
# Velocity P-wave (km/s) = 6.93177 7.10087 7.01683
#
# Compressibility (1/GPa) = 0.01861958
#
# Stress axis : x y z
#
# Youngs Moduli (GPa) = 83.55224 83.55224 63.47738
#
# Poissons Ratio (x) = 0.38228 0.18917
# Poissons Ratio (y) = 0.38228 0.18917
# Poissons Ratio (z) = 0.24900 0.24900
#
# Static dielectric constant tensor:
#      x y z
#    x 3.592950 0.000000 0.000000 
#    y 0.000000 3.592950 0.000000 
#    z 0.000000 0.000000 3.435360 
# 
# 
# High freq. dielectric constant tensor:
#      x y z
#    x 1.705000 0.000000 0.000000 
#    y 0.000000 1.705000 0.000000 
#    z 0.000000 0.000000 1.740750 
# 
# From -- ./inp_files/1255.got.cif
#   From: 2010.03.12/outbox.cif.g09.slc.cpg/sg171_1_cif.got.tgz:1255.got - 2010.04.02 06:49:11.
