data_PCOD8324104
_publ_section_title
;
Structure prediction by ZEFSAII (Michael W. Deem and Ramdas Pophale) SiO2 
 PCOD8324104
Probable space group: R -3 M
;
_chemical_formula_sum "Si O2"
_cell_formula_units_Z 108
_cell_length_a 16.845709
_cell_length_b 16.845709
_cell_length_c 20.346917
_cell_angle_alpha 90.000000
_cell_angle_beta 90.000000
_cell_angle_gamma 120.000000
_cell_volume 5000.435545
_symmetry_space_group_name_H-M "R -3 M"
_symmetry_group_IT_number 166
_symmetry_cell_setting 'hexagonal'
loop_
_space_group_symop_operation_xyz
x,y,z
-y,x-y,z
-x+y,-x,z
x-y,-y,-z
-x,-x+y,-z
y,x,-z
-x,-y,-z
y,-x+y,-z
x-y,x,-z
-x+y,y,z
x,x-y,z
-y,-x,z
2/3+x,1/3+y,1/3+z
2/3-y,1/3+x-y,1/3+z
2/3-x+y,1/3-x,1/3+z
2/3+x-y,1/3-y,1/3-z
2/3-x,1/3-x+y,1/3-z
2/3+y,1/3+x,1/3-z
2/3-x,1/3-y,1/3-z
2/3+y,1/3-x+y,1/3-z
2/3+x-y,1/3+x,1/3-z
2/3-x+y,1/3+y,1/3+z
2/3+x,1/3+x-y,1/3+z
2/3-y,1/3-x,1/3+z
1/3+x,2/3+y,2/3+z
1/3-y,2/3+x-y,2/3+z
1/3-x+y,2/3-x,2/3+z
1/3+x-y,2/3-y,2/3-z
1/3-x,2/3-x+y,2/3-z
1/3+y,2/3+x,2/3-z
1/3-x,2/3-y,2/3-z
1/3+y,2/3-x+y,2/3-z
1/3+x-y,2/3+x,2/3-z
1/3-x+y,2/3+y,2/3+z
1/3+x,2/3+x-y,2/3+z
1/3-y,2/3-x,2/3+z
loop_
_atom_site_type_symbol
_atom_site_label
_atom_site_fract_x
_atom_site_fract_y
_atom_site_fract_z
Si Si1 0.183165 0.998426 0.809093
Si Si2 0.173339 0.173321 0.423830
Si Si3 0.700937 0.690598 0.073178
O O1 0.194537 0.097269 0.792682
O O2 0.233620 0.004596 0.877745
O O3 0.227160 0.964083 0.752566
O O4 0.076094 0.923907 0.815545
O O5 0.152231 0.152231 0.500000
O O6 0.183847 0.091924 0.390476
O O7 0.262873 0.269355 0.415599
O O8 0.088349 0.176697 0.389773
O O9 0.730927 0.730927 0.000000
#
# Coordination Sequence:
#
# PCOD8324104 Si02
#       3
#    36  36  36
#     4  11  24  43  65  91 123 161 207 257 308 361
#     4  10  19  33  55  85 119 153 191 238 293 353
#     4  11  23  40  64  91 121 161 206 251 303 367
#
# _framework density 21.598116999999998
#
# number of rings (size 3 to 8) (size 9 to 14) (size 15 to 20)
#    0.000    1.333    3.333    4.667    0.000    9.333 
#    0.000    0.000    0.000    6.000    0.000    0.000 
#    0.000    0.000    0.000    0.000    0.000    0.000 
#
# Total GULP energy -446302.993078 kJ/mol
# GULP energy per Si atom -12397.305363 kJ/mol
# Density = 2.154896 g / cm^3
# Si number density = 21.598117 Si / 1000 Ang^3
#
#
#
# Elastic Constant Matrix: (Units=GPa)
#
#
# Indices 1 2 3 4 5 6 
#
# 1 105.7247 24.0688 2.0774 -4.2956 0.0000 0.0000
# 2 24.0688 105.7247 2.0774 4.2956 0.0000 0.0000
# 3 2.0774 2.0774 92.3194 0.0000 0.0000 0.0000
# 4 -4.2956 4.2956 0.0000 -6.0996 0.0000 0.0000
# 5 0.0000 0.0000 0.0000 0.0000 -6.0996 -4.2956
# 6 0.0000 0.0000 0.0000 0.0000 -4.2956 40.8280
#
#
#
# Elastic Compliance Matrix: (Units=1/GPa)
#
#
# Indices 1 2 3 4 5 6 
#
# 1 0.009556 -0.001846 -0.000173 -0.008030 0.000000 0.000000
# 2 -0.001846 0.009556 -0.000173 0.008030 0.000000 0.000000
# 3 -0.000173 -0.000173 0.010840 0.000000 0.000000 0.000000
# 4 -0.008030 0.008030 0.000000 -0.152634 0.000000 0.000000
# 5 0.000000 0.000000 0.000000 0.000000 -0.152634 -0.016059
# 6 0.000000 0.000000 0.000000 0.000000 -0.016059 0.022803
#
#
# Mechanical properties :
#
#
# Convention : Reuss Voigt Hill
#
# Bulk Modulus (GPa) = 39.11447 40.02399 39.56923
# Shear Modulus (GPa) = -20.86756 24.09541 1.61392
#
# Velocity S-wave (km/s) = -3.11171 3.34372 0.86538
# Velocity P-wave (km/s) = 2.28892 5.78608 4.39988
#
# Compressibility (1/GPa) = 0.02556599
#
# Stress axis : x y z
#
# Youngs Moduli (GPa) = 104.64737 104.64737 92.25293
#
# Poissons Ratio (x) = 0.19316 0.01601
# Poissons Ratio (y) = 0.19316 0.01601
# Poissons Ratio (z) = 0.01816 0.01816
#
# Static dielectric constant tensor:
#      x y z
#    x 3.966110 0.000000 0.000000 
#    y 0.000000 3.966110 0.000000 
#    z 0.000000 0.000000 4.172930 
# 
# 
# High freq. dielectric constant tensor:
#      x y z
#    x 1.854680 0.000000 0.000000 
#    y 0.000000 1.854680 0.000000 
#    z 0.000000 0.000000 1.824290 
# 
# From -- ./inp_files/6288.got.cif
#   From: 2010.03.12/outbox.cif.g09.slc.cpg/sg166_4_cif.got.tgz:6288.got - 2010.04.02 06:38:31.
