data_PCOD8324536
_publ_section_title
;
Structure prediction by ZEFSAII (Michael W. Deem and Ramdas Pophale) SiO2 
 PCOD8324536
Probable space group: P 61
;
_chemical_formula_sum "Si O2"
_cell_formula_units_Z 36
_cell_length_a 10.720103
_cell_length_b 10.720103
_cell_length_c 14.878032
_cell_angle_alpha 90.000000
_cell_angle_beta 90.000000
_cell_angle_gamma 120.000000
_cell_volume 1480.723730
_symmetry_space_group_name_H-M "P 61"
_symmetry_group_IT_number 169
_symmetry_cell_setting 'hexagonal'
loop_
_space_group_symop_operation_xyz
x,y,z
x-y,x,1/6+z
-y,x-y,1/3+z
-x,-y,1/2+z
-x+y,-x,2/3+z
y,-x+y,5/6+z
loop_
_atom_site_type_symbol
_atom_site_label
_atom_site_fract_x
_atom_site_fract_y
_atom_site_fract_z
Si Si1 0.826731 0.570346 0.392210
Si Si2 0.029436 0.378911 0.573450
Si Si3 0.760011 0.287065 0.342441
Si Si4 0.579726 0.848905 0.029821
Si Si5 0.487844 0.709776 0.741457
Si Si6 0.408014 0.025184 0.857569
O O1 0.786061 0.405240 0.421739
O O2 0.786385 0.542808 0.287236
O O3 0.747716 0.631460 0.454228
O O4 0.993055 0.685941 0.396723
O O5 0.148042 0.343251 0.618292
O O6 0.096030 0.464298 0.481933
O O7 0.018987 0.476435 0.650667
O O8 0.868833 0.243493 0.549625
O O9 0.627422 0.250038 0.277750
O O10 0.907867 0.352167 0.288675
O O11 0.729474 0.132054 0.377972
O O12 0.420343 0.825800 0.998802
#
# Coordination Sequence:
#
# PCOD8324536 Si02
#       6
#     6   6   6   6   6   6
#     4  11  22  37  62  93 119 161 209 257 311 374
#     4  11  20  37  57  85 128 152 204 254 313 366
#     4  10  22  36  58  89 121 162 196 258 313 364
#     4  11  22  37  62  93 119 161 209 257 311 374
#     4  10  22  36  58  89 121 162 196 258 313 364
#     4  11  20  37  57  85 128 152 204 254 313 366
#
# _framework density 24.312436000000002
#
# number of rings (size 3 to 8) (size 9 to 14) (size 15 to 20)
#    0.000    1.333    6.667    2.000    4.667    0.000 
#    0.000    0.000    0.000   12.000    0.000    0.000 
#    0.000    0.000    0.000    0.000    0.000    0.000 
#
# Total GULP energy -445978.468820 kJ/mol
# GULP energy per Si atom -12388.290801 kJ/mol
# Density = 2.425710 g / cm^3
# Si number density = 24.312436 Si / 1000 Ang^3
#
#
#
# Elastic Constant Matrix: (Units=GPa)
#
#
# Indices 1 2 3 4 5 6 
#
# 1 91.9193 38.8679 3.3591 0.0000 0.0000 0.0000
# 2 38.8679 91.9193 3.3591 0.0000 0.0000 0.0000
# 3 3.3591 3.3591 53.7358 0.0000 0.0000 0.0000
# 4 0.0000 0.0000 0.0000 14.3124 0.0000 0.0000
# 5 0.0000 0.0000 0.0000 0.0000 14.3124 0.0000
# 6 0.0000 0.0000 0.0000 0.0000 0.0000 26.5257
#
#
#
# Elastic Compliance Matrix: (Units=1/GPa)
#
#
# Indices 1 2 3 4 5 6 
#
# 1 0.013260 -0.005589 -0.000480 0.000000 0.000000 0.000000
# 2 -0.005589 0.013260 -0.000480 0.000000 0.000000 0.000000
# 3 -0.000480 -0.000480 0.018670 0.000000 0.000000 0.000000
# 4 0.000000 0.000000 0.000000 0.069869 0.000000 0.000000
# 5 0.000000 0.000000 0.000000 0.000000 0.069869 0.000000
# 6 0.000000 0.000000 0.000000 0.000000 0.000000 0.037699
#
#
# Mechanical properties :
#
#
# Convention : Reuss Voigt Hill
#
# Bulk Modulus (GPa) = 31.15963 36.52739 33.84351
# Shear Modulus (GPa) = 20.29036 23.82933 22.05985
#
# Velocity S-wave (km/s) = 2.89202 3.13410 3.01549
# Velocity P-wave (km/s) = 4.89856 5.30599 5.10634
#
# Compressibility (1/GPa) = 0.03209280
#
# Stress axis : x y z
#
# Youngs Moduli (GPa) = 75.41400 75.41400 53.56322
#
# Poissons Ratio (x) = 0.42153 0.02568
# Poissons Ratio (y) = 0.42153 0.02568
# Poissons Ratio (z) = 0.03616 0.03616
#
# Static dielectric constant tensor:
#      x y z
#    x 4.622790 0.000000 0.000000 
#    y 0.000000 4.622790 0.000000 
#    z 0.000000 0.000000 4.288330 
# 
# 
# High freq. dielectric constant tensor:
#      x y z
#    x 1.954200 0.000000 0.000000 
#    y 0.000000 1.954200 0.000000 
#    z 0.000000 0.000000 1.967800 
# 
# From -- ./inp_files/1340.got.cif
#   From: 2010.03.12/outbox.cif.g09.slc.cpg/sg169_cif.got.tgz:1340.got - 2010.04.02 06:46:06.
