data_PCOD8324847
_publ_section_title
;
Structure prediction by ZEFSAII (Michael W. Deem and Ramdas Pophale) SiO2 
 PCOD8324847
Probable space group: P 63
;
_chemical_formula_sum "Si O2"
_cell_formula_units_Z 18
_cell_length_a 8.616943
_cell_length_b 8.616943
_cell_length_c 13.590231
_cell_angle_alpha 90.000000
_cell_angle_beta 90.000000
_cell_angle_gamma 120.000000
_cell_volume 873.904369
_symmetry_space_group_name_H-M "P 63"
_symmetry_group_IT_number 173
_symmetry_cell_setting 'hexagonal'
loop_
_space_group_symop_operation_xyz
x,y,z
x-y,x,1/2+z
-y,x-y,z
-x,-y,1/2+z
-x+y,-x,z
y,-x+y,1/2+z
loop_
_atom_site_type_symbol
_atom_site_label
_atom_site_fract_x
_atom_site_fract_y
_atom_site_fract_z
Si Si1 0.008116 0.672591 0.195140
Si Si2 0.678940 0.538912 0.906321
Si Si3 0.662124 0.991656 0.617171
O O1 0.033030 0.685225 0.312126
O O2 0.860035 0.726149 0.169340
O O3 0.940315 0.472693 0.157525
O O4 0.195066 0.803914 0.141541
O O5 0.495889 0.344135 0.906183
O O6 0.688797 0.654951 0.000130
#
# Coordination Sequence:
#
# PCOD8324847 Si02
#       3
#     6   6   6
#     4  12  24  43  69 102 135 179 225 279 337 402
#     4  10  20  42  70  96 138 178 224 276 344 400
#     4  12  24  43  69 102 135 179 225 279 337 402
#
# _framework density 20.597221000000001
#
# number of rings (size 3 to 8) (size 9 to 14) (size 15 to 20)
#    0.667    0.000    6.667    2.000    0.000    5.333 
#    0.000    0.000    0.000    0.000    0.000    0.000 
#    0.000    0.000    0.000    0.000    0.000    0.000 
#
# Total GULP energy -223297.362372 kJ/mol
# GULP energy per Si atom -12405.409021 kJ/mol
# Density = 2.055034 g / cm^3
# Si number density = 20.597221 Si / 1000 Ang^3
#
#
#
# Elastic Constant Matrix: (Units=GPa)
#
#
# Indices 1 2 3 4 5 6 
#
# 1 74.3073 8.7446 46.3073 0.0000 0.0000 0.0000
# 2 8.7446 74.3073 46.3073 0.0000 0.0000 0.0000
# 3 46.3073 46.3073 221.9780 0.0000 0.0000 0.0000
# 4 0.0000 0.0000 0.0000 21.7601 0.0000 0.0000
# 5 0.0000 0.0000 0.0000 0.0000 21.7601 0.0000
# 6 0.0000 0.0000 0.0000 0.0000 0.0000 32.7814
#
#
#
# Elastic Compliance Matrix: (Units=1/GPa)
#
#
# Indices 1 2 3 4 5 6 
#
# 1 0.015472 0.000219 -0.003273 0.000000 0.000000 0.000000
# 2 0.000219 0.015472 -0.003273 0.000000 0.000000 0.000000
# 3 -0.003273 -0.003273 0.005871 0.000000 0.000000 0.000000
# 4 0.000000 0.000000 0.000000 0.045956 0.000000 0.000000
# 5 0.000000 0.000000 0.000000 0.000000 0.045956 0.000000
# 6 0.000000 0.000000 0.000000 0.000000 0.000000 0.030505
#
#
# Mechanical properties :
#
#
# Convention : Reuss Voigt Hill
#
# Bulk Modulus (GPa) = 41.39218 63.70122 52.54670
# Shear Modulus (GPa) = 27.78726 33.20921 30.49823
#
# Velocity S-wave (km/s) = 3.67696 4.01972 3.85216
# Velocity P-wave (km/s) = 6.17789 7.24834 6.73442
#
# Compressibility (1/GPa) = 0.02415916
#
# Stress axis : x y z
#
# Youngs Moduli (GPa) = 64.63410 64.63410 170.33881
#
# Poissons Ratio (x) = -0.01416 0.55757
# Poissons Ratio (y) = -0.01416 0.55757
# Poissons Ratio (z) = 0.21157 0.21157
#
# Static dielectric constant tensor:
#      x y z
#    x 3.507870 0.000000 0.000000 
#    y 0.000000 3.507870 0.000000 
#    z 0.000000 0.000000 3.698170 
# 
# 
# High freq. dielectric constant tensor:
#      x y z
#    x 1.796620 0.000000 0.000000 
#    y 0.000000 1.796620 0.000000 
#    z 0.000000 0.000000 1.819430 
# 
# From -- ./inp_files/753.got.cif
#   From: 2010.03.12/outbox.cif.g09.slc.cpg/sg173_cif.got.tgz:753.got - 2010.04.02 06:54:12.
