data_PCOD8324216
_publ_section_title
;
Structure prediction by ZEFSAII (Michael W. Deem and Ramdas Pophale) SiO2 
 PCOD8324216
Probable space group: R -3 M
;
_chemical_formula_sum "Si O2"
_cell_formula_units_Z 270
_cell_length_a 29.998110
_cell_length_b 29.998110
_cell_length_c 16.335683
_cell_angle_alpha 90.000000
_cell_angle_beta 90.000000
_cell_angle_gamma 120.000000
_cell_volume 12730.800587
_symmetry_space_group_name_H-M "R -3 M"
_symmetry_group_IT_number 166
_symmetry_cell_setting 'hexagonal'
loop_
_space_group_symop_operation_xyz
x,y,z
-y,x-y,z
-x+y,-x,z
x-y,-y,-z
-x,-x+y,-z
y,x,-z
-x,-y,-z
y,-x+y,-z
x-y,x,-z
-x+y,y,z
x,x-y,z
-y,-x,z
2/3+x,1/3+y,1/3+z
2/3-y,1/3+x-y,1/3+z
2/3-x+y,1/3-x,1/3+z
2/3+x-y,1/3-y,1/3-z
2/3-x,1/3-x+y,1/3-z
2/3+y,1/3+x,1/3-z
2/3-x,1/3-y,1/3-z
2/3+y,1/3-x+y,1/3-z
2/3+x-y,1/3+x,1/3-z
2/3-x+y,1/3+y,1/3+z
2/3+x,1/3+x-y,1/3+z
2/3-y,1/3-x,1/3+z
1/3+x,2/3+y,2/3+z
1/3-y,2/3+x-y,2/3+z
1/3-x+y,2/3-x,2/3+z
1/3+x-y,2/3-y,2/3-z
1/3-x,2/3-x+y,2/3-z
1/3+y,2/3+x,2/3-z
1/3-x,2/3-y,2/3-z
1/3+y,2/3-x+y,2/3-z
1/3+x-y,2/3+x,2/3-z
1/3-x+y,2/3+y,2/3+z
1/3+x,2/3+x-y,2/3+z
1/3-y,2/3-x,2/3+z
loop_
_atom_site_type_symbol
_atom_site_label
_atom_site_fract_x
_atom_site_fract_y
_atom_site_fract_z
Si Si1 0.154139 0.409521 0.685378
Si Si2 0.389342 0.884887 0.318325
Si Si3 0.999052 0.608702 0.913303
Si Si4 0.161299 0.130607 0.750074
Si Si5 0.921774 0.647727 0.077264
Si Si6 0.928918 0.512993 0.171516
Si Si7 0.893751 0.560417 0.833334
Si Si8 0.309543 0.793716 0.751676
O O1 0.195974 0.391948 0.704593
O O2 0.097132 0.360858 0.685352
O O3 0.161778 0.432367 0.592789
O O4 0.161683 0.455159 0.745942
O O5 0.446497 0.892994 0.317706
O O6 0.349616 0.827930 0.354068
O O7 0.389121 0.928365 0.377685
O O8 0.372339 0.884633 0.223528
O O9 0.938926 0.579801 0.898484
O O10 0.026441 0.670553 0.922813
O O11 0.025601 0.596382 0.839038
O O12 0.000000 0.583549 0.000000
O O13 0.147706 0.073853 0.716523
O O14 0.222439 0.165430 0.764070
O O15 0.135575 0.122539 0.838968
O O16 0.913899 0.666667 0.166667
O O17 0.954980 0.477490 0.168218
O O18 0.259079 0.740921 0.769779
O O19 0.333334 0.788540 0.666667
#
# Coordination Sequence:
#
# PCOD8324216 Si02
#       8
#    36  36  36  36  36  36  18  36
#     4  10  22  37  58  89 128 174 224 271 321 385
#     4  12  27  49  74 103 137 180 236 295 354 418
#     4  12  24  41  60  93 132 177 226 275 334 397
#     4  11  22  42  68  98 130 166 222 285 349 417
#     4  12  24  39  63  95 138 186 226 283 334 401
#     4  10  21  39  62  89 122 165 220 276 329 393
#     4  12  26  46  70  98 142 186 236 280 342 402
#     4  11  21  36  61  94 135 182 227 276 338 416
#
# _framework density 21.208407000000001
#
# number of rings (size 3 to 8) (size 9 to 14) (size 15 to 20)
#    0.000    0.800    4.667    2.800    0.000    5.067 
#    0.000    0.000    0.000    5.067    0.000    0.467 
#    0.000    0.000    0.000    0.000    0.000    0.000 
#
# Total GULP energy -1115415.871661 kJ/mol
# GULP energy per Si atom -12393.509685 kJ/mol
# Density = 2.116014 g / cm^3
# Si number density = 21.208407 Si / 1000 Ang^3
#
#
#
# Elastic Constant Matrix: (Units=GPa)
#
#
# Indices 1 2 3 4 5 6 
#
# 1 82.6316 52.6063 29.6738 0.4318 0.0000 0.0000
# 2 52.6063 82.6316 29.6738 -0.4318 0.0000 0.0000
# 3 29.6738 29.6738 102.6413 0.0000 0.0000 0.0000
# 4 0.4318 -0.4318 0.0000 31.7249 0.0000 0.0000
# 5 0.0000 0.0000 0.0000 0.0000 31.7249 0.4318
# 6 0.0000 0.0000 0.0000 0.0000 0.4318 15.0126
#
#
#
# Elastic Compliance Matrix: (Units=1/GPa)
#
#
# Indices 1 2 3 4 5 6 
#
# 1 0.020894 -0.012425 -0.002448 -0.000453 0.000000 0.000000
# 2 -0.012425 0.020894 -0.002448 0.000453 0.000000 0.000000
# 3 -0.002448 -0.002448 0.011158 0.000000 0.000000 0.000000
# 4 -0.000453 0.000453 0.000000 0.031533 0.000000 0.000000
# 5 0.000000 0.000000 0.000000 0.000000 0.031533 -0.000907
# 6 0.000000 0.000000 0.000000 0.000000 -0.000907 0.066637
#
#
# Mechanical properties :
#
#
# Convention : Reuss Voigt Hill
#
# Bulk Modulus (GPa) = 54.63727 54.64583 54.64155
# Shear Modulus (GPa) = 22.38211 26.08917 24.23564
#
# Velocity S-wave (km/s) = 3.25213 3.51113 3.38411
# Velocity P-wave (km/s) = 6.31821 6.50073 6.41012
#
# Compressibility (1/GPa) = 0.01830253
#
# Stress axis : x y z
#
# Youngs Moduli (GPa) = 47.86158 47.86159 89.61926
#
# Poissons Ratio (x) = 0.59467 0.21942
# Poissons Ratio (y) = 0.59467 0.21942
# Poissons Ratio (z) = 0.11718 0.11718
#
# Static dielectric constant tensor:
#      x y z
#    x 3.788500 0.000000 0.000000 
#    y 0.000000 3.788500 0.000000 
#    z 0.000000 0.000000 3.676650 
# 
# 
# High freq. dielectric constant tensor:
#      x y z
#    x 1.821540 0.000000 0.000000 
#    y 0.000000 1.821540 0.000000 
#    z 0.000000 0.000000 1.828220 
# 
# From -- ./inp_files/5925.got.cif
#   From: 2010.03.12/outbox.cif.g09.slc.cpg/sg166_3_cif.got.tgz:5925.got - 2010.04.02 06:38:31.
