data_PCOD8324818
_publ_section_title
;
Structure prediction by ZEFSAII (Michael W. Deem and Ramdas Pophale) SiO2 
 PCOD8324818
Probable space group: P 62
;
_chemical_formula_sum "Si O2"
_cell_formula_units_Z 18
_cell_length_a 13.544484
_cell_length_b 13.544484
_cell_length_c 5.004306
_cell_angle_alpha 90.000000
_cell_angle_beta 90.000000
_cell_angle_gamma 120.000000
_cell_volume 795.059111
_symmetry_space_group_name_H-M "P 62"
_symmetry_group_IT_number 171
_symmetry_cell_setting 'hexagonal'
loop_
_space_group_symop_operation_xyz
x,y,z
x-y,x,1/3+z
-y,x-y,2/3+z
-x,-y,z
-x+y,-x,1/3+z
y,-x+y,2/3+z
loop_
_atom_site_type_symbol
_atom_site_label
_atom_site_fract_x
_atom_site_fract_y
_atom_site_fract_z
Si Si1 0.942501 0.637730 0.334860
Si Si2 0.717717 0.623367 0.503075
Si Si3 0.606422 0.210019 0.453320
O O1 0.845604 0.670438 0.394819
O O2 0.894750 0.508029 0.243001
O O3 0.004437 0.646278 0.610784
O O4 0.029110 0.720234 0.106478
O O5 0.656060 0.487982 0.554766
O O6 0.731267 0.299161 0.343649
#
# Coordination Sequence:
#
# PCOD8324818 Si02
#       3
#     6   6   6
#     4  12  27  47  71 104 144 194 245 298 354 422
#     4  12  27  47  71 104 144 194 245 298 354 422
#     4  12  25  42  72 108 158 188 231 272 366 458
#
# _framework density 22.639825999999999
#
# number of rings (size 3 to 8) (size 9 to 14) (size 15 to 20)
#    0.000    0.000    3.333    7.000    0.000    8.000 
#    0.000    0.000    0.000   10.000    0.000    0.000 
#    0.000    0.000    0.000    0.000    0.000    0.000 
#
# Total GULP energy -223336.921326 kJ/mol
# GULP energy per Si atom -12407.606740 kJ/mol
# Density = 2.258830 g / cm^3
# Si number density = 22.639826 Si / 1000 Ang^3
#
#
#
# Elastic Constant Matrix: (Units=GPa)
#
#
# Indices 1 2 3 4 5 6 
#
# 1 78.8742 45.4604 28.6937 0.0000 0.0000 0.0000
# 2 45.4604 78.8742 28.6937 0.0000 0.0000 0.0000
# 3 28.6937 28.6937 127.9128 0.0000 0.0000 0.0000
# 4 0.0000 0.0000 0.0000 55.4780 0.0000 0.0000
# 5 0.0000 0.0000 0.0000 0.0000 55.4780 0.0000
# 6 0.0000 0.0000 0.0000 0.0000 0.0000 16.7069
#
#
#
# Elastic Compliance Matrix: (Units=1/GPa)
#
#
# Indices 1 2 3 4 5 6 
#
# 1 0.019450 -0.010478 -0.002013 0.000000 0.000000 0.000000
# 2 -0.010478 0.019450 -0.002013 0.000000 0.000000 0.000000
# 3 -0.002013 -0.002013 0.008721 0.000000 0.000000 0.000000
# 4 0.000000 0.000000 0.000000 0.018025 0.000000 0.000000
# 5 0.000000 0.000000 0.000000 0.000000 0.018025 0.000000
# 6 0.000000 0.000000 0.000000 0.000000 0.000000 0.059855
#
#
# Mechanical properties :
#
#
# Convention : Reuss Voigt Hill
#
# Bulk Modulus (GPa) = 53.72310 54.59519 54.15914
# Shear Modulus (GPa) = 27.97407 37.72014 32.84711
#
# Velocity S-wave (km/s) = 3.51894 4.08621 3.81314
# Velocity P-wave (km/s) = 6.34757 6.81395 6.58489
#
# Compressibility (1/GPa) = 0.01861397
#
# Stress axis : x y z
#
# Youngs Moduli (GPa) = 51.41458 51.41458 114.66901
#
# Poissons Ratio (x) = 0.53872 0.23078
# Poissons Ratio (y) = 0.53872 0.23078
# Poissons Ratio (z) = 0.10347 0.10347
#
# Static dielectric constant tensor:
#      x y z
#    x 4.124370 0.000000 0.000000 
#    y 0.000000 4.124370 0.000000 
#    z 0.000000 0.000000 4.325190 
# 
# 
# High freq. dielectric constant tensor:
#      x y z
#    x 1.886420 0.000000 0.000000 
#    y 0.000000 1.886420 0.000000 
#    z 0.000000 0.000000 1.921320 
# 
# From -- ./inp_files/107.got.cif
#   From: 2010.03.12/outbox.cif.g09.slc.cpg/sg171_1_cif.got.tgz:107.got - 2010.04.02 06:49:11.
