data_PCOD8324221
_publ_section_title
;
Structure prediction by ZEFSAII (Michael W. Deem and Ramdas Pophale) SiO2 
 PCOD8324221
Probable space group: R -3 M
;
_chemical_formula_sum "Si O2"
_cell_formula_units_Z 144
_cell_length_a 21.762518
_cell_length_b 21.762518
_cell_length_c 18.573426
_cell_angle_alpha 90.000000
_cell_angle_beta 90.000000
_cell_angle_gamma 120.000000
_cell_volume 7617.999471
_symmetry_space_group_name_H-M "R -3 M"
_symmetry_group_IT_number 166
_symmetry_cell_setting 'hexagonal'
loop_
_space_group_symop_operation_xyz
x,y,z
-y,x-y,z
-x+y,-x,z
x-y,-y,-z
-x,-x+y,-z
y,x,-z
-x,-y,-z
y,-x+y,-z
x-y,x,-z
-x+y,y,z
x,x-y,z
-y,-x,z
2/3+x,1/3+y,1/3+z
2/3-y,1/3+x-y,1/3+z
2/3-x+y,1/3-x,1/3+z
2/3+x-y,1/3-y,1/3-z
2/3-x,1/3-x+y,1/3-z
2/3+y,1/3+x,1/3-z
2/3-x,1/3-y,1/3-z
2/3+y,1/3-x+y,1/3-z
2/3+x-y,1/3+x,1/3-z
2/3-x+y,1/3+y,1/3+z
2/3+x,1/3+x-y,1/3+z
2/3-y,1/3-x,1/3+z
1/3+x,2/3+y,2/3+z
1/3-y,2/3+x-y,2/3+z
1/3-x+y,2/3-x,2/3+z
1/3+x-y,2/3-y,2/3-z
1/3-x,2/3-x+y,2/3-z
1/3+y,2/3+x,2/3-z
1/3-x,2/3-y,2/3-z
1/3+y,2/3-x+y,2/3-z
1/3+x-y,2/3+x,2/3-z
1/3-x+y,2/3+y,2/3+z
1/3+x,2/3+x-y,2/3+z
1/3-y,2/3-x,2/3+z
loop_
_atom_site_type_symbol
_atom_site_label
_atom_site_fract_x
_atom_site_fract_y
_atom_site_fract_z
Si Si1 0.270344 0.253367 0.845224
Si Si2 0.718375 0.580018 0.896938
Si Si3 0.666829 0.196262 0.248652
Si Si4 0.080889 0.471034 0.978232
O O1 0.286579 0.333334 0.833334
O O2 0.337615 0.253910 0.881434
O O3 0.204525 0.213579 0.898598
O O4 0.246262 0.209752 0.771505
O O5 0.783187 0.566374 0.899039
O O6 0.666667 0.532771 0.833334
O O7 0.679239 0.554406 0.973327
O O8 0.593693 0.187386 0.216170
O O9 0.733193 0.266808 0.215243
O O10 0.666667 0.204254 0.333334
O O11 0.109027 0.554514 0.990238
O O12 0.000000 0.425067 0.000000
#
# Coordination Sequence:
#
# PCOD8324221 Si02
#       4
#    36  36  36  36
#     4  11  23  37  59  89 122 156 194 242 304 359
#     4  11  22  37  61  89 119 157 200 242 294 354
#     4  10  22  40  62  85 116 158 201 242 288 348
#     4  11  21  38  60  83 116 157 199 242 292 354
#
# _framework density 18.902601000000001
#
# number of rings (size 3 to 8) (size 9 to 14) (size 15 to 20)
#    0.000    1.250    5.000    3.250    3.500    2.500 
#    0.000    0.000    0.000    4.500    0.000    0.000 
#    0.000    0.000    0.000    0.000    0.000    0.000 
#
# Total GULP energy -595296.401263 kJ/mol
# GULP energy per Si atom -12402.008360 kJ/mol
# Density = 1.885958 g / cm^3
# Si number density = 18.902601 Si / 1000 Ang^3
#
#
#
# Elastic Constant Matrix: (Units=GPa)
#
#
# Indices 1 2 3 4 5 6 
#
# 1 130.2942 81.0884 32.3450 -3.7885 0.0003 0.0000
# 2 81.0884 130.2942 32.3450 3.7885 -0.0003 0.0000
# 3 32.3450 32.3450 63.2444 0.0000 0.0000 0.0000
# 4 -3.7885 3.7885 0.0000 27.4430 0.0000 -0.0003
# 5 0.0003 -0.0003 0.0000 0.0000 27.4430 -3.7885
# 6 0.0000 0.0000 0.0000 -0.0003 -3.7885 24.6029
#
#
#
# Elastic Compliance Matrix: (Units=1/GPa)
#
#
# Indices 1 2 3 4 5 6 
#
# 1 0.013186 -0.007578 -0.002868 0.002867 0.000000 0.000000
# 2 -0.007578 0.013186 -0.002868 -0.002867 0.000000 0.000000
# 3 -0.002868 -0.002868 0.018746 0.000000 0.000000 0.000000
# 4 0.002867 -0.002867 0.000000 0.037231 0.000000 0.000000
# 5 0.000000 0.000000 0.000000 0.000000 0.037231 0.005733
# 6 0.000000 0.000000 0.000000 0.000000 0.005733 0.041528
#
#
# Mechanical properties :
#
#
# Convention : Reuss Voigt Hill
#
# Bulk Modulus (GPa) = 54.08553 68.37661 61.23107
# Shear Modulus (GPa) = 25.78644 27.76807 26.77725
#
# Velocity S-wave (km/s) = 3.69748 3.83692 3.76785
# Velocity P-wave (km/s) = 6.84860 7.47536 7.16883
#
# Compressibility (1/GPa) = 0.01848923
#
# Stress axis : x y z
#
# Youngs Moduli (GPa) = 75.83570 75.83570 53.34579
#
# Poissons Ratio (x) = 0.57467 0.15302
# Poissons Ratio (y) = 0.57467 0.15302
# Poissons Ratio (z) = 0.21753 0.21753
#
# Static dielectric constant tensor:
#      x y z
#    x 3.641080 0.000000 0.000000 
#    y 0.000000 3.641080 0.000000 
#    z 0.000000 0.000000 3.206990 
# 
# 
# High freq. dielectric constant tensor:
#      x y z
#    x 1.732180 0.000000 0.000000 
#    y 0.000000 1.732180 0.000000 
#    z 0.000000 0.000000 1.734930 
# 
# From -- ./inp_files/6592.got.cif
#   From: 2010.03.12/outbox.cif.g09.slc.cpg/sg166_4_cif.got.tgz:6592.got - 2010.04.02 06:38:31.
