data_PCOD8324228
_publ_section_title
;
Structure prediction by ZEFSAII (Michael W. Deem and Ramdas Pophale) SiO2 
 PCOD8324228
Probable space group: R -3 M
;
_chemical_formula_sum "Si O2"
_cell_formula_units_Z 144
_cell_length_a 30.244021
_cell_length_b 30.244021
_cell_length_c 9.663787
_cell_angle_alpha 90.000000
_cell_angle_beta 90.000000
_cell_angle_gamma 120.000000
_cell_volume 7655.208833
_symmetry_space_group_name_H-M "R -3 M"
_symmetry_group_IT_number 166
_symmetry_cell_setting 'hexagonal'
loop_
_space_group_symop_operation_xyz
x,y,z
-y,x-y,z
-x+y,-x,z
x-y,-y,-z
-x,-x+y,-z
y,x,-z
-x,-y,-z
y,-x+y,-z
x-y,x,-z
-x+y,y,z
x,x-y,z
-y,-x,z
2/3+x,1/3+y,1/3+z
2/3-y,1/3+x-y,1/3+z
2/3-x+y,1/3-x,1/3+z
2/3+x-y,1/3-y,1/3-z
2/3-x,1/3-x+y,1/3-z
2/3+y,1/3+x,1/3-z
2/3-x,1/3-y,1/3-z
2/3+y,1/3-x+y,1/3-z
2/3+x-y,1/3+x,1/3-z
2/3-x+y,1/3+y,1/3+z
2/3+x,1/3+x-y,1/3+z
2/3-y,1/3-x,1/3+z
1/3+x,2/3+y,2/3+z
1/3-y,2/3+x-y,2/3+z
1/3-x+y,2/3-x,2/3+z
1/3+x-y,2/3-y,2/3-z
1/3-x,2/3-x+y,2/3-z
1/3+y,2/3+x,2/3-z
1/3-x,2/3-y,2/3-z
1/3+y,2/3-x+y,2/3-z
1/3+x-y,2/3+x,2/3-z
1/3-x+y,2/3+y,2/3+z
1/3+x,2/3+x-y,2/3+z
1/3-y,2/3-x,2/3+z
loop_
_atom_site_type_symbol
_atom_site_label
_atom_site_fract_x
_atom_site_fract_y
_atom_site_fract_z
Si Si1 0.863893 0.380187 0.756889
Si Si2 0.033126 0.423828 0.138181
Si Si3 0.762351 0.058565 0.041171
Si Si4 0.953030 0.147748 0.104346
O O1 0.857749 0.428875 0.767006
O O2 0.816018 0.333334 0.833334
O O3 0.913698 0.390462 0.846484
O O4 0.860810 0.362933 0.596752
O O5 0.043881 0.377214 0.166667
O O6 0.997187 0.427454 0.252263
O O7 0.000000 0.413498 0.000000
O O8 0.733483 0.066817 0.166667
O O9 0.820979 0.075509 0.067765
O O10 0.732218 0.000000 0.000000
O O11 0.912537 0.087464 0.091014
O O12 0.000000 0.161022 0.000000
#
# Coordination Sequence:
#
# PCOD8324228 Si02
#       4
#    36  36  36  36
#     4  10  23  42  60  86 118 150 191 241 295 354
#     4  11  22  35  53  81 119 162 206 249 283 325
#     4  11  20  33  53  82 114 161 204 240 284 324
#     4  10  23  41  62  88 116 148 192 241 297 358
#
# _framework density 18.810721999999998
#
# number of rings (size 3 to 8) (size 9 to 14) (size 15 to 20)
#    0.000    1.500    2.500    3.000   10.500    3.000 
#    0.000    0.000    0.000    0.500    0.000    0.000 
#    0.000    0.000    0.000    0.000    0.000    0.000 
#
# Total GULP energy -594748.999155 kJ/mol
# GULP energy per Si atom -12390.604149 kJ/mol
# Density = 1.876791 g / cm^3
# Si number density = 18.810722 Si / 1000 Ang^3
#
#
#
# Elastic Constant Matrix: (Units=GPa)
#
#
# Indices 1 2 3 4 5 6 
#
# 1 77.3302 35.3703 53.7877 -2.1878 -0.0099 -0.0122
# 2 35.3703 77.2962 53.8801 2.2513 -0.0635 -0.0120
# 3 53.7877 53.8801 157.0191 -0.4441 -0.1253 -0.0284
# 4 -2.1878 2.2513 -0.4441 11.4380 0.1487 0.0845
# 5 -0.0099 -0.0635 -0.1253 0.1487 11.4370 -2.1570
# 6 -0.0122 -0.0120 -0.0284 0.0845 -2.1570 21.0043
#
#
#
# Elastic Compliance Matrix: (Units=1/GPa)
#
#
# Indices 1 2 3 4 5 6 
#
# 1 0.018732 -0.005572 -0.004492 0.004507 -0.000128 -0.000030
# 2 -0.005572 0.018809 -0.004560 -0.004947 0.000120 0.000034
# 3 -0.004492 -0.004560 0.009473 0.000405 0.000072 0.000013
# 4 0.004507 -0.004947 0.000405 0.089300 -0.001273 -0.000489
# 5 -0.000128 0.000120 0.000072 -0.001273 0.089182 0.009163
# 6 -0.000030 0.000034 0.000013 -0.000489 0.009163 0.048552
#
#
# Mechanical properties :
#
#
# Convention : Reuss Voigt Hill
#
# Bulk Modulus (GPa) = 56.28203 66.41353 61.34778
# Shear Modulus (GPa) = 16.16981 20.01634 18.09307
#
# Velocity S-wave (km/s) = 2.93508 3.26558 3.10473
# Velocity P-wave (km/s) = 6.43983 7.04284 6.74807
#
# Compressibility (1/GPa) = 0.01776766
#
# Stress axis : x y z
#
# Youngs Moduli (GPa) = 53.38417 53.16517 105.56000
#
# Poissons Ratio (x) = 0.29622 0.47420
# Poissons Ratio (y) = 0.29744 0.48131
# Poissons Ratio (z) = 0.23982 0.24241
#
# Static dielectric constant tensor:
#      x y z
#    x 3.413990 0.000030 -0.000210 
#    y 0.000030 3.413120 0.000200 
#    z -0.000210 0.000200 3.943720 
# 
# 
# High freq. dielectric constant tensor:
#      x y z
#    x 1.713430 0.000000 -0.000020 
#    y 0.000000 1.713440 0.000000 
#    z -0.000020 0.000000 1.750170 
# 
# From -- ./inp_files/1779.got.cif
#   From: 2010.03.12/outbox.cif.g09.slc.cpg/sg166_1_cif.got.tgz:1779.got - 2010.04.02 06:38:31.
