data_PCOD8324581
_publ_section_title
;
Structure prediction by ZEFSAII (Michael W. Deem and Ramdas Pophale) SiO2 
 PCOD8324581
Probable space group: P 61
;
_chemical_formula_sum "Si O2"
_cell_formula_units_Z 36
_cell_length_a 15.543476
_cell_length_b 15.543476
_cell_length_c 8.697335
_cell_angle_alpha 90.000000
_cell_angle_beta 90.000000
_cell_angle_gamma 120.000000
_cell_volume 1819.755849
_symmetry_space_group_name_H-M "P 61"
_symmetry_group_IT_number 169
_symmetry_cell_setting 'hexagonal'
loop_
_space_group_symop_operation_xyz
x,y,z
x-y,x,1/6+z
-y,x-y,1/3+z
-x,-y,1/2+z
-x+y,-x,2/3+z
y,-x+y,5/6+z
loop_
_atom_site_type_symbol
_atom_site_label
_atom_site_fract_x
_atom_site_fract_y
_atom_site_fract_z
Si Si1 0.625285 0.998667 0.790580
Si Si2 0.555116 0.871425 0.224809
Si Si3 0.805569 0.208140 0.764321
Si Si4 0.707555 0.243318 0.272021
Si Si5 0.484812 0.436291 0.779919
Si Si6 0.413374 0.659140 0.767300
O O1 0.733421 0.089864 0.738825
O O2 0.642867 0.905833 0.827148
O O3 0.548212 0.974295 0.650013
O O4 0.577240 0.024973 0.936814
O O5 0.541598 0.822378 0.392850
O O6 0.447876 0.838851 0.150141
O O7 0.601591 0.989762 0.226900
O O8 0.614216 0.837348 0.110572
O O9 0.742954 0.263396 0.727191
O O10 0.637173 0.162999 0.147674
O O11 0.686352 0.334235 0.242632
O O12 0.688030 0.206615 0.446430
#
# Coordination Sequence:
#
# PCOD8324581 Si02
#       6
#     6   6   6   6   6   6
#     4  11  23  39  57  81 118 148 197 235 290 331
#     4  11  21  36  52  72 108 151 188 230 271 327
#     4  11  22  39  55  78 111 152 189 243 275 345
#     4  12  22  34  50  74 107 149 188 225 276 327
#     4  11  23  34  53  78 109 150 189 230 271 336
#     4  12  21  32  49  77 107 144 191 223 277 326
#
# _framework density 19.782872000000001
#
# number of rings (size 3 to 8) (size 9 to 14) (size 15 to 20)
#    0.000    0.667    8.333    1.000    2.333    0.000 
#    0.000    0.000    0.000    0.000    0.000    0.000 
#   10.000    0.000    0.000    0.000    0.000    0.000 
#
# Total GULP energy -446138.546995 kJ/mol
# GULP energy per Si atom -12392.737417 kJ/mol
# Density = 1.973785 g / cm^3
# Si number density = 19.782872 Si / 1000 Ang^3
#
#
#
# Elastic Constant Matrix: (Units=GPa)
#
#
# Indices 1 2 3 4 5 6 
#
# 1 69.6986 27.1577 11.6523 0.0000 0.0000 0.0000
# 2 27.1577 69.6986 11.6523 0.0000 0.0000 0.0000
# 3 11.6523 11.6523 54.4038 0.0000 0.0000 0.0000
# 4 0.0000 0.0000 0.0000 24.6524 0.0000 0.0000
# 5 0.0000 0.0000 0.0000 0.0000 24.6524 0.0000
# 6 0.0000 0.0000 0.0000 0.0000 0.0000 21.2705
#
#
#
# Elastic Compliance Matrix: (Units=1/GPa)
#
#
# Indices 1 2 3 4 5 6 
#
# 1 0.017196 -0.006311 -0.002331 0.000000 0.000000 0.000000
# 2 -0.006311 0.017196 -0.002331 0.000000 0.000000 0.000000
# 3 -0.002331 -0.002331 0.019380 0.000000 0.000000 0.000000
# 4 0.000000 0.000000 0.000000 0.040564 0.000000 0.000000
# 5 0.000000 0.000000 0.000000 0.000000 0.040564 0.000000
# 6 0.000000 0.000000 0.000000 0.000000 0.000000 0.047014
#
#
# Mechanical properties :
#
#
# Convention : Reuss Voigt Hill
#
# Bulk Modulus (GPa) = 31.42186 32.74727 32.08457
# Shear Modulus (GPa) = 23.31339 23.67099 23.49219
#
# Velocity S-wave (km/s) = 3.43660 3.46286 3.44975
# Velocity P-wave (km/s) = 5.62715 5.70769 5.66756
#
# Compressibility (1/GPa) = 0.03182497
#
# Stress axis : x y z
#
# Youngs Moduli (GPa) = 58.15249 58.15249 51.60013
#
# Poissons Ratio (x) = 0.36698 0.12030
# Poissons Ratio (y) = 0.36698 0.12030
# Poissons Ratio (z) = 0.13558 0.13558
#
# Static dielectric constant tensor:
#      x y z
#    x 3.473340 0.000000 0.000000 
#    y 0.000000 3.473340 0.000000 
#    z 0.000000 0.000000 3.873400 
# 
# 
# High freq. dielectric constant tensor:
#      x y z
#    x 1.738640 0.000000 0.000000 
#    y 0.000000 1.738640 0.000000 
#    z 0.000000 0.000000 1.784750 
# 
# From -- ./inp_files/630.got.cif
#   From: 2010.03.12/outbox.cif.g09.slc.cpg/sg169_cif.got.tgz:630.got - 2010.04.02 06:46:06.
