data_PCOD8324043
_publ_section_title
;
Structure prediction by ZEFSAII (Michael W. Deem and Ramdas Pophale) SiO2 
 PCOD8324043
Probable space group: R -3 M
;
_chemical_formula_sum "Si O2"
_cell_formula_units_Z 144
_cell_length_a 19.888020
_cell_length_b 19.888020
_cell_length_c 27.575157
_cell_angle_alpha 90.000000
_cell_angle_beta 90.000000
_cell_angle_gamma 120.000000
_cell_volume 9445.647225
_symmetry_space_group_name_H-M "R -3 M"
_symmetry_group_IT_number 166
_symmetry_cell_setting 'hexagonal'
loop_
_space_group_symop_operation_xyz
x,y,z
-y,x-y,z
-x+y,-x,z
x-y,-y,-z
-x,-x+y,-z
y,x,-z
-x,-y,-z
y,-x+y,-z
x-y,x,-z
-x+y,y,z
x,x-y,z
-y,-x,z
2/3+x,1/3+y,1/3+z
2/3-y,1/3+x-y,1/3+z
2/3-x+y,1/3-x,1/3+z
2/3+x-y,1/3-y,1/3-z
2/3-x,1/3-x+y,1/3-z
2/3+y,1/3+x,1/3-z
2/3-x,1/3-y,1/3-z
2/3+y,1/3-x+y,1/3-z
2/3+x-y,1/3+x,1/3-z
2/3-x+y,1/3+y,1/3+z
2/3+x,1/3+x-y,1/3+z
2/3-y,1/3-x,1/3+z
1/3+x,2/3+y,2/3+z
1/3-y,2/3+x-y,2/3+z
1/3-x+y,2/3-x,2/3+z
1/3+x-y,2/3-y,2/3-z
1/3-x,2/3-x+y,2/3-z
1/3+y,2/3+x,2/3-z
1/3-x,2/3-y,2/3-z
1/3+y,2/3-x+y,2/3-z
1/3+x-y,2/3+x,2/3-z
1/3-x+y,2/3+y,2/3+z
1/3+x,2/3+x-y,2/3+z
1/3-y,2/3-x,2/3+z
loop_
_atom_site_type_symbol
_atom_site_label
_atom_site_fract_x
_atom_site_fract_y
_atom_site_fract_z
Si Si1 0.965079 0.315568 0.777306
Si Si2 0.139085 0.428986 0.942491
Si Si3 0.190604 0.809397 0.262552
Si Si4 0.544216 0.772108 0.359440
Si Si5 0.691727 0.768299 0.026294
O O1 0.872846 0.262144 0.769097
O O2 0.976354 0.333334 0.833334
O O3 0.010615 0.269940 0.765279
O O4 0.002258 0.394533 0.745620
O O5 0.210911 0.421822 0.922541
O O6 0.167598 0.518684 0.954117
O O7 0.105938 0.383569 0.992736
O O8 0.225761 0.774240 0.301142
O O9 0.149389 0.850611 0.288687
O O10 0.718127 0.859064 0.031646
O O11 0.761220 0.761220 0.000000
#
# Coordination Sequence:
#
# PCOD8324043 Si02
#       5
#    36  36  18  18  36
#     4  10  19  28  44  68  93 119 143 175 223 270
#     4   9  17  30  46  64  88 116 149 186 218 256
#     4   9  16  28  44  64  89 115 145 178 216 261
#     4   9  14  28  48  62  83 115 147 182 218 251
#     4   9  17  30  47  67  90 116 149 188 224 258
#
# _framework density 15.245117
#
# number of rings (size 3 to 8) (size 9 to 14) (size 15 to 20)
#    0.000    2.750    2.500    0.000    1.750    0.500 
#    0.750    0.000    0.000    0.250    0.000    0.000 
#    0.000    2.000    0.000    0.000    0.000    0.000 
#
# Total GULP energy -595012.344307 kJ/mol
# GULP energy per Si atom -12396.090506 kJ/mol
# Density = 1.521042 g / cm^3
# Si number density = 15.245117 Si / 1000 Ang^3
#
#
#
# Elastic Constant Matrix: (Units=GPa)
#
#
# Indices 1 2 3 4 5 6 
#
# 1 83.1644 49.4062 41.3339 -0.5458 0.0007 0.0000
# 2 49.4062 83.1644 41.3339 0.5458 -0.0007 0.0000
# 3 41.3339 41.3339 117.8198 0.0000 0.0000 0.0000
# 4 -0.5458 0.5458 0.0000 14.9142 0.0000 -0.0007
# 5 0.0007 -0.0007 0.0000 0.0000 14.9142 -0.5458
# 6 0.0000 0.0000 0.0000 -0.0007 -0.5458 16.8791
#
#
#
# Elastic Compliance Matrix: (Units=1/GPa)
#
#
# Indices 1 2 3 4 5 6 
#
# 1 0.019656 -0.010001 -0.003387 0.001085 -0.000001 0.000000
# 2 -0.010001 0.019656 -0.003387 -0.001085 0.000001 0.000000
# 3 -0.003387 -0.003387 0.010864 0.000000 0.000000 0.000000
# 4 0.001085 -0.001085 0.000000 0.067129 0.000000 0.000003
# 5 -0.000001 0.000001 0.000000 0.000000 0.067129 0.002171
# 6 0.000000 0.000000 0.000000 0.000003 0.002171 0.059315
#
#
# Mechanical properties :
#
#
# Convention : Reuss Voigt Hill
#
# Bulk Modulus (GPa) = 60.14779 60.92184 60.53482
# Shear Modulus (GPa) = 17.67756 19.47982 18.57869
#
# Velocity S-wave (km/s) = 3.40892 3.57847 3.49473
# Velocity P-wave (km/s) = 7.41847 7.55793 7.48853
#
# Compressibility (1/GPa) = 0.01662572
#
# Stress axis : x y z
#
# Youngs Moduli (GPa) = 50.87385 50.87385 92.04489
#
# Poissons Ratio (x) = 0.50879 0.31179
# Poissons Ratio (y) = 0.50879 0.31179
# Poissons Ratio (z) = 0.17233 0.17233
#
# Static dielectric constant tensor:
#      x y z
#    x 2.930490 0.000000 0.000000 
#    y 0.000000 2.930490 0.000000 
#    z 0.000000 0.000000 2.709190 
# 
# 
# High freq. dielectric constant tensor:
#      x y z
#    x 1.571740 0.000000 0.000000 
#    y 0.000000 1.571740 0.000000 
#    z 0.000000 0.000000 1.571060 
# 
# From -- ./inp_files/8069.got.cif
#   From: 2010.03.12/outbox.cif.g09.slc.cpg/sg166_5_cif.got.tgz:8069.got - 2010.04.02 06:38:31.
