data_PCOD8324540
_publ_section_title
;
Structure prediction by ZEFSAII (Michael W. Deem and Ramdas Pophale) SiO2 
 PCOD8324540
Probable space group: P 61
;
_chemical_formula_sum "Si O2"
_cell_formula_units_Z 42
_cell_length_a 14.235278
_cell_length_b 14.235278
_cell_length_c 11.227546
_cell_angle_alpha 90.000000
_cell_angle_beta 90.000000
_cell_angle_gamma 120.000000
_cell_volume 1970.368158
_symmetry_space_group_name_H-M "P 61"
_symmetry_group_IT_number 169
_symmetry_cell_setting 'hexagonal'
loop_
_space_group_symop_operation_xyz
x,y,z
x-y,x,1/6+z
-y,x-y,1/3+z
-x,-y,1/2+z
-x+y,-x,2/3+z
y,-x+y,5/6+z
loop_
_atom_site_type_symbol
_atom_site_label
_atom_site_fract_x
_atom_site_fract_y
_atom_site_fract_z
Si Si1 0.665661 0.737601 0.693680
Si Si2 0.416056 0.600787 0.352725
Si Si3 0.253973 0.877455 0.540533
Si Si4 0.120129 0.733686 0.327529
Si Si5 0.201413 0.064108 0.860310
Si Si6 0.710746 0.640056 0.896102
Si Si7 0.629235 0.187769 0.446669
O O1 0.762425 0.745736 0.616192
O O2 0.686547 0.728880 0.835296
O O3 0.650122 0.837484 0.657771
O O4 0.549261 0.632583 0.664355
O O5 0.497833 0.672710 0.247570
O O6 0.394557 0.477903 0.369998
O O7 0.466379 0.662614 0.475472
O O8 0.300367 0.591633 0.342118
O O9 0.208006 0.837327 0.405353
O O10 0.152336 0.845869 0.623996
O O11 0.332678 0.005406 0.560244
O O12 0.085780 0.755500 0.197339
O O13 0.171149 0.658875 0.304782
O O14 0.115093 0.975343 0.767875
#
# Coordination Sequence:
#
# PCOD8324540 Si02
#       7
#     6   6   6   6   6   6   6
#     4  11  21  41  67  93 131 171 223 279 331 410
#     4  10  22  39  64  99 129 177 220 276 345 416
#     4  12  24  43  68  96 140 179 229 282 349 406
#     4  11  24  43  64  97 138 176 224 284 340 407
#     4  12  25  47  67  99 131 176 233 288 339 415
#     4  10  22  40  65  94 133 172 225 274 341 408
#     4  10  22  41  65 100 136 171 228 275 345 424
#
# _framework density 21.315814
#
# number of rings (size 3 to 8) (size 9 to 14) (size 15 to 20)
#    0.000    1.143    2.857    3.429    2.000    0.000 
#    5.143    0.000    0.000    0.000    0.000    0.000 
#    0.000    0.000    0.000    0.000    0.000    0.000 
#
# Total GULP energy -520369.097464 kJ/mol
# GULP energy per Si atom -12389.740416 kJ/mol
# Density = 2.126730 g / cm^3
# Si number density = 21.315814 Si / 1000 Ang^3
#
#
#
# Elastic Constant Matrix: (Units=GPa)
#
#
# Indices 1 2 3 4 5 6 
#
# 1 77.8213 24.4932 33.5793 0.0000 0.0000 0.0000
# 2 24.4932 77.8213 33.5793 0.0000 0.0000 0.0000
# 3 33.5793 33.5793 123.7939 0.0000 0.0000 0.0000
# 4 0.0000 0.0000 0.0000 40.2400 0.0000 0.0000
# 5 0.0000 0.0000 0.0000 0.0000 40.2400 0.0000
# 6 0.0000 0.0000 0.0000 0.0000 0.0000 26.6640
#
#
#
# Elastic Compliance Matrix: (Units=1/GPa)
#
#
# Indices 1 2 3 4 5 6 
#
# 1 0.015321 -0.003430 -0.003225 0.000000 0.000000 0.000000
# 2 -0.003430 0.015321 -0.003225 0.000000 0.000000 0.000000
# 3 -0.003225 -0.003225 0.009828 0.000000 0.000000 0.000000
# 4 0.000000 0.000000 0.000000 0.024851 0.000000 0.000000
# 5 0.000000 0.000000 0.000000 0.000000 0.024851 0.000000
# 6 0.000000 0.000000 0.000000 0.000000 0.000000 0.037504
#
#
# Mechanical properties :
#
#
# Convention : Reuss Voigt Hill
#
# Bulk Modulus (GPa) = 48.29078 51.41558 49.85318
# Shear Modulus (GPa) = 32.39573 33.94778 33.17176
#
# Velocity S-wave (km/s) = 3.90269 3.99508 3.94915
# Velocity P-wave (km/s) = 6.55836 6.74197 6.65080
#
# Compressibility (1/GPa) = 0.02070789
#
# Stress axis : x y z
#
# Youngs Moduli (GPa) = 65.26819 65.26819 101.75265
#
# Poissons Ratio (x) = 0.22390 0.32820
# Poissons Ratio (y) = 0.22390 0.32820
# Poissons Ratio (z) = 0.21052 0.21052
#
# Static dielectric constant tensor:
#      x y z
#    x 3.847330 0.000000 0.000000 
#    y 0.000000 3.847330 0.000000 
#    z 0.000000 0.000000 4.119390 
# 
# 
# High freq. dielectric constant tensor:
#      x y z
#    x 1.835530 0.000000 0.000000 
#    y 0.000000 1.835530 0.000000 
#    z 0.000000 0.000000 1.846930 
# 
# From -- ./inp_files/989.got.cif
#   From: 2010.03.12/outbox.cif.g09.slc.cpg/sg169_cif.got.tgz:989.got - 2010.04.02 06:46:06.
