data_PCOD8324720
_publ_section_title
;
Structure prediction by ZEFSAII (Michael W. Deem and Ramdas Pophale) SiO2 
 PCOD8324720
Probable space group: P 65
;
_chemical_formula_sum "Si O2"
_cell_formula_units_Z 42
_cell_length_a 8.866643
_cell_length_b 8.866643
_cell_length_c 27.335880
_cell_angle_alpha 90.000000
_cell_angle_beta 90.000000
_cell_angle_gamma 120.000000
_cell_volume 1861.153256
_symmetry_space_group_name_H-M "P 65"
_symmetry_group_IT_number 170
_symmetry_cell_setting 'hexagonal'
loop_
_space_group_symop_operation_xyz
x,y,z
x-y,x,5/6+z
-y,x-y,2/3+z
-x,-y,1/2+z
-x+y,-x,1/3+z
y,-x+y,1/6+z
loop_
_atom_site_type_symbol
_atom_site_label
_atom_site_fract_x
_atom_site_fract_y
_atom_site_fract_z
Si Si1 0.317196 0.573584 0.737140
Si Si2 0.743613 0.426416 0.351300
Si Si3 0.000000 0.401851 0.210887
Si Si4 0.090088 0.336107 0.536646
Si Si5 0.071542 0.192956 0.437664
Si Si6 0.071542 0.878586 0.484109
Si Si7 0.336108 0.090088 0.218460
O O1 0.300720 0.601439 0.794220
O O2 0.160867 0.564690 0.705101
O O3 0.329656 0.399175 0.732516
O O4 0.478638 0.739317 0.713277
O O5 0.596177 0.435310 0.383338
O O6 0.739321 0.260683 0.375162
O O7 0.930481 0.600825 0.355924
O O8 0.967611 0.275757 0.257133
O O9 0.032389 0.308145 0.164640
O O10 0.033791 0.296870 0.479825
O O11 0.148507 0.202294 0.557651
O O12 0.025430 0.012715 0.460886
O O13 0.033792 0.736922 0.441948
O O14 0.946212 0.797705 0.530788
#
# Coordination Sequence:
#
# PCOD8324720 Si02
#       7
#     6   6   6   6   6   6   6
#     4  12  29  49  73 109 150 195 251 307 378 448
#     4  12  29  49  73 109 150 195 251 307 378 448
#     4  12  26  46  76 104 148 196 242 306 374 446
#     4  12  28  48  76 108 149 194 248 309 369 456
#     4  12  25  48  77 109 147 193 248 306 381 441
#     4  12  25  48  77 109 147 193 248 306 381 441
#     4  12  28  48  76 108 149 194 248 309 369 456
#
# _framework density 22.566652000000001
#
# number of rings (size 3 to 8) (size 9 to 14) (size 15 to 20)
#    0.000    0.000    5.714    2.571    8.000    0.000 
#    0.000    0.000    0.000    0.000    0.000    0.000 
#    0.000    0.000    0.000    0.000    0.000    0.000 
#
# Total GULP energy -520797.880837 kJ/mol
# GULP energy per Si atom -12399.949544 kJ/mol
# Density = 2.251529 g / cm^3
# Si number density = 22.566652 Si / 1000 Ang^3
#
#
#
# Elastic Constant Matrix: (Units=GPa)
#
#
# Indices 1 2 3 4 5 6 
#
# 1 144.9149 60.6261 29.2613 0.0000 0.0000 0.0000
# 2 60.6261 144.9149 29.2613 0.0000 0.0000 0.0000
# 3 29.2613 29.2613 93.4830 0.0000 0.0000 0.0000
# 4 0.0000 0.0000 0.0000 36.7853 0.0000 0.0000
# 5 0.0000 0.0000 0.0000 0.0000 36.7853 0.0000
# 6 0.0000 0.0000 0.0000 0.0000 0.0000 42.1444
#
#
#
# Elastic Compliance Matrix: (Units=1/GPa)
#
#
# Indices 1 2 3 4 5 6 
#
# 1 0.008603 -0.003261 -0.001672 0.000000 0.000000 0.000000
# 2 -0.003261 0.008603 -0.001672 0.000000 0.000000 0.000000
# 3 -0.001672 -0.001672 0.011744 0.000000 0.000000 0.000000
# 4 0.000000 0.000000 0.000000 0.027185 0.000000 0.000000
# 5 0.000000 0.000000 0.000000 0.000000 0.027185 0.000000
# 6 0.000000 0.000000 0.000000 0.000000 0.000000 0.023728
#
#
# Mechanical properties :
#
#
# Convention : Reuss Voigt Hill
#
# Bulk Modulus (GPa) = 63.53745 69.06779 66.30262
# Shear Modulus (GPa) = 39.83974 40.75397 40.29685
#
# Velocity S-wave (km/s) = 4.20625 4.25424 4.23032
# Velocity P-wave (km/s) = 7.19769 7.40297 7.30105
#
# Compressibility (1/GPa) = 0.01573875
#
# Stress axis : x y z
#
# Youngs Moduli (GPa) = 116.24392 116.24392 85.15161
#
# Poissons Ratio (x) = 0.37911 0.14236
# Poissons Ratio (y) = 0.37911 0.14236
# Poissons Ratio (z) = 0.19434 0.19434
#
# Static dielectric constant tensor:
#      x y z
#    x 4.208920 0.000000 0.000000 
#    y 0.000000 4.208920 0.000000 
#    z 0.000000 0.000000 4.296610 
# 
# 
# High freq. dielectric constant tensor:
#      x y z
#    x 1.902460 0.000000 0.000000 
#    y 0.000000 1.902460 0.000000 
#    z 0.000000 0.000000 1.891480 
# 
# From -- ./inp_files/1935.got.cif
#   From: 2010.03.12/outbox.cif.g09.slc.cpg/sg170_cif.got.tgz:1935.got - 2010.04.02 06:47:37.
