data_PCOD8324285
_publ_section_title
;
Structure prediction by ZEFSAII (Michael W. Deem and Ramdas Pophale) SiO2 
 PCOD8324285
Probable space group: R -3 C 
;
_chemical_formula_sum "Si O2"
_cell_formula_units_Z 270
_cell_length_a 26.131618
_cell_length_b 26.131618
_cell_length_c 26.469158
_cell_angle_alpha 90.000000
_cell_angle_beta 90.000000
_cell_angle_gamma 120.000000
_cell_volume 15653.208133
_symmetry_space_group_name_H-M "R -3 C "
_symmetry_group_IT_number 167
_symmetry_cell_setting 'hexagonal'
loop_
_space_group_symop_operation_xyz
x,y,z
-y,x-y,z
-x+y,-x,z
x-y,-y,1/2-z
-x,-x+y,1/2-z
y,x,1/2-z
-x,-y,-z
y,-x+y,-z
x-y,x,-z
-x+y,y,1/2+z
x,x-y,1/2+z
-y,-x,1/2+z
2/3+x,1/3+y,1/3+z
2/3-y,1/3+x-y,1/3+z
2/3-x+y,1/3-x,1/3+z
2/3+x-y,1/3-y,5/6-z
2/3-x,1/3-x+y,5/6-z
2/3+y,1/3+x,5/6-z
2/3-x,1/3-y,1/3-z
2/3+y,1/3-x+y,1/3-z
2/3+x-y,1/3+x,1/3-z
2/3-x+y,1/3+y,5/6+z
2/3+x,1/3+x-y,5/6+z
2/3-y,1/3-x,5/6+z
1/3+x,2/3+y,2/3+z
1/3-y,2/3+x-y,2/3+z
1/3-x+y,2/3-x,2/3+z
1/3+x-y,2/3-y,1/6-z
1/3-x,2/3-x+y,1/6-z
1/3+y,2/3+x,1/6-z
1/3-x,2/3-y,2/3-z
1/3+y,2/3-x+y,2/3-z
1/3+x-y,2/3+x,2/3-z
1/3-x+y,2/3+y,1/6+z
1/3+x,2/3+x-y,1/6+z
1/3-y,2/3-x,1/6+z
loop_
_atom_site_type_symbol
_atom_site_label
_atom_site_fract_x
_atom_site_fract_y
_atom_site_fract_z
Si Si1 0.030797 0.612640 0.107570
Si Si2 0.416881 0.184559 0.013675
Si Si3 0.098799 0.643470 0.363269
Si Si4 0.194947 0.927371 0.574562
Si Si5 0.461332 0.515292 0.642792
Si Si6 0.214424 0.214424 0.250000
Si Si7 0.921298 0.498758 0.963091
Si Si8 0.621194 0.871954 0.835706
O O1 0.078508 0.681176 0.108731
O O2 0.055895 0.577525 0.139053
O O3 0.017932 0.591495 0.049568
O O4 0.968728 0.599361 0.132353
O O5 0.433605 0.252179 0.013428
O O6 0.347221 0.141651 0.024329
O O7 0.455550 0.177381 0.058738
O O8 0.435386 0.168725 0.959243
O O9 0.131717 0.666667 0.416667
O O10 0.134716 0.691437 0.320420
O O11 0.207696 0.874363 0.583334
O O12 0.150558 0.906171 0.526783
O O13 0.418207 0.510212 0.596646
O O14 0.258916 0.236058 0.202163
O O15 0.906049 0.436938 0.990977
O O16 0.992269 0.535520 0.964908
#
# Coordination Sequence:
#
# PCOD8324285 Si02
#       8
#    36  36  36  36  36  18  36  36
#     4  10  19  33  51  71  98 143 172 203 251 300
#     4  10  21  33  48  72 102 133 166 212 256 295
#     4  11  20  32  51  75 104 133 169 209 253 304
#     4  10  20  34  48  68 100 137 172 208 250 300
#     4   9  20  34  48  69 102 133 170 216 250 284
#     4  12  18  30  52  72  96 126 168 212 242 296
#     4  10  19  33  49  74 100 130 167 211 250 295
#     4  10  19  31  51  72 100 128 167 211 248 291
#
# _framework density 17.248860000000001
#
# number of rings (size 3 to 8) (size 9 to 14) (size 15 to 20)
#    0.000    1.867    4.000    1.200    0.000    1.067 
#    0.000    1.333    0.000    0.000    0.000    0.000 
#   18.000    0.000    0.000    3.867    0.000    0.000 
#
# Total GULP energy -1115304.382371 kJ/mol
# GULP energy per Si atom -12392.270915 kJ/mol
# Density = 1.720960 g / cm^3
# Si number density = 17.248860 Si / 1000 Ang^3
#
#
#
# Elastic Constant Matrix: (Units=GPa)
#
#
# Indices 1 2 3 4 5 6 
#
# 1 58.7609 15.5433 27.8276 4.1959 0.0000 0.0000
# 2 15.5433 58.7609 27.8276 -4.1959 0.0000 0.0000
# 3 27.8276 27.8276 105.4077 0.0000 0.0000 0.0000
# 4 4.1959 -4.1959 0.0000 25.6500 0.0000 0.0000
# 5 0.0000 0.0000 0.0000 0.0000 25.6500 4.1959
# 6 0.0000 0.0000 0.0000 0.0000 4.1959 21.6088
#
#
#
# Elastic Compliance Matrix: (Units=1/GPa)
#
#
# Indices 1 2 3 4 5 6 
#
# 1 0.020337 -0.003561 -0.004429 -0.003909 0.000000 0.000000
# 2 -0.003561 0.020337 -0.004429 0.003909 0.000000 0.000000
# 3 -0.004429 -0.004429 0.011825 0.000000 0.000000 0.000000
# 4 -0.003909 0.003909 0.000000 0.040265 0.000000 0.000000
# 5 0.000000 0.000000 0.000000 0.000000 0.040265 -0.007819
# 6 0.000000 0.000000 0.000000 0.000000 -0.007819 0.047796
#
#
# Mechanical properties :
#
#
# Convention : Reuss Voigt Hill
#
# Bulk Modulus (GPa) = 36.15165 40.59185 38.37175
# Shear Modulus (GPa) = 23.26854 24.69716 23.98285
#
# Velocity S-wave (km/s) = 3.67684 3.78804 3.73285
# Velocity P-wave (km/s) = 6.24739 6.53578 6.39321
#
# Compressibility (1/GPa) = 0.02766126
#
# Stress axis : x y z
#
# Youngs Moduli (GPa) = 49.17247 49.17247 84.56429
#
# Poissons Ratio (x) = 0.17511 0.37451
# Poissons Ratio (y) = 0.17511 0.37451
# Poissons Ratio (z) = 0.21777 0.21777
#
# Static dielectric constant tensor:
#      x y z
#    x 2.984700 0.000000 0.000000 
#    y 0.000000 2.984700 0.000000 
#    z 0.000000 0.000000 3.527990 
# 
# 
# High freq. dielectric constant tensor:
#      x y z
#    x 1.631980 0.000000 0.000000 
#    y 0.000000 1.631980 0.000000 
#    z 0.000000 0.000000 1.686400 
# 
# From -- ./inp_files/6500.got.cif
#   From: 2010.03.12/outbox.cif.g09.slc.cpg/sg167_4_cif.got.tgz:6500.got - 2010.04.02 06:42:56.
