data_PCOD8324653
_publ_section_title
;
Structure prediction by ZEFSAII (Michael W. Deem and Ramdas Pophale) SiO2 
 PCOD8324653
Probable space group: P 65
;
_chemical_formula_sum "Si O2"
_cell_formula_units_Z 42
_cell_length_a 17.936432
_cell_length_b 17.936432
_cell_length_c 7.590556
_cell_angle_alpha 90.000000
_cell_angle_beta 90.000000
_cell_angle_gamma 120.000000
_cell_volume 2114.834230
_symmetry_space_group_name_H-M "P 65"
_symmetry_group_IT_number 170
_symmetry_cell_setting 'hexagonal'
loop_
_space_group_symop_operation_xyz
x,y,z
x-y,x,5/6+z
-y,x-y,2/3+z
-x,-y,1/2+z
-x+y,-x,1/3+z
y,-x+y,1/6+z
loop_
_atom_site_type_symbol
_atom_site_label
_atom_site_fract_x
_atom_site_fract_y
_atom_site_fract_z
Si Si1 0.398736 0.115267 0.083190
Si Si2 0.955219 0.829680 0.465752
Si Si3 0.430686 0.024147 0.394816
Si Si4 0.091124 0.321938 0.440519
Si Si5 0.636944 0.754390 0.723406
Si Si6 0.426994 0.019886 0.797711
Si Si7 0.751208 0.923545 0.355963
O O1 0.417575 0.088328 0.271176
O O2 0.417639 0.212680 0.110461
O O3 0.453250 0.101279 0.928830
O O4 0.298171 0.063362 0.024089
O O5 0.904891 0.849849 0.620993
O O6 0.944288 0.735402 0.492740
O O7 0.914868 0.827974 0.271654
O O8 0.438095 0.053994 0.597691
O O9 0.348020 0.930049 0.371639
O O10 0.514757 0.022149 0.335018
O O11 0.142001 0.358765 0.259423
O O12 0.156154 0.316682 0.578996
O O13 0.054297 0.383258 0.506658
O O14 0.009940 0.224412 0.406065
#
# Coordination Sequence:
#
# PCOD8324653 Si02
#       7
#     6   6   6   6   6   6   6
#     4  10  22  35  59  90 122 159 196 255 304 372
#     4  11  22  39  51  73 113 167 212 262 310 365
#     4  11  21  40  62  97 120 158 202 268 313 376
#     4  10  22  36  58  94 118 161 204 263 305 368
#     4  10  23  36  60  88 120 157 206 256 314 372
#     4  10  22  38  64  91 126 151 208 255 323 371
#     4  10  20  36  58  81 123 155 210 253 311 352
#
# _framework density 19.859712999999999
#
# number of rings (size 3 to 8) (size 9 to 14) (size 15 to 20)
#    0.000    1.714    2.857    1.714   14.000    0.000 
#    2.571    0.000    0.000    0.000   11.143    0.000 
#    0.000    0.000    0.000    0.000    0.000    0.000 
#
# Total GULP energy -520407.930673 kJ/mol
# GULP energy per Si atom -12390.665016 kJ/mol
# Density = 1.981451 g / cm^3
# Si number density = 19.859713 Si / 1000 Ang^3
#
#
#
# Elastic Constant Matrix: (Units=GPa)
#
#
# Indices 1 2 3 4 5 6 
#
# 1 67.6680 18.7873 24.1593 0.0000 0.0000 0.0000
# 2 18.7873 67.6680 24.1593 0.0000 0.0000 0.0000
# 3 24.1593 24.1593 94.1031 0.0000 0.0000 0.0000
# 4 0.0000 0.0000 0.0000 30.7974 0.0000 0.0000
# 5 0.0000 0.0000 0.0000 0.0000 30.7974 0.0000
# 6 0.0000 0.0000 0.0000 0.0000 0.0000 24.4403
#
#
#
# Elastic Compliance Matrix: (Units=1/GPa)
#
#
# Indices 1 2 3 4 5 6 
#
# 1 0.016981 -0.003477 -0.003467 0.000000 0.000000 0.000000
# 2 -0.003477 0.016981 -0.003467 0.000000 0.000000 0.000000
# 3 -0.003467 -0.003467 0.012407 0.000000 0.000000 0.000000
# 4 0.000000 0.000000 0.000000 0.032470 0.000000 0.000000
# 5 0.000000 0.000000 0.000000 0.000000 0.032470 0.000000
# 6 0.000000 0.000000 0.000000 0.000000 0.000000 0.040916
#
#
# Mechanical properties :
#
#
# Convention : Reuss Voigt Hill
#
# Bulk Modulus (GPa) = 39.14278 40.40564 39.77421
# Shear Modulus (GPa) = 27.53866 28.02926 27.78396
#
# Velocity S-wave (km/s) = 3.72783 3.76089 3.74439
# Velocity P-wave (km/s) = 6.18719 6.26488 6.22616
#
# Compressibility (1/GPa) = 0.02554750
#
# Stress axis : x y z
#
# Youngs Moduli (GPa) = 58.88884 58.88884 80.60086
#
# Poissons Ratio (x) = 0.20475 0.27944
# Poissons Ratio (y) = 0.20475 0.27944
# Poissons Ratio (z) = 0.20417 0.20417
#
# Static dielectric constant tensor:
#      x y z
#    x 3.468530 0.000000 0.000000 
#    y 0.000000 3.468530 0.000000 
#    z 0.000000 0.000000 3.880110 
# 
# 
# High freq. dielectric constant tensor:
#      x y z
#    x 1.747180 0.000000 0.000000 
#    y 0.000000 1.747180 0.000000 
#    z 0.000000 0.000000 1.792200 
# 
# From -- ./inp_files/700.got.cif
#   From: 2010.03.12/outbox.cif.g09.slc.cpg/sg170_cif.got.tgz:700.got - 2010.04.02 06:47:37.
