data_PCOD8324126
_publ_section_title
;
Structure prediction by ZEFSAII (Michael W. Deem and Ramdas Pophale) SiO2 
 PCOD8324126
Probable space group: R -3 M
;
_chemical_formula_sum "Si O2"
_cell_formula_units_Z 216
_cell_length_a 22.434124
_cell_length_b 22.434124
_cell_length_c 27.162334
_cell_angle_alpha 90.000000
_cell_angle_beta 90.000000
_cell_angle_gamma 120.000000
_cell_volume 11839.025307
_symmetry_space_group_name_H-M "R -3 M"
_symmetry_group_IT_number 166
_symmetry_cell_setting 'hexagonal'
loop_
_space_group_symop_operation_xyz
x,y,z
-y,x-y,z
-x+y,-x,z
x-y,-y,-z
-x,-x+y,-z
y,x,-z
-x,-y,-z
y,-x+y,-z
x-y,x,-z
-x+y,y,z
x,x-y,z
-y,-x,z
2/3+x,1/3+y,1/3+z
2/3-y,1/3+x-y,1/3+z
2/3-x+y,1/3-x,1/3+z
2/3+x-y,1/3-y,1/3-z
2/3-x,1/3-x+y,1/3-z
2/3+y,1/3+x,1/3-z
2/3-x,1/3-y,1/3-z
2/3+y,1/3-x+y,1/3-z
2/3+x-y,1/3+x,1/3-z
2/3-x+y,1/3+y,1/3+z
2/3+x,1/3+x-y,1/3+z
2/3-y,1/3-x,1/3+z
1/3+x,2/3+y,2/3+z
1/3-y,2/3+x-y,2/3+z
1/3-x+y,2/3-x,2/3+z
1/3+x-y,2/3-y,2/3-z
1/3-x,2/3-x+y,2/3-z
1/3+y,2/3+x,2/3-z
1/3-x,2/3-y,2/3-z
1/3+y,2/3-x+y,2/3-z
1/3+x-y,2/3+x,2/3-z
1/3-x+y,2/3+y,2/3+z
1/3+x,2/3+x-y,2/3+z
1/3-y,2/3-x,2/3+z
loop_
_atom_site_type_symbol
_atom_site_label
_atom_site_fract_x
_atom_site_fract_y
_atom_site_fract_z
Si Si1 0.789995 0.075175 0.363968
Si Si2 0.076411 0.289411 0.751845
Si Si3 0.259074 0.874640 0.289440
Si Si4 0.726818 0.795238 0.209093
Si Si5 0.531328 0.333324 0.277767
Si Si6 0.979277 0.732689 0.896891
O O1 0.863799 0.136202 0.382270
O O2 0.780751 0.081833 0.306376
O O3 0.728210 0.076563 0.392173
O O4 0.784193 0.001925 0.375957
O O5 0.141353 0.282706 0.770676
O O6 0.077376 0.355218 0.776191
O O7 0.005463 0.221087 0.768413
O O8 0.205993 0.794008 0.296967
O O9 0.252083 0.918750 0.333334
O O10 0.247015 0.902622 0.238473
O O11 0.754613 0.877307 0.213003
O O12 0.705560 0.767160 0.153954
O O13 0.519680 0.259840 0.262590
O O14 0.611661 0.388340 0.273139
O O15 0.505823 0.333334 0.333334
O O16 0.488309 0.350618 0.240043
#
# Coordination Sequence:
#
# PCOD8324126 Si02
#       6
#    36  36  36  36  36  36
#     4  11  21  35  57  86 115 147 187 234 285 338
#     4  11  23  37  57  84 115 150 191 235 281 337
#     4  10  19  36  60  82 107 147 191 232 280 338
#     4  11  23  38  57  81 110 145 189 235 281 339
#     4  10  20  34  52  73 102 147 199 242 277 323
#     4  12  22  36  53  82 115 148 182 230 295 342
#
# _framework density 18.244745000000002
#
# number of rings (size 3 to 8) (size 9 to 14) (size 15 to 20)
#    0.000    1.167    3.333    4.167    0.000    5.333 
#    0.000    0.000    0.000    0.667    0.000    0.000 
#    0.000    0.000    0.000    5.333    0.000    1.333 
#
# Total GULP energy -892920.000967 kJ/mol
# GULP energy per Si atom -12401.666680 kJ/mol
# Density = 1.820322 g / cm^3
# Si number density = 18.244745 Si / 1000 Ang^3
#
#
#
# Elastic Constant Matrix: (Units=GPa)
#
#
# Indices 1 2 3 4 5 6 
#
# 1 103.6362 54.4879 21.6199 2.9428 0.0001 0.0000
# 2 54.4879 103.6362 21.6199 -2.9428 -0.0001 0.0000
# 3 21.6199 21.6199 80.9302 0.0000 0.0000 0.0000
# 4 2.9428 -2.9428 0.0000 22.8569 0.0000 -0.0001
# 5 0.0001 -0.0001 0.0000 0.0000 22.8569 2.9428
# 6 0.0000 0.0000 0.0000 -0.0001 2.9428 24.5742
#
#
#
# Elastic Compliance Matrix: (Units=1/GPa)
#
#
# Indices 1 2 3 4 5 6 
#
# 1 0.013744 -0.006921 -0.001823 -0.002661 0.000000 0.000000
# 2 -0.006921 0.013744 -0.001823 0.002661 0.000000 0.000000
# 3 -0.001823 -0.001823 0.013330 0.000000 0.000000 0.000000
# 4 -0.002661 0.002661 0.000000 0.044436 0.000000 0.000000
# 5 0.000000 0.000000 0.000000 0.000000 0.044436 -0.005321
# 6 0.000000 0.000000 0.000000 0.000000 -0.005321 0.041330
#
#
# Mechanical properties :
#
#
# Convention : Reuss Voigt Hill
#
# Bulk Modulus (GPa) = 50.80055 53.73978 52.27016
# Shear Modulus (GPa) = 25.16177 26.75590 25.95884
#
# Velocity S-wave (km/s) = 3.71768 3.83364 3.77611
# Velocity P-wave (km/s) = 6.80681 7.00818 6.90823
#
# Compressibility (1/GPa) = 0.01968483
#
# Stress axis : x y z
#
# Youngs Moduli (GPa) = 72.75972 72.75972 75.01816
#
# Poissons Ratio (x) = 0.50359 0.13673
# Poissons Ratio (y) = 0.50359 0.13673
# Poissons Ratio (z) = 0.13261 0.13261
#
# Static dielectric constant tensor:
#      x y z
#    x 3.452660 0.000000 0.000000 
#    y 0.000000 3.452660 0.000000 
#    z 0.000000 0.000000 3.451810 
# 
# 
# High freq. dielectric constant tensor:
#      x y z
#    x 1.697920 0.000000 0.000000 
#    y 0.000000 1.697920 0.000000 
#    z 0.000000 0.000000 1.714080 
# 
# From -- ./inp_files/9707.got.cif
#   From: 2010.03.12/outbox.cif.g09.slc.cpg/sg166_5_cif.got.tgz:9707.got - 2010.04.02 06:38:31.
