data_PCOD8324343
_publ_section_title
;
Structure prediction by ZEFSAII (Michael W. Deem and Ramdas Pophale) SiO2 
 PCOD8324343
Probable space group: R -3 C 
;
_chemical_formula_sum "Si O2"
_cell_formula_units_Z 138
_cell_length_a 16.454761
_cell_length_b 16.454761
_cell_length_c 28.088190
_cell_angle_alpha 90.000000
_cell_angle_beta 90.000000
_cell_angle_gamma 120.000000
_cell_volume 6586.239865
_symmetry_space_group_name_H-M "R -3 C "
_symmetry_group_IT_number 167
_symmetry_cell_setting 'hexagonal'
loop_
_space_group_symop_operation_xyz
x,y,z
-y,x-y,z
-x+y,-x,z
x-y,-y,1/2-z
-x,-x+y,1/2-z
y,x,1/2-z
-x,-y,-z
y,-x+y,-z
x-y,x,-z
-x+y,y,1/2+z
x,x-y,1/2+z
-y,-x,1/2+z
2/3+x,1/3+y,1/3+z
2/3-y,1/3+x-y,1/3+z
2/3-x+y,1/3-x,1/3+z
2/3+x-y,1/3-y,5/6-z
2/3-x,1/3-x+y,5/6-z
2/3+y,1/3+x,5/6-z
2/3-x,1/3-y,1/3-z
2/3+y,1/3-x+y,1/3-z
2/3+x-y,1/3+x,1/3-z
2/3-x+y,1/3+y,5/6+z
2/3+x,1/3+x-y,5/6+z
2/3-y,1/3-x,5/6+z
1/3+x,2/3+y,2/3+z
1/3-y,2/3+x-y,2/3+z
1/3-x+y,2/3-x,2/3+z
1/3+x-y,2/3-y,1/6-z
1/3-x,2/3-x+y,1/6-z
1/3+y,2/3+x,1/6-z
1/3-x,2/3-y,2/3-z
1/3+y,2/3-x+y,2/3-z
1/3+x-y,2/3+x,2/3-z
1/3-x+y,2/3+y,1/6+z
1/3+x,2/3+x-y,1/6+z
1/3-y,2/3-x,1/6+z
loop_
_atom_site_type_symbol
_atom_site_label
_atom_site_fract_x
_atom_site_fract_y
_atom_site_fract_z
Si Si1 0.619139 0.488559 0.033542
Si Si2 0.965085 0.298418 0.916667
Si Si3 0.666668 0.333334 0.390923
Si Si4 0.565878 0.151069 0.217803
Si Si5 0.018295 0.267012 0.333803
O O1 0.666667 0.491015 0.083334
O O2 0.607689 0.579794 0.029021
O O3 0.683719 0.474348 0.995360
O O4 0.515827 0.400971 0.027899
O O5 0.956010 0.198876 0.910092
O O6 0.004526 0.369688 0.872330
O O7 0.666668 0.333335 0.333334
O O8 0.698759 0.436472 0.411677
O O9 0.610425 0.086250 0.203653
#
# Coordination Sequence:
#
# PCOD8324343 Si02
#       5
#    36  18  12  36  36
#     4  10  21  38  67  96 129 175 214 283 337 384
#     4  10  24  40  66 100 132 186 216 280 340 410
#     4  12  27  48  67  95 133 177 225 288 340 416
#     4  11  23  45  66  97 135 176 228 276 348 408
#     4  10  21  40  63  94 139 166 227 274 331 403
#
# _framework density 20.952774999999999
#
# number of rings (size 3 to 8) (size 9 to 14) (size 15 to 20)
#    0.000    1.565    2.609    1.565    1.826    2.087 
#    4.696    0.000    0.000    0.000    0.000    0.000 
#    0.000    0.000    0.000    0.000    0.000    0.000 
#
# Total GULP energy -570325.194155 kJ/mol
# GULP energy per Si atom -12398.373786 kJ/mol
# Density = 2.090509 g / cm^3
# Si number density = 20.952775 Si / 1000 Ang^3
#
#
#
# Elastic Constant Matrix: (Units=GPa)
#
#
# Indices 1 2 3 4 5 6 
#
# 1 49.2921 54.4593 44.0409 34.5126 0.0000 0.0000
# 2 54.4593 49.2933 44.0409 -34.5112 0.0000 0.0000
# 3 44.0409 44.0409 129.5948 0.0005 0.0000 0.0000
# 4 34.5126 -34.5112 0.0005 -7.5358 0.0000 0.0000
# 5 0.0000 0.0000 0.0000 0.0000 -7.5321 34.5081
# 6 0.0000 0.0000 0.0000 0.0000 34.5081 -2.5794
#
#
#
# Elastic Compliance Matrix: (Units=1/GPa)
#
#
# Indices 1 2 3 4 5 6 
#
# 1 0.008381 0.005165 -0.004604 0.014729 0.000000 0.000000
# 2 0.005165 0.008382 -0.004604 -0.014728 0.000000 0.000000
# 3 -0.004604 -0.004604 0.010845 0.000000 0.000000 0.000000
# 4 0.014729 -0.014728 0.000000 0.002205 0.000000 0.000000
# 5 0.000000 0.000000 0.000000 0.000000 0.002202 0.029459
# 6 0.000000 0.000000 0.000000 0.000000 0.029459 0.006430
#
#
# Mechanical properties :
#
#
# Convention : Reuss Voigt Hill
#
# Bulk Modulus (GPa) = 51.21862 57.02914 54.12388
# Shear Modulus (GPa) = 94.27367 2.17981 48.22674
#
# Velocity S-wave (km/s) = 6.71499 1.02108 4.80280
# Velocity P-wave (km/s) = 9.19888 5.35417 7.52617
#
# Compressibility (1/GPa) = 0.01952415
#
# Stress axis : x y z
#
# Youngs Moduli (GPa) = 119.31482 119.30980 92.20559
#
# Poissons Ratio (x) = -0.61628 0.42448
# Poissons Ratio (y) = -0.61630 0.42448
# Poissons Ratio (z) = 0.54928 0.54926
#
# Static dielectric constant tensor:
#      x y z
#    x 3.969640 0.000000 0.000000 
#    y 0.000000 3.969630 0.000000 
#    z 0.000000 0.000000 4.438190 
# 
# 
# High freq. dielectric constant tensor:
#      x y z
#    x 1.825180 0.000000 0.000000 
#    y 0.000000 1.825180 0.000000 
#    z 0.000000 0.000000 1.817210 
# 
# From -- ./inp_files/6082.got.cif
#   From: 2010.03.12/outbox.cif.g09.slc.cpg/sg167_4_cif.got.tgz:6082.got - 2010.04.02 06:42:56.
