data_PCOD8324912
_publ_section_title
;
Structure prediction by ZEFSAII (Michael W. Deem and Ramdas Pophale) SiO2 
 PCOD8324912
Probable space group: P -6
;
_chemical_formula_sum "Si O2"
_cell_formula_units_Z 28
_cell_length_a 13.248406
_cell_length_b 13.248406
_cell_length_c 9.451140
_cell_angle_alpha 90.000000
_cell_angle_beta 90.000000
_cell_angle_gamma 120.000000
_cell_volume 1436.620586
_symmetry_space_group_name_H-M "P -6"
_symmetry_group_IT_number 174
_symmetry_cell_setting 'hexagonal'
loop_
_space_group_symop_operation_xyz
x,y,z
-x+y,-x,-z
-y,x-y,z
x,y,-z
-x+y,-x,z
-y,x-y,-z
loop_
_atom_site_type_symbol
_atom_site_label
_atom_site_fract_x
_atom_site_fract_y
_atom_site_fract_z
Si Si1 0.333334 0.666668 0.169355
Si Si2 0.000000 0.000000 0.329560
Si Si3 0.643830 0.195258 0.658060
Si Si4 0.593560 0.786710 0.164910
Si Si5 0.705267 0.047796 0.165549
Si Si6 0.972770 0.182600 0.834586
O O1 0.463740 0.708850 0.229878
O O2 0.333334 0.666668 0.000000
O O3 0.097559 0.974339 0.266583
O O4 0.000000 0.000000 0.500000
O O5 0.770056 0.313711 0.680312
O O6 0.637634 0.147330 0.500000
O O7 0.626834 0.096485 0.767420
O O8 0.677665 0.731908 0.193373
O O9 0.658988 0.918510 0.226260
O O10 0.576362 0.795446 0.000000
O O11 0.839457 0.135246 0.207848
O O12 0.687547 0.045754 0.000000
O O13 0.983648 0.154980 0.000000
#
# Coordination Sequence:
#
# PCOD8324912 Si02
#       6
#     2   2   6   6   6   6
#     4   9  18  33  51  78 115 146 190 231 265 341
#     4  12  22  32  52  84 112 140 178 231 283 341
#     4   8  18  36  52  69 103 146 175 211 280 339
#     4   9  18  32  51  77 110 149 180 220 280 330
#     4  10  19  30  54  84 105 138 184 231 279 323
#     4  10  19  35  55  78 113 147 175 224 293 344
#
# _framework density 19.490183999999999
#
# number of rings (size 3 to 8) (size 9 to 14) (size 15 to 20)
#    0.429    2.143    2.143    0.643    0.000    3.429 
#    0.000    4.286    0.000    0.000    0.000    4.500 
#    0.000    0.000    0.000    0.000    0.000    0.000 
#
# Total GULP energy -346902.904260 kJ/mol
# GULP energy per Si atom -12389.389438 kJ/mol
# Density = 1.944582 g / cm^3
# Si number density = 19.490184 Si / 1000 Ang^3
#
#
#
# Elastic Constant Matrix: (Units=GPa)
#
#
# Indices 1 2 3 4 5 6 
#
# 1 72.1659 21.6937 15.5731 0.0000 0.0000 -0.0004
# 2 21.6937 72.1641 15.5729 0.0000 0.0000 -0.0008
# 3 15.5731 15.5729 32.3516 0.0000 0.0000 -0.0003
# 4 0.0000 0.0000 0.0000 13.5089 -0.0001 0.0000
# 5 0.0000 0.0000 0.0000 -0.0001 13.5090 0.0000
# 6 -0.0004 -0.0008 -0.0003 0.0000 0.0000 25.2363
#
#
#
# Elastic Compliance Matrix: (Units=1/GPa)
#
#
# Indices 1 2 3 4 5 6 
#
# 1 0.016246 -0.003567 -0.006104 0.000000 0.000000 0.000000
# 2 -0.003567 0.016247 -0.006104 0.000000 0.000000 0.000000
# 3 -0.006104 -0.006104 0.036787 0.000000 0.000000 0.000000
# 4 0.000000 0.000000 0.000000 0.074025 0.000001 0.000000
# 5 0.000000 0.000000 0.000000 0.000001 0.074025 0.000000
# 6 0.000000 0.000000 0.000000 0.000000 0.000000 0.039626
#
#
# Mechanical properties :
#
#
# Convention : Reuss Voigt Hill
#
# Bulk Modulus (GPa) = 26.50299 31.37342 28.93821
# Shear Modulus (GPa) = 16.60688 18.70696 17.65692
#
# Velocity S-wave (km/s) = 2.92218 3.10145 3.01315
# Velocity P-wave (km/s) = 5.00132 5.38120 5.19473
#
# Compressibility (1/GPa) = 0.03773160
#
# Stress axis : x y z
#
# Youngs Moduli (GPa) = 61.55252 61.55106 27.18383
#
# Poissons Ratio (x) = 0.21954 0.16592
# Poissons Ratio (y) = 0.21954 0.16592
# Poissons Ratio (z) = 0.37569 0.37569
#
# Static dielectric constant tensor:
#      x y z
#    x 3.556760 0.000000 0.000000 
#    y 0.000000 3.556780 0.000000 
#    z 0.000000 0.000000 3.062160 
# 
# 
# High freq. dielectric constant tensor:
#      x y z
#    x 1.753270 0.000000 0.000000 
#    y 0.000000 1.753270 0.000000 
#    z 0.000000 0.000000 1.709460 
# 
# From -- ./inp_files/274.got.cif
#   From: 2010.03.12/outbox.cif.g09.slc.cpg/sg174_cif.got.tgz:274.got - 2010.04.02 06:54:58.
