data_PCOD8324463
_publ_section_title
;
Structure prediction by ZEFSAII (Michael W. Deem and Ramdas Pophale) SiO2 
 PCOD8324463
Probable space group: P 61
;
_chemical_formula_sum "Si O2"
_cell_formula_units_Z 48
_cell_length_a 17.689392
_cell_length_b 17.689392
_cell_length_c 9.128732
_cell_angle_alpha 90.000000
_cell_angle_beta 90.000000
_cell_angle_gamma 120.000000
_cell_volume 2473.813192
_symmetry_space_group_name_H-M "P 61"
_symmetry_group_IT_number 169
_symmetry_cell_setting 'hexagonal'
loop_
_space_group_symop_operation_xyz
x,y,z
x-y,x,1/6+z
-y,x-y,1/3+z
-x,-y,1/2+z
-x+y,-x,2/3+z
y,-x+y,5/6+z
loop_
_atom_site_type_symbol
_atom_site_label
_atom_site_fract_x
_atom_site_fract_y
_atom_site_fract_z
Si Si1 0.525891 0.903760 0.365610
Si Si2 0.144764 0.781418 0.883316
Si Si3 0.868187 0.018685 0.933045
Si Si4 0.936125 0.629474 0.592662
Si Si5 0.951042 0.279357 0.687019
Si Si6 0.181481 0.257977 0.947321
Si Si7 0.827153 0.254978 0.946112
Si Si8 0.897230 0.548366 0.273204
O O1 0.553437 0.860672 0.494570
O O2 0.510738 0.849998 0.213241
O O3 0.440295 0.903040 0.416046
O O4 0.604849 0.002506 0.347058
O O5 0.246511 0.855592 0.866942
O O6 0.085273 0.810684 0.788665
O O7 0.107969 0.767066 0.046491
O O8 0.928618 0.061312 0.792402
O O9 0.770092 0.995325 0.909463
O O10 0.916085 0.091198 0.062788
O O11 0.911176 0.575562 0.442908
O O12 0.987121 0.734175 0.556321
O O13 0.888800 0.286541 0.805972
O O14 0.031542 0.377406 0.664736
O O15 0.186880 0.344559 0.876576
O O16 0.726361 0.200911 0.895976
#
# Coordination Sequence:
#
# PCOD8324463 Si02
#       8
#     6   6   6   6   6   6   6   6
#     4  10  24  37  65  98 116 161 225 241 320 391
#     4  10  22  38  61  95 124 157 209 266 315 364
#     4  12  23  40  58  87 125 172 213 252 318 382
#     4  10  19  41  63  89 126 168 208 262 312 385
#     4  12  22  37  65  94 121 161 217 269 309 369
#     4  10  18  38  65  86 110 173 223 236 305 393
#     4  10  20  40  65  86 120 166 209 248 315 386
#     4  12  20  39  70  87 128 168 208 268 312 384
#
# _framework density 19.403244000000001
#
# number of rings (size 3 to 8) (size 9 to 14) (size 15 to 20)
#    0.000    1.500    7.500    0.750    1.750    4.000 
#    4.500    0.000    5.500    0.000    0.000    0.000 
#    0.000    0.000    0.000    0.000    0.000    0.000 
#
# Total GULP energy -594904.189713 kJ/mol
# GULP energy per Si atom -12393.837286 kJ/mol
# Density = 1.935908 g / cm^3
# Si number density = 19.403244 Si / 1000 Ang^3
#
#
#
# Elastic Constant Matrix: (Units=GPa)
#
#
# Indices 1 2 3 4 5 6 
#
# 1 95.2717 80.4396 37.2132 0.0000 0.0000 0.0000
# 2 80.4396 95.2717 37.2132 0.0000 0.0000 0.0000
# 3 37.2132 37.2132 95.1835 0.0000 0.0000 0.0000
# 4 0.0000 0.0000 0.0000 26.0716 0.0000 0.0000
# 5 0.0000 0.0000 0.0000 0.0000 26.0716 0.0000
# 6 0.0000 0.0000 0.0000 0.0000 0.0000 7.4160
#
#
#
# Elastic Compliance Matrix: (Units=1/GPa)
#
#
# Indices 1 2 3 4 5 6 
#
# 1 0.037121 -0.030300 -0.002667 0.000000 0.000000 0.000000
# 2 -0.030300 0.037121 -0.002667 0.000000 0.000000 0.000000
# 3 -0.002667 -0.002667 0.012591 0.000000 0.000000 0.000000
# 4 0.000000 0.000000 0.000000 0.038356 0.000000 0.000000
# 5 0.000000 0.000000 0.000000 0.000000 0.038356 0.000000
# 6 0.000000 0.000000 0.000000 0.000000 0.000000 0.134843
#
#
# Mechanical properties :
#
#
# Convention : Reuss Voigt Hill
#
# Bulk Modulus (GPa) = 64.24280 66.16211 65.20245
# Shear Modulus (GPa) = 13.33887 20.63590 16.98739
#
# Velocity S-wave (km/s) = 2.62478 3.26472 2.96208
# Velocity P-wave (km/s) = 6.50901 6.95584 6.73613
#
# Compressibility (1/GPa) = 0.01556595
#
# Stress axis : x y z
#
# Youngs Moduli (GPa) = 26.93885 26.93885 79.42094
#
# Poissons Ratio (x) = 0.81626 0.21179
# Poissons Ratio (y) = 0.81626 0.21179
# Poissons Ratio (z) = 0.07184 0.07184
#
# Static dielectric constant tensor:
#      x y z
#    x 3.503860 0.000000 0.000000 
#    y 0.000000 3.503860 0.000000 
#    z 0.000000 0.000000 3.466050 
# 
# 
# High freq. dielectric constant tensor:
#      x y z
#    x 1.745300 0.000000 0.000000 
#    y 0.000000 1.745300 0.000000 
#    z 0.000000 0.000000 1.742210 
# 
# From -- ./inp_files/766.got.cif
#   From: 2010.03.12/outbox.cif.g09.slc.cpg/sg169_cif.got.tgz:766.got - 2010.04.02 06:46:06.
