data_PCOD8324354
_publ_section_title
;
Structure prediction by ZEFSAII (Michael W. Deem and Ramdas Pophale) SiO2 
 PCOD8324354
Probable space group: R -3 C 
;
_chemical_formula_sum "Si O2"
_cell_formula_units_Z 144
_cell_length_a 28.783251
_cell_length_b 28.783251
_cell_length_c 9.910127
_cell_angle_alpha 90.000000
_cell_angle_beta 90.000000
_cell_angle_gamma 120.000000
_cell_volume 7110.326467
_symmetry_space_group_name_H-M "R -3 C "
_symmetry_group_IT_number 167
_symmetry_cell_setting 'hexagonal'
loop_
_space_group_symop_operation_xyz
x,y,z
-y,x-y,z
-x+y,-x,z
x-y,-y,1/2-z
-x,-x+y,1/2-z
y,x,1/2-z
-x,-y,-z
y,-x+y,-z
x-y,x,-z
-x+y,y,1/2+z
x,x-y,1/2+z
-y,-x,1/2+z
2/3+x,1/3+y,1/3+z
2/3-y,1/3+x-y,1/3+z
2/3-x+y,1/3-x,1/3+z
2/3+x-y,1/3-y,5/6-z
2/3-x,1/3-x+y,5/6-z
2/3+y,1/3+x,5/6-z
2/3-x,1/3-y,1/3-z
2/3+y,1/3-x+y,1/3-z
2/3+x-y,1/3+x,1/3-z
2/3-x+y,1/3+y,5/6+z
2/3+x,1/3+x-y,5/6+z
2/3-y,1/3-x,5/6+z
1/3+x,2/3+y,2/3+z
1/3-y,2/3+x-y,2/3+z
1/3-x+y,2/3-x,2/3+z
1/3+x-y,2/3-y,1/6-z
1/3-x,2/3-x+y,1/6-z
1/3+y,2/3+x,1/6-z
1/3-x,2/3-y,2/3-z
1/3+y,2/3-x+y,2/3-z
1/3+x-y,2/3+x,2/3-z
1/3-x+y,2/3+y,1/6+z
1/3+x,2/3+x-y,1/6+z
1/3-y,2/3-x,1/6+z
loop_
_atom_site_type_symbol
_atom_site_label
_atom_site_fract_x
_atom_site_fract_y
_atom_site_fract_z
Si Si1 0.470557 0.627527 0.542494
Si Si2 0.852269 0.818836 0.117549
Si Si3 0.946299 0.574796 0.454829
Si Si4 0.099577 0.371773 0.703955
O O1 0.487676 0.666667 0.416667
O O2 0.471759 0.659847 0.676004
O O3 0.411289 0.579270 0.513790
O O4 0.511371 0.604680 0.566632
O O5 0.821314 0.821314 0.250000
O O6 0.823293 0.759039 0.052737
O O7 0.926049 0.592716 0.583334
O O8 0.944134 0.609421 0.328981
O O9 0.006737 0.587992 0.486442
O O10 0.100215 0.333334 0.583334
#
# Coordination Sequence:
#
# PCOD8324354 Si02
#       4
#    36  36  36  36
#     4  10  21  41  62  83 116 154 191 245 310 356
#     4  11  23  38  62  90 114 152 201 243 297 365
#     4   8  16  31  51  75 110 153 188 225 271 322
#     4   9  18  32  52  80 118 160 196 231 276 333
#
# _framework density 20.252234999999999
#
# number of rings (size 3 to 8) (size 9 to 14) (size 15 to 20)
#    0.000    2.500    0.000    3.000    0.000    6.000 
#    0.000    3.750    0.000   10.000    0.000    0.000 
#    0.000    0.000    0.000    0.000    0.000    0.000 
#
# Total GULP energy -594930.767683 kJ/mol
# GULP energy per Si atom -12394.390993 kJ/mol
# Density = 2.020614 g / cm^3
# Si number density = 20.252235 Si / 1000 Ang^3
#
#
#
# Elastic Constant Matrix: (Units=GPa)
#
#
# Indices 1 2 3 4 5 6 
#
# 1 88.3591 55.6757 34.1756 2.6776 0.0180 0.0020
# 2 55.6757 88.3664 34.2046 -2.6521 0.0098 -0.0010
# 3 34.1756 34.2046 92.5516 0.0169 0.0669 0.0036
# 4 2.6776 -2.6521 0.0169 26.6651 0.0048 -0.0013
# 5 0.0180 0.0098 0.0669 0.0048 26.7488 2.6452
# 6 0.0020 -0.0010 0.0036 -0.0013 2.6452 16.3385
#
#
#
# Elastic Compliance Matrix: (Units=1/GPa)
#
#
# Indices 1 2 3 4 5 6 
#
# 1 0.019758 -0.011340 -0.003104 -0.003110 -0.000001 -0.000003
# 2 -0.011340 0.019761 -0.003116 0.003106 0.000007 0.000002
# 3 -0.003104 -0.003116 0.013103 -0.000007 -0.000030 0.000002
# 4 -0.003110 0.003106 -0.000007 0.038123 -0.000006 0.000005
# 5 -0.000001 0.000007 -0.000030 -0.000006 0.037993 -0.006151
# 6 -0.000003 0.000002 0.000002 0.000005 -0.006151 0.062201
#
#
# Mechanical properties :
#
#
# Convention : Reuss Voigt Hill
#
# Bulk Modulus (GPa) = 57.14201 57.48765 57.31483
# Shear Modulus (GPa) = 21.56156 23.63190 22.59673
#
# Velocity S-wave (km/s) = 3.26644 3.41967 3.34393
# Velocity P-wave (km/s) = 6.51940 6.63623 6.57808
#
# Compressibility (1/GPa) = 0.01750026
#
# Stress axis : x y z
#
# Youngs Moduli (GPa) = 50.61238 50.60459 76.32021
#
# Poissons Ratio (x) = 0.57388 0.23691
# Poissons Ratio (y) = 0.57397 0.23783
# Poissons Ratio (z) = 0.15711 0.15769
#
# Static dielectric constant tensor:
#      x y z
#    x 3.510410 0.000030 -0.000100 
#    y 0.000030 3.510470 0.000030 
#    z -0.000100 0.000030 3.950950 
# 
# 
# High freq. dielectric constant tensor:
#      x y z
#    x 1.767740 0.000000 -0.000010 
#    y 0.000000 1.767740 0.000000 
#    z -0.000010 0.000000 1.791390 
# 
# From -- ./inp_files/780.got.cif
#   From: 2010.03.12/outbox.cif.g09.slc.cpg/sg167_1_cif.got.tgz:780.got - 2010.04.02 06:42:56.
