data_PCOD8324309
_publ_section_title
;
Structure prediction by ZEFSAII (Michael W. Deem and Ramdas Pophale) SiO2 
 PCOD8324309
Probable space group: R -3 C 
;
_chemical_formula_sum "Si O2"
_cell_formula_units_Z 84
_cell_length_a 12.317970
_cell_length_b 12.317970
_cell_length_c 33.125849
_cell_angle_alpha 90.000000
_cell_angle_beta 90.000000
_cell_angle_gamma 120.000000
_cell_volume 4352.872372
_symmetry_space_group_name_H-M "R -3 C "
_symmetry_group_IT_number 167
_symmetry_cell_setting 'hexagonal'
loop_
_space_group_symop_operation_xyz
x,y,z
-y,x-y,z
-x+y,-x,z
x-y,-y,1/2-z
-x,-x+y,1/2-z
y,x,1/2-z
-x,-y,-z
y,-x+y,-z
x-y,x,-z
-x+y,y,1/2+z
x,x-y,1/2+z
-y,-x,1/2+z
2/3+x,1/3+y,1/3+z
2/3-y,1/3+x-y,1/3+z
2/3-x+y,1/3-x,1/3+z
2/3+x-y,1/3-y,5/6-z
2/3-x,1/3-x+y,5/6-z
2/3+y,1/3+x,5/6-z
2/3-x,1/3-y,1/3-z
2/3+y,1/3-x+y,1/3-z
2/3+x-y,1/3+x,1/3-z
2/3-x+y,1/3+y,5/6+z
2/3+x,1/3+x-y,5/6+z
2/3-y,1/3-x,5/6+z
1/3+x,2/3+y,2/3+z
1/3-y,2/3+x-y,2/3+z
1/3-x+y,2/3-x,2/3+z
1/3+x-y,2/3-y,1/6-z
1/3-x,2/3-x+y,1/6-z
1/3+y,2/3+x,1/6-z
1/3-x,2/3-y,2/3-z
1/3+y,2/3-x+y,2/3-z
1/3+x-y,2/3+x,2/3-z
1/3-x+y,2/3+y,1/6+z
1/3+x,2/3+x-y,1/6+z
1/3-y,2/3-x,1/6+z
loop_
_atom_site_type_symbol
_atom_site_label
_atom_site_fract_x
_atom_site_fract_y
_atom_site_fract_z
Si Si1 0.333018 0.870911 0.816353
Si Si2 0.331553 0.923270 0.289348
Si Si3 0.666668 0.333335 0.130643
O O1 0.461532 0.924164 0.791826
O O2 0.218155 0.786818 0.785836
O O3 0.325848 0.785326 0.853855
O O4 0.320257 0.983634 0.836264
O O5 0.334136 0.000000 0.250000
O O6 0.666668 0.333334 0.083334
#
# Coordination Sequence:
#
# PCOD8324309 Si02
#       3
#    36  36  12
#     4   9  20  34  52  80 106 137 181 214 256 319
#     4  10  20  36  55  77 108 140 173 219 264 306
#     4   9  15  30  54  78 105 136 176 223 258 294
#
# _framework density 19.297601
#
# number of rings (size 3 to 8) (size 9 to 14) (size 15 to 20)
#    0.000    2.571    0.000    2.143    0.000    3.429 
#    0.000    4.286    0.000    3.429    0.000    0.000 
#    0.000    0.000    0.000    0.000    0.000    0.000 
#
# Total GULP energy -347182.144924 kJ/mol
# GULP energy per Si atom -12399.362319 kJ/mol
# Density = 1.925368 g / cm^3
# Si number density = 19.297601 Si / 1000 Ang^3
#
#
#
# Elastic Constant Matrix: (Units=GPa)
#
#
# Indices 1 2 3 4 5 6 
#
# 1 90.4033 35.7801 34.6138 4.6066 0.0009 0.0000
# 2 35.7801 90.4027 34.6140 -4.6063 -0.0007 -0.0001
# 3 34.6138 34.6140 89.4298 0.0002 0.0000 -0.0001
# 4 4.6066 -4.6063 0.0002 25.5846 0.0000 -0.0007
# 5 0.0009 -0.0007 0.0000 0.0000 25.5844 4.6067
# 6 0.0000 -0.0001 -0.0001 -0.0007 4.6067 27.3118
#
#
#
# Elastic Compliance Matrix: (Units=1/GPa)
#
#
# Indices 1 2 3 4 5 6 
#
# 1 0.014471 -0.004410 -0.003894 -0.003399 -0.000001 0.000000
# 2 -0.004410 0.014471 -0.003894 0.003399 0.000001 0.000000
# 3 -0.003894 -0.003894 0.014197 0.000000 0.000000 0.000000
# 4 -0.003399 0.003399 0.000000 0.040310 0.000000 0.000001
# 5 -0.000001 0.000001 0.000000 0.000000 0.040311 -0.006799
# 6 0.000000 0.000000 0.000000 0.000001 -0.006799 0.037761
#
#
# Mechanical properties :
#
#
# Convention : Reuss Voigt Hill
#
# Bulk Modulus (GPa) = 53.35517 53.36128 53.35823
# Shear Modulus (GPa) = 26.01938 26.71135 26.36537
#
# Velocity S-wave (km/s) = 3.67593 3.72449 3.70029
# Velocity P-wave (km/s) = 6.76205 6.79762 6.77986
#
# Compressibility (1/GPa) = 0.01874233
#
# Stress axis : x y z
#
# Youngs Moduli (GPa) = 69.10350 69.10288 70.43964
#
# Poissons Ratio (x) = 0.30471 0.27431
# Poissons Ratio (y) = 0.30472 0.27432
# Poissons Ratio (z) = 0.26911 0.26911
#
# Static dielectric constant tensor:
#      x y z
#    x 3.612820 0.000000 0.000000 
#    y 0.000000 3.612810 -0.000010 
#    z 0.000000 -0.000010 3.052650 
# 
# 
# High freq. dielectric constant tensor:
#      x y z
#    x 1.754460 0.000000 0.000000 
#    y 0.000000 1.754460 0.000000 
#    z 0.000000 0.000000 1.722620 
# 
# From -- ./inp_files/4907.got.cif
#   From: 2010.03.12/outbox.cif.g09.slc.cpg/sg167_3_cif.got.tgz:4907.got - 2010.04.02 06:42:56.
