data_PCOD8324580
_publ_section_title
;
Structure prediction by ZEFSAII (Michael W. Deem and Ramdas Pophale) SiO2 
 PCOD8324580
Probable space group: P 61
;
_chemical_formula_sum "Si O2"
_cell_formula_units_Z 42
_cell_length_a 16.578512
_cell_length_b 16.578512
_cell_length_c 9.445588
_cell_angle_alpha 90.000000
_cell_angle_beta 90.000000
_cell_angle_gamma 120.000000
_cell_volume 2248.281703
_symmetry_space_group_name_H-M "P 61"
_symmetry_group_IT_number 169
_symmetry_cell_setting 'hexagonal'
loop_
_space_group_symop_operation_xyz
x,y,z
x-y,x,1/6+z
-y,x-y,1/3+z
-x,-y,1/2+z
-x+y,-x,2/3+z
y,-x+y,5/6+z
loop_
_atom_site_type_symbol
_atom_site_label
_atom_site_fract_x
_atom_site_fract_y
_atom_site_fract_z
Si Si1 0.561055 0.905260 0.088560
Si Si2 0.433196 0.647775 0.382227
Si Si3 0.730673 0.533913 0.993224
Si Si4 0.790018 0.169668 0.376605
Si Si5 0.401614 0.606431 0.921839
Si Si6 0.343503 0.039267 0.887009
Si Si7 0.538791 0.470289 0.655197
O O1 0.466915 0.809819 0.131518
O O2 0.632614 0.945988 0.219104
O O3 0.536157 0.979835 0.028434
O O4 0.598085 0.871540 0.953809
O O5 0.371527 0.556441 0.474961
O O6 0.526574 0.712630 0.467747
O O7 0.380245 0.706381 0.348751
O O8 0.450362 0.607633 0.239627
O O9 0.771877 0.596857 0.854759
O O10 0.794379 0.490561 0.030684
O O11 0.878607 0.203736 0.272573
O O12 0.748622 0.060557 0.405943
O O13 0.452960 0.556124 0.995127
O O14 0.422513 0.044290 0.994793
#
# Coordination Sequence:
#
# PCOD8324580 Si02
#       7
#     6   6   6   6   6   6   6
#     4  11  23  36  56  83 120 160 206 246 309 362
#     4  12  19  36  57  81 121 165 205 248 294 365
#     4  12  23  34  57  87 117 163 207 252 294 363
#     4  12  24  42  62  86 125 161 215 260 322 376
#     4  11  22  34  52  82 115 160 211 247 291 346
#     4  11  24  43  61  86 119 167 205 265 321 377
#     4  11  21  35  57  83 121 164 205 246 299 365
#
# _framework density 18.680933
#
# number of rings (size 3 to 8) (size 9 to 14) (size 15 to 20)
#    0.000    0.571    5.714    6.000    2.000    1.143 
#    0.000    0.000    0.000    0.000    0.000    2.000 
#    0.000    0.000    0.000    0.000    0.000    0.000 
#
# Total GULP energy -520465.030831 kJ/mol
# GULP energy per Si atom -12392.024544 kJ/mol
# Density = 1.863841 g / cm^3
# Si number density = 18.680933 Si / 1000 Ang^3
#
#
#
# Elastic Constant Matrix: (Units=GPa)
#
#
# Indices 1 2 3 4 5 6 
#
# 1 75.4266 30.4681 35.8871 0.0000 0.0000 0.0000
# 2 30.4681 75.4266 35.8871 0.0000 0.0000 0.0000
# 3 35.8871 35.8871 98.0460 0.0000 0.0000 0.0000
# 4 0.0000 0.0000 0.0000 22.9244 0.0000 0.0000
# 5 0.0000 0.0000 0.0000 0.0000 22.9244 0.0000
# 6 0.0000 0.0000 0.0000 0.0000 0.0000 22.4793
#
#
#
# Elastic Compliance Matrix: (Units=1/GPa)
#
#
# Indices 1 2 3 4 5 6 
#
# 1 0.017401 -0.004842 -0.004597 0.000000 0.000000 0.000000
# 2 -0.004842 0.017401 -0.004597 0.000000 0.000000 0.000000
# 3 -0.004597 -0.004597 0.013564 0.000000 0.000000 0.000000
# 4 0.000000 0.000000 0.000000 0.043622 0.000000 0.000000
# 5 0.000000 0.000000 0.000000 0.000000 0.043622 0.000000
# 6 0.000000 0.000000 0.000000 0.000000 0.000000 0.044485
#
#
# Mechanical properties :
#
#
# Convention : Reuss Voigt Hill
#
# Bulk Modulus (GPa) = 49.27336 50.37599 49.82467
# Shear Modulus (GPa) = 23.26325 23.44274 23.35299
#
# Velocity S-wave (km/s) = 3.53270 3.54630 3.53951
# Velocity P-wave (km/s) = 6.56304 6.61766 6.59041
#
# Compressibility (1/GPa) = 0.02029494
#
# Stress axis : x y z
#
# Youngs Moduli (GPa) = 57.46832 57.46832 73.72209
#
# Poissons Ratio (x) = 0.27825 0.33889
# Poissons Ratio (y) = 0.27825 0.33889
# Poissons Ratio (z) = 0.26418 0.26418
#
# Static dielectric constant tensor:
#      x y z
#    x 3.331280 0.000000 0.000000 
#    y 0.000000 3.331280 0.000000 
#    z 0.000000 0.000000 3.793980 
# 
# 
# High freq. dielectric constant tensor:
#      x y z
#    x 1.693760 0.000000 0.000000 
#    y 0.000000 1.693760 0.000000 
#    z 0.000000 0.000000 1.748050 
# 
# From -- ./inp_files/687.got.cif
#   From: 2010.03.12/outbox.cif.g09.slc.cpg/sg169_cif.got.tgz:687.got - 2010.04.02 06:46:06.
