data_PCOD8324080
_publ_section_title
;
Structure prediction by ZEFSAII (Michael W. Deem and Ramdas Pophale) SiO2 
 PCOD8324080
Probable space group: R -3 M
;
_chemical_formula_sum "Si O2"
_cell_formula_units_Z 252
_cell_length_a 30.095662
_cell_length_b 30.095662
_cell_length_c 17.150131
_cell_angle_alpha 90.000000
_cell_angle_beta 90.000000
_cell_angle_gamma 120.000000
_cell_volume 13452.589029
_symmetry_space_group_name_H-M "R -3 M"
_symmetry_group_IT_number 166
_symmetry_cell_setting 'hexagonal'
loop_
_space_group_symop_operation_xyz
x,y,z
-y,x-y,z
-x+y,-x,z
x-y,-y,-z
-x,-x+y,-z
y,x,-z
-x,-y,-z
y,-x+y,-z
x-y,x,-z
-x+y,y,z
x,x-y,z
-y,-x,z
2/3+x,1/3+y,1/3+z
2/3-y,1/3+x-y,1/3+z
2/3-x+y,1/3-x,1/3+z
2/3+x-y,1/3-y,1/3-z
2/3-x,1/3-x+y,1/3-z
2/3+y,1/3+x,1/3-z
2/3-x,1/3-y,1/3-z
2/3+y,1/3-x+y,1/3-z
2/3+x-y,1/3+x,1/3-z
2/3-x+y,1/3+y,1/3+z
2/3+x,1/3+x-y,1/3+z
2/3-y,1/3-x,1/3+z
1/3+x,2/3+y,2/3+z
1/3-y,2/3+x-y,2/3+z
1/3-x+y,2/3-x,2/3+z
1/3+x-y,2/3-y,2/3-z
1/3-x,2/3-x+y,2/3-z
1/3+y,2/3+x,2/3-z
1/3-x,2/3-y,2/3-z
1/3+y,2/3-x+y,2/3-z
1/3+x-y,2/3+x,2/3-z
1/3-x+y,2/3+y,2/3+z
1/3+x,2/3+x-y,2/3+z
1/3-y,2/3-x,2/3+z
loop_
_atom_site_type_symbol
_atom_site_label
_atom_site_fract_x
_atom_site_fract_y
_atom_site_fract_z
Si Si1 0.276609 0.213776 0.137749
Si Si2 0.157755 0.216187 0.722184
Si Si3 0.195083 0.903294 0.587811
Si Si4 0.392614 0.112447 0.481896
Si Si5 0.612618 0.128951 0.869048
Si Si6 0.157981 0.215972 0.008356
Si Si7 0.451307 0.174421 0.622547
O O1 0.333334 0.230528 0.166667
O O2 0.238500 0.166186 0.191191
O O3 0.266605 0.261207 0.147478
O O4 0.264290 0.193336 0.048876
O O5 0.099162 0.198323 0.695967
O O6 0.198306 0.261420 0.663946
O O7 0.167070 0.167802 0.726599
O O8 0.157148 0.842853 0.606370
O O9 0.248971 0.912740 0.555185
O O10 0.172974 0.919930 0.517837
O O11 0.431044 0.160667 0.429478
O O12 0.401669 0.135998 0.569760
O O13 0.578226 0.156451 0.872002
O O14 0.666667 0.170525 0.833334
O O15 0.612850 0.105645 0.953559
O O16 0.097895 0.195789 0.994429
O O17 0.168685 0.168685 0.000000
O O18 0.466906 0.233453 0.606557
#
# Coordination Sequence:
#
# PCOD8324080 Si02
#       7
#    36  36  36  36  36  36  36
#     4  10  21  35  51  78 108 140 181 223 266 307
#     4  10  20  34  54  79 105 136 179 224 266 316
#     4  10  19  32  52  74 100 135 175 216 258 308
#     4  10  21  35  52  75 106 142 176 212 261 313
#     4  10  20  34  53  76 102 132 171 217 263 315
#     4  10  20  35  55  77 105 139 176 217 262 313
#     4  10  20  35  54  77 105 136 172 214 263 317
#
# _framework density 18.732454000000001
#
# number of rings (size 3 to 8) (size 9 to 14) (size 15 to 20)
#    0.000    2.000    1.429    2.571    0.000    3.429 
#    0.000    2.143    0.000    0.571    0.000    0.000 
#    0.000    6.857    0.000    0.000    0.000    0.571 
#
# Total GULP energy -1040887.480225 kJ/mol
# GULP energy per Si atom -12391.517622 kJ/mol
# Density = 1.868982 g / cm^3
# Si number density = 18.732454 Si / 1000 Ang^3
#
#
#
# Elastic Constant Matrix: (Units=GPa)
#
#
# Indices 1 2 3 4 5 6 
#
# 1 65.4544 37.7583 8.6683 1.5086 0.0000 0.0000
# 2 37.7583 65.4544 8.6683 -1.5086 0.0000 0.0000
# 3 8.6683 8.6683 98.5470 0.0000 0.0000 0.0000
# 4 1.5086 -1.5086 0.0000 19.2617 0.0000 0.0000
# 5 0.0000 0.0000 0.0000 0.0000 19.2617 1.5086
# 6 0.0000 0.0000 0.0000 0.0000 1.5086 13.8481
#
#
#
# Elastic Compliance Matrix: (Units=1/GPa)
#
#
# Indices 1 2 3 4 5 6 
#
# 1 0.023125 -0.013291 -0.000865 -0.002852 0.000000 0.000000
# 2 -0.013291 0.023125 -0.000865 0.002852 0.000000 0.000000
# 3 -0.000865 -0.000865 0.010300 0.000000 0.000000 0.000000
# 4 -0.002852 0.002852 0.000000 0.052363 0.000000 0.000000
# 5 0.000000 0.000000 0.000000 0.000000 0.052363 -0.005705
# 6 0.000000 0.000000 0.000000 0.000000 -0.005705 0.072834
#
#
# Mechanical properties :
#
#
# Convention : Reuss Voigt Hill
#
# Bulk Modulus (GPa) = 37.72499 37.73839 37.73169
# Shear Modulus (GPa) = 18.31572 22.09836 20.20704
#
# Velocity S-wave (km/s) = 3.13030 3.43838 3.28795
# Velocity P-wave (km/s) = 5.76607 5.99608 5.88220
#
# Compressibility (1/GPa) = 0.02650763
#
# Stress axis : x y z
#
# Youngs Moduli (GPa) = 43.24238 43.24238 97.09097
#
# Poissons Ratio (x) = 0.57475 0.08398
# Poissons Ratio (y) = 0.57475 0.08399
# Poissons Ratio (z) = 0.03741 0.03741
#
# Static dielectric constant tensor:
#      x y z
#    x 2.648580 0.000000 0.000000 
#    y 0.000000 2.648580 0.000000 
#    z 0.000000 0.000000 3.806260 
# 
# 
# High freq. dielectric constant tensor:
#      x y z
#    x 1.704750 0.000000 0.000000 
#    y 0.000000 1.704750 0.000000 
#    z 0.000000 0.000000 1.754440 
# 
# From -- ./inp_files/5832.got.cif
#   From: 2010.03.12/outbox.cif.g09.slc.cpg/sg166_3_cif.got.tgz:5832.got - 2010.04.02 06:38:31.
