data_PCOD8324231
_publ_section_title
;
Structure prediction by ZEFSAII (Michael W. Deem and Ramdas Pophale) SiO2 
 PCOD8324231
Probable space group: R -3 M
;
_chemical_formula_sum "Si O2"
_cell_formula_units_Z 144
_cell_length_a 29.665555
_cell_length_b 29.665555
_cell_length_c 9.471577
_cell_angle_alpha 90.000000
_cell_angle_beta 90.000000
_cell_angle_gamma 120.000000
_cell_volume 7218.681517
_symmetry_space_group_name_H-M "R -3 M"
_symmetry_group_IT_number 166
_symmetry_cell_setting 'hexagonal'
loop_
_space_group_symop_operation_xyz
x,y,z
-y,x-y,z
-x+y,-x,z
x-y,-y,-z
-x,-x+y,-z
y,x,-z
-x,-y,-z
y,-x+y,-z
x-y,x,-z
-x+y,y,z
x,x-y,z
-y,-x,z
2/3+x,1/3+y,1/3+z
2/3-y,1/3+x-y,1/3+z
2/3-x+y,1/3-x,1/3+z
2/3+x-y,1/3-y,1/3-z
2/3-x,1/3-x+y,1/3-z
2/3+y,1/3+x,1/3-z
2/3-x,1/3-y,1/3-z
2/3+y,1/3-x+y,1/3-z
2/3+x-y,1/3+x,1/3-z
2/3-x+y,1/3+y,1/3+z
2/3+x,1/3+x-y,1/3+z
2/3-y,1/3-x,1/3+z
1/3+x,2/3+y,2/3+z
1/3-y,2/3+x-y,2/3+z
1/3-x+y,2/3-x,2/3+z
1/3+x-y,2/3-y,2/3-z
1/3-x,2/3-x+y,2/3-z
1/3+y,2/3+x,2/3-z
1/3-x,2/3-y,2/3-z
1/3+y,2/3-x+y,2/3-z
1/3+x-y,2/3+x,2/3-z
1/3-x+y,2/3+y,2/3+z
1/3+x,2/3+x-y,2/3+z
1/3-y,2/3-x,2/3+z
loop_
_atom_site_type_symbol
_atom_site_label
_atom_site_fract_x
_atom_site_fract_y
_atom_site_fract_z
Si Si1 0.563011 0.333334 0.833334
Si Si2 0.956507 0.810400 0.732350
Si Si3 0.620199 0.723140 0.229353
Si Si4 0.666667 0.541444 0.333334
Si Si5 0.791995 0.105218 0.015083
O O1 0.570053 0.285027 0.874601
O O2 0.526067 0.321580 0.700375
O O3 0.903943 0.807885 0.789894
O O4 0.938717 0.757377 0.646457
O O5 0.997041 0.820958 0.859547
O O6 0.599080 0.666667 0.166667
O O7 0.666667 0.733664 0.333334
O O8 0.641384 0.764008 0.100655
O O9 0.716373 0.597854 0.349552
O O10 0.852931 0.147070 0.015970
O O11 0.766756 0.100089 0.166667
#
# Coordination Sequence:
#
# PCOD8324231 Si02
#       5
#    18  36  36  18  36
#     4  10  23  44  72 100 128 162 212 274 341 406
#     4  11  24  43  67  96 129 174 220 272 335 397
#     4  12  25  41  65  93 131 176 225 271 314 377
#     4  12  24  40  62  92 129 168 221 266 326 382
#     4  11  26  42  61  90 128 173 215 265 320 377
#
# _framework density 19.948239999999998
#
# number of rings (size 3 to 8) (size 9 to 14) (size 15 to 20)
#    0.000    0.750    3.750    3.125    1.750    3.000 
#    0.000    0.000    0.000    0.000    0.000    4.375 
#    0.000    0.000    0.000    0.000    0.000    0.000 
#
# Total GULP energy -595362.365746 kJ/mol
# GULP energy per Si atom -12403.382620 kJ/mol
# Density = 1.990284 g / cm^3
# Si number density = 19.948240 Si / 1000 Ang^3
#
#
#
# Elastic Constant Matrix: (Units=GPa)
#
#
# Indices 1 2 3 4 5 6 
#
# 1 126.9052 11.8312 39.9511 -5.8726 0.0993 -0.3205
# 2 11.8312 127.0536 40.1242 5.8604 -0.1561 0.2575
# 3 39.9511 40.1242 131.3162 0.0200 -0.0314 -0.0764
# 4 -5.8726 5.8604 0.0200 28.3216 -0.0505 0.2013
# 5 0.0993 -0.1561 -0.0314 -0.0505 28.1631 -5.7305
# 6 -0.3205 0.2575 -0.0764 0.2013 -5.7305 56.9916
#
#
#
# Elastic Compliance Matrix: (Units=1/GPa)
#
#
# Indices 1 2 3 4 5 6 
#
# 1 0.008809 -0.000065 -0.002660 0.001842 -0.000023 0.000037
# 2 -0.000065 0.008805 -0.002670 -0.001833 0.000036 -0.000034
# 3 -0.002660 -0.002670 0.009240 -0.000006 0.000007 0.000010
# 4 0.001842 -0.001833 -0.000006 0.036071 0.000026 -0.000106
# 5 -0.000023 0.000036 0.000007 0.000026 0.036249 0.003644
# 6 0.000037 -0.000034 0.000010 -0.000106 0.003644 0.017914
#
#
# Mechanical properties :
#
#
# Convention : Reuss Voigt Hill
#
# Bulk Modulus (GPa) = 62.25654 63.23202 62.74428
# Shear Modulus (GPa) = 37.52814 42.25314 39.89064
#
# Velocity S-wave (km/s) = 4.34207 4.60732 4.47666
# Velocity P-wave (km/s) = 7.51099 7.75048 7.63168
#
# Compressibility (1/GPa) = 0.01606257
#
# Stress axis : x y z
#
# Youngs Moduli (GPa) = 113.52285 113.57562 108.21957
#
# Poissons Ratio (x) = 0.00740 0.28790
# Poissons Ratio (y) = 0.00740 0.28897
# Poissons Ratio (z) = 0.30200 0.30327
#
# Static dielectric constant tensor:
#      x y z
#    x 3.722650 0.000040 0.000600 
#    y 0.000040 3.722780 -0.000080 
#    z 0.000600 -0.000080 4.458590 
# 
# 
# High freq. dielectric constant tensor:
#      x y z
#    x 1.783220 0.000000 -0.000030 
#    y 0.000000 1.783240 0.000000 
#    z -0.000030 0.000000 1.795530 
# 
# From -- ./inp_files/1838.got.cif
#   From: 2010.03.12/outbox.cif.g09.slc.cpg/sg166_1_cif.got.tgz:1838.got - 2010.04.02 06:38:31.
