data_PCOD8324826
_publ_section_title
;
Structure prediction by ZEFSAII (Michael W. Deem and Ramdas Pophale) SiO2 
 PCOD8324826
Probable space group: P 64
;
_chemical_formula_sum "Si O2"
_cell_formula_units_Z 42
_cell_length_a 13.650805
_cell_length_b 13.650805
_cell_length_c 12.666045
_cell_angle_alpha 90.000000
_cell_angle_beta 90.000000
_cell_angle_gamma 120.000000
_cell_volume 2044.034323
_symmetry_space_group_name_H-M "P 64"
_symmetry_group_IT_number 172
_symmetry_cell_setting 'hexagonal'
loop_
_space_group_symop_operation_xyz
x,y,z
x-y,x,2/3+z
-y,x-y,1/3+z
-x,-y,z
-x+y,-x,2/3+z
y,-x+y,1/3+z
loop_
_atom_site_type_symbol
_atom_site_label
_atom_site_fract_x
_atom_site_fract_y
_atom_site_fract_z
Si Si1 0.157023 0.611854 0.293490
Si Si2 0.000000 0.000000 0.420889
Si Si3 0.369452 0.735368 0.174017
Si Si4 0.812574 0.925052 0.590378
Si Si5 0.372058 0.331230 0.551274
Si Si6 0.364411 0.302936 0.328765
Si Si7 0.000000 0.500000 0.839146
Si Si8 0.309332 0.509110 0.052164
O O1 0.261301 0.721011 0.238990
O O2 0.176104 0.583944 0.412630
O O3 0.137171 0.503632 0.225191
O O4 0.056548 0.640662 0.298096
O O5 0.111487 0.029492 0.486351
O O6 0.032514 0.110257 0.351218
O O7 0.338424 0.615474 0.124968
O O8 0.468607 0.784669 0.260121
O O9 0.708930 0.798422 0.582432
O O10 0.769186 0.013963 0.605828
O O11 0.347512 0.362541 0.432942
O O12 0.459568 0.390965 0.248524
O O13 0.404872 0.224075 0.391421
O O14 0.925017 0.395103 0.762111
#
# Coordination Sequence:
#
# PCOD8324826 Si02
#       8
#     6   3   6   6   6   6   3   6
#     4  10  23  38  64  95 135 170 222 269 336 410
#     4  10  24  46  64  98 122 172 228 288 336 396
#     4  10  22  41  63  93 136 175 207 273 337 401
#     4  11  24  44  70  92 132 172 228 281 343 396
#     4  11  23  41  64  99 127 177 226 274 335 403
#     4  12  24  41  69 101 131 176 222 282 334 415
#     4  12  26  40  72 104 140 176 230 276 346 414
#     4  11  23  44  64 100 135 175 221 272 341 408
#
# _framework density 20.547599999999999
#
# number of rings (size 3 to 8) (size 9 to 14) (size 15 to 20)
#    0.000    1.143    4.286    1.714    2.000    2.286 
#    0.000    0.000    0.000    0.000    0.000    0.000 
#    0.000    0.000    0.000    0.000    0.000    0.000 
#
# Total GULP energy -520473.790321 kJ/mol
# GULP energy per Si atom -12392.233103 kJ/mol
# Density = 2.050083 g / cm^3
# Si number density = 20.547600 Si / 1000 Ang^3
#
#
#
# Elastic Constant Matrix: (Units=GPa)
#
#
# Indices 1 2 3 4 5 6 
#
# 1 101.7149 48.2912 39.9876 0.0000 0.0000 0.0000
# 2 48.2912 101.7149 39.9876 0.0000 0.0000 0.0000
# 3 39.9876 39.9876 128.9767 0.0000 0.0000 0.0000
# 4 0.0000 0.0000 0.0000 27.9878 0.0000 0.0000
# 5 0.0000 0.0000 0.0000 0.0000 27.9878 0.0000
# 6 0.0000 0.0000 0.0000 0.0000 0.0000 26.7118
#
#
#
# Elastic Compliance Matrix: (Units=1/GPa)
#
#
# Indices 1 2 3 4 5 6 
#
# 1 0.013352 -0.005366 -0.002476 0.000000 0.000000 0.000000
# 2 -0.005366 0.013352 -0.002476 0.000000 0.000000 0.000000
# 3 -0.002476 -0.002476 0.009289 0.000000 0.000000 0.000000
# 4 0.000000 0.000000 0.000000 0.035730 0.000000 0.000000
# 5 0.000000 0.000000 0.000000 0.000000 0.035730 0.000000
# 6 0.000000 0.000000 0.000000 0.000000 0.000000 0.037437
#
#
# Mechanical properties :
#
#
# Convention : Reuss Voigt Hill
#
# Bulk Modulus (GPa) = 65.11567 65.43772 65.27669
# Shear Modulus (GPa) = 29.30054 30.14680 29.72367
#
# Velocity S-wave (km/s) = 3.78032 3.83452 3.80751
# Velocity P-wave (km/s) = 7.12835 7.17780 7.15311
#
# Compressibility (1/GPa) = 0.01535729
#
# Stress axis : x y z
#
# Youngs Moduli (GPa) = 74.89285 74.89285 107.65737
#
# Poissons Ratio (x) = 0.40187 0.26657
# Poissons Ratio (y) = 0.40187 0.26657
# Poissons Ratio (z) = 0.18544 0.18544
#
# Static dielectric constant tensor:
#      x y z
#    x 3.628270 0.000000 0.000000 
#    y 0.000000 3.628270 0.000000 
#    z 0.000000 0.000000 3.948280 
# 
# 
# High freq. dielectric constant tensor:
#      x y z
#    x 1.795140 0.000000 0.000000 
#    y 0.000000 1.795140 0.000000 
#    z 0.000000 0.000000 1.822230 
# 
# From -- ./inp_files/1123.got.cif
#   From: 2010.03.12/outbox.cif.g09.slc.cpg/sg172_1_cif.got.tgz:1123.got - 2010.04.02 06:52:29.
