data_PCOD8324421
_publ_section_title
;
Structure prediction by ZEFSAII (Michael W. Deem and Ramdas Pophale) SiO2 
 PCOD8324421
Probable space group: R -3 C 
;
_chemical_formula_sum "Si O2"
_cell_formula_units_Z 66
_cell_length_a 14.418971
_cell_length_b 14.418971
_cell_length_c 13.619765
_cell_angle_alpha 90.000000
_cell_angle_beta 90.000000
_cell_angle_gamma 120.000000
_cell_volume 2452.272809
_symmetry_space_group_name_H-M "R -3 C "
_symmetry_group_IT_number 167
_symmetry_cell_setting 'hexagonal'
loop_
_space_group_symop_operation_xyz
x,y,z
-y,x-y,z
-x+y,-x,z
x-y,-y,1/2-z
-x,-x+y,1/2-z
y,x,1/2-z
-x,-y,-z
y,-x+y,-z
x-y,x,-z
-x+y,y,1/2+z
x,x-y,1/2+z
-y,-x,1/2+z
2/3+x,1/3+y,1/3+z
2/3-y,1/3+x-y,1/3+z
2/3-x+y,1/3-x,1/3+z
2/3+x-y,1/3-y,5/6-z
2/3-x,1/3-x+y,5/6-z
2/3+y,1/3+x,5/6-z
2/3-x,1/3-y,1/3-z
2/3+y,1/3-x+y,1/3-z
2/3+x-y,1/3+x,1/3-z
2/3-x+y,1/3+y,5/6+z
2/3+x,1/3+x-y,5/6+z
2/3-y,1/3-x,5/6+z
1/3+x,2/3+y,2/3+z
1/3-y,2/3+x-y,2/3+z
1/3-x+y,2/3-x,2/3+z
1/3+x-y,2/3-y,1/6-z
1/3-x,2/3-x+y,1/6-z
1/3+y,2/3+x,1/6-z
1/3-x,2/3-y,2/3-z
1/3+y,2/3-x+y,2/3-z
1/3+x-y,2/3+x,2/3-z
1/3-x+y,2/3+y,1/6+z
1/3+x,2/3+x-y,1/6+z
1/3-y,2/3-x,1/6+z
loop_
_atom_site_type_symbol
_atom_site_label
_atom_site_fract_x
_atom_site_fract_y
_atom_site_fract_z
Si Si1 0.146559 0.813226 0.083334
Si Si2 0.900205 0.408855 0.945094
Si Si3 0.000000 0.000000 0.886324
O O1 0.119880 0.706780 0.022806
O O2 0.241854 0.836701 0.160634
O O3 0.791151 0.407598 0.978598
O O4 0.000000 0.500000 0.000000
O O5 0.000000 0.000000 0.000000
#
# Coordination Sequence:
#
# PCOD8324421 Si02
#       3
#    18  36  12
#     4  12  26  48  76 114 158 200 266 322 380 464
#     4  12  28  49  81 115 156 211 261 321 394 468
#     4  12  24  57  78 106 171 207 250 336 402 448
#
# _framework density 26.913806999999998
#
# number of rings (size 3 to 8) (size 9 to 14) (size 15 to 20)
#    0.000    0.000    5.455    1.636   15.273    0.000 
#    0.000    0.000    0.000    0.000    0.000    0.000 
#    0.000    0.000    0.000    0.000    0.000    0.000 
#
# Total GULP energy -272661.324296 kJ/mol
# GULP energy per Si atom -12393.696559 kJ/mol
# Density = 2.685255 g / cm^3
# Si number density = 26.913807 Si / 1000 Ang^3
#
#
#
# Elastic Constant Matrix: (Units=GPa)
#
#
# Indices 1 2 3 4 5 6 
#
# 1 161.4138 66.5674 24.3304 7.2179 0.0001 0.0000
# 2 66.5674 161.4138 24.3304 -7.2179 -0.0001 0.0000
# 3 24.3304 24.3304 57.5316 0.0000 0.0000 0.0000
# 4 7.2179 -7.2179 0.0000 45.0235 0.0000 -0.0001
# 5 0.0001 -0.0001 0.0000 0.0000 45.0235 7.2179
# 6 0.0000 0.0000 0.0000 -0.0001 7.2179 47.4232
#
#
#
# Elastic Compliance Matrix: (Units=1/GPa)
#
#
# Indices 1 2 3 4 5 6 
#
# 1 0.007814 -0.002993 -0.002039 -0.001733 0.000000 0.000000
# 2 -0.002993 0.007814 -0.002039 0.001733 0.000000 0.000000
# 3 -0.002039 -0.002039 0.019106 0.000000 0.000000 0.000000
# 4 -0.001733 0.001733 0.000000 0.022766 0.000000 0.000000
# 5 0.000000 0.000000 0.000000 0.000000 0.022766 -0.003465
# 6 0.000000 0.000000 0.000000 0.000000 -0.003465 0.021614
#
#
# Mechanical properties :
#
#
# Convention : Reuss Voigt Hill
#
# Bulk Modulus (GPa) = 48.55954 67.86839 58.21397
# Shear Modulus (GPa) = 40.68761 45.16944 42.92852
#
# Velocity S-wave (km/s) = 3.89237 4.10115 3.99812
# Velocity P-wave (km/s) = 6.18729 6.90634 6.55668
#
# Compressibility (1/GPa) = 0.02059327
#
# Stress axis : x y z
#
# Youngs Moduli (GPa) = 127.97046 127.97046 52.33847
#
# Poissons Ratio (x) = 0.38298 0.10672
# Poissons Ratio (y) = 0.38298 0.10672
# Poissons Ratio (z) = 0.26094 0.26094
#
# Static dielectric constant tensor:
#      x y z
#    x 4.634570 0.000000 0.000000 
#    y 0.000000 4.634570 0.000000 
#    z 0.000000 0.000000 5.044550 
# 
# 
# High freq. dielectric constant tensor:
#      x y z
#    x 2.094020 0.000000 0.000000 
#    y 0.000000 2.094020 0.000000 
#    z 0.000000 0.000000 2.067060 
# 
# From -- ./inp_files/2703.got.cif
#   From: 2010.03.12/outbox.cif.g09.slc.cpg/sg167_2_cif.got.tgz:2703.got - 2010.04.02 06:42:56.
