data_PCOD8324940
_publ_section_title
;
Structure prediction by ZEFSAII (Michael W. Deem and Ramdas Pophale) SiO2 
 PCOD8324940
Probable space group: P -6
;
_chemical_formula_sum "Si O2"
_cell_formula_units_Z 32
_cell_length_a 16.291120
_cell_length_b 16.291120
_cell_length_c 8.694462
_cell_angle_alpha 90.000000
_cell_angle_beta 90.000000
_cell_angle_gamma 120.000000
_cell_volume 1998.366914
_symmetry_space_group_name_H-M "P -6"
_symmetry_group_IT_number 174
_symmetry_cell_setting 'hexagonal'
loop_
_space_group_symop_operation_xyz
x,y,z
-x+y,-x,-z
-y,x-y,z
x,y,-z
-x+y,-x,z
-y,x-y,-z
loop_
_atom_site_type_symbol
_atom_site_label
_atom_site_fract_x
_atom_site_fract_y
_atom_site_fract_z
Si Si1 0.617469 0.563434 0.677019
Si Si2 0.666667 0.333335 0.182322
Si Si3 0.453038 0.228905 0.819276
Si Si4 0.336198 0.838398 0.320945
Si Si5 0.513746 0.841893 0.818958
Si Si6 0.617728 0.042338 0.319129
O O1 0.642896 0.561476 0.500000
O O2 0.711924 0.593630 0.776341
O O3 0.586543 0.641317 0.708660
O O4 0.531991 0.460201 0.728370
O O5 0.719712 0.439920 0.244919
O O6 0.666667 0.333334 0.000000
O O7 0.400881 0.278089 0.734426
O O8 0.446845 0.240885 0.000000
O O9 0.347237 0.822225 0.500000
O O10 0.408964 0.817623 0.228893
O O11 0.230862 0.769974 0.262270
O O12 0.593527 0.945868 0.766212
O O13 0.517884 0.832264 0.000000
O O14 0.614479 0.024119 0.500000
#
# Coordination Sequence:
#
# PCOD8324940 Si02
#       6
#     6   2   6   6   6   6
#     4   9  19  32  46  66  91 124 161 195 230 276
#     4   9  18  27  40  65  94 129 160 191 235 270
#     4  11  19  30  46  67  96 128 161 197 235 274
#     4  10  20  35  51  68  94 127 160 195 238 286
#     4  11  21  33  50  72  95 122 159 200 241 282
#     4  10  20  33  47  66  94 128 163 196 233 280
#
# _framework density 16.013075000000001
#
# number of rings (size 3 to 8) (size 9 to 14) (size 15 to 20)
#    0.000    1.875    1.875    4.875    0.000    3.750 
#    0.000    0.000    0.000    0.000    0.000    0.000 
#    1.875    0.000    3.375    0.000    3.375    0.000 
#
# Total GULP energy -396893.393597 kJ/mol
# GULP energy per Si atom -12402.918550 kJ/mol
# Density = 1.597663 g / cm^3
# Si number density = 16.013075 Si / 1000 Ang^3
#
#
#
# Elastic Constant Matrix: (Units=GPa)
#
#
# Indices 1 2 3 4 5 6 
#
# 1 84.4273 33.4845 17.2649 0.0000 0.0000 0.0001
# 2 33.4845 84.4280 17.2648 0.0000 0.0000 0.0000
# 3 17.2649 17.2648 39.7834 0.0000 0.0000 0.0000
# 4 0.0000 0.0000 0.0000 25.9042 0.0000 0.0000
# 5 0.0000 0.0000 0.0000 0.0000 25.9040 0.0000
# 6 0.0001 0.0000 0.0000 0.0000 0.0000 25.4714
#
#
#
# Elastic Compliance Matrix: (Units=1/GPa)
#
#
# Indices 1 2 3 4 5 6 
#
# 1 0.014673 -0.004957 -0.004216 0.000000 0.000000 0.000000
# 2 -0.004957 0.014673 -0.004216 0.000000 0.000000 0.000000
# 3 -0.004216 -0.004216 0.028796 0.000000 0.000000 0.000000
# 4 0.000000 0.000000 0.000000 0.038604 0.000000 0.000000
# 5 0.000000 0.000000 0.000000 0.000000 0.038604 0.000000
# 6 0.000000 0.000000 0.000000 0.000000 0.000000 0.039260
#
#
# Mechanical properties :
#
#
# Convention : Reuss Voigt Hill
#
# Bulk Modulus (GPa) = 31.88609 38.29634 35.09121
# Shear Modulus (GPa) = 23.60253 24.83088 24.21671
#
# Velocity S-wave (km/s) = 3.84338 3.94212 3.89306
# Velocity P-wave (km/s) = 6.29692 6.68491 6.49381
#
# Compressibility (1/GPa) = 0.03136164
#
# Stress axis : x y z
#
# Youngs Moduli (GPa) = 68.15361 68.15423 34.72756
#
# Poissons Ratio (x) = 0.33785 0.14642
# Poissons Ratio (y) = 0.33784 0.14642
# Poissons Ratio (z) = 0.28736 0.28736
#
# Static dielectric constant tensor:
#      x y z
#    x 2.922160 0.000000 0.000000 
#    y 0.000000 2.922160 0.000000 
#    z 0.000000 0.000000 3.021300 
# 
# 
# High freq. dielectric constant tensor:
#      x y z
#    x 1.594900 0.000000 0.000000 
#    y 0.000000 1.594900 0.000000 
#    z 0.000000 0.000000 1.627220 
# 
# From -- ./inp_files/318.got.cif
#   From: 2010.03.12/outbox.cif.g09.slc.cpg/sg174_cif.got.tgz:318.got - 2010.04.02 06:54:58.
