data_PCOD8324013
_publ_section_title
;
Structure prediction by ZEFSAII (Michael W. Deem and Ramdas Pophale) SiO2 
 PCOD8324013
Probable space group: R -3 M
;
_chemical_formula_sum "Si O2"
_cell_formula_units_Z 234
_cell_length_a 25.069311
_cell_length_b 25.069311
_cell_length_c 27.613350
_cell_angle_alpha 90.000000
_cell_angle_beta 90.000000
_cell_angle_gamma 120.000000
_cell_volume 15029.153684
_symmetry_space_group_name_H-M "R -3 M"
_symmetry_group_IT_number 166
_symmetry_cell_setting 'hexagonal'
loop_
_space_group_symop_operation_xyz
x,y,z
-y,x-y,z
-x+y,-x,z
x-y,-y,-z
-x,-x+y,-z
y,x,-z
-x,-y,-z
y,-x+y,-z
x-y,x,-z
-x+y,y,z
x,x-y,z
-y,-x,z
2/3+x,1/3+y,1/3+z
2/3-y,1/3+x-y,1/3+z
2/3-x+y,1/3-x,1/3+z
2/3+x-y,1/3-y,1/3-z
2/3-x,1/3-x+y,1/3-z
2/3+y,1/3+x,1/3-z
2/3-x,1/3-y,1/3-z
2/3+y,1/3-x+y,1/3-z
2/3+x-y,1/3+x,1/3-z
2/3-x+y,1/3+y,1/3+z
2/3+x,1/3+x-y,1/3+z
2/3-y,1/3-x,1/3+z
1/3+x,2/3+y,2/3+z
1/3-y,2/3+x-y,2/3+z
1/3-x+y,2/3-x,2/3+z
1/3+x-y,2/3-y,2/3-z
1/3-x,2/3-x+y,2/3-z
1/3+y,2/3+x,2/3-z
1/3-x,2/3-y,2/3-z
1/3+y,2/3-x+y,2/3-z
1/3+x-y,2/3+x,2/3-z
1/3-x+y,2/3+y,2/3+z
1/3+x,2/3+x-y,2/3+z
1/3-y,2/3-x,2/3+z
loop_
_atom_site_type_symbol
_atom_site_label
_atom_site_fract_x
_atom_site_fract_y
_atom_site_fract_z
Si Si1 0.378398 0.346198 0.551498
Si Si2 0.207985 0.541318 0.666667
Si Si3 0.620696 0.503432 0.254407
Si Si4 0.112761 0.616702 0.851865
Si Si5 0.717400 0.668012 0.958530
Si Si6 0.922760 0.399320 0.633130
Si Si7 0.543314 0.210859 0.597787
O O1 0.377475 0.377475 0.500000
O O2 0.392101 0.290523 0.543556
O O3 0.312694 0.317612 0.579047
O O4 0.432846 0.393779 0.587523
O O5 0.274607 0.549213 0.665555
O O6 0.171437 0.499223 0.712788
O O7 0.564215 0.435786 0.252323
O O8 0.648170 0.523992 0.200821
O O9 0.597205 0.547597 0.274977
O O10 0.087480 0.543740 0.849534
O O11 0.178460 0.652235 0.878482
O O12 0.699252 0.699252 0.000000
O O13 0.716803 0.608799 0.981850
O O14 0.939080 0.469540 0.632261
O O15 0.848934 0.353151 0.631431
O O16 0.613971 0.227942 0.592973
O O17 0.540929 0.270465 0.618416
#
# Coordination Sequence:
#
# PCOD8324013 Si02
#       7
#    36  18  36  36  36  36  36
#     4  10  18  30  48  68  93 121 161 199 236 278
#     4  10  21  34  46  62  86 122 165 206 242 278
#     4  10  18  29  45  63  85 118 156 191 233 278
#     4   9  18  31  45  65  92 119 149 191 236 284
#     4  10  18  30  46  66  92 122 154 191 234 284
#     4   9  19  32  46  69  98 125 155 194 241 290
#     4   9  17  31  50  70  92 118 151 191 237 286
#
# _framework density 15.569739
#
# number of rings (size 3 to 8) (size 9 to 14) (size 15 to 20)
#    0.000    2.462    2.308    0.692    0.000    0.923 
#    0.000    0.769    0.000    6.462    0.000    0.000 
#    0.000    0.000    0.000    0.000    0.000    8.154 
#
# Total GULP energy -966522.476272 kJ/mol
# GULP energy per Si atom -12391.313798 kJ/mol
# Density = 1.553430 g / cm^3
# Si number density = 15.569739 Si / 1000 Ang^3
#
#
#
# Elastic Constant Matrix: (Units=GPa)
#
#
# Indices 1 2 3 4 5 6 
#
# 1 79.7362 43.8940 47.7748 -1.5332 0.0001 0.0000
# 2 43.8940 79.7362 47.7748 1.5332 -0.0001 0.0000
# 3 47.7748 47.7748 87.3923 0.0000 0.0000 0.0000
# 4 -1.5332 1.5332 0.0000 17.8389 0.0000 -0.0001
# 5 0.0001 -0.0001 0.0000 0.0000 17.8389 -1.5332
# 6 0.0000 0.0000 0.0000 -0.0001 -1.5332 17.9211
#
#
#
# Elastic Compliance Matrix: (Units=1/GPa)
#
#
# Indices 1 2 3 4 5 6 
#
# 1 0.021057 -0.007050 -0.007657 0.002416 0.000000 0.000000
# 2 -0.007050 0.021057 -0.007657 -0.002416 0.000000 0.000000
# 3 -0.007657 -0.007657 0.019814 0.000000 0.000000 0.000000
# 4 0.002416 -0.002416 0.000000 0.056473 0.000000 0.000000
# 5 0.000000 0.000000 0.000000 0.000000 0.056473 0.004832
# 6 0.000000 0.000000 0.000000 0.000000 0.004832 0.056213
#
#
# Mechanical properties :
#
#
# Convention : Reuss Voigt Hill
#
# Bulk Modulus (GPa) = 58.14127 58.41689 58.27908
# Shear Modulus (GPa) = 17.75901 17.88117 17.82009
#
# Velocity S-wave (km/s) = 3.38096 3.39257 3.38677
# Velocity P-wave (km/s) = 7.25705 7.27647 7.26676
#
# Compressibility (1/GPa) = 0.01719949
#
# Stress axis : x y z
#
# Youngs Moduli (GPa) = 47.49114 47.49114 50.46869
#
# Poissons Ratio (x) = 0.33482 0.38643
# Poissons Ratio (y) = 0.33482 0.38643
# Poissons Ratio (z) = 0.36363 0.36363
#
# Static dielectric constant tensor:
#      x y z
#    x 2.994170 0.000000 0.000000 
#    y 0.000000 2.994170 0.000000 
#    z 0.000000 0.000000 3.290030 
# 
# 
# High freq. dielectric constant tensor:
#      x y z
#    x 1.590660 0.000000 0.000000 
#    y 0.000000 1.590660 0.000000 
#    z 0.000000 0.000000 1.591280 
# 
# From -- ./inp_files/10799.got.cif
#   From: 2010.03.12/outbox.cif.g09.slc.cpg/sg166_6_cif.got.tgz:10799.got - 2010.04.02 06:38:31.
