data_PCOD8324037
_publ_section_title
;
Structure prediction by ZEFSAII (Michael W. Deem and Ramdas Pophale) SiO2 
 PCOD8324037
Probable space group: R -3 M
;
_chemical_formula_sum "Si O2"
_cell_formula_units_Z 144
_cell_length_a 30.024295
_cell_length_b 30.024295
_cell_length_c 10.038347
_cell_angle_alpha 90.000000
_cell_angle_beta 90.000000
_cell_angle_gamma 120.000000
_cell_volume 7836.794756
_symmetry_space_group_name_H-M "R -3 M"
_symmetry_group_IT_number 166
_symmetry_cell_setting 'hexagonal'
loop_
_space_group_symop_operation_xyz
x,y,z
-y,x-y,z
-x+y,-x,z
x-y,-y,-z
-x,-x+y,-z
y,x,-z
-x,-y,-z
y,-x+y,-z
x-y,x,-z
-x+y,y,z
x,x-y,z
-y,-x,z
2/3+x,1/3+y,1/3+z
2/3-y,1/3+x-y,1/3+z
2/3-x+y,1/3-x,1/3+z
2/3+x-y,1/3-y,1/3-z
2/3-x,1/3-x+y,1/3-z
2/3+y,1/3+x,1/3-z
2/3-x,1/3-y,1/3-z
2/3+y,1/3-x+y,1/3-z
2/3+x-y,1/3+x,1/3-z
2/3-x+y,1/3+y,1/3+z
2/3+x,1/3+x-y,1/3+z
2/3-y,1/3-x,1/3+z
1/3+x,2/3+y,2/3+z
1/3-y,2/3+x-y,2/3+z
1/3-x+y,2/3-x,2/3+z
1/3+x-y,2/3-y,2/3-z
1/3-x,2/3-x+y,2/3-z
1/3+y,2/3+x,2/3-z
1/3-x,2/3-y,2/3-z
1/3+y,2/3-x+y,2/3-z
1/3+x-y,2/3+x,2/3-z
1/3-x+y,2/3+y,2/3+z
1/3+x,2/3+x-y,2/3+z
1/3-y,2/3-x,2/3+z
loop_
_atom_site_type_symbol
_atom_site_label
_atom_site_fract_x
_atom_site_fract_y
_atom_site_fract_z
Si Si1 0.050750 0.440405 0.166220
Si Si2 0.421053 0.943755 0.870820
Si Si3 0.363619 0.532604 0.798843
Si Si4 0.372729 0.523614 0.283196
O O1 0.056891 0.390224 0.166667
O O2 0.089795 0.481594 0.274129
O O3 0.991378 0.420106 0.200865
O O4 0.066500 0.465806 0.020222
O O5 0.480232 0.960464 0.880072
O O6 0.388853 0.892674 0.783249
O O7 0.408778 0.591223 0.828382
O O8 0.333334 0.530966 0.666667
O O9 0.321179 0.509927 0.912895
O O10 0.420491 0.579510 0.264651
O O11 0.333334 0.514388 0.166667
#
# Coordination Sequence:
#
# PCOD8324037 Si02
#       4
#    36  36  36  36
#     4  10  18  32  57  88 116 150 192 236 285 337
#     4  10  19  35  56  82 118 156 192 234 286 346
#     4  11  23  41  60  83 115 157 199 238 294 356
#     4  11  20  35  61  90 114 145 195 246 295 347
#
# _framework density 18.374858
#
# number of rings (size 3 to 8) (size 9 to 14) (size 15 to 20)
#    0.000    1.500    5.000    4.500    0.000    0.000 
#    4.500    1.250    0.000   14.500    0.000    0.000 
#    0.000    0.000    0.000    0.000    0.000    0.000 
#
# Total GULP energy -595094.306817 kJ/mol
# GULP energy per Si atom -12397.798059 kJ/mol
# Density = 1.833304 g / cm^3
# Si number density = 18.374858 Si / 1000 Ang^3
#
#
#
# Elastic Constant Matrix: (Units=GPa)
#
#
# Indices 1 2 3 4 5 6 
#
# 1 86.7719 44.8853 10.7755 -0.1493 -0.0063 -0.0530
# 2 44.8853 86.8315 10.8424 0.1556 0.0081 -0.0015
# 3 10.7755 10.8424 65.2589 0.0055 -0.1893 -0.0549
# 4 -0.1493 0.1556 0.0055 23.8522 0.0039 0.0033
# 5 -0.0063 0.0081 -0.1893 0.0039 23.7180 -0.1869
# 6 -0.0530 -0.0015 -0.0549 0.0033 -0.1869 20.9307
#
#
#
# Elastic Compliance Matrix: (Units=1/GPa)
#
#
# Indices 1 2 3 4 5 6 
#
# 1 0.015836 -0.008026 -0.001281 0.000152 -0.000003 0.000036
# 2 -0.008026 0.015829 -0.001305 -0.000153 -0.000018 -0.000023
# 3 -0.001281 -0.001305 0.015752 -0.000003 0.000126 0.000039
# 4 0.000152 -0.000153 -0.000003 0.041927 -0.000007 -0.000006
# 5 -0.000003 -0.000018 0.000126 -0.000007 0.042166 0.000377
# 6 0.000036 -0.000023 0.000039 -0.000006 0.000377 0.047780
#
#
# Mechanical properties :
#
#
# Convention : Reuss Voigt Hill
#
# Bulk Modulus (GPa) = 38.17878 41.31872 39.74875
# Shear Modulus (GPa) = 23.89549 25.19078 24.54313
#
# Velocity S-wave (km/s) = 3.61008 3.70663 3.65868
# Velocity P-wave (km/s) = 6.18059 6.39173 6.28705
#
# Compressibility (1/GPa) = 0.02619256
#
# Stress axis : x y z
#
# Youngs Moduli (GPa) = 63.14888 63.17671 63.48279
#
# Poissons Ratio (x) = 0.50706 0.08134
# Poissons Ratio (y) = 0.50684 0.08282
# Poissons Ratio (z) = 0.08091 0.08242
#
# Static dielectric constant tensor:
#      x y z
#    x 3.552640 -0.001370 0.002480 
#    y -0.001370 3.548020 -0.000480 
#    z 0.002480 -0.000480 3.267540 
# 
# 
# High freq. dielectric constant tensor:
#      x y z
#    x 1.719450 0.000000 -0.000010 
#    y 0.000000 1.719450 0.000000 
#    z -0.000010 0.000000 1.686750 
# 
# From -- ./inp_files/1761.got.cif
#   From: 2010.03.12/outbox.cif.g09.slc.cpg/sg166_1_cif.got.tgz:1761.got - 2010.04.02 06:38:31.
