data_PCOD8324843
_publ_section_title
;
Structure prediction by ZEFSAII (Michael W. Deem and Ramdas Pophale) SiO2 
 PCOD8324843
Probable space group: P 63
;
_chemical_formula_sum "Si O2"
_cell_formula_units_Z 36
_cell_length_a 17.322488
_cell_length_b 17.322488
_cell_length_c 7.753540
_cell_angle_alpha 90.000000
_cell_angle_beta 90.000000
_cell_angle_gamma 120.000000
_cell_volume 2014.889352
_symmetry_space_group_name_H-M "P 63"
_symmetry_group_IT_number 173
_symmetry_cell_setting 'hexagonal'
loop_
_space_group_symop_operation_xyz
x,y,z
x-y,x,1/2+z
-y,x-y,z
-x,-y,1/2+z
-x+y,-x,z
y,-x+y,1/2+z
loop_
_atom_site_type_symbol
_atom_site_label
_atom_site_fract_x
_atom_site_fract_y
_atom_site_fract_z
Si Si1 0.980636 0.403397 0.309490
Si Si2 0.825839 0.990274 0.574843
Si Si3 0.730109 0.092740 0.022918
Si Si4 0.900854 0.274668 0.998175
Si Si5 0.403395 0.434620 0.190715
Si Si6 0.831886 0.991802 0.968364
O O1 0.918967 0.339395 0.159601
O O2 0.927838 0.383019 0.494612
O O3 0.064658 0.387269 0.339014
O O4 0.018911 0.504857 0.258111
O O5 0.804165 0.962773 0.772772
O O6 0.899877 0.094229 0.565668
O O7 0.732685 0.968025 0.485792
O O8 0.868878 0.935977 0.485359
O O9 0.799462 0.196720 0.022188
O O10 0.657168 0.065648 0.177173
O O11 0.776912 0.033540 0.053835
O O12 0.905708 0.325599 0.821937
#
# Coordination Sequence:
#
# PCOD8324843 Si02
#       6
#     6   6   6   6   6   6
#     4  10  20  40  59  90 111 151 195 233 309 362
#     4  11  23  34  51  74 112 159 191 236 271 313
#     4   9  23  35  56  91 110 150 199 234 290 338
#     4  11  21  38  58  85 122 148 193 251 275 346
#     4  10  21  38  63  85 116 149 192 240 302 363
#     4  11  22  35  49  75 113 153 200 228 271 324
#
# _framework density 17.866987000000002
#
# number of rings (size 3 to 8) (size 9 to 14) (size 15 to 20)
#    1.000    0.667    3.333    1.333    9.333    0.000 
#    3.000    0.000    0.000    5.333    0.000    0.000 
#    0.000    0.000    0.000    0.000    0.000    0.000 
#
# Total GULP energy -446111.884716 kJ/mol
# GULP energy per Si atom -12391.996798 kJ/mol
# Density = 1.782632 g / cm^3
# Si number density = 17.866987 Si / 1000 Ang^3
#
#
#
# Elastic Constant Matrix: (Units=GPa)
#
#
# Indices 1 2 3 4 5 6 
#
# 1 68.9413 35.6800 6.9232 0.0000 0.0000 0.0000
# 2 35.6800 68.9413 6.9232 0.0000 0.0000 0.0000
# 3 6.9232 6.9232 79.7836 0.0000 0.0000 0.0000
# 4 0.0000 0.0000 0.0000 28.4656 0.0000 0.0000
# 5 0.0000 0.0000 0.0000 0.0000 28.4656 0.0000
# 6 0.0000 0.0000 0.0000 0.0000 0.0000 16.6306
#
#
#
# Elastic Compliance Matrix: (Units=1/GPa)
#
#
# Indices 1 2 3 4 5 6 
#
# 1 0.019867 -0.010198 -0.000839 0.000000 0.000000 0.000000
# 2 -0.010198 0.019867 -0.000839 0.000000 0.000000 0.000000
# 3 -0.000839 -0.000839 0.012680 0.000000 0.000000 0.000000
# 4 0.000000 0.000000 0.000000 0.035130 0.000000 0.000000
# 5 0.000000 0.000000 0.000000 0.000000 0.035130 0.000000
# 6 0.000000 0.000000 0.000000 0.000000 0.000000 0.060130
#
#
# Mechanical properties :
#
#
# Convention : Reuss Voigt Hill
#
# Bulk Modulus (GPa) = 34.88944 35.19100 35.04022
# Shear Modulus (GPa) = 23.13637 25.92169 24.52903
#
# Velocity S-wave (km/s) = 3.60241 3.81309 3.70924
# Velocity P-wave (km/s) = 6.07230 6.25500 6.16433
#
# Compressibility (1/GPa) = 0.02866196
#
# Stress axis : x y z
#
# Youngs Moduli (GPa) = 50.33431 50.33431 78.86734
#
# Poissons Ratio (x) = 0.51330 0.06617
# Poissons Ratio (y) = 0.51330 0.06617
# Poissons Ratio (z) = 0.04223 0.04223
#
# Static dielectric constant tensor:
#      x y z
#    x 3.213610 0.000000 0.000000 
#    y 0.000000 3.213610 0.000000 
#    z 0.000000 0.000000 3.355490 
# 
# 
# High freq. dielectric constant tensor:
#      x y z
#    x 1.673840 0.000000 0.000000 
#    y 0.000000 1.673840 0.000000 
#    z 0.000000 0.000000 1.701560 
# 
# From -- ./inp_files/576.got.cif
#   From: 2010.03.12/outbox.cif.g09.slc.cpg/sg173_cif.got.tgz:576.got - 2010.04.02 06:54:12.
