data_PCOD8324078
_publ_section_title
;
Structure prediction by ZEFSAII (Michael W. Deem and Ramdas Pophale) SiO2 
 PCOD8324078
Probable space group: R -3 M
;
_chemical_formula_sum "Si O2"
_cell_formula_units_Z 216
_cell_length_a 24.846064
_cell_length_b 24.846064
_cell_length_c 24.307038
_cell_angle_alpha 90.000000
_cell_angle_beta 90.000000
_cell_angle_gamma 120.000000
_cell_volume 12995.047484
_symmetry_space_group_name_H-M "R -3 M"
_symmetry_group_IT_number 166
_symmetry_cell_setting 'hexagonal'
loop_
_space_group_symop_operation_xyz
x,y,z
-y,x-y,z
-x+y,-x,z
x-y,-y,-z
-x,-x+y,-z
y,x,-z
-x,-y,-z
y,-x+y,-z
x-y,x,-z
-x+y,y,z
x,x-y,z
-y,-x,z
2/3+x,1/3+y,1/3+z
2/3-y,1/3+x-y,1/3+z
2/3-x+y,1/3-x,1/3+z
2/3+x-y,1/3-y,1/3-z
2/3-x,1/3-x+y,1/3-z
2/3+y,1/3+x,1/3-z
2/3-x,1/3-y,1/3-z
2/3+y,1/3-x+y,1/3-z
2/3+x-y,1/3+x,1/3-z
2/3-x+y,1/3+y,1/3+z
2/3+x,1/3+x-y,1/3+z
2/3-y,1/3-x,1/3+z
1/3+x,2/3+y,2/3+z
1/3-y,2/3+x-y,2/3+z
1/3-x+y,2/3-x,2/3+z
1/3+x-y,2/3-y,2/3-z
1/3-x,2/3-x+y,2/3-z
1/3+y,2/3+x,2/3-z
1/3-x,2/3-y,2/3-z
1/3+y,2/3-x+y,2/3-z
1/3+x-y,2/3+x,2/3-z
1/3-x+y,2/3+y,2/3+z
1/3+x,2/3+x-y,2/3+z
1/3-y,2/3-x,2/3+z
loop_
_atom_site_type_symbol
_atom_site_label
_atom_site_fract_x
_atom_site_fract_y
_atom_site_fract_z
Si Si1 0.539118 0.953633 0.814632
Si Si2 0.804935 0.195066 0.243484
Si Si3 0.738246 0.595912 0.683628
Si Si4 0.420833 0.149344 0.807085
Si Si5 0.209091 0.418182 0.875607
Si Si6 0.309080 0.383417 0.727251
Si Si7 0.240448 0.006847 0.248681
O O1 0.467907 0.935814 0.801751
O O2 0.566772 0.931471 0.765410
O O3 0.540295 0.922813 0.872367
O O4 0.581686 0.027354 0.821340
O O5 0.783476 0.216524 0.189352
O O6 0.839658 0.160343 0.222006
O O7 0.744021 0.147195 0.278156
O O8 0.783264 0.566528 0.679414
O O9 0.775887 0.666667 0.666667
O O10 0.713994 0.592385 0.745481
O O11 0.680295 0.560888 0.643195
O O12 0.443588 0.221794 0.805642
O O13 0.476279 0.142946 0.833334
O O14 0.170659 0.447765 0.901289
O O15 0.333334 0.381863 0.666667
O O16 0.279753 0.315012 0.754127
#
# Coordination Sequence:
#
# PCOD8324078 Si02
#       7
#    36  18  36  36  18  36  36
#     4  11  22  34  52  76 105 135 173 213 250 308
#     4   9  18  36  50  68 102 140 171 206 254 294
#     4  10  19  32  51  75 102 134 171 207 247 303
#     4  10  21  36  52  72 104 137 169 213 256 301
#     4   9  18  32  52  72 100 135 169 206 242 315
#     4  11  23  33  52  75 106 142 174 212 250 307
#     4  11  19  34  52  76 102 137 172 204 259 303
#
# _framework density 16.621717
#
# number of rings (size 3 to 8) (size 9 to 14) (size 15 to 20)
#    0.000    1.667    3.333    2.500    3.500    0.000 
#    1.500    0.000    0.000    0.167    0.000    0.000 
#   15.000    0.667    0.000    0.000    0.000    0.000 
#
# Total GULP energy -892675.207614 kJ/mol
# GULP energy per Si atom -12398.266772 kJ/mol
# Density = 1.658388 g / cm^3
# Si number density = 16.621717 Si / 1000 Ang^3
#
#
#
# Elastic Constant Matrix: (Units=GPa)
#
#
# Indices 1 2 3 4 5 6 
#
# 1 73.3876 30.3093 24.9059 1.2625 -0.0002 0.0000
# 2 30.3093 73.3876 24.9059 -1.2625 0.0002 0.0000
# 3 24.9059 24.9059 76.3272 0.0000 0.0000 0.0000
# 4 1.2625 -1.2625 0.0000 24.5632 0.0000 0.0002
# 5 -0.0002 0.0002 0.0000 0.0000 24.5632 1.2625
# 6 0.0000 0.0000 0.0000 0.0002 1.2625 21.5392
#
#
#
# Elastic Compliance Matrix: (Units=1/GPa)
#
#
# Indices 1 2 3 4 5 6 
#
# 1 0.017360 -0.005924 -0.003732 -0.001197 0.000000 0.000000
# 2 -0.005924 0.017360 -0.003732 0.001197 0.000000 0.000000
# 3 -0.003732 -0.003732 0.015537 0.000000 0.000000 0.000000
# 4 -0.001197 0.001197 0.000000 0.040834 0.000000 0.000000
# 5 0.000000 0.000000 0.000000 0.000000 0.040834 -0.002394
# 6 0.000000 0.000000 0.000000 0.000000 -0.002394 0.046567
#
#
# Mechanical properties :
#
#
# Convention : Reuss Voigt Hill
#
# Bulk Modulus (GPa) = 42.58526 42.59387 42.58956
# Shear Modulus (GPa) = 23.46383 23.66522 23.56452
#
# Velocity S-wave (km/s) = 3.76125 3.77736 3.76931
# Velocity P-wave (km/s) = 6.67372 6.68623 6.67998
#
# Compressibility (1/GPa) = 0.02348230
#
# Stress axis : x y z
#
# Youngs Moduli (GPa) = 57.60423 57.60423 64.36337
#
# Poissons Ratio (x) = 0.34124 0.24018
# Poissons Ratio (y) = 0.34124 0.24018
# Poissons Ratio (z) = 0.21496 0.21496
#
# Static dielectric constant tensor:
#      x y z
#    x 3.107340 0.000000 0.000000 
#    y 0.000000 3.107340 0.000000 
#    z 0.000000 0.000000 6.600750 
# 
# 
# High freq. dielectric constant tensor:
#      x y z
#    x 1.620110 0.000000 0.000000 
#    y 0.000000 1.620110 0.000000 
#    z 0.000000 0.000000 1.649300 
# 
# From -- ./inp_files/8519.got.cif
#   From: 2010.03.12/outbox.cif.g09.slc.cpg/sg166_5_cif.got.tgz:8519.got - 2010.04.02 06:38:31.
