data_PCOD8324427
_publ_section_title
;
Structure prediction by ZEFSAII (Michael W. Deem and Ramdas Pophale) SiO2 
 PCOD8324427
Probable space group: R -3 C 
;
_chemical_formula_sum "Si O2"
_cell_formula_units_Z 72
_cell_length_a 18.350695
_cell_length_b 18.350695
_cell_length_c 9.447067
_cell_angle_alpha 90.000000
_cell_angle_beta 90.000000
_cell_angle_gamma 120.000000
_cell_volume 2755.070149
_symmetry_space_group_name_H-M "R -3 C "
_symmetry_group_IT_number 167
_symmetry_cell_setting 'hexagonal'
loop_
_space_group_symop_operation_xyz
x,y,z
-y,x-y,z
-x+y,-x,z
x-y,-y,1/2-z
-x,-x+y,1/2-z
y,x,1/2-z
-x,-y,-z
y,-x+y,-z
x-y,x,-z
-x+y,y,1/2+z
x,x-y,1/2+z
-y,-x,1/2+z
2/3+x,1/3+y,1/3+z
2/3-y,1/3+x-y,1/3+z
2/3-x+y,1/3-x,1/3+z
2/3+x-y,1/3-y,5/6-z
2/3-x,1/3-x+y,5/6-z
2/3+y,1/3+x,5/6-z
2/3-x,1/3-y,1/3-z
2/3+y,1/3-x+y,1/3-z
2/3+x-y,1/3+x,1/3-z
2/3-x+y,1/3+y,5/6+z
2/3+x,1/3+x-y,5/6+z
2/3-y,1/3-x,5/6+z
1/3+x,2/3+y,2/3+z
1/3-y,2/3+x-y,2/3+z
1/3-x+y,2/3-x,2/3+z
1/3+x-y,2/3-y,1/6-z
1/3-x,2/3-x+y,1/6-z
1/3+y,2/3+x,1/6-z
1/3-x,2/3-y,2/3-z
1/3+y,2/3-x+y,2/3-z
1/3+x-y,2/3+x,2/3-z
1/3-x+y,2/3+y,1/6+z
1/3+x,2/3+x-y,1/6+z
1/3-y,2/3-x,1/6+z
loop_
_atom_site_type_symbol
_atom_site_label
_atom_site_fract_x
_atom_site_fract_y
_atom_site_fract_z
Si Si1 0.764892 0.091879 0.571919
Si Si2 0.331401 0.521475 0.256116
O O1 0.794827 0.128160 0.416667
O O2 0.833334 0.166667 0.666667
O O3 0.772216 0.008544 0.599579
O O4 0.666667 0.066479 0.583334
O O5 0.333334 0.555299 0.416667
O O6 0.249341 0.506475 0.171605
#
# Coordination Sequence:
#
# PCOD8324427 Si02
#       2
#    36  36
#     4  12  27  51  80 116 157 206 265 335 405 481
#     4  12  26  47  74 110 156 210 264 327 397 477
#
# _framework density 26.133637
#
# number of rings (size 3 to 8) (size 9 to 14) (size 15 to 20)
#    0.000    0.000    0.000    9.500    0.000    4.000 
#    0.000    0.000    0.000    0.000    0.000    0.000 
#    0.000    0.000    0.000    0.000    0.000    0.000 
#
# Total GULP energy -297385.604213 kJ/mol
# GULP energy per Si atom -12391.066842 kJ/mol
# Density = 2.607416 g / cm^3
# Si number density = 26.133637 Si / 1000 Ang^3
#
#
#
# Elastic Constant Matrix: (Units=GPa)
#
#
# Indices 1 2 3 4 5 6 
#
# 1 145.5734 55.5340 59.3545 10.0128 0.0002 0.0000
# 2 55.5340 145.5734 59.3547 -10.0128 -0.0001 0.0000
# 3 59.3545 59.3547 255.4617 0.0002 0.0002 0.0000
# 4 10.0128 -10.0128 0.0002 31.9621 0.0001 -0.0002
# 5 0.0002 -0.0001 0.0002 0.0001 31.9621 10.0128
# 6 0.0000 0.0000 0.0000 -0.0002 10.0128 45.0197
#
#
#
# Elastic Compliance Matrix: (Units=1/GPa)
#
#
# Indices 1 2 3 4 5 6 
#
# 1 0.008850 -0.003088 -0.001339 -0.003740 0.000000 0.000000
# 2 -0.003088 0.008850 -0.001339 0.003740 0.000000 0.000000
# 3 -0.001339 -0.001339 0.004537 0.000000 0.000000 0.000000
# 4 -0.003740 0.003740 0.000000 0.033630 0.000000 0.000000
# 5 0.000000 0.000000 0.000000 0.000000 0.033630 -0.007480
# 6 0.000000 0.000000 0.000000 0.000000 -0.007480 0.023876
#
#
# Mechanical properties :
#
#
# Convention : Reuss Voigt Hill
#
# Bulk Modulus (GPa) = 93.40108 99.45500 96.42804
# Shear Modulus (GPa) = 38.91840 46.61312 42.76576
#
# Velocity S-wave (km/s) = 3.86321 4.22790 4.04966
# Velocity P-wave (km/s) = 7.46435 7.87226 7.67102
#
# Compressibility (1/GPa) = 0.01070651
#
# Stress axis : x y z
#
# Youngs Moduli (GPa) = 112.98896 112.98890 220.42595
#
# Poissons Ratio (x) = 0.34887 0.29514
# Poissons Ratio (y) = 0.34887 0.29514
# Poissons Ratio (z) = 0.15129 0.15129
#
# Static dielectric constant tensor:
#      x y z
#    x 4.919140 0.000000 0.000000 
#    y 0.000000 4.919140 0.000000 
#    z 0.000000 0.000000 5.297730 
# 
# 
# High freq. dielectric constant tensor:
#      x y z
#    x 2.049590 0.000000 0.000000 
#    y 0.000000 2.049590 0.000000 
#    z 0.000000 0.000000 2.081900 
# 
# From -- ./inp_files/321.got.cif
#   From: 2010.03.12/outbox.cif.g09.slc.cpg/sg167_1_cif.got.tgz:321.got - 2010.04.02 06:42:56.
