data_PCOD8324904
_publ_section_title
;
Structure prediction by ZEFSAII (Michael W. Deem and Ramdas Pophale) SiO2 
 PCOD8324904
Probable space group: P -6
;
_chemical_formula_sum "Si O2"
_cell_formula_units_Z 40
_cell_length_a 12.605623
_cell_length_b 12.605623
_cell_length_c 16.284020
_cell_angle_alpha 90.000000
_cell_angle_beta 90.000000
_cell_angle_gamma 120.000000
_cell_volume 2240.891801
_symmetry_space_group_name_H-M "P -6"
_symmetry_group_IT_number 174
_symmetry_cell_setting 'hexagonal'
loop_
_space_group_symop_operation_xyz
x,y,z
-x+y,-x,-z
-y,x-y,z
x,y,-z
-x+y,-x,z
-y,x-y,-z
loop_
_atom_site_type_symbol
_atom_site_label
_atom_site_fract_x
_atom_site_fract_y
_atom_site_fract_z
Si Si1 0.909154 0.546908 0.905295
Si Si2 0.771934 0.749556 0.404381
Si Si3 0.082005 0.646448 0.763122
Si Si4 0.702224 0.556751 0.169479
Si Si5 0.000000 0.000000 0.597136
Si Si6 0.730286 0.161303 0.329939
Si Si7 0.589946 0.684958 0.260245
Si Si8 0.666667 0.333333 0.595036
O O1 0.844799 0.410958 0.866785
O O2 0.815883 0.600080 0.893798
O O3 0.034979 0.628980 0.856925
O O4 0.941276 0.546176 0.000000
O O5 0.738366 0.750373 0.500000
O O6 0.873819 0.884002 0.371895
O O7 0.828420 0.661270 0.392753
O O8 0.650538 0.702561 0.349836
O O9 0.120885 0.548212 0.736413
O O10 0.194753 0.781223 0.762024
O O11 0.977377 0.632766 0.700805
O O12 0.742255 0.528252 0.255888
O O13 0.665570 0.660930 0.188161
O O14 0.000000 0.000000 0.500000
O O15 0.642179 0.200094 0.376255
O O16 0.666667 0.333334 0.500000
#
# Coordination Sequence:
#
# PCOD8324904 Si02
#       8
#     6   6   6   6   2   6   6   2
#     4  10  18  31  52  82 108 129 163 211 260 313
#     4  10  19  33  52  78 104 134 174 220 263 306
#     4  10  21  36  54  74 100 141 179 212 256 307
#     4   9  18  31  53  77 103 134 164 203 261 316
#     4   9  18  30  48  72 102 132 172 224 268 303
#     4  10  19  33  51  75 107 135 168 210 258 319
#     4  10  20  36  54  72 102 142 181 215 253 308
#     4  12  21  30  48  78 109 137 163 207 270 324
#
# _framework density 17.850038000000001
#
# number of rings (size 3 to 8) (size 9 to 14) (size 15 to 20)
#    0.000    2.100    0.000    6.000    0.000    0.000 
#    0.000    6.000    0.000    0.600    0.000    0.000 
#    0.000    0.000    0.000    0.000    0.000    0.000 
#
# Total GULP energy -495866.746031 kJ/mol
# GULP energy per Si atom -12396.668651 kJ/mol
# Density = 1.780941 g / cm^3
# Si number density = 17.850038 Si / 1000 Ang^3
#
#
#
# Elastic Constant Matrix: (Units=GPa)
#
#
# Indices 1 2 3 4 5 6 
#
# 1 113.7457 59.4317 48.9062 0.0000 0.0000 0.0007
# 2 59.4317 113.7465 48.9066 0.0000 0.0000 -0.0003
# 3 48.9062 48.9066 97.2602 0.0000 0.0000 0.0006
# 4 0.0000 0.0000 0.0000 15.4995 0.0000 0.0000
# 5 0.0000 0.0000 0.0000 0.0000 15.4995 0.0000
# 6 0.0007 -0.0003 0.0006 0.0000 0.0000 27.1566
#
#
#
# Elastic Compliance Matrix: (Units=1/GPa)
#
#
# Indices 1 2 3 4 5 6 
#
# 1 0.013238 -0.005173 -0.004055 0.000000 0.000000 0.000000
# 2 -0.005173 0.013238 -0.004055 0.000000 0.000000 0.000000
# 3 -0.004055 -0.004055 0.014360 0.000000 0.000000 0.000000
# 4 0.000000 0.000000 0.000000 0.064518 0.000000 0.000000
# 5 0.000000 0.000000 0.000000 0.000000 0.064518 0.000000
# 6 0.000000 0.000000 0.000000 0.000000 0.000000 0.036823
#
#
# Mechanical properties :
#
#
# Convention : Reuss Voigt Hill
#
# Bulk Modulus (GPa) = 70.08458 71.02682 70.55570
# Shear Modulus (GPa) = 21.00659 22.79830 21.90244
#
# Velocity S-wave (km/s) = 3.43423 3.57769 3.50669
# Velocity P-wave (km/s) = 7.42115 7.54611 7.48389
#
# Compressibility (1/GPa) = 0.01426847
#
# Stress axis : x y z
#
# Youngs Moduli (GPa) = 75.53921 75.53948 69.63735
#
# Poissons Ratio (x) = 0.39078 0.28240
# Poissons Ratio (y) = 0.39078 0.28241
# Poissons Ratio (z) = 0.30634 0.30634
#
# Static dielectric constant tensor:
#      x y z
#    x 3.454100 -0.000010 0.000000 
#    y -0.000010 3.454080 0.000000 
#    z 0.000000 0.000000 3.210960 
# 
# 
# High freq. dielectric constant tensor:
#      x y z
#    x 1.687640 0.000000 0.000000 
#    y 0.000000 1.687640 0.000000 
#    z 0.000000 0.000000 1.679170 
# 
# From -- ./inp_files/1007.got.cif
#   From: 2010.03.12/outbox.cif.g09.slc.cpg/sg174_cif.got.tgz:1007.got - 2010.04.02 06:54:58.
