data_PCOD8324230
_publ_section_title
;
Structure prediction by ZEFSAII (Michael W. Deem and Ramdas Pophale) SiO2 
 PCOD8324230
Probable space group: R -3 M
;
_chemical_formula_sum "Si O2"
_cell_formula_units_Z 108
_cell_length_a 20.293854
_cell_length_b 20.293854
_cell_length_c 13.123610
_cell_angle_alpha 90.000000
_cell_angle_beta 90.000000
_cell_angle_gamma 120.000000
_cell_volume 4680.723753
_symmetry_space_group_name_H-M "R -3 M"
_symmetry_group_IT_number 166
_symmetry_cell_setting 'hexagonal'
loop_
_space_group_symop_operation_xyz
x,y,z
-y,x-y,z
-x+y,-x,z
x-y,-y,-z
-x,-x+y,-z
y,x,-z
-x,-y,-z
y,-x+y,-z
x-y,x,-z
-x+y,y,z
x,x-y,z
-y,-x,z
2/3+x,1/3+y,1/3+z
2/3-y,1/3+x-y,1/3+z
2/3-x+y,1/3-x,1/3+z
2/3+x-y,1/3-y,1/3-z
2/3-x,1/3-x+y,1/3-z
2/3+y,1/3+x,1/3-z
2/3-x,1/3-y,1/3-z
2/3+y,1/3-x+y,1/3-z
2/3+x-y,1/3+x,1/3-z
2/3-x+y,1/3+y,1/3+z
2/3+x,1/3+x-y,1/3+z
2/3-y,1/3-x,1/3+z
1/3+x,2/3+y,2/3+z
1/3-y,2/3+x-y,2/3+z
1/3-x+y,2/3-x,2/3+z
1/3+x-y,2/3-y,2/3-z
1/3-x,2/3-x+y,2/3-z
1/3+y,2/3+x,2/3-z
1/3-x,2/3-y,2/3-z
1/3+y,2/3-x+y,2/3-z
1/3+x-y,2/3+x,2/3-z
1/3-x+y,2/3+y,2/3+z
1/3+x,2/3+x-y,2/3+z
1/3-y,2/3-x,2/3+z
loop_
_atom_site_type_symbol
_atom_site_label
_atom_site_fract_x
_atom_site_fract_y
_atom_site_fract_z
Si Si1 0.719775 0.859888 0.625876
Si Si2 0.675350 0.066424 0.077431
Si Si3 0.715769 0.431537 0.576451
Si Si4 0.167275 0.583638 0.124750
Si Si5 0.542300 0.084600 0.170351
O O1 0.751011 0.938432 0.686660
O O2 0.749508 0.874754 0.507274
O O3 0.627475 0.813738 0.611844
O O4 0.724203 0.057536 0.166667
O O5 0.597812 0.062037 0.111880
O O6 0.656868 0.000000 0.000000
O O7 0.623560 0.376441 0.577432
O O8 0.746538 0.493076 0.669060
O O9 0.744636 0.489272 0.479550
O O10 0.210045 0.666667 0.166667
#
# Coordination Sequence:
#
# PCOD8324230 Si02
#       5
#    18  36  18  18  18
#     4  12  29  45  72 112 143 206 240 310 378 446
#     4  12  27  51  75 107 151 197 254 302 372 452
#     4  10  23  43  67 106 144 189 246 310 379 428
#     4  12  22  38  64 100 148 184 243 295 378 442
#     4  12  27  44  74 107 150 189 254 305 370 451
#
# _framework density 23.073354999999999
#
# number of rings (size 3 to 8) (size 9 to 14) (size 15 to 20)
#    0.333    0.000    5.000    3.167   11.667    0.000 
#    0.000    0.000    3.667    0.000    0.000    2.333 
#    0.000    0.000    0.000    0.000    0.000    0.000 
#
# Total GULP energy -446149.343212 kJ/mol
# GULP energy per Si atom -12393.037311 kJ/mol
# Density = 2.302084 g / cm^3
# Si number density = 23.073355 Si / 1000 Ang^3
#
#
#
# Elastic Constant Matrix: (Units=GPa)
#
#
# Indices 1 2 3 4 5 6 
#
# 1 112.7074 34.7195 34.7907 -4.4637 0.0002 0.0000
# 2 34.7195 112.7074 34.7907 4.4637 -0.0002 0.0000
# 3 34.7907 34.7907 55.9972 0.0000 0.0000 0.0000
# 4 -4.4637 4.4637 0.0000 35.7977 0.0000 -0.0002
# 5 0.0002 -0.0002 0.0000 0.0000 35.7977 -4.4637
# 6 0.0000 0.0000 0.0000 -0.0002 -4.4637 38.9940
#
#
#
# Elastic Compliance Matrix: (Units=1/GPa)
#
#
# Indices 1 2 3 4 5 6 
#
# 1 0.011303 -0.001705 -0.005963 0.001622 0.000000 0.000000
# 2 -0.001705 0.011303 -0.005963 -0.001622 0.000000 0.000000
# 3 -0.005963 -0.005963 0.025267 0.000000 0.000000 0.000000
# 4 0.001622 -0.001622 0.000000 0.028339 0.000000 0.000000
# 5 0.000000 0.000000 0.000000 0.000000 0.028339 0.003244
# 6 0.000000 0.000000 0.000000 0.000000 0.003244 0.026016
#
#
# Mechanical properties :
#
#
# Convention : Reuss Voigt Hill
#
# Bulk Modulus (GPa) = 48.51804 54.44597 51.48200
# Shear Modulus (GPa) = 30.35832 33.92530 32.14181
#
# Velocity S-wave (km/s) = 3.63124 3.83864 3.73638
# Velocity P-wave (km/s) = 6.21728 6.57989 6.40115
#
# Compressibility (1/GPa) = 0.02061089
#
# Stress axis : x y z
#
# Youngs Moduli (GPa) = 88.47435 88.47435 39.57697
#
# Poissons Ratio (x) = 0.15089 0.23599
# Poissons Ratio (y) = 0.15089 0.23599
# Poissons Ratio (z) = 0.52755 0.52755
#
# Static dielectric constant tensor:
#      x y z
#    x 4.354700 0.000000 0.000000 
#    y 0.000000 4.354700 0.000000 
#    z 0.000000 0.000000 4.138900 
# 
# 
# High freq. dielectric constant tensor:
#      x y z
#    x 1.928900 0.000000 0.000000 
#    y 0.000000 1.928900 0.000000 
#    z 0.000000 0.000000 1.878180 
# 
# From -- ./inp_files/3741.got.cif
#   From: 2010.03.12/outbox.cif.g09.slc.cpg/sg166_2_cif.got.tgz:3741.got - 2010.04.02 06:38:31.
