data_PCOD8324799
_publ_section_title
;
Structure prediction by ZEFSAII (Michael W. Deem and Ramdas Pophale) SiO2 
 PCOD8324799
Probable space group: P 62
;
_chemical_formula_sum "Si O2"
_cell_formula_units_Z 42
_cell_length_a 18.266548
_cell_length_b 18.266548
_cell_length_c 7.034799
_cell_angle_alpha 90.000000
_cell_angle_beta 90.000000
_cell_angle_gamma 120.000000
_cell_volume 2032.802985
_symmetry_space_group_name_H-M "P 62"
_symmetry_group_IT_number 171
_symmetry_cell_setting 'hexagonal'
loop_
_space_group_symop_operation_xyz
x,y,z
x-y,x,1/3+z
-y,x-y,2/3+z
-x,-y,z
-x+y,-x,1/3+z
y,-x+y,2/3+z
loop_
_atom_site_type_symbol
_atom_site_label
_atom_site_fract_x
_atom_site_fract_y
_atom_site_fract_z
Si Si1 0.840586 0.313592 0.565190
Si Si2 0.293341 0.238872 0.636846
Si Si3 0.197419 0.700900 0.137081
Si Si4 0.964410 0.588938 0.675696
Si Si5 0.629443 0.751817 0.030571
Si Si6 0.175259 0.572392 0.824689
Si Si7 0.308891 0.130799 0.354599
O O1 0.845617 0.327932 0.341296
O O2 0.786786 0.215926 0.618377
O O3 0.790080 0.355081 0.663221
O O4 0.935404 0.359982 0.648567
O O5 0.364546 0.303344 0.497151
O O6 0.277176 0.148671 0.556724
O O7 0.209356 0.244729 0.629144
O O8 0.322964 0.258604 0.852818
O O9 0.296636 0.766329 0.160658
O O10 0.152666 0.745930 0.028591
O O11 0.178518 0.615868 0.026816
O O12 0.916772 0.578869 0.473247
O O13 0.922403 0.494670 0.765190
O O14 0.698735 0.816018 0.180654
#
# Coordination Sequence:
#
# PCOD8324799 Si02
#       7
#     6   6   6   6   6   6   6
#     4  12  24  42  67  95 132 177 228 278 339 395
#     4  11  22  39  71  99 136 170 222 272 340 398
#     4  12  26  44  64  92 133 180 234 275 348 388
#     4  11  23  43  65  96 133 176 224 288 328 394
#     4  11  21  39  68  92 134 170 220 275 336 392
#     4  12  25  44  63  93 131 180 230 286 325 395
#     4  11  22  43  64 102 133 173 215 283 327 411
#
# _framework density 20.661125999999999
#
# number of rings (size 3 to 8) (size 9 to 14) (size 15 to 20)
#    0.000    0.571    7.143    1.286    2.000    2.286 
#    0.000    2.857    0.000    0.000    0.000    5.000 
#    0.000    0.000    0.000    0.000    0.000    0.000 
#
# Total GULP energy -520646.445546 kJ/mol
# GULP energy per Si atom -12396.343942 kJ/mol
# Density = 2.061410 g / cm^3
# Si number density = 20.661126 Si / 1000 Ang^3
#
#
#
# Elastic Constant Matrix: (Units=GPa)
#
#
# Indices 1 2 3 4 5 6 
#
# 1 63.3077 25.4052 15.7610 0.0000 0.0000 0.0000
# 2 25.4052 63.3077 15.7610 0.0000 0.0000 0.0000
# 3 15.7610 15.7610 133.1616 0.0000 0.0000 0.0000
# 4 0.0000 0.0000 0.0000 31.5984 0.0000 0.0000
# 5 0.0000 0.0000 0.0000 0.0000 31.5984 0.0000
# 6 0.0000 0.0000 0.0000 0.0000 0.0000 18.9512
#
#
#
# Elastic Compliance Matrix: (Units=1/GPa)
#
#
# Indices 1 2 3 4 5 6 
#
# 1 0.019075 -0.007308 -0.001393 0.000000 0.000000 0.000000
# 2 -0.007308 0.019075 -0.001393 0.000000 0.000000 0.000000
# 3 -0.001393 -0.001393 0.007839 0.000000 0.000000 0.000000
# 4 0.000000 0.000000 0.000000 0.031647 0.000000 0.000000
# 5 0.000000 0.000000 0.000000 0.000000 0.031647 0.000000
# 6 0.000000 0.000000 0.000000 0.000000 0.000000 0.052767
#
#
# Mechanical properties :
#
#
# Convention : Reuss Voigt Hill
#
# Bulk Modulus (GPa) = 38.75563 41.51461 40.13512
# Shear Modulus (GPa) = 26.19997 29.95290 28.07644
#
# Velocity S-wave (km/s) = 3.56488 3.81165 3.69033
# Velocity P-wave (km/s) = 5.97854 6.28556 6.13397
#
# Compressibility (1/GPa) = 0.02580271
#
# Stress axis : x y z
#
# Youngs Moduli (GPa) = 52.42364 52.42364 127.56131
#
# Poissons Ratio (x) = 0.38312 0.17766
# Poissons Ratio (y) = 0.38312 0.17766
# Poissons Ratio (z) = 0.07301 0.07301
#
# Static dielectric constant tensor:
#      x y z
#    x 3.759380 0.000000 0.000000 
#    y 0.000000 3.759380 0.000000 
#    z 0.000000 0.000000 4.132520 
# 
# 
# High freq. dielectric constant tensor:
#      x y z
#    x 1.795580 0.000000 0.000000 
#    y 0.000000 1.795580 0.000000 
#    z 0.000000 0.000000 1.829780 
# 
# From -- ./inp_files/755.got.cif
#   From: 2010.03.12/outbox.cif.g09.slc.cpg/sg171_1_cif.got.tgz:755.got - 2010.04.02 06:49:11.
