data_PCOD8324935
_publ_section_title
;
Structure prediction by ZEFSAII (Michael W. Deem and Ramdas Pophale) SiO2 
 PCOD8324935
Probable space group: P -6
;
_chemical_formula_sum "Si O2"
_cell_formula_units_Z 30
_cell_length_a 8.543406
_cell_length_b 8.543406
_cell_length_c 24.085993
_cell_angle_alpha 90.000000
_cell_angle_beta 90.000000
_cell_angle_gamma 120.000000
_cell_volume 1522.499919
_symmetry_space_group_name_H-M "P -6"
_symmetry_group_IT_number 174
_symmetry_cell_setting 'hexagonal'
loop_
_space_group_symop_operation_xyz
x,y,z
-x+y,-x,-z
-y,x-y,z
x,y,-z
-x+y,-x,z
-y,x-y,-z
loop_
_atom_site_type_symbol
_atom_site_label
_atom_site_fract_x
_atom_site_fract_y
_atom_site_fract_z
Si Si1 0.649547 0.124697 0.900153
Si Si2 0.005328 0.667628 0.336507
Si Si3 0.459918 0.135139 0.500000
Si Si4 0.343969 0.471967 0.000000
Si Si5 0.670296 0.664229 0.618791
Si Si6 0.471174 0.343521 0.777228
O O1 0.835131 0.317776 0.907137
O O2 0.647591 0.046040 0.838624
O O3 0.635257 0.981871 0.945558
O O4 0.800990 0.598827 0.355467
O O5 0.010341 0.662185 0.269229
O O6 0.067040 0.533211 0.361213
O O7 0.134773 0.867225 0.360005
O O8 0.492974 0.340785 0.500000
O O9 0.341998 0.022112 0.552340
O O10 0.516546 0.677256 0.000000
O O11 0.485159 0.160784 0.770759
#
# Coordination Sequence:
#
# PCOD8324935 Si02
#       6
#     6   6   3   3   6   6
#     4   8  16  33  62  80  97 163 221 235 269 377
#     4  12  22  42  60  97 124 160 205 253 320 376
#     4  10  20  42  68  84 110 164 204 254 316 358
#     4  10  20  30  44  82 132 146 178 264 326 328
#     4  12  24  39  67  88 123 163 200 256 311 379
#     4   8  15  34  64  85 114 156 204 253 302 354
#
# _framework density 19.704433000000002
#
# number of rings (size 3 to 8) (size 9 to 14) (size 15 to 20)
#    1.200    0.800    4.000    1.800    0.000    1.600 
#    3.600    0.000    0.000    3.200    0.000    0.000 
#    0.000    0.000    0.000    0.000    0.000    0.000 
#
# Total GULP energy -371758.396013 kJ/mol
# GULP energy per Si atom -12391.946534 kJ/mol
# Density = 1.965958 g / cm^3
# Si number density = 19.704433 Si / 1000 Ang^3
#
#
#
# Elastic Constant Matrix: (Units=GPa)
#
#
# Indices 1 2 3 4 5 6 
#
# 1 54.3840 6.5924 35.6031 0.0000 0.0000 0.0000
# 2 6.5924 54.3840 35.6031 0.0000 0.0000 0.0000
# 3 35.6031 35.6031 197.0405 0.0000 0.0000 0.0000
# 4 0.0000 0.0000 0.0000 24.9141 0.0000 0.0000
# 5 0.0000 0.0000 0.0000 0.0000 24.9141 0.0000
# 6 0.0000 0.0000 0.0000 0.0000 0.0000 23.8958
#
#
#
# Elastic Compliance Matrix: (Units=1/GPa)
#
#
# Indices 1 2 3 4 5 6 
#
# 1 0.020855 -0.000069 -0.003756 0.000000 0.000000 0.000000
# 2 -0.000069 0.020855 -0.003756 0.000000 0.000000 0.000000
# 3 -0.003756 -0.003756 0.006432 0.000000 0.000000 0.000000
# 4 0.000000 0.000000 0.000000 0.040138 0.000000 0.000000
# 5 0.000000 0.000000 0.000000 0.000000 0.040138 0.000000
# 6 0.000000 0.000000 0.000000 0.000000 0.000000 0.041848
#
#
# Mechanical properties :
#
#
# Convention : Reuss Voigt Hill
#
# Bulk Modulus (GPa) = 30.32081 51.26728 40.79405
# Shear Modulus (GPa) = 25.45548 29.94546 27.70047
#
# Velocity S-wave (km/s) = 3.59815 3.90260 3.75347
# Velocity P-wave (km/s) = 5.71695 6.81041 6.28750
#
# Compressibility (1/GPa) = 0.03298065
#
# Stress axis : x y z
#
# Youngs Moduli (GPa) = 47.95033 47.95033 155.46436
#
# Poissons Ratio (x) = 0.00332 0.58388
# Poissons Ratio (y) = 0.00332 0.58388
# Poissons Ratio (z) = 0.18009 0.18009
#
# Static dielectric constant tensor:
#      x y z
#    x 3.100300 0.000000 0.000000 
#    y 0.000000 3.100300 0.000000 
#    z 0.000000 0.000000 3.614610 
# 
# 
# High freq. dielectric constant tensor:
#      x y z
#    x 1.731560 0.000000 0.000000 
#    y 0.000000 1.731560 0.000000 
#    z 0.000000 0.000000 1.786010 
# 
# From -- ./inp_files/1075.got.cif
#   From: 2010.03.12/outbox.cif.g09.slc.cpg/sg174_cif.got.tgz:1075.got - 2010.04.02 06:54:58.
