data_PCOD8324545
_publ_section_title
;
Structure prediction by ZEFSAII (Michael W. Deem and Ramdas Pophale) SiO2 
 PCOD8324545
Probable space group: P 61
;
_chemical_formula_sum "Si O2"
_cell_formula_units_Z 48
_cell_length_a 14.476960
_cell_length_b 14.476960
_cell_length_c 12.534607
_cell_angle_alpha 90.000000
_cell_angle_beta 90.000000
_cell_angle_gamma 120.000000
_cell_volume 2275.077014
_symmetry_space_group_name_H-M "P 61"
_symmetry_group_IT_number 169
_symmetry_cell_setting 'hexagonal'
loop_
_space_group_symop_operation_xyz
x,y,z
x-y,x,1/6+z
-y,x-y,1/3+z
-x,-y,1/2+z
-x+y,-x,2/3+z
y,-x+y,5/6+z
loop_
_atom_site_type_symbol
_atom_site_label
_atom_site_fract_x
_atom_site_fract_y
_atom_site_fract_z
Si Si1 0.108523 0.691485 0.978350
Si Si2 0.418374 0.662026 0.666048
Si Si3 0.496521 0.414737 0.682784
Si Si4 0.045831 0.862682 0.936292
Si Si5 0.930914 0.450489 0.674086
Si Si6 0.157504 0.998894 0.751346
Si Si7 0.750371 0.316943 0.044855
Si Si8 0.024857 0.645935 0.541673
O O1 0.236360 0.770159 0.972419
O O2 0.074496 0.597850 0.892666
O O3 0.039223 0.750345 0.962677
O O4 0.087420 0.643017 0.095505
O O5 0.403899 0.564662 0.595501
O O6 0.320366 0.682328 0.642712
O O7 0.406910 0.635193 0.790593
O O8 0.481137 0.439704 0.562843
O O9 0.510245 0.312901 0.666897
O O10 0.391639 0.385997 0.753042
O O11 0.132609 0.910530 0.841924
O O12 0.937350 0.851772 0.878385
O O13 0.933761 0.551458 0.613956
O O14 0.278726 0.042050 0.720281
O O15 0.086921 0.951572 0.643149
O O16 0.865402 0.342771 0.083722
#
# Coordination Sequence:
#
# PCOD8324545 Si02
#       8
#     6   6   6   6   6   6   6   6
#     4  10  23  38  65  99 128 167 216 255 321 391
#     4  11  21  39  60  92 129 172 203 251 319 380
#     4  10  23  38  58  93 135 170 212 261 317 381
#     4  10  23  44  72  98 124 165 219 283 335 387
#     4  11  22  39  61  95 132 168 213 261 311 380
#     4  10  22  41  70  97 124 163 221 279 330 384
#     4  11  22  39  60  88 132 168 206 256 320 381
#     4  11  22  38  64  94 124 171 220 260 315 390
#
# _framework density 21.098186999999999
#
# number of rings (size 3 to 8) (size 9 to 14) (size 15 to 20)
#    0.000    1.500    2.500    2.250    5.250    0.000 
#    2.250    0.000   30.250    0.000    0.000    0.000 
#    0.000    0.000    0.000    0.000    0.000    0.000 
#
# Total GULP energy -594802.771698 kJ/mol
# GULP energy per Si atom -12391.724410 kJ/mol
# Density = 2.105017 g / cm^3
# Si number density = 21.098187 Si / 1000 Ang^3
#
#
#
# Elastic Constant Matrix: (Units=GPa)
#
#
# Indices 1 2 3 4 5 6 
#
# 1 81.7403 26.1398 24.1885 0.0000 0.0000 0.0000
# 2 26.1398 81.7403 24.1885 0.0000 0.0000 0.0000
# 3 24.1885 24.1885 76.6006 0.0000 0.0000 0.0000
# 4 0.0000 0.0000 0.0000 29.1223 0.0000 0.0000
# 5 0.0000 0.0000 0.0000 0.0000 29.1223 0.0000
# 6 0.0000 0.0000 0.0000 0.0000 0.0000 27.8003
#
#
#
# Elastic Compliance Matrix: (Units=1/GPa)
#
#
# Indices 1 2 3 4 5 6 
#
# 1 0.014392 -0.003593 -0.003410 0.000000 0.000000 0.000000
# 2 -0.003593 0.014392 -0.003410 0.000000 0.000000 0.000000
# 3 -0.003410 -0.003410 0.015208 0.000000 0.000000 0.000000
# 4 0.000000 0.000000 0.000000 0.034338 0.000000 0.000000
# 5 0.000000 0.000000 0.000000 0.000000 0.034338 0.000000
# 6 0.000000 0.000000 0.000000 0.000000 0.000000 0.035971
#
#
# Mechanical properties :
#
#
# Convention : Reuss Voigt Hill
#
# Bulk Modulus (GPa) = 43.16696 43.23496 43.20096
# Shear Modulus (GPa) = 28.21866 28.24660 28.23263
#
# Velocity S-wave (km/s) = 3.66114 3.66295 3.66205
# Velocity P-wave (km/s) = 6.19487 6.19890 6.19689
#
# Compressibility (1/GPa) = 0.02316587
#
# Stress axis : x y z
#
# Youngs Moduli (GPa) = 69.48274 69.48274 65.75376
#
# Poissons Ratio (x) = 0.24968 0.22422
# Poissons Ratio (y) = 0.24968 0.22422
# Poissons Ratio (z) = 0.23693 0.23693
#
# Static dielectric constant tensor:
#      x y z
#    x 3.770340 0.000000 0.000000 
#    y 0.000000 3.770340 0.000000 
#    z 0.000000 0.000000 3.819260 
# 
# 
# High freq. dielectric constant tensor:
#      x y z
#    x 1.820530 0.000000 0.000000 
#    y 0.000000 1.820530 0.000000 
#    z 0.000000 0.000000 1.825630 
# 
# From -- ./inp_files/1029.got.cif
#   From: 2010.03.12/outbox.cif.g09.slc.cpg/sg169_cif.got.tgz:1029.got - 2010.04.02 06:46:06.
