data_PCOD8324686
_publ_section_title
;
Structure prediction by ZEFSAII (Michael W. Deem and Ramdas Pophale) SiO2 
 PCOD8324686
Probable space group: P 65
;
_chemical_formula_sum "Si O2"
_cell_formula_units_Z 48
_cell_length_a 16.801473
_cell_length_b 16.801473
_cell_length_c 8.324979
_cell_angle_alpha 90.000000
_cell_angle_beta 90.000000
_cell_angle_gamma 120.000000
_cell_volume 2035.206566
_symmetry_space_group_name_H-M "P 65"
_symmetry_group_IT_number 170
_symmetry_cell_setting 'hexagonal'
loop_
_space_group_symop_operation_xyz
x,y,z
x-y,x,5/6+z
-y,x-y,2/3+z
-x,-y,1/2+z
-x+y,-x,1/3+z
y,-x+y,1/6+z
loop_
_atom_site_type_symbol
_atom_site_label
_atom_site_fract_x
_atom_site_fract_y
_atom_site_fract_z
Si Si1 0.585855 0.099111 0.916260
Si Si2 0.067837 0.494840 0.728501
Si Si3 0.294767 0.605598 0.155381
Si Si4 0.449697 0.154268 0.489829
Si Si5 0.828704 0.866349 0.320524
Si Si6 0.113715 0.367709 0.528595
Si Si7 0.176823 0.098433 0.281266
Si Si8 0.036660 0.326410 0.203649
O O1 0.595240 0.060950 0.745173
O O2 0.603401 0.201549 0.921099
O O3 0.668218 0.102972 0.018732
O O4 0.486907 0.034074 0.992532
O O5 0.123380 0.605220 0.732302
O O6 0.116618 0.450678 0.627804
O O7 0.307164 0.637977 0.344938
O O8 0.289831 0.506163 0.168161
O O9 0.419222 0.204681 0.617776
O O10 0.353136 0.061023 0.447442
O O11 0.884746 0.858521 0.169844
O O12 0.718014 0.811437 0.308918
O O13 0.860123 0.825851 0.468764
O O14 0.031006 0.319344 0.397834
O O15 0.109637 0.141316 0.267931
O O16 0.278338 0.185487 0.304632
#
# Coordination Sequence:
#
# PCOD8324686 Si02
#       8
#     6   6   6   6   6   6   6   6
#     4  11  26  46  72 110 142 200 249 311 392 453
#     4  11  26  46  77 108 154 196 252 322 387 468
#     4  12  27  49  77 115 154 200 257 320 396 467
#     4  11  24  44  75 105 149 195 253 316 383 468
#     4  10  24  47  69 108 155 204 261 324 386 465
#     4  12  24  48  75 109 150 203 261 318 396 475
#     4  10  23  45  67 104 150 197 252 314 381 453
#     4  11  24  45  72 105 144 201 253 309 381 459
#
# _framework density 23.584831999999999
#
# number of rings (size 3 to 8) (size 9 to 14) (size 15 to 20)
#    0.000    1.000    1.250    4.500    7.000    1.000 
#   27.000    0.000    0.000    0.000    0.000    0.000 
#    0.000    0.000    0.000    0.000    0.000    0.000 
#
# Total GULP energy -594676.685187 kJ/mol
# GULP energy per Si atom -12389.097608 kJ/mol
# Density = 2.353115 g / cm^3
# Si number density = 23.584832 Si / 1000 Ang^3
#
#
#
# Elastic Constant Matrix: (Units=GPa)
#
#
# Indices 1 2 3 4 5 6 
#
# 1 102.9851 35.7206 23.3014 0.0000 0.0000 0.0000
# 2 35.7206 102.9851 23.3014 0.0000 0.0000 0.0000
# 3 23.3014 23.3014 81.1328 0.0000 0.0000 0.0000
# 4 0.0000 0.0000 0.0000 -26.1828 0.0000 0.0000
# 5 0.0000 0.0000 0.0000 0.0000 -26.1828 0.0000
# 6 0.0000 0.0000 0.0000 0.0000 0.0000 33.6323
#
#
#
# Elastic Compliance Matrix: (Units=1/GPa)
#
#
# Indices 1 2 3 4 5 6 
#
# 1 0.011423 -0.003444 -0.002292 0.000000 0.000000 0.000000
# 2 -0.003444 0.011423 -0.002292 0.000000 0.000000 0.000000
# 3 -0.002292 -0.002292 0.013642 0.000000 0.000000 0.000000
# 4 0.000000 0.000000 0.000000 -0.038193 0.000000 0.000000
# 5 0.000000 0.000000 0.000000 0.000000 -0.038193 0.000000
# 6 0.000000 0.000000 0.000000 0.000000 0.000000 0.029733
#
#
# Mechanical properties :
#
#
# Convention : Reuss Voigt Hill
#
# Bulk Modulus (GPa) = 48.93814 50.19440 49.56627
# Shear Modulus (GPa) = 393.67774 9.90531 201.79152
#
# Velocity S-wave (km/s) = 12.93376 2.05158 9.25989
# Velocity P-wave (km/s) = 15.61531 5.19044 11.63569
#
# Compressibility (1/GPa) = 0.02043396
#
# Stress axis : x y z
#
# Youngs Moduli (GPa) = 87.54209 87.54209 73.30392
#
# Poissons Ratio (x) = 0.30146 0.16799
# Poissons Ratio (y) = 0.30146 0.16799
# Poissons Ratio (z) = 0.20062 0.20062
#
# Static dielectric constant tensor:
#      x y z
#    x 4.478730 0.000000 0.000000 
#    y 0.000000 4.478730 0.000000 
#    z 0.000000 0.000000 4.159170 
# 
# 
# High freq. dielectric constant tensor:
#      x y z
#    x 1.943690 0.000000 0.000000 
#    y 0.000000 1.943690 0.000000 
#    z 0.000000 0.000000 1.922460 
# 
# From -- ./inp_files/718.got.cif
#   From: 2010.03.12/outbox.cif.g09.slc.cpg/sg170_cif.got.tgz:718.got - 2010.04.02 06:47:37.
