data_PCOD8324956
_publ_section_title
;
Structure prediction by ZEFSAII (Michael W. Deem and Ramdas Pophale) SiO2 
 PCOD8324956
Probable space group: P -6
;
_chemical_formula_sum "Si O2"
_cell_formula_units_Z 30
_cell_length_a 8.567252
_cell_length_b 8.567252
_cell_length_c 23.926615
_cell_angle_alpha 90.000000
_cell_angle_beta 90.000000
_cell_angle_gamma 120.000000
_cell_volume 1520.880096
_symmetry_space_group_name_H-M "P -6"
_symmetry_group_IT_number 174
_symmetry_cell_setting 'hexagonal'
loop_
_space_group_symop_operation_xyz
x,y,z
-x+y,-x,-z
-y,x-y,z
x,y,-z
-x+y,-x,z
-y,x-y,-z
loop_
_atom_site_type_symbol
_atom_site_label
_atom_site_fract_x
_atom_site_fract_y
_atom_site_fract_z
Si Si1 0.782787 0.960444 0.891242
Si Si2 0.010422 0.674850 0.334980
Si Si3 0.464840 0.135014 0.500000
Si Si4 0.552048 0.842009 0.000000
Si Si5 0.669894 0.662049 0.620458
Si Si6 0.302573 0.452494 0.784166
O O1 0.669426 0.940865 0.946167
O O2 0.662701 0.947009 0.838495
O O3 0.842873 0.807533 0.890428
O O4 0.803976 0.607280 0.349736
O O5 0.062482 0.527812 0.354560
O O6 0.132650 0.860761 0.367497
O O7 0.044245 0.711513 0.269065
O O8 0.490526 0.336375 0.500000
O O9 0.355678 0.027028 0.553950
O O10 0.371913 0.860101 0.000000
O O11 0.495569 0.639242 0.783865
#
# Coordination Sequence:
#
# PCOD8324956 Si02
#       6
#     6   6   3   3   6   6
#     4  10  22  35  62  96 126 164 217 275 323 387
#     4  12  24  43  64 101 127 179 215 283 328 418
#     4  10  20  42  66  92 124 166 212 274 338 404
#     4  10  20  38  66  88 124 178 218 260 336 396
#     4  12  24  42  68  92 132 167 221 269 346 398
#     4  10  21  40  63  90 130 169 221 260 329 404
#
# _framework density 19.725422999999999
#
# number of rings (size 3 to 8) (size 9 to 14) (size 15 to 20)
#    1.200    0.000    4.000    3.000    2.800    1.600 
#    0.000    0.000    0.000   11.200    0.000    0.000 
#    0.000    0.000    0.000    0.000    0.000    0.000 
#
# Total GULP energy -371979.273171 kJ/mol
# GULP energy per Si atom -12399.309106 kJ/mol
# Density = 1.968053 g / cm^3
# Si number density = 19.725423 Si / 1000 Ang^3
#
#
#
# Elastic Constant Matrix: (Units=GPa)
#
#
# Indices 1 2 3 4 5 6 
#
# 1 60.8245 -3.2833 34.9738 0.0000 0.0000 0.0000
# 2 -3.2833 60.8245 34.9738 0.0000 0.0000 0.0000
# 3 34.9738 34.9738 198.7475 0.0000 0.0000 0.0000
# 4 0.0000 0.0000 0.0000 22.7242 0.0000 0.0000
# 5 0.0000 0.0000 0.0000 0.0000 22.7242 0.0000
# 6 0.0000 0.0000 0.0000 0.0000 0.0000 32.0539
#
#
#
# Elastic Compliance Matrix: (Units=1/GPa)
#
#
# Indices 1 2 3 4 5 6 
#
# 1 0.018853 0.003255 -0.003890 0.000000 0.000000 0.000000
# 2 0.003255 0.018853 -0.003890 0.000000 0.000000 0.000000
# 3 -0.003890 -0.003890 0.006401 0.000000 0.000000 0.000000
# 4 0.000000 0.000000 0.000000 0.044006 0.000000 0.000000
# 5 0.000000 0.000000 0.000000 0.000000 0.044006 0.000000
# 6 0.000000 0.000000 0.000000 0.000000 0.000000 0.031197
#
#
# Mechanical properties :
#
#
# Convention : Reuss Voigt Hill
#
# Bulk Modulus (GPa) = 28.52641 50.41393 39.47017
# Shear Modulus (GPa) = 27.16590 32.41591 29.79091
#
# Velocity S-wave (km/s) = 3.71509 4.05823 3.89045
# Velocity P-wave (km/s) = 5.73548 6.89727 6.34303
#
# Compressibility (1/GPa) = 0.03505523
#
# Stress axis : x y z
#
# Youngs Moduli (GPa) = 53.04090 53.04090 156.23293
#
# Poissons Ratio (x) = -0.17263 0.60780
# Poissons Ratio (y) = -0.17263 0.60780
# Poissons Ratio (z) = 0.20635 0.20635
#
# Static dielectric constant tensor:
#      x y z
#    x 3.366920 0.000000 0.000000 
#    y 0.000000 3.366920 0.000000 
#    z 0.000000 0.000000 3.593500 
# 
# 
# High freq. dielectric constant tensor:
#      x y z
#    x 1.755200 0.000000 0.000000 
#    y 0.000000 1.755200 0.000000 
#    z 0.000000 0.000000 1.782610 
# 
# From -- ./inp_files/1079.got.cif
#   From: 2010.03.12/outbox.cif.g09.slc.cpg/sg174_cif.got.tgz:1079.got - 2010.04.02 06:54:58.
