data_PCOD8324683
_publ_section_title
;
Structure prediction by ZEFSAII (Michael W. Deem and Ramdas Pophale) SiO2 
 PCOD8324683
Probable space group: P 65
;
_chemical_formula_sum "Si O2"
_cell_formula_units_Z 36
_cell_length_a 13.520135
_cell_length_b 13.520135
_cell_length_c 9.027808
_cell_angle_alpha 90.000000
_cell_angle_beta 90.000000
_cell_angle_gamma 120.000000
_cell_volume 1429.140748
_symmetry_space_group_name_H-M "P 65"
_symmetry_group_IT_number 170
_symmetry_cell_setting 'hexagonal'
loop_
_space_group_symop_operation_xyz
x,y,z
x-y,x,5/6+z
-y,x-y,2/3+z
-x,-y,1/2+z
-x+y,-x,1/3+z
y,-x+y,1/6+z
loop_
_atom_site_type_symbol
_atom_site_label
_atom_site_fract_x
_atom_site_fract_y
_atom_site_fract_z
Si Si1 0.164791 0.219233 0.989980
Si Si2 0.313986 0.972210 0.903644
Si Si3 0.851054 0.283528 0.337699
Si Si4 0.328347 0.416575 0.163653
Si Si5 0.495354 0.658160 0.630439
Si Si6 0.144592 0.611226 0.223941
O O1 0.241225 0.231169 0.847074
O O2 0.034833 0.167972 0.942520
O O3 0.207718 0.341720 0.075433
O O4 0.260629 0.839181 0.864285
O O5 0.327564 0.039740 0.750226
O O6 0.439964 0.023072 0.981773
O O7 0.879271 0.312712 0.165752
O O8 0.833361 0.381819 0.405573
O O9 0.387965 0.342665 0.121550
O O10 0.404172 0.536721 0.070611
O O11 0.467599 0.655729 0.810283
O O12 0.509119 0.763544 0.533269
#
# Coordination Sequence:
#
# PCOD8324683 Si02
#       6
#     6   6   6   6   6   6
#     4  11  23  45  70 101 148 203 250 314 393 463
#     4  10  22  45  75 104 145 199 245 313 380 464
#     4  11  25  44  77 112 151 195 262 314 392 463
#     4  11  24  45  74 105 146 195 249 317 385 471
#     4  11  25  48  71 106 145 202 249 316 386 470
#     4  10  25  45  73 104 149 192 251 308 390 455
#
# _framework density 25.189961
#
# number of rings (size 3 to 8) (size 9 to 14) (size 15 to 20)
#    0.000    1.333    1.667    3.000   11.667    1.333 
#    9.000    0.000    0.000    0.000    0.000    0.000 
#    0.000    0.000    0.000    0.000    0.000    0.000 
#
# Total GULP energy -446043.398624 kJ/mol
# GULP energy per Si atom -12390.094406 kJ/mol
# Density = 2.513263 g / cm^3
# Si number density = 25.189961 Si / 1000 Ang^3
#
#
#
# Elastic Constant Matrix: (Units=GPa)
#
#
# Indices 1 2 3 4 5 6 
#
# 1 55.1359 -1.1015 17.4750 0.0000 0.0000 0.0000
# 2 -1.1015 55.1359 17.4750 0.0000 0.0000 0.0000
# 3 17.4750 17.4750 171.5003 0.0000 0.0000 0.0000
# 4 0.0000 0.0000 0.0000 40.3147 0.0000 0.0000
# 5 0.0000 0.0000 0.0000 0.0000 40.3147 0.0000
# 6 0.0000 0.0000 0.0000 0.0000 0.0000 28.1187
#
#
#
# Elastic Compliance Matrix: (Units=1/GPa)
#
#
# Indices 1 2 3 4 5 6 
#
# 1 0.018797 0.001015 -0.002019 0.000000 0.000000 0.000000
# 2 0.001015 0.018797 -0.002019 0.000000 0.000000 0.000000
# 3 -0.002019 -0.002019 0.006242 0.000000 0.000000 0.000000
# 4 0.000000 0.000000 0.000000 0.024805 0.000000 0.000000
# 5 0.000000 0.000000 0.000000 0.000000 0.024805 0.000000
# 6 0.000000 0.000000 0.000000 0.000000 0.000000 0.035564
#
#
# Mechanical properties :
#
#
# Convention : Reuss Voigt Hill
#
# Bulk Modulus (GPa) = 26.46056 38.82993 32.64524
# Shear Modulus (GPa) = 33.86348 38.27783 36.07066
#
# Velocity S-wave (km/s) = 3.67048 3.90239 3.78821
# Velocity P-wave (km/s) = 5.33764 5.97940 5.66761
#
# Compressibility (1/GPa) = 0.03779210
#
# Stress axis : x y z
#
# Youngs Moduli (GPa) = 53.19961 53.19961 160.19728
#
# Poissons Ratio (x) = -0.05402 0.32341
# Poissons Ratio (y) = -0.05402 0.32341
# Poissons Ratio (z) = 0.10740 0.10740
#
# Static dielectric constant tensor:
#      x y z
#    x 4.547410 0.000000 0.000000 
#    y 0.000000 4.547410 0.000000 
#    z 0.000000 0.000000 5.112060 
# 
# 
# High freq. dielectric constant tensor:
#      x y z
#    x 1.997970 0.000000 0.000000 
#    y 0.000000 1.997970 0.000000 
#    z 0.000000 0.000000 2.025080 
# 
# From -- ./inp_files/573.got.cif
#   From: 2010.03.12/outbox.cif.g09.slc.cpg/sg170_cif.got.tgz:573.got - 2010.04.02 06:47:37.
