data_PCOD8324083
_publ_section_title
;
Structure prediction by ZEFSAII (Michael W. Deem and Ramdas Pophale) SiO2 
 PCOD8324083
Probable space group: R -3 M
;
_chemical_formula_sum "Si O2"
_cell_formula_units_Z 162
_cell_length_a 22.088009
_cell_length_b 22.088009
_cell_length_c 19.437428
_cell_angle_alpha 90.000000
_cell_angle_beta 90.000000
_cell_angle_gamma 120.000000
_cell_volume 8212.635925
_symmetry_space_group_name_H-M "R -3 M"
_symmetry_group_IT_number 166
_symmetry_cell_setting 'hexagonal'
loop_
_space_group_symop_operation_xyz
x,y,z
-y,x-y,z
-x+y,-x,z
x-y,-y,-z
-x,-x+y,-z
y,x,-z
-x,-y,-z
y,-x+y,-z
x-y,x,-z
-x+y,y,z
x,x-y,z
-y,-x,z
2/3+x,1/3+y,1/3+z
2/3-y,1/3+x-y,1/3+z
2/3-x+y,1/3-x,1/3+z
2/3+x-y,1/3-y,1/3-z
2/3-x,1/3-x+y,1/3-z
2/3+y,1/3+x,1/3-z
2/3-x,1/3-y,1/3-z
2/3+y,1/3-x+y,1/3-z
2/3+x-y,1/3+x,1/3-z
2/3-x+y,1/3+y,1/3+z
2/3+x,1/3+x-y,1/3+z
2/3-y,1/3-x,1/3+z
1/3+x,2/3+y,2/3+z
1/3-y,2/3+x-y,2/3+z
1/3-x+y,2/3-x,2/3+z
1/3+x-y,2/3-y,2/3-z
1/3-x,2/3-x+y,2/3-z
1/3+y,2/3+x,2/3-z
1/3-x,2/3-y,2/3-z
1/3+y,2/3-x+y,2/3-z
1/3+x-y,2/3+x,2/3-z
1/3-x+y,2/3+y,2/3+z
1/3+x,2/3+x-y,2/3+z
1/3-y,2/3-x,2/3+z
loop_
_atom_site_type_symbol
_atom_site_label
_atom_site_fract_x
_atom_site_fract_y
_atom_site_fract_z
Si Si1 0.067013 0.269708 0.281671
Si Si2 0.720988 0.139468 0.953631
Si Si3 0.530632 0.197532 0.251958
Si Si4 0.333334 0.527506 0.166667
Si Si5 0.951780 0.547421 0.205997
O O1 0.118174 0.236348 0.276240
O O2 0.100900 0.333334 0.333334
O O3 0.059558 0.297395 0.206988
O O4 0.990459 0.214915 0.309709
O O5 0.795844 0.204157 0.973301
O O6 0.681298 0.160356 0.898645
O O7 0.728809 0.075652 0.921174
O O8 0.603173 0.206345 0.222442
O O9 0.520504 0.260252 0.222450
O O10 0.533895 0.200562 0.333334
O O11 0.464750 0.123771 0.228858
O O12 0.268318 0.536636 0.186362
O O13 0.953544 0.476772 0.215660
#
# Coordination Sequence:
#
# PCOD8324083 Si02
#       5
#    36  36  36  18  36
#     4  10  20  35  55  76 100 134 175 214 252 301
#     4  10  20  34  53  77 105 137 173 213 258 309
#     4   9  17  31  53  79 107 139 174 212 256 309
#     4  10  19  32  52  78 107 136 170 214 262 312
#     4   9  19  34  51  75 106 137 171 213 258 303
#
# _framework density 19.725701000000001
#
# number of rings (size 3 to 8) (size 9 to 14) (size 15 to 20)
#    0.000    2.444    0.000    2.333    0.000    6.222 
#    0.000    0.000    0.000    0.444    0.000   10.111 
#    0.000    0.000    0.000    0.000    0.000    0.000 
#
# Total GULP energy -669467.964637 kJ/mol
# GULP energy per Si atom -12397.554901 kJ/mol
# Density = 1.968080 g / cm^3
# Si number density = 19.725701 Si / 1000 Ang^3
#
#
#
# Elastic Constant Matrix: (Units=GPa)
#
#
# Indices 1 2 3 4 5 6 
#
# 1 89.3372 59.0562 26.5526 -17.9063 -0.0015 0.0000
# 2 59.0562 89.3372 26.5526 17.9063 0.0015 0.0000
# 3 26.5526 26.5526 56.6055 0.0000 0.0000 0.0000
# 4 -17.9063 17.9063 0.0000 -1.0827 0.0000 0.0015
# 5 -0.0015 0.0015 0.0000 0.0000 -1.0827 -17.9063
# 6 0.0000 0.0000 0.0000 0.0015 -17.9063 15.1405
#
#
#
# Elastic Compliance Matrix: (Units=1/GPa)
#
#
# Indices 1 2 3 4 5 6 
#
# 1 0.004852 0.003246 -0.003799 -0.026565 -0.000002 0.000000
# 2 0.003246 0.004852 -0.003799 0.026565 0.000002 0.000000
# 3 -0.003799 -0.003799 0.021230 0.000000 0.000000 0.000000
# 4 -0.026565 0.026565 0.000000 -0.044923 0.000000 0.000005
# 5 -0.000002 0.000002 0.000000 0.000000 -0.044923 -0.053130
# 6 0.000000 0.000000 0.000000 0.000005 -0.053130 0.003212
#
#
# Mechanical properties :
#
#
# Convention : Reuss Voigt Hill
#
# Bulk Modulus (GPa) = 44.98116 51.06697 48.02407
# Shear Modulus (GPa) = -126.30640 10.80291 -57.75174
#
# Velocity S-wave (km/s) = -8.01064 2.34275 -5.41673
# Velocity P-wave (km/s) = 7.91882 5.76738 3.83699
#
# Compressibility (1/GPa) = 0.02223153
#
# Stress axis : x y z
#
# Youngs Moduli (GPa) = 206.08954 206.08954 47.10315
#
# Poissons Ratio (x) = -0.66898 0.17893
# Poissons Ratio (y) = -0.66898 0.17893
# Poissons Ratio (z) = 0.78289 0.78289
#
# Static dielectric constant tensor:
#      x y z
#    x 3.747280 0.000000 0.000000 
#    y 0.000000 3.747280 0.000000 
#    z 0.000000 0.000000 3.443080 
# 
# 
# High freq. dielectric constant tensor:
#      x y z
#    x 1.764030 0.000000 0.000000 
#    y 0.000000 1.764030 0.000000 
#    z 0.000000 0.000000 1.754480 
# 
# From -- ./inp_files/6742.got.cif
#   From: 2010.03.12/outbox.cif.g09.slc.cpg/sg166_4_cif.got.tgz:6742.got - 2010.04.02 06:38:31.
