data_PCOD8324816
_publ_section_title
;
Structure prediction by ZEFSAII (Michael W. Deem and Ramdas Pophale) SiO2 
 PCOD8324816
Probable space group: P 62
;
_chemical_formula_sum "Si O2"
_cell_formula_units_Z 33
_cell_length_a 16.571470
_cell_length_b 16.571470
_cell_length_c 6.053530
_cell_angle_alpha 90.000000
_cell_angle_beta 90.000000
_cell_angle_gamma 120.000000
_cell_volume 1439.664848
_symmetry_space_group_name_H-M "P 62"
_symmetry_group_IT_number 171
_symmetry_cell_setting 'hexagonal'
loop_
_space_group_symop_operation_xyz
x,y,z
x-y,x,1/3+z
-y,x-y,2/3+z
-x,-y,z
-x+y,-x,1/3+z
y,-x+y,2/3+z
loop_
_atom_site_type_symbol
_atom_site_label
_atom_site_fract_x
_atom_site_fract_y
_atom_site_fract_z
Si Si1 0.892242 0.582899 0.616950
Si Si2 0.113721 0.692945 0.283076
Si Si3 0.297309 0.573909 0.753181
Si Si4 0.500000 0.000000 0.806335
Si Si5 0.162516 0.860253 0.601678
Si Si6 0.747376 0.734254 0.603998
O O1 0.784206 0.525333 0.670254
O O2 0.917660 0.499432 0.614085
O O3 0.904859 0.644167 0.398220
O O4 0.948382 0.650979 0.815410
O O5 0.188841 0.657129 0.251598
O O6 0.143423 0.764963 0.485611
O O7 0.025128 0.594102 0.340974
O O8 0.090761 0.737810 0.074667
O O9 0.362963 0.628028 0.548804
O O10 0.177925 0.942722 0.428207
O O11 0.073962 0.833222 0.766220
#
# Coordination Sequence:
#
# PCOD8324816 Si02
#       6
#     6   6   6   3   6   6
#     4  12  27  44  70 103 150 199 262 305 376 436
#     4  12  27  44  70 103 150 199 262 305 376 436
#     4  12  29  44  66  99 150 212 259 314 353 434
#     4  12  26  42  68 100 142 216 242 314 354 440
#     4  12  24  50  68 108 144 197 244 323 376 452
#     4  12  24  47  72 104 148 193 244 328 372 457
#
# _framework density 22.921999
#
# number of rings (size 3 to 8) (size 9 to 14) (size 15 to 20)
#    0.000    0.000    7.273    1.091   12.727    0.000 
#    0.000    0.000    0.000    0.000    0.000    0.000 
#    0.000  240.000    0.000    0.000    0.000    0.000 
#
# Total GULP energy -408854.554467 kJ/mol
# GULP energy per Si atom -12389.531954 kJ/mol
# Density = 2.286983 g / cm^3
# Si number density = 22.921999 Si / 1000 Ang^3
#
#
#
# Elastic Constant Matrix: (Units=GPa)
#
#
# Indices 1 2 3 4 5 6 
#
# 1 111.7189 29.5531 41.4477 0.0000 0.0000 0.0000
# 2 29.5531 111.7189 41.4477 0.0000 0.0000 0.0000
# 3 41.4477 41.4477 111.5858 0.0000 0.0000 0.0000
# 4 0.0000 0.0000 0.0000 83.0747 0.0000 0.0000
# 5 0.0000 0.0000 0.0000 0.0000 83.0747 0.0000
# 6 0.0000 0.0000 0.0000 0.0000 0.0000 41.0829
#
#
#
# Elastic Compliance Matrix: (Units=1/GPa)
#
#
# Indices 1 2 3 4 5 6 
#
# 1 0.010611 -0.001560 -0.003362 0.000000 0.000000 0.000000
# 2 -0.001560 0.010611 -0.003362 0.000000 0.000000 0.000000
# 3 -0.003362 -0.003362 0.011459 0.000000 0.000000 0.000000
# 4 0.000000 0.000000 0.000000 0.012037 0.000000 0.000000
# 5 0.000000 0.000000 0.000000 0.000000 0.012037 0.000000
# 6 0.000000 0.000000 0.000000 0.000000 0.000000 0.024341
#
#
# Mechanical properties :
#
#
# Convention : Reuss Voigt Hill
#
# Bulk Modulus (GPa) = 62.05865 62.21340 62.13603
# Shear Modulus (GPa) = 48.52698 56.28483 52.40590
#
# Velocity S-wave (km/s) = 4.60613 4.96067 4.78668
# Velocity P-wave (km/s) = 7.44454 7.74669 7.59712
#
# Compressibility (1/GPa) = 0.01611379
#
# Stress axis : x y z
#
# Youngs Moduli (GPa) = 94.24263 94.24263 87.26518
#
# Poissons Ratio (x) = 0.14698 0.29339
# Poissons Ratio (y) = 0.14698 0.29339
# Poissons Ratio (z) = 0.31685 0.31685
#
# Static dielectric constant tensor:
#      x y z
#    x 2.130990 0.000000 0.000000 
#    y 0.000000 2.130990 0.000000 
#    z 0.000000 0.000000 4.211290 
# 
# 
# High freq. dielectric constant tensor:
#      x y z
#    x 1.903860 0.000000 0.000000 
#    y 0.000000 1.903860 0.000000 
#    z 0.000000 0.000000 1.909530 
# 
# From -- ./inp_files/656.got.cif
#   From: 2010.03.12/outbox.cif.g09.slc.cpg/sg171_1_cif.got.tgz:656.got - 2010.04.02 06:49:11.
