data_PCOD8324832
_publ_section_title
;
Structure prediction by ZEFSAII (Michael W. Deem and Ramdas Pophale) SiO2 
 PCOD8324832
Probable space group: P 63
;
_chemical_formula_sum "Si O2"
_cell_formula_units_Z 42
_cell_length_a 15.987139
_cell_length_b 15.987139
_cell_length_c 10.595978
_cell_angle_alpha 90.000000
_cell_angle_beta 90.000000
_cell_angle_gamma 120.000000
_cell_volume 2345.379806
_symmetry_space_group_name_H-M "P 63"
_symmetry_group_IT_number 173
_symmetry_cell_setting 'hexagonal'
loop_
_space_group_symop_operation_xyz
x,y,z
x-y,x,1/2+z
-y,x-y,z
-x,-y,1/2+z
-x+y,-x,z
y,-x+y,1/2+z
loop_
_atom_site_type_symbol
_atom_site_label
_atom_site_fract_x
_atom_site_fract_y
_atom_site_fract_z
Si Si1 0.146539 0.853460 0.106050
Si Si2 0.478145 0.145953 0.141175
Si Si3 0.708962 0.956719 0.488664
Si Si4 0.765387 0.654424 0.348373
Si Si5 0.043282 0.291038 0.723436
Si Si6 0.765387 0.110963 0.863727
Si Si7 0.478145 0.332192 0.070925
O O1 0.204857 0.842597 0.224281
O O2 0.034182 0.806800 0.149179
O O3 0.157402 0.795143 0.987819
O O4 0.193200 0.965818 0.062921
O O5 0.448588 0.132247 0.290367
O O6 0.511276 0.255638 0.106051
O O7 0.562460 0.124920 0.106050
O O8 0.384611 0.064428 0.068409
O O9 0.705030 0.855224 0.462860
O O10 0.700511 0.000000 0.356050
O O11 0.855224 0.705029 0.249240
O O12 0.731161 0.731162 0.356050
O O13 0.064428 0.384611 0.643690
O O14 0.683660 0.132248 0.921733
#
# Coordination Sequence:
#
# PCOD8324832 Si02
#       7
#     6   6   6   6   6   6   6
#     4  10  18  34  56  80 112 150 186 236 280 350
#     4  10  20  35  55  81 109 144 189 234 286 343
#     4   9  19  33  53  80 110 148 187 230 284 335
#     4  10  19  33  57  82 111 152 188 235 288 339
#     4   9  19  33  53  80 110 148 187 230 284 335
#     4  10  19  33  57  82 111 152 188 235 288 339
#     4  10  20  35  55  81 109 144 189 234 286 343
#
# _framework density 17.907547000000001
#
# number of rings (size 3 to 8) (size 9 to 14) (size 15 to 20)
#    0.000    2.286    2.857    0.286    0.000    1.143 
#    0.000    0.000    0.000   25.714    0.000    0.000 
#    1.429    0.000    0.000    0.000    0.000    0.000 
#
# Total GULP energy -520391.329559 kJ/mol
# GULP energy per Si atom -12390.269751 kJ/mol
# Density = 1.786679 g / cm^3
# Si number density = 17.907547 Si / 1000 Ang^3
#
#
#
# Elastic Constant Matrix: (Units=GPa)
#
#
# Indices 1 2 3 4 5 6 
#
# 1 103.1884 61.3944 48.4981 0.0000 0.0000 0.0000
# 2 61.3944 103.1884 48.4981 0.0000 0.0000 0.0000
# 3 48.4981 48.4981 125.6520 0.0000 0.0000 0.0000
# 4 0.0000 0.0000 0.0000 20.4515 0.0000 0.0000
# 5 0.0000 0.0000 0.0000 0.0000 20.4515 0.0000
# 6 0.0000 0.0000 0.0000 0.0000 0.0000 20.8970
#
#
#
# Elastic Compliance Matrix: (Units=1/GPa)
#
#
# Indices 1 2 3 4 5 6 
#
# 1 0.015896 -0.008031 -0.003036 0.000000 0.000000 0.000000
# 2 -0.008031 0.015896 -0.003036 0.000000 0.000000 0.000000
# 3 -0.003036 -0.003036 0.010302 0.000000 0.000000 0.000000
# 4 0.000000 0.000000 0.000000 0.048896 0.000000 0.000000
# 5 0.000000 0.000000 0.000000 0.000000 0.048896 0.000000
# 6 0.000000 0.000000 0.000000 0.000000 0.000000 0.047854
#
#
# Mechanical properties :
#
#
# Convention : Reuss Voigt Hill
#
# Bulk Modulus (GPa) = 71.99831 72.08997 72.04414
# Shear Modulus (GPa) = 22.66813 23.93590 23.30201
#
# Velocity S-wave (km/s) = 3.56173 3.65997 3.61118
# Velocity P-wave (km/s) = 7.56356 7.62920 7.59645
#
# Compressibility (1/GPa) = 0.01388922
#
# Stress axis : x y z
#
# Youngs Moduli (GPa) = 62.90914 62.90914 97.06983
#
# Poissons Ratio (x) = 0.50522 0.29467
# Poissons Ratio (y) = 0.50522 0.29467
# Poissons Ratio (z) = 0.19097 0.19097
#
# Static dielectric constant tensor:
#      x y z
#    x 3.167800 0.000000 0.000000 
#    y 0.000000 3.167800 0.000000 
#    z 0.000000 0.000000 3.912050 
# 
# 
# High freq. dielectric constant tensor:
#      x y z
#    x 1.669650 0.000000 0.000000 
#    y 0.000000 1.669650 0.000000 
#    z 0.000000 0.000000 1.719460 
# 
# From -- ./inp_files/897.got.cif
#   From: 2010.03.12/outbox.cif.g09.slc.cpg/sg173_cif.got.tgz:897.got - 2010.04.02 06:54:12.
