data_PCOD8324360
_publ_section_title
;
Structure prediction by ZEFSAII (Michael W. Deem and Ramdas Pophale) SiO2 
 PCOD8324360
Probable space group: R -3 C 
;
_chemical_formula_sum "Si O2"
_cell_formula_units_Z 252
_cell_length_a 27.831313
_cell_length_b 27.831313
_cell_length_c 18.767786
_cell_angle_alpha 90.000000
_cell_angle_beta 90.000000
_cell_angle_gamma 120.000000
_cell_volume 12589.574889
_symmetry_space_group_name_H-M "R -3 C "
_symmetry_group_IT_number 167
_symmetry_cell_setting 'hexagonal'
loop_
_space_group_symop_operation_xyz
x,y,z
-y,x-y,z
-x+y,-x,z
x-y,-y,1/2-z
-x,-x+y,1/2-z
y,x,1/2-z
-x,-y,-z
y,-x+y,-z
x-y,x,-z
-x+y,y,1/2+z
x,x-y,1/2+z
-y,-x,1/2+z
2/3+x,1/3+y,1/3+z
2/3-y,1/3+x-y,1/3+z
2/3-x+y,1/3-x,1/3+z
2/3+x-y,1/3-y,5/6-z
2/3-x,1/3-x+y,5/6-z
2/3+y,1/3+x,5/6-z
2/3-x,1/3-y,1/3-z
2/3+y,1/3-x+y,1/3-z
2/3+x-y,1/3+x,1/3-z
2/3-x+y,1/3+y,5/6+z
2/3+x,1/3+x-y,5/6+z
2/3-y,1/3-x,5/6+z
1/3+x,2/3+y,2/3+z
1/3-y,2/3+x-y,2/3+z
1/3-x+y,2/3-x,2/3+z
1/3+x-y,2/3-y,1/6-z
1/3-x,2/3-x+y,1/6-z
1/3+y,2/3+x,1/6-z
1/3-x,2/3-y,2/3-z
1/3+y,2/3-x+y,2/3-z
1/3+x-y,2/3+x,2/3-z
1/3-x+y,2/3+y,1/6+z
1/3+x,2/3+x-y,1/6+z
1/3-y,2/3-x,1/6+z
loop_
_atom_site_type_symbol
_atom_site_label
_atom_site_fract_x
_atom_site_fract_y
_atom_site_fract_z
Si Si1 0.545048 0.074890 0.586596
Si Si2 0.959499 0.292832 0.416667
Si Si3 0.728983 0.333334 0.083334
Si Si4 0.462505 0.634133 0.314112
Si Si5 0.984234 0.425329 0.889025
Si Si6 0.280372 0.741538 0.664228
Si Si7 0.128842 0.915744 0.892271
Si Si8 0.076306 0.720217 0.877263
O O1 0.587164 0.122255 0.639803
O O2 0.544767 0.103330 0.511810
O O3 0.560946 0.026983 0.572446
O O4 0.482344 0.043211 0.614340
O O5 0.939019 0.252678 0.483353
O O6 0.020038 0.299677 0.398980
O O7 0.721158 0.387824 0.083334
O O8 0.766797 0.340508 0.151779
O O9 0.436549 0.606061 0.239029
O O10 0.523519 0.687155 0.300940
O O11 0.932734 0.436434 0.890084
O O12 0.977137 0.387153 0.957692
O O13 0.343180 0.761226 0.681866
O O14 0.257293 0.758415 0.732141
O O15 0.073671 0.666667 0.916667
#
# Coordination Sequence:
#
# PCOD8324360 Si02
#       8
#    36  18  18  36  36  36  36  36
#     4  11  21  41  70  94 125 163 216 266 331 379
#     4  10  24  41  66  90 132 158 219 262 314 388
#     4  10  24  37  66  96 124 164 225 264 300 372
#     4  11  22  41  66  95 125 169 220 262 320 386
#     4  11  23  42  64  99 129 166 206 279 323 388
#     4  10  24  40  61  90 133 176 216 261 323 381
#     4  10  21  42  62  90 131 166 216 263 318 386
#     4   9  20  41  69  88 119 170 216 252 319 382
#
# _framework density 20.016560999999999
#
# number of rings (size 3 to 8) (size 9 to 14) (size 15 to 20)
#    0.571    1.143    1.429    4.000    6.000    0.000 
#   10.286    4.286    0.000    0.000    0.000    0.000 
#    0.000    0.000    0.000    0.000    0.000    0.000 
#
# Total GULP energy -1040977.573842 kJ/mol
# GULP energy per Si atom -12392.590165 kJ/mol
# Density = 1.997100 g / cm^3
# Si number density = 20.016561 Si / 1000 Ang^3
#
#
#
# Elastic Constant Matrix: (Units=GPa)
#
#
# Indices 1 2 3 4 5 6 
#
# 1 69.3370 29.9085 30.2623 0.4416 0.0001 0.0000
# 2 29.9085 69.3370 30.2623 -0.4416 -0.0001 0.0000
# 3 30.2623 30.2623 96.5020 0.0000 0.0000 0.0000
# 4 0.4416 -0.4416 0.0000 25.2819 0.0000 -0.0001
# 5 0.0001 -0.0001 0.0000 0.0000 25.2819 0.4416
# 6 0.0000 0.0000 0.0000 -0.0001 0.4416 19.7142
#
#
#
# Elastic Compliance Matrix: (Units=1/GPa)
#
#
# Indices 1 2 3 4 5 6 
#
# 1 0.018915 -0.006457 -0.003907 -0.000443 0.000000 0.000000
# 2 -0.006457 0.018915 -0.003907 0.000443 0.000000 0.000000
# 3 -0.003907 -0.003907 0.012813 0.000000 0.000000 0.000000
# 4 -0.000443 0.000443 0.000000 0.039569 0.000000 0.000000
# 5 0.000000 0.000000 0.000000 0.000000 0.039569 -0.000886
# 6 0.000000 0.000000 0.000000 0.000000 -0.000886 0.050745
#
#
# Mechanical properties :
#
#
# Convention : Reuss Voigt Hill
#
# Bulk Modulus (GPa) = 45.24394 46.22691 45.73543
# Shear Modulus (GPa) = 23.10149 23.70513 23.40331
#
# Velocity S-wave (km/s) = 3.40092 3.44506 3.42306
# Velocity P-wave (km/s) = 6.17041 6.24252 6.20657
#
# Compressibility (1/GPa) = 0.02210241
#
# Stress axis : x y z
#
# Youngs Moduli (GPa) = 52.86672 52.86672 78.04664
#
# Poissons Ratio (x) = 0.34135 0.30492
# Poissons Ratio (y) = 0.34135 0.30492
# Poissons Ratio (z) = 0.20655 0.20655
#
# Static dielectric constant tensor:
#      x y z
#    x 3.555070 0.000000 0.000000 
#    y 0.000000 3.555070 0.000000 
#    z 0.000000 0.000000 3.699930 
# 
# 
# High freq. dielectric constant tensor:
#      x y z
#    x 1.773750 0.000000 0.000000 
#    y 0.000000 1.773750 0.000000 
#    z 0.000000 0.000000 1.789610 
# 
# From -- ./inp_files/3720.got.cif
#   From: 2010.03.12/outbox.cif.g09.slc.cpg/sg167_2_cif.got.tgz:3720.got - 2010.04.02 06:42:56.
