data_PCOD8324718
_publ_section_title
;
Structure prediction by ZEFSAII (Michael W. Deem and Ramdas Pophale) SiO2 
 PCOD8324718
Probable space group: P 65
;
_chemical_formula_sum "Si O2"
_cell_formula_units_Z 36
_cell_length_a 13.745511
_cell_length_b 13.745511
_cell_length_c 9.456071
_cell_angle_alpha 90.000000
_cell_angle_beta 90.000000
_cell_angle_gamma 120.000000
_cell_volume 1547.259420
_symmetry_space_group_name_H-M "P 65"
_symmetry_group_IT_number 170
_symmetry_cell_setting 'hexagonal'
loop_
_space_group_symop_operation_xyz
x,y,z
x-y,x,5/6+z
-y,x-y,2/3+z
-x,-y,1/2+z
-x+y,-x,1/3+z
y,-x+y,1/6+z
loop_
_atom_site_type_symbol
_atom_site_label
_atom_site_fract_x
_atom_site_fract_y
_atom_site_fract_z
Si Si1 0.531049 0.392751 0.380310
Si Si2 0.220992 0.617550 0.517855
Si Si3 0.798842 0.596183 0.099369
Si Si4 0.039347 0.687241 0.163992
Si Si5 0.181037 0.217203 0.089833
Si Si6 0.305936 0.374290 0.329856
O O1 0.585663 0.324884 0.306122
O O2 0.545583 0.388767 0.547730
O O3 0.587735 0.520726 0.334707
O O4 0.399677 0.335576 0.336230
O O5 0.261947 0.540498 0.600042
O O6 0.139666 0.635627 0.620964
O O7 0.789398 0.644934 0.251515
O O8 0.929739 0.645158 0.067613
O O9 0.746771 0.641562 0.983907
O O10 0.011367 0.717028 0.317780
O O11 0.178564 0.108891 0.161582
O O12 0.203585 0.299466 0.222484
#
# Coordination Sequence:
#
# PCOD8324718 Si02
#       6
#     6   6   6   6   6   6
#     4  12  26  45  75 115 156 212 257 327 393 475
#     4  12  24  46  71 112 160 209 267 319 396 479
#     4  12  27  48  71 117 153 209 256 327 394 471
#     4  12  26  47  80 109 157 200 262 321 392 471
#     4  12  28  55  80 111 146 204 262 330 394 469
#     4  12  27  47  79 110 160 202 264 324 399 469
#
# _framework density 23.266943999999999
#
# number of rings (size 3 to 8) (size 9 to 14) (size 15 to 20)
#    0.000    0.000    6.667    3.000    2.333    0.000 
#    3.000    0.000    0.000    0.000    0.000    0.000 
#    0.000    0.000    0.000    0.000    0.000    0.000 
#
# Total GULP energy -446179.368129 kJ/mol
# GULP energy per Si atom -12393.871337 kJ/mol
# Density = 2.321399 g / cm^3
# Si number density = 23.266944 Si / 1000 Ang^3
#
#
#
# Elastic Constant Matrix: (Units=GPa)
#
#
# Indices 1 2 3 4 5 6 
#
# 1 128.7948 55.8029 36.2592 0.0000 0.0000 0.0000
# 2 55.8029 128.7948 36.2592 0.0000 0.0000 0.0000
# 3 36.2592 36.2592 103.9639 0.0000 0.0000 0.0000
# 4 0.0000 0.0000 0.0000 39.0161 0.0000 0.0000
# 5 0.0000 0.0000 0.0000 0.0000 39.0161 0.0000
# 6 0.0000 0.0000 0.0000 0.0000 0.0000 36.4959
#
#
#
# Elastic Compliance Matrix: (Units=1/GPa)
#
#
# Indices 1 2 3 4 5 6 
#
# 1 0.009989 -0.003711 -0.002189 0.000000 0.000000 0.000000
# 2 -0.003711 0.009989 -0.002189 0.000000 0.000000 0.000000
# 3 -0.002189 -0.002189 0.011146 0.000000 0.000000 0.000000
# 4 0.000000 0.000000 0.000000 0.025630 0.000000 0.000000
# 5 0.000000 0.000000 0.000000 0.000000 0.025630 0.000000
# 6 0.000000 0.000000 0.000000 0.000000 0.000000 0.027400
#
#
# Mechanical properties :
#
#
# Convention : Reuss Voigt Hill
#
# Bulk Modulus (GPa) = 66.92036 68.68844 67.80440
# Shear Modulus (GPa) = 38.18383 38.45447 38.31915
#
# Velocity S-wave (km/s) = 4.05547 4.06981 4.06265
# Velocity P-wave (km/s) = 7.12415 7.18822 7.15626
#
# Compressibility (1/GPa) = 0.01494314
#
# Stress axis : x y z
#
# Youngs Moduli (GPa) = 100.11318 100.11318 89.71966
#
# Poissons Ratio (x) = 0.37157 0.19642
# Poissons Ratio (y) = 0.37157 0.19642
# Poissons Ratio (z) = 0.21918 0.21918
#
# Static dielectric constant tensor:
#      x y z
#    x 4.259890 0.000000 0.000000 
#    y 0.000000 4.259890 0.000000 
#    z 0.000000 0.000000 4.120290 
# 
# 
# High freq. dielectric constant tensor:
#      x y z
#    x 1.922700 0.000000 0.000000 
#    y 0.000000 1.922700 0.000000 
#    z 0.000000 0.000000 1.925140 
# 
# From -- ./inp_files/606.got.cif
#   From: 2010.03.12/outbox.cif.g09.slc.cpg/sg170_cif.got.tgz:606.got - 2010.04.02 06:47:37.
