data_PCOD8324150
_publ_section_title
;
Structure prediction by ZEFSAII (Michael W. Deem and Ramdas Pophale) SiO2 
 PCOD8324150
Probable space group: R -3 M
;
_chemical_formula_sum "Si O2"
_cell_formula_units_Z 144
_cell_length_a 21.161109
_cell_length_b 21.161109
_cell_length_c 19.381400
_cell_angle_alpha 90.000000
_cell_angle_beta 90.000000
_cell_angle_gamma 120.000000
_cell_volume 7516.101303
_symmetry_space_group_name_H-M "R -3 M"
_symmetry_group_IT_number 166
_symmetry_cell_setting 'hexagonal'
loop_
_space_group_symop_operation_xyz
x,y,z
-y,x-y,z
-x+y,-x,z
x-y,-y,-z
-x,-x+y,-z
y,x,-z
-x,-y,-z
y,-x+y,-z
x-y,x,-z
-x+y,y,z
x,x-y,z
-y,-x,z
2/3+x,1/3+y,1/3+z
2/3-y,1/3+x-y,1/3+z
2/3-x+y,1/3-x,1/3+z
2/3+x-y,1/3-y,1/3-z
2/3-x,1/3-x+y,1/3-z
2/3+y,1/3+x,1/3-z
2/3-x,1/3-y,1/3-z
2/3+y,1/3-x+y,1/3-z
2/3+x-y,1/3+x,1/3-z
2/3-x+y,1/3+y,1/3+z
2/3+x,1/3+x-y,1/3+z
2/3-y,1/3-x,1/3+z
1/3+x,2/3+y,2/3+z
1/3-y,2/3+x-y,2/3+z
1/3-x+y,2/3-x,2/3+z
1/3+x-y,2/3-y,2/3-z
1/3-x,2/3-x+y,2/3-z
1/3+y,2/3+x,2/3-z
1/3-x,2/3-y,2/3-z
1/3+y,2/3-x+y,2/3-z
1/3+x-y,2/3+x,2/3-z
1/3-x+y,2/3+y,2/3+z
1/3+x,2/3+x-y,2/3+z
1/3-y,2/3-x,2/3+z
loop_
_atom_site_type_symbol
_atom_site_label
_atom_site_fract_x
_atom_site_fract_y
_atom_site_fract_z
Si Si1 0.068108 0.460089 0.224466
Si Si2 0.674475 0.597253 0.253765
Si Si3 0.082234 0.467892 0.379237
Si Si4 0.522322 0.190053 0.162100
O O1 0.080277 0.540139 0.213151
O O2 0.115496 0.448829 0.166667
O O3 0.093446 0.449698 0.300775
O O4 0.982809 0.400744 0.218390
O O5 0.666667 0.574987 0.333334
O O6 0.733300 0.683163 0.247103
O O7 0.697022 0.544326 0.215838
O O8 0.060439 0.530220 0.378219
O O9 0.157458 0.492570 0.419260
O O10 0.587089 0.174177 0.179775
O O11 0.553188 0.276594 0.164597
#
# Coordination Sequence:
#
# PCOD8324150 Si02
#       4
#    36  36  36  36
#     4  10  20  34  54  80 107 134 167 210 259 308
#     4  10  20  35  55  78 103 132 169 214 262 308
#     4   9  19  35  54  76 102 136 176 212 251 303
#     4  11  22  35  52  75 105 140 176 213 252 298
#
# _framework density 19.158868999999999
#
# number of rings (size 3 to 8) (size 9 to 14) (size 15 to 20)
#    0.000    2.000    0.000    4.000    0.000    6.000 
#    0.000    0.000    0.000    9.250    0.000    0.000 
#    0.000    0.000    0.000    0.000    0.000    0.000 
#
# Total GULP energy -595271.296393 kJ/mol
# GULP energy per Si atom -12401.485342 kJ/mol
# Density = 1.911526 g / cm^3
# Si number density = 19.158869 Si / 1000 Ang^3
#
#
#
# Elastic Constant Matrix: (Units=GPa)
#
#
# Indices 1 2 3 4 5 6 
#
# 1 86.1722 38.6181 43.4259 2.3790 0.0001 0.0000
# 2 38.6181 86.1722 43.4259 -2.3790 -0.0001 0.0000
# 3 43.4259 43.4259 75.3497 0.0000 0.0000 0.0000
# 4 2.3790 -2.3790 0.0000 28.3850 0.0000 -0.0001
# 5 0.0001 -0.0001 0.0000 0.0000 28.3850 2.3790
# 6 0.0000 0.0000 0.0000 -0.0001 2.3790 23.7771
#
#
#
# Elastic Compliance Matrix: (Units=1/GPa)
#
#
# Indices 1 2 3 4 5 6 
#
# 1 0.017293 -0.003913 -0.007712 -0.001777 0.000000 0.000000
# 2 -0.003913 0.017293 -0.007712 0.001777 0.000000 0.000000
# 3 -0.007712 -0.007712 0.022160 0.000000 0.000000 0.000000
# 4 -0.001777 0.001777 0.000000 0.035528 0.000000 0.000000
# 5 0.000000 0.000000 0.000000 0.000000 0.035528 -0.003555
# 6 0.000000 0.000000 0.000000 0.000000 -0.003555 0.042413
#
#
# Mechanical properties :
#
#
# Convention : Reuss Voigt Hill
#
# Bulk Modulus (GPa) = 55.32478 55.40376 55.36427
# Shear Modulus (GPa) = 23.26527 24.25772 23.76150
#
# Velocity S-wave (km/s) = 3.48851 3.56214 3.52552
# Velocity P-wave (km/s) = 6.72055 6.77490 6.74778
#
# Compressibility (1/GPa) = 0.01807508
#
# Stress axis : x y z
#
# Youngs Moduli (GPa) = 57.82521 57.82521 45.12615
#
# Poissons Ratio (x) = 0.22627 0.34799
# Poissons Ratio (y) = 0.22627 0.34799
# Poissons Ratio (z) = 0.44592 0.44592
#
# Static dielectric constant tensor:
#      x y z
#    x 3.298690 0.000000 0.000000 
#    y 0.000000 3.298690 0.000000 
#    z 0.000000 0.000000 3.677900 
# 
# 
# High freq. dielectric constant tensor:
#      x y z
#    x 1.732770 0.000000 0.000000 
#    y 0.000000 1.732770 0.000000 
#    z 0.000000 0.000000 1.756310 
# 
# From -- ./inp_files/5218.got.cif
#   From: 2010.03.12/outbox.cif.g09.slc.cpg/sg166_3_cif.got.tgz:5218.got - 2010.04.02 06:38:31.
