data_PCOD8324218
_publ_section_title
;
Structure prediction by ZEFSAII (Michael W. Deem and Ramdas Pophale) SiO2 
 PCOD8324218
Probable space group: R -3 M
;
_chemical_formula_sum "Si O2"
_cell_formula_units_Z 144
_cell_length_a 29.777823
_cell_length_b 29.777823
_cell_length_c 8.314474
_cell_angle_alpha 90.000000
_cell_angle_beta 90.000000
_cell_angle_gamma 120.000000
_cell_volume 6384.858832
_symmetry_space_group_name_H-M "R -3 M"
_symmetry_group_IT_number 166
_symmetry_cell_setting 'hexagonal'
loop_
_space_group_symop_operation_xyz
x,y,z
-y,x-y,z
-x+y,-x,z
x-y,-y,-z
-x,-x+y,-z
y,x,-z
-x,-y,-z
y,-x+y,-z
x-y,x,-z
-x+y,y,z
x,x-y,z
-y,-x,z
2/3+x,1/3+y,1/3+z
2/3-y,1/3+x-y,1/3+z
2/3-x+y,1/3-x,1/3+z
2/3+x-y,1/3-y,1/3-z
2/3-x,1/3-x+y,1/3-z
2/3+y,1/3+x,1/3-z
2/3-x,1/3-y,1/3-z
2/3+y,1/3-x+y,1/3-z
2/3+x-y,1/3+x,1/3-z
2/3-x+y,1/3+y,1/3+z
2/3+x,1/3+x-y,1/3+z
2/3-y,1/3-x,1/3+z
1/3+x,2/3+y,2/3+z
1/3-y,2/3+x-y,2/3+z
1/3-x+y,2/3-x,2/3+z
1/3+x-y,2/3-y,2/3-z
1/3-x,2/3-x+y,2/3-z
1/3+y,2/3+x,2/3-z
1/3-x,2/3-y,2/3-z
1/3+y,2/3-x+y,2/3-z
1/3+x-y,2/3+x,2/3-z
1/3-x+y,2/3+y,2/3+z
1/3+x,2/3+x-y,2/3+z
1/3-y,2/3-x,2/3+z
loop_
_atom_site_type_symbol
_atom_site_label
_atom_site_fract_x
_atom_site_fract_y
_atom_site_fract_z
Si Si1 0.450478 0.173079 0.993292
Si Si2 0.057733 0.750989 0.497558
Si Si3 0.853694 0.246904 0.322320
Si Si4 0.801998 0.300597 0.489847
O O1 0.461113 0.230557 0.966757
O O2 0.417830 0.145508 0.152893
O O3 0.506379 0.176752 0.018830
O O4 0.416038 0.136896 0.846583
O O5 0.087388 0.754055 0.333334
O O6 0.089527 0.744122 0.642554
O O7 0.000000 0.701772 0.500000
O O8 0.814801 0.185200 0.317840
O O9 0.835872 0.273175 0.457106
O O10 0.742514 0.257486 0.527932
O O11 0.802567 0.333334 0.333334
#
# Coordination Sequence:
#
# PCOD8324218 Si02
#       4
#    36  36  36  36
#     4  10  21  40  65  89 117 160 207 251 308 373
#     4  12  26  39  54  85 123 161 204 257 312 363
#     4   9  19  38  63  86 116 159 203 247 298 364
#     4   9  17  33  60  94 129 165 207 255 310 373
#
# _framework density 22.553356999999998
#
# number of rings (size 3 to 8) (size 9 to 14) (size 15 to 20)
#    0.000    2.000    0.000    5.250    0.000    9.000 
#    0.000    2.500    0.000    4.500    0.000    0.000 
#    0.000    1.000    0.000    0.000    0.000    0.250 
#
# Total GULP energy -595195.132397 kJ/mol
# GULP energy per Si atom -12399.898592 kJ/mol
# Density = 2.250202 g / cm^3
# Si number density = 22.553357 Si / 1000 Ang^3
#
#
#
# Elastic Constant Matrix: (Units=GPa)
#
#
# Indices 1 2 3 4 5 6 
#
# 1 142.4778 72.1757 33.3889 -0.0374 0.0810 0.0401
# 2 72.1757 142.5172 33.4024 0.0354 0.0585 0.0174
# 3 33.3889 33.4024 58.6808 0.0037 0.2908 0.0323
# 4 -0.0374 0.0354 0.0037 30.8143 0.0079 0.0254
# 5 0.0810 0.0585 0.2908 0.0079 30.9969 0.0250
# 6 0.0401 0.0174 0.0323 0.0254 0.0250 35.2094
#
#
#
# Elastic Compliance Matrix: (Units=1/GPa)
#
#
# Indices 1 2 3 4 5 6 
#
# 1 0.009941 -0.004280 -0.003220 0.000017 0.000012 -0.000006
# 2 -0.004280 0.009939 -0.003223 -0.000016 0.000023 0.000003
# 3 -0.003220 -0.003223 0.020709 -0.000003 -0.000180 -0.000014
# 4 0.000017 -0.000016 -0.000003 0.032453 -0.000008 -0.000023
# 5 0.000012 0.000023 -0.000180 -0.000008 0.032263 -0.000023
# 6 -0.000006 0.000003 -0.000014 -0.000023 -0.000023 0.028402
#
#
# Mechanical properties :
#
#
# Convention : Reuss Voigt Hill
#
# Bulk Modulus (GPa) = 52.23576 69.06776 60.65176
# Shear Modulus (GPa) = 30.95317 33.05136 32.00226
#
# Velocity S-wave (km/s) = 3.70867 3.83230 3.77099
# Velocity P-wave (km/s) = 6.44594 7.09033 6.77580
#
# Compressibility (1/GPa) = 0.01914397
#
# Stress axis : x y z
#
# Youngs Moduli (GPa) = 100.58927 100.60871 48.28811
#
# Poissons Ratio (x) = 0.43060 0.15551
# Poissons Ratio (y) = 0.43051 0.15562
# Poissons Ratio (z) = 0.32394 0.32423
#
# Static dielectric constant tensor:
#      x y z
#    x 4.083270 0.000040 -0.000690 
#    y 0.000040 4.083660 0.000070 
#    z -0.000690 0.000070 3.900690 
# 
# 
# High freq. dielectric constant tensor:
#      x y z
#    x 1.879990 0.000000 -0.000060 
#    y 0.000000 1.880020 0.000000 
#    z -0.000060 0.000000 1.878330 
# 
# From -- ./inp_files/1807.got.cif
#   From: 2010.03.12/outbox.cif.g09.slc.cpg/sg166_1_cif.got.tgz:1807.got - 2010.04.02 06:38:31.
