data_PCOD8324348
_publ_section_title
;
Structure prediction by ZEFSAII (Michael W. Deem and Ramdas Pophale) SiO2 
 PCOD8324348
Probable space group: R -3 C 
;
_chemical_formula_sum "Si O2"
_cell_formula_units_Z 162
_cell_length_a 23.227496
_cell_length_b 23.227496
_cell_length_c 18.053807
_cell_angle_alpha 90.000000
_cell_angle_beta 90.000000
_cell_angle_gamma 120.000000
_cell_volume 8435.371520
_symmetry_space_group_name_H-M "R -3 C "
_symmetry_group_IT_number 167
_symmetry_cell_setting 'hexagonal'
loop_
_space_group_symop_operation_xyz
x,y,z
-y,x-y,z
-x+y,-x,z
x-y,-y,1/2-z
-x,-x+y,1/2-z
y,x,1/2-z
-x,-y,-z
y,-x+y,-z
x-y,x,-z
-x+y,y,1/2+z
x,x-y,1/2+z
-y,-x,1/2+z
2/3+x,1/3+y,1/3+z
2/3-y,1/3+x-y,1/3+z
2/3-x+y,1/3-x,1/3+z
2/3+x-y,1/3-y,5/6-z
2/3-x,1/3-x+y,5/6-z
2/3+y,1/3+x,5/6-z
2/3-x,1/3-y,1/3-z
2/3+y,1/3-x+y,1/3-z
2/3+x-y,1/3+x,1/3-z
2/3-x+y,1/3+y,5/6+z
2/3+x,1/3+x-y,5/6+z
2/3-y,1/3-x,5/6+z
1/3+x,2/3+y,2/3+z
1/3-y,2/3+x-y,2/3+z
1/3-x+y,2/3-x,2/3+z
1/3+x-y,2/3-y,1/6-z
1/3-x,2/3-x+y,1/6-z
1/3+y,2/3+x,1/6-z
1/3-x,2/3-y,2/3-z
1/3+y,2/3-x+y,2/3-z
1/3+x-y,2/3+x,2/3-z
1/3-x+y,2/3+y,1/6+z
1/3+x,2/3+x-y,1/6+z
1/3-y,2/3-x,1/6+z
loop_
_atom_site_type_symbol
_atom_site_label
_atom_site_fract_x
_atom_site_fract_y
_atom_site_fract_z
Si Si1 0.659427 0.942774 0.004090
Si Si2 0.537224 0.870558 0.916667
Si Si3 0.159935 0.875877 0.398353
Si Si4 0.801014 0.261998 0.597595
Si Si5 0.762374 0.668296 0.331115
O O1 0.666667 0.915112 0.083334
O O2 0.580911 0.913810 0.987646
O O3 0.689558 0.918911 0.939817
O O4 0.697584 0.022438 0.008458
O O5 0.526937 0.797775 0.922241
O O6 0.166667 0.833334 0.333334
O O7 0.143933 0.926107 0.353561
O O8 0.103198 0.826574 0.456285
O O9 0.806849 0.333334 0.583334
O O10 0.854004 0.257361 0.543557
O O11 0.780583 0.666667 0.416667
#
# Coordination Sequence:
#
# PCOD8324348 Si02
#       5
#    36  18  36  36  36
#     4  12  23  36  63  94 130 169 210 259 320 402
#     4  12  24  42  62  90 126 166 218 266 326 392
#     4  10  21  40  57  86 128 166 208 253 322 393
#     4  11  24  41  61  84 122 166 214 269 325 379
#     4  11  21  36  60  95 130 162 205 259 330 399
#
# _framework density 19.204844999999999
#
# number of rings (size 3 to 8) (size 9 to 14) (size 15 to 20)
#    0.000    0.889    5.556    4.000    3.111    0.000 
#    0.667    0.000    0.000    0.000    0.000    0.000 
#    0.000    5.333    0.000    0.000    0.000    0.000 
#
# Total GULP energy -669051.186271 kJ/mol
# GULP energy per Si atom -12389.836783 kJ/mol
# Density = 1.916113 g / cm^3
# Si number density = 19.204845 Si / 1000 Ang^3
#
#
#
# Elastic Constant Matrix: (Units=GPa)
#
#
# Indices 1 2 3 4 5 6 
#
# 1 131.0007 67.1564 46.2475 3.9120 0.0001 0.0000
# 2 67.1564 131.0007 46.2475 -3.9120 -0.0001 0.0000
# 3 46.2475 46.2475 150.6348 0.0000 0.0000 0.0000
# 4 3.9120 -3.9120 0.0000 25.0916 0.0000 -0.0001
# 5 0.0001 -0.0001 0.0000 0.0000 25.0916 3.9120
# 6 0.0000 0.0000 0.0000 -0.0001 3.9120 31.9222
#
#
#
# Elastic Compliance Matrix: (Units=1/GPa)
#
#
# Indices 1 2 3 4 5 6 
#
# 1 0.010929 -0.005039 -0.001809 -0.002490 0.000000 0.000000
# 2 -0.005039 0.010929 -0.001809 0.002490 0.000000 0.000000
# 3 -0.001809 -0.001809 0.007749 0.000000 0.000000 0.000000
# 4 -0.002490 0.002490 0.000000 0.040630 0.000000 0.000000
# 5 0.000000 0.000000 0.000000 0.000000 0.040630 -0.004979
# 6 0.000000 0.000000 0.000000 0.000000 -0.004979 0.031936
#
#
# Mechanical properties :
#
#
# Convention : Reuss Voigt Hill
#
# Bulk Modulus (GPa) = 81.32544 81.32659 81.32601
# Shear Modulus (GPa) = 30.44782 33.28672 31.86727
#
# Velocity S-wave (km/s) = 3.98606 4.16774 4.07791
# Velocity P-wave (km/s) = 7.97641 8.09932 8.03810
#
# Compressibility (1/GPa) = 0.01229628
#
# Stress axis : x y z
#
# Youngs Moduli (GPa) = 91.49599 91.49599 129.04753
#
# Poissons Ratio (x) = 0.46103 0.23339
# Poissons Ratio (y) = 0.46103 0.23339
# Poissons Ratio (z) = 0.16547 0.16547
#
# Static dielectric constant tensor:
#      x y z
#    x 4.563330 0.000000 0.000000 
#    y 0.000000 4.563330 0.000000 
#    z 0.000000 0.000000 0.388510 
# 
# 
# High freq. dielectric constant tensor:
#      x y z
#    x 1.726700 0.000000 0.000000 
#    y 0.000000 1.726700 0.000000 
#    z 0.000000 0.000000 1.770170 
# 
# From -- ./inp_files/3455.got.cif
#   From: 2010.03.12/outbox.cif.g09.slc.cpg/sg167_2_cif.got.tgz:3455.got - 2010.04.02 06:42:56.
