data_PCOD8324028
_publ_section_title
;
Structure prediction by ZEFSAII (Michael W. Deem and Ramdas Pophale) SiO2 
 PCOD8324028
Probable space group: R -3 M
;
_chemical_formula_sum "Si O2"
_cell_formula_units_Z 162
_cell_length_a 25.778194
_cell_length_b 25.778194
_cell_length_c 16.177803
_cell_angle_alpha 90.000000
_cell_angle_beta 90.000000
_cell_angle_gamma 120.000000
_cell_volume 9310.117237
_symmetry_space_group_name_H-M "R -3 M"
_symmetry_group_IT_number 166
_symmetry_cell_setting 'hexagonal'
loop_
_space_group_symop_operation_xyz
x,y,z
-y,x-y,z
-x+y,-x,z
x-y,-y,-z
-x,-x+y,-z
y,x,-z
-x,-y,-z
y,-x+y,-z
x-y,x,-z
-x+y,y,z
x,x-y,z
-y,-x,z
2/3+x,1/3+y,1/3+z
2/3-y,1/3+x-y,1/3+z
2/3-x+y,1/3-x,1/3+z
2/3+x-y,1/3-y,1/3-z
2/3-x,1/3-x+y,1/3-z
2/3+y,1/3+x,1/3-z
2/3-x,1/3-y,1/3-z
2/3+y,1/3-x+y,1/3-z
2/3+x-y,1/3+x,1/3-z
2/3-x+y,1/3+y,1/3+z
2/3+x,1/3+x-y,1/3+z
2/3-y,1/3-x,1/3+z
1/3+x,2/3+y,2/3+z
1/3-y,2/3+x-y,2/3+z
1/3-x+y,2/3-x,2/3+z
1/3+x-y,2/3-y,2/3-z
1/3-x,2/3-x+y,2/3-z
1/3+y,2/3+x,2/3-z
1/3-x,2/3-y,2/3-z
1/3+y,2/3-x+y,2/3-z
1/3+x-y,2/3+x,2/3-z
1/3-x+y,2/3+y,2/3+z
1/3+x,2/3+x-y,2/3+z
1/3-y,2/3-x,2/3+z
loop_
_atom_site_type_symbol
_atom_site_label
_atom_site_fract_x
_atom_site_fract_y
_atom_site_fract_z
Si Si1 0.823817 0.769134 0.293724
Si Si2 0.789269 0.777750 0.113314
Si Si3 0.119005 0.000117 0.595281
Si Si4 0.455680 0.789013 0.666667
Si Si5 0.640198 0.879323 0.647645
O O1 0.884623 0.769245 0.271035
O O2 0.792594 0.773457 0.210837
O O3 0.835676 0.824436 0.351040
O O4 0.778259 0.709027 0.342383
O O5 0.840729 0.842734 0.081596
O O6 0.797744 0.726581 0.068943
O O7 0.723935 0.767601 0.089373
O O8 0.126447 0.063224 0.622485
O O9 0.135985 0.000000 0.500000
O O10 0.050524 0.949477 0.611217
O O11 0.390733 0.781465 0.664998
O O12 0.635675 0.817838 0.618855
#
# Coordination Sequence:
#
# PCOD8324028 Si02
#       5
#    36  36  36  18  36
#     4  10  19  32  52  76 100 128 165 208 249 290
#     4  10  18  31  50  72  95 129 174 213 244 289
#     4   9  18  33  53  76 102 132 164 199 242 294
#     4  10  19  30  44  68 106 144 171 200 246 302
#     4   9  18  32  49  70  99 131 164 205 252 296
#
# _framework density 17.400424000000001
#
# number of rings (size 3 to 8) (size 9 to 14) (size 15 to 20)
#    0.000    2.667    0.000    5.000    0.000    4.444 
#    0.000    4.444    0.000    2.667    0.000    9.333 
#    0.000    0.000    0.000    0.000    0.000    0.000 
#
# Total GULP energy -669650.603372 kJ/mol
# GULP energy per Si atom -12400.937099 kJ/mol
# Density = 1.736082 g / cm^3
# Si number density = 17.400424 Si / 1000 Ang^3
#
#
#
# Elastic Constant Matrix: (Units=GPa)
#
#
# Indices 1 2 3 4 5 6 
#
# 1 118.4534 59.8766 59.0578 -3.2619 0.0001 0.0000
# 2 59.8766 118.4534 59.0578 3.2619 -0.0001 0.0000
# 3 59.0578 59.0578 95.5601 0.0000 0.0000 0.0000
# 4 -3.2619 3.2619 0.0000 17.3339 0.0000 -0.0001
# 5 0.0001 -0.0001 0.0000 0.0000 17.3339 -3.2619
# 6 0.0000 0.0000 0.0000 -0.0001 -3.2619 29.2884
#
#
#
# Elastic Compliance Matrix: (Units=1/GPa)
#
#
# Indices 1 2 3 4 5 6 
#
# 1 0.013465 -0.003972 -0.005867 0.003281 0.000000 0.000000
# 2 -0.003972 0.013465 -0.005867 -0.003281 0.000000 0.000000
# 3 -0.005867 -0.005867 0.017717 0.000000 0.000000 0.000000
# 4 0.003281 -0.003281 0.000000 0.058925 0.000000 0.000000
# 5 0.000000 0.000000 0.000000 0.000000 0.058925 0.006563
# 6 0.000000 0.000000 0.000000 0.000000 0.006563 0.034874
#
#
# Mechanical properties :
#
#
# Convention : Reuss Voigt Hill
#
# Bulk Modulus (GPa) = 75.55665 76.49456 76.02560
# Shear Modulus (GPa) = 21.44113 23.08956 22.26535
#
# Velocity S-wave (km/s) = 3.51411 3.64669 3.58101
# Velocity P-wave (km/s) = 7.74479 7.86053 7.80287
#
# Compressibility (1/GPa) = 0.01323510
#
# Stress axis : x y z
#
# Youngs Moduli (GPa) = 74.26441 74.26441 56.44358
#
# Poissons Ratio (x) = 0.29495 0.33117
# Poissons Ratio (y) = 0.29495 0.33117
# Poissons Ratio (z) = 0.43573 0.43573
#
# Static dielectric constant tensor:
#      x y z
#    x 3.259970 0.000000 0.000000 
#    y 0.000000 3.259970 0.000000 
#    z 0.000000 0.000000 3.010800 
# 
# 
# High freq. dielectric constant tensor:
#      x y z
#    x 1.672340 0.000000 0.000000 
#    y 0.000000 1.672340 0.000000 
#    z 0.000000 0.000000 1.651960 
# 
# From -- ./inp_files/5550.got.cif
#   From: 2010.03.12/outbox.cif.g09.slc.cpg/sg166_3_cif.got.tgz:5550.got - 2010.04.02 06:38:31.
