data_PCOD8324135
_publ_section_title
;
Structure prediction by ZEFSAII (Michael W. Deem and Ramdas Pophale) SiO2 
 PCOD8324135
Probable space group: R -3 M
;
_chemical_formula_sum "Si O2"
_cell_formula_units_Z 216
_cell_length_a 23.341536
_cell_length_b 23.341536
_cell_length_c 25.689726
_cell_angle_alpha 90.000000
_cell_angle_beta 90.000000
_cell_angle_gamma 120.000000
_cell_volume 12121.293497
_symmetry_space_group_name_H-M "R -3 M"
_symmetry_group_IT_number 166
_symmetry_cell_setting 'hexagonal'
loop_
_space_group_symop_operation_xyz
x,y,z
-y,x-y,z
-x+y,-x,z
x-y,-y,-z
-x,-x+y,-z
y,x,-z
-x,-y,-z
y,-x+y,-z
x-y,x,-z
-x+y,y,z
x,x-y,z
-y,-x,z
2/3+x,1/3+y,1/3+z
2/3-y,1/3+x-y,1/3+z
2/3-x+y,1/3-x,1/3+z
2/3+x-y,1/3-y,1/3-z
2/3-x,1/3-x+y,1/3-z
2/3+y,1/3+x,1/3-z
2/3-x,1/3-y,1/3-z
2/3+y,1/3-x+y,1/3-z
2/3+x-y,1/3+x,1/3-z
2/3-x+y,1/3+y,1/3+z
2/3+x,1/3+x-y,1/3+z
2/3-y,1/3-x,1/3+z
1/3+x,2/3+y,2/3+z
1/3-y,2/3+x-y,2/3+z
1/3-x+y,2/3-x,2/3+z
1/3+x-y,2/3-y,2/3-z
1/3-x,2/3-x+y,2/3-z
1/3+y,2/3+x,2/3-z
1/3-x,2/3-y,2/3-z
1/3+y,2/3-x+y,2/3-z
1/3+x-y,2/3+x,2/3-z
1/3-x+y,2/3+y,2/3+z
1/3+x,2/3+x-y,2/3+z
1/3-y,2/3-x,2/3+z
loop_
_atom_site_type_symbol
_atom_site_label
_atom_site_fract_x
_atom_site_fract_y
_atom_site_fract_z
Si Si1 0.131750 0.131780 0.256058
Si Si2 0.775231 0.097747 0.017550
Si Si3 0.078747 0.692462 0.583699
Si Si4 0.132490 0.631277 0.306968
Si Si5 0.311848 0.907798 0.221341
Si Si6 0.730120 0.136539 0.525390
O O1 0.057771 0.115541 0.242649
O O2 0.141869 0.141358 0.318182
O O3 0.186335 0.199735 0.228544
O O4 0.140761 0.070381 0.237294
O O5 0.843751 0.156250 0.037954
O O6 0.746279 0.049468 0.066746
O O7 0.790035 0.064771 0.967092
O O8 0.723941 0.121991 0.004284
O O9 0.116537 0.694828 0.530971
O O10 0.038874 0.728798 0.570951
O O11 0.131368 0.565684 0.283014
O O12 0.143603 0.687138 0.263570
O O13 0.333334 0.890453 0.166667
O O14 0.246380 0.914583 0.218166
O O15 0.796187 0.203814 0.516160
#
# Coordination Sequence:
#
# PCOD8324135 Si02
#       6
#    36  36  36  36  36  36
#     4  10  21  36  52  68  89 122 164 209 253 294
#     4   9  16  27  46  68  92 124 156 186 225 276
#     4   9  17  29  44  66  96 125 153 187 229 278
#     4   9  18  33  51  72  97 124 156 191 229 280
#     4   9  18  31  48  71 100 128 152 182 229 287
#     4  10  20  32  47  69  97 127 160 202 246 286
#
# _framework density 17.819880999999999
#
# number of rings (size 3 to 8) (size 9 to 14) (size 15 to 20)
#    0.000    2.667    0.000    1.667    0.000    7.333 
#    0.000    1.667    0.000    6.000    0.000    0.000 
#    0.000    3.333    0.000   20.667    0.000    0.000 
#
# Total GULP energy -892014.545514 kJ/mol
# GULP energy per Si atom -12389.090910 kJ/mol
# Density = 1.777932 g / cm^3
# Si number density = 17.819881 Si / 1000 Ang^3
#
#
#
# Elastic Constant Matrix: (Units=GPa)
#
#
# Indices 1 2 3 4 5 6 
#
# 1 55.2206 14.6508 26.3081 -3.2513 0.0000 0.0000
# 2 14.6508 55.2206 26.3081 3.2513 0.0000 0.0000
# 3 26.3081 26.3081 87.2969 0.0000 0.0000 0.0000
# 4 -3.2513 3.2513 0.0000 16.8095 0.0000 0.0000
# 5 0.0000 0.0000 0.0000 0.0000 16.8095 -3.2513
# 6 0.0000 0.0000 0.0000 0.0000 -3.2513 20.2849
#
#
#
# Elastic Compliance Matrix: (Units=1/GPa)
#
#
# Indices 1 2 3 4 5 6 
#
# 1 0.021975 -0.003462 -0.005579 0.004920 0.000000 0.000000
# 2 -0.003462 0.021975 -0.005579 -0.004920 0.000000 0.000000
# 3 -0.005579 -0.005579 0.014818 0.000000 0.000000 0.000000
# 4 0.004920 -0.004920 0.000000 0.061394 0.000000 0.000000
# 5 0.000000 0.000000 0.000000 0.000000 0.061394 0.009840
# 6 0.000000 0.000000 0.000000 0.000000 0.009840 0.050875
#
#
# Mechanical properties :
#
#
# Convention : Reuss Voigt Hill
#
# Bulk Modulus (GPa) = 33.86644 36.91909 35.39277
# Shear Modulus (GPa) = 18.41520 19.47884 18.94702
#
# Velocity S-wave (km/s) = 3.21815 3.30979 3.26429
# Velocity P-wave (km/s) = 5.73191 5.94720 5.84055
#
# Compressibility (1/GPa) = 0.02952775
#
# Stress axis : x y z
#
# Youngs Moduli (GPa) = 45.50528 45.50528 67.48579
#
# Poissons Ratio (x) = 0.15754 0.37652
# Poissons Ratio (y) = 0.15754 0.37652
# Poissons Ratio (z) = 0.25389 0.25389
#
# Static dielectric constant tensor:
#      x y z
#    x 3.244960 0.000000 0.000000 
#    y 0.000000 3.244960 0.000000 
#    z 0.000000 0.000000 3.834960 
# 
# 
# High freq. dielectric constant tensor:
#      x y z
#    x 1.675150 0.000000 0.000000 
#    y 0.000000 1.675150 0.000000 
#    z 0.000000 0.000000 1.689970 
# 
# From -- ./inp_files/8456.got.cif
#   From: 2010.03.12/outbox.cif.g09.slc.cpg/sg166_5_cif.got.tgz:8456.got - 2010.04.02 06:38:31.
