data_PCOD8324472
_publ_section_title
;
Structure prediction by ZEFSAII (Michael W. Deem and Ramdas Pophale) SiO2 
 PCOD8324472
Probable space group: P 61
;
_chemical_formula_sum "Si O2"
_cell_formula_units_Z 48
_cell_length_a 15.503283
_cell_length_b 15.503283
_cell_length_c 12.302908
_cell_angle_alpha 90.000000
_cell_angle_beta 90.000000
_cell_angle_gamma 120.000000
_cell_volume 2560.859535
_symmetry_space_group_name_H-M "P 61"
_symmetry_group_IT_number 169
_symmetry_cell_setting 'hexagonal'
loop_
_space_group_symop_operation_xyz
x,y,z
x-y,x,1/6+z
-y,x-y,1/3+z
-x,-y,1/2+z
-x+y,-x,2/3+z
y,-x+y,5/6+z
loop_
_atom_site_type_symbol
_atom_site_label
_atom_site_fract_x
_atom_site_fract_y
_atom_site_fract_z
Si Si1 0.639208 0.246998 0.993650
Si Si2 0.690619 0.022175 0.166344
Si Si3 0.479164 0.132274 0.398335
Si Si4 0.735456 0.036960 0.923250
Si Si5 0.177215 0.539206 0.067351
Si Si6 0.472986 0.870484 0.132190
Si Si7 0.160809 0.484976 0.625755
Si Si8 0.948079 0.105541 0.999645
O O1 0.569439 0.294111 0.970678
O O2 0.754503 0.328855 0.989497
O O3 0.616541 0.167132 0.897882
O O4 0.613754 0.196835 0.112117
O O5 0.693866 0.112325 0.235391
O O6 0.583286 0.925385 0.180316
O O7 0.765366 0.983963 0.204107
O O8 0.715163 0.063679 0.043438
O O9 0.530277 0.114992 0.293264
O O10 0.520674 0.102406 0.504888
O O11 0.516758 0.248861 0.408830
O O12 0.358234 0.070945 0.391161
O O13 0.740708 0.112628 0.831716
O O14 0.846260 0.051495 0.926458
O O15 0.403986 0.903836 0.198556
O O16 0.038426 0.106355 0.936939
#
# Coordination Sequence:
#
# PCOD8324472 Si02
#       8
#     6   6   6   6   6   6   6   6
#     4  11  20  32  56  77 116 161 200 229 287 352
#     4  10  22  34  61  87 117 141 198 253 300 333
#     4  10  22  33  54  82 118 154 196 239 293 344
#     4  10  19  37  57  88 109 142 198 256 292 338
#     4  12  21  37  53  87 122 163 198 235 289 358
#     4  10  19  35  51  80 113 160 197 242 282 340
#     4  11  18  31  53  79 112 156 198 239 283 343
#     4  10  21  39  67  90 109 141 193 257 310 356
#
# _framework density 18.743708000000002
#
# number of rings (size 3 to 8) (size 9 to 14) (size 15 to 20)
#    0.000    1.500    3.750    4.500    1.750    0.000 
#    0.000    0.000    2.750    0.000    0.000    0.000 
#    0.000    0.000    0.000    0.000    0.000    0.000 
#
# Total GULP energy -594810.461099 kJ/mol
# GULP energy per Si atom -12391.884606 kJ/mol
# Density = 1.870105 g / cm^3
# Si number density = 18.743708 Si / 1000 Ang^3
#
#
#
# Elastic Constant Matrix: (Units=GPa)
#
#
# Indices 1 2 3 4 5 6 
#
# 1 99.5481 41.6603 43.6082 0.0000 0.0000 0.0000
# 2 41.6603 99.5481 43.6082 0.0000 0.0000 0.0000
# 3 43.6082 43.6082 77.5167 0.0000 0.0000 0.0000
# 4 0.0000 0.0000 0.0000 26.2744 0.0000 0.0000
# 5 0.0000 0.0000 0.0000 0.0000 26.2744 0.0000
# 6 0.0000 0.0000 0.0000 0.0000 0.0000 28.9439
#
#
#
# Elastic Compliance Matrix: (Units=1/GPa)
#
#
# Indices 1 2 3 4 5 6 
#
# 1 0.014064 -0.003211 -0.006105 0.000000 0.000000 0.000000
# 2 -0.003211 0.014064 -0.006105 0.000000 0.000000 0.000000
# 3 -0.006105 -0.006105 0.019770 0.000000 0.000000 0.000000
# 4 0.000000 0.000000 0.000000 0.038060 0.000000 0.000000
# 5 0.000000 0.000000 0.000000 0.000000 0.038060 0.000000
# 6 0.000000 0.000000 0.000000 0.000000 0.000000 0.034550
#
#
# Mechanical properties :
#
#
# Convention : Reuss Voigt Hill
#
# Bulk Modulus (GPa) = 58.63817 59.37401 59.00609
# Shear Modulus (GPa) = 25.62859 26.14760 25.88809
#
# Velocity S-wave (km/s) = 3.70174 3.73903 3.72043
# Velocity P-wave (km/s) = 7.04433 7.09831 7.07137
#
# Compressibility (1/GPa) = 0.01705374
#
# Stress axis : x y z
#
# Youngs Moduli (GPa) = 71.10491 71.10491 50.58238
#
# Poissons Ratio (x) = 0.22832 0.30882
# Poissons Ratio (y) = 0.22832 0.30882
# Poissons Ratio (z) = 0.43412 0.43412
#
# Static dielectric constant tensor:
#      x y z
#    x 3.477210 0.000000 0.000000 
#    y 0.000000 3.477210 0.000000 
#    z 0.000000 0.000000 3.520500 
# 
# 
# High freq. dielectric constant tensor:
#      x y z
#    x 1.720540 0.000000 0.000000 
#    y 0.000000 1.720540 0.000000 
#    z 0.000000 0.000000 1.712130 
# 
# From -- ./inp_files/1252.got.cif
#   From: 2010.03.12/outbox.cif.g09.slc.cpg/sg169_cif.got.tgz:1252.got - 2010.04.02 06:46:06.
