data_PCOD8324736
_publ_section_title
;
Structure prediction by ZEFSAII (Michael W. Deem and Ramdas Pophale) SiO2 
 PCOD8324736
Probable space group: P 62
;
_chemical_formula_sum "Si O2"
_cell_formula_units_Z 39
_cell_length_a 13.431104
_cell_length_b 13.431104
_cell_length_c 12.321170
_cell_angle_alpha 90.000000
_cell_angle_beta 90.000000
_cell_angle_gamma 120.000000
_cell_volume 1924.890395
_symmetry_space_group_name_H-M "P 62"
_symmetry_group_IT_number 171
_symmetry_cell_setting 'hexagonal'
loop_
_space_group_symop_operation_xyz
x,y,z
x-y,x,1/3+z
-y,x-y,2/3+z
-x,-y,z
-x+y,-x,1/3+z
y,-x+y,2/3+z
loop_
_atom_site_type_symbol
_atom_site_label
_atom_site_fract_x
_atom_site_fract_y
_atom_site_fract_z
Si Si1 0.245733 0.520538 0.417170
Si Si2 0.000000 0.500000 0.154335
Si Si3 0.670051 0.718613 0.940447
Si Si4 0.595330 0.115058 0.156717
Si Si5 0.218766 0.323043 0.133274
Si Si6 0.312490 0.772703 0.371217
Si Si7 0.063577 0.430111 0.598552
O O1 0.164885 0.434762 0.324719
O O2 0.356649 0.508239 0.435399
O O3 0.310186 0.653677 0.380494
O O4 0.180975 0.494269 0.531212
O O5 0.021159 0.610175 0.226633
O O6 0.881915 0.455997 0.087680
O O7 0.730401 0.819542 0.848968
O O8 0.769773 0.741303 0.026770
O O9 0.688038 0.201070 0.242853
O O10 0.500000 0.000000 0.217314
O O11 0.663054 0.093058 0.059061
O O12 0.254448 0.450434 0.096538
O O13 0.299742 0.317430 0.225872
O O14 0.000000 0.500000 0.572648
#
# Coordination Sequence:
#
# PCOD8324736 Si02
#       7
#     6   3   6   6   6   6   6
#     4  11  22  35  57  81 112 164 207 238 300 361
#     4  10  22  34  48  76 122 160 204 244 296 348
#     4  10  21  37  58  87 112 166 201 257 289 373
#     4  11  23  35  50  78 121 156 200 249 292 346
#     4  10  21  36  60  80 121 152 207 240 307 353
#     4  11  22  36  51  84 117 167 197 250 292 366
#     4  10  19  37  56  81 111 158 206 248 287 362
#
# _framework density 20.260894
#
# number of rings (size 3 to 8) (size 9 to 14) (size 15 to 20)
#    0.000    1.538    2.308    3.692   10.769    0.000 
#    0.000    0.000    0.000    0.000    0.000    0.000 
#    0.000   40.615    0.000    0.000    0.000    0.000 
#
# Total GULP energy -483226.496718 kJ/mol
# GULP energy per Si atom -12390.422993 kJ/mol
# Density = 2.021478 g / cm^3
# Si number density = 20.260894 Si / 1000 Ang^3
#
#
#
# Elastic Constant Matrix: (Units=GPa)
#
#
# Indices 1 2 3 4 5 6 
#
# 1 78.9348 34.2847 38.2941 0.0000 0.0000 0.0000
# 2 34.2847 78.9348 38.2941 0.0000 0.0000 0.0000
# 3 38.2941 38.2941 116.6803 0.0000 0.0000 0.0000
# 4 0.0000 0.0000 0.0000 20.4425 0.0000 0.0000
# 5 0.0000 0.0000 0.0000 0.0000 20.4425 0.0000
# 6 0.0000 0.0000 0.0000 0.0000 0.0000 22.3251
#
#
#
# Elastic Compliance Matrix: (Units=1/GPa)
#
#
# Indices 1 2 3 4 5 6 
#
# 1 0.016875 -0.005522 -0.003726 0.000000 0.000000 0.000000
# 2 -0.005522 0.016875 -0.003726 0.000000 0.000000 0.000000
# 3 -0.003726 -0.003726 0.011016 0.000000 0.000000 0.000000
# 4 0.000000 0.000000 0.000000 0.048918 0.000000 0.000000
# 5 0.000000 0.000000 0.000000 0.000000 0.048918 0.000000
# 6 0.000000 0.000000 0.000000 0.000000 0.000000 0.044793
#
#
# Mechanical properties :
#
#
# Convention : Reuss Voigt Hill
#
# Bulk Modulus (GPa) = 53.14069 55.14395 54.14232
# Shear Modulus (GPa) = 22.76727 23.55381 23.16054
#
# Velocity S-wave (km/s) = 3.35581 3.41328 3.38467
# Velocity P-wave (km/s) = 6.42654 6.54294 6.48500
#
# Compressibility (1/GPa) = 0.01881797
#
# Stress axis : x y z
#
# Youngs Moduli (GPa) = 59.26066 59.26066 90.77604
#
# Poissons Ratio (x) = 0.32722 0.33823
# Poissons Ratio (y) = 0.32722 0.33823
# Poissons Ratio (z) = 0.22080 0.22080
#
# Static dielectric constant tensor:
#      x y z
#    x 3.593330 0.000000 0.000000 
#    y 0.000000 3.593330 0.000000 
#    z 0.000000 0.000000 3.975710 
# 
# 
# High freq. dielectric constant tensor:
#      x y z
#    x 1.767410 0.000000 0.000000 
#    y 0.000000 1.767410 0.000000 
#    z 0.000000 0.000000 1.811880 
# 
# From -- ./inp_files/1997.got.cif
#   From: 2010.03.12/outbox.cif.g09.slc.cpg/sg171_1_cif.got.tgz:1997.got - 2010.04.02 06:49:11.
