data_PCOD8324943
_publ_section_title
;
Structure prediction by ZEFSAII (Michael W. Deem and Ramdas Pophale) SiO2 
 PCOD8324943
Probable space group: P -6
;
_chemical_formula_sum "Si O2"
_cell_formula_units_Z 44
_cell_length_a 11.703012
_cell_length_b 11.703012
_cell_length_c 19.292157
_cell_angle_alpha 90.000000
_cell_angle_beta 90.000000
_cell_angle_gamma 120.000000
_cell_volume 2288.267118
_symmetry_space_group_name_H-M "P -6"
_symmetry_group_IT_number 174
_symmetry_cell_setting 'hexagonal'
loop_
_space_group_symop_operation_xyz
x,y,z
-x+y,-x,-z
-y,x-y,z
x,y,-z
-x+y,-x,z
-y,x-y,-z
loop_
_atom_site_type_symbol
_atom_site_label
_atom_site_fract_x
_atom_site_fract_y
_atom_site_fract_z
Si Si1 0.002358 0.742974 0.213218
Si Si2 0.667664 0.069487 0.923153
Si Si3 0.257026 0.997642 0.786782
Si Si4 0.369624 0.184812 0.417763
Si Si5 0.598327 0.931259 0.349730
Si Si6 0.666668 0.333334 0.417873
Si Si7 0.401822 0.069488 0.076847
Si Si8 0.332931 0.931259 0.349730
O O1 0.101202 0.898798 0.221310
O O2 0.040954 0.663230 0.267496
O O3 0.017069 0.704309 0.134937
O O4 0.855407 0.710814 0.230090
O O5 0.529594 0.059189 0.909378
O O6 0.778169 0.221830 0.916216
O O7 0.672989 0.015605 0.000000
O O8 0.336769 0.959045 0.732505
O O9 0.295690 0.982932 0.865063
O O10 0.359650 0.179823 0.500000
O O11 0.303385 0.268091 0.389872
O O12 0.518880 0.259438 0.389305
O O13 0.303383 0.035294 0.389870
O O14 0.471495 0.942990 0.372409
O O15 0.570243 0.785122 0.368311
O O16 0.666667 0.333334 0.500000
O O17 0.342615 0.015606 0.000000
#
# Coordination Sequence:
#
# PCOD8324943 Si02
#       8
#     6   6   6   6   6   2   6   6
#     4  10  20  34  53  78 110 148 190 235 286 343
#     4   9  17  30  49  74 104 138 178 228 284 339
#     4  10  20  34  53  78 110 148 190 235 286 343
#     4  11  22  40  64  90 117 150 192 240 291 349
#     4  11  23  40  62  89 121 157 197 243 295 351
#     4   9  18  36  66  90 114 144 184 242 292 333
#     4   9  17  30  49  74 104 138 178 228 284 339
#     4  11  23  40  62  89 121 157 197 243 295 351
#
# _framework density 19.228524
#
# number of rings (size 3 to 8) (size 9 to 14) (size 15 to 20)
#    0.000    1.909    2.727    1.636    0.000    2.182 
#    0.818    0.000    0.000    3.818    0.000    0.000 
#    0.000    0.000    0.000    0.000    0.000    0.000 
#
# Total GULP energy -545531.967590 kJ/mol
# GULP energy per Si atom -12398.453809 kJ/mol
# Density = 1.918476 g / cm^3
# Si number density = 19.228524 Si / 1000 Ang^3
#
#
#
# Elastic Constant Matrix: (Units=GPa)
#
#
# Indices 1 2 3 4 5 6 
#
# 1 86.8309 32.9122 32.0028 0.0000 0.0000 -0.0002
# 2 32.9122 86.8313 32.0027 0.0000 0.0000 0.0000
# 3 32.0028 32.0027 91.0068 0.0000 0.0000 0.0000
# 4 0.0000 0.0000 0.0000 25.3348 0.0000 0.0000
# 5 0.0000 0.0000 0.0000 0.0000 25.3347 0.0000
# 6 -0.0002 0.0000 0.0000 0.0000 0.0000 26.9593
#
#
#
# Elastic Compliance Matrix: (Units=1/GPa)
#
#
# Indices 1 2 3 4 5 6 
#
# 1 0.014415 -0.004131 -0.003617 0.000000 0.000000 0.000000
# 2 -0.004131 0.014415 -0.003616 0.000000 0.000000 0.000000
# 3 -0.003617 -0.003616 0.013532 0.000000 0.000000 0.000000
# 4 0.000000 0.000000 0.000000 0.039471 0.000000 0.000000
# 5 0.000000 0.000000 0.000000 0.000000 0.039472 0.000000
# 6 0.000000 0.000000 0.000000 0.000000 0.000000 0.037093
#
#
# Mechanical properties :
#
#
# Convention : Reuss Voigt Hill
#
# Bulk Modulus (GPa) = 50.93129 50.94493 50.93811
# Shear Modulus (GPa) = 26.64234 26.70917 26.67575
#
# Velocity S-wave (km/s) = 3.72635 3.73102 3.72869
# Velocity P-wave (km/s) = 6.71261 6.71660 6.71461
#
# Compressibility (1/GPa) = 0.01963430
#
# Stress axis : x y z
#
# Youngs Moduli (GPa) = 69.37039 69.37077 73.90060
#
# Poissons Ratio (x) = 0.28657 0.26726
# Poissons Ratio (y) = 0.28657 0.26726
# Poissons Ratio (z) = 0.25088 0.25088
#
# Static dielectric constant tensor:
#      x y z
#    x 3.392720 0.000000 0.000000 
#    y 0.000000 3.392720 0.000000 
#    z 0.000000 0.000000 3.613540 
# 
# 
# High freq. dielectric constant tensor:
#      x y z
#    x 1.738380 0.000000 0.000000 
#    y 0.000000 1.738370 0.000000 
#    z 0.000000 0.000000 1.753680 
# 
# From -- ./inp_files/1016.got.cif
#   From: 2010.03.12/outbox.cif.g09.slc.cpg/sg174_cif.got.tgz:1016.got - 2010.04.02 06:54:58.
