data_PCOD8324637
_publ_section_title
;
Structure prediction by ZEFSAII (Michael W. Deem and Ramdas Pophale) SiO2 
 PCOD8324637
Probable space group: P 65
;
_chemical_formula_sum "Si O2"
_cell_formula_units_Z 42
_cell_length_a 10.663022
_cell_length_b 10.663022
_cell_length_c 23.452581
_cell_angle_alpha 90.000000
_cell_angle_beta 90.000000
_cell_angle_gamma 120.000000
_cell_volume 2309.308142
_symmetry_space_group_name_H-M "P 65"
_symmetry_group_IT_number 170
_symmetry_cell_setting 'hexagonal'
loop_
_space_group_symop_operation_xyz
x,y,z
x-y,x,5/6+z
-y,x-y,2/3+z
-x,-y,1/2+z
-x+y,-x,1/3+z
y,-x+y,1/6+z
loop_
_atom_site_type_symbol
_atom_site_label
_atom_site_fract_x
_atom_site_fract_y
_atom_site_fract_z
Si Si1 0.669488 0.249646 0.281000
Si Si2 0.504005 0.007680 0.868028
Si Si3 0.831960 0.260945 0.621993
Si Si4 0.036491 0.653217 0.237870
Si Si5 0.158501 0.746874 0.614148
Si Si6 0.626348 0.960285 0.064235
Si Si7 0.575495 0.264546 0.159027
O O1 0.683999 0.401328 0.300946
O O2 0.827216 0.266886 0.274714
O O3 0.581811 0.202877 0.221298
O O4 0.592652 0.125776 0.327291
O O5 0.409894 0.038286 0.914060
O O6 0.595812 0.152192 0.830684
O O7 0.605898 0.962723 0.902586
O O8 0.760089 0.107273 0.590472
O O9 0.893599 0.244180 0.682750
O O10 0.001695 0.496855 0.216205
O O11 0.143341 0.705221 0.291839
O O12 0.080441 0.751728 0.671700
O O13 0.275240 0.693441 0.625825
O O14 0.232536 0.909220 0.591417
#
# Coordination Sequence:
#
# PCOD8324637 Si02
#       7
#     6   6   6   6   6   6   6
#     4   9  19  35  53  88 111 142 194 238 288 338
#     4  11  21  33  59  85 112 145 198 239 282 352
#     4  10  21  36  58  85 113 151 186 240 296 338
#     4  10  19  37  56  80 117 146 186 237 290 334
#     4  10  19  36  57  81 113 147 182 238 291 331
#     4   9  18  35  55  81 111 145 183 233 284 335
#     4   9  21  34  56  86 111 146 193 237 291 340
#
# _framework density 18.187266000000001
#
# number of rings (size 3 to 8) (size 9 to 14) (size 15 to 20)
#    0.000    2.286    1.429    2.571    4.000    0.000 
#    5.143    0.000    0.000    5.143    0.000    0.000 
#    0.000    0.000    0.000    0.000    0.000    0.000 
#
# Total GULP energy -520764.312218 kJ/mol
# GULP energy per Si atom -12399.150291 kJ/mol
# Density = 1.814587 g / cm^3
# Si number density = 18.187266 Si / 1000 Ang^3
#
#
#
# Elastic Constant Matrix: (Units=GPa)
#
#
# Indices 1 2 3 4 5 6 
#
# 1 81.1037 31.8955 55.7711 0.0000 0.0000 0.0000
# 2 31.8955 81.1037 55.7711 0.0000 0.0000 0.0000
# 3 55.7711 55.7711 115.8452 0.0000 0.0000 0.0000
# 4 0.0000 0.0000 0.0000 33.0336 0.0000 0.0000
# 5 0.0000 0.0000 0.0000 0.0000 33.0336 0.0000
# 6 0.0000 0.0000 0.0000 0.0000 0.0000 24.6041
#
#
#
# Elastic Compliance Matrix: (Units=1/GPa)
#
#
# Indices 1 2 3 4 5 6 
#
# 1 0.018593 -0.001729 -0.008119 0.000000 0.000000 0.000000
# 2 -0.001729 0.018593 -0.008119 0.000000 0.000000 0.000000
# 3 -0.008119 -0.008119 0.016449 0.000000 0.000000 0.000000
# 4 0.000000 0.000000 0.000000 0.030272 0.000000 0.000000
# 5 0.000000 0.000000 0.000000 0.000000 0.030272 0.000000
# 6 0.000000 0.000000 0.000000 0.000000 0.000000 0.040644
#
#
# Mechanical properties :
#
#
# Convention : Reuss Voigt Hill
#
# Bulk Modulus (GPa) = 56.49088 62.76978 59.63033
# Shear Modulus (GPa) = 25.42515 27.10861 26.26688
#
# Velocity S-wave (km/s) = 3.74299 3.86492 3.80445
# Velocity P-wave (km/s) = 7.05749 7.38274 7.22194
#
# Compressibility (1/GPa) = 0.01770197
#
# Stress axis : x y z
#
# Youngs Moduli (GPa) = 53.78471 53.78471 60.79315
#
# Poissons Ratio (x) = 0.09300 0.49355
# Poissons Ratio (y) = 0.09300 0.49355
# Poissons Ratio (z) = 0.43665 0.43665
#
# Static dielectric constant tensor:
#      x y z
#    x 3.237600 0.000000 0.000000 
#    y 0.000000 3.237600 0.000000 
#    z 0.000000 0.000000 3.471660 
# 
# 
# High freq. dielectric constant tensor:
#      x y z
#    x 1.683760 0.000000 0.000000 
#    y 0.000000 1.683760 0.000000 
#    z 0.000000 0.000000 1.720350 
# 
# From -- ./inp_files/1692.got.cif
#   From: 2010.03.12/outbox.cif.g09.slc.cpg/sg170_cif.got.tgz:1692.got - 2010.04.02 06:47:37.
