data_PCOD8324388
_publ_section_title
;
Structure prediction by ZEFSAII (Michael W. Deem and Ramdas Pophale) SiO2 
 PCOD8324388
Probable space group: R -3 C 
;
_chemical_formula_sum "Si O2"
_cell_formula_units_Z 126
_cell_length_a 20.305256
_cell_length_b 20.305256
_cell_length_c 16.269621
_cell_angle_alpha 90.000000
_cell_angle_beta 90.000000
_cell_angle_gamma 120.000000
_cell_volume 5809.316076
_symmetry_space_group_name_H-M "R -3 C "
_symmetry_group_IT_number 167
_symmetry_cell_setting 'hexagonal'
loop_
_space_group_symop_operation_xyz
x,y,z
-y,x-y,z
-x+y,-x,z
x-y,-y,1/2-z
-x,-x+y,1/2-z
y,x,1/2-z
-x,-y,-z
y,-x+y,-z
x-y,x,-z
-x+y,y,1/2+z
x,x-y,1/2+z
-y,-x,1/2+z
2/3+x,1/3+y,1/3+z
2/3-y,1/3+x-y,1/3+z
2/3-x+y,1/3-x,1/3+z
2/3+x-y,1/3-y,5/6-z
2/3-x,1/3-x+y,5/6-z
2/3+y,1/3+x,5/6-z
2/3-x,1/3-y,1/3-z
2/3+y,1/3-x+y,1/3-z
2/3+x-y,1/3+x,1/3-z
2/3-x+y,1/3+y,5/6+z
2/3+x,1/3+x-y,5/6+z
2/3-y,1/3-x,5/6+z
1/3+x,2/3+y,2/3+z
1/3-y,2/3+x-y,2/3+z
1/3-x+y,2/3-x,2/3+z
1/3+x-y,2/3-y,1/6-z
1/3-x,2/3-x+y,1/6-z
1/3+y,2/3+x,1/6-z
1/3-x,2/3-y,2/3-z
1/3+y,2/3-x+y,2/3-z
1/3+x-y,2/3+x,2/3-z
1/3-x+y,2/3+y,1/6+z
1/3+x,2/3+x-y,1/6+z
1/3-y,2/3-x,1/6+z
loop_
_atom_site_type_symbol
_atom_site_label
_atom_site_fract_x
_atom_site_fract_y
_atom_site_fract_z
Si Si1 0.198925 0.697177 0.155798
Si Si2 0.666667 0.562934 0.583334
Si Si3 0.944527 0.247895 0.093820
Si Si4 0.733235 0.860883 0.647571
O O1 0.282402 0.757398 0.187756
O O2 0.138136 0.692328 0.221320
O O3 0.180588 0.719540 0.067137
O O4 0.606174 0.572799 0.526792
O O5 0.612117 0.497362 0.647253
O O6 0.011122 0.333334 0.083334
O O7 0.865528 0.231838 0.055348
O O8 0.666667 0.849778 0.583334
#
# Coordination Sequence:
#
# PCOD8324388 Si02
#       4
#    36  18  36  36
#     4  11  24  47  74  98 141 191 240 287 352 433
#     4  12  22  42  68 104 140 188 232 298 360 416
#     4  11  26  42  72 105 142 180 233 300 360 419
#     4  10  24  43  66 105 142 186 236 291 355 422
#
# _framework density 21.689301
#
# number of rings (size 3 to 8) (size 9 to 14) (size 15 to 20)
#    0.000    1.143    2.857    2.000   10.000    2.286 
#    0.000    0.000    0.000    0.000    0.000    0.000 
#    0.000    0.000    0.000    0.000    0.000    0.000 
#
# Total GULP energy -520500.451674 kJ/mol
# GULP energy per Si atom -12392.867897 kJ/mol
# Density = 2.163993 g / cm^3
# Si number density = 21.689301 Si / 1000 Ang^3
#
#
#
# Elastic Constant Matrix: (Units=GPa)
#
#
# Indices 1 2 3 4 5 6 
#
# 1 131.5825 64.2207 52.9606 -5.5086 0.0001 0.0000
# 2 64.2207 131.5825 52.9606 5.5086 -0.0001 0.0000
# 3 52.9606 52.9606 160.0746 0.0000 0.0000 0.0000
# 4 -5.5086 5.5086 0.0000 36.8383 0.0000 -0.0001
# 5 0.0001 -0.0001 0.0000 0.0000 36.8383 -5.5086
# 6 0.0000 0.0000 0.0000 -0.0001 -5.5086 33.6809
#
#
#
# Elastic Compliance Matrix: (Units=1/GPa)
#
#
# Indices 1 2 3 4 5 6 
#
# 1 0.010719 -0.004498 -0.002058 0.002276 0.000000 0.000000
# 2 -0.004498 0.010719 -0.002058 -0.002276 0.000000 0.000000
# 3 -0.002058 -0.002058 0.007609 0.000000 0.000000 0.000000
# 4 0.002276 -0.002276 0.000000 0.027826 0.000000 0.000000
# 5 0.000000 0.000000 0.000000 0.000000 0.027826 0.004551
# 6 0.000000 0.000000 0.000000 0.000000 0.004551 0.030435
#
#
# Mechanical properties :
#
#
# Convention : Reuss Voigt Hill
#
# Bulk Modulus (GPa) = 84.61892 84.83590 84.72741
# Shear Modulus (GPa) = 36.68319 38.34467 37.51393
#
# Velocity S-wave (km/s) = 4.11701 4.20921 4.16336
# Velocity P-wave (km/s) = 7.85484 7.92606 7.89053
#
# Compressibility (1/GPa) = 0.01181769
#
# Stress axis : x y z
#
# Youngs Moduli (GPa) = 93.29291 93.29291 131.42524
#
# Poissons Ratio (x) = 0.41967 0.27048
# Poissons Ratio (y) = 0.41967 0.27048
# Poissons Ratio (z) = 0.19200 0.19200
#
# Static dielectric constant tensor:
#      x y z
#    x 3.840120 0.000000 0.000000 
#    y 0.000000 3.840120 0.000000 
#    z 0.000000 0.000000 4.349390 
# 
# 
# High freq. dielectric constant tensor:
#      x y z
#    x 1.845760 0.000000 0.000000 
#    y 0.000000 1.845760 0.000000 
#    z 0.000000 0.000000 1.870640 
# 
# From -- ./inp_files/3061.got.cif
#   From: 2010.03.12/outbox.cif.g09.slc.cpg/sg167_2_cif.got.tgz:3061.got - 2010.04.02 06:42:56.
