data_PCOD8324644
_publ_section_title
;
Structure prediction by ZEFSAII (Michael W. Deem and Ramdas Pophale) SiO2 
 PCOD8324644
Probable space group: P 65
;
_chemical_formula_sum "Si O2"
_cell_formula_units_Z 30
_cell_length_a 13.259397
_cell_length_b 13.259397
_cell_length_c 8.236429
_cell_angle_alpha 90.000000
_cell_angle_beta 90.000000
_cell_angle_gamma 120.000000
_cell_volume 1254.056602
_symmetry_space_group_name_H-M "P 65"
_symmetry_group_IT_number 170
_symmetry_cell_setting 'hexagonal'
loop_
_space_group_symop_operation_xyz
x,y,z
x-y,x,5/6+z
-y,x-y,2/3+z
-x,-y,1/2+z
-x+y,-x,1/3+z
y,-x+y,1/6+z
loop_
_atom_site_type_symbol
_atom_site_label
_atom_site_fract_x
_atom_site_fract_y
_atom_site_fract_z
Si Si1 0.634347 0.564910 0.680080
Si Si2 0.601914 0.325353 0.326263
Si Si3 0.040185 0.601868 0.156997
Si Si4 0.776186 0.939694 0.441513
Si Si5 0.208107 0.187338 0.259731
O O1 0.727919 0.522163 0.653901
O O2 0.516319 0.453358 0.745726
O O3 0.610067 0.606008 0.507142
O O4 0.688687 0.680058 0.792713
O O5 0.675626 0.336286 0.164429
O O6 0.580571 0.432476 0.317962
O O7 0.062110 0.718127 0.063709
O O8 0.806595 0.879955 0.293791
O O9 0.761477 0.867121 0.604863
O O10 0.191023 0.102799 0.409001
#
# Coordination Sequence:
#
# PCOD8324644 Si02
#       5
#     6   6   6   6   6
#     4  11  23  41  66 101 133 180 229 280 354 417
#     4  10  25  42  68  97 142 179 230 284 353 416
#     4  11  24  39  70  98 134 179 226 286 344 418
#     4  10  21  40  72  95 128 178 229 278 353 418
#     4  10  19  38  72  93 131 180 230 278 346 417
#
# _framework density 23.922363000000001
#
# number of rings (size 3 to 8) (size 9 to 14) (size 15 to 20)
#    0.000    1.600    4.000    1.200    8.400    0.000 
#    0.000    0.000   70.400    0.000    0.000    0.000 
#    0.000    0.000    0.000    0.000    0.000    0.000 
#
# Total GULP energy -371936.937669 kJ/mol
# GULP energy per Si atom -12397.897922 kJ/mol
# Density = 2.386791 g / cm^3
# Si number density = 23.922363 Si / 1000 Ang^3
#
#
#
# Elastic Constant Matrix: (Units=GPa)
#
#
# Indices 1 2 3 4 5 6 
#
# 1 150.3413 67.0191 16.9933 0.0000 0.0000 0.0000
# 2 67.0191 150.3413 16.9933 0.0000 0.0000 0.0000
# 3 16.9933 16.9933 69.8225 0.0000 0.0000 0.0000
# 4 0.0000 0.0000 0.0000 20.8722 0.0000 0.0000
# 5 0.0000 0.0000 0.0000 0.0000 20.8722 0.0000
# 6 0.0000 0.0000 0.0000 0.0000 0.0000 41.6611
#
#
#
# Elastic Compliance Matrix: (Units=1/GPa)
#
#
# Indices 1 2 3 4 5 6 
#
# 1 0.008392 -0.003609 -0.001164 0.000000 0.000000 0.000000
# 2 -0.003609 0.008392 -0.001164 0.000000 0.000000 0.000000
# 3 -0.001164 -0.001164 0.014889 0.000000 0.000000 0.000000
# 4 0.000000 0.000000 0.000000 0.047911 0.000000 0.000000
# 5 0.000000 0.000000 0.000000 0.000000 0.047911 0.000000
# 6 0.000000 0.000000 0.000000 0.000000 0.000000 0.024003
#
#
# Mechanical properties :
#
#
# Convention : Reuss Voigt Hill
#
# Bulk Modulus (GPa) = 50.51028 63.61295 57.06162
# Shear Modulus (GPa) = 29.41669 34.64773 32.03221
#
# Velocity S-wave (km/s) = 3.51047 3.80984 3.66321
# Velocity P-wave (km/s) = 6.13118 6.78250 6.46504
#
# Compressibility (1/GPa) = 0.01979795
#
# Stress axis : x y z
#
# Youngs Moduli (GPa) = 119.15927 119.15927 67.16539
#
# Poissons Ratio (x) = 0.43010 0.07818
# Poissons Ratio (y) = 0.43010 0.07818
# Poissons Ratio (z) = 0.13870 0.13870
#
# Static dielectric constant tensor:
#      x y z
#    x 4.388530 0.000000 0.000000 
#    y 0.000000 4.388530 0.000000 
#    z 0.000000 0.000000 4.223470 
# 
# 
# High freq. dielectric constant tensor:
#      x y z
#    x 1.955270 0.000000 0.000000 
#    y 0.000000 1.955270 0.000000 
#    z 0.000000 0.000000 1.917630 
# 
# From -- ./inp_files/544.got.cif
#   From: 2010.03.12/outbox.cif.g09.slc.cpg/sg170_cif.got.tgz:544.got - 2010.04.02 06:47:37.
