data_PCOD8324525
_publ_section_title
;
Structure prediction by ZEFSAII (Michael W. Deem and Ramdas Pophale) SiO2 
 PCOD8324525
Probable space group: P 61
;
_chemical_formula_sum "Si O2"
_cell_formula_units_Z 24
_cell_length_a 8.588998
_cell_length_b 8.588998
_cell_length_c 14.490027
_cell_angle_alpha 90.000000
_cell_angle_beta 90.000000
_cell_angle_gamma 120.000000
_cell_volume 925.731048
_symmetry_space_group_name_H-M "P 61"
_symmetry_group_IT_number 169
_symmetry_cell_setting 'hexagonal'
loop_
_space_group_symop_operation_xyz
x,y,z
x-y,x,1/6+z
-y,x-y,1/3+z
-x,-y,1/2+z
-x+y,-x,2/3+z
y,-x+y,5/6+z
loop_
_atom_site_type_symbol
_atom_site_label
_atom_site_fract_x
_atom_site_fract_y
_atom_site_fract_z
Si Si1 0.131663 0.882036 0.940590
Si Si2 0.131663 0.249627 0.742088
Si Si3 0.582771 0.462120 0.570684
Si Si4 0.462120 0.582770 0.278661
O O1 0.058316 0.679071 0.978542
O O2 0.005492 0.877588 0.856558
O O3 0.332896 0.958793 0.899384
O O4 0.127904 0.122412 0.659453
O O5 0.058317 0.379246 0.704137
O O6 0.332896 0.374104 0.783295
O O7 0.717420 0.434840 0.508006
O O8 0.595219 0.404782 0.674673
#
# Coordination Sequence:
#
# PCOD8324525 Si02
#       4
#     6   6   6   6
#     4  10  22  43  78 115 152 200 255 315 384 460
#     4  10  22  43  78 115 152 200 255 315 384 460
#     4  10  21  40  72 109 149 195 245 310 381 450
#     4  10  21  40  72 109 149 195 245 310 381 450
#
# _framework density 25.925459
#
# number of rings (size 3 to 8) (size 9 to 14) (size 15 to 20)
#    0.000    2.000    0.000    4.500    0.000    8.000 
#    0.000    0.000    0.000  168.000    0.000    0.000 
#    0.000    0.000    0.000    0.000    0.000    0.000 
#
# Total GULP energy -297461.761102 kJ/mol
# GULP energy per Si atom -12394.240046 kJ/mol
# Density = 2.586645 g / cm^3
# Si number density = 25.925459 Si / 1000 Ang^3
#
#
#
# Elastic Constant Matrix: (Units=GPa)
#
#
# Indices 1 2 3 4 5 6 
#
# 1 150.0990 41.4876 76.1453 0.0000 0.0000 0.0000
# 2 41.4876 150.0990 76.1453 0.0000 0.0000 0.0000
# 3 76.1453 76.1453 155.3319 0.0000 0.0000 0.0000
# 4 0.0000 0.0000 0.0000 55.5969 0.0000 0.0000
# 5 0.0000 0.0000 0.0000 0.0000 55.5969 0.0000
# 6 0.0000 0.0000 0.0000 0.0000 0.0000 54.3057
#
#
#
# Elastic Compliance Matrix: (Units=1/GPa)
#
#
# Indices 1 2 3 4 5 6 
#
# 1 0.008880 -0.000328 -0.004192 0.000000 0.000000 0.000000
# 2 -0.000328 0.008880 -0.004192 0.000000 0.000000 0.000000
# 3 -0.004192 -0.004192 0.010548 0.000000 0.000000 0.000000
# 4 0.000000 0.000000 0.000000 0.017987 0.000000 0.000000
# 5 0.000000 0.000000 0.000000 0.000000 0.017987 0.000000
# 6 0.000000 0.000000 0.000000 0.000000 0.000000 0.018414
#
#
# Mechanical properties :
#
#
# Convention : Reuss Voigt Hill
#
# Bulk Modulus (GPa) = 91.88735 93.67626 92.78180
# Shear Modulus (GPa) = 48.19442 50.55003 49.37222
#
# Velocity S-wave (km/s) = 4.31624 4.42047 4.36867
# Velocity P-wave (km/s) = 7.76916 7.89084 7.83024
#
# Compressibility (1/GPa) = 0.01088289
#
# Stress axis : x y z
#
# Youngs Moduli (GPa) = 112.61829 112.61829 94.80453
#
# Poissons Ratio (x) = 0.03689 0.39745
# Poissons Ratio (y) = 0.03689 0.39745
# Poissons Ratio (z) = 0.47213 0.47213
#
# Static dielectric constant tensor:
#      x y z
#    x 4.985240 0.000000 0.000000 
#    y 0.000000 4.985240 0.000000 
#    z 0.000000 0.000000 4.626850 
# 
# 
# High freq. dielectric constant tensor:
#      x y z
#    x 2.049080 0.000000 0.000000 
#    y 0.000000 2.049080 0.000000 
#    z 0.000000 0.000000 2.033540 
# 
# From -- ./inp_files/1286.got.cif
#   From: 2010.03.12/outbox.cif.g09.slc.cpg/sg169_cif.got.tgz:1286.got - 2010.04.02 06:46:06.
