data_PCOD8324287
_publ_section_title
;
Structure prediction by ZEFSAII (Michael W. Deem and Ramdas Pophale) SiO2 
 PCOD8324287
Probable space group: R -3 C 
;
_chemical_formula_sum "Si O2"
_cell_formula_units_Z 216
_cell_length_a 28.784796
_cell_length_b 28.784796
_cell_length_c 19.605120
_cell_angle_alpha 90.000000
_cell_angle_beta 90.000000
_cell_angle_gamma 120.000000
_cell_volume 14067.808521
_symmetry_space_group_name_H-M "R -3 C "
_symmetry_group_IT_number 167
_symmetry_cell_setting 'hexagonal'
loop_
_space_group_symop_operation_xyz
x,y,z
-y,x-y,z
-x+y,-x,z
x-y,-y,1/2-z
-x,-x+y,1/2-z
y,x,1/2-z
-x,-y,-z
y,-x+y,-z
x-y,x,-z
-x+y,y,1/2+z
x,x-y,1/2+z
-y,-x,1/2+z
2/3+x,1/3+y,1/3+z
2/3-y,1/3+x-y,1/3+z
2/3-x+y,1/3-x,1/3+z
2/3+x-y,1/3-y,5/6-z
2/3-x,1/3-x+y,5/6-z
2/3+y,1/3+x,5/6-z
2/3-x,1/3-y,1/3-z
2/3+y,1/3-x+y,1/3-z
2/3+x-y,1/3+x,1/3-z
2/3-x+y,1/3+y,5/6+z
2/3+x,1/3+x-y,5/6+z
2/3-y,1/3-x,5/6+z
1/3+x,2/3+y,2/3+z
1/3-y,2/3+x-y,2/3+z
1/3-x+y,2/3-x,2/3+z
1/3+x-y,2/3-y,1/6-z
1/3-x,2/3-x+y,1/6-z
1/3+y,2/3+x,1/6-z
1/3-x,2/3-y,2/3-z
1/3+y,2/3-x+y,2/3-z
1/3+x-y,2/3+x,2/3-z
1/3-x+y,2/3+y,1/6+z
1/3+x,2/3+x-y,1/6+z
1/3-y,2/3-x,1/6+z
loop_
_atom_site_type_symbol
_atom_site_label
_atom_site_fract_x
_atom_site_fract_y
_atom_site_fract_z
Si Si1 0.231147 0.262231 0.936917
Si Si2 0.263813 0.131873 0.615607
Si Si3 0.284789 0.242789 0.809100
Si Si4 0.366143 0.267714 0.483560
Si Si5 0.968501 0.741678 0.063369
Si Si6 0.807888 0.614162 0.068590
O O1 0.171055 0.243040 0.910961
O O2 0.267493 0.254903 0.881228
O O3 0.265352 0.324660 0.959451
O O4 0.220177 0.224300 0.002213
O O5 0.238709 0.073714 0.580099
O O6 0.326045 0.159949 0.597662
O O7 0.247039 0.119520 0.695100
O O8 0.255049 0.255049 0.750000
O O9 0.348253 0.277314 0.798328
O O10 0.265646 0.179958 0.805766
O O11 0.333334 0.234775 0.416667
O O12 0.409352 0.328841 0.463440
O O13 0.397136 0.239513 0.516159
#
# Coordination Sequence:
#
# PCOD8324287 Si02
#       6
#    36  36  36  36  36  36
#     4  10  19  32  47  65  91 118 155 203 224 266
#     4   9  18  33  44  63  90 122 150 188 240 274
#     4  11  19  30  46  68  87 119 163 192 225 265
#     4   9  19  34  43  66  91 117 155 198 231 263
#     4  10  21  31  46  68  89 121 161 194 229 268
#     4   9  18  31  47  60  90 123 150 190 235 275
#
# _framework density 15.354203
#
# number of rings (size 3 to 8) (size 9 to 14) (size 15 to 20)
#    0.000    2.333    1.667    2.000    2.333    6.000 
#    3.000    0.000    0.000    0.000    0.000    0.000 
#    0.000    0.000    0.000    9.000    7.333    0.000 
#
# Total GULP energy -892293.369011 kJ/mol
# GULP energy per Si atom -12392.963458 kJ/mol
# Density = 1.531926 g / cm^3
# Si number density = 15.354203 Si / 1000 Ang^3
#
#
#
# Elastic Constant Matrix: (Units=GPa)
#
#
# Indices 1 2 3 4 5 6 
#
# 1 69.4284 40.3273 43.5660 -0.3164 -0.0002 0.0000
# 2 40.3273 69.4284 43.5660 0.3164 0.0002 0.0000
# 3 43.5660 43.5660 92.5681 0.0000 0.0000 0.0000
# 4 -0.3164 0.3164 0.0000 17.8255 0.0000 0.0002
# 5 -0.0002 0.0002 0.0000 0.0000 17.8255 -0.3164
# 6 0.0000 0.0000 0.0000 0.0002 -0.3164 14.5506
#
#
#
# Elastic Compliance Matrix: (Units=1/GPa)
#
#
# Indices 1 2 3 4 5 6 
#
# 1 0.024461 -0.009915 -0.006846 0.000610 0.000000 0.000000
# 2 -0.009915 0.024461 -0.006846 -0.000610 0.000000 0.000000
# 3 -0.006846 -0.006846 0.017247 0.000000 0.000000 0.000000
# 4 0.000610 -0.000610 0.000000 0.056121 0.000000 -0.000001
# 5 0.000000 0.000000 0.000000 0.000000 0.056121 0.001220
# 6 0.000000 0.000000 0.000000 -0.000001 0.001220 0.068752
#
#
# Mechanical properties :
#
#
# Convention : Reuss Voigt Hill
#
# Bulk Modulus (GPa) = 52.75632 54.03817 53.39724
# Shear Modulus (GPa) = 16.62814 16.97136 16.79975
#
# Velocity S-wave (km/s) = 3.29442 3.32825 3.31138
# Velocity P-wave (km/s) = 6.99322 7.07393 7.03369
#
# Compressibility (1/GPa) = 0.01895508
#
# Stress axis : x y z
#
# Youngs Moduli (GPa) = 40.88140 40.88140 57.98218
#
# Poissons Ratio (x) = 0.40534 0.39694
# Poissons Ratio (y) = 0.40534 0.39694
# Poissons Ratio (z) = 0.27987 0.27987
#
# Static dielectric constant tensor:
#      x y z
#    x 2.880880 0.000000 0.000000 
#    y 0.000000 2.880880 0.000000 
#    z 0.000000 0.000000 3.244260 
# 
# 
# High freq. dielectric constant tensor:
#      x y z
#    x 1.554780 0.000000 0.000000 
#    y 0.000000 1.554780 0.000000 
#    z 0.000000 0.000000 1.610820 
# 
# From -- ./inp_files/4644.got.cif
#   From: 2010.03.12/outbox.cif.g09.slc.cpg/sg167_3_cif.got.tgz:4644.got - 2010.04.02 06:42:56.
