data_PCOD8324898
_publ_section_title
;
Structure prediction by ZEFSAII (Michael W. Deem and Ramdas Pophale) SiO2 
 PCOD8324898
Probable space group: P -6
;
_chemical_formula_sum "Si O2"
_cell_formula_units_Z 32
_cell_length_a 16.299928
_cell_length_b 16.299928
_cell_length_c 9.025497
_cell_angle_alpha 90.000000
_cell_angle_beta 90.000000
_cell_angle_gamma 120.000000
_cell_volume 2076.696973
_symmetry_space_group_name_H-M "P -6"
_symmetry_group_IT_number 174
_symmetry_cell_setting 'hexagonal'
loop_
_space_group_symop_operation_xyz
x,y,z
-x+y,-x,-z
-y,x-y,z
x,y,-z
-x+y,-x,z
-y,x-y,-z
loop_
_atom_site_type_symbol
_atom_site_label
_atom_site_fract_x
_atom_site_fract_y
_atom_site_fract_z
Si Si1 0.836522 0.501306 0.826027
Si Si2 0.663948 0.500798 0.674090
Si Si3 0.282277 0.230325 0.828085
Si Si4 0.099093 0.885118 0.672906
Si Si5 0.000000 0.000000 0.324578
Si Si6 0.777461 0.715550 0.671124
O O1 0.739583 0.476657 0.744431
O O2 0.874370 0.436056 0.755325
O O3 0.917242 0.609062 0.794967
O O4 0.815997 0.481013 0.000000
O O5 0.655396 0.478256 0.500000
O O6 0.693831 0.609687 0.705960
O O7 0.215514 0.267498 0.757295
O O8 0.257822 0.129419 0.761721
O O9 0.261340 0.215452 0.000000
O O10 0.082571 0.862654 0.500000
O O11 0.211152 0.951640 0.709709
O O12 0.047523 0.940732 0.733661
O O13 0.000000 0.000000 0.500000
O O14 0.808569 0.726892 0.500000
#
# Coordination Sequence:
#
# PCOD8324898 Si02
#       6
#     6   6   6   6   2   6
#     4  10  20  33  46  62  90 122 147 177 225 269
#     4  10  19  31  48  68  87 111 151 191 219 257
#     4  10  20  30  42  64  90 117 150 184 213 253
#     4  10  17  29  45  62  88 121 151 176 212 257
#     4   9  15  24  43  62  82 120 154 170 202 252
#     4   9  18  31  46  64  87 117 149 182 219 260
#
# _framework density 15.409084999999999
#
# number of rings (size 3 to 8) (size 9 to 14) (size 15 to 20)
#    0.000    2.250    1.875    2.062    0.000    3.750 
#    0.000    0.000    0.000    0.000    0.000    0.000 
#    1.875    0.000    1.125    0.000    1.500    0.000 
#
# Total GULP energy -396764.713375 kJ/mol
# GULP energy per Si atom -12398.897293 kJ/mol
# Density = 1.537401 g / cm^3
# Si number density = 15.409085 Si / 1000 Ang^3
#
#
#
# Elastic Constant Matrix: (Units=GPa)
#
#
# Indices 1 2 3 4 5 6 
#
# 1 97.9559 49.3103 48.6993 0.0000 0.0000 0.0000
# 2 49.3103 97.9559 48.6993 0.0000 0.0000 0.0000
# 3 48.6993 48.6993 79.6538 0.0000 0.0000 0.0000
# 4 0.0000 0.0000 0.0000 22.7207 0.0000 0.0000
# 5 0.0000 0.0000 0.0000 0.0000 22.7207 0.0000
# 6 0.0000 0.0000 0.0000 0.0000 0.0000 24.3228
#
#
#
# Elastic Compliance Matrix: (Units=1/GPa)
#
#
# Indices 1 2 3 4 5 6 
#
# 1 0.015979 -0.004578 -0.006970 0.000000 0.000000 0.000000
# 2 -0.004578 0.015979 -0.006970 0.000000 0.000000 0.000000
# 3 -0.006970 -0.006970 0.021077 0.000000 0.000000 0.000000
# 4 0.000000 0.000000 0.000000 0.044013 0.000000 0.000000
# 5 0.000000 0.000000 0.000000 0.000000 0.044013 0.000000
# 6 0.000000 0.000000 0.000000 0.000000 0.000000 0.041114
#
#
# Mechanical properties :
#
#
# Convention : Reuss Voigt Hill
#
# Bulk Modulus (GPa) = 62.50924 63.22039 62.86481
# Shear Modulus (GPa) = 22.26756 22.54330 22.40543
#
# Velocity S-wave (km/s) = 3.80556 3.82905 3.81732
# Velocity P-wave (km/s) = 7.74366 7.78883 7.76628
#
# Compressibility (1/GPa) = 0.01599764
#
# Stress axis : x y z
#
# Youngs Moduli (GPa) = 62.58403 62.58403 47.44508
#
# Poissons Ratio (x) = 0.28653 0.33069
# Poissons Ratio (y) = 0.28653 0.33069
# Poissons Ratio (z) = 0.43621 0.43621
#
# Static dielectric constant tensor:
#      x y z
#    x 2.931270 0.000000 0.000000 
#    y 0.000000 2.931270 0.000000 
#    z 0.000000 0.000000 2.981920 
# 
# 
# High freq. dielectric constant tensor:
#      x y z
#    x 1.571520 0.000000 0.000000 
#    y 0.000000 1.571520 0.000000 
#    z 0.000000 0.000000 1.597370 
# 
# From -- ./inp_files/345.got.cif
#   From: 2010.03.12/outbox.cif.g09.slc.cpg/sg174_cif.got.tgz:345.got - 2010.04.02 06:54:58.
