data_PCOD8324132
_publ_section_title
;
Structure prediction by ZEFSAII (Michael W. Deem and Ramdas Pophale) SiO2 
 PCOD8324132
Probable space group: R -3 M
;
_chemical_formula_sum "Si O2"
_cell_formula_units_Z 90
_cell_length_a 13.144841
_cell_length_b 13.144841
_cell_length_c 37.252388
_cell_angle_alpha 90.000000
_cell_angle_beta 90.000000
_cell_angle_gamma 120.000000
_cell_volume 5574.365278
_symmetry_space_group_name_H-M "R -3 M"
_symmetry_group_IT_number 166
_symmetry_cell_setting 'hexagonal'
loop_
_space_group_symop_operation_xyz
x,y,z
-y,x-y,z
-x+y,-x,z
x-y,-y,-z
-x,-x+y,-z
y,x,-z
-x,-y,-z
y,-x+y,-z
x-y,x,-z
-x+y,y,z
x,x-y,z
-y,-x,z
2/3+x,1/3+y,1/3+z
2/3-y,1/3+x-y,1/3+z
2/3-x+y,1/3-x,1/3+z
2/3+x-y,1/3-y,1/3-z
2/3-x,1/3-x+y,1/3-z
2/3+y,1/3+x,1/3-z
2/3-x,1/3-y,1/3-z
2/3+y,1/3-x+y,1/3-z
2/3+x-y,1/3+x,1/3-z
2/3-x+y,1/3+y,1/3+z
2/3+x,1/3+x-y,1/3+z
2/3-y,1/3-x,1/3+z
1/3+x,2/3+y,2/3+z
1/3-y,2/3+x-y,2/3+z
1/3-x+y,2/3-x,2/3+z
1/3+x-y,2/3-y,2/3-z
1/3-x,2/3-x+y,2/3-z
1/3+y,2/3+x,2/3-z
1/3-x,2/3-y,2/3-z
1/3+y,2/3-x+y,2/3-z
1/3+x-y,2/3+x,2/3-z
1/3-x+y,2/3+y,2/3+z
1/3+x,2/3+x-y,2/3+z
1/3-y,2/3-x,2/3+z
loop_
_atom_site_type_symbol
_atom_site_label
_atom_site_fract_x
_atom_site_fract_y
_atom_site_fract_z
Si Si1 0.760524 0.760524 0.500000
Si Si2 0.765044 0.999272 0.693145
Si Si3 0.099081 0.666867 0.441915
O O1 0.775367 0.887684 0.506557
O O2 0.696018 0.680950 0.534503
O O3 0.894486 0.105515 0.685796
O O4 0.672505 0.005839 0.666667
O O5 0.765991 0.882996 0.682839
O O6 0.726652 0.997919 0.734222
O O7 0.084324 0.542162 0.453398
O O8 0.235143 0.764858 0.447407
#
# Coordination Sequence:
#
# PCOD8324132 Si02
#       3
#    18  36  36
#     4  10  20  32  46  66  94 124 150 178 218 270
#     4   9  17  29  46  68  92 118 149 186 226 265
#     4   9  17  30  48  68  89 115 150 191 229 262
#
# _framework density 16.145334999999999
#
# number of rings (size 3 to 8) (size 9 to 14) (size 15 to 20)
#    0.000    2.800    0.000    1.600    0.000    4.800 
#    0.000    0.000    0.000    6.000    0.000    0.000 
#    0.000    0.000    0.000    0.000    0.000    0.000 
#
# Total GULP energy -372007.199551 kJ/mol
# GULP energy per Si atom -12400.239985 kJ/mol
# Density = 1.610859 g / cm^3
# Si number density = 16.145335 Si / 1000 Ang^3
#
#
#
# Elastic Constant Matrix: (Units=GPa)
#
#
# Indices 1 2 3 4 5 6 
#
# 1 109.0971 59.1353 65.7530 -1.0747 -0.0001 0.0000
# 2 59.1353 109.0971 65.7530 1.0747 0.0001 0.0000
# 3 65.7530 65.7530 93.4764 0.0000 0.0000 0.0000
# 4 -1.0747 1.0747 0.0000 27.8484 0.0000 0.0001
# 5 -0.0001 0.0001 0.0000 0.0000 27.8484 -1.0747
# 6 0.0000 0.0000 0.0000 0.0001 -1.0747 24.9809
#
#
#
# Elastic Compliance Matrix: (Units=1/GPa)
#
#
# Indices 1 2 3 4 5 6 
#
# 1 0.016627 -0.003422 -0.009289 0.000774 0.000000 0.000000
# 2 -0.003422 0.016627 -0.009289 -0.000774 0.000000 0.000000
# 3 -0.009289 -0.009289 0.023766 0.000000 0.000000 0.000000
# 4 0.000774 -0.000774 0.000000 0.035968 0.000000 0.000000
# 5 0.000000 0.000000 0.000000 0.000000 0.035968 0.001547
# 6 0.000000 0.000000 0.000000 0.000000 0.001547 0.040097
#
#
# Mechanical properties :
#
#
# Convention : Reuss Voigt Hill
#
# Bulk Modulus (GPa) = 76.79937 76.99478 76.89707
# Shear Modulus (GPa) = 22.99998 24.20418 23.60208
#
# Velocity S-wave (km/s) = 3.77843 3.87608 3.82756
# Velocity P-wave (km/s) = 8.16738 8.23554 8.20153
#
# Compressibility (1/GPa) = 0.01302094
#
# Stress axis : x y z
#
# Youngs Moduli (GPa) = 60.14387 60.14387 42.07777
#
# Poissons Ratio (x) = 0.20580 0.39085
# Poissons Ratio (y) = 0.20580 0.39085
# Poissons Ratio (z) = 0.55866 0.55866
#
# Static dielectric constant tensor:
#      x y z
#    x 3.011440 0.000000 0.000000 
#    y 0.000000 3.011440 0.000000 
#    z 0.000000 0.000000 3.172950 
# 
# 
# High freq. dielectric constant tensor:
#      x y z
#    x 1.615420 0.000000 0.000000 
#    y 0.000000 1.615420 0.000000 
#    z 0.000000 0.000000 1.625890 
# 
# From -- ./inp_files/8999.got.cif
#   From: 2010.03.12/outbox.cif.g09.slc.cpg/sg166_5_cif.got.tgz:8999.got - 2010.04.02 06:38:31.
