data_PCOD8324042
_publ_section_title
;
Structure prediction by ZEFSAII (Michael W. Deem and Ramdas Pophale) SiO2 
 PCOD8324042
Probable space group: R -3 M
;
_chemical_formula_sum "Si O2"
_cell_formula_units_Z 234
_cell_length_a 27.060592
_cell_length_b 27.060592
_cell_length_c 22.522928
_cell_angle_alpha 90.000000
_cell_angle_beta 90.000000
_cell_angle_gamma 120.000000
_cell_volume 14283.349625
_symmetry_space_group_name_H-M "R -3 M"
_symmetry_group_IT_number 166
_symmetry_cell_setting 'hexagonal'
loop_
_space_group_symop_operation_xyz
x,y,z
-y,x-y,z
-x+y,-x,z
x-y,-y,-z
-x,-x+y,-z
y,x,-z
-x,-y,-z
y,-x+y,-z
x-y,x,-z
-x+y,y,z
x,x-y,z
-y,-x,z
2/3+x,1/3+y,1/3+z
2/3-y,1/3+x-y,1/3+z
2/3-x+y,1/3-x,1/3+z
2/3+x-y,1/3-y,1/3-z
2/3-x,1/3-x+y,1/3-z
2/3+y,1/3+x,1/3-z
2/3-x,1/3-y,1/3-z
2/3+y,1/3-x+y,1/3-z
2/3+x-y,1/3+x,1/3-z
2/3-x+y,1/3+y,1/3+z
2/3+x,1/3+x-y,1/3+z
2/3-y,1/3-x,1/3+z
1/3+x,2/3+y,2/3+z
1/3-y,2/3+x-y,2/3+z
1/3-x+y,2/3-x,2/3+z
1/3+x-y,2/3-y,2/3-z
1/3-x,2/3-x+y,2/3-z
1/3+y,2/3+x,2/3-z
1/3-x,2/3-y,2/3-z
1/3+y,2/3-x+y,2/3-z
1/3+x-y,2/3+x,2/3-z
1/3-x+y,2/3+y,2/3+z
1/3+x,2/3+x-y,2/3+z
1/3-y,2/3-x,2/3+z
loop_
_atom_site_type_symbol
_atom_site_label
_atom_site_fract_x
_atom_site_fract_y
_atom_site_fract_z
Si Si1 0.649757 0.769518 0.039787
Si Si2 0.024608 0.357941 0.666667
Si Si3 0.782002 0.448208 0.665598
Si Si4 0.228314 0.059346 0.270937
Si Si5 0.181978 0.703902 0.220017
Si Si6 0.358698 0.235993 0.822392
Si Si7 0.953723 0.333601 0.116281
O O1 0.675935 0.837968 0.031618
O O2 0.696782 0.752129 0.018501
O O3 0.630180 0.751404 0.107403
O O4 0.592555 0.734342 0.001181
O O5 0.997470 0.315249 0.721587
O O6 0.722998 0.445996 0.649428
O O7 0.768969 0.384485 0.681103
O O8 0.826625 0.474893 0.611494
O O9 0.815175 0.491049 0.719130
O O10 0.241048 0.120524 0.246259
O O11 0.251775 0.032918 0.222846
O O12 0.234934 0.765067 0.210685
O O13 0.184386 0.666667 0.166667
O O14 0.128534 0.714982 0.213403
O O15 0.344721 0.172361 0.806671
O O16 0.304745 0.240798 0.802187
O O17 0.968716 0.302049 0.166667
#
# Coordination Sequence:
#
# PCOD8324042 Si02
#       7
#    36  18  36  36  36  36  36
#     4   9  17  32  51  70  97 132 168 201 241 299
#     4  10  20  32  51  76 102 132 167 204 248 294
#     4  10  20  34  50  68  92 127 169 212 255 297
#     4   9  20  35  51  71  95 127 163 202 248 298
#     4  10  19  28  43  65  93 127 166 209 245 284
#     4  10  20  32  47  71  99 131 168 201 241 293
#     4  11  21  33  52  76 101 132 163 205 246 296
#
# _framework density 16.382712000000001
#
# number of rings (size 3 to 8) (size 9 to 14) (size 15 to 20)
#    0.000    2.154    1.538    2.000    4.308    3.385 
#    0.000    0.385    0.000    2.462    0.000    0.000 
#    0.000    0.000    0.000    0.231    0.000    0.000 
#
# Total GULP energy -966812.706808 kJ/mol
# GULP energy per Si atom -12395.034703 kJ/mol
# Density = 1.634542 g / cm^3
# Si number density = 16.382712 Si / 1000 Ang^3
#
#
#
# Elastic Constant Matrix: (Units=GPa)
#
#
# Indices 1 2 3 4 5 6 
#
# 1 103.7079 54.0760 36.3610 4.9526 -0.0002 0.0000
# 2 54.0760 103.7079 36.3610 -4.9526 0.0002 0.0000
# 3 36.3610 36.3610 59.6760 0.0000 0.0000 0.0000
# 4 4.9526 -4.9526 0.0000 17.3213 0.0000 0.0002
# 5 -0.0002 0.0002 0.0000 0.0000 17.3213 4.9526
# 6 0.0000 0.0000 0.0000 0.0002 4.9526 24.8160
#
#
#
# Elastic Compliance Matrix: (Units=1/GPa)
#
#
# Indices 1 2 3 4 5 6 
#
# 1 0.015090 -0.006278 -0.005370 -0.006110 0.000000 0.000000
# 2 -0.006278 0.015090 -0.005370 0.006110 0.000000 0.000000
# 3 -0.005370 -0.005370 0.023301 0.000000 0.000000 0.000000
# 4 -0.006110 0.006110 0.000000 0.061226 0.000000 0.000000
# 5 0.000000 0.000000 0.000000 0.000000 0.061226 -0.012219
# 6 0.000000 0.000000 0.000000 0.000000 -0.012219 0.042735
#
#
# Mechanical properties :
#
#
# Convention : Reuss Voigt Hill
#
# Bulk Modulus (GPa) = 51.42055 57.85421 54.63738
# Shear Modulus (GPa) = 19.29129 21.24464 20.26797
#
# Velocity S-wave (km/s) = 3.43525 3.60498 3.52114
# Velocity P-wave (km/s) = 6.86949 7.26076 7.06783
#
# Compressibility (1/GPa) = 0.01944748
#
# Stress axis : x y z
#
# Youngs Moduli (GPa) = 66.26852 66.26852 42.91737
#
# Poissons Ratio (x) = 0.41600 0.23045
# Poissons Ratio (y) = 0.41600 0.23045
# Poissons Ratio (z) = 0.35583 0.35583
#
# Static dielectric constant tensor:
#      x y z
#    x 3.181540 0.000000 0.000000 
#    y 0.000000 3.181540 0.000000 
#    z 0.000000 0.000000 2.932090 
# 
# 
# High freq. dielectric constant tensor:
#      x y z
#    x 1.628570 0.000000 0.000000 
#    y 0.000000 1.628570 0.000000 
#    z 0.000000 0.000000 1.606070 
# 
# From -- ./inp_files/7232.got.cif
#   From: 2010.03.12/outbox.cif.g09.slc.cpg/sg166_4_cif.got.tgz:7232.got - 2010.04.02 06:38:31.
