data_PCOD8324780
_publ_section_title
;
Structure prediction by ZEFSAII (Michael W. Deem and Ramdas Pophale) SiO2 
 PCOD8324780
Probable space group: P 62
;
_chemical_formula_sum "Si O2"
_cell_formula_units_Z 39
_cell_length_a 12.403976
_cell_length_b 12.403976
_cell_length_c 13.272881
_cell_angle_alpha 90.000000
_cell_angle_beta 90.000000
_cell_angle_gamma 120.000000
_cell_volume 1768.551321
_symmetry_space_group_name_H-M "P 62"
_symmetry_group_IT_number 171
_symmetry_cell_setting 'hexagonal'
loop_
_space_group_symop_operation_xyz
x,y,z
x-y,x,1/3+z
-y,x-y,2/3+z
-x,-y,z
-x+y,-x,1/3+z
y,-x+y,2/3+z
loop_
_atom_site_type_symbol
_atom_site_label
_atom_site_fract_x
_atom_site_fract_y
_atom_site_fract_z
Si Si1 0.911844 0.155658 0.614790
Si Si2 0.241308 0.107805 0.710657
Si Si3 0.776762 0.500303 0.359523
Si Si4 0.500000 0.500000 0.922914
Si Si5 0.191449 0.759266 0.216183
Si Si6 0.318385 0.135859 0.347614
Si Si7 0.263820 0.686989 0.911113
O O1 0.878378 0.131955 0.497141
O O2 0.850997 0.226344 0.670118
O O3 0.056006 0.256119 0.618920
O O4 0.872545 0.025491 0.672953
O O5 0.370556 0.136601 0.658851
O O6 0.229891 0.221733 0.667707
O O7 0.912087 0.528423 0.326226
O O8 0.658895 0.390290 0.304368
O O9 0.765653 0.469832 0.476588
O O10 0.384807 0.479394 0.851660
O O11 0.178970 0.845185 0.131416
O O12 0.335481 0.795911 0.223657
O O13 0.454240 0.169502 0.306792
#
# Coordination Sequence:
#
# PCOD8324780 Si02
#       7
#     6   6   6   3   6   6   6
#     4  12  28  45  77 108 148 198 248 303 370 447
#     4  12  26  49  74 109 144 201 249 301 366 448
#     4  11  24  44  71 105 146 190 245 311 367 447
#     4  10  22  44  78  96 142 186 254 286 370 444
#     4  11  25  48  73 111 143 195 248 305 373 446
#     4  12  27  46  73 106 152 190 241 307 373 438
#     4  11  26  45  70 107 147 191 245 304 377 437
#
# _framework density 22.051946999999998
#
# number of rings (size 3 to 8) (size 9 to 14) (size 15 to 20)
#    0.000    0.615    4.615    1.385    8.615    3.692 
#    0.000    0.000    0.000    0.000    0.000    0.000 
#    0.000    0.000    0.000    0.000    0.000    0.000 
#
# Total GULP energy -483518.719143 kJ/mol
# GULP energy per Si atom -12397.915875 kJ/mol
# Density = 2.200176 g / cm^3
# Si number density = 22.051947 Si / 1000 Ang^3
#
#
#
# Elastic Constant Matrix: (Units=GPa)
#
#
# Indices 1 2 3 4 5 6 
#
# 1 89.5184 39.7410 19.1430 0.0000 0.0000 0.0000
# 2 39.7410 89.5184 19.1430 0.0000 0.0000 0.0000
# 3 19.1430 19.1430 106.5089 0.0000 0.0000 0.0000
# 4 0.0000 0.0000 0.0000 28.6434 0.0000 0.0000
# 5 0.0000 0.0000 0.0000 0.0000 28.6434 0.0000
# 6 0.0000 0.0000 0.0000 0.0000 0.0000 24.8887
#
#
#
# Elastic Compliance Matrix: (Units=1/GPa)
#
#
# Indices 1 2 3 4 5 6 
#
# 1 0.014130 -0.005959 -0.001469 0.000000 0.000000 0.000000
# 2 -0.005959 0.014130 -0.001469 0.000000 0.000000 0.000000
# 3 -0.001469 -0.001469 0.009917 0.000000 0.000000 0.000000
# 4 0.000000 0.000000 0.000000 0.034912 0.000000 0.000000
# 5 0.000000 0.000000 0.000000 0.000000 0.034912 0.000000
# 6 0.000000 0.000000 0.000000 0.000000 0.000000 0.040179
#
#
# Mechanical properties :
#
#
# Convention : Reuss Voigt Hill
#
# Bulk Modulus (GPa) = 49.05576 49.06664 49.06120
# Shear Modulus (GPa) = 28.94048 30.26967 29.60508
#
# Velocity S-wave (km/s) = 3.62661 3.70895 3.66801
# Velocity P-wave (km/s) = 6.31112 6.37499 6.34314
#
# Compressibility (1/GPa) = 0.02038497
#
# Stress axis : x y z
#
# Youngs Moduli (GPa) = 70.76926 70.76926 100.83876
#
# Poissons Ratio (x) = 0.42172 0.14810
# Poissons Ratio (y) = 0.42172 0.14810
# Poissons Ratio (z) = 0.10394 0.10394
#
# Static dielectric constant tensor:
#      x y z
#    x 4.147610 0.000000 0.000000 
#    y 0.000000 4.147610 0.000000 
#    z 0.000000 0.000000 3.955280 
# 
# 
# High freq. dielectric constant tensor:
#      x y z
#    x 1.874780 0.000000 0.000000 
#    y 0.000000 1.874780 0.000000 
#    z 0.000000 0.000000 1.873180 
# 
# From -- ./inp_files/2016.got.cif
#   From: 2010.03.12/outbox.cif.g09.slc.cpg/sg171_2_cif.got.tgz:2016.got - 2010.04.02 06:49:11.
