data_PCOD8324332
_publ_section_title
;
Structure prediction by ZEFSAII (Michael W. Deem and Ramdas Pophale) SiO2 
 PCOD8324332
Probable space group: R -3 C 
;
_chemical_formula_sum "Si O2"
_cell_formula_units_Z 126
_cell_length_a 17.278770
_cell_length_b 17.278770
_cell_length_c 20.659488
_cell_angle_alpha 90.000000
_cell_angle_beta 90.000000
_cell_angle_gamma 120.000000
_cell_volume 5341.654981
_symmetry_space_group_name_H-M "R -3 C "
_symmetry_group_IT_number 167
_symmetry_cell_setting 'hexagonal'
loop_
_space_group_symop_operation_xyz
x,y,z
-y,x-y,z
-x+y,-x,z
x-y,-y,1/2-z
-x,-x+y,1/2-z
y,x,1/2-z
-x,-y,-z
y,-x+y,-z
x-y,x,-z
-x+y,y,1/2+z
x,x-y,1/2+z
-y,-x,1/2+z
2/3+x,1/3+y,1/3+z
2/3-y,1/3+x-y,1/3+z
2/3-x+y,1/3-x,1/3+z
2/3+x-y,1/3-y,5/6-z
2/3-x,1/3-x+y,5/6-z
2/3+y,1/3+x,5/6-z
2/3-x,1/3-y,1/3-z
2/3+y,1/3-x+y,1/3-z
2/3+x-y,1/3+x,1/3-z
2/3-x+y,1/3+y,5/6+z
2/3+x,1/3+x-y,5/6+z
2/3-y,1/3-x,5/6+z
1/3+x,2/3+y,2/3+z
1/3-y,2/3+x-y,2/3+z
1/3-x+y,2/3-x,2/3+z
1/3+x-y,2/3-y,1/6-z
1/3-x,2/3-x+y,1/6-z
1/3+y,2/3+x,1/6-z
1/3-x,2/3-y,2/3-z
1/3+y,2/3-x+y,2/3-z
1/3+x-y,2/3+x,2/3-z
1/3-x+y,2/3+y,1/6+z
1/3+x,2/3+x-y,1/6+z
1/3-y,2/3-x,1/6+z
loop_
_atom_site_type_symbol
_atom_site_label
_atom_site_fract_x
_atom_site_fract_y
_atom_site_fract_z
Si Si1 0.234870 0.155489 0.668772
Si Si2 0.837584 0.987234 0.967273
Si Si3 0.981552 0.666768 0.345102
Si Si4 0.333334 0.854163 0.416667
O O1 0.333334 0.166667 0.666667
O O2 0.175187 0.116378 0.603428
O O3 0.258030 0.257091 0.680416
O O4 0.179397 0.086292 0.727713
O O5 0.842810 0.926005 0.024484
O O6 0.755455 0.004073 0.974477
O O7 0.947559 0.666667 0.416667
O O8 0.978611 0.748586 0.311461
#
# Coordination Sequence:
#
# PCOD8324332 Si02
#       4
#    36  36  36  18
#     4  10  20  44  67  99 147 188 241 320 380 455
#     4  12  25  44  68 101 145 199 257 317 391 465
#     4  11  22  39  71 104 142 184 253 313 383 454
#     4  10  20  42  68  98 152 188 232 320 378 462
#
# _framework density 23.588194999999999
#
# number of rings (size 3 to 8) (size 9 to 14) (size 15 to 20)
#    0.000    1.143    5.714    3.714    0.000    2.286 
#    5.143    0.000    0.000    0.000    0.000    0.000 
#    0.000    0.000    0.000    0.000    0.000    0.000 
#
# Total GULP energy -520457.718991 kJ/mol
# GULP energy per Si atom -12391.850452 kJ/mol
# Density = 2.353451 g / cm^3
# Si number density = 23.588195 Si / 1000 Ang^3
#
#
#
# Elastic Constant Matrix: (Units=GPa)
#
#
# Indices 1 2 3 4 5 6 
#
# 1 109.4574 39.5566 33.6117 1.8100 0.0015 0.0000
# 2 39.5566 109.4574 33.6117 -1.8100 -0.0015 0.0000
# 3 33.6117 33.6117 167.7167 0.0000 0.0000 0.0000
# 4 1.8100 -1.8100 0.0000 27.1720 0.0000 -0.0015
# 5 0.0015 -0.0015 0.0000 0.0000 27.1720 1.8100
# 6 0.0000 0.0000 0.0000 -0.0015 1.8100 34.9504
#
#
#
# Elastic Compliance Matrix: (Units=1/GPa)
#
#
# Indices 1 2 3 4 5 6 
#
# 1 0.010867 -0.003489 -0.001479 -0.000956 -0.000001 0.000000
# 2 -0.003489 0.010867 -0.001479 0.000956 0.000001 0.000000
# 3 -0.001479 -0.001479 0.006555 0.000000 0.000000 0.000000
# 4 -0.000956 0.000956 0.000000 0.036930 0.000000 0.000002
# 5 -0.000001 0.000001 0.000000 0.000000 0.036930 -0.001913
# 6 0.000000 0.000000 0.000000 0.000002 -0.001913 0.028711
#
#
# Mechanical properties :
#
#
# Convention : Reuss Voigt Hill
#
# Bulk Modulus (GPa) = 64.95029 66.68794 65.81912
# Shear Modulus (GPa) = 33.58329 36.51563 35.04946
#
# Velocity S-wave (km/s) = 3.77733 3.93879 3.85891
# Velocity P-wave (km/s) = 6.82782 7.00133 6.91512
#
# Compressibility (1/GPa) = 0.01539639
#
# Stress axis : x y z
#
# Youngs Moduli (GPa) = 92.02464 92.02464 152.55375
#
# Poissons Ratio (x) = 0.32106 0.22556
# Poissons Ratio (y) = 0.32106 0.22556
# Poissons Ratio (z) = 0.13606 0.13606
#
# Static dielectric constant tensor:
#      x y z
#    x 5.070130 0.000000 0.000000 
#    y 0.000000 5.070130 0.000000 
#    z 0.000000 0.000000 4.413850 
# 
# 
# High freq. dielectric constant tensor:
#      x y z
#    x 1.919590 0.000000 0.000000 
#    y 0.000000 1.919590 0.000000 
#    z 0.000000 0.000000 1.940780 
# 
# From -- ./inp_files/3068.got.cif
#   From: 2010.03.12/outbox.cif.g09.slc.cpg/sg167_2_cif.got.tgz:3068.got - 2010.04.02 06:42:56.
