data_PCOD8324879
_publ_section_title
;
Structure prediction by ZEFSAII (Michael W. Deem and Ramdas Pophale) SiO2 
 PCOD8324879
Probable space group: P 63
;
_chemical_formula_sum "Si O2"
_cell_formula_units_Z 42
_cell_length_a 8.471080
_cell_length_b 8.471080
_cell_length_c 30.778923
_cell_angle_alpha 90.000000
_cell_angle_beta 90.000000
_cell_angle_gamma 120.000000
_cell_volume 1912.765004
_symmetry_space_group_name_H-M "P 63"
_symmetry_group_IT_number 173
_symmetry_cell_setting 'hexagonal'
loop_
_space_group_symop_operation_xyz
x,y,z
x-y,x,1/2+z
-y,x-y,z
-x,-y,1/2+z
-x+y,-x,z
y,-x+y,1/2+z
loop_
_atom_site_type_symbol
_atom_site_label
_atom_site_fract_x
_atom_site_fract_y
_atom_site_fract_z
Si Si1 0.650803 0.666985 0.903040
Si Si2 0.332726 0.300283 0.934627
Si Si3 0.233378 0.097262 0.020488
Si Si4 0.684135 0.019274 0.769930
Si Si5 0.649999 0.669811 0.804527
Si Si6 0.686437 0.140498 0.674155
Si Si7 0.547328 0.849900 0.605145
O O1 0.487774 0.509362 0.931025
O O2 0.824144 0.637556 0.896539
O O3 0.594228 0.681864 0.854162
O O4 0.714211 0.851725 0.930190
O O5 0.345502 0.187952 0.976323
O O6 0.377695 0.116773 0.056421
O O7 0.119524 0.205562 0.023815
O O8 0.733301 0.864009 0.780790
O O9 0.474137 0.940021 0.781326
O O10 0.807987 0.198303 0.798806
O O11 0.710306 0.062666 0.719186
O O12 0.853107 0.349929 0.670340
O O13 0.692798 0.005299 0.637452
O O14 0.360296 0.857452 0.612529
#
# Coordination Sequence:
#
# PCOD8324879 Si02
#       7
#     6   6   6   6   6   6   6
#     4  12  24  42  68 100 141 185 242 288 353 414
#     4  12  25  45  69 103 138 189 235 295 356 433
#     4  10  23  46  70  97 137 176 222 286 361 422
#     4  12  25  45  68 102 144 189 241 292 356 425
#     4  12  24  42  67 100 141 190 236 297 345 414
#     4  10  23  46  72  97 140 185 231 281 364 418
#     4  10  26  40  72 105 133 168 231 289 349 432
#
# _framework density 21.957743000000001
#
# number of rings (size 3 to 8) (size 9 to 14) (size 15 to 20)
#    0.857    0.000    2.857    4.286    6.000    0.000 
#    0.000    0.000    3.143    0.000    0.000    0.000 
#    0.000    0.000    0.000    0.000    0.000    0.000 
#
# Total GULP energy -520313.294901 kJ/mol
# GULP energy per Si atom -12388.411783 kJ/mol
# Density = 2.190777 g / cm^3
# Si number density = 21.957743 Si / 1000 Ang^3
#
#
#
# Elastic Constant Matrix: (Units=GPa)
#
#
# Indices 1 2 3 4 5 6 
#
# 1 88.9055 19.9424 38.1402 0.0000 0.0000 0.0000
# 2 19.9424 88.9055 38.1402 0.0000 0.0000 0.0000
# 3 38.1402 38.1402 134.5287 0.0000 0.0000 0.0000
# 4 0.0000 0.0000 0.0000 36.2909 0.0000 0.0000
# 5 0.0000 0.0000 0.0000 0.0000 36.2909 0.0000
# 6 0.0000 0.0000 0.0000 0.0000 0.0000 34.4815
#
#
#
# Elastic Compliance Matrix: (Units=1/GPa)
#
#
# Indices 1 2 3 4 5 6 
#
# 1 0.012983 -0.001518 -0.003250 0.000000 0.000000 0.000000
# 2 -0.001518 0.012983 -0.003250 0.000000 0.000000 0.000000
# 3 -0.003250 -0.003250 0.009276 0.000000 0.000000 0.000000
# 4 0.000000 0.000000 0.000000 0.027555 0.000000 0.000000
# 5 0.000000 0.000000 0.000000 0.000000 0.027555 0.000000
# 6 0.000000 0.000000 0.000000 0.000000 0.000000 0.029001
#
#
# Mechanical properties :
#
#
# Convention : Reuss Voigt Hill
#
# Bulk Modulus (GPa) = 52.07058 56.08727 54.07893
# Shear Modulus (GPa) = 35.26288 35.82045 35.54167
#
# Velocity S-wave (km/s) = 4.01177 4.04336 4.02760
# Velocity P-wave (km/s) = 6.72492 6.88455 6.80520
#
# Compressibility (1/GPa) = 0.01920470
#
# Stress axis : x y z
#
# Youngs Moduli (GPa) = 77.02509 77.02509 107.80006
#
# Poissons Ratio (x) = 0.11690 0.35040
# Poissons Ratio (y) = 0.11690 0.35040
# Poissons Ratio (z) = 0.25037 0.25037
#
# Static dielectric constant tensor:
#      x y z
#    x 3.819200 0.000000 0.000000 
#    y 0.000000 3.819200 0.000000 
#    z 0.000000 0.000000 3.776850 
# 
# 
# High freq. dielectric constant tensor:
#      x y z
#    x 1.859330 0.000000 0.000000 
#    y 0.000000 1.859330 0.000000 
#    z 0.000000 0.000000 1.860320 
# 
# From -- ./inp_files/1519.got.cif
#   From: 2010.03.12/outbox.cif.g09.slc.cpg/sg173_cif.got.tgz:1519.got - 2010.04.02 06:54:12.
