data_PCOD8324335
_publ_section_title
;
Structure prediction by ZEFSAII (Michael W. Deem and Ramdas Pophale) SiO2 
 PCOD8324335
Probable space group: R -3 C 
;
_chemical_formula_sum "Si O2"
_cell_formula_units_Z 126
_cell_length_a 20.702311
_cell_length_b 20.702311
_cell_length_c 15.989492
_cell_angle_alpha 90.000000
_cell_angle_beta 90.000000
_cell_angle_gamma 120.000000
_cell_volume 5934.757182
_symmetry_space_group_name_H-M "R -3 C "
_symmetry_group_IT_number 167
_symmetry_cell_setting 'hexagonal'
loop_
_space_group_symop_operation_xyz
x,y,z
-y,x-y,z
-x+y,-x,z
x-y,-y,1/2-z
-x,-x+y,1/2-z
y,x,1/2-z
-x,-y,-z
y,-x+y,-z
x-y,x,-z
-x+y,y,1/2+z
x,x-y,1/2+z
-y,-x,1/2+z
2/3+x,1/3+y,1/3+z
2/3-y,1/3+x-y,1/3+z
2/3-x+y,1/3-x,1/3+z
2/3+x-y,1/3-y,5/6-z
2/3-x,1/3-x+y,5/6-z
2/3+y,1/3+x,5/6-z
2/3-x,1/3-y,1/3-z
2/3+y,1/3-x+y,1/3-z
2/3+x-y,1/3+x,1/3-z
2/3-x+y,1/3+y,5/6+z
2/3+x,1/3+x-y,5/6+z
2/3-y,1/3-x,5/6+z
1/3+x,2/3+y,2/3+z
1/3-y,2/3+x-y,2/3+z
1/3-x+y,2/3-x,2/3+z
1/3+x-y,2/3-y,1/6-z
1/3-x,2/3-x+y,1/6-z
1/3+y,2/3+x,1/6-z
1/3-x,2/3-y,2/3-z
1/3+y,2/3-x+y,2/3-z
1/3+x-y,2/3+x,2/3-z
1/3-x+y,2/3+y,1/6+z
1/3+x,2/3+x-y,1/6+z
1/3-y,2/3-x,1/6+z
loop_
_atom_site_type_symbol
_atom_site_label
_atom_site_fract_x
_atom_site_fract_y
_atom_site_fract_z
Si Si1 0.000000 0.219296 0.250000
Si Si2 0.944914 0.113675 0.988659
Si Si3 0.146023 0.214461 0.197347
Si Si4 0.570693 0.540587 0.441822
O O1 0.069248 0.210101 0.222547
O O2 0.023731 0.275178 0.330208
O O3 0.950115 0.150692 0.899697
O O4 0.910677 0.145671 0.055161
O O5 0.025538 0.132180 0.019554
O O6 0.150607 0.150607 0.250000
O O7 0.220767 0.294365 0.215419
O O8 0.500000 0.500000 0.500000
#
# Coordination Sequence:
#
# PCOD8324335 Si02
#       4
#    18  36  36  36
#     4  10  20  46  68  98 144 184 230 298 348 430
#     4  12  24  44  71 105 148 189 241 298 361 433
#     4  11  24  44  70 105 141 184 239 295 359 430
#     4  10  22  44  69  98 140 187 237 290 354 424
#
# _framework density 21.23086
#
# number of rings (size 3 to 8) (size 9 to 14) (size 15 to 20)
#    0.000    1.143    2.857    4.571    0.000    0.000 
#   16.286    0.000    0.000    0.000    0.000    0.000 
#    0.000    0.000    0.000    0.000    0.000    0.000 
#
# Total GULP energy -520705.429075 kJ/mol
# GULP energy per Si atom -12397.748311 kJ/mol
# Density = 2.118254 g / cm^3
# Si number density = 21.230860 Si / 1000 Ang^3
#
#
#
# Elastic Constant Matrix: (Units=GPa)
#
#
# Indices 1 2 3 4 5 6 
#
# 1 109.8960 58.9838 60.3268 -4.9250 0.0000 0.0000
# 2 58.9838 109.8960 60.3268 4.9250 0.0000 0.0000
# 3 60.3268 60.3268 154.5842 0.0000 0.0000 0.0000
# 4 -4.9250 4.9250 0.0000 41.3019 0.0000 0.0000
# 5 0.0000 0.0000 0.0000 0.0000 41.3019 -4.9250
# 6 0.0000 0.0000 0.0000 0.0000 -4.9250 25.4561
#
#
#
# Elastic Compliance Matrix: (Units=1/GPa)
#
#
# Indices 1 2 3 4 5 6 
#
# 1 0.014158 -0.005947 -0.003204 0.002397 0.000000 0.000000
# 2 -0.005947 0.014158 -0.003204 -0.002397 0.000000 0.000000
# 3 -0.003204 -0.003204 0.008970 0.000000 0.000000 0.000000
# 4 0.002397 -0.002397 0.000000 0.024784 0.000000 0.000000
# 5 0.000000 0.000000 0.000000 0.000000 0.024784 0.004795
# 6 0.000000 0.000000 0.000000 0.000000 0.004795 0.040211
#
#
# Mechanical properties :
#
#
# Convention : Reuss Voigt Hill
#
# Bulk Modulus (GPa) = 79.52789 81.51682 80.52235
# Shear Modulus (GPa) = 32.05796 34.59455 33.32626
#
# Velocity S-wave (km/s) = 3.89005 4.04102 3.96625
# Velocity P-wave (km/s) = 7.59714 7.76221 7.68012
#
# Compressibility (1/GPa) = 0.01257420
#
# Stress axis : x y z
#
# Youngs Moduli (GPa) = 70.63130 70.63130 111.48460
#
# Poissons Ratio (x) = 0.42008 0.35722
# Poissons Ratio (y) = 0.42008 0.35722
# Poissons Ratio (z) = 0.22632 0.22632
#
# Static dielectric constant tensor:
#      x y z
#    x 3.986510 0.000000 0.000000 
#    y 0.000000 3.986510 0.000000 
#    z 0.000000 0.000000 4.727420 
# 
# 
# High freq. dielectric constant tensor:
#      x y z
#    x 1.831410 0.000000 0.000000 
#    y 0.000000 1.831410 0.000000 
#    z 0.000000 0.000000 1.855960 
# 
# From -- ./inp_files/3044.got.cif
#   From: 2010.03.12/outbox.cif.g09.slc.cpg/sg167_2_cif.got.tgz:3044.got - 2010.04.02 06:42:56.
