data_PCOD8324695
_publ_section_title
;
Structure prediction by ZEFSAII (Michael W. Deem and Ramdas Pophale) SiO2 
 PCOD8324695
Probable space group: P 65
;
_chemical_formula_sum "Si O2"
_cell_formula_units_Z 48
_cell_length_a 15.787441
_cell_length_b 15.787441
_cell_length_c 10.714222
_cell_angle_alpha 90.000000
_cell_angle_beta 90.000000
_cell_angle_gamma 120.000000
_cell_volume 2312.675787
_symmetry_space_group_name_H-M "P 65"
_symmetry_group_IT_number 170
_symmetry_cell_setting 'hexagonal'
loop_
_space_group_symop_operation_xyz
x,y,z
x-y,x,5/6+z
-y,x-y,2/3+z
-x,-y,1/2+z
-x+y,-x,1/3+z
y,-x+y,1/6+z
loop_
_atom_site_type_symbol
_atom_site_label
_atom_site_fract_x
_atom_site_fract_y
_atom_site_fract_z
Si Si1 0.394659 0.176058 0.669040
Si Si2 0.393452 0.221769 0.064480
Si Si3 0.558262 0.498876 0.638761
Si Si4 0.552160 0.265603 0.867185
Si Si5 0.760137 0.290184 0.115441
Si Si6 0.017006 0.351222 0.482026
Si Si7 0.671582 0.654898 0.431387
Si Si8 0.130525 0.501745 0.096019
O O1 0.481327 0.256702 0.755103
O O2 0.438471 0.171480 0.536075
O O3 0.322667 0.220270 0.648060
O O4 0.339167 0.070716 0.733793
O O5 0.329931 0.109608 0.107598
O O6 0.416033 0.278426 0.193505
O O7 0.496392 0.250490 0.998182
O O8 0.327105 0.246082 0.972101
O O9 0.640453 0.470747 0.672367
O O10 0.459551 0.402559 0.592425
O O11 0.592710 0.567663 0.517177
O O12 0.536016 0.549938 0.758576
O O13 0.651143 0.370538 0.862839
O O14 0.578623 0.180605 0.850522
O O15 0.668134 0.189548 0.060624
O O16 0.983613 0.357117 0.621468
#
# Coordination Sequence:
#
# PCOD8324695 Si02
#       8
#     6   6   6   6   6   6   6   6
#     4  12  26  40  62  88 132 167 213 265 323 387
#     4  11  21  38  60  86 118 158 208 265 309 373
#     4  11  24  37  62  88 123 170 217 259 310 377
#     4  12  22  38  55  88 122 169 216 258 305 367
#     4  12  25  39  57  88 129 174 217 256 315 386
#     4  12  24  42  61  92 123 171 208 267 319 380
#     4  11  21  40  62  85 121 158 213 264 315 373
#     4  11  23  38  57  85 124 171 210 256 310 365
#
# _framework density 20.755178999999998
#
# number of rings (size 3 to 8) (size 9 to 14) (size 15 to 20)
#    0.000    0.500    6.250    2.250    5.250    1.000 
#    0.000    0.000    0.000    0.000    0.000    0.000 
#   41.250    0.000    0.000    0.000    0.000    0.000 
#
# Total GULP energy -595076.793574 kJ/mol
# GULP energy per Si atom -12397.433199 kJ/mol
# Density = 2.070794 g / cm^3
# Si number density = 20.755179 Si / 1000 Ang^3
#
#
#
# Elastic Constant Matrix: (Units=GPa)
#
#
# Indices 1 2 3 4 5 6 
#
# 1 80.9700 30.2342 15.8947 0.0000 0.0000 0.0000
# 2 30.2342 80.9700 15.8947 0.0000 0.0000 0.0000
# 3 15.8947 15.8947 49.5548 0.0000 0.0000 0.0000
# 4 0.0000 0.0000 0.0000 31.2827 0.0000 0.0000
# 5 0.0000 0.0000 0.0000 0.0000 31.2827 0.0000
# 6 0.0000 0.0000 0.0000 0.0000 0.0000 25.3679
#
#
#
# Elastic Compliance Matrix: (Units=1/GPa)
#
#
# Indices 1 2 3 4 5 6 
#
# 1 0.014805 -0.004905 -0.003176 0.000000 0.000000 0.000000
# 2 -0.004905 0.014805 -0.003176 0.000000 0.000000 0.000000
# 3 -0.003176 -0.003176 0.022217 0.000000 0.000000 0.000000
# 4 0.000000 0.000000 0.000000 0.031967 0.000000 0.000000
# 5 0.000000 0.000000 0.000000 0.000000 0.031967 0.000000
# 6 0.000000 0.000000 0.000000 0.000000 0.000000 0.039420
#
#
# Mechanical properties :
#
#
# Convention : Reuss Voigt Hill
#
# Bulk Modulus (GPa) = 34.11196 37.28244 35.69720
# Shear Modulus (GPa) = 26.67187 27.55140 27.11163
#
# Velocity S-wave (km/s) = 3.58868 3.64737 3.61814
# Velocity P-wave (km/s) = 5.80022 5.97827 5.88992
#
# Compressibility (1/GPa) = 0.02931523
#
# Stress axis : x y z
#
# Youngs Moduli (GPa) = 67.54433 67.54433 45.01103
#
# Poissons Ratio (x) = 0.33130 0.14293
# Poissons Ratio (y) = 0.33130 0.14293
# Poissons Ratio (z) = 0.21449 0.21449
#
# Static dielectric constant tensor:
#      x y z
#    x 3.730840 0.000000 0.000000 
#    y 0.000000 3.730840 0.000000 
#    z 0.000000 0.000000 3.716480 
# 
# 
# High freq. dielectric constant tensor:
#      x y z
#    x 1.795510 0.000000 0.000000 
#    y 0.000000 1.795510 0.000000 
#    z 0.000000 0.000000 1.815840 
# 
# From -- ./inp_files/1043.got.cif
#   From: 2010.03.12/outbox.cif.g09.slc.cpg/sg170_cif.got.tgz:1043.got - 2010.04.02 06:47:37.
