data_PCOD8324070
_publ_section_title
;
Structure prediction by ZEFSAII (Michael W. Deem and Ramdas Pophale) SiO2 
 PCOD8324070
Probable space group: R -3 M
;
_chemical_formula_sum "Si O2"
_cell_formula_units_Z 216
_cell_length_a 28.083848
_cell_length_b 28.083848
_cell_length_c 19.552682
_cell_angle_alpha 90.000000
_cell_angle_beta 90.000000
_cell_angle_gamma 120.000000
_cell_volume 13355.193857
_symmetry_space_group_name_H-M "R -3 M"
_symmetry_group_IT_number 166
_symmetry_cell_setting 'hexagonal'
loop_
_space_group_symop_operation_xyz
x,y,z
-y,x-y,z
-x+y,-x,z
x-y,-y,-z
-x,-x+y,-z
y,x,-z
-x,-y,-z
y,-x+y,-z
x-y,x,-z
-x+y,y,z
x,x-y,z
-y,-x,z
2/3+x,1/3+y,1/3+z
2/3-y,1/3+x-y,1/3+z
2/3-x+y,1/3-x,1/3+z
2/3+x-y,1/3-y,1/3-z
2/3-x,1/3-x+y,1/3-z
2/3+y,1/3+x,1/3-z
2/3-x,1/3-y,1/3-z
2/3+y,1/3-x+y,1/3-z
2/3+x-y,1/3+x,1/3-z
2/3-x+y,1/3+y,1/3+z
2/3+x,1/3+x-y,1/3+z
2/3-y,1/3-x,1/3+z
1/3+x,2/3+y,2/3+z
1/3-y,2/3+x-y,2/3+z
1/3-x+y,2/3-x,2/3+z
1/3+x-y,2/3-y,2/3-z
1/3-x,2/3-x+y,2/3-z
1/3+y,2/3+x,2/3-z
1/3-x,2/3-y,2/3-z
1/3+y,2/3-x+y,2/3-z
1/3+x-y,2/3+x,2/3-z
1/3-x+y,2/3+y,2/3+z
1/3+x,2/3+x-y,2/3+z
1/3-y,2/3-x,2/3+z
loop_
_atom_site_type_symbol
_atom_site_label
_atom_site_fract_x
_atom_site_fract_y
_atom_site_fract_z
Si Si1 0.356176 0.269422 0.342297
Si Si2 0.125401 0.250801 0.780316
Si Si3 0.899635 0.365757 0.646866
Si Si4 0.494520 0.881398 0.200005
Si Si5 0.144817 0.289634 0.928976
Si Si6 0.913943 0.717405 0.717479
Si Si7 0.008208 0.404192 0.172910
O O1 0.393766 0.333334 0.333334
O O2 0.296475 0.248850 0.309054
O O3 0.387624 0.240621 0.307885
O O4 0.349449 0.257436 0.422318
O O5 0.063749 0.221353 0.748440
O O6 0.124376 0.248752 0.863147
O O7 0.156897 0.313794 0.758418
O O8 0.887385 0.384960 0.718676
O O9 0.860595 0.299966 0.643568
O O10 0.435671 0.871341 0.180068
O O11 0.496984 0.830318 0.166667
O O12 0.539619 0.935216 0.159476
O O13 0.865191 0.730382 0.731417
O O14 0.894860 0.666667 0.666667
O O15 0.935486 0.703632 0.785962
O O16 0.019518 0.352851 0.166667
#
# Coordination Sequence:
#
# PCOD8324070 Si02
#       7
#    36  18  36  36  18  36  36
#     4  10  20  32  49  71  98 128 171 207 248 301
#     4   9  18  34  50  68  96 124 172 214 247 300
#     4  10  19  33  51  68  97 132 171 208 249 298
#     4  10  19  32  50  72  95 128 165 207 253 302
#     4   9  20  32  48  72  93 128 164 213 255 289
#     4  11  22  33  47  72 104 134 168 210 256 305
#     4  10  20  31  50  70  99 137 168 202 245 303
#
# _framework density 16.173483000000001
#
# number of rings (size 3 to 8) (size 9 to 14) (size 15 to 20)
#    0.000    2.000    0.833    5.000    7.000    2.000 
#    0.000    0.000    0.000    0.167    0.000    0.000 
#    0.833    0.000    0.000    0.250    0.000    0.000 
#
# Total GULP energy -892734.148555 kJ/mol
# GULP energy per Si atom -12399.085397 kJ/mol
# Density = 1.613667 g / cm^3
# Si number density = 16.173483 Si / 1000 Ang^3
#
#
#
# Elastic Constant Matrix: (Units=GPa)
#
#
# Indices 1 2 3 4 5 6 
#
# 1 74.8296 30.4219 15.3297 5.8102 0.0014 0.0000
# 2 30.4219 74.8296 15.3297 -5.8102 -0.0014 0.0000
# 3 15.3297 15.3297 66.2112 0.0000 0.0000 0.0000
# 4 5.8102 -5.8102 0.0000 32.2456 0.0000 -0.0014
# 5 0.0014 -0.0014 0.0000 0.0000 32.2456 5.8102
# 6 0.0000 0.0000 0.0000 -0.0014 5.8102 22.2038
#
#
#
# Elastic Compliance Matrix: (Units=1/GPa)
#
#
# Indices 1 2 3 4 5 6 
#
# 1 0.016911 -0.006722 -0.002359 -0.004258 -0.000001 0.000000
# 2 -0.006722 0.016911 -0.002359 0.004258 0.000001 0.000000
# 3 -0.002359 -0.002359 0.016195 0.000000 0.000000 0.000000
# 4 -0.004258 0.004258 0.000000 0.032547 0.000000 0.000002
# 5 -0.000001 0.000001 0.000000 0.000000 0.032547 -0.008517
# 6 0.000000 0.000000 0.000000 0.000002 -0.008517 0.047266
#
#
# Mechanical properties :
#
#
# Convention : Reuss Voigt Hill
#
# Bulk Modulus (GPa) = 36.85082 37.55922 37.20502
# Shear Modulus (GPa) = 25.73326 27.65828 26.69577
#
# Velocity S-wave (km/s) = 3.99316 4.13982 4.06715
# Velocity P-wave (km/s) = 6.64038 6.79146 6.71634
#
# Compressibility (1/GPa) = 0.02713644
#
# Stress axis : x y z
#
# Youngs Moduli (GPa) = 59.13468 59.13468 61.74570
#
# Poissons Ratio (x) = 0.39752 0.14565
# Poissons Ratio (y) = 0.39752 0.14565
# Poissons Ratio (z) = 0.13949 0.13949
#
# Static dielectric constant tensor:
#      x y z
#    x 2.889080 0.000000 0.000000 
#    y 0.000000 2.889080 0.000000 
#    z 0.000000 0.000000 3.114170 
# 
# 
# High freq. dielectric constant tensor:
#      x y z
#    x 1.594650 0.000000 0.000000 
#    y 0.000000 1.594650 0.000000 
#    z 0.000000 0.000000 1.633900 
# 
# From -- ./inp_files/7189.got.cif
#   From: 2010.03.12/outbox.cif.g09.slc.cpg/sg166_4_cif.got.tgz:7189.got - 2010.04.02 06:38:31.
