data_PCOD8324811
_publ_section_title
;
Structure prediction by ZEFSAII (Michael W. Deem and Ramdas Pophale) SiO2 
 PCOD8324811
Probable space group: P 62
;
_chemical_formula_sum "Si O2"
_cell_formula_units_Z 24
_cell_length_a 8.871996
_cell_length_b 8.871996
_cell_length_c 14.462456
_cell_angle_alpha 90.000000
_cell_angle_beta 90.000000
_cell_angle_gamma 120.000000
_cell_volume 985.860252
_symmetry_space_group_name_H-M "P 62"
_symmetry_group_IT_number 171
_symmetry_cell_setting 'hexagonal'
loop_
_space_group_symop_operation_xyz
x,y,z
x-y,x,1/3+z
-y,x-y,2/3+z
-x,-y,z
-x+y,-x,1/3+z
y,-x+y,2/3+z
loop_
_atom_site_type_symbol
_atom_site_label
_atom_site_fract_x
_atom_site_fract_y
_atom_site_fract_z
Si Si1 0.489453 0.157829 0.391850
Si Si2 0.331623 0.842171 0.746890
Si Si3 0.747043 0.747043 0.902703
Si Si4 0.267134 0.133567 0.236036
O O1 0.682478 0.317522 0.402703
O O2 0.385344 0.223451 0.326659
O O3 0.500000 0.000000 0.340957
O O4 0.393928 0.076085 0.488420
O O5 0.317843 0.923915 0.650319
O O6 0.161893 0.776549 0.812081
O O7 0.500000 0.000000 0.797783
O O8 0.933825 0.778124 0.934371
O O9 0.778124 0.933825 0.871035
#
# Coordination Sequence:
#
# PCOD8324811 Si02
#       4
#     6   6   6   6
#     4  12  28  45  77 113 159 214 277 351 421 513
#     4  12  28  45  77 113 159 214 277 351 421 513
#     4  11  25  50  74 110 159 211 276 338 430 494
#     4  11  26  46  75 110 154 214 267 346 416 509
#
# _framework density 24.344218999999999
#
# number of rings (size 3 to 8) (size 9 to 14) (size 15 to 20)
#    0.000    0.500    0.000    6.750   14.000    6.000 
#    0.000    0.000    0.000    0.000    0.000    0.000 
#    0.000    0.000    0.000    0.000    0.000    0.000 
#
# Total GULP energy -297512.476555 kJ/mol
# GULP energy per Si atom -12396.353190 kJ/mol
# Density = 2.428881 g / cm^3
# Si number density = 24.344219 Si / 1000 Ang^3
#
#
#
# Elastic Constant Matrix: (Units=GPa)
#
#
# Indices 1 2 3 4 5 6 
#
# 1 160.3794 70.9864 57.1821 0.0000 0.0000 0.0000
# 2 70.9864 160.3794 57.1821 0.0000 0.0000 0.0000
# 3 57.1821 57.1821 154.4793 0.0000 0.0000 0.0000
# 4 0.0000 0.0000 0.0000 47.9986 0.0000 0.0000
# 5 0.0000 0.0000 0.0000 0.0000 47.9986 0.0000
# 6 0.0000 0.0000 0.0000 0.0000 0.0000 44.6965
#
#
#
# Elastic Compliance Matrix: (Units=1/GPa)
#
#
# Indices 1 2 3 4 5 6 
#
# 1 0.008238 -0.002948 -0.001958 0.000000 0.000000 0.000000
# 2 -0.002948 0.008238 -0.001958 0.000000 0.000000 0.000000
# 3 -0.001958 -0.001958 0.007923 0.000000 0.000000 0.000000
# 4 0.000000 0.000000 0.000000 0.020834 0.000000 0.000000
# 5 0.000000 0.000000 0.000000 0.000000 0.020834 0.000000
# 6 0.000000 0.000000 0.000000 0.000000 0.000000 0.022373
#
#
# Mechanical properties :
#
#
# Convention : Reuss Voigt Hill
#
# Bulk Modulus (GPa) = 93.71634 93.99324 93.85479
# Shear Modulus (GPa) = 47.29176 47.46459 47.37818
#
# Velocity S-wave (km/s) = 4.41231 4.42036 4.41634
# Velocity P-wave (km/s) = 8.03355 8.04653 8.04004
#
# Compressibility (1/GPa) = 0.01067050
#
# Stress axis : x y z
#
# Youngs Moduli (GPa) = 121.38400 121.38400 126.21422
#
# Poissons Ratio (x) = 0.35787 0.24715
# Poissons Ratio (y) = 0.35787 0.24715
# Poissons Ratio (z) = 0.23769 0.23769
#
# Static dielectric constant tensor:
#      x y z
#    x 4.866720 0.000000 0.000000 
#    y 0.000000 4.866720 0.000000 
#    z 0.000000 0.000000 4.069240 
# 
# 
# High freq. dielectric constant tensor:
#      x y z
#    x 1.984710 0.000000 0.000000 
#    y 0.000000 1.984710 0.000000 
#    z 0.000000 0.000000 1.956360 
# 
# From -- ./inp_files/2725.got.cif
#   From: 2010.03.12/outbox.cif.g09.slc.cpg/sg171_2_cif.got.tgz:2725.got - 2010.04.02 06:49:11.
