data_PCOD8324853
_publ_section_title
;
Structure prediction by ZEFSAII (Michael W. Deem and Ramdas Pophale) SiO2 
 PCOD8324853
Probable space group: P 63
;
_chemical_formula_sum "Si O2"
_cell_formula_units_Z 28
_cell_length_a 13.660282
_cell_length_b 13.660282
_cell_length_c 8.453177
_cell_angle_alpha 90.000000
_cell_angle_beta 90.000000
_cell_angle_gamma 120.000000
_cell_volume 1366.060470
_symmetry_space_group_name_H-M "P 63"
_symmetry_group_IT_number 173
_symmetry_cell_setting 'hexagonal'
loop_
_space_group_symop_operation_xyz
x,y,z
x-y,x,1/2+z
-y,x-y,z
-x,-y,1/2+z
-x+y,-x,z
y,-x+y,1/2+z
loop_
_atom_site_type_symbol
_atom_site_label
_atom_site_fract_x
_atom_site_fract_y
_atom_site_fract_z
Si Si1 0.773338 0.807379 0.864860
Si Si2 0.666668 0.333334 0.737288
Si Si3 0.666667 0.333335 0.359804
Si Si4 0.193319 0.965534 0.233518
Si Si5 0.379886 0.906407 0.862231
Si Si6 0.381494 0.907064 0.236110
O O1 0.855081 0.782053 0.759909
O O2 0.647047 0.721240 0.805942
O O3 0.799795 0.933878 0.837202
O O4 0.790347 0.791779 0.049279
O O5 0.666668 0.333334 0.548466
O O6 0.563255 0.346622 0.803490
O O7 0.569635 0.356364 0.292877
O O8 0.290464 0.940801 0.294748
O O9 0.496413 0.004930 0.798176
O O10 0.385325 0.904981 0.049112
#
# Coordination Sequence:
#
# PCOD8324853 Si02
#       6
#     6   2   2   6   6   6
#     4  11  23  39  60  86 116 152 192 239 291 346
#     4   9  18  36  58  80 109 147 184 221 274 336
#     4   9  18  36  58  80 109 147 184 221 274 336
#     4  11  23  39  60  86 116 152 192 239 291 346
#     4  10  21  37  59  84 113 149 188 232 282 336
#     4  10  21  37  59  84 113 149 188 232 282 336
#
# _framework density 20.496898000000002
#
# number of rings (size 3 to 8) (size 9 to 14) (size 15 to 20)
#    0.000    1.714    0.000    4.286    0.000    6.857 
#    0.000    2.143    0.000    0.000    0.000    0.000 
#    0.000    0.000    0.000    0.000    0.000    0.000 
#
# Total GULP energy -347346.332020 kJ/mol
# GULP energy per Si atom -12405.226144 kJ/mol
# Density = 2.045025 g / cm^3
# Si number density = 20.496898 Si / 1000 Ang^3
#
#
#
# Elastic Constant Matrix: (Units=GPa)
#
#
# Indices 1 2 3 4 5 6 
#
# 1 119.4981 21.5938 19.0206 0.0000 0.0000 -0.0002
# 2 21.5938 119.4982 19.0207 0.0000 0.0000 0.0003
# 3 19.0206 19.0207 18.6705 0.0000 0.0000 0.0000
# 4 0.0000 0.0000 0.0000 30.2292 -0.0001 0.0000
# 5 0.0000 0.0000 0.0000 -0.0001 30.2291 0.0000
# 6 -0.0002 0.0003 0.0000 0.0000 0.0000 48.9529
#
#
#
# Elastic Compliance Matrix: (Units=1/GPa)
#
#
# Indices 1 2 3 4 5 6 
#
# 1 0.009993 -0.000221 -0.009955 0.000000 0.000000 0.000000
# 2 -0.000221 0.009993 -0.009955 0.000000 0.000000 0.000000
# 3 -0.009955 -0.009955 0.073844 0.000000 0.000000 0.000000
# 4 0.000000 0.000000 0.000000 0.033081 0.000000 0.000000
# 5 0.000000 0.000000 0.000000 0.000000 0.033081 0.000000
# 6 0.000000 0.000000 0.000000 0.000000 0.000000 0.020428
#
#
# Mechanical properties :
#
#
# Convention : Reuss Voigt Hill
#
# Bulk Modulus (GPa) = 18.66809 41.88191 30.27500
# Shear Modulus (GPa) = 20.96117 35.08436 28.02277
#
# Velocity S-wave (km/s) = 3.20136 4.14175 3.70154
# Velocity P-wave (km/s) = 4.77415 6.58405 5.75075
#
# Compressibility (1/GPa) = 0.05356734
#
# Stress axis : x y z
#
# Youngs Moduli (GPa) = 100.07167 100.07163 13.54211
#
# Poissons Ratio (x) = 0.02214 0.13481
# Poissons Ratio (y) = 0.02214 0.13481
# Poissons Ratio (z) = 0.99620 0.99621
#
# Static dielectric constant tensor:
#      x y z
#    x 3.939200 -0.000010 0.000000 
#    y -0.000010 3.939200 0.000000 
#    z 0.000000 0.000000 3.424430 
# 
# 
# High freq. dielectric constant tensor:
#      x y z
#    x 1.819860 0.000000 0.000000 
#    y 0.000000 1.819860 0.000000 
#    z 0.000000 0.000000 1.779020 
# 
# From -- ./inp_files/520.got.cif
#   From: 2010.03.12/outbox.cif.g09.slc.cpg/sg173_cif.got.tgz:520.got - 2010.04.02 06:54:12.
