data_PCOD8324098
_publ_section_title
;
Structure prediction by ZEFSAII (Michael W. Deem and Ramdas Pophale) SiO2 
 PCOD8324098
Probable space group: R -3 M
;
_chemical_formula_sum "Si O2"
_cell_formula_units_Z 270
_cell_length_a 25.085609
_cell_length_b 25.085609
_cell_length_c 25.165000
_cell_angle_alpha 90.000000
_cell_angle_beta 90.000000
_cell_angle_gamma 120.000000
_cell_volume 13714.401639
_symmetry_space_group_name_H-M "R -3 M"
_symmetry_group_IT_number 166
_symmetry_cell_setting 'hexagonal'
loop_
_space_group_symop_operation_xyz
x,y,z
-y,x-y,z
-x+y,-x,z
x-y,-y,-z
-x,-x+y,-z
y,x,-z
-x,-y,-z
y,-x+y,-z
x-y,x,-z
-x+y,y,z
x,x-y,z
-y,-x,z
2/3+x,1/3+y,1/3+z
2/3-y,1/3+x-y,1/3+z
2/3-x+y,1/3-x,1/3+z
2/3+x-y,1/3-y,1/3-z
2/3-x,1/3-x+y,1/3-z
2/3+y,1/3+x,1/3-z
2/3-x,1/3-y,1/3-z
2/3+y,1/3-x+y,1/3-z
2/3+x-y,1/3+x,1/3-z
2/3-x+y,1/3+y,1/3+z
2/3+x,1/3+x-y,1/3+z
2/3-y,1/3-x,1/3+z
1/3+x,2/3+y,2/3+z
1/3-y,2/3+x-y,2/3+z
1/3-x+y,2/3-x,2/3+z
1/3+x-y,2/3-y,2/3-z
1/3-x,2/3-x+y,2/3-z
1/3+y,2/3+x,2/3-z
1/3-x,2/3-y,2/3-z
1/3+y,2/3-x+y,2/3-z
1/3+x-y,2/3+x,2/3-z
1/3-x+y,2/3+y,2/3+z
1/3+x,2/3+x-y,2/3+z
1/3-y,2/3-x,2/3+z
loop_
_atom_site_type_symbol
_atom_site_label
_atom_site_fract_x
_atom_site_fract_y
_atom_site_fract_z
Si Si1 0.217736 0.551069 0.666667
Si Si2 0.177410 0.233836 0.270387
Si Si3 0.241973 0.880268 0.208217
Si Si4 0.599838 0.983976 0.560360
Si Si5 0.471489 0.068034 0.650946
Si Si6 0.745233 0.037216 0.428408
Si Si7 0.806249 0.960239 0.900283
Si Si8 0.666880 0.214860 0.531409
O O1 0.281269 0.562537 0.640541
O O2 0.194443 0.496609 0.707567
O O3 0.116118 0.232236 0.294584
O O4 0.219950 0.298419 0.241038
O O5 0.212459 0.214947 0.314155
O O6 0.160423 0.181898 0.227151
O O7 0.191570 0.808431 0.215264
O O8 0.308161 0.891888 0.230025
O O9 0.249731 0.896491 0.145227
O O10 0.666698 0.995511 0.574878
O O11 0.557795 0.911011 0.564725
O O12 0.592702 0.000000 0.500000
O O13 0.581078 0.020469 0.602330
O O14 0.545154 0.090308 0.649234
O O15 0.445859 0.037526 0.708764
O O16 0.775882 0.887941 0.884445
O O17 0.864927 0.000360 0.863265
O O18 0.600066 0.200131 0.552237
O O19 0.713138 0.286863 0.539846
#
# Coordination Sequence:
#
# PCOD8324098 Si02
#       8
#    18  36  36  36  36  36  36  36
#     4  10  21  38  56  78 110 152 203 256 306 354
#     4  10  21  38  60  86 115 153 195 239 297 358
#     4  10  20  39  64  89 118 159 202 243 302 365
#     4  12  23  41  60  82 118 163 202 247 298 362
#     4  12  25  39  59  90 123 160 200 247 301 361
#     4  11  22  39  60  90 123 155 196 248 300 355
#     4  10  22  35  51  77 106 144 194 245 295 347
#     4  10  19  33  53  77 105 141 189 242 292 343
#
# _framework density 19.687335000000001
#
# number of rings (size 3 to 8) (size 9 to 14) (size 15 to 20)
#    0.000    1.333    2.667    3.800    1.867    2.667 
#    0.000    4.000    0.000    0.267    0.000    0.000 
#    0.000    0.000    0.000    6.800    0.000    0.000 
#
# Total GULP energy -1115034.261130 kJ/mol
# GULP energy per Si atom -12389.269568 kJ/mol
# Density = 1.964253 g / cm^3
# Si number density = 19.687335 Si / 1000 Ang^3
#
#
#
# Elastic Constant Matrix: (Units=GPa)
#
#
# Indices 1 2 3 4 5 6 
#
# 1 75.1981 24.5000 20.0295 -2.0076 0.0000 0.0000
# 2 24.5000 75.1981 20.0295 2.0076 0.0000 0.0000
# 3 20.0295 20.0295 96.1828 0.0000 0.0000 0.0000
# 4 -2.0076 2.0076 0.0000 22.9353 0.0000 0.0000
# 5 0.0000 0.0000 0.0000 0.0000 22.9353 -2.0076
# 6 0.0000 0.0000 0.0000 0.0000 -2.0076 25.3490
#
#
#
# Elastic Compliance Matrix: (Units=1/GPa)
#
#
# Indices 1 2 3 4 5 6 
#
# 1 0.015404 -0.004458 -0.002279 0.001739 0.000000 0.000000
# 2 -0.004458 0.015404 -0.002279 -0.001739 0.000000 0.000000
# 3 -0.002279 -0.002279 0.011346 0.000000 0.000000 0.000000
# 4 0.001739 -0.001739 0.000000 0.043905 0.000000 0.000000
# 5 0.000000 0.000000 0.000000 0.000000 0.043905 0.003477
# 6 0.000000 0.000000 0.000000 0.000000 0.003477 0.039725
#
#
# Mechanical properties :
#
#
# Convention : Reuss Voigt Hill
#
# Bulk Modulus (GPa) = 41.45816 41.74410 41.60113
# Shear Modulus (GPa) = 25.54095 26.37862 25.95979
#
# Velocity S-wave (km/s) = 3.60575 3.66440 3.63520
# Velocity P-wave (km/s) = 6.19994 6.25727 6.22867
#
# Compressibility (1/GPa) = 0.02412071
#
# Stress axis : x y z
#
# Youngs Moduli (GPa) = 64.91719 64.91719 88.13494
#
# Poissons Ratio (x) = 0.28940 0.20090
# Poissons Ratio (y) = 0.28940 0.20090
# Poissons Ratio (z) = 0.14798 0.14798
#
# Static dielectric constant tensor:
#      x y z
#    x 3.859670 0.000000 0.000000 
#    y 0.000000 3.859670 0.000000 
#    z 0.000000 0.000000 3.545290 
# 
# 
# High freq. dielectric constant tensor:
#      x y z
#    x 1.765600 0.000000 0.000000 
#    y 0.000000 1.765600 0.000000 
#    z 0.000000 0.000000 1.758280 
# 
# From -- ./inp_files/8683.got.cif
#   From: 2010.03.12/outbox.cif.g09.slc.cpg/sg166_5_cif.got.tgz:8683.got - 2010.04.02 06:38:31.
