data_PCOD8324768
_publ_section_title
;
Structure prediction by ZEFSAII (Michael W. Deem and Ramdas Pophale) SiO2 
 PCOD8324768
Probable space group: P 62
;
_chemical_formula_sum "Si O2"
_cell_formula_units_Z 39
_cell_length_a 13.508935
_cell_length_b 13.508935
_cell_length_c 11.560765
_cell_angle_alpha 90.000000
_cell_angle_beta 90.000000
_cell_angle_gamma 120.000000
_cell_volume 1827.087847
_symmetry_space_group_name_H-M "P 62"
_symmetry_group_IT_number 171
_symmetry_cell_setting 'hexagonal'
loop_
_space_group_symop_operation_xyz
x,y,z
x-y,x,1/3+z
-y,x-y,2/3+z
-x,-y,z
-x+y,-x,1/3+z
y,-x+y,2/3+z
loop_
_atom_site_type_symbol
_atom_site_label
_atom_site_fract_x
_atom_site_fract_y
_atom_site_fract_z
Si Si1 0.632277 0.776451 0.777400
Si Si2 0.052639 0.708132 0.264063
Si Si3 0.000000 0.500000 0.755623
Si Si4 0.574953 0.191572 0.469937
Si Si5 0.129126 0.351208 0.450242
Si Si6 0.563381 0.224962 0.215985
Si Si7 0.955512 0.279994 0.626945
O O1 0.670840 0.844496 0.653823
O O2 0.727931 0.745565 0.825786
O O3 0.514655 0.657182 0.767310
O O4 0.609730 0.853420 0.868153
O O5 0.103087 0.630339 0.218025
O O6 0.957998 0.638005 0.362527
O O7 0.111036 0.551020 0.836546
O O8 0.000623 0.593706 0.671858
O O9 0.525033 0.209790 0.349837
O O10 0.642986 0.310211 0.538695
O O11 0.227007 0.479744 0.476078
O O12 0.187109 0.281049 0.397054
O O13 0.062871 0.281116 0.564764
#
# Coordination Sequence:
#
# PCOD8324768 Si02
#       7
#     6   6   3   6   6   6   6
#     4  10  22  38  60  92 123 177 222 275 324 396
#     4  10  22  40  62  88 131 174 228 268 329 385
#     4  10  22  38  54  84 126 168 208 268 316 380
#     4  12  24  37  57  90 128 179 217 264 319 397
#     4   9  20  39  60  88 124 174 218 270 315 390
#     4  11  25  37  58  87 130 168 221 254 324 384
#     4   9  19  36  59  85 121 166 215 260 323 372
#
# _framework density 21.345441999999998
#
# number of rings (size 3 to 8) (size 9 to 14) (size 15 to 20)
#    0.000    1.846    1.538    1.385   10.769    1.231 
#    8.308    0.000    0.000    0.000    0.000    0.000 
#    0.000  502.154    0.000    0.000    0.000    0.000 
#
# Total GULP energy -483345.284861 kJ/mol
# GULP energy per Si atom -12393.468843 kJ/mol
# Density = 2.129686 g / cm^3
# Si number density = 21.345442 Si / 1000 Ang^3
#
#
#
# Elastic Constant Matrix: (Units=GPa)
#
#
# Indices 1 2 3 4 5 6 
#
# 1 112.1545 58.0358 60.4898 0.0000 0.0000 0.0000
# 2 58.0358 112.1545 60.4898 0.0000 0.0000 0.0000
# 3 60.4898 60.4898 113.8776 0.0000 0.0000 0.0000
# 4 0.0000 0.0000 0.0000 38.3913 0.0000 0.0000
# 5 0.0000 0.0000 0.0000 0.0000 38.3913 0.0000
# 6 0.0000 0.0000 0.0000 0.0000 0.0000 27.0593
#
#
#
# Elastic Compliance Matrix: (Units=1/GPa)
#
#
# Indices 1 2 3 4 5 6 
#
# 1 0.013959 -0.004519 -0.005015 0.000000 0.000000 0.000000
# 2 -0.004519 0.013959 -0.005015 0.000000 0.000000 0.000000
# 3 -0.005015 -0.005015 0.014109 0.000000 0.000000 0.000000
# 4 0.000000 0.000000 0.000000 0.026048 0.000000 0.000000
# 5 0.000000 0.000000 0.000000 0.000000 0.026048 0.000000
# 6 0.000000 0.000000 0.000000 0.000000 0.000000 0.036956
#
#
# Mechanical properties :
#
#
# Convention : Reuss Voigt Hill
#
# Bulk Modulus (GPa) = 77.33264 77.35750 77.34507
# Shear Modulus (GPa) = 30.39808 31.37980 30.88894
#
# Velocity S-wave (km/s) = 3.77782 3.83834 3.80820
# Velocity P-wave (km/s) = 7.43888 7.48086 7.45990
#
# Compressibility (1/GPa) = 0.01293115
#
# Stress axis : x y z
#
# Youngs Moduli (GPa) = 71.63767 71.63767 70.87846
#
# Poissons Ratio (x) = 0.32371 0.35542
# Poissons Ratio (y) = 0.32371 0.35542
# Poissons Ratio (z) = 0.35923 0.35923
#
# Static dielectric constant tensor:
#      x y z
#    x 3.809020 0.000000 0.000000 
#    y 0.000000 3.809020 0.000000 
#    z 0.000000 0.000000 4.287980 
# 
# 
# High freq. dielectric constant tensor:
#      x y z
#    x 1.818050 0.000000 0.000000 
#    y 0.000000 1.818050 0.000000 
#    z 0.000000 0.000000 1.853110 
# 
# From -- ./inp_files/2015.got.cif
#   From: 2010.03.12/outbox.cif.g09.slc.cpg/sg171_2_cif.got.tgz:2015.got - 2010.04.02 06:49:11.
