data_PCOD8324253
_publ_section_title
;
Structure prediction by ZEFSAII (Michael W. Deem and Ramdas Pophale) SiO2 
 PCOD8324253
Probable space group: R -3 M
;
_chemical_formula_sum "Si O2"
_cell_formula_units_Z 144
_cell_length_a 20.613915
_cell_length_b 20.613915
_cell_length_c 18.982120
_cell_angle_alpha 90.000000
_cell_angle_beta 90.000000
_cell_angle_gamma 120.000000
_cell_volume 6985.480877
_symmetry_space_group_name_H-M "R -3 M"
_symmetry_group_IT_number 166
_symmetry_cell_setting 'hexagonal'
loop_
_space_group_symop_operation_xyz
x,y,z
-y,x-y,z
-x+y,-x,z
x-y,-y,-z
-x,-x+y,-z
y,x,-z
-x,-y,-z
y,-x+y,-z
x-y,x,-z
-x+y,y,z
x,x-y,z
-y,-x,z
2/3+x,1/3+y,1/3+z
2/3-y,1/3+x-y,1/3+z
2/3-x+y,1/3-x,1/3+z
2/3+x-y,1/3-y,1/3-z
2/3-x,1/3-x+y,1/3-z
2/3+y,1/3+x,1/3-z
2/3-x,1/3-y,1/3-z
2/3+y,1/3-x+y,1/3-z
2/3+x-y,1/3+x,1/3-z
2/3-x+y,1/3+y,1/3+z
2/3+x,1/3+x-y,1/3+z
2/3-y,1/3-x,1/3+z
1/3+x,2/3+y,2/3+z
1/3-y,2/3+x-y,2/3+z
1/3-x+y,2/3-x,2/3+z
1/3+x-y,2/3-y,2/3-z
1/3-x,2/3-x+y,2/3-z
1/3+y,2/3+x,2/3-z
1/3-x,2/3-y,2/3-z
1/3+y,2/3-x+y,2/3-z
1/3+x-y,2/3+x,2/3-z
1/3-x+y,2/3+y,2/3+z
1/3+x,2/3+x-y,2/3+z
1/3-y,2/3-x,2/3+z
loop_
_atom_site_type_symbol
_atom_site_label
_atom_site_fract_x
_atom_site_fract_y
_atom_site_fract_z
Si Si1 0.933905 0.542446 0.398498
Si Si2 0.660896 0.565166 0.553703
Si Si3 0.269249 0.392931 0.222384
Si Si4 0.666244 0.478240 0.671497
O O1 0.913925 0.456963 0.384338
O O2 0.904732 0.571398 0.333334
O O3 0.895825 0.548993 0.470379
O O4 0.022414 0.592908 0.410654
O O5 0.738665 0.639299 0.572976
O O6 0.661546 0.494614 0.589167
O O7 0.204052 0.408103 0.194158
O O8 0.333334 0.413378 0.166667
O O9 0.309033 0.443581 0.289973
O O10 0.725028 0.450055 0.683178
O O11 0.586914 0.413087 0.700629
#
# Coordination Sequence:
#
# PCOD8324253 Si02
#       4
#    36  36  36  36
#     4  11  23  40  62  91 126 161 204 256 313 372
#     4  11  22  40  61  92 122 158 206 259 320 365
#     4  11  22  38  60  90 125 161 204 255 313 376
#     4  11  23  39  60  86 122 166 209 254 307 375
#
# _framework density 20.614184999999999
#
# number of rings (size 3 to 8) (size 9 to 14) (size 15 to 20)
#    0.000    1.000    2.500    7.000    0.000    4.000 
#    0.000    0.000    0.000    4.250    0.000    0.000 
#    0.000    0.000    0.000    0.000    0.000    0.000 
#
# Total GULP energy -595131.390076 kJ/mol
# GULP energy per Si atom -12398.570627 kJ/mol
# Density = 2.056727 g / cm^3
# Si number density = 20.614185 Si / 1000 Ang^3
#
#
#
# Elastic Constant Matrix: (Units=GPa)
#
#
# Indices 1 2 3 4 5 6 
#
# 1 86.1575 33.8828 35.8773 7.7068 0.0004 0.0000
# 2 33.8828 86.1575 35.8773 -7.7068 -0.0004 0.0000
# 3 35.8773 35.8773 103.6395 0.0000 0.0000 0.0000
# 4 7.7068 -7.7068 0.0000 9.0982 0.0000 -0.0004
# 5 0.0004 -0.0004 0.0000 0.0000 9.0982 7.7068
# 6 0.0000 0.0000 0.0000 -0.0004 7.7068 26.1373
#
#
#
# Elastic Compliance Matrix: (Units=1/GPa)
#
#
# Indices 1 2 3 4 5 6 
#
# 1 0.018001 -0.007497 -0.003636 -0.021599 -0.000001 0.000000
# 2 -0.007497 0.018001 -0.003636 0.021599 0.000001 0.000000
# 3 -0.003636 -0.003636 0.012166 0.000000 0.000000 0.000000
# 4 -0.021599 0.021599 0.000000 0.146503 0.000000 0.000002
# 5 -0.000001 0.000001 0.000000 0.000000 0.146503 -0.043197
# 6 0.000000 0.000000 0.000000 0.000002 -0.043197 0.050997
#
#
# Mechanical properties :
#
#
# Convention : Reuss Voigt Hill
#
# Bulk Modulus (GPa) = 53.67797 54.13658 53.90728
# Shear Modulus (GPa) = 11.68444 20.22123 15.95284
#
# Velocity S-wave (km/s) = 2.38337 3.13539 2.78488
# Velocity P-wave (km/s) = 5.80257 6.27904 6.04550
#
# Compressibility (1/GPa) = 0.01862962
#
# Stress axis : x y z
#
# Youngs Moduli (GPa) = 55.55185 55.55185 82.19368
#
# Poissons Ratio (x) = 0.41648 0.29888
# Poissons Ratio (y) = 0.41648 0.29888
# Poissons Ratio (z) = 0.20200 0.20200
#
# Static dielectric constant tensor:
#      x y z
#    x 3.731300 0.000000 0.000000 
#    y 0.000000 3.731300 0.000000 
#    z 0.000000 0.000000 3.835590 
# 
# 
# High freq. dielectric constant tensor:
#      x y z
#    x 1.805780 0.000000 0.000000 
#    y 0.000000 1.805780 0.000000 
#    z 0.000000 0.000000 1.805540 
# 
# From -- ./inp_files/6595.got.cif
#   From: 2010.03.12/outbox.cif.g09.slc.cpg/sg166_4_cif.got.tgz:6595.got - 2010.04.02 06:38:31.
