data_PCOD8324442
_publ_section_title
;
Structure prediction by ZEFSAII (Michael W. Deem and Ramdas Pophale) SiO2 
 PCOD8324442
Probable space group: P 6
;
_chemical_formula_sum "Si O2"
_cell_formula_units_Z 34
_cell_length_a 12.648548
_cell_length_b 12.648548
_cell_length_c 12.469553
_cell_angle_alpha 90.000000
_cell_angle_beta 90.000000
_cell_angle_gamma 120.000000
_cell_volume 1727.678241
_symmetry_space_group_name_H-M "P 6"
_symmetry_group_IT_number 168
_symmetry_cell_setting 'hexagonal'
loop_
_space_group_symop_operation_xyz
x,y,z
x-y,x,z
-y,x-y,z
-x,-y,z
-x+y,-x,z
y,-x+y,z
loop_
_atom_site_type_symbol
_atom_site_label
_atom_site_fract_x
_atom_site_fract_y
_atom_site_fract_z
Si Si1 0.666667 0.333333 0.427616
Si Si2 0.945494 0.213063 0.676164
Si Si3 0.768070 0.737345 0.300295
Si Si4 0.084961 0.643712 0.107303
Si Si5 0.666668 0.333334 0.172974
Si Si6 0.915039 0.356288 0.493287
Si Si7 0.054506 0.786937 0.924426
O O1 0.666668 0.333334 0.300295
O O2 0.775611 0.315485 0.470073
O O3 0.920693 0.306727 0.610043
O O4 0.938240 0.241300 0.800295
O O5 0.075769 0.229660 0.645752
O O6 0.767907 0.862370 0.300296
O O7 0.698577 0.664048 0.195163
O O8 0.698575 0.664047 0.405426
O O9 0.224388 0.684516 0.130517
O O10 0.000000 0.500000 0.109388
O O11 0.079306 0.693272 0.990547
O O12 0.000000 0.500000 0.491204
O O13 0.924230 0.770340 0.954838
#
# Coordination Sequence:
#
# PCOD8324442 Si02
#       7
#     2   6   6   6   2   6   6
#     4  12  24  42  64  89 124 168 216 256 305 373
#     4  10  21  40  66  95 127 163 205 255 312 373
#     4  12  24  40  62  90 123 158 202 258 316 374
#     4  12  25  41  63  91 124 165 211 259 310 365
#     4  12  24  42  64  89 124 168 216 256 305 373
#     4  12  25  41  63  91 124 165 211 259 310 365
#     4  10  21  40  66  95 127 163 205 255 312 373
#
# _framework density 19.679589
#
# number of rings (size 3 to 8) (size 9 to 14) (size 15 to 20)
#    0.000    0.706    1.765    7.412    0.000    2.118 
#    0.000    5.294    0.000    0.000    0.000    0.000 
#    0.000    0.000    0.000    0.000    0.000    0.000 
#
# Total GULP energy -421877.489147 kJ/mol
# GULP energy per Si atom -12408.161445 kJ/mol
# Density = 1.963480 g / cm^3
# Si number density = 19.679589 Si / 1000 Ang^3
#
#
#
# Elastic Constant Matrix: (Units=GPa)
#
#
# Indices 1 2 3 4 5 6 
#
# 1 156.9482 75.4355 75.7371 0.0000 0.0000 -0.0004
# 2 75.4355 156.9480 75.7371 0.0000 0.0000 -0.0007
# 3 75.7371 75.7371 112.1659 0.0000 0.0000 -0.0002
# 4 0.0000 0.0000 0.0000 44.5858 0.0000 0.0000
# 5 0.0000 0.0000 0.0000 0.0000 44.5861 0.0000
# 6 -0.0004 -0.0007 -0.0002 0.0000 0.0000 40.7556
#
#
#
# Elastic Compliance Matrix: (Units=1/GPa)
#
#
# Indices 1 2 3 4 5 6 
#
# 1 0.009977 -0.002291 -0.005190 0.000000 0.000000 0.000000
# 2 -0.002291 0.009977 -0.005190 0.000000 0.000000 0.000000
# 3 -0.005190 -0.005190 0.015924 0.000000 0.000000 0.000000
# 4 0.000000 0.000000 0.000000 0.022429 0.000000 0.000000
# 5 0.000000 0.000000 0.000000 0.000000 0.022429 0.000000
# 6 0.000000 0.000000 0.000000 0.000000 0.000000 0.024537
#
#
# Mechanical properties :
#
#
# Convention : Reuss Voigt Hill
#
# Bulk Modulus (GPa) = 94.90526 97.76461 96.33493
# Shear Modulus (GPa) = 37.27855 39.26234 38.27044
#
# Velocity S-wave (km/s) = 4.35705 4.47148 4.41463
# Velocity P-wave (km/s) = 8.58148 8.74327 8.66275
#
# Compressibility (1/GPa) = 0.01053682
#
# Stress axis : x y z
#
# Youngs Moduli (GPa) = 100.22983 100.22964 62.79834
#
# Poissons Ratio (x) = 0.22962 0.32591
# Poissons Ratio (y) = 0.22962 0.32591
# Poissons Ratio (z) = 0.52018 0.52018
#
# Static dielectric constant tensor:
#      x y z
#    x 3.815940 0.000040 0.000000 
#    y 0.000040 3.815970 0.000000 
#    z 0.000000 0.000000 3.709660 
# 
# 
# High freq. dielectric constant tensor:
#      x y z
#    x 1.782580 0.000000 0.000000 
#    y 0.000000 1.782580 0.000000 
#    z 0.000000 0.000000 1.775880 
# 
# From -- ./inp_files/452.got.cif
#   From: 2010.03.12/outbox.cif.g09.slc.cpg/sg168_cif.got.tgz:452.got - 2010.04.02 06:45:48.
