data_PCOD8324594
_publ_section_title
;
Structure prediction by ZEFSAII (Michael W. Deem and Ramdas Pophale) SiO2 
 PCOD8324594
Probable space group: P 61
;
_chemical_formula_sum "Si O2"
_cell_formula_units_Z 36
_cell_length_a 13.999177
_cell_length_b 13.999177
_cell_length_c 9.502068
_cell_angle_alpha 90.000000
_cell_angle_beta 90.000000
_cell_angle_gamma 120.000000
_cell_volume 1612.700702
_symmetry_space_group_name_H-M "P 61"
_symmetry_group_IT_number 169
_symmetry_cell_setting 'hexagonal'
loop_
_space_group_symop_operation_xyz
x,y,z
x-y,x,1/6+z
-y,x-y,1/3+z
-x,-y,1/2+z
-x+y,-x,2/3+z
y,-x+y,5/6+z
loop_
_atom_site_type_symbol
_atom_site_label
_atom_site_fract_x
_atom_site_fract_y
_atom_site_fract_z
Si Si1 0.005354 0.182452 0.188140
Si Si2 0.875726 0.083480 0.902905
Si Si3 0.196531 0.751947 0.392340
Si Si4 0.597325 0.448653 0.982716
Si Si5 0.355401 0.575758 0.174065
Si Si6 0.362334 0.408657 0.978167
O O1 0.117595 0.177332 0.164092
O O2 0.024244 0.305689 0.196886
O O3 0.934819 0.130141 0.049903
O O4 0.786268 0.124292 0.888255
O O5 0.951976 0.128335 0.761292
O O6 0.162507 0.702294 0.235286
O O7 0.308275 0.760321 0.448385
O O8 0.088962 0.669954 0.485033
O O9 0.612338 0.460068 0.816649
O O10 0.581900 0.334609 0.039993
O O11 0.491307 0.461826 0.008622
O O12 0.319208 0.477543 0.064665
#
# Coordination Sequence:
#
# PCOD8324594 Si02
#       6
#     6   6   6   6   6   6
#     4   9  18  35  63  97 125 170 227 281 340 418
#     4   9  20  37  67  99 130 174 230 286 346 422
#     4  11  23  41  66 102 134 184 235 286 347 428
#     4  12  24  41  64  97 139 183 230 290 346 419
#     4  12  24  43  64  98 140 185 226 288 359 412
#     4  11  23  39  68  99 132 182 234 285 346 425
#
# _framework density 22.322800999999998
#
# number of rings (size 3 to 8) (size 9 to 14) (size 15 to 20)
#    0.000    1.333    3.333    2.000    9.333    0.000 
#    0.000    0.000    0.000   34.000    0.000    0.000 
#    0.000    0.000    0.000    0.000    0.000    0.000 
#
# Total GULP energy -446151.332164 kJ/mol
# GULP energy per Si atom -12393.092560 kJ/mol
# Density = 2.227199 g / cm^3
# Si number density = 22.322801 Si / 1000 Ang^3
#
#
#
# Elastic Constant Matrix: (Units=GPa)
#
#
# Indices 1 2 3 4 5 6 
#
# 1 72.7867 10.8829 30.5970 0.0000 0.0000 0.0000
# 2 10.8829 72.7867 30.5970 0.0000 0.0000 0.0000
# 3 30.5970 30.5970 76.9229 0.0000 0.0000 0.0000
# 4 0.0000 0.0000 0.0000 32.7952 0.0000 0.0000
# 5 0.0000 0.0000 0.0000 0.0000 32.7952 0.0000
# 6 0.0000 0.0000 0.0000 0.0000 0.0000 30.9519
#
#
#
# Elastic Compliance Matrix: (Units=1/GPa)
#
#
# Indices 1 2 3 4 5 6 
#
# 1 0.016505 0.000351 -0.006704 0.000000 0.000000 0.000000
# 2 0.000351 0.016505 -0.006704 0.000000 0.000000 0.000000
# 3 -0.006704 -0.006704 0.018333 0.000000 0.000000 0.000000
# 4 0.000000 0.000000 0.000000 0.030492 0.000000 0.000000
# 5 0.000000 0.000000 0.000000 0.000000 0.030492 0.000000
# 6 0.000000 0.000000 0.000000 0.000000 0.000000 0.032308
#
#
# Mechanical properties :
#
#
# Convention : Reuss Voigt Hill
#
# Bulk Modulus (GPa) = 39.64091 40.73890 40.18990
# Shear Modulus (GPa) = 27.90795 29.33644 28.62220
#
# Velocity S-wave (km/s) = 3.53965 3.62911 3.58466
# Velocity P-wave (km/s) = 5.87385 5.98750 5.93095
#
# Compressibility (1/GPa) = 0.02522646
#
# Stress axis : x y z
#
# Youngs Moduli (GPa) = 60.58912 60.58912 54.54507
#
# Poissons Ratio (x) = -0.02124 0.36569
# Poissons Ratio (y) = -0.02124 0.36569
# Poissons Ratio (z) = 0.40621 0.40621
#
# Static dielectric constant tensor:
#      x y z
#    x 4.103540 0.000000 0.000000 
#    y 0.000000 4.103540 0.000000 
#    z 0.000000 0.000000 3.911360 
# 
# 
# High freq. dielectric constant tensor:
#      x y z
#    x 1.876050 0.000000 0.000000 
#    y 0.000000 1.876050 0.000000 
#    z 0.000000 0.000000 1.863240 
# 
# From -- ./inp_files/587.got.cif
#   From: 2010.03.12/outbox.cif.g09.slc.cpg/sg169_cif.got.tgz:587.got - 2010.04.02 06:46:06.
