data_PCOD8324900
_publ_section_title
;
Structure prediction by ZEFSAII (Michael W. Deem and Ramdas Pophale) SiO2 
 PCOD8324900
Probable space group: P -6
;
_chemical_formula_sum "Si O2"
_cell_formula_units_Z 36
_cell_length_a 18.494516
_cell_length_b 18.494516
_cell_length_c 8.361130
_cell_angle_alpha 90.000000
_cell_angle_beta 90.000000
_cell_angle_gamma 120.000000
_cell_volume 2476.746445
_symmetry_space_group_name_H-M "P -6"
_symmetry_group_IT_number 174
_symmetry_cell_setting 'hexagonal'
loop_
_space_group_symop_operation_xyz
x,y,z
-x+y,-x,-z
-y,x-y,z
x,y,-z
-x+y,-x,z
-y,x-y,-z
loop_
_atom_site_type_symbol
_atom_site_label
_atom_site_fract_x
_atom_site_fract_y
_atom_site_fract_z
Si Si1 0.505028 0.172513 0.689791
Si Si2 0.336487 0.821929 0.816351
Si Si3 0.579984 0.588488 0.316479
Si Si4 0.172407 0.670330 0.313513
Si Si5 0.831013 0.498580 0.690343
Si Si6 0.427309 0.428636 0.813552
O O1 0.510370 0.177611 0.500000
O O2 0.491402 0.246070 0.758070
O O3 0.592751 0.183540 0.751933
O O4 0.426318 0.082022 0.741750
O O5 0.344150 0.912630 0.786532
O O6 0.405514 0.813727 0.713828
O O7 0.245138 0.751846 0.768610
O O8 0.353843 0.812788 0.000000
O O9 0.591757 0.617142 0.500000
O O10 0.497461 0.498766 0.299116
O O11 0.172349 0.686961 0.500000
O O12 0.086337 0.657024 0.234091
O O13 0.836819 0.506351 0.500000
O O14 0.916544 0.573345 0.768299
O O15 0.446774 0.450185 0.000000
#
# Coordination Sequence:
#
# PCOD8324900 Si02
#       6
#     6   6   6   6   6   6
#     4   8  14  23  40  59  76  99 134 169 195 224
#     4  11  20  30  42  59  80 102 127 162 201 237
#     4   9  16  28  42  57  75 101 132 162 194 233
#     4  11  20  31  44  58  75 101 134 166 194 231
#     4   9  15  26  41  58  77 103 135 168 199 231
#     4  10  18  28  39  55  77 102 128 161 201 238
#
# _framework density 14.535197
#
# number of rings (size 3 to 8) (size 9 to 14) (size 15 to 20)
#    0.000    2.333    0.000    8.667    0.000    1.333 
#    0.000    4.167    0.000    0.000    0.000    0.000 
#    0.000    0.000    0.000    1.000    0.000   16.333 
#
# Total GULP energy -446121.780231 kJ/mol
# GULP energy per Si atom -12392.271673 kJ/mol
# Density = 1.450211 g / cm^3
# Si number density = 14.535197 Si / 1000 Ang^3
#
#
#
# Elastic Constant Matrix: (Units=GPa)
#
#
# Indices 1 2 3 4 5 6 
#
# 1 89.1252 46.7853 11.5528 0.0000 0.0000 0.0000
# 2 46.7853 89.1252 11.5528 0.0000 0.0000 0.0000
# 3 11.5528 11.5528 44.0114 0.0000 0.0000 0.0000
# 4 0.0000 0.0000 0.0000 9.1200 0.0000 0.0000
# 5 0.0000 0.0000 0.0000 0.0000 9.1200 0.0000
# 6 0.0000 0.0000 0.0000 0.0000 0.0000 21.1700
#
#
#
# Elastic Compliance Matrix: (Units=1/GPa)
#
#
# Indices 1 2 3 4 5 6 
#
# 1 0.015660 -0.007958 -0.002022 0.000000 0.000000 0.000000
# 2 -0.007958 0.015660 -0.002022 0.000000 0.000000 0.000000
# 3 -0.002022 -0.002022 0.023783 0.000000 0.000000 0.000000
# 4 0.000000 0.000000 0.000000 0.109649 0.000000 0.000000
# 5 0.000000 0.000000 0.000000 0.000000 0.109649 0.000000
# 6 0.000000 0.000000 0.000000 0.000000 0.000000 0.047237
#
#
# Mechanical properties :
#
#
# Convention : Reuss Voigt Hill
#
# Bulk Modulus (GPa) = 32.15511 40.22706 36.19108
# Shear Modulus (GPa) = 14.04464 18.04005 16.04234
#
# Velocity S-wave (km/s) = 3.11183 3.52679 3.32579
# Velocity P-wave (km/s) = 5.92297 6.65733 6.30086
#
# Compressibility (1/GPa) = 0.03109926
#
# Stress axis : x y z
#
# Youngs Moduli (GPa) = 63.85732 63.85732 42.04731
#
# Poissons Ratio (x) = 0.50820 0.08500
# Poissons Ratio (y) = 0.50820 0.08500
# Poissons Ratio (z) = 0.12909 0.12909
#
# Static dielectric constant tensor:
#      x y z
#    x 2.999000 0.000000 0.000000 
#    y 0.000000 2.999000 0.000000 
#    z 0.000000 0.000000 2.740560 
# 
# 
# High freq. dielectric constant tensor:
#      x y z
#    x 1.528870 0.000000 0.000000 
#    y 0.000000 1.528870 0.000000 
#    z 0.000000 0.000000 1.558580 
# 
# From -- ./inp_files/415.got.cif
#   From: 2010.03.12/outbox.cif.g09.slc.cpg/sg174_cif.got.tgz:415.got - 2010.04.02 06:54:58.
