data_PCOD8324115
_publ_section_title
;
Structure prediction by ZEFSAII (Michael W. Deem and Ramdas Pophale) SiO2 
 PCOD8324115
Probable space group: R -3 M
;
_chemical_formula_sum "Si O2"
_cell_formula_units_Z 144
_cell_length_a 21.301298
_cell_length_b 21.301298
_cell_length_c 20.284150
_cell_angle_alpha 90.000000
_cell_angle_beta 90.000000
_cell_angle_gamma 120.000000
_cell_volume 7970.757222
_symmetry_space_group_name_H-M "R -3 M"
_symmetry_group_IT_number 166
_symmetry_cell_setting 'hexagonal'
loop_
_space_group_symop_operation_xyz
x,y,z
-y,x-y,z
-x+y,-x,z
x-y,-y,-z
-x,-x+y,-z
y,x,-z
-x,-y,-z
y,-x+y,-z
x-y,x,-z
-x+y,y,z
x,x-y,z
-y,-x,z
2/3+x,1/3+y,1/3+z
2/3-y,1/3+x-y,1/3+z
2/3-x+y,1/3-x,1/3+z
2/3+x-y,1/3-y,1/3-z
2/3-x,1/3-x+y,1/3-z
2/3+y,1/3+x,1/3-z
2/3-x,1/3-y,1/3-z
2/3+y,1/3-x+y,1/3-z
2/3+x-y,1/3+x,1/3-z
2/3-x+y,1/3+y,1/3+z
2/3+x,1/3+x-y,1/3+z
2/3-y,1/3-x,1/3+z
1/3+x,2/3+y,2/3+z
1/3-y,2/3+x-y,2/3+z
1/3-x+y,2/3-x,2/3+z
1/3+x-y,2/3-y,2/3-z
1/3-x,2/3-x+y,2/3-z
1/3+y,2/3+x,2/3-z
1/3-x,2/3-y,2/3-z
1/3+y,2/3-x+y,2/3-z
1/3+x-y,2/3+x,2/3-z
1/3-x+y,2/3+y,2/3+z
1/3+x,2/3+x-y,2/3+z
1/3-y,2/3-x,2/3+z
loop_
_atom_site_type_symbol
_atom_site_label
_atom_site_fract_x
_atom_site_fract_y
_atom_site_fract_z
Si Si1 0.068759 0.696178 0.265075
Si Si2 0.075310 0.294840 0.136716
Si Si3 0.859490 0.999585 0.422507
Si Si4 0.477382 0.666630 0.742272
O O1 0.053796 0.720463 0.333334
O O2 0.074243 0.753918 0.210923
O O3 0.141968 0.693411 0.276209
O O4 0.005316 0.616561 0.247859
O O5 0.155568 0.311137 0.119547
O O6 0.017789 0.209907 0.125672
O O7 0.885882 0.942941 0.404152
O O8 0.847095 0.000000 0.500000
O O9 0.921077 0.078924 0.397684
O O10 0.488937 0.744469 0.762954
O O11 0.392702 0.607299 0.749400
O O12 0.501880 0.666667 0.666667
#
# Coordination Sequence:
#
# PCOD8324115 Si02
#       4
#    36  36  36  36
#     4  11  22  35  54  81 110 144 181 219 269 331
#     4  10  20  36  55  75 106 142 179 222 271 324
#     4  10  19  34  57  83 109 137 177 227 276 322
#     4   9  17  31  53  78 103 134 176 223 267 311
#
# _framework density 18.066039
#
# number of rings (size 3 to 8) (size 9 to 14) (size 15 to 20)
#    0.000    2.000    2.500    2.750    0.000    4.000 
#    0.000    6.250    0.000    0.000    0.000    3.500 
#    0.000    0.000    0.000    0.000    0.000    0.000 
#
# Total GULP energy -595168.048531 kJ/mol
# GULP energy per Si atom -12399.334344 kJ/mol
# Density = 1.802492 g / cm^3
# Si number density = 18.066039 Si / 1000 Ang^3
#
#
#
# Elastic Constant Matrix: (Units=GPa)
#
#
# Indices 1 2 3 4 5 6 
#
# 1 122.9567 58.2448 55.0222 2.2399 0.0003 0.0000
# 2 58.2448 122.9567 55.0222 -2.2399 -0.0003 0.0000
# 3 55.0222 55.0222 73.7696 0.0000 0.0000 0.0000
# 4 2.2399 -2.2399 0.0000 16.0129 0.0000 -0.0003
# 5 0.0003 -0.0003 0.0000 0.0000 16.0129 2.2399
# 6 0.0000 0.0000 0.0000 -0.0003 2.2399 32.3560
#
#
#
# Elastic Compliance Matrix: (Units=1/GPa)
#
#
# Indices 1 2 3 4 5 6 
#
# 1 0.012846 -0.002758 -0.007525 -0.002183 0.000000 0.000000
# 2 -0.002758 0.012846 -0.007525 0.002183 0.000000 0.000000
# 3 -0.007525 -0.007525 0.024780 0.000000 0.000000 0.000000
# 4 -0.002183 0.002183 0.000000 0.063060 0.000000 0.000001
# 5 0.000000 0.000000 0.000000 0.000000 0.063060 -0.004365
# 6 0.000000 0.000000 0.000000 0.000001 -0.004365 0.031208
#
#
# Mechanical properties :
#
#
# Convention : Reuss Voigt Hill
#
# Bulk Modulus (GPa) = 67.30007 72.91795 70.10901
# Shear Modulus (GPa) = 20.13128 22.96925 21.55027
#
# Velocity S-wave (km/s) = 3.34176 3.56955 3.45753
# Velocity P-wave (km/s) = 7.22654 7.57881 7.40477
#
# Compressibility (1/GPa) = 0.01485883
#
# Stress axis : x y z
#
# Youngs Moduli (GPa) = 77.84321 77.84321 40.35436
#
# Poissons Ratio (x) = 0.21468 0.30365
# Poissons Ratio (y) = 0.21468 0.30365
# Poissons Ratio (z) = 0.58574 0.58574
#
# Static dielectric constant tensor:
#      x y z
#    x 3.490740 0.000000 0.000000 
#    y 0.000000 3.490740 0.000000 
#    z 0.000000 0.000000 3.057120 
# 
# 
# High freq. dielectric constant tensor:
#      x y z
#    x 1.712030 0.000000 0.000000 
#    y 0.000000 1.712030 0.000000 
#    z 0.000000 0.000000 1.662080 
# 
# From -- ./inp_files/6584.got.cif
#   From: 2010.03.12/outbox.cif.g09.slc.cpg/sg166_4_cif.got.tgz:6584.got - 2010.04.02 06:38:31.
