data_PCOD8324460
_publ_section_title
;
Structure prediction by ZEFSAII (Michael W. Deem and Ramdas Pophale) SiO2 
 PCOD8324460
Probable space group: P 61
;
_chemical_formula_sum "Si O2"
_cell_formula_units_Z 42
_cell_length_a 13.444858
_cell_length_b 13.444858
_cell_length_c 13.901389
_cell_angle_alpha 90.000000
_cell_angle_beta 90.000000
_cell_angle_gamma 120.000000
_cell_volume 2176.212334
_symmetry_space_group_name_H-M "P 61"
_symmetry_group_IT_number 169
_symmetry_cell_setting 'hexagonal'
loop_
_space_group_symop_operation_xyz
x,y,z
x-y,x,1/6+z
-y,x-y,1/3+z
-x,-y,1/2+z
-x+y,-x,2/3+z
y,-x+y,5/6+z
loop_
_atom_site_type_symbol
_atom_site_label
_atom_site_fract_x
_atom_site_fract_y
_atom_site_fract_z
Si Si1 0.965158 0.487778 0.024010
Si Si2 0.015242 0.863695 0.568005
Si Si3 0.203887 0.524449 0.036587
Si Si4 0.013647 0.625273 0.848118
Si Si5 0.819733 0.219460 0.020541
Si Si6 0.612880 0.158581 0.884554
Si Si7 0.140781 0.352751 0.194665
O O1 0.917130 0.352650 0.012981
O O2 0.909387 0.509441 0.118537
O O3 0.106243 0.559923 0.021904
O O4 0.932917 0.535065 0.929304
O O5 0.118885 0.855899 0.517360
O O6 0.958983 0.900917 0.484355
O O7 0.924235 0.744157 0.615127
O O8 0.339281 0.623540 0.032923
O O9 0.179336 0.472696 0.142720
O O10 0.190759 0.434269 0.955582
O O11 0.079409 0.576381 0.783821
O O12 0.101379 0.744818 0.899642
O O13 0.937151 0.658590 0.783588
O O14 0.729950 0.181811 0.933429
#
# Coordination Sequence:
#
# PCOD8324460 Si02
#       7
#     6   6   6   6   6   6   6
#     4  11  21  38  58  91 129 165 205 258 316 378
#     4  12  22  40  72  98 117 163 226 276 311 365
#     4  10  18  36  61  88 116 157 212 258 296 377
#     4  11  22  36  63  93 126 161 208 264 320 376
#     4  11  20  38  64  90 123 164 212 258 313 381
#     4  10  22  36  60  92 126 162 206 256 320 383
#     4  11  19  38  64  92 115 160 215 264 308 366
#
# _framework density 19.299586999999999
#
# number of rings (size 3 to 8) (size 9 to 14) (size 15 to 20)
#    0.000    1.143    7.143    0.857    0.000    1.143 
#    2.571    2.857    0.000    0.000    0.000    0.000 
#    0.000    0.000    0.000    0.000    0.000    0.000 
#
# Total GULP energy -520599.815864 kJ/mol
# GULP energy per Si atom -12395.233711 kJ/mol
# Density = 1.925566 g / cm^3
# Si number density = 19.299587 Si / 1000 Ang^3
#
#
#
# Elastic Constant Matrix: (Units=GPa)
#
#
# Indices 1 2 3 4 5 6 
#
# 1 59.1405 21.1125 44.2703 0.0000 0.0000 0.0000
# 2 21.1125 59.1405 44.2703 0.0000 0.0000 0.0000
# 3 44.2703 44.2703 109.0259 0.0000 0.0000 0.0000
# 4 0.0000 0.0000 0.0000 36.7282 0.0000 0.0000
# 5 0.0000 0.0000 0.0000 0.0000 36.7282 0.0000
# 6 0.0000 0.0000 0.0000 0.0000 0.0000 19.0140
#
#
#
# Elastic Compliance Matrix: (Units=1/GPa)
#
#
# Indices 1 2 3 4 5 6 
#
# 1 0.024435 -0.001862 -0.009166 0.000000 0.000000 0.000000
# 2 -0.001862 0.024435 -0.009166 0.000000 0.000000 0.000000
# 3 -0.009166 -0.009166 0.016616 0.000000 0.000000 0.000000
# 4 0.000000 0.000000 0.000000 0.027227 0.000000 0.000000
# 5 0.000000 0.000000 0.000000 0.000000 0.027227 0.000000
# 6 0.000000 0.000000 0.000000 0.000000 0.000000 0.052593
#
#
# Mechanical properties :
#
#
# Convention : Reuss Voigt Hill
#
# Bulk Modulus (GPa) = 39.84320 49.62369 44.73344
# Shear Modulus (GPa) = 22.59529 26.33764 24.46647
#
# Velocity S-wave (km/s) = 3.42536 3.69816 3.56437
# Velocity P-wave (km/s) = 6.02773 6.63350 6.33785
#
# Compressibility (1/GPa) = 0.02509838
#
# Stress axis : x y z
#
# Youngs Moduli (GPa) = 40.92540 40.92540 60.18383
#
# Poissons Ratio (x) = 0.07619 0.55163
# Poissons Ratio (y) = 0.07619 0.55163
# Poissons Ratio (z) = 0.37512 0.37512
#
# Static dielectric constant tensor:
#      x y z
#    x 3.494110 0.000000 0.000000 
#    y 0.000000 3.494110 0.000000 
#    z 0.000000 0.000000 3.540320 
# 
# 
# High freq. dielectric constant tensor:
#      x y z
#    x 1.737290 0.000000 0.000000 
#    y 0.000000 1.737290 0.000000 
#    z 0.000000 0.000000 1.750430 
# 
# From -- ./inp_files/948.got.cif
#   From: 2010.03.12/outbox.cif.g09.slc.cpg/sg169_cif.got.tgz:948.got - 2010.04.02 06:46:06.
