data_PCOD8324841
_publ_section_title
;
Structure prediction by ZEFSAII (Michael W. Deem and Ramdas Pophale) SiO2 
 PCOD8324841
Probable space group: P 63
;
_chemical_formula_sum "Si O2"
_cell_formula_units_Z 34
_cell_length_a 11.336856
_cell_length_b 11.336856
_cell_length_c 18.243324
_cell_angle_alpha 90.000000
_cell_angle_beta 90.000000
_cell_angle_gamma 120.000000
_cell_volume 2030.578874
_symmetry_space_group_name_H-M "P 63"
_symmetry_group_IT_number 173
_symmetry_cell_setting 'hexagonal'
loop_
_space_group_symop_operation_xyz
x,y,z
x-y,x,1/2+z
-y,x-y,z
-x,-y,1/2+z
-x+y,-x,z
y,-x+y,1/2+z
loop_
_atom_site_type_symbol
_atom_site_label
_atom_site_fract_x
_atom_site_fract_y
_atom_site_fract_z
Si Si1 0.072734 0.674233 0.708690
Si Si2 0.906405 0.080998 0.938362
Si Si3 0.817297 0.171431 0.795820
Si Si4 0.373847 0.196399 0.071442
Si Si5 0.933498 0.601290 0.212946
Si Si6 0.333333 0.666667 0.502138
Si Si7 0.333335 0.666668 0.329790
O O1 0.076431 0.702596 0.620919
O O2 0.221766 0.781967 0.741709
O O3 0.039213 0.522407 0.725615
O O4 0.962026 0.702385 0.746184
O O5 0.844426 0.132067 0.875748
O O6 0.071801 0.154708 0.932614
O O7 0.868022 0.115787 0.016671
O O8 0.726389 0.241978 0.799892
O O9 0.959821 0.269189 0.757944
O O10 0.360757 0.302706 0.126298
O O11 0.514672 0.278576 0.028953
O O12 0.333334 0.666667 0.416014
#
# Coordination Sequence:
#
# PCOD8324841 Si02
#       7
#     6   6   6   6   6   2   2
#     4  10  21  36  60  87 116 152 198 244 300 353
#     4  10  24  38  54  82 115 160 199 238 290 356
#     4  12  22  39  56  86 124 153 194 252 299 356
#     4  10  20  35  60  84 114 148 197 242 289 356
#     4  10  21  36  60  87 116 152 198 244 300 353
#     4  12  18  39  60  84 111 151 197 244 294 348
#     4  12  24  33  60  90 114 154 191 244 312 348
#
# _framework density 16.743994000000001
#
# number of rings (size 3 to 8) (size 9 to 14) (size 15 to 20)
#    1.412    0.000    5.294    1.412    2.471    0.000 
#    1.059    0.000    0.000    0.000    0.000    0.000 
#    0.000    0.000    0.000    0.000    0.000    0.000 
#
# Total GULP energy -421375.195346 kJ/mol
# GULP energy per Si atom -12393.388098 kJ/mol
# Density = 1.670588 g / cm^3
# Si number density = 16.743994 Si / 1000 Ang^3
#
#
#
# Elastic Constant Matrix: (Units=GPa)
#
#
# Indices 1 2 3 4 5 6 
#
# 1 79.2373 21.6857 26.8842 0.0000 0.0000 -0.0007
# 2 21.6857 79.2379 26.8844 0.0000 0.0000 -0.0010
# 3 26.8842 26.8844 72.1843 0.0000 0.0000 0.0002
# 4 0.0000 0.0000 0.0000 33.4926 0.0000 0.0000
# 5 0.0000 0.0000 0.0000 0.0000 33.4925 0.0000
# 6 -0.0007 -0.0010 0.0002 0.0000 0.0000 28.7760
#
#
#
# Elastic Compliance Matrix: (Units=1/GPa)
#
#
# Indices 1 2 3 4 5 6 
#
# 1 0.014869 -0.002507 -0.004604 0.000000 0.000000 0.000000
# 2 -0.002507 0.014868 -0.004604 0.000000 0.000000 0.000000
# 3 -0.004604 -0.004604 0.017283 0.000000 0.000000 0.000000
# 4 0.000000 0.000000 0.000000 0.029857 0.000000 0.000000
# 5 0.000000 0.000000 0.000000 0.000000 0.029857 0.000000
# 6 0.000000 0.000000 0.000000 0.000000 0.000000 0.034751
#
#
# Mechanical properties :
#
#
# Convention : Reuss Voigt Hill
#
# Bulk Modulus (GPa) = 42.39090 42.39645 42.39367
# Shear Modulus (GPa) = 28.93876 29.49922 29.21899
#
# Velocity S-wave (km/s) = 4.16180 4.20191 4.18190
# Velocity P-wave (km/s) = 6.96176 6.99405 6.97793
#
# Compressibility (1/GPa) = 0.02358997
#
# Stress axis : x y z
#
# Youngs Moduli (GPa) = 67.25626 67.25673 57.86126
#
# Poissons Ratio (x) = 0.16862 0.26638
# Poissons Ratio (y) = 0.16862 0.26638
# Poissons Ratio (z) = 0.30964 0.30964
#
# Static dielectric constant tensor:
#      x y z
#    x 3.034580 0.000000 0.000000 
#    y 0.000000 3.034590 0.000000 
#    z 0.000000 0.000000 3.147180 
# 
# 
# High freq. dielectric constant tensor:
#      x y z
#    x 1.644020 0.000000 0.000000 
#    y 0.000000 1.644020 0.000000 
#    z 0.000000 0.000000 1.644650 
# 
# From -- ./inp_files/1244.got.cif
#   From: 2010.03.12/outbox.cif.g09.slc.cpg/sg173_cif.got.tgz:1244.got - 2010.04.02 06:54:12.
