data_PCOD8324129
_publ_section_title
;
Structure prediction by ZEFSAII (Michael W. Deem and Ramdas Pophale) SiO2 
 PCOD8324129
Probable space group: R -3 M
;
_chemical_formula_sum "Si O2"
_cell_formula_units_Z 162
_cell_length_a 27.999777
_cell_length_b 27.999777
_cell_length_c 13.290764
_cell_angle_alpha 90.000000
_cell_angle_beta 90.000000
_cell_angle_gamma 120.000000
_cell_volume 9023.805442
_symmetry_space_group_name_H-M "R -3 M"
_symmetry_group_IT_number 166
_symmetry_cell_setting 'hexagonal'
loop_
_space_group_symop_operation_xyz
x,y,z
-y,x-y,z
-x+y,-x,z
x-y,-y,-z
-x,-x+y,-z
y,x,-z
-x,-y,-z
y,-x+y,-z
x-y,x,-z
-x+y,y,z
x,x-y,z
-y,-x,z
2/3+x,1/3+y,1/3+z
2/3-y,1/3+x-y,1/3+z
2/3-x+y,1/3-x,1/3+z
2/3+x-y,1/3-y,1/3-z
2/3-x,1/3-x+y,1/3-z
2/3+y,1/3+x,1/3-z
2/3-x,1/3-y,1/3-z
2/3+y,1/3-x+y,1/3-z
2/3+x-y,1/3+x,1/3-z
2/3-x+y,1/3+y,1/3+z
2/3+x,1/3+x-y,1/3+z
2/3-y,1/3-x,1/3+z
1/3+x,2/3+y,2/3+z
1/3-y,2/3+x-y,2/3+z
1/3-x+y,2/3-x,2/3+z
1/3+x-y,2/3-y,2/3-z
1/3-x,2/3-x+y,2/3-z
1/3+y,2/3+x,2/3-z
1/3-x,2/3-y,2/3-z
1/3+y,2/3-x+y,2/3-z
1/3+x-y,2/3+x,2/3-z
1/3-x+y,2/3+y,2/3+z
1/3+x,2/3+x-y,2/3+z
1/3-y,2/3-x,2/3+z
loop_
_atom_site_type_symbol
_atom_site_label
_atom_site_fract_x
_atom_site_fract_y
_atom_site_fract_z
Si Si1 0.883953 0.387356 0.111083
Si Si2 0.225122 0.168038 0.550561
Si Si3 0.929018 0.254443 0.849442
Si Si4 0.000000 0.339238 0.000000
Si Si5 0.890478 0.000395 0.117777
O O1 0.868608 0.434304 0.103250
O O2 0.937733 0.409689 0.182049
O O3 0.829486 0.336370 0.159868
O O4 0.895807 0.374501 0.998812
O O5 0.179477 0.179477 0.500000
O O6 0.207380 0.103690 0.538595
O O7 0.285724 0.204863 0.503524
O O8 0.973068 0.286688 0.761314
O O9 0.950239 0.281198 0.959254
O O10 0.943233 0.056768 0.153550
O O11 0.901267 0.950634 0.145987
O O12 0.879660 0.000000 0.000000
#
# Coordination Sequence:
#
# PCOD8324129 Si02
#       5
#    36  36  36  18  36
#     4  10  20  32  52  80 105 135 178 224 266 313
#     4  11  21  36  56  79 108 140 181 222 267 320
#     4  11  18  35  51  79 104 143 172 217 263 318
#     4  10  20  30  55  72 108 132 175 204 254 320
#     4   9  18  33  52  75 104 140 181 223 271 323
#
# _framework density 17.952514999999998
#
# number of rings (size 3 to 8) (size 9 to 14) (size 15 to 20)
#    0.000    1.778    4.444    0.889    1.556    3.556 
#    0.000    0.000    0.000    0.222    0.000    6.222 
#    0.000    0.000    0.000    0.000    0.000    0.000 
#
# Total GULP energy -669283.553870 kJ/mol
# GULP energy per Si atom -12394.139886 kJ/mol
# Density = 1.791165 g / cm^3
# Si number density = 17.952515 Si / 1000 Ang^3
#
#
#
# Elastic Constant Matrix: (Units=GPa)
#
#
# Indices 1 2 3 4 5 6 
#
# 1 98.2229 37.9782 28.1108 -5.4965 0.0005 0.0000
# 2 37.9782 98.2228 28.1102 5.4965 0.0000 0.0000
# 3 28.1108 28.1102 47.4213 0.0002 0.0026 -0.0004
# 4 -5.4965 5.4965 0.0002 28.7408 -0.0001 -0.0001
# 5 0.0005 0.0000 0.0026 -0.0001 28.7431 -5.4970
# 6 0.0000 0.0000 -0.0004 -0.0001 -5.4970 30.1223
#
#
#
# Elastic Compliance Matrix: (Units=1/GPa)
#
#
# Indices 1 2 3 4 5 6 
#
# 1 0.013460 -0.003739 -0.005762 0.003289 0.000000 0.000000
# 2 -0.003739 0.013460 -0.005762 -0.003289 0.000001 0.000000
# 3 -0.005762 -0.005762 0.027919 0.000000 -0.000002 0.000000
# 4 0.003289 -0.003289 0.000000 0.036052 0.000000 0.000000
# 5 0.000000 0.000001 -0.000002 0.000000 0.036049 0.006579
# 6 0.000000 0.000000 0.000000 0.000000 0.006579 0.034399
#
#
# Mechanical properties :
#
#
# Convention : Reuss Voigt Hill
#
# Bulk Modulus (GPa) = 41.13289 48.02949 44.58119
# Shear Modulus (GPa) = 25.00382 27.49909 26.25145
#
# Velocity S-wave (km/s) = 3.73604 3.91803 3.82811
# Velocity P-wave (km/s) = 6.44767 6.87602 6.66529
#
# Compressibility (1/GPa) = 0.02431145
#
# Stress axis : x y z
#
# Youngs Moduli (GPa) = 74.29452 74.29511 35.81784
#
# Poissons Ratio (x) = 0.27781 0.20639
# Poissons Ratio (y) = 0.27781 0.20638
# Poissons Ratio (z) = 0.42811 0.42809
#
# Static dielectric constant tensor:
#      x y z
#    x 3.314930 0.000000 0.000000 
#    y 0.000000 3.314930 0.000000 
#    z 0.000000 0.000000 3.550850 
# 
# 
# High freq. dielectric constant tensor:
#      x y z
#    x 1.689050 0.000000 0.000000 
#    y 0.000000 1.689050 0.000000 
#    z 0.000000 0.000000 1.684520 
# 
# From -- ./inp_files/4228.got.cif
#   From: 2010.03.12/outbox.cif.g09.slc.cpg/sg166_3_cif.got.tgz:4228.got - 2010.04.02 06:38:31.
