data_PCOD8324260
_publ_section_title
;
Structure prediction by ZEFSAII (Michael W. Deem and Ramdas Pophale) SiO2 
 PCOD8324260
Probable space group: R -3 M
;
_chemical_formula_sum "Si O2"
_cell_formula_units_Z 108
_cell_length_a 13.551371
_cell_length_b 13.551371
_cell_length_c 43.501571
_cell_angle_alpha 90.000000
_cell_angle_beta 90.000000
_cell_angle_gamma 120.000000
_cell_volume 6918.342261
_symmetry_space_group_name_H-M "R -3 M"
_symmetry_group_IT_number 166
_symmetry_cell_setting 'hexagonal'
loop_
_space_group_symop_operation_xyz
x,y,z
-y,x-y,z
-x+y,-x,z
x-y,-y,-z
-x,-x+y,-z
y,x,-z
-x,-y,-z
y,-x+y,-z
x-y,x,-z
-x+y,y,z
x,x-y,z
-y,-x,z
2/3+x,1/3+y,1/3+z
2/3-y,1/3+x-y,1/3+z
2/3-x+y,1/3-x,1/3+z
2/3+x-y,1/3-y,1/3-z
2/3-x,1/3-x+y,1/3-z
2/3+y,1/3+x,1/3-z
2/3-x,1/3-y,1/3-z
2/3+y,1/3-x+y,1/3-z
2/3+x-y,1/3+x,1/3-z
2/3-x+y,1/3+y,1/3+z
2/3+x,1/3+x-y,1/3+z
2/3-y,1/3-x,1/3+z
1/3+x,2/3+y,2/3+z
1/3-y,2/3+x-y,2/3+z
1/3-x+y,2/3-x,2/3+z
1/3+x-y,2/3-y,2/3-z
1/3-x,2/3-x+y,2/3-z
1/3+y,2/3+x,2/3-z
1/3-x,2/3-y,2/3-z
1/3+y,2/3-x+y,2/3-z
1/3+x-y,2/3+x,2/3-z
1/3-x+y,2/3+y,2/3+z
1/3+x,2/3+x-y,2/3+z
1/3-y,2/3-x,2/3+z
loop_
_atom_site_type_symbol
_atom_site_label
_atom_site_fract_x
_atom_site_fract_y
_atom_site_fract_z
Si Si1 0.439248 0.333018 0.868862
Si Si2 0.666261 0.105885 0.646749
Si Si3 0.227363 0.000386 0.242231
O O1 0.429504 0.214752 0.878664
O O2 0.567622 0.432379 0.875659
O O3 0.408062 0.333334 0.833334
O O4 0.349178 0.348870 0.889022
O O5 0.548821 0.097642 0.656738
O O6 0.766531 0.233470 0.653814
O O7 0.681608 0.014942 0.666667
O O8 0.665431 0.075081 0.611155
O O9 0.099504 0.900497 0.235278
O O10 0.236358 0.118179 0.232232
#
# Coordination Sequence:
#
# PCOD8324260 Si02
#       3
#    36  36  36
#     4   9  17  29  45  65  89 116 144 175 213 256
#     4   9  17  29  45  65  88 113 141 175 216 258
#     4   9  17  29  45  64  86 113 144 178 215 254
#
# _framework density 15.610676
#
# number of rings (size 3 to 8) (size 9 to 14) (size 15 to 20)
#    0.000    3.000    0.000    1.000    0.000    6.000 
#    0.000    0.000    0.000    5.000    0.000    0.000 
#    0.000    0.000    0.000    0.000    0.000    0.000 
#
# Total GULP energy -446458.896640 kJ/mol
# GULP energy per Si atom -12401.636018 kJ/mol
# Density = 1.557514 g / cm^3
# Si number density = 15.610676 Si / 1000 Ang^3
#
#
#
# Elastic Constant Matrix: (Units=GPa)
#
#
# Indices 1 2 3 4 5 6 
#
# 1 120.7318 69.6346 61.5344 2.2284 -0.0005 0.0000
# 2 69.6346 120.7318 61.5344 -2.2284 0.0005 0.0000
# 3 61.5344 61.5344 64.5466 0.0000 0.0000 0.0000
# 4 2.2284 -2.2284 0.0000 28.9425 0.0000 0.0005
# 5 -0.0005 0.0005 0.0000 0.0000 28.9425 2.2284
# 6 0.0000 0.0000 0.0000 0.0005 2.2284 25.5486
#
#
#
# Elastic Compliance Matrix: (Units=1/GPa)
#
#
# Indices 1 2 3 4 5 6 
#
# 1 0.016697 -0.003006 -0.013052 -0.001517 0.000000 0.000000
# 2 -0.003006 0.016697 -0.013052 0.001517 0.000000 0.000000
# 3 -0.013052 -0.013052 0.040379 0.000000 0.000000 0.000000
# 4 -0.001517 0.001517 0.000000 0.034785 0.000000 -0.000001
# 5 0.000000 0.000000 0.000000 0.000000 0.034785 -0.003034
# 6 0.000000 0.000000 0.000000 -0.000001 -0.003034 0.039406
#
#
# Mechanical properties :
#
#
# Convention : Reuss Voigt Hill
#
# Bulk Modulus (GPa) = 64.29910 76.82410 70.56160
# Shear Modulus (GPa) = 20.31267 24.24052 22.27659
#
# Velocity S-wave (km/s) = 3.61113 3.94485 3.78168
# Velocity P-wave (km/s) = 7.65935 8.37070 8.02291
#
# Compressibility (1/GPa) = 0.01555232
#
# Stress axis : x y z
#
# Youngs Moduli (GPa) = 59.89137 59.89137 24.76564
#
# Poissons Ratio (x) = 0.18003 0.32324
# Poissons Ratio (y) = 0.18003 0.32324
# Poissons Ratio (z) = 0.78170 0.78170
#
# Static dielectric constant tensor:
#      x y z
#    x 2.936220 0.000000 0.000000 
#    y 0.000000 2.936220 0.000000 
#    z 0.000000 0.000000 2.977960 
# 
# 
# High freq. dielectric constant tensor:
#      x y z
#    x 1.590940 0.000000 0.000000 
#    y 0.000000 1.590940 0.000000 
#    z 0.000000 0.000000 1.598150 
# 
# From -- ./inp_files/10083.got.cif
#   From: 2010.03.12/outbox.cif.g09.slc.cpg/sg166_6_cif.got.tgz:10083.got - 2010.04.02 06:38:31.
