data_PCOD8324200
_publ_section_title
;
Structure prediction by ZEFSAII (Michael W. Deem and Ramdas Pophale) SiO2 
 PCOD8324200
Probable space group: R -3 M
;
_chemical_formula_sum "Si O2"
_cell_formula_units_Z 126
_cell_length_a 21.355926
_cell_length_b 21.355926
_cell_length_c 15.364666
_cell_angle_alpha 90.000000
_cell_angle_beta 90.000000
_cell_angle_gamma 120.000000
_cell_volume 6068.628751
_symmetry_space_group_name_H-M "R -3 M"
_symmetry_group_IT_number 166
_symmetry_cell_setting 'hexagonal'
loop_
_space_group_symop_operation_xyz
x,y,z
-y,x-y,z
-x+y,-x,z
x-y,-y,-z
-x,-x+y,-z
y,x,-z
-x,-y,-z
y,-x+y,-z
x-y,x,-z
-x+y,y,z
x,x-y,z
-y,-x,z
2/3+x,1/3+y,1/3+z
2/3-y,1/3+x-y,1/3+z
2/3-x+y,1/3-x,1/3+z
2/3+x-y,1/3-y,1/3-z
2/3-x,1/3-x+y,1/3-z
2/3+y,1/3+x,1/3-z
2/3-x,1/3-y,1/3-z
2/3+y,1/3-x+y,1/3-z
2/3+x-y,1/3+x,1/3-z
2/3-x+y,1/3+y,1/3+z
2/3+x,1/3+x-y,1/3+z
2/3-y,1/3-x,1/3+z
1/3+x,2/3+y,2/3+z
1/3-y,2/3+x-y,2/3+z
1/3-x+y,2/3-x,2/3+z
1/3+x-y,2/3-y,2/3-z
1/3-x,2/3-x+y,2/3-z
1/3+y,2/3+x,2/3-z
1/3-x,2/3-y,2/3-z
1/3+y,2/3-x+y,2/3-z
1/3+x-y,2/3+x,2/3-z
1/3-x+y,2/3+y,2/3+z
1/3+x,2/3+x-y,2/3+z
1/3-y,2/3-x,2/3+z
loop_
_atom_site_type_symbol
_atom_site_label
_atom_site_fract_x
_atom_site_fract_y
_atom_site_fract_z
Si Si1 0.290526 0.437973 0.988491
Si Si2 0.453789 0.409163 0.409799
Si Si3 0.932695 0.394111 0.164487
Si Si4 0.909542 0.333334 0.833334
O O1 0.229086 0.458172 0.964139
O O2 0.320242 0.463840 0.085504
O O3 0.255265 0.350219 0.996262
O O4 0.353808 0.473517 0.917318
O O5 0.427765 0.427765 0.500000
O O6 0.540380 0.459621 0.399443
O O7 0.429997 0.324249 0.415504
O O8 0.928135 0.464068 0.189048
O O9 0.013693 0.415172 0.140254
#
# Coordination Sequence:
#
# PCOD8324200 Si02
#       4
#    36  36  36  18
#     4  10  21  38  58  78 113 159 194 233 290 347
#     4   8  15  33  57  78 105 147 191 237 291 344
#     4  11  21  33  56  86 115 150 191 241 292 342
#     4  12  22  34  51  84 119 148 188 238 288 350
#
# _framework density 20.762515
#
# number of rings (size 3 to 8) (size 9 to 14) (size 15 to 20)
#    0.000    2.000    4.286    4.286    0.000    3.429 
#    0.000    0.000    0.000    6.286    0.000    1.000 
#    0.000    0.000    0.000   36.571    0.000    0.000 
#
# Total GULP energy -520756.394915 kJ/mol
# GULP energy per Si atom -12398.961784 kJ/mol
# Density = 2.071526 g / cm^3
# Si number density = 20.762515 Si / 1000 Ang^3
#
#
#
# Elastic Constant Matrix: (Units=GPa)
#
#
# Indices 1 2 3 4 5 6 
#
# 1 92.5387 36.0850 -3.2589 0.2973 0.0000 0.0000
# 2 36.0850 92.5387 -3.2589 -0.2973 0.0000 0.0000
# 3 -3.2589 -3.2589 64.6521 0.0000 0.0000 0.0000
# 4 0.2973 -0.2973 0.0000 18.6032 0.0000 0.0000
# 5 0.0000 0.0000 0.0000 0.0000 18.6032 0.2973
# 6 0.0000 0.0000 0.0000 0.0000 0.2973 28.2268
#
#
#
# Elastic Compliance Matrix: (Units=1/GPa)
#
#
# Indices 1 2 3 4 5 6 
#
# 1 0.012756 -0.004961 0.000393 -0.000283 0.000000 0.000000
# 2 -0.004961 0.012756 0.000393 0.000283 0.000000 0.000000
# 3 0.000393 0.000393 0.015507 0.000000 0.000000 0.000000
# 4 -0.000283 0.000283 0.000000 0.053763 0.000000 0.000000
# 5 0.000000 0.000000 0.000000 0.000000 0.053763 -0.000566
# 6 0.000000 0.000000 0.000000 0.000000 -0.000566 0.035433
#
#
# Mechanical properties :
#
#
# Convention : Reuss Voigt Hill
#
# Bulk Modulus (GPa) = 30.61129 34.31818 32.46474
# Shear Modulus (GPa) = 24.60413 27.76411 26.18412
#
# Velocity S-wave (km/s) = 3.44616 3.66077 3.55508
# Velocity P-wave (km/s) = 5.53265 5.86798 5.70278
#
# Compressibility (1/GPa) = 0.03266768
#
# Stress axis : x y z
#
# Youngs Moduli (GPa) = 78.39710 78.39710 64.48692
#
# Poissons Ratio (x) = 0.38893 -0.02534
# Poissons Ratio (y) = 0.38893 -0.02534
# Poissons Ratio (z) = -0.03080 -0.03080
#
# Static dielectric constant tensor:
#      x y z
#    x 3.604780 0.000000 0.000000 
#    y 0.000000 3.604780 0.000000 
#    z 0.000000 0.000000 3.993440 
# 
# 
# High freq. dielectric constant tensor:
#      x y z
#    x 1.779720 0.000000 0.000000 
#    y 0.000000 1.779720 0.000000 
#    z 0.000000 0.000000 1.841270 
# 
# From -- ./inp_files/4958.got.cif
#   From: 2010.03.12/outbox.cif.g09.slc.cpg/sg166_3_cif.got.tgz:4958.got - 2010.04.02 06:38:31.
