data_PCOD8324156
_publ_section_title
;
Structure prediction by ZEFSAII (Michael W. Deem and Ramdas Pophale) SiO2 
 PCOD8324156
Probable space group: R -3 M
;
_chemical_formula_sum "Si O2"
_cell_formula_units_Z 144
_cell_length_a 30.918306
_cell_length_b 30.918306
_cell_length_c 9.099488
_cell_angle_alpha 90.000000
_cell_angle_beta 90.000000
_cell_angle_gamma 120.000000
_cell_volume 7533.190855
_symmetry_space_group_name_H-M "R -3 M"
_symmetry_group_IT_number 166
_symmetry_cell_setting 'hexagonal'
loop_
_space_group_symop_operation_xyz
x,y,z
-y,x-y,z
-x+y,-x,z
x-y,-y,-z
-x,-x+y,-z
y,x,-z
-x,-y,-z
y,-x+y,-z
x-y,x,-z
-x+y,y,z
x,x-y,z
-y,-x,z
2/3+x,1/3+y,1/3+z
2/3-y,1/3+x-y,1/3+z
2/3-x+y,1/3-x,1/3+z
2/3+x-y,1/3-y,1/3-z
2/3-x,1/3-x+y,1/3-z
2/3+y,1/3+x,1/3-z
2/3-x,1/3-y,1/3-z
2/3+y,1/3-x+y,1/3-z
2/3+x-y,1/3+x,1/3-z
2/3-x+y,1/3+y,1/3+z
2/3+x,1/3+x-y,1/3+z
2/3-y,1/3-x,1/3+z
1/3+x,2/3+y,2/3+z
1/3-y,2/3+x-y,2/3+z
1/3-x+y,2/3-x,2/3+z
1/3+x-y,2/3-y,2/3-z
1/3-x,2/3-x+y,2/3-z
1/3+y,2/3+x,2/3-z
1/3-x,2/3-y,2/3-z
1/3+y,2/3-x+y,2/3-z
1/3+x-y,2/3+x,2/3-z
1/3-x+y,2/3+y,2/3+z
1/3+x,2/3+x-y,2/3+z
1/3-y,2/3-x,2/3+z
loop_
_atom_site_type_symbol
_atom_site_label
_atom_site_fract_x
_atom_site_fract_y
_atom_site_fract_z
Si Si1 0.093571 0.812121 0.907775
Si Si2 0.567435 0.234013 0.662540
Si Si3 0.335148 0.478036 0.489749
Si Si4 0.425351 0.471960 0.901480
O O1 0.128062 0.871939 0.931101
O O2 0.125180 0.791847 0.833334
O O3 0.048370 0.802317 0.799683
O O4 0.079743 0.785899 0.067263
O O5 0.623916 0.247831 0.628520
O O6 0.561157 0.280579 0.613080
O O7 0.555179 0.221846 0.833334
O O8 0.530394 0.185271 0.571555
O O9 0.333334 0.481135 0.666667
O O10 0.288800 0.434519 0.397061
O O11 0.475159 0.524842 0.922493
O O12 0.430803 0.430803 0.000000
#
# Coordination Sequence:
#
# PCOD8324156 Si02
#       4
#    36  36  36  36
#     4   9  18  33  52  73 100 134 169 209 260 315
#     4  10  21  36  54  78 110 147 185 225 268 315
#     4  10  20  35  55  80 107 136 174 222 270 318
#     4   9  18  33  52  74 101 133 169 212 262 314
#
# _framework density 19.115406
#
# number of rings (size 3 to 8) (size 9 to 14) (size 15 to 20)
#    0.000    2.500    0.000    1.750    0.000    6.000 
#    0.000    8.750    0.000    1.500    0.000    0.000 
#    0.000    0.000    0.000    0.000    0.000    0.000 
#
# Total GULP energy -594638.034606 kJ/mol
# GULP energy per Si atom -12388.292388 kJ/mol
# Density = 1.907190 g / cm^3
# Si number density = 19.115406 Si / 1000 Ang^3
#
#
#
# Elastic Constant Matrix: (Units=GPa)
#
#
# Indices 1 2 3 4 5 6 
#
# 1 98.3753 50.3170 42.0997 -3.8331 -0.0141 0.0391
# 2 50.3170 98.3502 42.1358 3.8537 0.0340 -0.0038
# 3 42.0997 42.1358 51.5124 0.1208 0.1216 0.0808
# 4 -3.8331 3.8537 0.1208 28.7514 0.0471 0.0100
# 5 -0.0141 0.0340 0.1216 0.0471 28.7536 -3.8176
# 6 0.0391 -0.0038 0.0808 0.0100 -3.8176 24.0458
#
#
#
# Elastic Compliance Matrix: (Units=1/GPa)
#
#
# Indices 1 2 3 4 5 6 
#
# 1 0.016895 -0.004369 -0.010241 0.002881 0.000054 0.000014
# 2 -0.004369 0.016904 -0.010250 -0.002805 0.000033 0.000051
# 3 -0.010241 -0.010250 0.036168 -0.000143 -0.000163 -0.000132
# 4 0.002881 -0.002805 -0.000143 0.035542 -0.000057 -0.000028
# 5 0.000054 0.000033 -0.000163 -0.000057 0.035528 0.005641
# 6 0.000014 0.000051 -0.000132 -0.000028 0.005641 0.042483
#
#
# Mechanical properties :
#
#
# Convention : Reuss Voigt Hill
#
# Bulk Modulus (GPa) = 49.39069 57.48253 53.43661
# Shear Modulus (GPa) = 20.83436 23.88919 22.36178
#
# Velocity S-wave (km/s) = 3.30498 3.53899 3.42399
# Velocity P-wave (km/s) = 6.36067 6.84368 6.60659
#
# Compressibility (1/GPa) = 0.02024673
#
# Stress axis : x y z
#
# Youngs Moduli (GPa) = 59.19080 59.15644 27.64905
#
# Poissons Ratio (x) = 0.25845 0.28314
# Poissons Ratio (y) = 0.25860 0.28341
# Poissons Ratio (z) = 0.60615 0.60637
#
# Static dielectric constant tensor:
#      x y z
#    x 3.676830 -0.000360 -0.000380 
#    y -0.000360 3.676470 0.000010 
#    z -0.000380 0.000010 3.437770 
# 
# 
# High freq. dielectric constant tensor:
#      x y z
#    x 1.743820 0.000000 -0.000030 
#    y 0.000000 1.743840 0.000000 
#    z -0.000030 0.000000 1.729260 
# 
# From -- ./inp_files/1816.got.cif
#   From: 2010.03.12/outbox.cif.g09.slc.cpg/sg166_1_cif.got.tgz:1816.got - 2010.04.02 06:38:31.
