data_PCOD8324554
_publ_section_title
;
Structure prediction by ZEFSAII (Michael W. Deem and Ramdas Pophale) SiO2 
 PCOD8324554
Probable space group: P 61
;
_chemical_formula_sum "Si O2"
_cell_formula_units_Z 18
_cell_length_a 10.067414
_cell_length_b 10.067414
_cell_length_c 10.220516
_cell_angle_alpha 90.000000
_cell_angle_beta 90.000000
_cell_angle_gamma 120.000000
_cell_volume 897.096807
_symmetry_space_group_name_H-M "P 61"
_symmetry_group_IT_number 169
_symmetry_cell_setting 'hexagonal'
loop_
_space_group_symop_operation_xyz
x,y,z
x-y,x,1/6+z
-y,x-y,1/3+z
-x,-y,1/2+z
-x+y,-x,2/3+z
y,-x+y,5/6+z
loop_
_atom_site_type_symbol
_atom_site_label
_atom_site_fract_x
_atom_site_fract_y
_atom_site_fract_z
Si Si1 0.365663 0.911856 0.720220
Si Si2 0.568227 0.128249 0.936055
Si Si3 0.120940 0.842113 0.419371
O O1 0.459586 0.928095 0.586632
O O2 0.250198 0.735377 0.747778
O O3 0.477561 0.980848 0.843147
O O4 0.273799 0.004244 0.698318
O O5 0.748447 0.204786 0.898994
O O6 0.021711 0.819104 0.289817
#
# Coordination Sequence:
#
# PCOD8324554 Si02
#       3
#     6   6   6
#     4  11  24  43  70  97 141 179 231 286 354 414
#     4  11  24  43  71 100 136 184 232 288 351 419
#     4  10  22  44  65  93 139 175 225 284 347 407
#
# _framework density 20.064726
#
# number of rings (size 3 to 8) (size 9 to 14) (size 15 to 20)
#    0.000    1.333    6.667    0.000    9.333    0.000 
#    6.000    0.000    0.000    0.000    0.000    0.000 
#    0.000    0.000    0.000    0.000    0.000    0.000 
#
# Total GULP energy -223102.573194 kJ/mol
# GULP energy per Si atom -12394.587400 kJ/mol
# Density = 2.001906 g / cm^3
# Si number density = 20.064726 Si / 1000 Ang^3
#
#
#
# Elastic Constant Matrix: (Units=GPa)
#
#
# Indices 1 2 3 4 5 6 
#
# 1 141.2261 76.0281 51.2291 0.0000 0.0000 0.0000
# 2 76.0281 141.2261 51.2291 0.0000 0.0000 0.0000
# 3 51.2291 51.2291 136.2414 0.0000 0.0000 0.0000
# 4 0.0000 0.0000 0.0000 37.4403 0.0000 0.0000
# 5 0.0000 0.0000 0.0000 0.0000 37.4403 0.0000
# 6 0.0000 0.0000 0.0000 0.0000 0.0000 32.5990
#
#
#
# Elastic Compliance Matrix: (Units=1/GPa)
#
#
# Indices 1 2 3 4 5 6 
#
# 1 0.010466 -0.004871 -0.002104 0.000000 0.000000 0.000000
# 2 -0.004871 0.010466 -0.002104 0.000000 0.000000 0.000000
# 3 -0.002104 -0.002104 0.008922 0.000000 0.000000 0.000000
# 4 0.000000 0.000000 0.000000 0.026709 0.000000 0.000000
# 5 0.000000 0.000000 0.000000 0.000000 0.026709 0.000000
# 6 0.000000 0.000000 0.000000 0.000000 0.000000 0.030676
#
#
# Mechanical properties :
#
#
# Convention : Reuss Voigt Hill
#
# Bulk Modulus (GPa) = 85.49304 86.18515 85.83910
# Shear Modulus (GPa) = 36.76300 37.50976 37.13638
#
# Velocity S-wave (km/s) = 4.28509 4.32839 4.30679
# Velocity P-wave (km/s) = 8.19657 8.24783 8.22224
#
# Compressibility (1/GPa) = 0.01169686
#
# Stress axis : x y z
#
# Youngs Moduli (GPa) = 95.54303 95.54303 112.08148
#
# Poissons Ratio (x) = 0.46543 0.23580
# Poissons Ratio (y) = 0.46543 0.23580
# Poissons Ratio (z) = 0.20101 0.20101
#
# Static dielectric constant tensor:
#      x y z
#    x 3.783990 0.000000 0.000000 
#    y 0.000000 3.783990 0.000000 
#    z 0.000000 0.000000 3.783330 
# 
# 
# High freq. dielectric constant tensor:
#      x y z
#    x 1.785770 0.000000 0.000000 
#    y 0.000000 1.785770 0.000000 
#    z 0.000000 0.000000 1.775550 
# 
# From -- ./inp_files/399.got.cif
#   From: 2010.03.12/outbox.cif.g09.slc.cpg/sg169_cif.got.tgz:399.got - 2010.04.02 06:46:06.
