data_PCOD8324722
_publ_section_title
;
Structure prediction by ZEFSAII (Michael W. Deem and Ramdas Pophale) SiO2 
 PCOD8324722
Probable space group: P 65
;
_chemical_formula_sum "Si O2"
_cell_formula_units_Z 30
_cell_length_a 18.136938
_cell_length_b 18.136938
_cell_length_c 6.339133
_cell_angle_alpha 90.000000
_cell_angle_beta 90.000000
_cell_angle_gamma 120.000000
_cell_volume 1805.878104
_symmetry_space_group_name_H-M "P 65"
_symmetry_group_IT_number 170
_symmetry_cell_setting 'hexagonal'
loop_
_space_group_symop_operation_xyz
x,y,z
x-y,x,5/6+z
-y,x-y,2/3+z
-x,-y,1/2+z
-x+y,-x,1/3+z
y,-x+y,1/6+z
loop_
_atom_site_type_symbol
_atom_site_label
_atom_site_fract_x
_atom_site_fract_y
_atom_site_fract_z
Si Si1 0.508300 0.324795 0.917470
Si Si2 0.096652 0.342131 0.509938
Si Si3 0.903348 0.245478 0.577042
Si Si4 0.183505 0.675205 0.836177
Si Si5 0.412514 0.206257 0.293490
O O1 0.431499 0.318983 0.775293
O O2 0.547756 0.273878 0.793490
O O3 0.578290 0.421710 0.960157
O O4 0.472370 0.283945 0.143395
O O5 0.156339 0.312677 0.626823
O O6 0.120819 0.353852 0.262236
O O7 1.000000 0.269585 0.543490
O O8 0.887484 0.318983 0.478354
O O9 0.879181 0.233033 0.824745
O O10 0.188425 0.716055 0.610252
#
# Coordination Sequence:
#
# PCOD8324722 Si02
#       5
#     6   6   6   6   6
#     4   9  19  30  46  72  97 137 177 213 261 308
#     4   9  19  35  52  76 100 133 177 211 267 325
#     4   9  19  35  52  76 100 133 177 211 267 325
#     4   9  19  30  46  72  97 137 177 213 261 308
#     4   8  18  34  50  68 106 130 166 220 258 308
#
# _framework density 16.612416
#
# number of rings (size 3 to 8) (size 9 to 14) (size 15 to 20)
#    0.000    4.000    0.000    0.000    2.800   11.200 
#    7.200    0.000    0.000    0.000    5.200    0.000 
#    0.000    0.000    0.000    0.000    0.000    0.000 
#
# Total GULP energy -371812.470612 kJ/mol
# GULP energy per Si atom -12393.749020 kJ/mol
# Density = 1.657461 g / cm^3
# Si number density = 16.612416 Si / 1000 Ang^3
#
#
#
# Elastic Constant Matrix: (Units=GPa)
#
#
# Indices 1 2 3 4 5 6 
#
# 1 98.4368 63.2241 44.0941 0.0000 0.0000 0.0000
# 2 63.2241 98.4368 44.0941 0.0000 0.0000 0.0000
# 3 44.0941 44.0941 140.5596 0.0000 0.0000 0.0000
# 4 0.0000 0.0000 0.0000 16.8301 0.0000 0.0000
# 5 0.0000 0.0000 0.0000 0.0000 16.8301 0.0000
# 6 0.0000 0.0000 0.0000 0.0000 0.0000 17.6064
#
#
#
# Elastic Compliance Matrix: (Units=1/GPa)
#
#
# Indices 1 2 3 4 5 6 
#
# 1 0.017931 -0.010468 -0.002341 0.000000 0.000000 0.000000
# 2 -0.010468 0.017931 -0.002341 0.000000 0.000000 0.000000
# 3 -0.002341 -0.002341 0.008583 0.000000 0.000000 0.000000
# 4 0.000000 0.000000 0.000000 0.059417 0.000000 0.000000
# 5 0.000000 0.000000 0.000000 0.000000 0.059417 0.000000
# 6 0.000000 0.000000 0.000000 0.000000 0.000000 0.056798
#
#
# Mechanical properties :
#
#
# Convention : Reuss Voigt Hill
#
# Bulk Modulus (GPa) = 70.69877 71.13976 70.91927
# Shear Modulus (GPa) = 19.60074 22.65472 21.12773
#
# Velocity S-wave (km/s) = 3.43867 3.69687 3.57010
# Velocity P-wave (km/s) = 7.64304 7.81912 7.73158
#
# Compressibility (1/GPa) = 0.01414452
#
# Stress axis : x y z
#
# Youngs Moduli (GPa) = 55.76972 55.76972 116.50564
#
# Poissons Ratio (x) = 0.58380 0.27276
# Poissons Ratio (y) = 0.58380 0.27276
# Poissons Ratio (z) = 0.13056 0.13056
#
# Static dielectric constant tensor:
#      x y z
#    x 2.832330 0.000000 0.000000 
#    y 0.000000 2.832330 0.000000 
#    z 0.000000 0.000000 3.344150 
# 
# 
# High freq. dielectric constant tensor:
#      x y z
#    x 1.612510 0.000000 0.000000 
#    y 0.000000 1.612510 0.000000 
#    z 0.000000 0.000000 1.661910 
# 
# From -- ./inp_files/143.got.cif
#   From: 2010.03.12/outbox.cif.g09.slc.cpg/sg170_cif.got.tgz:143.got - 2010.04.02 06:47:37.
