data_PCOD8324322
_publ_section_title
;
Structure prediction by ZEFSAII (Michael W. Deem and Ramdas Pophale) SiO2 
 PCOD8324322
Probable space group: R -3 C 
;
_chemical_formula_sum "Si O2"
_cell_formula_units_Z 144
_cell_length_a 23.238997
_cell_length_b 23.238997
_cell_length_c 12.427706
_cell_angle_alpha 90.000000
_cell_angle_beta 90.000000
_cell_angle_gamma 120.000000
_cell_volume 5812.411617
_symmetry_space_group_name_H-M "R -3 C "
_symmetry_group_IT_number 167
_symmetry_cell_setting 'hexagonal'
loop_
_space_group_symop_operation_xyz
x,y,z
-y,x-y,z
-x+y,-x,z
x-y,-y,1/2-z
-x,-x+y,1/2-z
y,x,1/2-z
-x,-y,-z
y,-x+y,-z
x-y,x,-z
-x+y,y,1/2+z
x,x-y,1/2+z
-y,-x,1/2+z
2/3+x,1/3+y,1/3+z
2/3-y,1/3+x-y,1/3+z
2/3-x+y,1/3-x,1/3+z
2/3+x-y,1/3-y,5/6-z
2/3-x,1/3-x+y,5/6-z
2/3+y,1/3+x,5/6-z
2/3-x,1/3-y,1/3-z
2/3+y,1/3-x+y,1/3-z
2/3+x-y,1/3+x,1/3-z
2/3-x+y,1/3+y,5/6+z
2/3+x,1/3+x-y,5/6+z
2/3-y,1/3-x,5/6+z
1/3+x,2/3+y,2/3+z
1/3-y,2/3+x-y,2/3+z
1/3-x+y,2/3-x,2/3+z
1/3+x-y,2/3-y,1/6-z
1/3-x,2/3-x+y,1/6-z
1/3+y,2/3+x,1/6-z
1/3-x,2/3-y,2/3-z
1/3+y,2/3-x+y,2/3-z
1/3+x-y,2/3+x,2/3-z
1/3-x+y,2/3+y,1/6+z
1/3+x,2/3+x-y,1/6+z
1/3-y,2/3-x,1/6+z
loop_
_atom_site_type_symbol
_atom_site_label
_atom_site_fract_x
_atom_site_fract_y
_atom_site_fract_z
Si Si1 0.813063 0.104966 0.314627
Si Si2 0.559175 0.371046 0.956842
Si Si3 0.783716 0.069535 0.703808
Si Si4 0.704332 0.477659 0.963803
O O1 0.772144 0.105477 0.416667
O O2 0.877109 0.178752 0.298427
O O3 0.765204 0.083605 0.210379
O O4 0.834633 0.050666 0.335792
O O5 0.630772 0.424427 0.009576
O O6 0.533891 0.297827 0.008289
O O7 0.568164 0.369081 0.830076
O O8 0.505314 0.393304 0.974300
O O9 0.725356 0.000000 0.750000
#
# Coordination Sequence:
#
# PCOD8324322 Si02
#       4
#    36  36  36  36
#     4  11  23  42  70  96 140 200 254 305 383 454
#     4  10  20  38  68 108 150 188 239 297 376 450
#     4  11  23  42  72 100 140 192 246 321 375 437
#     4  10  20  38  70 106 150 197 234 298 377 457
#
# _framework density 24.774571000000002
#
# number of rings (size 3 to 8) (size 9 to 14) (size 15 to 20)
#    0.000    1.500    5.000    0.500    0.000    3.000 
#    0.000    0.000   11.000    0.000    0.000    0.000 
#    0.000    0.000    0.000    0.000    0.000    0.000 
#
# Total GULP energy -595662.379209 kJ/mol
# GULP energy per Si atom -12409.632900 kJ/mol
# Density = 2.471818 g / cm^3
# Si number density = 24.774571 Si / 1000 Ang^3
#
#
#
# Elastic Constant Matrix: (Units=GPa)
#
#
# Indices 1 2 3 4 5 6 
#
# 1 150.0392 63.0495 43.4481 0.5999 0.0001 0.0000
# 2 63.0495 150.0392 43.4479 -0.5999 0.0000 0.0000
# 3 43.4481 43.4479 67.1396 0.0001 0.0004 0.0001
# 4 0.5999 -0.5999 0.0001 42.2355 0.0001 -0.0001
# 5 0.0001 0.0000 0.0004 0.0001 42.2356 0.5999
# 6 0.0000 0.0000 0.0001 -0.0001 0.5999 43.4948
#
#
#
# Elastic Compliance Matrix: (Units=1/GPa)
#
#
# Indices 1 2 3 4 5 6 
#
# 1 0.008937 -0.002561 -0.004126 -0.000163 0.000000 0.000000
# 2 -0.002561 0.008937 -0.004126 0.000163 0.000000 0.000000
# 3 -0.004126 -0.004126 0.020234 0.000000 0.000000 0.000000
# 4 -0.000163 0.000163 0.000000 0.023681 0.000000 0.000000
# 5 0.000000 0.000000 0.000000 0.000000 0.023681 -0.000327
# 6 0.000000 0.000000 0.000000 0.000000 -0.000327 0.022996
#
#
# Mechanical properties :
#
#
# Convention : Reuss Voigt Hill
#
# Bulk Modulus (GPa) = 60.67220 74.12322 67.39771
# Shear Modulus (GPa) = 36.87730 40.07801 38.47766
#
# Velocity S-wave (km/s) = 3.86231 4.02644 3.94523
# Velocity P-wave (km/s) = 6.66579 7.18333 6.92940
#
# Compressibility (1/GPa) = 0.01648201
#
# Stress axis : x y z
#
# Youngs Moduli (GPa) = 111.89963 111.89974 49.42182
#
# Poissons Ratio (x) = 0.28661 0.20390
# Poissons Ratio (y) = 0.28661 0.20390
# Poissons Ratio (z) = 0.46166 0.46166
#
# Static dielectric constant tensor:
#      x y z
#    x 4.386600 0.000000 0.000000 
#    y 0.000000 4.386600 0.000000 
#    z 0.000000 0.000000 4.803700 
# 
# 
# High freq. dielectric constant tensor:
#      x y z
#    x 1.981490 0.000000 0.000000 
#    y 0.000000 1.981490 0.000000 
#    z 0.000000 0.000000 2.035320 
# 
# From -- ./inp_files/3309.got.cif
#   From: 2010.03.12/outbox.cif.g09.slc.cpg/sg167_2_cif.got.tgz:3309.got - 2010.04.02 06:42:56.
