data_PCOD8324240
_publ_section_title
;
Structure prediction by ZEFSAII (Michael W. Deem and Ramdas Pophale) SiO2 
 PCOD8324240
Probable space group: R -3 M
;
_chemical_formula_sum "Si O2"
_cell_formula_units_Z 252
_cell_length_a 29.399345
_cell_length_b 29.399345
_cell_length_c 18.810417
_cell_angle_alpha 90.000000
_cell_angle_beta 90.000000
_cell_angle_gamma 120.000000
_cell_volume 14080.055427
_symmetry_space_group_name_H-M "R -3 M"
_symmetry_group_IT_number 166
_symmetry_cell_setting 'hexagonal'
loop_
_space_group_symop_operation_xyz
x,y,z
-y,x-y,z
-x+y,-x,z
x-y,-y,-z
-x,-x+y,-z
y,x,-z
-x,-y,-z
y,-x+y,-z
x-y,x,-z
-x+y,y,z
x,x-y,z
-y,-x,z
2/3+x,1/3+y,1/3+z
2/3-y,1/3+x-y,1/3+z
2/3-x+y,1/3-x,1/3+z
2/3+x-y,1/3-y,1/3-z
2/3-x,1/3-x+y,1/3-z
2/3+y,1/3+x,1/3-z
2/3-x,1/3-y,1/3-z
2/3+y,1/3-x+y,1/3-z
2/3+x-y,1/3+x,1/3-z
2/3-x+y,1/3+y,1/3+z
2/3+x,1/3+x-y,1/3+z
2/3-y,1/3-x,1/3+z
1/3+x,2/3+y,2/3+z
1/3-y,2/3+x-y,2/3+z
1/3-x+y,2/3-x,2/3+z
1/3+x-y,2/3-y,2/3-z
1/3-x,2/3-x+y,2/3-z
1/3+y,2/3+x,2/3-z
1/3-x,2/3-y,2/3-z
1/3+y,2/3-x+y,2/3-z
1/3+x-y,2/3+x,2/3-z
1/3-x+y,2/3+y,2/3+z
1/3+x,2/3+x-y,2/3+z
1/3-y,2/3-x,2/3+z
loop_
_atom_site_type_symbol
_atom_site_label
_atom_site_fract_x
_atom_site_fract_y
_atom_site_fract_z
Si Si1 0.341054 0.220876 0.246484
Si Si2 0.289127 0.379567 0.038744
Si Si3 0.000415 0.898225 0.915640
Si Si4 0.784583 0.977335 0.921738
Si Si5 0.029931 0.592060 0.064788
Si Si6 0.393860 0.888874 0.178305
Si Si7 0.058972 0.368293 0.513952
O O1 0.318920 0.159460 0.257661
O O2 0.333334 0.234082 0.166667
O O3 0.304967 0.234833 0.295161
O O4 0.403339 0.251260 0.263867
O O5 0.351254 0.412944 0.027560
O O6 0.268985 0.413208 0.083025
O O7 0.274559 0.327460 0.081131
O O8 0.943048 0.886095 0.886820
O O9 0.015840 0.854921 0.891206
O O10 0.045155 0.954846 0.886236
O O11 0.000000 0.899674 0.000000
O O12 0.766583 0.004500 0.862444
O O13 0.792348 0.000000 0.000000
O O14 0.071143 0.583776 0.111094
O O15 0.984316 0.586973 0.115969
O O16 0.000000 0.550379 0.000000
O O17 0.432026 0.864052 0.185842
O O18 0.333334 0.843285 0.166667
O O19 0.000000 0.356924 0.500000
#
# Coordination Sequence:
#
# PCOD8324240 Si02
#       7
#    36  36  36  36  36  36  36
#     4  11  23  33  45  70 103 142 179 213 253 296
#     4   9  18  33  49  70  99 139 181 212 239 294
#     4   9  18  33  52  71  92 122 165 217 270 315
#     4  11  20  31  47  71 100 133 167 216 256 302
#     4   9  19  30  50  78 103 135 174 211 248 297
#     4   9  18  35  55  78 104 135 172 212 261 313
#     4   9  18  30  46  70 100 138 176 203 244 294
#
# _framework density 17.897656999999999
#
# number of rings (size 3 to 8) (size 9 to 14) (size 15 to 20)
#    0.000    2.429    1.429    3.143    6.000    1.429 
#    0.000    0.714    0.000    0.143    0.000    0.000 
#    0.000    0.000    0.000    0.000    0.000    0.000 
#
# Total GULP energy -1040745.613639 kJ/mol
# GULP energy per Si atom -12389.828734 kJ/mol
# Density = 1.785692 g / cm^3
# Si number density = 17.897657 Si / 1000 Ang^3
#
#
#
# Elastic Constant Matrix: (Units=GPa)
#
#
# Indices 1 2 3 4 5 6 
#
# 1 93.9847 44.5111 28.6116 1.0663 -0.0001 0.0000
# 2 44.5111 93.9847 28.6116 -1.0663 0.0001 0.0000
# 3 28.6116 28.6116 86.2439 0.0000 0.0000 0.0000
# 4 1.0663 -1.0663 0.0000 14.5590 0.0000 0.0001
# 5 -0.0001 0.0001 0.0000 0.0000 14.5590 1.0663
# 6 0.0000 0.0000 0.0000 0.0001 1.0663 24.7368
#
#
#
# Elastic Compliance Matrix: (Units=1/GPa)
#
#
# Indices 1 2 3 4 5 6 
#
# 1 0.014322 -0.005955 -0.002776 -0.001485 0.000000 0.000000
# 2 -0.005955 0.014322 -0.002776 0.001485 0.000000 0.000000
# 3 -0.002776 -0.002776 0.013437 0.000000 0.000000 0.000000
# 4 -0.001485 0.001485 0.000000 0.068904 0.000000 0.000000
# 5 0.000000 0.000000 0.000000 0.000000 0.068904 -0.002970
# 6 0.000000 0.000000 0.000000 0.000000 -0.002970 0.040554
#
#
# Mechanical properties :
#
#
# Convention : Reuss Voigt Hill
#
# Bulk Modulus (GPa) = 52.44387 53.07577 52.75982
# Shear Modulus (GPa) = 20.01511 22.26954 21.14232
#
# Velocity S-wave (km/s) = 3.34774 3.53125 3.44072
# Velocity P-wave (km/s) = 6.65649 6.80778 6.73256
#
# Compressibility (1/GPa) = 0.01906801
#
# Stress axis : x y z
#
# Youngs Moduli (GPa) = 69.82220 69.82220 74.42221
#
# Poissons Ratio (x) = 0.41577 0.20659
# Poissons Ratio (y) = 0.41577 0.20659
# Poissons Ratio (z) = 0.19382 0.19382
#
# Static dielectric constant tensor:
#      x y z
#    x 3.265730 0.000000 0.000000 
#    y 0.000000 3.265730 0.000000 
#    z 0.000000 0.000000 4.597430 
# 
# 
# High freq. dielectric constant tensor:
#      x y z
#    x 1.680650 0.000000 0.000000 
#    y 0.000000 1.680650 0.000000 
#    z 0.000000 0.000000 1.676810 
# 
# From -- ./inp_files/5844.got.cif
#   From: 2010.03.12/outbox.cif.g09.slc.cpg/sg166_3_cif.got.tgz:5844.got - 2010.04.02 06:38:31.
