data_PCOD8324165
_publ_section_title
;
Structure prediction by ZEFSAII (Michael W. Deem and Ramdas Pophale) SiO2 
 PCOD8324165
Probable space group: R -3 M
;
_chemical_formula_sum "Si O2"
_cell_formula_units_Z 252
_cell_length_a 28.563629
_cell_length_b 28.563629
_cell_length_c 19.032105
_cell_angle_alpha 90.000000
_cell_angle_beta 90.000000
_cell_angle_gamma 120.000000
_cell_volume 13447.582704
_symmetry_space_group_name_H-M "R -3 M"
_symmetry_group_IT_number 166
_symmetry_cell_setting 'hexagonal'
loop_
_space_group_symop_operation_xyz
x,y,z
-y,x-y,z
-x+y,-x,z
x-y,-y,-z
-x,-x+y,-z
y,x,-z
-x,-y,-z
y,-x+y,-z
x-y,x,-z
-x+y,y,z
x,x-y,z
-y,-x,z
2/3+x,1/3+y,1/3+z
2/3-y,1/3+x-y,1/3+z
2/3-x+y,1/3-x,1/3+z
2/3+x-y,1/3-y,1/3-z
2/3-x,1/3-x+y,1/3-z
2/3+y,1/3+x,1/3-z
2/3-x,1/3-y,1/3-z
2/3+y,1/3-x+y,1/3-z
2/3+x-y,1/3+x,1/3-z
2/3-x+y,1/3+y,1/3+z
2/3+x,1/3+x-y,1/3+z
2/3-y,1/3-x,1/3+z
1/3+x,2/3+y,2/3+z
1/3-y,2/3+x-y,2/3+z
1/3-x+y,2/3-x,2/3+z
1/3+x-y,2/3-y,2/3-z
1/3-x,2/3-x+y,2/3-z
1/3+y,2/3+x,2/3-z
1/3-x,2/3-y,2/3-z
1/3+y,2/3-x+y,2/3-z
1/3+x-y,2/3+x,2/3-z
1/3-x+y,2/3+y,2/3+z
1/3+x,2/3+x-y,2/3+z
1/3-y,2/3-x,2/3+z
loop_
_atom_site_type_symbol
_atom_site_label
_atom_site_fract_x
_atom_site_fract_y
_atom_site_fract_z
Si Si1 0.540622 0.568475 0.068312
Si Si2 0.431324 0.458282 0.341078
Si Si3 0.090541 0.710271 0.779174
Si Si4 0.678396 0.944192 0.534453
Si Si5 0.171565 0.719618 0.883982
Si Si6 0.187549 0.704324 0.233708
Si Si7 0.223507 0.557245 0.966396
O O1 0.490385 0.509616 0.063239
O O2 0.573536 0.568410 0.137357
O O3 0.522491 0.613491 0.070235
O O4 0.578638 0.578638 0.000000
O O5 0.489454 0.510547 0.334980
O O6 0.439200 0.409729 0.372588
O O7 0.405256 0.443477 0.263865
O O8 0.390133 0.468567 0.387141
O O9 0.080588 0.747255 0.833334
O O10 0.038281 0.652523 0.767543
O O11 0.138245 0.701515 0.810795
O O12 0.722893 0.000000 0.500000
O O13 0.222054 0.777947 0.870067
O O14 0.190511 0.677107 0.905656
O O15 0.241799 0.758202 0.210246
O O16 0.163089 0.666667 0.166667
O O17 0.200725 0.672691 0.292809
O O18 0.284402 0.568804 0.972478
O O19 0.224209 0.612105 0.945668
#
# Coordination Sequence:
#
# PCOD8324165 Si02
#       7
#    36  36  36  36  36  36  36
#     4  10  23  38  51  71 104 145 186 227 276 333
#     4  10  20  36  57  80 108 140 184 235 283 332
#     4   9  19  35  55  79 108 140 180 229 281 334
#     4  11  23  34  52  78 107 144 179 223 276 335
#     4   9  19  34  57  82 105 140 185 232 283 338
#     4  10  21  36  55  78 105 143 190 238 286 333
#     4  10  21  36  56  82 113 149 190 240 293 347
#
# _framework density 18.739428
#
# number of rings (size 3 to 8) (size 9 to 14) (size 15 to 20)
#    0.000    2.143    0.000    2.286    6.000    4.000 
#    0.000    0.714    0.000    2.286    0.000    0.000 
#    0.000    0.000    0.000    0.000    0.000   39.714 
#
# Total GULP energy -1041524.438142 kJ/mol
# GULP energy per Si atom -12399.100454 kJ/mol
# Density = 1.869678 g / cm^3
# Si number density = 18.739428 Si / 1000 Ang^3
#
#
#
# Elastic Constant Matrix: (Units=GPa)
#
#
# Indices 1 2 3 4 5 6 
#
# 1 79.7778 54.5971 40.2017 -3.6494 0.0000 0.0000
# 2 54.5971 79.7778 40.2017 3.6494 0.0000 0.0000
# 3 40.2017 40.2017 88.7988 0.0000 0.0000 0.0000
# 4 -3.6494 3.6494 0.0000 27.6009 0.0000 0.0000
# 5 0.0000 0.0000 0.0000 0.0000 27.6009 -3.6494
# 6 0.0000 0.0000 0.0000 0.0000 -3.6494 12.5904
#
#
#
# Elastic Compliance Matrix: (Units=1/GPa)
#
#
# Indices 1 2 3 4 5 6 
#
# 1 0.025751 -0.015544 -0.004621 0.005460 0.000000 0.000000
# 2 -0.015544 0.025751 -0.004621 -0.005460 0.000000 0.000000
# 3 -0.004621 -0.004621 0.015445 0.000000 0.000000 0.000000
# 4 0.005460 -0.005460 0.000000 0.037675 0.000000 0.000000
# 5 0.000000 0.000000 0.000000 0.000000 0.037675 0.010920
# 6 0.000000 0.000000 0.000000 0.000000 0.010920 0.082591
#
#
# Mechanical properties :
#
#
# Convention : Reuss Voigt Hill
#
# Bulk Modulus (GPa) = 57.55255 57.59502 57.57378
# Shear Modulus (GPa) = 17.84110 21.11537 19.47824
#
# Velocity S-wave (km/s) = 3.08890 3.36041 3.22751
# Velocity P-wave (km/s) = 6.59548 6.77184 6.68425
#
# Compressibility (1/GPa) = 0.01737542
#
# Stress axis : x y z
#
# Youngs Moduli (GPa) = 38.83324 38.83324 64.74406
#
# Poissons Ratio (x) = 0.60364 0.29918
# Poissons Ratio (y) = 0.60364 0.29918
# Poissons Ratio (z) = 0.17944 0.17944
#
# Static dielectric constant tensor:
#      x y z
#    x 3.479710 0.000000 0.000000 
#    y 0.000000 3.479710 0.000000 
#    z 0.000000 0.000000 3.565400 
# 
# 
# High freq. dielectric constant tensor:
#      x y z
#    x 1.726050 0.000000 0.000000 
#    y 0.000000 1.726050 0.000000 
#    z 0.000000 0.000000 1.717010 
# 
# From -- ./inp_files/5885.got.cif
#   From: 2010.03.12/outbox.cif.g09.slc.cpg/sg166_3_cif.got.tgz:5885.got - 2010.04.02 06:38:31.
