data_PCOD8324394
_publ_section_title
;
Structure prediction by ZEFSAII (Michael W. Deem and Ramdas Pophale) SiO2 
 PCOD8324394
Probable space group: R -3 C 
;
_chemical_formula_sum "Si O2"
_cell_formula_units_Z 162
_cell_length_a 20.456287
_cell_length_b 20.456287
_cell_length_c 20.342027
_cell_angle_alpha 90.000000
_cell_angle_beta 90.000000
_cell_angle_gamma 120.000000
_cell_volume 7371.883689
_symmetry_space_group_name_H-M "R -3 C "
_symmetry_group_IT_number 167
_symmetry_cell_setting 'hexagonal'
loop_
_space_group_symop_operation_xyz
x,y,z
-y,x-y,z
-x+y,-x,z
x-y,-y,1/2-z
-x,-x+y,1/2-z
y,x,1/2-z
-x,-y,-z
y,-x+y,-z
x-y,x,-z
-x+y,y,1/2+z
x,x-y,1/2+z
-y,-x,1/2+z
2/3+x,1/3+y,1/3+z
2/3-y,1/3+x-y,1/3+z
2/3-x+y,1/3-x,1/3+z
2/3+x-y,1/3-y,5/6-z
2/3-x,1/3-x+y,5/6-z
2/3+y,1/3+x,5/6-z
2/3-x,1/3-y,1/3-z
2/3+y,1/3-x+y,1/3-z
2/3+x-y,1/3+x,1/3-z
2/3-x+y,1/3+y,5/6+z
2/3+x,1/3+x-y,5/6+z
2/3-y,1/3-x,5/6+z
1/3+x,2/3+y,2/3+z
1/3-y,2/3+x-y,2/3+z
1/3-x+y,2/3-x,2/3+z
1/3+x-y,2/3-y,1/6-z
1/3-x,2/3-x+y,1/6-z
1/3+y,2/3+x,1/6-z
1/3-x,2/3-y,2/3-z
1/3+y,2/3-x+y,2/3-z
1/3+x-y,2/3+x,2/3-z
1/3-x+y,2/3+y,1/6+z
1/3+x,2/3+x-y,1/6+z
1/3-y,2/3-x,1/6+z
loop_
_atom_site_type_symbol
_atom_site_label
_atom_site_fract_x
_atom_site_fract_y
_atom_site_fract_z
Si Si1 0.783224 0.657442 0.263450
Si Si2 0.774606 0.266394 0.343938
Si Si3 0.493030 0.365824 0.189980
Si Si4 0.256549 0.334816 0.876478
Si Si5 0.582344 0.333334 0.083334
O O1 0.751792 0.576417 0.295584
O O2 0.785844 0.716527 0.315835
O O3 0.728930 0.647741 0.201613
O O4 0.869657 0.698310 0.237783
O O5 0.687701 0.219891 0.325458
O O6 0.785949 0.246908 0.419109
O O7 0.421420 0.295642 0.224113
O O8 0.537957 0.335171 0.147281
O O9 0.333334 0.373255 0.916667
O O10 0.592244 0.258911 0.083334
#
# Coordination Sequence:
#
# PCOD8324394 Si02
#       5
#    36  36  36  36  18
#     4  11  25  46  72 107 140 190 242 297 367 442
#     4  12  28  46  71 104 147 192 243 299 374 443
#     4  12  24  48  72 105 146 186 245 304 358 441
#     4  11  24  45  74 105 143 185 243 304 364 432
#     4  10  26  44  76 104 146 196 248 294 362 428
#
# _framework density 21.975387999999999
#
# number of rings (size 3 to 8) (size 9 to 14) (size 15 to 20)
#    0.222    0.444    4.444    2.222    6.222    0.889 
#    0.000    0.000    0.000    0.000    0.000    0.000 
#    0.000    0.000    0.000    0.000    0.000    0.000 
#
# Total GULP energy -669561.428395 kJ/mol
# GULP energy per Si atom -12399.285711 kJ/mol
# Density = 2.192537 g / cm^3
# Si number density = 21.975388 Si / 1000 Ang^3
#
#
#
# Elastic Constant Matrix: (Units=GPa)
#
#
# Indices 1 2 3 4 5 6 
#
# 1 107.1659 51.2075 48.3958 3.2635 -0.0006 0.0000
# 2 51.2075 107.1659 48.3958 -3.2635 0.0006 0.0000
# 3 48.3958 48.3958 143.9796 0.0000 0.0000 0.0000
# 4 3.2635 -3.2635 0.0000 37.6375 0.0000 0.0006
# 5 -0.0006 0.0006 0.0000 0.0000 37.6375 3.2635
# 6 0.0000 0.0000 0.0000 0.0006 3.2635 27.9792
#
#
#
# Elastic Compliance Matrix: (Units=1/GPa)
#
#
# Indices 1 2 3 4 5 6 
#
# 1 0.013000 -0.005053 -0.002671 -0.001565 0.000000 0.000000
# 2 -0.005053 0.013000 -0.002671 0.001565 0.000000 0.000000
# 3 -0.002671 -0.002671 0.008741 0.000000 0.000000 0.000000
# 4 -0.001565 0.001565 0.000000 0.026841 0.000000 -0.000001
# 5 0.000000 0.000000 0.000000 0.000000 0.026841 -0.003131
# 6 0.000000 0.000000 0.000000 -0.000001 -0.003131 0.036106
#
#
# Mechanical properties :
#
#
# Convention : Reuss Voigt Hill
#
# Bulk Modulus (GPa) = 71.68458 72.70107 72.19282
# Shear Modulus (GPa) = 33.34023 34.67165 34.00594
#
# Velocity S-wave (km/s) = 3.89930 3.97640 3.93804
# Velocity P-wave (km/s) = 7.27763 7.36458 7.32124
#
# Compressibility (1/GPa) = 0.01395000
#
# Stress axis : x y z
#
# Youngs Moduli (GPa) = 76.92403 76.92403 114.40196
#
# Poissons Ratio (x) = 0.38871 0.30558
# Poissons Ratio (y) = 0.38871 0.30558
# Poissons Ratio (z) = 0.20547 0.20547
#
# Static dielectric constant tensor:
#      x y z
#    x 3.925340 0.000000 0.000000 
#    y 0.000000 3.925340 0.000000 
#    z 0.000000 0.000000 4.160030 
# 
# 
# High freq. dielectric constant tensor:
#      x y z
#    x 1.865130 0.000000 0.000000 
#    y 0.000000 1.865130 0.000000 
#    z 0.000000 0.000000 1.881940 
# 
# From -- ./inp_files/4417.got.cif
#   From: 2010.03.12/outbox.cif.g09.slc.cpg/sg167_3_cif.got.tgz:4417.got - 2010.04.02 06:42:56.
