data_PCOD8324996
_publ_section_title
;
Structure prediction by ZEFSAII (Michael W. Deem and Ramdas Pophale) SiO2 
 PCOD8324996
Probable space group: P 6/M
;
_chemical_formula_sum "Si O2"
_cell_formula_units_Z 76
_cell_length_a 17.485920
_cell_length_b 17.485920
_cell_length_c 15.852124
_cell_angle_alpha 90.000000
_cell_angle_beta 90.000000
_cell_angle_gamma 120.000000
_cell_volume 4197.542159
_symmetry_space_group_name_H-M "P 6/M"
_symmetry_group_IT_number 175
_symmetry_cell_setting 'hexagonal'
loop_
_space_group_symop_operation_xyz
x,y,z
x-y,x,z
-y,x-y,z
-x,-y,z
-x+y,-x,z
y,-x+y,z
-x,-y,-z
-x+y,-x,-z
y,-x+y,-z
x,y,-z
x-y,x,-z
-y,x-y,-z
loop_
_atom_site_type_symbol
_atom_site_label
_atom_site_fract_x
_atom_site_fract_y
_atom_site_fract_z
Si Si1 0.061118 0.853875 0.500000
Si Si2 0.902837 0.673629 0.233374
Si Si3 0.666668 0.333335 0.102098
Si Si4 0.965806 0.809588 0.903465
Si Si5 0.373947 0.596867 0.500000
Si Si6 0.201348 0.529593 0.225312
Si Si7 0.519606 0.172714 0.327245
Si Si8 0.240399 0.314241 0.333626
O O1 0.082397 0.811130 0.419950
O O2 0.960039 0.833682 0.500000
O O3 0.951200 0.725934 0.149454
O O4 0.865639 0.572446 0.208604
O O5 0.828018 0.696249 0.260773
O O6 0.971575 0.704456 0.309780
O O7 0.678972 0.253370 0.138378
O O8 0.666667 0.333334 0.000000
O O9 0.893342 0.835595 0.879571
O O10 0.961325 0.782236 0.000000
O O11 0.433776 0.703027 0.500000
O O12 0.393132 0.559308 0.416303
O O13 0.269140 0.539827 0.300516
O O14 0.146277 0.576581 0.256655
O O15 0.417020 0.104817 0.338219
#
# Coordination Sequence:
#
# PCOD8324996 Si02
#       8
#     6  12   4  12   6  12  12  12
#     4  12  24  42  60  84 117 157 202 249 293 347
#     4  11  21  37  58  81 108 153 189 230 286 346
#     4   9  18  36  60  88 116 148 186 231 282 348
#     4  10  20  35  57  85 113 140 180 233 287 345
#     4  10  15  26  54  78 105 135 178 228 274 319
#     4   9  19  34  56  82 113 145 192 232 275 334
#     4  10  18  34  53  82 111 149 186 238 284 327
#     4  11  23  37  58  77 113 154 192 236 291 340
#
# _framework density 18.105834999999999
#
# number of rings (size 3 to 8) (size 9 to 14) (size 15 to 20)
#    0.158    1.579    4.737    1.026    0.000    1.895 
#    0.000    0.789    0.000    1.895    0.000    4.421 
#    0.000    0.000    0.000    0.000    0.000    0.000 
#
# Total GULP energy -942024.800695 kJ/mol
# GULP energy per Si atom -12395.063167 kJ/mol
# Density = 1.806463 g / cm^3
# Si number density = 18.105835 Si / 1000 Ang^3
#
#
#
# Elastic Constant Matrix: (Units=GPa)
#
#
# Indices 1 2 3 4 5 6 
#
# 1 86.6208 39.8836 35.8481 0.0000 0.0000 0.0000
# 2 39.8836 86.6214 35.8483 0.0000 0.0000 0.0001
# 3 35.8481 35.8483 98.3426 0.0000 0.0000 0.0000
# 4 0.0000 0.0000 0.0000 19.7680 0.0001 0.0000
# 5 0.0000 0.0000 0.0000 0.0001 19.7679 0.0000
# 6 0.0000 0.0001 0.0000 0.0000 0.0000 23.3686
#
#
#
# Elastic Compliance Matrix: (Units=1/GPa)
#
#
# Indices 1 2 3 4 5 6 
#
# 1 0.015680 -0.005716 -0.003632 0.000000 0.000000 0.000000
# 2 -0.005716 0.015680 -0.003632 0.000000 0.000000 0.000000
# 3 -0.003632 -0.003632 0.012816 0.000000 0.000000 0.000000
# 4 0.000000 0.000000 0.000000 0.050587 0.000000 0.000000
# 5 0.000000 0.000000 0.000000 0.000000 0.050587 0.000000
# 6 0.000000 0.000000 0.000000 0.000000 0.000000 0.042793
#
#
# Mechanical properties :
#
#
# Convention : Reuss Voigt Hill
#
# Bulk Modulus (GPa) = 54.89863 54.97164 54.93514
# Shear Modulus (GPa) = 22.70932 23.24788 22.97860
#
# Velocity S-wave (km/s) = 3.54539 3.58718 3.56635
# Velocity P-wave (km/s) = 6.86633 6.89814 6.88225
#
# Compressibility (1/GPa) = 0.01821539
#
# Stress axis : x y z
#
# Youngs Moduli (GPa) = 63.77678 63.77715 78.02567
#
# Poissons Ratio (x) = 0.36458 0.28337
# Poissons Ratio (y) = 0.36458 0.28337
# Poissons Ratio (z) = 0.23162 0.23163
#
# Static dielectric constant tensor:
#      x y z
#    x 3.288520 0.000000 0.000000 
#    y 0.000000 3.288520 0.000000 
#    z 0.000000 0.000000 3.194180 
# 
# 
# High freq. dielectric constant tensor:
#      x y z
#    x 1.696010 0.000000 0.000000 
#    y 0.000000 1.696010 0.000000 
#    z 0.000000 0.000000 1.695860 
# 
# From -- ./inp_files/2576.got.cif
#   From: 2010.03.12/outbox.cif.g09.slc.cpg/sg175_2_cif.got.tgz:2576.got - 2010.04.02 06:55:29.
