data_PCOD8324398
_publ_section_title
;
Structure prediction by ZEFSAII (Michael W. Deem and Ramdas Pophale) SiO2 
 PCOD8324398
Probable space group: R -3 C 
;
_chemical_formula_sum "Si O2"
_cell_formula_units_Z 192
_cell_length_a 23.713670
_cell_length_b 23.713670
_cell_length_c 19.750089
_cell_angle_alpha 90.000000
_cell_angle_beta 90.000000
_cell_angle_gamma 120.000000
_cell_volume 9618.275943
_symmetry_space_group_name_H-M "R -3 C "
_symmetry_group_IT_number 167
_symmetry_cell_setting 'hexagonal'
loop_
_space_group_symop_operation_xyz
x,y,z
-y,x-y,z
-x+y,-x,z
x-y,-y,1/2-z
-x,-x+y,1/2-z
y,x,1/2-z
-x,-y,-z
y,-x+y,-z
x-y,x,-z
-x+y,y,1/2+z
x,x-y,1/2+z
-y,-x,1/2+z
2/3+x,1/3+y,1/3+z
2/3-y,1/3+x-y,1/3+z
2/3-x+y,1/3-x,1/3+z
2/3+x-y,1/3-y,5/6-z
2/3-x,1/3-x+y,5/6-z
2/3+y,1/3+x,5/6-z
2/3-x,1/3-y,1/3-z
2/3+y,1/3-x+y,1/3-z
2/3+x-y,1/3+x,1/3-z
2/3-x+y,1/3+y,5/6+z
2/3+x,1/3+x-y,5/6+z
2/3-y,1/3-x,5/6+z
1/3+x,2/3+y,2/3+z
1/3-y,2/3+x-y,2/3+z
1/3-x+y,2/3-x,2/3+z
1/3+x-y,2/3-y,1/6-z
1/3-x,2/3-x+y,1/6-z
1/3+y,2/3+x,1/6-z
1/3-x,2/3-y,2/3-z
1/3+y,2/3-x+y,2/3-z
1/3+x-y,2/3+x,2/3-z
1/3-x+y,2/3+y,1/6+z
1/3+x,2/3+x-y,1/6+z
1/3-y,2/3-x,1/6+z
loop_
_atom_site_type_symbol
_atom_site_label
_atom_site_fract_x
_atom_site_fract_y
_atom_site_fract_z
Si Si1 0.344002 0.162298 0.088483
Si Si2 0.325072 0.275260 0.808891
Si Si3 0.458606 0.663174 0.022525
Si Si4 0.666668 0.333334 0.499016
Si Si5 0.648492 0.558538 0.403171
Si Si6 0.258170 0.773352 0.422184
O O1 0.333334 0.166667 0.166667
O O2 0.349044 0.223917 0.050052
O O3 0.289510 0.094825 0.057588
O O4 0.412774 0.164525 0.077655
O O5 0.317538 0.317538 0.750000
O O6 0.398176 0.315577 0.838074
O O7 0.269637 0.261821 0.863386
O O8 0.496771 0.660427 0.089402
O O9 0.386504 0.651600 0.033541
O O10 0.502652 0.734526 0.991662
O O11 0.451321 0.606366 0.972463
O O12 0.666668 0.333334 0.583334
O O13 0.333334 0.794210 0.416667
#
# Coordination Sequence:
#
# PCOD8324398 Si02
#       6
#    36  36  36  12  36  36
#     4  12  23  39  67  95 128 176 220 268 339 397
#     4  11  23  45  66  95 132 171 226 275 326 407
#     4  11  18  36  56  94 135 170 212 271 332 378
#     4  12  18  30  60 102 136 173 226 277 323 382
#     4  11  25  42  66  95 135 178 214 276 342 385
#     4  11  20  31  58  97 137 164 217 278 319 383
#
# _framework density 19.961998000000001
#
# number of rings (size 3 to 8) (size 9 to 14) (size 15 to 20)
#    0.000    0.750    9.375    0.000    2.625    0.000 
#    3.375    3.750    0.000    0.000    0.000    1.312 
#    0.000    0.000    0.000    0.000    0.000    0.000 
#
# Total GULP energy -793425.672790 kJ/mol
# GULP energy per Si atom -12397.276137 kJ/mol
# Density = 1.991656 g / cm^3
# Si number density = 19.961998 Si / 1000 Ang^3
#
#
#
# Elastic Constant Matrix: (Units=GPa)
#
#
# Indices 1 2 3 4 5 6 
#
# 1 124.5006 41.6800 27.6501 -1.2759 -0.0001 0.0001
# 2 41.6800 124.4993 27.6501 1.2756 0.0001 0.0000
# 3 27.6501 27.6501 58.5523 -0.0001 0.0000 0.0000
# 4 -1.2759 1.2756 -0.0001 28.3076 0.0000 0.0001
# 5 -0.0001 0.0001 0.0000 0.0000 28.3076 -1.2758
# 6 0.0001 0.0000 0.0000 0.0001 -1.2758 41.4097
#
#
#
# Elastic Compliance Matrix: (Units=1/GPa)
#
#
# Indices 1 2 3 4 5 6 
#
# 1 0.009615 -0.002476 -0.003371 0.000545 0.000000 0.000000
# 2 -0.002476 0.009615 -0.003372 -0.000545 0.000000 0.000000
# 3 -0.003371 -0.003372 0.020263 0.000000 0.000000 0.000000
# 4 0.000545 -0.000545 0.000000 0.035375 0.000000 0.000000
# 5 0.000000 0.000000 0.000000 0.000000 0.035375 0.001090
# 6 0.000000 0.000000 0.000000 0.000000 0.001090 0.024183
#
#
# Mechanical properties :
#
#
# Convention : Reuss Voigt Hill
#
# Bulk Modulus (GPa) = 47.49227 55.72363 51.60795
# Shear Modulus (GPa) = 31.27284 33.64311 32.45797
#
# Velocity S-wave (km/s) = 3.96235 4.10976 4.03673
# Velocity P-wave (km/s) = 6.69153 7.10603 6.90189
#
# Compressibility (1/GPa) = 0.02105606
#
# Stress axis : x y z
#
# Youngs Moduli (GPa) = 104.00106 103.99989 49.35110
#
# Poissons Ratio (x) = 0.25749 0.16639
# Poissons Ratio (y) = 0.25749 0.16639
# Poissons Ratio (z) = 0.35064 0.35064
#
# Static dielectric constant tensor:
#      x y z
#    x 4.005770 0.000000 0.000000 
#    y 0.000000 4.005800 0.000000 
#    z 0.000000 0.000000 3.348400 
# 
# 
# High freq. dielectric constant tensor:
#      x y z
#    x 1.792960 0.000000 0.000000 
#    y 0.000000 1.792960 0.000000 
#    z 0.000000 0.000000 1.732980 
# 
# From -- ./inp_files/5450.got.cif
#   From: 2010.03.12/outbox.cif.g09.slc.cpg/sg167_3_cif.got.tgz:5450.got - 2010.04.02 06:42:56.
