data_PCOD8324271
_publ_section_title
;
Structure prediction by ZEFSAII (Michael W. Deem and Ramdas Pophale) SiO2 
 PCOD8324271
Probable space group: R -3 C 
;
_chemical_formula_sum "Si O2"
_cell_formula_units_Z 216
_cell_length_a 25.471961
_cell_length_b 25.471961
_cell_length_c 24.019876
_cell_angle_alpha 90.000000
_cell_angle_beta 90.000000
_cell_angle_gamma 120.000000
_cell_volume 13496.655260
_symmetry_space_group_name_H-M "R -3 C "
_symmetry_group_IT_number 167
_symmetry_cell_setting 'hexagonal'
loop_
_space_group_symop_operation_xyz
x,y,z
-y,x-y,z
-x+y,-x,z
x-y,-y,1/2-z
-x,-x+y,1/2-z
y,x,1/2-z
-x,-y,-z
y,-x+y,-z
x-y,x,-z
-x+y,y,1/2+z
x,x-y,1/2+z
-y,-x,1/2+z
2/3+x,1/3+y,1/3+z
2/3-y,1/3+x-y,1/3+z
2/3-x+y,1/3-x,1/3+z
2/3+x-y,1/3-y,5/6-z
2/3-x,1/3-x+y,5/6-z
2/3+y,1/3+x,5/6-z
2/3-x,1/3-y,1/3-z
2/3+y,1/3-x+y,1/3-z
2/3+x-y,1/3+x,1/3-z
2/3-x+y,1/3+y,5/6+z
2/3+x,1/3+x-y,5/6+z
2/3-y,1/3-x,5/6+z
1/3+x,2/3+y,2/3+z
1/3-y,2/3+x-y,2/3+z
1/3-x+y,2/3-x,2/3+z
1/3+x-y,2/3-y,1/6-z
1/3-x,2/3-x+y,1/6-z
1/3+y,2/3+x,1/6-z
1/3-x,2/3-y,2/3-z
1/3+y,2/3-x+y,2/3-z
1/3+x-y,2/3+x,2/3-z
1/3-x+y,2/3+y,1/6+z
1/3+x,2/3+x-y,1/6+z
1/3-y,2/3-x,1/6+z
loop_
_atom_site_type_symbol
_atom_site_label
_atom_site_fract_x
_atom_site_fract_y
_atom_site_fract_z
Si Si1 0.394211 0.913853 0.068203
Si Si2 0.705993 0.640021 0.634204
Si Si3 0.481866 0.077616 0.904961
Si Si4 0.001646 0.881757 0.436830
Si Si5 0.629060 0.695044 0.134875
Si Si6 0.218362 0.668527 0.598935
O O1 0.460556 0.931772 0.089889
O O2 0.367714 0.941844 0.112274
O O3 0.348196 0.841859 0.064743
O O4 0.396831 0.938491 0.006108
O O5 0.666667 0.596001 0.583334
O O6 0.763635 0.701921 0.614437
O O7 0.663190 0.658947 0.666681
O O8 0.502540 0.147108 0.921524
O O9 0.457550 0.061280 0.841606
O O10 0.936562 0.867602 0.413424
O O11 0.999993 0.872058 0.502568
O O12 0.047388 0.951410 0.419988
O O13 0.666667 0.739672 0.083334
#
# Coordination Sequence:
#
# PCOD8324271 Si02
#       6
#    36  36  36  36  36  36
#     4  10  18  30  50  69  92 122 156 195 234 282
#     4   9  19  34  47  63  89 125 163 197 234 269
#     4  10  18  30  48  69  91 121 157 192 231 283
#     4   9  16  26  43  68 101 124 146 177 224 289
#     4   9  18  32  46  63  90 119 150 194 239 279
#     4   9  16  26  43  69  98 126 145 176 229 281
#
# _framework density 16.003965000000001
#
# number of rings (size 3 to 8) (size 9 to 14) (size 15 to 20)
#    0.000    2.667    1.667    0.833    0.000    1.333 
#    0.000    7.500    0.000    0.000    0.000    3.500 
#    0.000    0.000    0.000    0.000    0.000    0.000 
#
# Total GULP energy -892492.289611 kJ/mol
# GULP energy per Si atom -12395.726245 kJ/mol
# Density = 1.596754 g / cm^3
# Si number density = 16.003965 Si / 1000 Ang^3
#
#
#
# Elastic Constant Matrix: (Units=GPa)
#
#
# Indices 1 2 3 4 5 6 
#
# 1 108.7341 62.8398 50.0700 0.7385 0.0000 0.0000
# 2 62.8398 108.7341 50.0700 -0.7385 0.0000 0.0000
# 3 50.0700 50.0700 81.4670 0.0000 0.0000 0.0000
# 4 0.7385 -0.7385 0.0000 19.2270 0.0000 0.0000
# 5 0.0000 0.0000 0.0000 0.0000 19.2270 0.7385
# 6 0.0000 0.0000 0.0000 0.0000 0.7385 22.9472
#
#
#
# Elastic Compliance Matrix: (Units=1/GPa)
#
#
# Indices 1 2 3 4 5 6 
#
# 1 0.015452 -0.006364 -0.005586 -0.000838 0.000000 0.000000
# 2 -0.006364 0.015452 -0.005586 0.000838 0.000000 0.000000
# 3 -0.005586 -0.005586 0.019141 0.000000 0.000000 0.000000
# 4 -0.000838 0.000838 0.000000 0.052075 0.000000 0.000000
# 5 0.000000 0.000000 0.000000 0.000000 0.052075 -0.001676
# 6 0.000000 0.000000 0.000000 0.000000 -0.001676 0.043632
#
#
# Mechanical properties :
#
#
# Convention : Reuss Voigt Hill
#
# Bulk Modulus (GPa) = 66.77897 69.43276 68.10586
# Shear Modulus (GPa) = 21.01809 21.34392 21.18100
#
# Velocity S-wave (km/s) = 3.62789 3.65590 3.64192
# Velocity P-wave (km/s) = 7.70492 7.82941 7.76742
#
# Compressibility (1/GPa) = 0.01497477
#
# Stress axis : x y z
#
# Youngs Moduli (GPa) = 64.71488 64.71488 52.24332
#
# Poissons Ratio (x) = 0.41183 0.29183
# Poissons Ratio (y) = 0.41183 0.29183
# Poissons Ratio (z) = 0.36149 0.36149
#
# Static dielectric constant tensor:
#      x y z
#    x 3.100680 0.000000 0.000000 
#    y 0.000000 3.100680 0.000000 
#    z 0.000000 0.000000 2.935730 
# 
# 
# High freq. dielectric constant tensor:
#      x y z
#    x 1.618460 0.000000 0.000000 
#    y 0.000000 1.618460 0.000000 
#    z 0.000000 0.000000 1.586580 
# 
# From -- ./inp_files/5509.got.cif
#   From: 2010.03.12/outbox.cif.g09.slc.cpg/sg167_3_cif.got.tgz:5509.got - 2010.04.02 06:42:56.
