data_PCOD8324886
_publ_section_title
;
Structure prediction by ZEFSAII (Michael W. Deem and Ramdas Pophale) SiO2 
 PCOD8324886
Probable space group: P 63
;
_chemical_formula_sum "Si O2"
_cell_formula_units_Z 36
_cell_length_a 11.381858
_cell_length_b 11.381858
_cell_length_c 14.400263
_cell_angle_alpha 90.000000
_cell_angle_beta 90.000000
_cell_angle_gamma 120.000000
_cell_volume 1615.575958
_symmetry_space_group_name_H-M "P 63"
_symmetry_group_IT_number 173
_symmetry_cell_setting 'hexagonal'
loop_
_space_group_symop_operation_xyz
x,y,z
x-y,x,1/2+z
-y,x-y,z
-x,-y,1/2+z
-x+y,-x,z
y,-x+y,1/2+z
loop_
_atom_site_type_symbol
_atom_site_label
_atom_site_fract_x
_atom_site_fract_y
_atom_site_fract_z
Si Si1 0.824866 0.190070 0.529260
Si Si2 0.436390 0.487318 0.289988
Si Si3 0.482070 0.518628 0.990688
Si Si4 0.832298 0.456755 0.149619
Si Si5 0.842723 0.986248 0.876928
Si Si6 0.773254 0.139037 0.737123
O O1 0.833077 0.334055 0.509580
O O2 0.674555 0.074042 0.499840
O O3 0.949958 0.195554 0.471017
O O4 0.845709 0.165425 0.636985
O O5 0.504694 0.532296 0.389950
O O6 0.470216 0.379129 0.244181
O O7 0.509346 0.620184 0.223312
O O8 0.275649 0.424917 0.298072
O O9 0.485122 0.410676 0.060359
O O10 0.705531 0.483115 0.148136
O O11 0.872740 0.860868 0.873286
O O12 0.767025 0.008774 0.789192
#
# Coordination Sequence:
#
# PCOD8324886 Si02
#       6
#     6   6   6   6   6   6
#     4  12  24  46  74 106 143 185 240 299 365 427
#     4  12  26  45  74 106 141 184 235 305 358 434
#     4  12  26  45  74 106 141 184 235 305 358 434
#     4  10  26  46  68 104 142 184 236 282 360 432
#     4  10  26  48  64 102 142 190 244 280 350 438
#     4  12  24  46  74 106 143 185 240 299 365 427
#
# _framework density 22.283075
#
# number of rings (size 3 to 8) (size 9 to 14) (size 15 to 20)
#    0.667    0.000    5.000    1.667    4.667    4.000 
#    0.000    0.000    0.000    0.000    0.000    0.000 
#    0.000    0.000    0.000    0.000    0.000    0.000 
#
# Total GULP energy -446151.755887 kJ/mol
# GULP energy per Si atom -12393.104330 kJ/mol
# Density = 2.223236 g / cm^3
# Si number density = 22.283075 Si / 1000 Ang^3
#
#
#
# Elastic Constant Matrix: (Units=GPa)
#
#
# Indices 1 2 3 4 5 6 
#
# 1 75.4643 10.1421 19.5992 0.0000 0.0000 0.0000
# 2 10.1421 75.4643 19.5992 0.0000 0.0000 0.0000
# 3 19.5992 19.5992 117.2668 0.0000 0.0000 0.0000
# 4 0.0000 0.0000 0.0000 33.4051 0.0000 0.0000
# 5 0.0000 0.0000 0.0000 0.0000 33.4051 0.0000
# 6 0.0000 0.0000 0.0000 0.0000 0.0000 32.6611
#
#
#
# Elastic Compliance Matrix: (Units=1/GPa)
#
#
# Indices 1 2 3 4 5 6 
#
# 1 0.013979 -0.001330 -0.002114 0.000000 0.000000 0.000000
# 2 -0.001330 0.013979 -0.002114 0.000000 0.000000 0.000000
# 3 -0.002114 -0.002114 0.009234 0.000000 0.000000 0.000000
# 4 0.000000 0.000000 0.000000 0.029936 0.000000 0.000000
# 5 0.000000 0.000000 0.000000 0.000000 0.029936 0.000000
# 6 0.000000 0.000000 0.000000 0.000000 0.000000 0.030617
#
#
# Mechanical properties :
#
#
# Convention : Reuss Voigt Hill
#
# Bulk Modulus (GPa) = 38.34870 40.76406 39.55638
# Shear Modulus (GPa) = 33.90085 34.48460 34.19272
#
# Velocity S-wave (km/s) = 3.90471 3.93818 3.92148
# Velocity P-wave (km/s) = 6.12994 6.24600 6.18824
#
# Compressibility (1/GPa) = 0.02607651
#
# Stress axis : x y z
#
# Youngs Moduli (GPa) = 71.53554 71.53554 108.29252
#
# Poissons Ratio (x) = 0.09512 0.22895
# Poissons Ratio (y) = 0.09512 0.22895
# Poissons Ratio (z) = 0.15124 0.15124
#
# Static dielectric constant tensor:
#      x y z
#    x 3.866740 0.000000 0.000000 
#    y 0.000000 3.866740 0.000000 
#    z 0.000000 0.000000 3.882050 
# 
# 
# High freq. dielectric constant tensor:
#      x y z
#    x 1.876280 0.000000 0.000000 
#    y 0.000000 1.876280 0.000000 
#    z 0.000000 0.000000 1.876980 
# 
# From -- ./inp_files/1087.got.cif
#   From: 2010.03.12/outbox.cif.g09.slc.cpg/sg173_cif.got.tgz:1087.got - 2010.04.02 06:54:12.
