data_PCOD8324889
_publ_section_title
;
Structure prediction by ZEFSAII (Michael W. Deem and Ramdas Pophale) SiO2 
 PCOD8324889
Probable space group: P 63
;
_chemical_formula_sum "Si O2"
_cell_formula_units_Z 34
_cell_length_a 10.309316
_cell_length_b 10.309316
_cell_length_c 14.665746
_cell_angle_alpha 90.000000
_cell_angle_beta 90.000000
_cell_angle_gamma 120.000000
_cell_volume 1349.877922
_symmetry_space_group_name_H-M "P 63"
_symmetry_group_IT_number 173
_symmetry_cell_setting 'hexagonal'
loop_
_space_group_symop_operation_xyz
x,y,z
x-y,x,1/2+z
-y,x-y,z
-x,-y,1/2+z
-x+y,-x,z
y,-x+y,1/2+z
loop_
_atom_site_type_symbol
_atom_site_label
_atom_site_fract_x
_atom_site_fract_y
_atom_site_fract_z
Si Si1 0.238538 0.239084 0.790160
Si Si2 0.220424 0.325685 0.590079
Si Si3 0.007851 0.521983 0.291145
Si Si4 0.552681 0.984944 0.097387
Si Si5 0.758683 0.008927 0.398703
Si Si6 0.666668 0.333335 0.515511
Si Si7 0.666668 0.333335 0.302817
O O1 0.187051 0.233957 0.684993
O O2 0.418870 0.335592 0.802775
O O3 0.176941 0.320280 0.859447
O O4 0.185242 0.076429 0.830794
O O5 0.387748 0.465458 0.590685
O O6 0.096087 0.372410 0.567056
O O7 0.208188 0.217596 0.505236
O O8 0.071701 0.624094 0.200885
O O9 0.038619 0.623512 0.380887
O O10 0.834162 0.411799 0.264192
O O11 0.471042 0.829131 0.042637
O O12 0.666668 0.333334 0.409568
#
# Coordination Sequence:
#
# PCOD8324889 Si02
#       7
#     6   6   6   6   6   2   2
#     4  11  27  48  70 110 155 198 252 314 393 462
#     4  11  26  47  79 110 158 210 264 319 394 478
#     4  11  23  45  75 101 150 195 253 306 390 460
#     4  11  25  49  72 118 156 208 259 333 391 474
#     4  12  26  46  75 110 146 204 255 319 376 469
#     4  12  30  42  81 126 163 191 277 336 402 453
#     4  12  21  45  78 105 142 212 250 303 384 504
#
# _framework density 25.187460999999999
#
# number of rings (size 3 to 8) (size 9 to 14) (size 15 to 20)
#    0.000    0.706    3.529    2.824    9.882    1.412 
#    1.059    0.000    0.000    0.706    0.000    0.000 
#    0.000    0.000    0.000    0.000    0.000    0.000 
#
# Total GULP energy -421448.213849 kJ/mol
# GULP energy per Si atom -12395.535701 kJ/mol
# Density = 2.513013 g / cm^3
# Si number density = 25.187461 Si / 1000 Ang^3
#
#
#
# Elastic Constant Matrix: (Units=GPa)
#
#
# Indices 1 2 3 4 5 6 
#
# 1 67.1396 9.6374 32.9449 0.0000 0.0000 -0.0004
# 2 9.6374 67.1381 32.9455 0.0000 0.0000 -0.0007
# 3 32.9449 32.9455 181.0592 0.0000 0.0000 0.0001
# 4 0.0000 0.0000 0.0000 28.6154 -0.0036 0.0000
# 5 0.0000 0.0000 0.0000 -0.0036 28.6084 0.0000
# 6 -0.0004 -0.0007 0.0001 0.0000 0.0000 28.7511
#
#
#
# Elastic Compliance Matrix: (Units=1/GPa)
#
#
# Indices 1 2 3 4 5 6 
#
# 1 0.016413 -0.000978 -0.002808 0.000000 0.000000 0.000000
# 2 -0.000978 0.016413 -0.002809 0.000000 0.000000 0.000000
# 3 -0.002808 -0.002809 0.006545 0.000000 0.000000 0.000000
# 4 0.000000 0.000000 0.000000 0.034946 0.000004 0.000000
# 5 0.000000 0.000000 0.000000 0.000004 0.034955 0.000000
# 6 0.000000 0.000000 0.000000 0.000000 0.000000 0.034781
#
#
# Mechanical properties :
#
#
# Convention : Reuss Voigt Hill
#
# Bulk Modulus (GPa) = 38.19519 51.82139 45.00829
# Shear Modulus (GPa) = 30.12586 33.18227 31.65406
#
# Velocity S-wave (km/s) = 3.46217 3.63356 3.54890
# Velocity P-wave (km/s) = 5.58386 6.18244 5.89076
#
# Compressibility (1/GPa) = 0.02618131
#
# Stress axis : x y z
#
# Youngs Moduli (GPa) = 60.92808 60.92633 152.78519
#
# Poissons Ratio (x) = 0.05957 0.42910
# Poissons Ratio (y) = 0.05958 0.42912
# Poissons Ratio (z) = 0.17112 0.17112
#
# Static dielectric constant tensor:
#      x y z
#    x 5.815980 -0.000500 0.000000 
#    y -0.000500 5.814380 0.000000 
#    z 0.000000 0.000000 4.675450 
# 
# 
# High freq. dielectric constant tensor:
#      x y z
#    x 1.999700 0.000000 0.000000 
#    y 0.000000 1.999700 0.000000 
#    z 0.000000 0.000000 2.016180 
# 
# From -- ./inp_files/1096.got.cif
#   From: 2010.03.12/outbox.cif.g09.slc.cpg/sg173_cif.got.tgz:1096.got - 2010.04.02 06:54:12.
