data_PCOD8324934
_publ_section_title
;
Structure prediction by ZEFSAII (Michael W. Deem and Ramdas Pophale) SiO2 
 PCOD8324934
Probable space group: P -6
;
_chemical_formula_sum "Si O2"
_cell_formula_units_Z 32
_cell_length_a 14.476552
_cell_length_b 14.476552
_cell_length_c 8.621162
_cell_angle_alpha 90.000000
_cell_angle_beta 90.000000
_cell_angle_gamma 120.000000
_cell_volume 1564.684236
_symmetry_space_group_name_H-M "P -6"
_symmetry_group_IT_number 174
_symmetry_cell_setting 'hexagonal'
loop_
_space_group_symop_operation_xyz
x,y,z
-x+y,-x,-z
-y,x-y,z
x,y,-z
-x+y,-x,z
-y,x-y,-z
loop_
_atom_site_type_symbol
_atom_site_label
_atom_site_fract_x
_atom_site_fract_y
_atom_site_fract_z
Si Si1 0.538118 0.869034 0.318031
Si Si2 0.446658 0.182783 0.822537
Si Si3 0.061820 0.837105 0.678610
Si Si4 0.848905 0.792534 0.175988
Si Si5 0.333334 0.666668 0.182957
Si Si6 0.590217 0.090552 0.185472
O O1 0.517168 0.858371 0.500000
O O2 0.650922 0.877550 0.275069
O O3 0.445238 0.763853 0.239378
O O4 0.538406 0.973832 0.258496
O O5 0.328371 0.083721 0.804436
O O6 0.456418 0.289986 0.748593
O O7 0.524661 0.145741 0.749285
O O8 0.480293 0.212455 0.000000
O O9 0.026386 0.817765 0.500000
O O10 0.959007 0.796688 0.785732
O O11 0.137671 0.962425 0.706039
O O12 0.853777 0.832706 0.000000
O O13 0.333334 0.666668 0.000000
O O14 0.584214 0.077501 0.000000
#
# Coordination Sequence:
#
# PCOD8324934 Si02
#       6
#     6   6   6   6   2   6
#     4  11  25  45  66  93 128 166 209 263 318 376
#     4   9  19  34  60  94 125 157 201 253 304 362
#     4  11  24  42  63  89 126 169 207 252 317 382
#     4  11  22  38  61  93 125 158 206 259 307 364
#     4  12  28  47  70  93 118 164 217 267 316 371
#     4  10  19  38  64  94 128 166 208 254 310 371
#
# _framework density 20.451411
#
# number of rings (size 3 to 8) (size 9 to 14) (size 15 to 20)
#    0.000    1.500    1.875    3.000    2.625    3.750 
#    0.000    1.875    0.000    0.000    0.000    0.000 
#    0.000    0.000    0.000    0.000    0.000    0.000 
#
# Total GULP energy -396862.522556 kJ/mol
# GULP energy per Si atom -12401.953830 kJ/mol
# Density = 2.040486 g / cm^3
# Si number density = 20.451411 Si / 1000 Ang^3
#
#
#
# Elastic Constant Matrix: (Units=GPa)
#
#
# Indices 1 2 3 4 5 6 
#
# 1 121.3127 44.8795 35.1248 0.0000 0.0000 0.0000
# 2 44.8795 121.3108 35.1248 0.0000 0.0000 0.0005
# 3 35.1248 35.1248 63.7640 0.0000 0.0000 0.0000
# 4 0.0000 0.0000 0.0000 25.7216 -0.0001 0.0000
# 5 0.0000 0.0000 0.0000 -0.0001 25.7218 0.0000
# 6 0.0000 0.0005 0.0000 0.0000 0.0000 38.2163
#
#
#
# Elastic Compliance Matrix: (Units=1/GPa)
#
#
# Indices 1 2 3 4 5 6 
#
# 1 0.010463 -0.002620 -0.004321 0.000000 0.000000 0.000000
# 2 -0.002620 0.010464 -0.004321 0.000000 0.000000 0.000000
# 3 -0.004321 -0.004321 0.020443 0.000000 0.000000 0.000000
# 4 0.000000 0.000000 0.000000 0.038878 0.000000 0.000000
# 5 0.000000 0.000000 0.000000 0.000000 0.038878 0.000000
# 6 0.000000 0.000000 0.000000 0.000000 0.000000 0.026167
#
#
# Mechanical properties :
#
#
# Convention : Reuss Voigt Hill
#
# Bulk Modulus (GPa) = 53.05776 59.62728 56.34252
# Shear Modulus (GPa) = 28.71958 30.68249 29.70103
#
# Velocity S-wave (km/s) = 3.75144 3.87752 3.81500
# Velocity P-wave (km/s) = 6.69060 7.01896 6.85674
#
# Compressibility (1/GPa) = 0.01884738
#
# Stress axis : x y z
#
# Youngs Moduli (GPa) = 95.57126 95.56942 48.91662
#
# Poissons Ratio (x) = 0.25039 0.21135
# Poissons Ratio (y) = 0.25039 0.21135
# Poissons Ratio (z) = 0.41292 0.41293
#
# Static dielectric constant tensor:
#      x y z
#    x 3.797400 -0.000010 0.000000 
#    y -0.000010 3.797400 0.000000 
#    z 0.000000 0.000000 3.495200 
# 
# 
# High freq. dielectric constant tensor:
#      x y z
#    x 1.810960 0.000000 0.000000 
#    y 0.000000 1.810960 0.000000 
#    z 0.000000 0.000000 1.780570 
# 
# From -- ./inp_files/355.got.cif
#   From: 2010.03.12/outbox.cif.g09.slc.cpg/sg174_cif.got.tgz:355.got - 2010.04.02 06:54:58.
