data_PCOD8324102
_publ_section_title
;
Structure prediction by ZEFSAII (Michael W. Deem and Ramdas Pophale) SiO2 
 PCOD8324102
Probable space group: R -3 M
;
_chemical_formula_sum "Si O2"
_cell_formula_units_Z 144
_cell_length_a 20.597867
_cell_length_b 20.597867
_cell_length_c 19.420113
_cell_angle_alpha 90.000000
_cell_angle_beta 90.000000
_cell_angle_gamma 120.000000
_cell_volume 7135.540632
_symmetry_space_group_name_H-M "R -3 M"
_symmetry_group_IT_number 166
_symmetry_cell_setting 'hexagonal'
loop_
_space_group_symop_operation_xyz
x,y,z
-y,x-y,z
-x+y,-x,z
x-y,-y,-z
-x,-x+y,-z
y,x,-z
-x,-y,-z
y,-x+y,-z
x-y,x,-z
-x+y,y,z
x,x-y,z
-y,-x,z
2/3+x,1/3+y,1/3+z
2/3-y,1/3+x-y,1/3+z
2/3-x+y,1/3-x,1/3+z
2/3+x-y,1/3-y,1/3-z
2/3-x,1/3-x+y,1/3-z
2/3+y,1/3+x,1/3-z
2/3-x,1/3-y,1/3-z
2/3+y,1/3-x+y,1/3-z
2/3+x-y,1/3+x,1/3-z
2/3-x+y,1/3+y,1/3+z
2/3+x,1/3+x-y,1/3+z
2/3-y,1/3-x,1/3+z
1/3+x,2/3+y,2/3+z
1/3-y,2/3+x-y,2/3+z
1/3-x+y,2/3-x,2/3+z
1/3+x-y,2/3-y,2/3-z
1/3-x,2/3-x+y,2/3-z
1/3+y,2/3+x,2/3-z
1/3-x,2/3-y,2/3-z
1/3+y,2/3-x+y,2/3-z
1/3+x-y,2/3+x,2/3-z
1/3-x+y,2/3+y,2/3+z
1/3+x,2/3+x-y,2/3+z
1/3-y,2/3-x,2/3+z
loop_
_atom_site_type_symbol
_atom_site_label
_atom_site_fract_x
_atom_site_fract_y
_atom_site_fract_z
Si Si1 0.246273 0.009574 0.576395
Si Si2 0.001317 0.852082 0.304639
Si Si3 0.337819 0.923962 0.862378
Si Si4 0.942399 0.543105 0.279194
O O1 0.335572 0.068642 0.570642
O O2 0.211415 0.000000 0.500000
O O3 0.202044 0.034189 0.627914
O O4 0.233884 0.931614 0.606622
O O5 0.930686 0.861372 0.324122
O O6 0.974597 0.787359 0.246665
O O7 0.069140 0.930861 0.276730
O O8 0.272124 0.938790 0.833334
O O9 0.373230 0.906151 0.796398
O O10 0.926517 0.463259 0.306586
O O11 0.906854 0.573520 0.333334
#
# Coordination Sequence:
#
# PCOD8324102 Si02
#       4
#    36  36  36  36
#     4   9  20  37  59  86 109 136 183 242 295 330
#     4  12  25  39  56  81 118 160 193 223 268 336
#     4   9  20  38  60  87 110 137 185 242 296 334
#     4  10  19  33  55  83 113 142 177 226 283 339
#
# _framework density 20.180669999999999
#
# number of rings (size 3 to 8) (size 9 to 14) (size 15 to 20)
#    0.000    2.500    0.000    5.500    0.000    8.500 
#    0.000    0.000    0.000    2.500    0.000    0.000 
#    0.000    0.000    0.000    0.000    0.000    0.000 
#
# Total GULP energy -594968.397662 kJ/mol
# GULP energy per Si atom -12395.174951 kJ/mol
# Density = 2.013474 g / cm^3
# Si number density = 20.180670 Si / 1000 Ang^3
#
#
#
# Elastic Constant Matrix: (Units=GPa)
#
#
# Indices 1 2 3 4 5 6 
#
# 1 81.9807 52.6454 54.8211 -3.5203 -0.0018 0.0000
# 2 52.6454 81.9807 54.8211 3.5203 0.0018 0.0000
# 3 54.8211 54.8211 102.7007 0.0000 0.0000 0.0000
# 4 -3.5203 3.5203 0.0000 8.4945 0.0000 0.0018
# 5 -0.0018 0.0018 0.0000 0.0000 8.4945 -3.5203
# 6 0.0000 0.0000 0.0000 0.0018 -3.5203 14.6677
#
#
#
# Elastic Compliance Matrix: (Units=1/GPa)
#
#
# Indices 1 2 3 4 5 6 
#
# 1 0.025497 -0.012356 -0.007014 0.015687 0.000008 0.000000
# 2 -0.012356 0.025497 -0.007014 -0.015687 -0.000008 0.000000
# 3 -0.007014 -0.007014 0.017226 0.000000 0.000000 0.000000
# 4 0.015687 -0.015687 0.000000 0.130725 0.000000 -0.000016
# 5 0.000008 -0.000008 0.000000 0.000000 0.130725 0.031374
# 6 0.000000 0.000000 0.000000 -0.000016 0.031374 0.075707
#
#
# Mechanical properties :
#
#
# Convention : Reuss Voigt Hill
#
# Bulk Modulus (GPa) = 64.72824 65.69303 65.21063
# Shear Modulus (GPa) = 10.79221 13.28965 12.04093
#
# Velocity S-wave (km/s) = 2.31504 2.56897 2.44531
# Velocity P-wave (km/s) = 6.26816 6.43604 6.35266
#
# Compressibility (1/GPa) = 0.01544921
#
# Stress axis : x y z
#
# Youngs Moduli (GPa) = 39.22018 39.22018 58.05329
#
# Poissons Ratio (x) = 0.48462 0.40721
# Poissons Ratio (y) = 0.48462 0.40721
# Poissons Ratio (z) = 0.27511 0.27511
#
# Static dielectric constant tensor:
#      x y z
#    x 3.378220 0.000000 0.000000 
#    y 0.000000 3.378220 0.000000 
#    z 0.000000 0.000000 3.809160 
# 
# 
# High freq. dielectric constant tensor:
#      x y z
#    x 1.763130 0.000000 0.000000 
#    y 0.000000 1.763130 0.000000 
#    z 0.000000 0.000000 1.800740 
# 
# From -- ./inp_files/6617.got.cif
#   From: 2010.03.12/outbox.cif.g09.slc.cpg/sg166_4_cif.got.tgz:6617.got - 2010.04.02 06:38:31.
