data_PCOD8324967
_publ_section_title
;
Structure prediction by ZEFSAII (Michael W. Deem and Ramdas Pophale) SiO2 
 PCOD8324967
Probable space group: P -6
;
_chemical_formula_sum "Si O2"
_cell_formula_units_Z 42
_cell_length_a 8.428450
_cell_length_b 8.428450
_cell_length_c 32.346054
_cell_angle_alpha 90.000000
_cell_angle_beta 90.000000
_cell_angle_gamma 120.000000
_cell_volume 1989.973846
_symmetry_space_group_name_H-M "P -6"
_symmetry_group_IT_number 174
_symmetry_cell_setting 'hexagonal'
loop_
_space_group_symop_operation_xyz
x,y,z
-x+y,-x,-z
-y,x-y,z
x,y,-z
-x+y,-x,z
-y,x-y,-z
loop_
_atom_site_type_symbol
_atom_site_label
_atom_site_fract_x
_atom_site_fract_y
_atom_site_fract_z
Si Si1 0.648457 0.119591 0.500000
Si Si2 0.450317 0.142253 0.710038
Si Si3 0.329234 0.003666 0.377714
Si Si4 0.786258 0.981790 0.000000
Si Si5 0.340555 0.341549 0.588226
Si Si6 0.670333 0.662567 0.877714
Si Si7 0.665673 0.991784 0.088226
Si Si8 0.974731 0.191081 0.210038
O O1 0.479069 0.161621 0.500000
O O2 0.635772 0.995089 0.538863
O O3 0.644293 0.143143 0.709280
O O4 0.324547 0.028144 0.671504
O O5 0.333333 0.038701 0.750000
O O6 0.407809 0.201094 0.398857
O O7 0.464647 0.928950 0.389555
O O8 0.129018 0.865978 0.395809
O O9 0.828287 0.812402 0.000000
O O10 0.661755 0.969105 0.961137
O O11 0.532645 0.462352 0.895809
O O12 0.867761 0.741142 0.898857
O O13 0.694810 0.657880 0.828495
O O14 0.595617 0.797981 0.889555
O O15 0.167816 0.190190 0.209280
#
# Coordination Sequence:
#
# PCOD8324967 Si02
#       8
#     3   6   6   3   6   6   6   6
#     4  10  20  42  72  96 134 184 238 302 364 392
#     4  10  23  41  68 100 139 181 233 291 351 410
#     4  12  24  45  65 106 140 188 233 288 360 427
#     4  10  20  42  72  96 134 184 238 302 364 392
#     4  12  24  42  72  97 141 189 233 293 356 422
#     4  12  24  45  65 106 140 188 233 288 360 427
#     4  12  24  42  72  97 141 189 233 293 356 422
#     4  10  23  41  68 100 139 181 233 291 351 410
#
# _framework density 21.105803000000002
#
# number of rings (size 3 to 8) (size 9 to 14) (size 15 to 20)
#    0.857    0.000    5.714    1.714    4.000    2.286 
#    0.000    0.000    0.000    0.571    0.000    0.000 
#    0.000    0.000    0.000    0.000    0.000    0.000 
#
# Total GULP energy -520828.112977 kJ/mol
# GULP energy per Si atom -12400.669357 kJ/mol
# Density = 2.105777 g / cm^3
# Si number density = 21.105803 Si / 1000 Ang^3
#
#
#
# Elastic Constant Matrix: (Units=GPa)
#
#
# Indices 1 2 3 4 5 6 
#
# 1 79.8796 25.0249 54.6381 0.0000 0.0000 0.0000
# 2 25.0249 79.8796 54.6381 0.0000 0.0000 0.0000
# 3 54.6381 54.6381 220.5309 0.0000 0.0000 0.0000
# 4 0.0000 0.0000 0.0000 35.4228 0.0000 0.0000
# 5 0.0000 0.0000 0.0000 0.0000 35.4228 0.0000
# 6 0.0000 0.0000 0.0000 0.0000 0.0000 27.4274
#
#
#
# Elastic Compliance Matrix: (Units=1/GPa)
#
#
# Indices 1 2 3 4 5 6 
#
# 1 0.015539 -0.002691 -0.003183 0.000000 0.000000 0.000000
# 2 -0.002691 0.015539 -0.003183 0.000000 0.000000 0.000000
# 3 -0.003183 -0.003183 0.006112 0.000000 0.000000 0.000000
# 4 0.000000 0.000000 0.000000 0.028230 0.000000 0.000000
# 5 0.000000 0.000000 0.000000 0.000000 0.028230 0.000000
# 6 0.000000 0.000000 0.000000 0.000000 0.000000 0.036460
#
#
# Mechanical properties :
#
#
# Convention : Reuss Voigt Hill
#
# Bulk Modulus (GPa) = 52.42309 72.09918 62.26114
# Shear Modulus (GPa) = 32.34482 36.05386 34.19934
#
# Velocity S-wave (km/s) = 3.91897 4.13757 4.02976
# Velocity P-wave (km/s) = 6.73572 7.55387 7.15650
#
# Compressibility (1/GPa) = 0.01907556
#
# Stress axis : x y z
#
# Youngs Moduli (GPa) = 64.35338 64.35338 163.61581
#
# Poissons Ratio (x) = 0.17316 0.52084
# Poissons Ratio (y) = 0.17316 0.52084
# Poissons Ratio (z) = 0.20486 0.20486
#
# Static dielectric constant tensor:
#      x y z
#    x 3.463600 0.000000 0.000000 
#    y 0.000000 3.463600 0.000000 
#    z 0.000000 0.000000 3.760980 
# 
# 
# High freq. dielectric constant tensor:
#      x y z
#    x 1.811000 0.000000 0.000000 
#    y 0.000000 1.811000 0.000000 
#    z 0.000000 0.000000 1.839910 
# 
# From -- ./inp_files/1101.got.cif
#   From: 2010.03.12/outbox.cif.g09.slc.cpg/sg174_cif.got.tgz:1101.got - 2010.04.02 06:54:58.
