data_PCOD8324320
_publ_section_title
;
Structure prediction by ZEFSAII (Michael W. Deem and Ramdas Pophale) SiO2 
 PCOD8324320
Probable space group: R -3 C 
;
_chemical_formula_sum "Si O2"
_cell_formula_units_Z 144
_cell_length_a 21.212468
_cell_length_b 21.212468
_cell_length_c 18.016289
_cell_angle_alpha 90.000000
_cell_angle_beta 90.000000
_cell_angle_gamma 120.000000
_cell_volume 7020.666959
_symmetry_space_group_name_H-M "R -3 C "
_symmetry_group_IT_number 167
_symmetry_cell_setting 'hexagonal'
loop_
_space_group_symop_operation_xyz
x,y,z
-y,x-y,z
-x+y,-x,z
x-y,-y,1/2-z
-x,-x+y,1/2-z
y,x,1/2-z
-x,-y,-z
y,-x+y,-z
x-y,x,-z
-x+y,y,1/2+z
x,x-y,1/2+z
-y,-x,1/2+z
2/3+x,1/3+y,1/3+z
2/3-y,1/3+x-y,1/3+z
2/3-x+y,1/3-x,1/3+z
2/3+x-y,1/3-y,5/6-z
2/3-x,1/3-x+y,5/6-z
2/3+y,1/3+x,5/6-z
2/3-x,1/3-y,1/3-z
2/3+y,1/3-x+y,1/3-z
2/3+x-y,1/3+x,1/3-z
2/3-x+y,1/3+y,5/6+z
2/3+x,1/3+x-y,5/6+z
2/3-y,1/3-x,5/6+z
1/3+x,2/3+y,2/3+z
1/3-y,2/3+x-y,2/3+z
1/3-x+y,2/3-x,2/3+z
1/3+x-y,2/3-y,1/6-z
1/3-x,2/3-x+y,1/6-z
1/3+y,2/3+x,1/6-z
1/3-x,2/3-y,2/3-z
1/3+y,2/3-x+y,2/3-z
1/3+x-y,2/3+x,2/3-z
1/3-x+y,2/3+y,1/6+z
1/3+x,2/3+x-y,1/6+z
1/3-y,2/3-x,1/6+z
loop_
_atom_site_type_symbol
_atom_site_label
_atom_site_fract_x
_atom_site_fract_y
_atom_site_fract_z
Si Si1 0.492446 0.460308 0.896487
Si Si2 0.328508 0.062946 0.632849
Si Si3 0.048169 0.887964 0.026932
Si Si4 0.553715 0.710062 0.487209
O O1 0.571847 0.522797 0.921883
O O2 0.501849 0.410070 0.836576
O O3 0.458490 0.509537 0.866816
O O4 0.448278 0.408360 0.965468
O O5 0.384387 0.051054 0.583334
O O6 0.262298 0.987225 0.660962
O O7 0.040722 0.874560 0.115546
O O8 0.971987 0.867642 0.989399
O O9 0.502865 0.666667 0.416667
#
# Coordination Sequence:
#
# PCOD8324320 Si02
#       4
#    36  36  36  36
#     4  10  22  38  63  94 128 164 203 256 316 374
#     4  10  20  38  63  97 129 157 205 258 312 380
#     4  12  25  43  63  91 125 168 215 258 305 369
#     4  10  22  43  65  91 129 161 203 260 314 376
#
# _framework density 20.510871000000002
#
# number of rings (size 3 to 8) (size 9 to 14) (size 15 to 20)
#    0.000    1.500    2.500    2.500    3.500    0.000 
#    0.000    1.250    0.000    0.000    0.000    0.000 
#    0.000    0.000    0.000    0.000    0.000    0.000 
#
# Total GULP energy -595112.623094 kJ/mol
# GULP energy per Si atom -12398.179648 kJ/mol
# Density = 2.046419 g / cm^3
# Si number density = 20.510871 Si / 1000 Ang^3
#
#
#
# Elastic Constant Matrix: (Units=GPa)
#
#
# Indices 1 2 3 4 5 6 
#
# 1 61.7851 28.7551 47.1996 -1.6805 0.0001 0.0000
# 2 28.7551 61.7851 47.1996 1.6805 -0.0001 0.0000
# 3 47.1996 47.1996 149.0321 0.0000 0.0000 0.0000
# 4 -1.6805 1.6805 0.0000 22.8419 0.0000 -0.0001
# 5 0.0001 -0.0001 0.0000 0.0000 22.8419 -1.6805
# 6 0.0000 0.0000 0.0000 -0.0001 -1.6805 16.5150
#
#
#
# Elastic Compliance Matrix: (Units=1/GPa)
#
#
# Indices 1 2 3 4 5 6 
#
# 1 0.023497 -0.007007 -0.005222 0.002244 0.000000 0.000000
# 2 -0.007007 0.023497 -0.005222 -0.002244 0.000000 0.000000
# 3 -0.005222 -0.005222 0.010018 0.000000 0.000000 0.000000
# 4 0.002244 -0.002244 0.000000 0.044109 0.000000 0.000000
# 5 0.000000 0.000000 0.000000 0.000000 0.044109 0.004488
# 6 0.000000 0.000000 0.000000 0.000000 0.004488 0.061008
#
#
# Mechanical properties :
#
#
# Convention : Reuss Voigt Hill
#
# Bulk Modulus (GPa) = 45.23280 57.65675 51.44478
# Shear Modulus (GPa) = 20.11981 22.40296 21.26139
#
# Velocity S-wave (km/s) = 3.13538 3.30850 3.22311
# Velocity P-wave (km/s) = 5.93367 6.53959 6.24399
#
# Compressibility (1/GPa) = 0.02210785
#
# Stress axis : x y z
#
# Youngs Moduli (GPa) = 42.55887 42.55887 99.82071
#
# Poissons Ratio (x) = 0.29821 0.52131
# Poissons Ratio (y) = 0.29821 0.52131
# Poissons Ratio (z) = 0.22226 0.22226
#
# Static dielectric constant tensor:
#      x y z
#    x 3.501460 0.000000 0.000000 
#    y 0.000000 3.501460 0.000000 
#    z 0.000000 0.000000 3.855650 
# 
# 
# High freq. dielectric constant tensor:
#      x y z
#    x 1.792570 0.000000 0.000000 
#    y 0.000000 1.792570 0.000000 
#    z 0.000000 0.000000 1.813450 
# 
# From -- ./inp_files/4304.got.cif
#   From: 2010.03.12/outbox.cif.g09.slc.cpg/sg167_3_cif.got.tgz:4304.got - 2010.04.02 06:42:56.
