data_PCOD8324213
_publ_section_title
;
Structure prediction by ZEFSAII (Michael W. Deem and Ramdas Pophale) SiO2 
 PCOD8324213
Probable space group: R -3 M
;
_chemical_formula_sum "Si O2"
_cell_formula_units_Z 90
_cell_length_a 26.476556
_cell_length_b 26.476556
_cell_length_c 7.662032
_cell_angle_alpha 90.000000
_cell_angle_beta 90.000000
_cell_angle_gamma 120.000000
_cell_volume 4651.548765
_symmetry_space_group_name_H-M "R -3 M"
_symmetry_group_IT_number 166
_symmetry_cell_setting 'hexagonal'
loop_
_space_group_symop_operation_xyz
x,y,z
-y,x-y,z
-x+y,-x,z
x-y,-y,-z
-x,-x+y,-z
y,x,-z
-x,-y,-z
y,-x+y,-z
x-y,x,-z
-x+y,y,z
x,x-y,z
-y,-x,z
2/3+x,1/3+y,1/3+z
2/3-y,1/3+x-y,1/3+z
2/3-x+y,1/3-x,1/3+z
2/3+x-y,1/3-y,1/3-z
2/3-x,1/3-x+y,1/3-z
2/3+y,1/3+x,1/3-z
2/3-x,1/3-y,1/3-z
2/3+y,1/3-x+y,1/3-z
2/3+x-y,1/3+x,1/3-z
2/3-x+y,1/3+y,1/3+z
2/3+x,1/3+x-y,1/3+z
2/3-y,1/3-x,1/3+z
1/3+x,2/3+y,2/3+z
1/3-y,2/3+x-y,2/3+z
1/3-x+y,2/3-x,2/3+z
1/3+x-y,2/3-y,2/3-z
1/3-x,2/3-x+y,2/3-z
1/3+y,2/3+x,2/3-z
1/3-x,2/3-y,2/3-z
1/3+y,2/3-x+y,2/3-z
1/3+x-y,2/3+x,2/3-z
1/3-x+y,2/3+y,2/3+z
1/3+x,2/3+x-y,2/3+z
1/3-y,2/3-x,2/3+z
loop_
_atom_site_type_symbol
_atom_site_label
_atom_site_fract_x
_atom_site_fract_y
_atom_site_fract_z
Si Si1 0.222105 0.000000 0.500000
Si Si2 0.536953 0.709920 0.513800
Si Si3 0.558637 0.557969 0.696617
O O1 0.181574 0.992096 0.333656
O O2 0.230545 0.944564 0.521054
O O3 0.520537 0.760269 0.497548
O O4 0.497745 0.666667 0.666667
O O5 0.604773 0.735683 0.552882
O O6 0.579917 0.579917 0.500000
O O7 0.509733 0.490268 0.695319
#
# Coordination Sequence:
#
# PCOD8324213 Si02
#       3
#    18  36  36
#     4  12  22  36  62  90 120 164 206 244 290 350
#     4  11  24  41  62  90 121 159 200 247 301 358
#     4  10  21  39  59  84 123 161 198 243 290 346
#
# _framework density 19.348395
#
# number of rings (size 3 to 8) (size 9 to 14) (size 15 to 20)
#    0.000    1.200    4.000    2.400    0.000    8.000 
#    3.600    0.000    0.000    0.400    0.000    1.400 
#    0.000    0.000    0.000    0.000    0.000    0.000 
#
# Total GULP energy -372218.990808 kJ/mol
# GULP energy per Si atom -12407.299694 kJ/mol
# Density = 1.930436 g / cm^3
# Si number density = 19.348395 Si / 1000 Ang^3
#
#
#
# Elastic Constant Matrix: (Units=GPa)
#
#
# Indices 1 2 3 4 5 6 
#
# 1 73.8362 24.1819 25.6863 3.1645 -0.0433 0.0139
# 2 24.1819 73.8701 25.7276 -3.1931 -0.0337 -0.0023
# 3 25.6863 25.7276 137.1681 0.0010 0.0287 0.0414
# 4 3.1645 -3.1931 0.0010 27.7103 -0.0199 -0.0193
# 5 -0.0433 -0.0337 0.0287 -0.0199 27.7493 3.2107
# 6 0.0139 -0.0023 0.0414 -0.0193 3.2107 24.8272
#
#
#
# Elastic Compliance Matrix: (Units=1/GPa)
#
#
# Indices 1 2 3 4 5 6 
#
# 1 0.015874 -0.004560 -0.002117 -0.002338 0.000021 -0.000010
# 2 -0.004560 0.015871 -0.002123 0.002350 0.000015 0.000007
# 3 -0.002117 -0.002123 0.008085 -0.000003 -0.000013 -0.000011
# 4 -0.002338 0.002350 -0.000003 0.036625 0.000022 0.000027
# 5 0.000021 0.000015 -0.000013 0.000022 0.036584 -0.004731
# 6 -0.000010 0.000007 -0.000011 0.000027 -0.004731 0.040890
#
#
# Mechanical properties :
#
#
# Convention : Reuss Voigt Hill
#
# Bulk Modulus (GPa) = 44.98560 48.45177 46.71869
# Shear Modulus (GPa) = 27.94234 30.00927 28.97581
#
# Velocity S-wave (km/s) = 3.80434 3.94254 3.87406
# Velocity P-wave (km/s) = 6.52673 6.76912 6.64903
#
# Compressibility (1/GPa) = 0.02222933
#
# Stress axis : x y z
#
# Youngs Moduli (GPa) = 62.99729 63.00805 123.68605
#
# Poissons Ratio (x) = 0.28732 0.26187
# Poissons Ratio (y) = 0.28727 0.26257
# Poissons Ratio (z) = 0.13338 0.13376
#
# Static dielectric constant tensor:
#      x y z
#    x 3.407810 -0.000030 -0.000390 
#    y -0.000030 3.407960 -0.000040 
#    z -0.000390 -0.000040 3.805960 
# 
# 
# High freq. dielectric constant tensor:
#      x y z
#    x 1.734560 0.000000 -0.000020 
#    y 0.000000 1.734570 0.000000 
#    z -0.000020 0.000000 1.778890 
# 
# From -- ./inp_files/1207.got.cif
#   From: 2010.03.12/outbox.cif.g09.slc.cpg/sg166_1_cif.got.tgz:1207.got - 2010.04.02 06:38:31.
