data_PCOD8324728
_publ_section_title
;
Structure prediction by ZEFSAII (Michael W. Deem and Ramdas Pophale) SiO2 
 PCOD8324728
Probable space group: P 62
;
_chemical_formula_sum "Si O2"
_cell_formula_units_Z 36
_cell_length_a 8.519935
_cell_length_b 8.519935
_cell_length_c 25.854518
_cell_angle_alpha 90.000000
_cell_angle_beta 90.000000
_cell_angle_gamma 120.000000
_cell_volume 1625.322848
_symmetry_space_group_name_H-M "P 62"
_symmetry_group_IT_number 171
_symmetry_cell_setting 'hexagonal'
loop_
_space_group_symop_operation_xyz
x,y,z
x-y,x,1/3+z
-y,x-y,2/3+z
-x,-y,z
-x+y,-x,1/3+z
y,-x+y,2/3+z
loop_
_atom_site_type_symbol
_atom_site_label
_atom_site_fract_x
_atom_site_fract_y
_atom_site_fract_z
Si Si1 0.952413 0.644606 0.307970
Si Si2 0.794844 0.833006 0.165997
Si Si3 0.179400 0.488939 0.416635
Si Si4 0.814680 0.812026 0.688481
Si Si5 0.136593 0.446881 0.117387
Si Si6 0.703724 0.039618 0.938017
O O1 0.814958 0.564495 0.357400
O O2 0.847442 0.693342 0.265979
O O3 0.000000 0.500000 0.284535
O O4 0.139438 0.824107 0.321838
O O5 0.670464 0.843897 0.119541
O O6 0.800112 0.647283 0.159507
O O7 0.679542 0.812144 0.218359
O O8 0.000000 0.000000 0.166030
O O9 0.333377 0.694281 0.430046
O O10 0.000000 0.500000 0.424867
O O11 0.701311 0.720860 0.739783
O O12 0.851417 0.672057 0.655211
O O13 0.000000 0.000000 0.701589
O O14 0.000000 0.500000 0.144357
O O15 0.500000 0.000000 0.941218
#
# Coordination Sequence:
#
# PCOD8324728 Si02
#       6
#     6   6   6   6   6   6
#     4  10  18  36  61  88 119 166 204 251 315 382
#     4  11  22  43  65  87 120 176 213 257 319 389
#     4   9  18  36  62  86 117 167 202 252 317 379
#     4  10  20  37  59  89 120 163 212 257 306 385
#     4  11  22  36  63  93 127 157 212 263 320 382
#     4  11  25  38  60  93 129 161 213 270 319 383
#
# _framework density 22.149443999999999
#
# number of rings (size 3 to 8) (size 9 to 14) (size 15 to 20)
#    0.000    1.667    5.000    3.500    4.667    0.667 
#    0.000    0.833    0.000    2.000    0.000    0.000 
#    0.000    0.000    0.000    0.000    0.000    0.000 
#
# Total GULP energy -445970.670760 kJ/mol
# GULP energy per Si atom -12388.074188 kJ/mol
# Density = 2.209903 g / cm^3
# Si number density = 22.149444 Si / 1000 Ang^3
#
#
#
# Elastic Constant Matrix: (Units=GPa)
#
#
# Indices 1 2 3 4 5 6 
#
# 1 77.3100 1.7849 2.0226 0.0000 0.0000 0.0000
# 2 1.7849 77.3100 2.0226 0.0000 0.0000 0.0000
# 3 2.0226 2.0226 67.9987 0.0000 0.0000 0.0000
# 4 0.0000 0.0000 0.0000 21.7407 0.0000 0.0000
# 5 0.0000 0.0000 0.0000 0.0000 21.7407 0.0000
# 6 0.0000 0.0000 0.0000 0.0000 0.0000 37.7625
#
#
#
# Elastic Compliance Matrix: (Units=1/GPa)
#
#
# Indices 1 2 3 4 5 6 
#
# 1 0.012951 -0.000289 -0.000377 0.000000 0.000000 0.000000
# 2 -0.000289 0.012951 -0.000377 0.000000 0.000000 0.000000
# 3 -0.000377 -0.000377 0.014729 0.000000 0.000000 0.000000
# 4 0.000000 0.000000 0.000000 0.045997 0.000000 0.000000
# 5 0.000000 0.000000 0.000000 0.000000 0.045997 0.000000
# 6 0.000000 0.000000 0.000000 0.000000 0.000000 0.026481
#
#
# Mechanical properties :
#
#
# Convention : Reuss Voigt Hill
#
# Bulk Modulus (GPa) = 25.94262 26.03100 25.98681
# Shear Modulus (GPa) = 28.72906 30.70137 29.71521
#
# Velocity S-wave (km/s) = 3.60537 3.72708 3.66673
# Velocity P-wave (km/s) = 5.39162 5.50449 5.44835
#
# Compressibility (1/GPa) = 0.03854661
#
# Stress axis : x y z
#
# Youngs Moduli (GPa) = 77.21134 77.21134 67.89524
#
# Poissons Ratio (x) = 0.02233 0.02557
# Poissons Ratio (y) = 0.02233 0.02557
# Poissons Ratio (z) = 0.02908 0.02908
#
# Static dielectric constant tensor:
#      x y z
#    x 4.237200 0.000000 0.000000 
#    y 0.000000 4.237200 0.000000 
#    z 0.000000 0.000000 3.958730 
# 
# 
# High freq. dielectric constant tensor:
#      x y z
#    x 1.857330 0.000000 0.000000 
#    y 0.000000 1.857330 0.000000 
#    z 0.000000 0.000000 1.861580 
# 
# From -- ./inp_files/5746.got.cif
#   From: 2010.03.12/outbox.cif.g09.slc.cpg/sg171_3_cif.got.tgz:5746.got - 2010.04.02 06:49:11.
