data_PCOD8324479
_publ_section_title
;
Structure prediction by ZEFSAII (Michael W. Deem and Ramdas Pophale) SiO2 
 PCOD8324479
Probable space group: P 61
;
_chemical_formula_sum "Si O2"
_cell_formula_units_Z 48
_cell_length_a 15.339216
_cell_length_b 15.339216
_cell_length_c 12.848052
_cell_angle_alpha 90.000000
_cell_angle_beta 90.000000
_cell_angle_gamma 120.000000
_cell_volume 2618.027737
_symmetry_space_group_name_H-M "P 61"
_symmetry_group_IT_number 169
_symmetry_cell_setting 'hexagonal'
loop_
_space_group_symop_operation_xyz
x,y,z
x-y,x,1/6+z
-y,x-y,1/3+z
-x,-y,1/2+z
-x+y,-x,2/3+z
y,-x+y,5/6+z
loop_
_atom_site_type_symbol
_atom_site_label
_atom_site_fract_x
_atom_site_fract_y
_atom_site_fract_z
Si Si1 0.314470 0.597049 0.619100
Si Si2 0.133620 0.617088 0.567003
Si Si3 0.779383 0.603675 0.242935
Si Si4 0.334636 0.369129 0.075036
Si Si5 0.028056 0.537181 0.927715
Si Si6 0.395415 0.605381 0.405504
Si Si7 0.376225 0.237242 0.917783
Si Si8 0.038403 0.345830 0.869455
O O1 0.245418 0.638056 0.572831
O O2 0.245644 0.494682 0.678684
O O3 0.375795 0.578113 0.528283
O O4 0.386093 0.686329 0.697450
O O5 0.138985 0.714658 0.515107
O O6 0.078605 0.606226 0.676027
O O7 0.070972 0.518148 0.497921
O O8 0.747305 0.673751 0.178936
O O9 0.895738 0.660201 0.275177
O O10 0.391489 0.399482 0.185488
O O11 0.217589 0.335623 0.095677
O O12 0.345457 0.280265 0.018570
O O13 0.043692 0.453915 0.866301
O O14 0.121706 0.603537 0.004181
O O15 0.503143 0.707721 0.400303
O O16 0.327342 0.254967 0.815366
#
# Coordination Sequence:
#
# PCOD8324479 Si02
#       8
#     6   6   6   6   6   6   6   6
#     4  12  23  33  54  79 119 157 206 238 286 340
#     4  11  20  37  51  78 114 153 193 236 283 346
#     4  11  21  35  58  80 116 155 194 251 290 356
#     4  12  21  38  59  81 119 154 197 252 306 355
#     4  10  23  34  55  79 115 157 199 235 288 355
#     4  11  22  34  51  81 111 162 206 244 283 346
#     4  11  21  34  58  80 116 154 194 253 302 356
#     4  10  19  37  52  82 114 152 197 243 300 346
#
# _framework density 18.334413999999999
#
# number of rings (size 3 to 8) (size 9 to 14) (size 15 to 20)
#    0.000    1.000    7.500    2.250    3.500    2.000 
#    0.000    0.000    0.000    0.000    0.000    0.000 
#   18.750    0.000    0.000    0.000    0.000    0.000 
#
# Total GULP energy -595061.104841 kJ/mol
# GULP energy per Si atom -12397.106351 kJ/mol
# Density = 1.829268 g / cm^3
# Si number density = 18.334414 Si / 1000 Ang^3
#
#
#
# Elastic Constant Matrix: (Units=GPa)
#
#
# Indices 1 2 3 4 5 6 
#
# 1 66.7622 24.4079 20.7732 0.0000 0.0000 0.0000
# 2 24.4079 66.7622 20.7732 0.0000 0.0000 0.0000
# 3 20.7732 20.7732 60.3425 0.0000 0.0000 0.0000
# 4 0.0000 0.0000 0.0000 28.5611 0.0000 0.0000
# 5 0.0000 0.0000 0.0000 0.0000 28.5611 0.0000
# 6 0.0000 0.0000 0.0000 0.0000 0.0000 21.1771
#
#
#
# Elastic Compliance Matrix: (Units=1/GPa)
#
#
# Indices 1 2 3 4 5 6 
#
# 1 0.018310 -0.005300 -0.004479 0.000000 0.000000 0.000000
# 2 -0.005300 0.018310 -0.004479 0.000000 0.000000 0.000000
# 3 -0.004479 -0.004479 0.019656 0.000000 0.000000 0.000000
# 4 0.000000 0.000000 0.000000 0.035013 0.000000 0.000000
# 5 0.000000 0.000000 0.000000 0.000000 0.035013 0.000000
# 6 0.000000 0.000000 0.000000 0.000000 0.000000 0.047221
#
#
# Mechanical properties :
#
#
# Convention : Reuss Voigt Hill
#
# Bulk Modulus (GPa) = 36.02278 36.19725 36.11001
# Shear Modulus (GPa) = 23.66417 24.18738 23.92578
#
# Velocity S-wave (km/s) = 3.59652 3.63607 3.61635
# Velocity P-wave (km/s) = 6.07758 6.11667 6.09715
#
# Compressibility (1/GPa) = 0.02776021
#
# Stress axis : x y z
#
# Youngs Moduli (GPa) = 54.61534 54.61534 50.87612
#
# Poissons Ratio (x) = 0.28949 0.22785
# Poissons Ratio (y) = 0.28949 0.22785
# Poissons Ratio (z) = 0.24460 0.24460
#
# Static dielectric constant tensor:
#      x y z
#    x 3.324320 0.000000 0.000000 
#    y 0.000000 3.324320 0.000000 
#    z 0.000000 0.000000 3.385470 
# 
# 
# High freq. dielectric constant tensor:
#      x y z
#    x 1.687390 0.000000 0.000000 
#    y 0.000000 1.687390 0.000000 
#    z 0.000000 0.000000 1.711680 
# 
# From -- ./inp_files/1063.got.cif
#   From: 2010.03.12/outbox.cif.g09.slc.cpg/sg169_cif.got.tgz:1063.got - 2010.04.02 06:46:06.
