data_PCOD8324067
_publ_section_title
;
Structure prediction by ZEFSAII (Michael W. Deem and Ramdas Pophale) SiO2 
 PCOD8324067
Probable space group: R -3 M
;
_chemical_formula_sum "Si O2"
_cell_formula_units_Z 252
_cell_length_a 29.864849
_cell_length_b 29.864849
_cell_length_c 18.138074
_cell_angle_alpha 90.000000
_cell_angle_beta 90.000000
_cell_angle_gamma 120.000000
_cell_volume 14010.139112
_symmetry_space_group_name_H-M "R -3 M"
_symmetry_group_IT_number 166
_symmetry_cell_setting 'hexagonal'
loop_
_space_group_symop_operation_xyz
x,y,z
-y,x-y,z
-x+y,-x,z
x-y,-y,-z
-x,-x+y,-z
y,x,-z
-x,-y,-z
y,-x+y,-z
x-y,x,-z
-x+y,y,z
x,x-y,z
-y,-x,z
2/3+x,1/3+y,1/3+z
2/3-y,1/3+x-y,1/3+z
2/3-x+y,1/3-x,1/3+z
2/3+x-y,1/3-y,1/3-z
2/3-x,1/3-x+y,1/3-z
2/3+y,1/3+x,1/3-z
2/3-x,1/3-y,1/3-z
2/3+y,1/3-x+y,1/3-z
2/3+x-y,1/3+x,1/3-z
2/3-x+y,1/3+y,1/3+z
2/3+x,1/3+x-y,1/3+z
2/3-y,1/3-x,1/3+z
1/3+x,2/3+y,2/3+z
1/3-y,2/3+x-y,2/3+z
1/3-x+y,2/3-x,2/3+z
1/3+x-y,2/3-y,2/3-z
1/3-x,2/3-x+y,2/3-z
1/3+y,2/3+x,2/3-z
1/3-x,2/3-y,2/3-z
1/3+y,2/3-x+y,2/3-z
1/3+x-y,2/3+x,2/3-z
1/3-x+y,2/3+y,2/3+z
1/3+x,2/3+x-y,2/3+z
1/3-y,2/3-x,2/3+z
loop_
_atom_site_type_symbol
_atom_site_label
_atom_site_fract_x
_atom_site_fract_y
_atom_site_fract_z
Si Si1 0.888574 0.493444 0.271448
Si Si2 0.077676 0.651974 0.304222
Si Si3 0.146926 0.951522 0.540823
Si Si4 0.900281 0.285928 0.136766
Si Si5 0.314298 0.255925 0.868077
Si Si6 0.473375 0.047019 0.909682
Si Si7 0.481064 0.618603 0.562778
O O1 0.887276 0.443638 0.237284
O O2 0.942624 0.543252 0.253675
O O3 0.891273 0.494179 0.359413
O O4 0.836373 0.489611 0.236793
O O5 0.118029 0.633817 0.279922
O O6 0.054825 0.626459 0.382403
O O7 0.109471 0.715239 0.305367
O O8 0.030718 0.632541 0.245933
O O9 0.088472 0.911529 0.564773
O O10 0.168038 0.926947 0.482444
O O11 0.147830 0.000000 0.500000
O O12 0.902887 0.236221 0.166667
O O13 0.949747 0.334036 0.172401
O O14 0.845272 0.277434 0.162998
O O15 0.329567 0.231124 0.800515
O O16 0.519127 0.038254 0.944056
O O17 0.418764 0.581237 0.547888
#
# Coordination Sequence:
#
# PCOD8324067 Si02
#       7
#    36  36  36  36  36  36  36
#     4   9  17  32  54  75  95 125 161 195 242 301
#     4  10  20  33  47  68  97 131 168 205 251 299
#     4   8  15  29  50  72  94 124 160 198 241 291
#     4  11  22  33  47  68  96 130 167 206 246 295
#     4  10  19  32  49  69  97 130 165 206 251 296
#     4   9  17  31  49  69  94 125 166 212 251 290
#     4   9  19  34  50  71  98 125 156 198 242 288
#
# _framework density 17.986972999999999
#
# number of rings (size 3 to 8) (size 9 to 14) (size 15 to 20)
#    0.000    2.571    0.000    3.429    0.000    4.857 
#    0.000    4.286    0.000    0.429    0.000    2.000 
#    0.000    0.000    0.000    0.857    0.000    1.000 
#
# Total GULP energy -1040741.614017 kJ/mol
# GULP energy per Si atom -12389.781119 kJ/mol
# Density = 1.794603 g / cm^3
# Si number density = 17.986973 Si / 1000 Ang^3
#
#
#
# Elastic Constant Matrix: (Units=GPa)
#
#
# Indices 1 2 3 4 5 6 
#
# 1 60.4144 49.6382 15.7585 7.5858 -0.0001 0.0000
# 2 49.6382 60.4144 15.7585 -7.5858 0.0001 0.0000
# 3 15.7585 15.7585 75.1268 0.0000 0.0000 0.0000
# 4 7.5858 -7.5858 0.0000 11.7276 0.0000 0.0001
# 5 -0.0001 0.0001 0.0000 0.0000 11.7276 7.5858
# 6 0.0000 0.0000 0.0000 0.0001 7.5858 5.3881
#
#
#
# Elastic Compliance Matrix: (Units=1/GPa)
#
#
# Indices 1 2 3 4 5 6 
#
# 1 0.524181 -0.514514 -0.002028 -0.671864 0.000013 0.000000
# 2 -0.514514 0.524181 -0.002028 0.671864 -0.000013 0.000000
# 3 -0.002028 -0.002028 0.014162 0.000000 0.000000 0.000000
# 4 -0.671864 0.671864 0.000000 0.954438 0.000000 -0.000026
# 5 0.000013 -0.000013 0.000000 0.000000 0.954437 -1.343726
# 6 0.000000 0.000000 0.000000 -0.000026 -1.343726 2.077389
#
#
# Mechanical properties :
#
#
# Convention : Reuss Voigt Hill
#
# Bulk Modulus (GPa) = 39.39347 39.80732 39.60040
# Shear Modulus (GPa) = 0.82043 13.42202 7.12122
#
# Velocity S-wave (km/s) = 0.67610 2.73464 1.99191
# Velocity P-wave (km/s) = 4.74954 5.67012 5.23013
#
# Compressibility (1/GPa) = 0.02538492
#
# Stress axis : x y z
#
# Youngs Moduli (GPa) = 1.90774 1.90774 70.61381
#
# Poissons Ratio (x) = 0.98156 0.14319
# Poissons Ratio (y) = 0.98156 0.14319
# Poissons Ratio (z) = 0.00387 0.00387
#
# Static dielectric constant tensor:
#      x y z
#    x 3.575900 0.000000 0.000000 
#    y 0.000000 3.575900 0.000000 
#    z 0.000000 0.000000 3.192450 
# 
# 
# High freq. dielectric constant tensor:
#      x y z
#    x 1.684370 0.000000 0.000000 
#    y 0.000000 1.684370 0.000000 
#    z 0.000000 0.000000 1.684830 
# 
# From -- ./inp_files/5868.got.cif
#   From: 2010.03.12/outbox.cif.g09.slc.cpg/sg166_3_cif.got.tgz:5868.got - 2010.04.02 06:38:31.
