data_PCOD8324880
_publ_section_title
;
Structure prediction by ZEFSAII (Michael W. Deem and Ramdas Pophale) SiO2 
 PCOD8324880
Probable space group: P 63
;
_chemical_formula_sum "Si O2"
_cell_formula_units_Z 42
_cell_length_a 11.249879
_cell_length_b 11.249879
_cell_length_c 17.542279
_cell_angle_alpha 90.000000
_cell_angle_beta 90.000000
_cell_angle_gamma 120.000000
_cell_volume 1922.703639
_symmetry_space_group_name_H-M "P 63"
_symmetry_group_IT_number 173
_symmetry_cell_setting 'hexagonal'
loop_
_space_group_symop_operation_xyz
x,y,z
x-y,x,1/2+z
-y,x-y,z
-x,-y,1/2+z
-x+y,-x,z
y,-x+y,1/2+z
loop_
_atom_site_type_symbol
_atom_site_label
_atom_site_fract_x
_atom_site_fract_y
_atom_site_fract_z
Si Si1 0.039498 0.284202 0.372160
Si Si2 0.288095 0.244082 0.404506
Si Si3 0.845624 0.000447 0.142191
Si Si4 0.694870 0.094102 0.249809
Si Si5 0.607802 0.691096 0.527086
Si Si6 0.639605 0.589981 0.219058
Si Si7 0.640930 0.594923 0.053510
O O1 0.028577 0.335348 0.288469
O O2 0.182347 0.290619 0.379570
O O3 0.040097 0.383527 0.438504
O O4 0.919248 0.133042 0.395044
O O5 0.407881 0.310476 0.341587
O O6 0.351374 0.299132 0.488460
O O7 0.864474 0.866259 0.141919
O O8 0.766045 0.007942 0.217596
O O9 0.762219 0.004257 0.068021
O O10 0.540465 0.028094 0.221174
O O11 0.787818 0.250570 0.221632
O O12 0.504283 0.544094 0.561102
O O13 0.551662 0.796564 0.537163
O O14 0.657945 0.664162 0.137045
#
# Coordination Sequence:
#
# PCOD8324880 Si02
#       7
#     6   6   6   6   6   6   6
#     4  10  24  39  60  93 133 175 218 274 335 397
#     4  10  24  39  60  93 133 175 218 274 335 397
#     4  10  24  36  64 106 132 160 210 274 332 384
#     4  11  22  40  64  94 130 171 216 277 321 395
#     4  11  22  40  64  94 130 171 216 277 321 395
#     4  11  21  39  61  93 122 170 224 267 325 384
#     4  11  21  39  61  93 122 170 224 267 325 384
#
# _framework density 21.844242999999999
#
# number of rings (size 3 to 8) (size 9 to 14) (size 15 to 20)
#    0.286    1.143    2.857    1.714    8.000    0.000 
#    0.000    0.000    0.000    1.143    0.000    0.000 
#    0.000    0.000    0.000    0.000    0.000    0.000 
#
# Total GULP energy -520376.532167 kJ/mol
# GULP energy per Si atom -12389.917433 kJ/mol
# Density = 2.179452 g / cm^3
# Si number density = 21.844243 Si / 1000 Ang^3
#
#
#
# Elastic Constant Matrix: (Units=GPa)
#
#
# Indices 1 2 3 4 5 6 
#
# 1 68.8313 14.7915 39.0211 0.0000 0.0000 0.0000
# 2 14.7915 68.8313 39.0211 0.0000 0.0000 0.0000
# 3 39.0211 39.0211 217.5199 0.0000 0.0000 0.0000
# 4 0.0000 0.0000 0.0000 25.7907 0.0000 0.0000
# 5 0.0000 0.0000 0.0000 0.0000 25.7907 0.0000
# 6 0.0000 0.0000 0.0000 0.0000 0.0000 27.0199
#
#
#
# Elastic Compliance Matrix: (Units=1/GPa)
#
#
# Indices 1 2 3 4 5 6 
#
# 1 0.016434 -0.002071 -0.002577 0.000000 0.000000 0.000000
# 2 -0.002071 0.016434 -0.002577 0.000000 0.000000 0.000000
# 3 -0.002577 -0.002577 0.005522 0.000000 0.000000 0.000000
# 4 0.000000 0.000000 0.000000 0.038774 0.000000 0.000000
# 5 0.000000 0.000000 0.000000 0.000000 0.038774 0.000000
# 6 0.000000 0.000000 0.000000 0.000000 0.000000 0.037010
#
#
# Mechanical properties :
#
#
# Convention : Reuss Voigt Hill
#
# Bulk Modulus (GPa) = 41.76842 60.09443 50.93143
# Shear Modulus (GPa) = 28.51024 33.21017 30.86020
#
# Velocity S-wave (km/s) = 3.61662 3.90335 3.76272
# Velocity P-wave (km/s) = 6.05000 6.91990 6.49952
#
# Compressibility (1/GPa) = 0.02394153
#
# Stress axis : x y z
#
# Youngs Moduli (GPa) = 60.84943 60.84943 181.10278
#
# Poissons Ratio (x) = 0.12601 0.46663
# Poissons Ratio (y) = 0.12601 0.46663
# Poissons Ratio (z) = 0.15679 0.15679
#
# Static dielectric constant tensor:
#      x y z
#    x 3.705940 0.000000 0.000000 
#    y 0.000000 3.705940 0.000000 
#    z 0.000000 0.000000 4.425680 
# 
# 
# High freq. dielectric constant tensor:
#      x y z
#    x 1.839160 0.000000 0.000000 
#    y 0.000000 1.839160 0.000000 
#    z 0.000000 0.000000 1.887480 
# 
# From -- ./inp_files/1297.got.cif
#   From: 2010.03.12/outbox.cif.g09.slc.cpg/sg173_cif.got.tgz:1297.got - 2010.04.02 06:54:12.
