data_PCOD8324655
_publ_section_title
;
Structure prediction by ZEFSAII (Michael W. Deem and Ramdas Pophale) SiO2 
 PCOD8324655
Probable space group: P 65
;
_chemical_formula_sum "Si O2"
_cell_formula_units_Z 42
_cell_length_a 14.574796
_cell_length_b 14.574796
_cell_length_c 12.270045
_cell_angle_alpha 90.000000
_cell_angle_beta 90.000000
_cell_angle_gamma 120.000000
_cell_volume 2257.260889
_symmetry_space_group_name_H-M "P 65"
_symmetry_group_IT_number 170
_symmetry_cell_setting 'hexagonal'
loop_
_space_group_symop_operation_xyz
x,y,z
x-y,x,5/6+z
-y,x-y,2/3+z
-x,-y,1/2+z
-x+y,-x,1/3+z
y,-x+y,1/6+z
loop_
_atom_site_type_symbol
_atom_site_label
_atom_site_fract_x
_atom_site_fract_y
_atom_site_fract_z
Si Si1 0.766363 0.317540 0.429500
Si Si2 0.391556 0.006958 0.722895
Si Si3 0.604118 0.568339 0.477044
Si Si4 0.080739 0.481833 0.601444
Si Si5 0.665005 0.633226 0.709056
Si Si6 0.743264 0.139133 0.044454
Si Si7 0.582870 0.222884 0.011074
O O1 0.866037 0.317975 0.371069
O O2 0.663369 0.204965 0.418519
O O3 0.802836 0.360448 0.550957
O O4 0.734852 0.393853 0.366143
O O5 0.469069 0.962365 0.698715
O O6 0.360002 0.975602 0.849204
O O7 0.292596 0.947363 0.641949
O O8 0.568484 0.625625 0.388765
O O9 0.665547 0.645966 0.577505
O O10 0.670176 0.521984 0.415101
O O11 0.040483 0.566382 0.591385
O O12 0.654418 0.727567 0.765872
O O13 0.776798 0.641666 0.735656
O O14 0.679162 0.203121 0.041970
#
# Coordination Sequence:
#
# PCOD8324655 Si02
#       7
#     6   6   6   6   6   6   6
#     4  12  23  33  55  82 116 168 207 237 306 369
#     4  10  22  36  50  78 121 149 201 249 292 360
#     4  10  20  38  54  78 119 149 196 254 289 359
#     4  11  21  35  54  83 116 161 193 246 299 362
#     4  11  22  40  60  85 118 157 205 256 309 362
#     4  11  23  39  59  85 118 156 205 258 308 359
#     4  11  21  33  54  83 112 160 207 238 299 361
#
# _framework density 18.606622999999999
#
# number of rings (size 3 to 8) (size 9 to 14) (size 15 to 20)
#    0.000    1.143    5.714    2.571    6.000    1.143 
#    0.000    0.000    0.000    0.000    0.000    2.000 
#    0.000    0.000    0.000    0.000    0.000    0.000 
#
# Total GULP energy -520662.928478 kJ/mol
# GULP energy per Si atom -12396.736392 kJ/mol
# Density = 1.856427 g / cm^3
# Si number density = 18.606623 Si / 1000 Ang^3
#
#
#
# Elastic Constant Matrix: (Units=GPa)
#
#
# Indices 1 2 3 4 5 6 
#
# 1 57.4904 14.3107 28.2797 0.0000 0.0000 0.0000
# 2 14.3107 57.4904 28.2797 0.0000 0.0000 0.0000
# 3 28.2797 28.2797 102.7888 0.0000 0.0000 0.0000
# 4 0.0000 0.0000 0.0000 25.0644 0.0000 0.0000
# 5 0.0000 0.0000 0.0000 0.0000 25.0644 0.0000
# 6 0.0000 0.0000 0.0000 0.0000 0.0000 21.5899
#
#
#
# Elastic Compliance Matrix: (Units=1/GPa)
#
#
# Indices 1 2 3 4 5 6 
#
# 1 0.020470 -0.002689 -0.004892 0.000000 0.000000 0.000000
# 2 -0.002689 0.020470 -0.004892 0.000000 0.000000 0.000000
# 3 -0.004892 -0.004892 0.012420 0.000000 0.000000 0.000000
# 4 0.000000 0.000000 0.000000 0.039897 0.000000 0.000000
# 5 0.000000 0.000000 0.000000 0.000000 0.039897 0.000000
# 6 0.000000 0.000000 0.000000 0.000000 0.000000 0.046318
#
#
# Mechanical properties :
#
#
# Convention : Reuss Voigt Hill
#
# Bulk Modulus (GPa) = 35.19342 39.94552 37.56947
# Shear Modulus (GPa) = 23.37649 24.13705 23.75677
#
# Velocity S-wave (km/s) = 3.54835 3.60561 3.57710
# Velocity P-wave (km/s) = 5.97857 6.23290 6.10706
#
# Compressibility (1/GPa) = 0.02841440
#
# Stress axis : x y z
#
# Youngs Moduli (GPa) = 48.85216 48.85216 80.51227
#
# Poissons Ratio (x) = 0.13137 0.39386
# Poissons Ratio (y) = 0.13137 0.39386
# Poissons Ratio (z) = 0.23898 0.23898
#
# Static dielectric constant tensor:
#      x y z
#    x 3.151800 0.000000 0.000000 
#    y 0.000000 3.151800 0.000000 
#    z 0.000000 0.000000 3.967820 
# 
# 
# High freq. dielectric constant tensor:
#      x y z
#    x 1.686170 0.000000 0.000000 
#    y 0.000000 1.686170 0.000000 
#    z 0.000000 0.000000 1.748220 
# 
# From -- ./inp_files/949.got.cif
#   From: 2010.03.12/outbox.cif.g09.slc.cpg/sg170_cif.got.tgz:949.got - 2010.04.02 06:47:37.
