data_PCOD8324020
_publ_section_title
;
Structure prediction by ZEFSAII (Michael W. Deem and Ramdas Pophale) SiO2 
 PCOD8324020
Probable space group: R -3 M
;
_chemical_formula_sum "Si O2"
_cell_formula_units_Z 180
_cell_length_a 27.233298
_cell_length_b 27.233298
_cell_length_c 18.842331
_cell_angle_alpha 90.000000
_cell_angle_beta 90.000000
_cell_angle_gamma 120.000000
_cell_volume 12102.239328
_symmetry_space_group_name_H-M "R -3 M"
_symmetry_group_IT_number 166
_symmetry_cell_setting 'hexagonal'
loop_
_space_group_symop_operation_xyz
x,y,z
-y,x-y,z
-x+y,-x,z
x-y,-y,-z
-x,-x+y,-z
y,x,-z
-x,-y,-z
y,-x+y,-z
x-y,x,-z
-x+y,y,z
x,x-y,z
-y,-x,z
2/3+x,1/3+y,1/3+z
2/3-y,1/3+x-y,1/3+z
2/3-x+y,1/3-x,1/3+z
2/3+x-y,1/3-y,1/3-z
2/3-x,1/3-x+y,1/3-z
2/3+y,1/3+x,1/3-z
2/3-x,1/3-y,1/3-z
2/3+y,1/3-x+y,1/3-z
2/3+x-y,1/3+x,1/3-z
2/3-x+y,1/3+y,1/3+z
2/3+x,1/3+x-y,1/3+z
2/3-y,1/3-x,1/3+z
1/3+x,2/3+y,2/3+z
1/3-y,2/3+x-y,2/3+z
1/3-x+y,2/3-x,2/3+z
1/3+x-y,2/3-y,2/3-z
1/3-x,2/3-x+y,2/3-z
1/3+y,2/3+x,2/3-z
1/3-x,2/3-y,2/3-z
1/3+y,2/3-x+y,2/3-z
1/3+x-y,2/3+x,2/3-z
1/3-x+y,2/3+y,2/3+z
1/3+x,2/3+x-y,2/3+z
1/3-y,2/3-x,2/3+z
loop_
_atom_site_type_symbol
_atom_site_label
_atom_site_fract_x
_atom_site_fract_y
_atom_site_fract_z
Si Si1 0.810900 0.189101 0.763715
Si Si2 0.268732 0.912192 0.150286
Si Si3 0.876429 0.752857 0.721807
Si Si4 0.064223 0.346442 0.991823
Si Si5 0.764460 0.778606 0.220346
Si Si6 0.250176 0.860411 0.786714
O O1 0.851474 0.241714 0.812670
O O2 0.843566 0.156435 0.741159
O O3 0.789253 0.210748 0.697264
O O4 0.333334 0.940505 0.166667
O O5 0.247130 0.951468 0.183437
O O6 0.257024 0.904997 0.066366
O O7 0.842601 0.783529 0.753012
O O8 0.096867 0.407071 0.952845
O O9 0.063339 0.293711 0.951660
O O10 0.000000 0.332862 0.000000
O O11 0.806033 0.775608 0.160879
O O12 0.204600 0.795401 0.769214
O O13 0.222737 0.889404 0.833334
#
# Coordination Sequence:
#
# PCOD8324020 Si02
#       6
#    18  36  18  36  36  36
#     4   9  20  28  40  64  83 110 146 179 215 253
#     4  11  18  28  42  59  85 116 150 181 210 258
#     4   9  18  30  44  60  88 110 142 184 221 260
#     4  11  18  27  43  60  85 119 153 175 215 253
#     4  10  18  30  44  62  82 117 147 182 219 256
#     4   9  18  31  44  61  86 114 150 186 216 258
#
# _framework density 14.873279999999999
#
# number of rings (size 3 to 8) (size 9 to 14) (size 15 to 20)
#    0.000    2.000    4.000    1.800    4.200    0.000 
#    0.000    0.000    0.000    0.000    0.000    0.000 
#    1.000    0.000    0.000    1.200    0.000    1.400 
#
# Total GULP energy -743688.929678 kJ/mol
# GULP energy per Si atom -12394.815495 kJ/mol
# Density = 1.483943 g / cm^3
# Si number density = 14.873280 Si / 1000 Ang^3
#
#
#
# Elastic Constant Matrix: (Units=GPa)
#
#
# Indices 1 2 3 4 5 6 
#
# 1 54.8475 19.5680 26.2556 4.7417 -0.0001 0.0000
# 2 19.5680 54.8475 26.2556 -4.7417 0.0001 0.0000
# 3 26.2556 26.2556 111.9198 0.0000 0.0000 0.0000
# 4 4.7417 -4.7417 0.0000 15.7990 0.0000 0.0001
# 5 -0.0001 0.0001 0.0000 0.0000 15.7990 4.7417
# 6 0.0000 0.0000 0.0000 0.0001 4.7417 17.6398
#
#
#
# Elastic Compliance Matrix: (Units=1/GPa)
#
#
# Indices 1 2 3 4 5 6 
#
# 1 0.023468 -0.007364 -0.003778 -0.009254 0.000000 0.000000
# 2 -0.007364 0.023468 -0.003778 0.009254 0.000000 0.000000
# 3 -0.003778 -0.003778 0.010707 0.000000 0.000000 0.000000
# 4 -0.009254 0.009254 0.000000 0.068850 0.000000 0.000000
# 5 0.000000 0.000000 0.000000 0.000000 0.068850 -0.018507
# 6 0.000000 0.000000 0.000000 0.000000 -0.018507 0.061665
#
#
# Mechanical properties :
#
#
# Convention : Reuss Voigt Hill
#
# Bulk Modulus (GPa) = 35.96624 40.64147 38.30386
# Shear Modulus (GPa) = 16.88523 19.81658 18.35091
#
# Velocity S-wave (km/s) = 3.37304 3.65411 3.51638
# Velocity P-wave (km/s) = 6.27727 6.72219 6.50354
#
# Compressibility (1/GPa) = 0.02780385
#
# Stress axis : x y z
#
# Youngs Moduli (GPa) = 42.61081 42.61081 93.39252
#
# Poissons Ratio (x) = 0.31380 0.35282
# Poissons Ratio (y) = 0.31380 0.35282
# Poissons Ratio (z) = 0.16098 0.16098
#
# Static dielectric constant tensor:
#      x y z
#    x 2.731250 0.000000 0.000000 
#    y 0.000000 2.731250 0.000000 
#    z 0.000000 0.000000 2.972450 
# 
# 
# High freq. dielectric constant tensor:
#      x y z
#    x 1.534110 0.000000 0.000000 
#    y 0.000000 1.534110 0.000000 
#    z 0.000000 0.000000 1.588310 
# 
# From -- ./inp_files/5636.got.cif
#   From: 2010.03.12/outbox.cif.g09.slc.cpg/sg166_3_cif.got.tgz:5636.got - 2010.04.02 06:38:31.
