data_PCOD8324130
_publ_section_title
;
Structure prediction by ZEFSAII (Michael W. Deem and Ramdas Pophale) SiO2 
 PCOD8324130
Probable space group: R -3 M
;
_chemical_formula_sum "Si O2"
_cell_formula_units_Z 234
_cell_length_a 25.553979
_cell_length_b 25.553979
_cell_length_c 22.615423
_cell_angle_alpha 90.000000
_cell_angle_beta 90.000000
_cell_angle_gamma 120.000000
_cell_volume 12789.466068
_symmetry_space_group_name_H-M "R -3 M"
_symmetry_group_IT_number 166
_symmetry_cell_setting 'hexagonal'
loop_
_space_group_symop_operation_xyz
x,y,z
-y,x-y,z
-x+y,-x,z
x-y,-y,-z
-x,-x+y,-z
y,x,-z
-x,-y,-z
y,-x+y,-z
x-y,x,-z
-x+y,y,z
x,x-y,z
-y,-x,z
2/3+x,1/3+y,1/3+z
2/3-y,1/3+x-y,1/3+z
2/3-x+y,1/3-x,1/3+z
2/3+x-y,1/3-y,1/3-z
2/3-x,1/3-x+y,1/3-z
2/3+y,1/3+x,1/3-z
2/3-x,1/3-y,1/3-z
2/3+y,1/3-x+y,1/3-z
2/3+x-y,1/3+x,1/3-z
2/3-x+y,1/3+y,1/3+z
2/3+x,1/3+x-y,1/3+z
2/3-y,1/3-x,1/3+z
1/3+x,2/3+y,2/3+z
1/3-y,2/3+x-y,2/3+z
1/3-x+y,2/3-x,2/3+z
1/3+x-y,2/3-y,2/3-z
1/3-x,2/3-x+y,2/3-z
1/3+y,2/3+x,2/3-z
1/3-x,2/3-y,2/3-z
1/3+y,2/3-x+y,2/3-z
1/3+x-y,2/3+x,2/3-z
1/3-x+y,2/3+y,2/3+z
1/3+x,2/3+x-y,2/3+z
1/3-y,2/3-x,2/3+z
loop_
_atom_site_type_symbol
_atom_site_label
_atom_site_fract_x
_atom_site_fract_y
_atom_site_fract_z
Si Si1 0.489992 0.184188 0.072368
Si Si2 0.791655 0.458322 0.833334
Si Si3 0.706636 0.169805 0.946263
Si Si4 0.663177 0.935274 0.014771
Si Si5 0.757293 0.119886 0.107670
Si Si6 0.881421 0.379507 0.282342
Si Si7 0.001598 0.883239 0.145672
O O1 0.475852 0.237926 0.069135
O O2 0.428951 0.127609 0.098440
O O3 0.544451 0.199757 0.117299
O O4 0.502221 0.172594 0.004609
O O5 0.725328 0.450657 0.829109
O O6 0.828562 0.498009 0.889896
O O7 0.775035 0.224966 0.943423
O O8 0.709261 0.108066 0.950576
O O9 0.718600 0.945282 0.056649
O O10 0.673373 0.909666 0.952851
O O11 0.668385 0.000000 0.000000
O O12 0.817182 0.182819 0.118082
O O13 0.746032 0.079366 0.166667
O O14 0.886190 0.443095 0.295413
O O15 0.842148 0.333334 0.333334
O O16 0.845917 0.349950 0.221582
O O17 0.047754 0.952247 0.127318
O O18 0.933636 0.867272 0.131177
#
# Coordination Sequence:
#
# PCOD8324130 Si02
#       7
#    36  18  36  36  36  36  36
#     4   8  16  30  49  69  94 128 167 209 260 324
#     4  10  21  38  66  96 118 140 175 220 268 328
#     4   9  18  37  57  78 112 147 172 211 279 341
#     4  10  20  33  50  77 108 142 182 228 265 318
#     4   9  17  29  49  72  96 128 168 223 285 326
#     4  10  20  31  46  68  98 137 185 237 279 315
#     4  10  20  33  48  70 101 142 185 227 278 332
#
# _framework density 18.296306999999999
#
# number of rings (size 3 to 8) (size 9 to 14) (size 15 to 20)
#    0.000    2.615    0.000    3.000    4.308    0.615 
#    1.385    0.000    0.000    4.769    0.000    0.000 
#    0.000    0.000    0.000    0.000    0.000    0.000 
#
# Total GULP energy -966450.664807 kJ/mol
# GULP energy per Si atom -12390.393139 kJ/mol
# Density = 1.825466 g / cm^3
# Si number density = 18.296307 Si / 1000 Ang^3
#
#
#
# Elastic Constant Matrix: (Units=GPa)
#
#
# Indices 1 2 3 4 5 6 
#
# 1 74.2706 35.4271 41.0580 1.7139 0.0000 0.0000
# 2 35.4271 74.2706 41.0580 -1.7139 0.0000 0.0000
# 3 41.0580 41.0580 128.9078 0.0000 0.0000 0.0000
# 4 1.7139 -1.7139 0.0000 25.3003 0.0000 0.0000
# 5 0.0000 0.0000 0.0000 0.0000 25.3003 1.7139
# 6 0.0000 0.0000 0.0000 0.0000 1.7139 19.4218
#
#
#
# Elastic Compliance Matrix: (Units=1/GPa)
#
#
# Indices 1 2 3 4 5 6 
#
# 1 0.018934 -0.006965 -0.003812 -0.001754 0.000000 0.000000
# 2 -0.006965 0.018934 -0.003812 0.001754 0.000000 0.000000
# 3 -0.003812 -0.003812 0.010186 0.000000 0.000000 0.000000
# 4 -0.001754 0.001754 0.000000 0.039763 0.000000 0.000000
# 5 0.000000 0.000000 0.000000 0.000000 0.039763 -0.003509
# 6 0.000000 0.000000 0.000000 0.000000 -0.003509 0.051798
#
#
# Mechanical properties :
#
#
# Convention : Reuss Voigt Hill
#
# Bulk Modulus (GPa) = 52.97765 56.94835 54.96300
# Shear Modulus (GPa) = 23.27201 24.66487 23.96844
#
# Velocity S-wave (km/s) = 3.57031 3.67560 3.62334
# Velocity P-wave (km/s) = 6.78339 7.01474 6.90004
#
# Compressibility (1/GPa) = 0.01887588
#
# Stress axis : x y z
#
# Youngs Moduli (GPa) = 52.81365 52.81365 98.17314
#
# Poissons Ratio (x) = 0.36783 0.37428
# Poissons Ratio (y) = 0.36783 0.37428
# Poissons Ratio (z) = 0.20135 0.20135
#
# Static dielectric constant tensor:
#      x y z
#    x 3.200190 0.000000 0.000000 
#    y 0.000000 3.200190 0.000000 
#    z 0.000000 0.000000 3.586260 
# 
# 
# High freq. dielectric constant tensor:
#      x y z
#    x 1.690240 0.000000 0.000000 
#    y 0.000000 1.690240 0.000000 
#    z 0.000000 0.000000 1.713370 
# 
# From -- ./inp_files/7224.got.cif
#   From: 2010.03.12/outbox.cif.g09.slc.cpg/sg166_4_cif.got.tgz:7224.got - 2010.04.02 06:38:31.
