data_PCOD8324610
_publ_section_title
;
Structure prediction by ZEFSAII (Michael W. Deem and Ramdas Pophale) SiO2 
 PCOD8324610
Probable space group: P 61
;
_chemical_formula_sum "Si O2"
_cell_formula_units_Z 24
_cell_length_a 12.612482
_cell_length_b 12.612482
_cell_length_c 6.854440
_cell_angle_alpha 90.000000
_cell_angle_beta 90.000000
_cell_angle_gamma 120.000000
_cell_volume 944.286389
_symmetry_space_group_name_H-M "P 61"
_symmetry_group_IT_number 169
_symmetry_cell_setting 'hexagonal'
loop_
_space_group_symop_operation_xyz
x,y,z
x-y,x,1/6+z
-y,x-y,1/3+z
-x,-y,1/2+z
-x+y,-x,2/3+z
y,-x+y,5/6+z
loop_
_atom_site_type_symbol
_atom_site_label
_atom_site_fract_x
_atom_site_fract_y
_atom_site_fract_z
Si Si1 0.682424 0.570469 0.228650
Si Si2 0.006100 0.417733 0.485015
Si Si3 0.632814 0.231251 0.000756
Si Si4 0.226031 0.991250 0.878164
O O1 0.562712 0.456190 0.335530
O O2 0.780660 0.522537 0.222838
O O3 0.736414 0.693999 0.350752
O O4 0.652101 0.600742 0.017915
O O5 0.901412 0.416786 0.348807
O O6 0.062576 0.348522 0.362680
O O7 0.600807 0.323356 0.888030
O O8 0.093890 0.883361 0.821742
#
# Coordination Sequence:
#
# PCOD8324610 Si02
#       4
#     6   6   6   6
#     4  12  25  45  79 116 161 204 256 320 407 487
#     4  12  26  45  76 119 158 200 256 323 405 482
#     4  12  23  39  70 110 161 195 244 310 399 472
#     4  12  30  55  81 111 158 213 280 331 385 467
#
# _framework density 25.416017
#
# number of rings (size 3 to 8) (size 9 to 14) (size 15 to 20)
#    0.000    0.000    7.500    1.500    3.500    4.000 
#    4.500    0.000    0.000    0.000    0.000    0.000 
#    0.000    0.000    0.000    0.000    0.000    0.000 
#
# Total GULP energy -297783.009981 kJ/mol
# GULP energy per Si atom -12407.625416 kJ/mol
# Density = 2.535817 g / cm^3
# Si number density = 25.416017 Si / 1000 Ang^3
#
#
#
# Elastic Constant Matrix: (Units=GPa)
#
#
# Indices 1 2 3 4 5 6 
#
# 1 91.6100 26.3006 19.2461 0.0000 0.0000 0.0000
# 2 26.3006 91.6100 19.2461 0.0000 0.0000 0.0000
# 3 19.2461 19.2461 127.3723 0.0000 0.0000 0.0000
# 4 0.0000 0.0000 0.0000 30.7719 0.0000 0.0000
# 5 0.0000 0.0000 0.0000 0.0000 30.7719 0.0000
# 6 0.0000 0.0000 0.0000 0.0000 0.0000 32.6547
#
#
#
# Elastic Compliance Matrix: (Units=1/GPa)
#
#
# Indices 1 2 3 4 5 6 
#
# 1 0.012116 -0.003195 -0.001348 0.000000 0.000000 0.000000
# 2 -0.003195 0.012116 -0.001348 0.000000 0.000000 0.000000
# 3 -0.001348 -0.001348 0.008258 0.000000 0.000000 0.000000
# 4 0.000000 0.000000 0.000000 0.032497 0.000000 0.000000
# 5 0.000000 0.000000 0.000000 0.000000 0.032497 0.000000
# 6 0.000000 0.000000 0.000000 0.000000 0.000000 0.030623
#
#
# Mechanical properties :
#
#
# Convention : Reuss Voigt Hill
#
# Bulk Modulus (GPa) = 48.28926 48.90867 48.59896
# Shear Modulus (GPa) = 34.06123 35.22633 34.64378
#
# Velocity S-wave (km/s) = 3.66477 3.72693 3.69598
# Velocity P-wave (km/s) = 6.07850 6.14858 6.11364
#
# Compressibility (1/GPa) = 0.02070854
#
# Stress axis : x y z
#
# Youngs Moduli (GPa) = 82.53284 82.53284 121.08938
#
# Poissons Ratio (x) = 0.26372 0.16323
# Poissons Ratio (y) = 0.26372 0.16323
# Poissons Ratio (z) = 0.11125 0.11125
#
# Static dielectric constant tensor:
#      x y z
#    x 4.674140 0.000000 0.000000 
#    y 0.000000 4.674140 0.000000 
#    z 0.000000 0.000000 4.774160 
# 
# 
# High freq. dielectric constant tensor:
#      x y z
#    x 2.011200 0.000000 0.000000 
#    y 0.000000 2.011200 0.000000 
#    z 0.000000 0.000000 2.051010 
# 
# From -- ./inp_files/95.got.cif
#   From: 2010.03.12/outbox.cif.g09.slc.cpg/sg169_cif.got.tgz:95.got - 2010.04.02 06:46:06.
