data_PCOD8324813
_publ_section_title
;
Structure prediction by ZEFSAII (Michael W. Deem and Ramdas Pophale) SiO2 
 PCOD8324813
Probable space group: P 62
;
_chemical_formula_sum "Si O2"
_cell_formula_units_Z 36
_cell_length_a 19.451680
_cell_length_b 19.451680
_cell_length_c 4.810986
_cell_angle_alpha 90.000000
_cell_angle_beta 90.000000
_cell_angle_gamma 120.000000
_cell_volume 1576.445487
_symmetry_space_group_name_H-M "P 62"
_symmetry_group_IT_number 171
_symmetry_cell_setting 'hexagonal'
loop_
_space_group_symop_operation_xyz
x,y,z
x-y,x,1/3+z
-y,x-y,2/3+z
-x,-y,z
-x+y,-x,1/3+z
y,-x+y,2/3+z
loop_
_atom_site_type_symbol
_atom_site_label
_atom_site_fract_x
_atom_site_fract_y
_atom_site_fract_z
Si Si1 0.859255 0.729416 0.022340
Si Si2 0.486827 0.375533 0.171987
Si Si3 0.595914 0.962273 0.141962
Si Si4 0.177712 0.443704 0.999428
Si Si5 0.139573 0.652311 0.348979
Si Si6 0.246222 0.025258 0.197150
O O1 0.843221 0.642993 0.100094
O O2 0.821514 0.766146 0.232334
O O3 0.820092 0.718569 0.723408
O O4 0.953594 0.789900 0.980902
O O5 0.446885 0.423591 0.308571
O O6 0.457125 0.296581 0.351593
O O7 0.580816 0.435528 0.161478
O O8 0.465490 0.343294 0.855666
O O9 0.539985 0.917739 0.408593
O O10 0.690179 0.005864 0.203694
O O11 0.582860 0.897400 0.910106
O O12 0.273546 0.501991 0.987503
#
# Coordination Sequence:
#
# PCOD8324813 Si02
#       6
#     6   6   6   6   6   6
#     4  12  25  44  73 108 145 181 232 294 358 435
#     4  12  27  43  69 102 143 187 241 297 362 435
#     4  12  23  43  71 104 138 184 227 310 369 423
#     4  12  24  45  70  99 142 190 239 306 354 422
#     4  12  26  46  67 101 143 187 242 294 369 421
#     4  12  24  43  73 106 145 179 229 294 368 428
#
# _framework density 22.836183999999999
#
# number of rings (size 3 to 8) (size 9 to 14) (size 15 to 20)
#    0.000    0.000    5.000    5.500    2.333    1.333 
#    3.000    0.000    0.000    5.000    0.000    0.000 
#    0.000    0.000    0.000    0.000    0.000    0.000 
#
# Total GULP energy -446059.068623 kJ/mol
# GULP energy per Si atom -12390.529684 kJ/mol
# Density = 2.278421 g / cm^3
# Si number density = 22.836184 Si / 1000 Ang^3
#
#
#
# Elastic Constant Matrix: (Units=GPa)
#
#
# Indices 1 2 3 4 5 6 
#
# 1 81.5111 35.0701 20.7970 0.0000 0.0000 0.0000
# 2 35.0701 81.5111 20.7970 0.0000 0.0000 0.0000
# 3 20.7970 20.7970 105.7800 0.0000 0.0000 0.0000
# 4 0.0000 0.0000 0.0000 40.7764 0.0000 0.0000
# 5 0.0000 0.0000 0.0000 0.0000 40.7764 0.0000
# 6 0.0000 0.0000 0.0000 0.0000 0.0000 23.2205
#
#
#
# Elastic Compliance Matrix: (Units=1/GPa)
#
#
# Indices 1 2 3 4 5 6 
#
# 1 0.015379 -0.006154 -0.001814 0.000000 0.000000 0.000000
# 2 -0.006154 0.015379 -0.001814 0.000000 0.000000 0.000000
# 3 -0.001814 -0.001814 0.010167 0.000000 0.000000 0.000000
# 4 0.000000 0.000000 0.000000 0.024524 0.000000 0.000000
# 5 0.000000 0.000000 0.000000 0.000000 0.024524 0.000000
# 6 0.000000 0.000000 0.000000 0.000000 0.000000 0.043065
#
#
# Mechanical properties :
#
#
# Convention : Reuss Voigt Hill
#
# Bulk Modulus (GPa) = 46.81273 46.90337 46.85805
# Shear Modulus (GPa) = 31.30464 33.76386 32.53425
#
# Velocity S-wave (km/s) = 3.70650 3.84933 3.77859
# Velocity P-wave (km/s) = 6.23389 6.35139 6.29291
#
# Compressibility (1/GPa) = 0.02136171
#
# Stress axis : x y z
#
# Youngs Moduli (GPa) = 65.02478 65.02478 98.35996
#
# Poissons Ratio (x) = 0.40016 0.17839
# Poissons Ratio (y) = 0.40016 0.17839
# Poissons Ratio (z) = 0.11793 0.11793
#
# Static dielectric constant tensor:
#      x y z
#    x 4.044510 0.000000 0.000000 
#    y 0.000000 4.044510 0.000000 
#    z 0.000000 0.000000 4.216320 
# 
# 
# High freq. dielectric constant tensor:
#      x y z
#    x 1.893930 0.000000 0.000000 
#    y 0.000000 1.893930 0.000000 
#    z 0.000000 0.000000 1.920330 
# 
# From -- ./inp_files/418.got.cif
#   From: 2010.03.12/outbox.cif.g09.slc.cpg/sg171_1_cif.got.tgz:418.got - 2010.04.02 06:49:11.
