data_PCOD8324679
_publ_section_title
;
Structure prediction by ZEFSAII (Michael W. Deem and Ramdas Pophale) SiO2 
 PCOD8324679
Probable space group: P 65
;
_chemical_formula_sum "Si O2"
_cell_formula_units_Z 48
_cell_length_a 14.803508
_cell_length_b 14.803508
_cell_length_c 12.275214
_cell_angle_alpha 90.000000
_cell_angle_beta 90.000000
_cell_angle_gamma 120.000000
_cell_volume 2329.640937
_symmetry_space_group_name_H-M "P 65"
_symmetry_group_IT_number 170
_symmetry_cell_setting 'hexagonal'
loop_
_space_group_symop_operation_xyz
x,y,z
x-y,x,5/6+z
-y,x-y,2/3+z
-x,-y,1/2+z
-x+y,-x,1/3+z
y,-x+y,1/6+z
loop_
_atom_site_type_symbol
_atom_site_label
_atom_site_fract_x
_atom_site_fract_y
_atom_site_fract_z
Si Si1 0.374309 0.461531 0.734830
Si Si2 0.518618 0.431013 0.438485
Si Si3 0.189070 0.488080 0.738639
Si Si4 0.655139 0.973811 0.976405
Si Si5 0.751156 0.277095 0.181518
Si Si6 0.182078 0.065871 0.579708
Si Si7 0.112866 0.375891 0.515983
Si Si8 0.448715 0.403746 0.098524
O O1 0.445259 0.482731 0.842028
O O2 0.281418 0.473016 0.782975
O O3 0.348002 0.355122 0.673686
O O4 0.436864 0.555033 0.649214
O O5 0.393728 0.365732 0.414922
O O6 0.562752 0.349225 0.434055
O O7 0.552286 0.493271 0.553233
O O8 0.229212 0.609857 0.715832
O O9 0.147531 0.410520 0.637879
O O10 0.103472 0.434913 0.831240
O O11 0.660511 0.024431 0.858381
O O12 0.563945 0.855156 0.960445
O O13 0.766398 0.984051 0.001575
O O14 0.718016 0.193824 0.279697
O O15 0.119891 0.102958 0.500724
O O16 0.272770 0.158275 0.649632
#
# Coordination Sequence:
#
# PCOD8324679 Si02
#       8
#     6   6   6   6   6   6   6   6
#     4  11  24  39  58  92 135 175 222 271 335 411
#     4  11  22  39  60  94 135 174 223 275 329 400
#     4  12  24  38  61 100 131 174 224 277 335 398
#     4  10  22  43  66  93 132 180 225 272 349 410
#     4  11  23  37  66  92 127 182 227 276 333 404
#     4  11  25  48  77 105 129 173 234 289 348 422
#     4  11  22  43  68  92 132 176 226 275 341 410
#     4  11  22  43  62  92 141 174 219 287 334 403
#
# _framework density 20.604033000000001
#
# number of rings (size 3 to 8) (size 9 to 14) (size 15 to 20)
#    0.000    1.000    3.750    3.750    5.250    0.000 
#    4.500    2.500    0.000    0.000    0.000    0.000 
#    0.000    0.000    0.000    0.000    0.000    0.000 
#
# Total GULP energy -594783.124250 kJ/mol
# GULP energy per Si atom -12391.315089 kJ/mol
# Density = 2.055714 g / cm^3
# Si number density = 20.604033 Si / 1000 Ang^3
#
#
#
# Elastic Constant Matrix: (Units=GPa)
#
#
# Indices 1 2 3 4 5 6 
#
# 1 105.9423 48.2398 44.7038 0.0000 0.0000 0.0000
# 2 48.2398 105.9423 44.7038 0.0000 0.0000 0.0000
# 3 44.7038 44.7038 102.7593 0.0000 0.0000 0.0000
# 4 0.0000 0.0000 0.0000 31.9705 0.0000 0.0000
# 5 0.0000 0.0000 0.0000 0.0000 31.9705 0.0000
# 6 0.0000 0.0000 0.0000 0.0000 0.0000 28.8513
#
#
#
# Elastic Compliance Matrix: (Units=1/GPa)
#
#
# Indices 1 2 3 4 5 6 
#
# 1 0.013002 -0.004328 -0.003773 0.000000 0.000000 0.000000
# 2 -0.004328 0.013002 -0.003773 0.000000 0.000000 0.000000
# 3 -0.003773 -0.003773 0.013015 0.000000 0.000000 0.000000
# 4 0.000000 0.000000 0.000000 0.031279 0.000000 0.000000
# 5 0.000000 0.000000 0.000000 0.000000 0.031279 0.000000
# 6 0.000000 0.000000 0.000000 0.000000 0.000000 0.034661
#
#
# Mechanical properties :
#
#
# Convention : Reuss Voigt Hill
#
# Bulk Modulus (GPa) = 65.49327 65.54874 65.52100
# Shear Modulus (GPa) = 30.28891 30.35823 30.32357
#
# Velocity S-wave (km/s) = 3.83828 3.84267 3.84048
# Velocity P-wave (km/s) = 7.17627 7.18128 7.17877
#
# Compressibility (1/GPa) = 0.01526874
#
# Stress axis : x y z
#
# Youngs Moduli (GPa) = 76.91045 76.91045 76.83639
#
# Poissons Ratio (x) = 0.33288 0.28994
# Poissons Ratio (y) = 0.33288 0.28994
# Poissons Ratio (z) = 0.29022 0.29022
#
# Static dielectric constant tensor:
#      x y z
#    x 3.832590 0.000000 0.000000 
#    y 0.000000 3.832590 0.000000 
#    z 0.000000 0.000000 3.861350 
# 
# 
# High freq. dielectric constant tensor:
#      x y z
#    x 1.799160 0.000000 0.000000 
#    y 0.000000 1.799160 0.000000 
#    z 0.000000 0.000000 1.813410 
# 
# From -- ./inp_files/1081.got.cif
#   From: 2010.03.12/outbox.cif.g09.slc.cpg/sg170_cif.got.tgz:1081.got - 2010.04.02 06:47:37.
