data_PCOD8324595
_publ_section_title
;
Structure prediction by ZEFSAII (Michael W. Deem and Ramdas Pophale) SiO2 
 PCOD8324595
Probable space group: P 61
;
_chemical_formula_sum "Si O2"
_cell_formula_units_Z 30
_cell_length_a 13.628166
_cell_length_b 13.628166
_cell_length_c 8.355602
_cell_angle_alpha 90.000000
_cell_angle_beta 90.000000
_cell_angle_gamma 120.000000
_cell_volume 1343.950294
_symmetry_space_group_name_H-M "P 61"
_symmetry_group_IT_number 169
_symmetry_cell_setting 'hexagonal'
loop_
_space_group_symop_operation_xyz
x,y,z
x-y,x,1/6+z
-y,x-y,1/3+z
-x,-y,1/2+z
-x+y,-x,2/3+z
y,-x+y,5/6+z
loop_
_atom_site_type_symbol
_atom_site_label
_atom_site_fract_x
_atom_site_fract_y
_atom_site_fract_z
Si Si1 0.176521 0.224933 0.122910
Si Si2 0.201426 0.816760 0.518097
Si Si3 0.378396 0.419004 0.622924
Si Si4 0.347851 0.716912 0.565271
Si Si5 0.443104 0.061751 0.094263
O O1 0.295388 0.315220 0.204831
O O2 0.070951 0.185895 0.243404
O O3 0.154487 0.279984 0.967097
O O4 0.298791 0.927963 0.433744
O O5 0.264423 0.763223 0.616614
O O6 0.127321 0.733997 0.379280
O O7 0.378225 0.464153 0.448213
O O8 0.489629 0.517213 0.711678
O O9 0.353431 0.654093 0.729412
O O10 0.472356 0.817154 0.516799
#
# Coordination Sequence:
#
# PCOD8324595 Si02
#       5
#     6   6   6   6   6
#     4  12  27  52  76 100 141 191 252 314 373 444
#     4  11  23  43  70 101 141 193 238 302 359 437
#     4  11  25  44  71 106 146 191 244 299 374 442
#     4  11  23  40  68 108 150 190 239 295 368 449
#     4  11  26  45  73 103 142 191 237 302 376 448
#
# _framework density 22.322255999999999
#
# number of rings (size 3 to 8) (size 9 to 14) (size 15 to 20)
#    0.000    0.800    4.000    2.400    8.400    1.600 
#    3.600    0.000    0.000    0.000    0.000    0.000 
#    0.000    0.000    0.000    0.000    0.000    0.000 
#
# Total GULP energy -371863.144924 kJ/mol
# GULP energy per Si atom -12395.438164 kJ/mol
# Density = 2.227145 g / cm^3
# Si number density = 22.322256 Si / 1000 Ang^3
#
#
#
# Elastic Constant Matrix: (Units=GPa)
#
#
# Indices 1 2 3 4 5 6 
#
# 1 99.7306 70.7819 26.4489 0.0000 0.0000 0.0000
# 2 70.7819 99.7306 26.4489 0.0000 0.0000 0.0000
# 3 26.4489 26.4489 119.7141 0.0000 0.0000 0.0000
# 4 0.0000 0.0000 0.0000 38.2376 0.0000 0.0000
# 5 0.0000 0.0000 0.0000 0.0000 38.2376 0.0000
# 6 0.0000 0.0000 0.0000 0.0000 0.0000 14.4744
#
#
#
# Elastic Compliance Matrix: (Units=1/GPa)
#
#
# Indices 1 2 3 4 5 6 
#
# 1 0.020420 -0.014124 -0.001391 0.000000 0.000000 0.000000
# 2 -0.014124 0.020420 -0.001391 0.000000 0.000000 0.000000
# 3 -0.001391 -0.001391 0.008968 0.000000 0.000000 0.000000
# 4 0.000000 0.000000 0.000000 0.026152 0.000000 0.000000
# 5 0.000000 0.000000 0.000000 0.000000 0.026152 0.000000
# 6 0.000000 0.000000 0.000000 0.000000 0.000000 0.069088
#
#
# Mechanical properties :
#
#
# Convention : Reuss Voigt Hill
#
# Bulk Modulus (GPa) = 62.51510 62.94830 62.73170
# Shear Modulus (GPa) = 23.77058 31.22296 27.49677
#
# Velocity S-wave (km/s) = 3.26679 3.74403 3.51352
# Velocity P-wave (km/s) = 6.50352 6.85210 6.68009
#
# Compressibility (1/GPa) = 0.01599614
#
# Stress axis : x y z
#
# Youngs Moduli (GPa) = 48.97151 48.97151 111.50896
#
# Poissons Ratio (x) = 0.69166 0.15511
# Poissons Ratio (y) = 0.69166 0.15511
# Poissons Ratio (z) = 0.06812 0.06812
#
# Static dielectric constant tensor:
#      x y z
#    x 4.175240 0.000000 0.000000 
#    y 0.000000 4.175240 0.000000 
#    z 0.000000 0.000000 4.039000 
# 
# 
# High freq. dielectric constant tensor:
#      x y z
#    x 1.879190 0.000000 0.000000 
#    y 0.000000 1.879190 0.000000 
#    z 0.000000 0.000000 1.885760 
# 
# From -- ./inp_files/571.got.cif
#   From: 2010.03.12/outbox.cif.g09.slc.cpg/sg169_cif.got.tgz:571.got - 2010.04.02 06:46:06.
