data_PCOD8324465
_publ_section_title
;
Structure prediction by ZEFSAII (Michael W. Deem and Ramdas Pophale) SiO2 
 PCOD8324465
Probable space group: P 61
;
_chemical_formula_sum "Si O2"
_cell_formula_units_Z 42
_cell_length_a 15.516171
_cell_length_b 15.516171
_cell_length_c 11.606781
_cell_angle_alpha 90.000000
_cell_angle_beta 90.000000
_cell_angle_gamma 120.000000
_cell_volume 2419.978660
_symmetry_space_group_name_H-M "P 61"
_symmetry_group_IT_number 169
_symmetry_cell_setting 'hexagonal'
loop_
_space_group_symop_operation_xyz
x,y,z
x-y,x,1/6+z
-y,x-y,1/3+z
-x,-y,1/2+z
-x+y,-x,2/3+z
y,-x+y,5/6+z
loop_
_atom_site_type_symbol
_atom_site_label
_atom_site_fract_x
_atom_site_fract_y
_atom_site_fract_z
Si Si1 0.584918 0.392458 0.433420
Si Si2 0.602120 0.836951 0.270763
Si Si3 0.139377 0.389502 0.699216
Si Si4 0.634279 0.673620 0.358807
Si Si5 0.939722 0.311781 0.780397
Si Si6 0.423927 0.856503 0.816775
Si Si7 0.673411 0.264671 0.522579
O O1 0.668519 0.500106 0.478666
O O2 0.476410 0.356699 0.485317
O O3 0.606499 0.310129 0.483848
O O4 0.575565 0.384284 0.295117
O O5 0.577677 0.777640 0.151403
O O6 0.640966 0.781279 0.356064
O O7 0.683876 0.954707 0.264162
O O8 0.201315 0.358283 0.614376
O O9 0.025902 0.299739 0.715034
O O10 0.640855 0.627265 0.237563
O O11 0.529812 0.593319 0.415059
O O12 0.913592 0.387442 0.718761
O O13 0.432788 0.783948 0.722384
O O14 0.331943 0.799013 0.908535
#
# Coordination Sequence:
#
# PCOD8324465 Si02
#       7
#     6   6   6   6   6   6   6
#     4  11  16  31  48  69 105 148 172 207 258 307
#     4  10  19  32  49  75  99 138 173 218 261 314
#     4  10  19  31  50  72 104 136 173 221 260 317
#     4  10  21  34  51  73 107 137 180 220 267 320
#     4  10  20  33  51  75 105 137 179 222 270 317
#     4  11  20  35  49  81 109 144 185 211 261 331
#     4  10  19  28  52  69 111 144 176 209 249 310
#
# _framework density 17.355523999999999
#
# number of rings (size 3 to 8) (size 9 to 14) (size 15 to 20)
#    0.000    1.714    5.714    1.714    0.000    0.000 
#    2.571    0.000    0.000    0.000    0.000    0.000 
#   47.143    0.000    0.000    0.000    0.000    0.000 
#
# Total GULP energy -520336.429302 kJ/mol
# GULP energy per Si atom -12388.962602 kJ/mol
# Density = 1.731602 g / cm^3
# Si number density = 17.355524 Si / 1000 Ang^3
#
#
#
# Elastic Constant Matrix: (Units=GPa)
#
#
# Indices 1 2 3 4 5 6 
#
# 1 97.6231 56.4857 33.3817 0.0000 0.0000 0.0000
# 2 56.4857 97.6231 33.3817 0.0000 0.0000 0.0000
# 3 33.3817 33.3817 49.6455 0.0000 0.0000 0.0000
# 4 0.0000 0.0000 0.0000 21.2918 0.0000 0.0000
# 5 0.0000 0.0000 0.0000 0.0000 21.2918 0.0000
# 6 0.0000 0.0000 0.0000 0.0000 0.0000 20.5687
#
#
#
# Elastic Compliance Matrix: (Units=1/GPa)
#
#
# Indices 1 2 3 4 5 6 
#
# 1 0.016732 -0.007576 -0.006157 0.000000 0.000000 0.000000
# 2 -0.007576 0.016732 -0.006157 0.000000 0.000000 0.000000
# 3 -0.006157 -0.006157 0.028422 0.000000 0.000000 0.000000
# 4 0.000000 0.000000 0.000000 0.046966 0.000000 0.000000
# 5 0.000000 0.000000 0.000000 0.000000 0.046966 0.000000
# 6 0.000000 0.000000 0.000000 0.000000 0.000000 0.048617
#
#
# Mechanical properties :
#
#
# Convention : Reuss Voigt Hill
#
# Bulk Modulus (GPa) = 45.23235 54.59891 49.91563
# Shear Modulus (GPa) = 19.87395 20.73998 20.30696
#
# Velocity S-wave (km/s) = 3.38762 3.46064 3.42432
# Velocity P-wave (km/s) = 6.43584 6.89169 6.66766
#
# Compressibility (1/GPa) = 0.02210807
#
# Stress axis : x y z
#
# Youngs Moduli (GPa) = 59.76423 59.76423 35.18381
#
# Poissons Ratio (x) = 0.45279 0.21661
# Poissons Ratio (y) = 0.45279 0.21661
# Poissons Ratio (z) = 0.36794 0.36794
#
# Static dielectric constant tensor:
#      x y z
#    x 3.325250 0.000000 0.000000 
#    y 0.000000 3.325250 0.000000 
#    z 0.000000 0.000000 3.442240 
# 
# 
# High freq. dielectric constant tensor:
#      x y z
#    x 1.655390 0.000000 0.000000 
#    y 0.000000 1.655390 0.000000 
#    z 0.000000 0.000000 1.659530 
# 
# From -- ./inp_files/979.got.cif
#   From: 2010.03.12/outbox.cif.g09.slc.cpg/sg169_cif.got.tgz:979.got - 2010.04.02 06:46:06.
