data_PCOD8324920
_publ_section_title
;
Structure prediction by ZEFSAII (Michael W. Deem and Ramdas Pophale) SiO2 
 PCOD8324920
Probable space group: P -6
;
_chemical_formula_sum "Si O2"
_cell_formula_units_Z 48
_cell_length_a 18.060406
_cell_length_b 18.060406
_cell_length_c 9.252089
_cell_angle_alpha 90.000000
_cell_angle_beta 90.000000
_cell_angle_gamma 120.000000
_cell_volume 2613.517736
_symmetry_space_group_name_H-M "P -6"
_symmetry_group_IT_number 174
_symmetry_cell_setting 'hexagonal'
loop_
_space_group_symop_operation_xyz
x,y,z
-x+y,-x,-z
-y,x-y,z
x,y,-z
-x+y,-x,z
-y,x-y,-z
loop_
_atom_site_type_symbol
_atom_site_label
_atom_site_fract_x
_atom_site_fract_y
_atom_site_fract_z
Si Si1 0.799410 0.760340 0.332795
Si Si2 0.439940 0.151989 0.332984
Si Si3 0.712517 0.137714 0.834683
Si Si4 0.228740 0.177639 0.166729
Si Si5 0.418220 0.859699 0.827744
Si Si6 0.525023 0.774477 0.171424
Si Si7 0.515377 0.053552 0.168606
Si Si8 0.718647 0.854978 0.169743
O O1 0.811556 0.785547 0.500000
O O2 0.746393 0.659482 0.307379
O O3 0.893112 0.799761 0.262034
O O4 0.745904 0.796866 0.256346
O O5 0.464784 0.166081 0.500000
O O6 0.465383 0.243603 0.264680
O O7 0.493908 0.115938 0.256112
O O8 0.750552 0.076195 0.800452
O O9 0.613060 0.082267 0.800013
O O10 0.729437 0.168977 0.000000
O O11 0.169668 0.216831 0.210080
O O12 0.216416 0.149600 0.000000
O O13 0.473511 0.818898 0.765075
O O14 0.321892 0.805234 0.767493
O O15 0.458273 0.956926 0.773380
O O16 0.420377 0.858720 0.000000
O O17 0.623439 0.829638 0.219801
O O18 0.517750 0.770821 0.000000
O O19 0.498200 0.059752 0.000000
O O20 0.720257 0.837675 0.000000
#
# Coordination Sequence:
#
# PCOD8324920 Si02
#       8
#     6   6   6   6   6   6   6   6
#     4  10  21  36  53  74 102 136 173 213 259 311
#     4  10  21  36  53  74 102 136 173 213 259 311
#     4   9  18  34  55  77 102 133 170 214 263 313
#     4   9  18  34  55  77 102 133 170 214 263 313
#     4   9  16  26  44  74 111 145 175 210 253 300
#     4   9  16  26  44  74 111 145 175 210 253 300
#     4  10  19  32  53  80 105 134 173 217 260 308
#     4  10  19  32  53  80 105 134 173 217 260 308
#
# _framework density 18.366050000000001
#
# number of rings (size 3 to 8) (size 9 to 14) (size 15 to 20)
#    0.000    2.500    0.000    2.500    0.000    7.500 
#    1.500    0.000    0.000    2.250    0.000    0.000 
#    0.000    2.000    0.000    0.000    0.000    0.000 
#
# Total GULP energy -595301.547346 kJ/mol
# GULP energy per Si atom -12402.115570 kJ/mol
# Density = 1.832425 g / cm^3
# Si number density = 18.366050 Si / 1000 Ang^3
#
#
#
# Elastic Constant Matrix: (Units=GPa)
#
#
# Indices 1 2 3 4 5 6 
#
# 1 62.1453 6.4962 25.0036 0.0000 0.0000 0.0000
# 2 6.4962 62.1453 25.0036 0.0000 0.0000 0.0000
# 3 25.0036 25.0036 53.0911 0.0000 0.0000 0.0000
# 4 0.0000 0.0000 0.0000 15.5329 0.0000 0.0000
# 5 0.0000 0.0000 0.0000 0.0000 15.5329 0.0000
# 6 0.0000 0.0000 0.0000 0.0000 0.0000 27.8245
#
#
#
# Elastic Compliance Matrix: (Units=1/GPa)
#
#
# Indices 1 2 3 4 5 6 
#
# 1 0.020074 0.002104 -0.010445 0.000000 0.000000 0.000000
# 2 0.002104 0.020074 -0.010445 0.000000 0.000000 0.000000
# 3 -0.010445 -0.010445 0.028674 0.000000 0.000000 0.000000
# 4 0.000000 0.000000 0.000000 0.064379 0.000000 0.000000
# 5 0.000000 0.000000 0.000000 0.000000 0.064379 0.000000
# 6 0.000000 0.000000 0.000000 0.000000 0.000000 0.035940
#
#
# Mechanical properties :
#
#
# Convention : Reuss Voigt Hill
#
# Bulk Modulus (GPa) = 31.99994 32.26539 32.13266
# Shear Modulus (GPa) = 17.76153 19.83662 18.79907
#
# Velocity S-wave (km/s) = 3.11317 3.29001 3.20281
# Velocity P-wave (km/s) = 5.51214 5.66024 5.58668
#
# Compressibility (1/GPa) = 0.03125006
#
# Stress axis : x y z
#
# Youngs Moduli (GPa) = 49.81633 49.81633 34.87528
#
# Poissons Ratio (x) = -0.10481 0.36426
# Poissons Ratio (y) = -0.10481 0.36426
# Poissons Ratio (z) = 0.52032 0.52032
#
# Static dielectric constant tensor:
#      x y z
#    x 3.457580 0.000000 0.000000 
#    y 0.000000 3.457580 0.000000 
#    z 0.000000 0.000000 3.127350 
# 
# 
# High freq. dielectric constant tensor:
#      x y z
#    x 1.718620 0.000000 0.000000 
#    y 0.000000 1.718620 0.000000 
#    z 0.000000 0.000000 1.677410 
# 
# From -- ./inp_files/521.got.cif
#   From: 2010.03.12/outbox.cif.g09.slc.cpg/sg174_cif.got.tgz:521.got - 2010.04.02 06:54:58.
