data_PCOD8324866
_publ_section_title
;
Structure prediction by ZEFSAII (Michael W. Deem and Ramdas Pophale) SiO2 
 PCOD8324866
Probable space group: P 63
;
_chemical_formula_sum "Si O2"
_cell_formula_units_Z 28
_cell_length_a 11.433193
_cell_length_b 11.433193
_cell_length_c 13.855163
_cell_angle_alpha 90.000000
_cell_angle_beta 90.000000
_cell_angle_gamma 120.000000
_cell_volume 1568.474060
_symmetry_space_group_name_H-M "P 63"
_symmetry_group_IT_number 173
_symmetry_cell_setting 'hexagonal'
loop_
_space_group_symop_operation_xyz
x,y,z
x-y,x,1/2+z
-y,x-y,z
-x,-y,1/2+z
-x+y,-x,z
y,-x+y,1/2+z
loop_
_atom_site_type_symbol
_atom_site_label
_atom_site_fract_x
_atom_site_fract_y
_atom_site_fract_z
Si Si1 0.000000 0.000000 0.914245
Si Si2 0.306272 0.142646 0.441811
Si Si3 0.839808 0.147602 0.656648
Si Si4 0.000000 0.000000 0.685997
Si Si5 0.596233 0.936273 0.769582
Si Si6 0.316809 0.926874 0.767963
O O1 0.852902 0.954229 0.954203
O O2 0.000000 0.000000 0.800144
O O3 0.370252 0.184661 0.548640
O O4 0.364397 0.058824 0.383315
O O5 0.341207 0.277339 0.379705
O O6 0.897560 0.045913 0.648542
O O7 0.940970 0.283965 0.711484
O O8 0.699088 0.073912 0.714649
O O9 0.448143 0.913684 0.762428
O O10 0.600208 0.808436 0.720803
#
# Coordination Sequence:
#
# PCOD8324866 Si02
#       6
#     2   6   6   2   6   6
#     4  12  16  35  61  94 113 145 181 251 310 346
#     4  10  22  33  64  89 121 149 198 243 305 358
#     4  12  20  37  64  93 115 153 203 250 298 366
#     4  12  16  35  61 100 113 139 184 254 313 340
#     4  10  22  40  59  84 122 158 197 245 300 349
#     4  10  22  40  59  84 122 158 197 245 300 349
#
# _framework density 17.851747
#
# number of rings (size 3 to 8) (size 9 to 14) (size 15 to 20)
#    1.286    0.000    6.429    1.714    0.000    1.714 
#    1.286    0.000    0.000    0.000    0.000    0.000 
#    0.000    0.000    0.000    0.000    0.000    0.000 
#
# Total GULP energy -347008.387632 kJ/mol
# GULP energy per Si atom -12393.156701 kJ/mol
# Density = 1.781112 g / cm^3
# Si number density = 17.851747 Si / 1000 Ang^3
#
#
#
# Elastic Constant Matrix: (Units=GPa)
#
#
# Indices 1 2 3 4 5 6 
#
# 1 98.9562 28.0129 29.4109 0.0000 0.0000 0.0000
# 2 28.0129 98.9562 29.4109 0.0000 0.0000 0.0000
# 3 29.4109 29.4109 150.7901 0.0000 0.0000 0.0000
# 4 0.0000 0.0000 0.0000 3.0504 0.0000 0.0000
# 5 0.0000 0.0000 0.0000 0.0000 3.0504 0.0000
# 6 0.0000 0.0000 0.0000 0.0000 0.0000 35.4716
#
#
#
# Elastic Compliance Matrix: (Units=1/GPa)
#
#
# Indices 1 2 3 4 5 6 
#
# 1 0.011377 -0.002719 -0.001689 0.000000 0.000000 0.000000
# 2 -0.002719 0.011377 -0.001689 0.000000 0.000000 0.000000
# 3 -0.001689 -0.001689 0.007291 0.000000 0.000000 0.000000
# 4 0.000000 0.000000 0.000000 0.327822 0.000000 0.000000
# 5 0.000000 0.000000 0.000000 0.000000 0.327822 0.000000
# 6 0.000000 0.000000 0.000000 0.000000 0.000000 0.028192
#
#
# Mechanical properties :
#
#
# Convention : Reuss Voigt Hill
#
# Bulk Modulus (GPa) = 56.01597 58.04132 57.02864
# Shear Modulus (GPa) = 6.83039 25.77236 16.30137
#
# Velocity S-wave (km/s) = 1.95818 3.80371 3.02512
# Velocity P-wave (km/s) = 6.04642 7.20240 6.64958
#
# Compressibility (1/GPa) = 0.01785205
#
# Stress axis : x y z
#
# Youngs Moduli (GPa) = 87.89640 87.89640 137.16474
#
# Poissons Ratio (x) = 0.23897 0.23164
# Poissons Ratio (y) = 0.23897 0.23164
# Poissons Ratio (z) = 0.14844 0.14844
#
# Static dielectric constant tensor:
#      x y z
#    x 3.150790 0.000000 0.000000 
#    y 0.000000 3.150790 0.000000 
#    z 0.000000 0.000000 3.447190 
# 
# 
# High freq. dielectric constant tensor:
#      x y z
#    x 1.676230 0.000000 0.000000 
#    y 0.000000 1.676230 0.000000 
#    z 0.000000 0.000000 1.689310 
# 
# From -- ./inp_files/974.got.cif
#   From: 2010.03.12/outbox.cif.g09.slc.cpg/sg173_cif.got.tgz:974.got - 2010.04.02 06:54:12.
