data_PCOD8324473
_publ_section_title
;
Structure prediction by ZEFSAII (Michael W. Deem and Ramdas Pophale) SiO2 
 PCOD8324473
Probable space group: P 61
;
_chemical_formula_sum "Si O2"
_cell_formula_units_Z 42
_cell_length_a 14.700727
_cell_length_b 14.700727
_cell_length_c 10.782138
_cell_angle_alpha 90.000000
_cell_angle_beta 90.000000
_cell_angle_gamma 120.000000
_cell_volume 2017.962739
_symmetry_space_group_name_H-M "P 61"
_symmetry_group_IT_number 169
_symmetry_cell_setting 'hexagonal'
loop_
_space_group_symop_operation_xyz
x,y,z
x-y,x,1/6+z
-y,x-y,1/3+z
-x,-y,1/2+z
-x+y,-x,2/3+z
y,-x+y,5/6+z
loop_
_atom_site_type_symbol
_atom_site_label
_atom_site_fract_x
_atom_site_fract_y
_atom_site_fract_z
Si Si1 0.506437 0.842908 0.667130
Si Si2 0.056570 0.553503 0.758191
Si Si3 0.118609 0.818735 0.392687
Si Si4 0.654925 0.165144 0.339039
Si Si5 0.333478 0.005745 0.343922
Si Si6 0.598726 0.820668 0.317640
Si Si7 0.929673 0.824279 0.534128
O O1 0.492292 0.739896 0.599979
O O2 0.431372 0.806094 0.788916
O O3 0.623730 0.921845 0.720101
O O4 0.478605 0.908376 0.568411
O O5 0.942608 0.542097 0.747364
O O6 0.058357 0.453588 0.699945
O O7 0.134548 0.656033 0.678939
O O8 0.080882 0.725281 0.295302
O O9 0.176578 0.794515 0.504518
O O10 0.016852 0.824709 0.439454
O O11 0.208172 0.926765 0.329534
O O12 0.705009 0.155701 0.209347
O O13 0.710311 0.881715 0.388231
O O14 0.880861 0.894782 0.491704
#
# Coordination Sequence:
#
# PCOD8324473 Si02
#       7
#     6   6   6   6   6   6   6
#     4  10  24  42  62  91 127 172 218 279 334 403
#     4  10  23  41  66  92 129 172 216 277 330 406
#     4  11  21  38  66  97 128 171 220 275 332 411
#     4  10  21  44  60  90 130 166 222 279 333 407
#     4  11  24  40  65  97 129 174 223 271 346 400
#     4  10  20  38  67  91 125 164 217 270 330 390
#     4  10  19  35  60  92 124 161 212 261 313 391
#
# _framework density 20.81307
#
# number of rings (size 3 to 8) (size 9 to 14) (size 15 to 20)
#    0.000    1.714    2.857    2.571    6.000    0.000 
#   15.429    4.286    0.000    0.000    0.000    0.000 
#    0.000    0.000    0.000    0.000    0.000    0.000 
#
# Total GULP energy -520430.367371 kJ/mol
# GULP energy per Si atom -12391.199223 kJ/mol
# Density = 2.076570 g / cm^3
# Si number density = 20.813070 Si / 1000 Ang^3
#
#
#
# Elastic Constant Matrix: (Units=GPa)
#
#
# Indices 1 2 3 4 5 6 
#
# 1 73.1050 20.3683 15.5152 0.0000 0.0000 0.0000
# 2 20.3683 73.1050 15.5152 0.0000 0.0000 0.0000
# 3 15.5152 15.5152 50.8637 0.0000 0.0000 0.0000
# 4 0.0000 0.0000 0.0000 40.9174 0.0000 0.0000
# 5 0.0000 0.0000 0.0000 0.0000 40.9174 0.0000
# 6 0.0000 0.0000 0.0000 0.0000 0.0000 26.3683
#
#
#
# Elastic Compliance Matrix: (Units=1/GPa)
#
#
# Indices 1 2 3 4 5 6 
#
# 1 0.015433 -0.003529 -0.003631 0.000000 0.000000 0.000000
# 2 -0.003529 0.015433 -0.003631 0.000000 0.000000 0.000000
# 3 -0.003631 -0.003631 0.021876 0.000000 0.000000 0.000000
# 4 0.000000 0.000000 0.000000 0.024439 0.000000 0.000000
# 5 0.000000 0.000000 0.000000 0.000000 0.024439 0.000000
# 6 0.000000 0.000000 0.000000 0.000000 0.000000 0.037924
#
#
# Mechanical properties :
#
#
# Convention : Reuss Voigt Hill
#
# Bulk Modulus (GPa) = 32.09372 33.31901 32.70636
# Shear Modulus (GPa) = 29.15224 31.35230 30.25227
#
# Velocity S-wave (km/s) = 3.74661 3.88542 3.81665
# Velocity P-wave (km/s) = 5.84548 6.01432 5.93050
#
# Compressibility (1/GPa) = 0.03115875
#
# Stress axis : x y z
#
# Youngs Moduli (GPa) = 64.79669 64.79669 45.71308
#
# Poissons Ratio (x) = 0.22868 0.16599
# Poissons Ratio (y) = 0.22868 0.16599
# Poissons Ratio (z) = 0.23528 0.23528
#
# Static dielectric constant tensor:
#      x y z
#    x 3.786750 0.000000 0.000000 
#    y 0.000000 3.786750 0.000000 
#    z 0.000000 0.000000 3.792330 
# 
# 
# High freq. dielectric constant tensor:
#      x y z
#    x 1.813640 0.000000 0.000000 
#    y 0.000000 1.813640 0.000000 
#    z 0.000000 0.000000 1.805620 
# 
# From -- ./inp_files/922.got.cif
#   From: 2010.03.12/outbox.cif.g09.slc.cpg/sg169_cif.got.tgz:922.got - 2010.04.02 06:46:06.
