data_PCOD8324855
_publ_section_title
;
Structure prediction by ZEFSAII (Michael W. Deem and Ramdas Pophale) SiO2 
 PCOD8324855
Probable space group: P 63
;
_chemical_formula_sum "Si O2"
_cell_formula_units_Z 30
_cell_length_a 8.526362
_cell_length_b 8.526362
_cell_length_c 24.047623
_cell_angle_alpha 90.000000
_cell_angle_beta 90.000000
_cell_angle_gamma 120.000000
_cell_volume 1514.015499
_symmetry_space_group_name_H-M "P 63"
_symmetry_group_IT_number 173
_symmetry_cell_setting 'hexagonal'
loop_
_space_group_symop_operation_xyz
x,y,z
x-y,x,1/2+z
-y,x-y,z
-x,-y,1/2+z
-x+y,-x,z
y,-x+y,1/2+z
loop_
_atom_site_type_symbol
_atom_site_label
_atom_site_fract_x
_atom_site_fract_y
_atom_site_fract_z
Si Si1 0.870555 0.337644 0.739510
Si Si2 0.996391 0.330263 0.076331
Si Si3 0.349735 0.875515 0.839134
Si Si4 0.657558 0.127899 0.462484
Si Si5 0.337385 0.004385 0.621220
O O1 0.842616 0.513736 0.738085
O O2 0.989323 0.335976 0.688018
O O3 0.977595 0.341585 0.794942
O O4 0.132557 0.265157 0.097738
O O5 0.070037 0.532868 0.098327
O O6 0.797983 0.198488 0.100526
O O7 0.991792 0.334156 0.008949
O O8 0.164074 0.681566 0.831959
O O9 0.351324 0.952971 0.900944
O O10 0.840059 0.325329 0.469288
#
# Coordination Sequence:
#
# PCOD8324855 Si02
#       5
#     6   6   6   6   6
#     4  10  21  38  55  82 125 160 196 260 319 354
#     4  12  22  41  61  89 123 165 213 257 322 376
#     4   8  18  34  62  89 107 155 207 247 304 384
#     4   8  15  36  63  82 120 159 192 253 322 369
#     4  12  24  39  61  90 121 169 210 263 315 379
#
# _framework density 19.814857
#
# number of rings (size 3 to 8) (size 9 to 14) (size 15 to 20)
#    1.200    0.800    4.000    1.200    2.800    0.000 
#    3.600    0.000    0.000    0.800    0.000    0.000 
#    0.000    0.000    0.000    0.000    0.000    0.000 
#
# Total GULP energy -371763.727551 kJ/mol
# GULP energy per Si atom -12392.124252 kJ/mol
# Density = 1.976976 g / cm^3
# Si number density = 19.814857 Si / 1000 Ang^3
#
#
#
# Elastic Constant Matrix: (Units=GPa)
#
#
# Indices 1 2 3 4 5 6 
#
# 1 55.6204 15.9114 43.8680 0.0000 0.0000 0.0000
# 2 15.9114 55.6204 43.8680 0.0000 0.0000 0.0000
# 3 43.8680 43.8680 206.6346 0.0000 0.0000 0.0000
# 4 0.0000 0.0000 0.0000 32.1330 0.0000 0.0000
# 5 0.0000 0.0000 0.0000 0.0000 32.1330 0.0000
# 6 0.0000 0.0000 0.0000 0.0000 0.0000 19.8545
#
#
#
# Elastic Compliance Matrix: (Units=1/GPa)
#
#
# Indices 1 2 3 4 5 6 
#
# 1 0.022042 -0.003141 -0.004013 0.000000 0.000000 0.000000
# 2 -0.003141 0.022042 -0.004013 0.000000 0.000000 0.000000
# 3 -0.004013 -0.004013 0.006543 0.000000 0.000000 0.000000
# 4 0.000000 0.000000 0.000000 0.031121 0.000000 0.000000
# 5 0.000000 0.000000 0.000000 0.000000 0.031121 0.000000
# 6 0.000000 0.000000 0.000000 0.000000 0.000000 0.050366
#
#
# Mechanical properties :
#
#
# Convention : Reuss Voigt Hill
#
# Bulk Modulus (GPa) = 35.34148 58.35223 46.84685
# Shear Modulus (GPa) = 25.64100 31.10597 28.37348
#
# Velocity S-wave (km/s) = 3.60116 3.96641 3.78819
# Velocity P-wave (km/s) = 5.93007 7.10557 6.54427
#
# Compressibility (1/GPa) = 0.02829536
#
# Stress axis : x y z
#
# Youngs Moduli (GPa) = 45.36714 45.36714 152.82922
#
# Poissons Ratio (x) = 0.14249 0.61327
# Poissons Ratio (y) = 0.14249 0.61327
# Poissons Ratio (z) = 0.18205 0.18205
#
# Static dielectric constant tensor:
#      x y z
#    x 3.129560 0.000000 0.000000 
#    y 0.000000 3.129560 0.000000 
#    z 0.000000 0.000000 3.613420 
# 
# 
# High freq. dielectric constant tensor:
#      x y z
#    x 1.738030 0.000000 0.000000 
#    y 0.000000 1.738030 0.000000 
#    z 0.000000 0.000000 1.788520 
# 
# From -- ./inp_files/1427.got.cif
#   From: 2010.03.12/outbox.cif.g09.slc.cpg/sg173_cif.got.tgz:1427.got - 2010.04.02 06:54:12.
