data_PCOD8324073
_publ_section_title
;
Structure prediction by ZEFSAII (Michael W. Deem and Ramdas Pophale) SiO2 
 PCOD8324073
Probable space group: R -3 M
;
_chemical_formula_sum "Si O2"
_cell_formula_units_Z 162
_cell_length_a 21.407360
_cell_length_b 21.407360
_cell_length_c 22.949756
_cell_angle_alpha 90.000000
_cell_angle_beta 90.000000
_cell_angle_gamma 120.000000
_cell_volume 9108.249722
_symmetry_space_group_name_H-M "R -3 M"
_symmetry_group_IT_number 166
_symmetry_cell_setting 'hexagonal'
loop_
_space_group_symop_operation_xyz
x,y,z
-y,x-y,z
-x+y,-x,z
x-y,-y,-z
-x,-x+y,-z
y,x,-z
-x,-y,-z
y,-x+y,-z
x-y,x,-z
-x+y,y,z
x,x-y,z
-y,-x,z
2/3+x,1/3+y,1/3+z
2/3-y,1/3+x-y,1/3+z
2/3-x+y,1/3-x,1/3+z
2/3+x-y,1/3-y,1/3-z
2/3-x,1/3-x+y,1/3-z
2/3+y,1/3+x,1/3-z
2/3-x,1/3-y,1/3-z
2/3+y,1/3-x+y,1/3-z
2/3+x-y,1/3+x,1/3-z
2/3-x+y,1/3+y,1/3+z
2/3+x,1/3+x-y,1/3+z
2/3-y,1/3-x,1/3+z
1/3+x,2/3+y,2/3+z
1/3-y,2/3+x-y,2/3+z
1/3-x+y,2/3-x,2/3+z
1/3+x-y,2/3-y,2/3-z
1/3-x,2/3-x+y,2/3-z
1/3+y,2/3+x,2/3-z
1/3-x,2/3-y,2/3-z
1/3+y,2/3-x+y,2/3-z
1/3+x-y,2/3+x,2/3-z
1/3-x+y,2/3+y,2/3+z
1/3+x,2/3+x-y,2/3+z
1/3-y,2/3-x,2/3+z
loop_
_atom_site_type_symbol
_atom_site_label
_atom_site_fract_x
_atom_site_fract_y
_atom_site_fract_z
Si Si1 0.383956 0.468292 0.563340
Si Si2 0.946386 0.201309 0.233157
Si Si3 0.855466 0.999996 0.566556
Si Si4 0.815050 0.333334 0.333334
Si Si5 0.918754 0.386042 0.999593
O O1 0.457247 0.542754 0.565377
O O2 0.402208 0.405765 0.578748
O O3 0.352026 0.455885 0.497897
O O4 0.329280 0.471324 0.609927
O O5 0.876240 0.123761 0.239236
O O6 0.003829 0.207074 0.279808
O O7 0.848427 0.924214 0.584026
O O8 0.831918 0.000000 0.500000
O O9 0.801543 0.013779 0.606294
O O10 0.938291 0.061710 0.576037
O O11 0.806167 0.403084 0.333306
O O12 0.920091 0.460046 0.007874
O O13 0.000000 0.399768 0.000000
#
# Coordination Sequence:
#
# PCOD8324073 Si02
#       5
#    36  36  36  18  36
#     4   8  17  32  51  74  96 122 164 208 239 278
#     4   9  17  34  55  71  92 126 168 212 246 272
#     4   9  17  32  54  77  99 125 162 206 247 288
#     4  10  19  32  50  76 107 132 156 194 248 302
#     4  10  21  34  47  70 105 135 158 192 244 303
#
# _framework density 17.786073999999999
#
# number of rings (size 3 to 8) (size 9 to 14) (size 15 to 20)
#    0.000    2.889    0.000    2.333    1.556    1.778 
#    4.000    0.000    0.000    0.444    0.000    0.000 
#    0.000    0.000    0.000    0.000    0.000    0.000 
#
# Total GULP energy -669421.280926 kJ/mol
# GULP energy per Si atom -12396.690388 kJ/mol
# Density = 1.774559 g / cm^3
# Si number density = 17.786074 Si / 1000 Ang^3
#
#
#
# Elastic Constant Matrix: (Units=GPa)
#
#
# Indices 1 2 3 4 5 6 
#
# 1 66.1005 41.0407 61.6566 7.5387 0.0000 0.0000
# 2 41.0407 66.1005 61.6566 -7.5387 0.0000 0.0000
# 3 61.6566 61.6566 146.9631 0.0000 0.0000 0.0000
# 4 7.5387 -7.5387 0.0000 31.6184 0.0000 0.0000
# 5 0.0000 0.0000 0.0000 0.0000 31.6184 7.5387
# 6 0.0000 0.0000 0.0000 0.0000 7.5387 12.5299
#
#
#
# Elastic Compliance Matrix: (Units=1/GPa)
#
#
# Indices 1 2 3 4 5 6 
#
# 1 0.032318 -0.014270 -0.007572 -0.011108 0.000000 0.000000
# 2 -0.014270 0.032318 -0.007572 0.011108 0.000000 0.000000
# 3 -0.007572 -0.007572 0.013158 0.000000 0.000000 0.000000
# 4 -0.011108 0.011108 0.000000 0.036924 0.000000 0.000000
# 5 0.000000 0.000000 0.000000 0.000000 0.036924 -0.022215
# 6 0.000000 0.000000 0.000000 0.000000 -0.022215 0.093175
#
#
# Mechanical properties :
#
#
# Convention : Reuss Voigt Hill
#
# Bulk Modulus (GPa) = 52.72388 67.54132 60.13260
# Shear Modulus (GPa) = 16.13080 22.80735 19.46908
#
# Velocity S-wave (km/s) = 3.01480 3.58483 3.31210
# Velocity P-wave (km/s) = 6.46733 7.42909 6.96483
#
# Compressibility (1/GPa) = 0.01896674
#
# Stress axis : x y z
#
# Youngs Moduli (GPa) = 30.94257 30.94257 75.99997
#
# Poissons Ratio (x) = 0.44154 0.57547
# Poissons Ratio (y) = 0.44154 0.57547
# Poissons Ratio (z) = 0.23430 0.23430
#
# Static dielectric constant tensor:
#      x y z
#    x 3.204530 0.000000 0.000000 
#    y 0.000000 3.204530 0.000000 
#    z 0.000000 0.000000 3.608460 
# 
# 
# High freq. dielectric constant tensor:
#      x y z
#    x 1.674340 0.000000 0.000000 
#    y 0.000000 1.674340 0.000000 
#    z 0.000000 0.000000 1.698810 
# 
# From -- ./inp_files/8208.got.cif
#   From: 2010.03.12/outbox.cif.g09.slc.cpg/sg166_5_cif.got.tgz:8208.got - 2010.04.02 06:38:31.
