data_PCOD8324775
_publ_section_title
;
Structure prediction by ZEFSAII (Michael W. Deem and Ramdas Pophale) SiO2 
 PCOD8324775
Probable space group: P 62
;
_chemical_formula_sum "Si O2"
_cell_formula_units_Z 36
_cell_length_a 8.293796
_cell_length_b 8.293796
_cell_length_c 25.578028
_cell_angle_alpha 90.000000
_cell_angle_beta 90.000000
_cell_angle_gamma 120.000000
_cell_volume 1523.717263
_symmetry_space_group_name_H-M "P 62"
_symmetry_group_IT_number 171
_symmetry_cell_setting 'hexagonal'
loop_
_space_group_symop_operation_xyz
x,y,z
x-y,x,1/3+z
-y,x-y,2/3+z
-x,-y,z
-x+y,-x,1/3+z
y,-x+y,2/3+z
loop_
_atom_site_type_symbol
_atom_site_label
_atom_site_fract_x
_atom_site_fract_y
_atom_site_fract_z
Si Si1 0.002466 0.808948 0.847530
Si Si2 0.457269 0.309375 0.609315
Si Si3 0.305605 0.950912 0.465005
Si Si4 0.815696 0.305026 0.567073
Si Si5 0.214166 0.159125 0.987281
Si Si6 0.338878 0.289358 0.093552
O O1 0.984461 0.692170 0.898737
O O2 0.822324 0.676109 0.813424
O O3 0.000000 0.000000 0.860803
O O4 0.182855 0.845168 0.813641
O O5 0.500000 0.500000 0.638907
O O6 0.647629 0.327411 0.588681
O O7 0.359985 0.130498 0.646282
O O8 0.256394 0.815509 0.514810
O O9 0.145945 0.854156 0.422028
O O10 0.500000 0.000000 0.439274
O O11 0.880967 0.198267 0.607087
O O12 0.000000 0.500000 0.554958
O O13 0.331201 0.178568 0.040638
O O14 0.000000 0.000000 0.990643
O O15 0.500000 0.500000 0.096195
#
# Coordination Sequence:
#
# PCOD8324775 Si02
#       6
#     6   6   6   6   6   6
#     4  10  22  41  66  99 134 185 230 292 350 415
#     4  12  25  40  70 107 142 181 243 292 351 426
#     4  11  21  41  69 102 138 181 236 293 348 415
#     4  12  25  43  72 104 139 189 239 293 352 417
#     4  12  25  49  71 103 143 193 233 297 360 416
#     4  11  26  44  71 100 146 187 238 288 357 431
#
# _framework density 23.626431
#
# number of rings (size 3 to 8) (size 9 to 14) (size 15 to 20)
#    0.000    0.667    3.333    5.000    9.333    0.667 
#    0.000    5.833    0.000    0.000    0.000    0.000 
#    0.000    0.000    0.000    0.000    0.000    0.000 
#
# Total GULP energy -446218.289153 kJ/mol
# GULP energy per Si atom -12394.952476 kJ/mol
# Density = 2.357266 g / cm^3
# Si number density = 23.626431 Si / 1000 Ang^3
#
#
#
# Elastic Constant Matrix: (Units=GPa)
#
#
# Indices 1 2 3 4 5 6 
#
# 1 103.7194 13.6461 4.0529 0.0000 0.0000 0.0000
# 2 13.6461 103.7194 4.0529 0.0000 0.0000 0.0000
# 3 4.0529 4.0529 61.1527 0.0000 0.0000 0.0000
# 4 0.0000 0.0000 0.0000 6.8234 0.0000 0.0000
# 5 0.0000 0.0000 0.0000 0.0000 6.8234 0.0000
# 6 0.0000 0.0000 0.0000 0.0000 0.0000 45.0367
#
#
#
# Elastic Compliance Matrix: (Units=1/GPa)
#
#
# Indices 1 2 3 4 5 6 
#
# 1 0.009831 -0.001271 -0.000567 0.000000 0.000000 0.000000
# 2 -0.001271 0.009831 -0.000567 0.000000 0.000000 0.000000
# 3 -0.000567 -0.000567 0.016428 0.000000 0.000000 0.000000
# 4 0.000000 0.000000 0.000000 0.146554 0.000000 0.000000
# 5 0.000000 0.000000 0.000000 0.000000 0.146554 0.000000
# 6 0.000000 0.000000 0.000000 0.000000 0.000000 0.022204
#
#
# Mechanical properties :
#
#
# Convention : Reuss Voigt Hill
#
# Bulk Modulus (GPa) = 31.97164 34.67723 33.32444
# Shear Modulus (GPa) = 13.63741 28.19268 20.91505
#
# Velocity S-wave (km/s) = 2.40513 3.45812 2.97853
# Velocity P-wave (km/s) = 4.61241 5.53660 5.09550
#
# Compressibility (1/GPa) = 0.03127772
#
# Stress axis : x y z
#
# Youngs Moduli (GPa) = 101.72092 101.72092 60.87279
#
# Poissons Ratio (x) = 0.12931 0.03453
# Poissons Ratio (y) = 0.12931 0.03453
# Poissons Ratio (z) = 0.05770 0.05770
#
# Static dielectric constant tensor:
#      x y z
#    x 4.562040 0.000000 0.000000 
#    y 0.000000 4.562040 0.000000 
#    z 0.000000 0.000000 4.161360 
# 
# 
# High freq. dielectric constant tensor:
#      x y z
#    x 1.943230 0.000000 0.000000 
#    y 0.000000 1.943230 0.000000 
#    z 0.000000 0.000000 1.922740 
# 
# From -- ./inp_files/5798.got.cif
#   From: 2010.03.12/outbox.cif.g09.slc.cpg/sg171_3_cif.got.tgz:5798.got - 2010.04.02 06:49:11.
