data_PCOD8324754
_publ_section_title
;
Structure prediction by ZEFSAII (Michael W. Deem and Ramdas Pophale) SiO2 
 PCOD8324754
Probable space group: P 62
;
_chemical_formula_sum "Si O2"
_cell_formula_units_Z 42
_cell_length_a 14.750170
_cell_length_b 14.750170
_cell_length_c 9.857533
_cell_angle_alpha 90.000000
_cell_angle_beta 90.000000
_cell_angle_gamma 120.000000
_cell_volume 1857.346462
_symmetry_space_group_name_H-M "P 62"
_symmetry_group_IT_number 171
_symmetry_cell_setting 'hexagonal'
loop_
_space_group_symop_operation_xyz
x,y,z
x-y,x,1/3+z
-y,x-y,2/3+z
-x,-y,z
-x+y,-x,1/3+z
y,-x+y,2/3+z
loop_
_atom_site_type_symbol
_atom_site_label
_atom_site_fract_x
_atom_site_fract_y
_atom_site_fract_z
Si Si1 0.715722 0.673562 0.936300
Si Si2 0.837729 0.202228 0.010513
Si Si3 0.333312 0.160384 0.849677
Si Si4 0.976395 0.292499 0.762351
Si Si5 0.000000 0.500000 0.236519
Si Si6 0.552887 0.343852 0.188495
Si Si7 0.500000 0.500000 0.332797
Si Si8 0.214135 0.547475 0.209440
O O1 0.743822 0.612640 0.824033
O O2 0.727726 0.776111 0.863223
O O3 0.597221 0.591899 0.988176
O O4 0.791994 0.717513 0.065258
O O5 0.787280 0.079043 0.041774
O O6 0.939447 0.243192 0.912489
O O7 0.756896 0.232104 0.942706
O O8 0.335432 0.115206 0.994739
O O9 0.452245 0.236321 0.799371
O O10 0.997206 0.410805 0.762421
O O11 0.888463 0.448645 0.151891
O O12 0.552782 0.447458 0.241575
O O13 0.668826 0.353465 0.193718
O O14 0.517089 0.328378 0.034105
#
# Coordination Sequence:
#
# PCOD8324754 Si02
#       8
#     6   6   6   6   3   6   3   6
#     4  11  25  43  64  99 134 178 221 283 345 408
#     4  11  24  41  65  96 139 176 220 281 354 409
#     4  11  22  42  69  93 128 174 230 272 335 406
#     4  11  22  42  67  98 127 181 226 282 339 417
#     4  10  25  39  64  90 140 180 228 278 328 414
#     4  11  21  36  60  92 131 174 224 280 330 413
#     4  10  21  35  64  96 134 166 240 280 336 412
#     4  11  22  38  59  92 127 177 232 276 330 397
#
# _framework density 22.612905000000001
#
# number of rings (size 3 to 8) (size 9 to 14) (size 15 to 20)
#    0.000    1.143    2.857    3.000    8.000    0.571 
#    0.000    0.000    0.000    8.571    0.000    0.000 
#    0.000    0.000    0.000    0.000    0.000    0.000 
#
# Total GULP energy -520439.885829 kJ/mol
# GULP energy per Si atom -12391.425853 kJ/mol
# Density = 2.256144 g / cm^3
# Si number density = 22.612905 Si / 1000 Ang^3
#
#
#
# Elastic Constant Matrix: (Units=GPa)
#
#
# Indices 1 2 3 4 5 6 
#
# 1 107.4100 44.5602 17.2549 0.0000 0.0000 0.0000
# 2 44.5602 107.4100 17.2549 0.0000 0.0000 0.0000
# 3 17.2549 17.2549 82.8039 0.0000 0.0000 0.0000
# 4 0.0000 0.0000 0.0000 24.7562 0.0000 0.0000
# 5 0.0000 0.0000 0.0000 0.0000 24.7562 0.0000
# 6 0.0000 0.0000 0.0000 0.0000 0.0000 31.4249
#
#
#
# Elastic Compliance Matrix: (Units=1/GPa)
#
#
# Indices 1 2 3 4 5 6 
#
# 1 0.011409 -0.004502 -0.001439 0.000000 0.000000 0.000000
# 2 -0.004502 0.011409 -0.001439 0.000000 0.000000 0.000000
# 3 -0.001439 -0.001439 0.012677 0.000000 0.000000 0.000000
# 4 0.000000 0.000000 0.000000 0.040394 0.000000 0.000000
# 5 0.000000 0.000000 0.000000 0.000000 0.040394 0.000000
# 6 0.000000 0.000000 0.000000 0.000000 0.000000 0.031822
#
#
# Mechanical properties :
#
#
# Convention : Reuss Voigt Hill
#
# Bulk Modulus (GPa) = 48.23119 50.64045 49.43582
# Shear Modulus (GPa) = 29.45047 30.75772 30.10410
#
# Velocity S-wave (km/s) = 3.61276 3.69207 3.65263
# Velocity P-wave (km/s) = 6.22720 6.37325 6.30065
#
# Compressibility (1/GPa) = 0.02073347
#
# Stress axis : x y z
#
# Youngs Moduli (GPa) = 87.64993 87.64993 78.88559
#
# Poissons Ratio (x) = 0.39459 0.11354
# Poissons Ratio (y) = 0.39459 0.11354
# Poissons Ratio (z) = 0.12616 0.12616
#
# Static dielectric constant tensor:
#      x y z
#    x 4.205580 0.000000 0.000000 
#    y 0.000000 4.205580 0.000000 
#    z 0.000000 0.000000 3.750440 
# 
# 
# High freq. dielectric constant tensor:
#      x y z
#    x 1.890560 0.000000 0.000000 
#    y 0.000000 1.890560 0.000000 
#    z 0.000000 0.000000 1.873770 
# 
# From -- ./inp_files/1690.got.cif
#   From: 2010.03.12/outbox.cif.g09.slc.cpg/sg171_1_cif.got.tgz:1690.got - 2010.04.02 06:49:11.
