data_PCOD8324089
_publ_section_title
;
Structure prediction by ZEFSAII (Michael W. Deem and Ramdas Pophale) SiO2 
 PCOD8324089
Probable space group: R -3 M
;
_chemical_formula_sum "Si O2"
_cell_formula_units_Z 144
_cell_length_a 21.388978
_cell_length_b 21.388978
_cell_length_c 20.507864
_cell_angle_alpha 90.000000
_cell_angle_beta 90.000000
_cell_angle_gamma 120.000000
_cell_volume 8125.145148
_symmetry_space_group_name_H-M "R -3 M"
_symmetry_group_IT_number 166
_symmetry_cell_setting 'hexagonal'
loop_
_space_group_symop_operation_xyz
x,y,z
-y,x-y,z
-x+y,-x,z
x-y,-y,-z
-x,-x+y,-z
y,x,-z
-x,-y,-z
y,-x+y,-z
x-y,x,-z
-x+y,y,z
x,x-y,z
-y,-x,z
2/3+x,1/3+y,1/3+z
2/3-y,1/3+x-y,1/3+z
2/3-x+y,1/3-x,1/3+z
2/3+x-y,1/3-y,1/3-z
2/3-x,1/3-x+y,1/3-z
2/3+y,1/3+x,1/3-z
2/3-x,1/3-y,1/3-z
2/3+y,1/3-x+y,1/3-z
2/3+x-y,1/3+x,1/3-z
2/3-x+y,1/3+y,1/3+z
2/3+x,1/3+x-y,1/3+z
2/3-y,1/3-x,1/3+z
1/3+x,2/3+y,2/3+z
1/3-y,2/3+x-y,2/3+z
1/3-x+y,2/3-x,2/3+z
1/3+x-y,2/3-y,2/3-z
1/3-x,2/3-x+y,2/3-z
1/3+y,2/3+x,2/3-z
1/3-x,2/3-y,2/3-z
1/3+y,2/3-x+y,2/3-z
1/3+x-y,2/3+x,2/3-z
1/3-x+y,2/3+y,2/3+z
1/3+x,2/3+x-y,2/3+z
1/3-y,2/3-x,2/3+z
loop_
_atom_site_type_symbol
_atom_site_label
_atom_site_fract_x
_atom_site_fract_y
_atom_site_fract_z
Si Si1 0.981191 0.270604 0.600464
Si Si2 0.334094 0.524423 0.468367
Si Si3 0.999345 0.143976 0.349717
Si Si4 0.076255 0.296256 0.147386
O O1 0.955890 0.289223 0.666667
O O2 0.996051 0.204987 0.608555
O O3 0.917929 0.246033 0.548046
O O4 0.054366 0.340439 0.576344
O O5 0.273369 0.546737 0.478565
O O6 0.409918 0.590083 0.493035
O O7 0.337952 0.507061 0.392892
O O8 0.316875 0.454248 0.510075
O O9 0.067586 0.135172 0.365473
O O10 0.928768 0.071233 0.372198
O O11 0.152238 0.304476 0.126547
#
# Coordination Sequence:
#
# PCOD8324089 Si02
#       4
#    36  36  36  36
#     4  11  21  35  54  78 109 147 183 221 270 326
#     4   9  17  31  52  78 104 133 172 222 273 321
#     4  10  19  32  53  79 107 137 175 222 271 319
#     4  10  21  36  54  78 108 143 186 226 267 325
#
# _framework density 17.722760999999998
#
# number of rings (size 3 to 8) (size 9 to 14) (size 15 to 20)
#    0.000    2.000    2.500    2.000    0.000    3.000 
#    0.000    5.000    0.000    0.000    0.000    8.750 
#    0.000    5.000    0.000    0.000    0.000    0.000 
#
# Total GULP energy -595345.178172 kJ/mol
# GULP energy per Si atom -12403.024545 kJ/mol
# Density = 1.768242 g / cm^3
# Si number density = 17.722761 Si / 1000 Ang^3
#
#
#
# Elastic Constant Matrix: (Units=GPa)
#
#
# Indices 1 2 3 4 5 6 
#
# 1 102.2519 40.5678 10.7038 0.7274 0.0000 0.0000
# 2 40.5678 102.2519 10.7038 -0.7274 0.0000 0.0000
# 3 10.7038 10.7038 30.3919 0.0000 0.0000 0.0000
# 4 0.7274 -0.7274 0.0000 24.0192 0.0000 0.0000
# 5 0.0000 0.0000 0.0000 0.0000 24.0192 0.7274
# 6 0.0000 0.0000 0.0000 0.0000 0.7274 30.8420
#
#
#
# Elastic Compliance Matrix: (Units=1/GPa)
#
#
# Indices 1 2 3 4 5 6 
#
# 1 0.011808 -0.004416 -0.002603 -0.000491 0.000000 0.000000
# 2 -0.004416 0.011808 -0.002603 0.000491 0.000000 0.000000
# 3 -0.002603 -0.002603 0.034737 0.000000 0.000000 0.000000
# 4 -0.000491 0.000491 0.000000 0.041663 0.000000 0.000000
# 5 0.000000 0.000000 0.000000 0.000000 0.041663 -0.000983
# 6 0.000000 0.000000 0.000000 0.000000 -0.000983 0.032446
#
#
# Mechanical properties :
#
#
# Convention : Reuss Voigt Hill
#
# Bulk Modulus (GPa) = 25.57042 39.87184 32.72113
# Shear Modulus (GPa) = 24.22410 27.30411 25.76410
#
# Velocity S-wave (km/s) = 3.70108 3.92934 3.81692
# Velocity P-wave (km/s) = 5.72043 6.56754 6.15857
#
# Compressibility (1/GPa) = 0.03910769
#
# Stress axis : x y z
#
# Youngs Moduli (GPa) = 84.69084 84.69084 28.78749
#
# Poissons Ratio (x) = 0.37396 0.07495
# Poissons Ratio (y) = 0.37396 0.07495
# Poissons Ratio (z) = 0.22049 0.22049
#
# Static dielectric constant tensor:
#      x y z
#    x 3.354760 0.000000 0.000000 
#    y 0.000000 3.354760 0.000000 
#    z 0.000000 0.000000 3.035340 
# 
# 
# High freq. dielectric constant tensor:
#      x y z
#    x 1.695970 0.000000 0.000000 
#    y 0.000000 1.695970 0.000000 
#    z 0.000000 0.000000 1.656700 
# 
# From -- ./inp_files/6581.got.cif
#   From: 2010.03.12/outbox.cif.g09.slc.cpg/sg166_4_cif.got.tgz:6581.got - 2010.04.02 06:38:31.
