data_PCOD8324026
_publ_section_title
;
Structure prediction by ZEFSAII (Michael W. Deem and Ramdas Pophale) SiO2 
 PCOD8324026
Probable space group: R -3 M
;
_chemical_formula_sum "Si O2"
_cell_formula_units_Z 216
_cell_length_a 27.591968
_cell_length_b 27.591968
_cell_length_c 21.730998
_cell_angle_alpha 90.000000
_cell_angle_beta 90.000000
_cell_angle_gamma 120.000000
_cell_volume 14327.672928
_symmetry_space_group_name_H-M "R -3 M"
_symmetry_group_IT_number 166
_symmetry_cell_setting 'hexagonal'
loop_
_space_group_symop_operation_xyz
x,y,z
-y,x-y,z
-x+y,-x,z
x-y,-y,-z
-x,-x+y,-z
y,x,-z
-x,-y,-z
y,-x+y,-z
x-y,x,-z
-x+y,y,z
x,x-y,z
-y,-x,z
2/3+x,1/3+y,1/3+z
2/3-y,1/3+x-y,1/3+z
2/3-x+y,1/3-x,1/3+z
2/3+x-y,1/3-y,1/3-z
2/3-x,1/3-x+y,1/3-z
2/3+y,1/3+x,1/3-z
2/3-x,1/3-y,1/3-z
2/3+y,1/3-x+y,1/3-z
2/3+x-y,1/3+x,1/3-z
2/3-x+y,1/3+y,1/3+z
2/3+x,1/3+x-y,1/3+z
2/3-y,1/3-x,1/3+z
1/3+x,2/3+y,2/3+z
1/3-y,2/3+x-y,2/3+z
1/3-x+y,2/3-x,2/3+z
1/3+x-y,2/3-y,2/3-z
1/3-x,2/3-x+y,2/3-z
1/3+y,2/3+x,2/3-z
1/3-x,2/3-y,2/3-z
1/3+y,2/3-x+y,2/3-z
1/3+x-y,2/3+x,2/3-z
1/3-x+y,2/3+y,2/3+z
1/3+x,2/3+x-y,2/3+z
1/3-y,2/3-x,2/3+z
loop_
_atom_site_type_symbol
_atom_site_label
_atom_site_fract_x
_atom_site_fract_y
_atom_site_fract_z
Si Si1 0.062825 0.633801 0.378259
Si Si2 0.267249 0.080543 0.165197
Si Si3 0.413838 0.478485 0.014399
Si Si4 0.436542 0.454322 0.257634
Si Si5 0.670988 0.605591 0.265456
Si Si6 0.060348 0.832410 0.482273
O O1 0.086166 0.614599 0.435161
O O2 0.116241 0.692954 0.361647
O O3 0.046852 0.590439 0.322434
O O4 0.007315 0.637148 0.397628
O O5 0.241006 0.120503 0.152283
O O6 0.333334 0.117377 0.166667
O O7 0.248922 0.035278 0.110906
O O8 0.454870 0.545130 0.000274
O O9 0.393969 0.469279 0.085327
O O10 0.448105 0.448105 0.000000
O O11 0.503767 0.496234 0.262942
O O12 0.419703 0.391403 0.239544
O O13 0.412820 0.473620 0.202640
O O14 0.666667 0.580468 0.333334
O O15 0.101110 0.898891 0.477385
O O16 0.000000 0.823082 0.500000
#
# Coordination Sequence:
#
# PCOD8324026 Si02
#       6
#    36  36  36  36  36  36
#     4  10  18  31  47  65  90 123 161 195 223 269
#     4   9  18  31  48  66  87 118 156 194 226 260
#     4  10  20  31  43  63  93 128 160 191 231 275
#     4  10  19  30  45  66  91 121 156 190 226 273
#     4   9  19  30  43  67  90 121 156 186 226 264
#     4  10  20  32  47  65  90 120 154 194 236 277
#
# _framework density 15.075721
#
# number of rings (size 3 to 8) (size 9 to 14) (size 15 to 20)
#    0.000    2.333    1.667    2.000    2.333    4.667 
#    0.000    0.000    0.000    0.167    0.000    0.000 
#    0.000    0.000    0.000    7.833    0.000   15.833 
#
# Total GULP energy -892345.929182 kJ/mol
# GULP energy per Si atom -12393.693461 kJ/mol
# Density = 1.504141 g / cm^3
# Si number density = 15.075721 Si / 1000 Ang^3
#
#
#
# Elastic Constant Matrix: (Units=GPa)
#
#
# Indices 1 2 3 4 5 6 
#
# 1 85.1691 50.2639 43.5576 -0.4478 -0.0001 0.0000
# 2 50.2639 85.1691 43.5576 0.4478 0.0001 0.0000
# 3 43.5576 43.5576 102.5590 0.0000 0.0000 0.0000
# 4 -0.4478 0.4478 0.0000 21.8633 0.0000 0.0001
# 5 -0.0001 0.0001 0.0000 0.0000 21.8633 -0.4478
# 6 0.0000 0.0000 0.0000 0.0001 -0.4478 17.4526
#
#
#
# Elastic Compliance Matrix: (Units=1/GPa)
#
#
# Indices 1 2 3 4 5 6 
#
# 1 0.019412 -0.009253 -0.004315 0.000587 0.000000 0.000000
# 2 -0.009253 0.019412 -0.004315 -0.000587 0.000000 0.000000
# 3 -0.004315 -0.004315 0.013415 0.000000 0.000000 0.000000
# 4 0.000587 -0.000587 0.000000 0.045763 0.000000 0.000000
# 5 0.000000 0.000000 0.000000 0.000000 0.045763 0.001174
# 6 0.000000 0.000000 0.000000 0.000000 0.001174 0.057328
#
#
# Mechanical properties :
#
#
# Convention : Reuss Voigt Hill
#
# Bulk Modulus (GPa) = 60.69808 60.85058 60.77433
# Shear Modulus (GPa) = 20.63152 21.27037 20.95095
#
# Velocity S-wave (km/s) = 3.70337 3.76027 3.73193
# Velocity P-wave (km/s) = 7.65743 7.70090 7.67919
#
# Compressibility (1/GPa) = 0.01647499
#
# Stress axis : x y z
#
# Youngs Moduli (GPa) = 51.51567 51.51567 74.54122
#
# Poissons Ratio (x) = 0.47665 0.32162
# Poissons Ratio (y) = 0.47665 0.32162
# Poissons Ratio (z) = 0.22227 0.22227
#
# Static dielectric constant tensor:
#      x y z
#    x 2.991450 0.000000 0.000000 
#    y 0.000000 2.991450 0.000000 
#    z 0.000000 0.000000 3.201650 
# 
# 
# High freq. dielectric constant tensor:
#      x y z
#    x 1.552330 0.000000 0.000000 
#    y 0.000000 1.552330 0.000000 
#    z 0.000000 0.000000 1.597090 
# 
# From -- ./inp_files/7177.got.cif
#   From: 2010.03.12/outbox.cif.g09.slc.cpg/sg166_4_cif.got.tgz:7177.got - 2010.04.02 06:38:31.
