data_PCOD8324131
_publ_section_title
;
Structure prediction by ZEFSAII (Michael W. Deem and Ramdas Pophale) SiO2 
 PCOD8324131
Probable space group: R -3 M
;
_chemical_formula_sum "Si O2"
_cell_formula_units_Z 126
_cell_length_a 20.949343
_cell_length_b 20.949343
_cell_length_c 18.790906
_cell_angle_alpha 90.000000
_cell_angle_beta 90.000000
_cell_angle_gamma 120.000000
_cell_volume 7141.988830
_symmetry_space_group_name_H-M "R -3 M"
_symmetry_group_IT_number 166
_symmetry_cell_setting 'hexagonal'
loop_
_space_group_symop_operation_xyz
x,y,z
-y,x-y,z
-x+y,-x,z
x-y,-y,-z
-x,-x+y,-z
y,x,-z
-x,-y,-z
y,-x+y,-z
x-y,x,-z
-x+y,y,z
x,x-y,z
-y,-x,z
2/3+x,1/3+y,1/3+z
2/3-y,1/3+x-y,1/3+z
2/3-x+y,1/3-x,1/3+z
2/3+x-y,1/3-y,1/3-z
2/3-x,1/3-x+y,1/3-z
2/3+y,1/3+x,1/3-z
2/3-x,1/3-y,1/3-z
2/3+y,1/3-x+y,1/3-z
2/3+x-y,1/3+x,1/3-z
2/3-x+y,1/3+y,1/3+z
2/3+x,1/3+x-y,1/3+z
2/3-y,1/3-x,1/3+z
1/3+x,2/3+y,2/3+z
1/3-y,2/3+x-y,2/3+z
1/3-x+y,2/3-x,2/3+z
1/3+x-y,2/3-y,2/3-z
1/3-x,2/3-x+y,2/3-z
1/3+y,2/3+x,2/3-z
1/3-x,2/3-y,2/3-z
1/3+y,2/3-x+y,2/3-z
1/3+x-y,2/3+x,2/3-z
1/3-x+y,2/3+y,2/3+z
1/3+x,2/3+x-y,2/3+z
1/3-y,2/3-x,2/3+z
loop_
_atom_site_type_symbol
_atom_site_label
_atom_site_fract_x
_atom_site_fract_y
_atom_site_fract_z
Si Si1 0.502049 0.497951 0.884957
Si Si2 0.601001 0.685303 0.515609
Si Si3 0.812916 0.774803 0.286993
Si Si4 0.893266 0.786531 0.661966
Si Si5 0.039965 0.666667 0.666667
O O1 0.557085 0.564220 0.835052
O O2 0.543347 0.456653 0.915692
O O3 0.472990 0.527011 0.948361
O O4 0.638685 0.638685 0.500000
O O5 0.529442 0.651037 0.463984
O O6 0.584419 0.678778 0.600191
O O7 0.878915 0.757829 0.297065
O O8 0.833131 0.851352 0.327083
O O9 0.737346 0.708053 0.320079
#
# Coordination Sequence:
#
# PCOD8324131 Si02
#       5
#    18  36  36  18  18
#     4   9  16  30  52  70  98 132 175 216 259 316
#     4   9  18  31  47  74 105 136 172 215 262 316
#     4  10  20  34  53  76 106 142 179 219 271 318
#     4   9  16  32  52  72  95 131 178 223 260 307
#     4  10  20  31  48  80 110 137 172 216 270 326
#
# _framework density 17.642143999999998
#
# number of rings (size 3 to 8) (size 9 to 14) (size 15 to 20)
#    0.000    2.571    0.000    5.143    2.000    5.143 
#    0.857    0.000    0.000    0.000    0.000    0.000 
#    0.000    4.571    0.000    0.000    0.000    0.000 
#
# Total GULP energy -520312.765358 kJ/mol
# GULP energy per Si atom -12388.399175 kJ/mol
# Density = 1.760199 g / cm^3
# Si number density = 17.642144 Si / 1000 Ang^3
#
#
#
# Elastic Constant Matrix: (Units=GPa)
#
#
# Indices 1 2 3 4 5 6 
#
# 1 76.4339 24.8465 40.7900 0.9834 0.0001 0.0000
# 2 24.8465 76.4339 40.7900 -0.9834 -0.0001 0.0000
# 3 40.7900 40.7900 102.7142 0.0000 0.0000 0.0000
# 4 0.9834 -0.9834 0.0000 14.8524 0.0000 -0.0001
# 5 0.0001 -0.0001 0.0000 0.0000 14.8524 0.9834
# 6 0.0000 0.0000 0.0000 -0.0001 0.9834 25.7937
#
#
#
# Elastic Compliance Matrix: (Units=1/GPa)
#
#
# Indices 1 2 3 4 5 6 
#
# 1 0.016975 -0.002458 -0.005765 -0.001287 0.000000 0.000000
# 2 -0.002458 0.016975 -0.005765 0.001287 0.000000 0.000000
# 3 -0.005765 -0.005765 0.014315 0.000000 0.000000 0.000000
# 4 -0.001287 0.001287 0.000000 0.067499 0.000000 0.000000
# 5 0.000000 0.000000 0.000000 0.000000 0.067499 -0.002573
# 6 0.000000 0.000000 0.000000 0.000000 -0.002573 0.038867
#
#
# Mechanical properties :
#
#
# Convention : Reuss Voigt Hill
#
# Bulk Modulus (GPa) = 49.28839 52.04834 50.66836
# Shear Modulus (GPa) = 19.46499 21.04342 20.25421
#
# Velocity S-wave (km/s) = 3.32523 3.45743 3.39198
# Velocity P-wave (km/s) = 6.53769 6.74572 6.64252
#
# Compressibility (1/GPa) = 0.02028875
#
# Stress axis : x y z
#
# Youngs Moduli (GPa) = 58.90855 58.90855 69.85839
#
# Poissons Ratio (x) = 0.14481 0.40274
# Poissons Ratio (y) = 0.14481 0.40274
# Poissons Ratio (z) = 0.33962 0.33962
#
# Static dielectric constant tensor:
#      x y z
#    x 2.953640 0.000000 0.000000 
#    y 0.000000 2.953640 0.000000 
#    z 0.000000 0.000000 4.874190 
# 
# 
# High freq. dielectric constant tensor:
#      x y z
#    x 1.653290 0.000000 0.000000 
#    y 0.000000 1.653290 0.000000 
#    z 0.000000 0.000000 1.690800 
# 
# From -- ./inp_files/4961.got.cif
#   From: 2010.03.12/outbox.cif.g09.slc.cpg/sg166_3_cif.got.tgz:4961.got - 2010.04.02 06:38:31.
