data_PCOD8324724
_publ_section_title
;
Structure prediction by ZEFSAII (Michael W. Deem and Ramdas Pophale) SiO2 
 PCOD8324724
Probable space group: P 62
;
_chemical_formula_sum "Si O2"
_cell_formula_units_Z 45
_cell_length_a 13.966308
_cell_length_b 13.966308
_cell_length_c 13.952317
_cell_angle_alpha 90.000000
_cell_angle_beta 90.000000
_cell_angle_gamma 120.000000
_cell_volume 2356.894795
_symmetry_space_group_name_H-M "P 62"
_symmetry_group_IT_number 171
_symmetry_cell_setting 'hexagonal'
loop_
_space_group_symop_operation_xyz
x,y,z
x-y,x,1/3+z
-y,x-y,2/3+z
-x,-y,z
-x+y,-x,1/3+z
y,-x+y,2/3+z
loop_
_atom_site_type_symbol
_atom_site_label
_atom_site_fract_x
_atom_site_fract_y
_atom_site_fract_z
Si Si1 0.791728 0.599670 0.891070
Si Si2 0.494849 0.665386 0.724446
Si Si3 0.608719 0.347128 0.423344
Si Si4 0.041078 0.416827 0.252898
Si Si5 0.000000 0.500000 0.921844
Si Si6 0.372276 0.917351 0.950716
Si Si7 0.002182 0.689063 0.792952
Si Si8 0.579508 0.758225 0.100796
O O1 0.762116 0.482760 0.839177
O O2 0.698024 0.632886 0.888069
O O3 0.902386 0.699867 0.841993
O O4 0.816234 0.588982 0.002602
O O5 0.391529 0.683153 0.739797
O O6 0.538566 0.652471 0.825458
O O7 0.452062 0.556650 0.659022
O O8 0.547029 0.346957 0.326342
O O9 0.698134 0.473777 0.446245
O O10 0.118959 0.406479 0.332239
O O11 0.000000 0.500000 0.289393
O O12 0.010387 0.595590 0.853600
O O13 0.323244 0.904017 0.845753
O O14 0.500000 0.000000 0.941051
O O15 0.318159 0.970928 0.016892
O O16 0.119089 0.802976 0.789204
#
# Coordination Sequence:
#
# PCOD8324724 Si02
#       8
#     6   6   6   6   3   6   6   6
#     4  10  22  38  61  84 121 162 214 261 301 380
#     4  11  21  34  61  82 121 169 200 246 307 376
#     4  11  20  36  57  87 120 166 205 239 310 383
#     4  12  24  41  52  92 132 164 210 253 328 401
#     4  10  16  36  58  80 114 146 220 254 276 362
#     4  11  21  37  57  85 125 155 199 256 304 375
#     4  10  20  38  58  87 109 157 213 253 306 360
#     4  12  25  35  58  84 127 162 203 257 314 380
#
# _framework density 19.092918999999998
#
# number of rings (size 3 to 8) (size 9 to 14) (size 15 to 20)
#    0.000    1.067    4.000    4.400    1.867    4.267 
#    0.000    0.000    0.000    0.000    0.000    9.333 
#    0.000    0.000    0.000    0.000    0.000    0.000 
#
# Total GULP energy -557795.311502 kJ/mol
# GULP energy per Si atom -12395.451367 kJ/mol
# Density = 1.904946 g / cm^3
# Si number density = 19.092919 Si / 1000 Ang^3
#
#
#
# Elastic Constant Matrix: (Units=GPa)
#
#
# Indices 1 2 3 4 5 6 
#
# 1 84.0529 35.3040 28.9736 0.0000 0.0000 0.0000
# 2 35.3040 84.0529 28.9736 0.0000 0.0000 0.0000
# 3 28.9736 28.9736 109.5054 0.0000 0.0000 0.0000
# 4 0.0000 0.0000 0.0000 4.5953 0.0000 0.0000
# 5 0.0000 0.0000 0.0000 0.0000 4.5953 0.0000
# 6 0.0000 0.0000 0.0000 0.0000 0.0000 24.3745
#
#
#
# Elastic Compliance Matrix: (Units=1/GPa)
#
#
# Indices 1 2 3 4 5 6 
#
# 1 0.015063 -0.005450 -0.002543 0.000000 0.000000 0.000000
# 2 -0.005450 0.015063 -0.002543 0.000000 0.000000 0.000000
# 3 -0.002543 -0.002543 0.010478 0.000000 0.000000 0.000000
# 4 0.000000 0.000000 0.000000 0.217612 0.000000 0.000000
# 5 0.000000 0.000000 0.000000 0.000000 0.217612 0.000000
# 6 0.000000 0.000000 0.000000 0.000000 0.000000 0.041027
#
#
# Mechanical properties :
#
#
# Convention : Reuss Voigt Hill
#
# Bulk Modulus (GPa) = 51.20295 51.56820 51.38558
# Shear Modulus (GPa) = 9.18378 19.00370 14.09374
#
# Velocity S-wave (km/s) = 2.19556 3.15830 2.71987
# Velocity P-wave (km/s) = 5.77090 6.35355 6.06922
#
# Compressibility (1/GPa) = 0.01953012
#
# Stress axis : x y z
#
# Youngs Moduli (GPa) = 66.38704 66.38704 95.43886
#
# Poissons Ratio (x) = 0.36182 0.24275
# Poissons Ratio (y) = 0.36182 0.24275
# Poissons Ratio (z) = 0.16885 0.16885
#
# Static dielectric constant tensor:
#      x y z
#    x 3.519030 0.000000 0.000000 
#    y 0.000000 3.519030 0.000000 
#    z 0.000000 0.000000 3.683610 
# 
# 
# High freq. dielectric constant tensor:
#      x y z
#    x 1.720340 0.000000 0.000000 
#    y 0.000000 1.720340 0.000000 
#    z 0.000000 0.000000 1.759220 
# 
# From -- ./inp_files/2122.got.cif
#   From: 2010.03.12/outbox.cif.g09.slc.cpg/sg171_2_cif.got.tgz:2122.got - 2010.04.02 06:49:11.
