data_PCOD8324052
_publ_section_title
;
Structure prediction by ZEFSAII (Michael W. Deem and Ramdas Pophale) SiO2 
 PCOD8324052
Probable space group: R -3 M
;
_chemical_formula_sum "Si O2"
_cell_formula_units_Z 126
_cell_length_a 28.661453
_cell_length_b 28.661453
_cell_length_c 11.432288
_cell_angle_alpha 90.000000
_cell_angle_beta 90.000000
_cell_angle_gamma 120.000000
_cell_volume 8133.176458
_symmetry_space_group_name_H-M "R -3 M"
_symmetry_group_IT_number 166
_symmetry_cell_setting 'hexagonal'
loop_
_space_group_symop_operation_xyz
x,y,z
-y,x-y,z
-x+y,-x,z
x-y,-y,-z
-x,-x+y,-z
y,x,-z
-x,-y,-z
y,-x+y,-z
x-y,x,-z
-x+y,y,z
x,x-y,z
-y,-x,z
2/3+x,1/3+y,1/3+z
2/3-y,1/3+x-y,1/3+z
2/3-x+y,1/3-x,1/3+z
2/3+x-y,1/3-y,1/3-z
2/3-x,1/3-x+y,1/3-z
2/3+y,1/3+x,1/3-z
2/3-x,1/3-y,1/3-z
2/3+y,1/3-x+y,1/3-z
2/3+x-y,1/3+x,1/3-z
2/3-x+y,1/3+y,1/3+z
2/3+x,1/3+x-y,1/3+z
2/3-y,1/3-x,1/3+z
1/3+x,2/3+y,2/3+z
1/3-y,2/3+x-y,2/3+z
1/3-x+y,2/3-x,2/3+z
1/3+x-y,2/3-y,2/3-z
1/3-x,2/3-x+y,2/3-z
1/3+y,2/3+x,2/3-z
1/3-x,2/3-y,2/3-z
1/3+y,2/3-x+y,2/3-z
1/3+x-y,2/3+x,2/3-z
1/3-x+y,2/3+y,2/3+z
1/3+x,2/3+x-y,2/3+z
1/3-y,2/3-x,2/3+z
loop_
_atom_site_type_symbol
_atom_site_label
_atom_site_fract_x
_atom_site_fract_y
_atom_site_fract_z
Si Si1 0.723349 0.166718 0.793612
Si Si2 0.551980 0.550069 0.746718
Si Si3 0.082410 0.386414 0.404802
Si Si4 0.248298 0.333334 0.833334
O O1 0.770787 0.229214 0.782521
O O2 0.666667 0.162260 0.833334
O O3 0.736905 0.134532 0.892558
O O4 0.713389 0.136330 0.669573
O O5 0.496222 0.503779 0.800630
O O6 0.566909 0.605031 0.808650
O O7 0.542240 0.557213 0.610416
O O8 0.041079 0.333334 0.333334
O O9 0.050298 0.415192 0.447838
#
# Coordination Sequence:
#
# PCOD8324052 Si02
#       4
#    36  36  36  18
#     4  10  19  34  50  67  90 118 160 201 241 284
#     4  10  20  31  44  66  94 125 156 190 229 267
#     4  10  19  30  46  66  90 128 162 191 218 265
#     4  12  19  28  46  66  98 124 160 188 215 270
#
# _framework density 15.492101999999999
#
# number of rings (size 3 to 8) (size 9 to 14) (size 15 to 20)
#    0.000    1.714    2.857    3.857    4.000    3.429 
#    0.000    0.000    0.000    0.286    0.000    0.000 
#    0.000    0.000    0.000    0.000    0.000   10.571 
#
# Total GULP energy -520443.835814 kJ/mol
# GULP energy per Si atom -12391.519900 kJ/mol
# Density = 1.545684 g / cm^3
# Si number density = 15.492102 Si / 1000 Ang^3
#
#
#
# Elastic Constant Matrix: (Units=GPa)
#
#
# Indices 1 2 3 4 5 6 
#
# 1 63.1502 33.0384 15.6233 -1.0883 0.0019 0.0011
# 2 33.0384 63.1476 15.6167 1.0864 -0.0004 0.0002
# 3 15.6233 15.6167 89.3812 -0.0048 0.0036 0.0018
# 4 -1.0883 1.0864 -0.0048 17.6982 -0.0021 0.0006
# 5 0.0019 -0.0004 0.0036 -0.0021 17.6968 -1.0840
# 6 0.0011 0.0002 0.0018 0.0006 -1.0840 15.0550
#
#
#
# Elastic Compliance Matrix: (Units=1/GPa)
#
#
# Indices 1 2 3 4 5 6 
#
# 1 0.022190 -0.011169 -0.001927 0.002050 -0.000002 -0.000002
# 2 -0.011169 0.022191 -0.001925 -0.002049 0.000002 0.000001
# 3 -0.001927 -0.001925 0.011861 0.000003 -0.000002 -0.000001
# 4 0.002050 -0.002049 0.000003 0.056755 0.000006 -0.000002
# 5 -0.000002 0.000002 -0.000002 0.000006 0.056758 0.004087
# 6 -0.000002 0.000001 -0.000001 -0.000002 0.004087 0.066717
#
#
# Mechanical properties :
#
#
# Convention : Reuss Voigt Hill
#
# Bulk Modulus (GPa) = 38.16716 38.24841 38.20778
# Shear Modulus (GPa) = 18.16549 20.18338 19.17444
#
# Velocity S-wave (km/s) = 3.42799 3.61337 3.52190
# Velocity P-wave (km/s) = 6.35281 6.49239 6.42298
#
# Compressibility (1/GPa) = 0.02620054
#
# Stress axis : x y z
#
# Youngs Moduli (GPa) = 45.06447 45.06425 84.30809
#
# Poissons Ratio (x) = 0.50330 0.16248
# Poissons Ratio (y) = 0.50330 0.16230
# Poissons Ratio (z) = 0.08685 0.08675
#
# Static dielectric constant tensor:
#      x y z
#    x 2.791890 0.000000 0.000000 
#    y 0.000000 2.791890 0.000000 
#    z 0.000000 0.000000 3.098060 
# 
# 
# High freq. dielectric constant tensor:
#      x y z
#    x 1.571390 0.000000 0.000000 
#    y 0.000000 1.571390 0.000000 
#    z 0.000000 0.000000 1.609140 
# 
# From -- ./inp_files/2834.got.cif
#   From: 2010.03.12/outbox.cif.g09.slc.cpg/sg166_2_cif.got.tgz:2834.got - 2010.04.02 06:38:31.
