data_PCOD8324001
_publ_section_title
;
Structure prediction by ZEFSAII (Michael W. Deem and Ramdas Pophale) SiO2 
 PCOD8324001
Probable space group: R -3 M
;
_chemical_formula_sum "Si O2"
_cell_formula_units_Z 216
_cell_length_a 25.164579
_cell_length_b 25.164579
_cell_length_c 20.495184
_cell_angle_alpha 90.000000
_cell_angle_beta 90.000000
_cell_angle_gamma 120.000000
_cell_volume 11239.883026
_symmetry_space_group_name_H-M "R -3 M"
_symmetry_group_IT_number 166
_symmetry_cell_setting 'hexagonal'
loop_
_space_group_symop_operation_xyz
x,y,z
-y,x-y,z
-x+y,-x,z
x-y,-y,-z
-x,-x+y,-z
y,x,-z
-x,-y,-z
y,-x+y,-z
x-y,x,-z
-x+y,y,z
x,x-y,z
-y,-x,z
2/3+x,1/3+y,1/3+z
2/3-y,1/3+x-y,1/3+z
2/3-x+y,1/3-x,1/3+z
2/3+x-y,1/3-y,1/3-z
2/3-x,1/3-x+y,1/3-z
2/3+y,1/3+x,1/3-z
2/3-x,1/3-y,1/3-z
2/3+y,1/3-x+y,1/3-z
2/3+x-y,1/3+x,1/3-z
2/3-x+y,1/3+y,1/3+z
2/3+x,1/3+x-y,1/3+z
2/3-y,1/3-x,1/3+z
1/3+x,2/3+y,2/3+z
1/3-y,2/3+x-y,2/3+z
1/3-x+y,2/3-x,2/3+z
1/3+x-y,2/3-y,2/3-z
1/3-x,2/3-x+y,2/3-z
1/3+y,2/3+x,2/3-z
1/3-x,2/3-y,2/3-z
1/3+y,2/3-x+y,2/3-z
1/3+x-y,2/3+x,2/3-z
1/3-x+y,2/3+y,2/3+z
1/3+x,2/3+x-y,2/3+z
1/3-y,2/3-x,2/3+z
loop_
_atom_site_type_symbol
_atom_site_label
_atom_site_fract_x
_atom_site_fract_y
_atom_site_fract_z
Si Si1 0.902853 0.097148 0.631988
Si Si2 0.133855 0.267710 0.486780
Si Si3 0.176878 0.700773 0.988658
Si Si4 0.881633 0.539093 0.142122
Si Si5 0.030932 0.430171 0.256712
Si Si6 0.614692 0.108954 0.279680
Si Si7 0.280537 0.140269 0.747012
Si Si8 0.666667 0.677163 0.833334
O O1 0.898008 0.101993 0.553622
O O2 0.870558 0.129443 0.672097
O O3 0.974589 0.130548 0.650447
O O4 0.084827 0.273333 0.531007
O O5 0.156996 0.313992 0.425429
O O6 0.240405 0.759595 0.009256
O O7 0.172039 0.696951 0.909673
O O8 0.120281 0.707484 0.017238
O O9 0.857939 0.507935 0.212648
O O10 0.923871 0.513910 0.115874
O O11 0.922486 0.611620 0.151099
O O12 0.020102 0.365318 0.230416
O O13 0.965312 0.421233 0.277636
O O14 0.564538 0.129075 0.295411
O O15 0.666667 0.133606 0.333334
#
# Coordination Sequence:
#
# PCOD8324001 Si02
#       8
#    18  18  36  36  36  36  18  18
#     4  10  25  36  64  89 110 162 210 261 316 354
#     4  12  17  38  62  83 124 158 193 240 304 359
#     4  11  24  42  58  87 120 155 205 259 310 367
#     4  10  21  37  59  82 121 156 198 242 294 353
#     4  11  21  37  57  88 129 161 191 244 298 360
#     4  11  22  40  64  92 126 165 203 246 306 369
#     4  10  17  38  56  86 117 149 197 254 290 352
#     4  10  20  32  55  88 118 159 200 232 282 364
#
# _framework density 19.217282000000001
#
# number of rings (size 3 to 8) (size 9 to 14) (size 15 to 20)
#    0.000    1.333    5.833    1.250    4.667    0.667 
#    0.500    0.417    0.000    0.167    0.000    1.167 
#    0.000    0.000    0.000    0.000    0.000    0.000 
#
# Total GULP energy -892499.489452 kJ/mol
# GULP energy per Si atom -12395.826242 kJ/mol
# Density = 1.917354 g / cm^3
# Si number density = 19.217282 Si / 1000 Ang^3
#
#
#
# Elastic Constant Matrix: (Units=GPa)
#
#
# Indices 1 2 3 4 5 6 
#
# 1 67.9063 30.4949 34.4124 7.2644 -0.0003 0.0000
# 2 30.4949 67.9063 34.4124 -7.2644 0.0003 0.0000
# 3 34.4124 34.4124 118.6635 0.0000 0.0000 0.0000
# 4 7.2644 -7.2644 0.0000 31.8474 0.0000 0.0003
# 5 -0.0003 0.0003 0.0000 0.0000 31.8474 7.2644
# 6 0.0000 0.0000 0.0000 0.0003 7.2644 18.7057
#
#
#
# Elastic Compliance Matrix: (Units=1/GPa)
#
#
# Indices 1 2 3 4 5 6 
#
# 1 0.021038 -0.008290 -0.003697 -0.006690 0.000000 0.000000
# 2 -0.008290 0.021038 -0.003697 0.006690 0.000000 0.000000
# 3 -0.003697 -0.003697 0.010571 0.000000 0.000000 0.000000
# 4 -0.006690 0.006690 0.000000 0.034452 0.000000 0.000000
# 5 0.000000 0.000000 0.000000 0.000000 0.034452 -0.013379
# 6 0.000000 0.000000 0.000000 0.000000 -0.013379 0.058656
#
#
# Mechanical properties :
#
#
# Convention : Reuss Voigt Hill
#
# Bulk Modulus (GPa) = 46.99249 50.34618 48.66934
# Shear Modulus (GPa) = 22.86581 26.82385 24.84483
#
# Velocity S-wave (km/s) = 3.45317 3.74012 3.59951
# Velocity P-wave (km/s) = 6.35653 6.70124 6.53116
#
# Compressibility (1/GPa) = 0.02128000
#
# Stress axis : x y z
#
# Youngs Moduli (GPa) = 47.53298 47.53298 94.59445
#
# Poissons Ratio (x) = 0.39404 0.34972
# Poissons Ratio (y) = 0.39404 0.34972
# Poissons Ratio (z) = 0.17573 0.17573
#
# Static dielectric constant tensor:
#      x y z
#    x 3.335630 0.000000 0.000000 
#    y 0.000000 3.335630 0.000000 
#    z 0.000000 0.000000 3.896950 
# 
# 
# High freq. dielectric constant tensor:
#      x y z
#    x 1.728110 0.000000 0.000000 
#    y 0.000000 1.728110 0.000000 
#    z 0.000000 0.000000 1.758540 
# 
# From -- ./inp_files/8546.got.cif
#   From: 2010.03.12/outbox.cif.g09.slc.cpg/sg166_5_cif.got.tgz:8546.got - 2010.04.02 06:38:31.
