data_PCOD8324487
_publ_section_title
;
Structure prediction by ZEFSAII (Michael W. Deem and Ramdas Pophale) SiO2 
 PCOD8324487
Probable space group: P 61
;
_chemical_formula_sum "Si O2"
_cell_formula_units_Z 42
_cell_length_a 19.134078
_cell_length_b 19.134078
_cell_length_c 6.441426
_cell_angle_alpha 90.000000
_cell_angle_beta 90.000000
_cell_angle_gamma 120.000000
_cell_volume 2042.338544
_symmetry_space_group_name_H-M "P 61"
_symmetry_group_IT_number 169
_symmetry_cell_setting 'hexagonal'
loop_
_space_group_symop_operation_xyz
x,y,z
x-y,x,1/6+z
-y,x-y,1/3+z
-x,-y,1/2+z
-x+y,-x,2/3+z
y,-x+y,5/6+z
loop_
_atom_site_type_symbol
_atom_site_label
_atom_site_fract_x
_atom_site_fract_y
_atom_site_fract_z
Si Si1 0.871691 0.197893 0.281770
Si Si2 0.948292 0.430106 0.366674
Si Si3 0.374690 0.634077 0.675246
Si Si4 0.305689 0.270597 0.870690
Si Si5 0.294796 0.363487 0.504495
Si Si6 0.691615 0.529378 0.377695
Si Si7 0.384672 0.896752 0.833860
O O1 0.823834 0.102530 0.228656
O O2 0.891140 0.214224 0.527231
O O3 0.814045 0.233539 0.202081
O O4 0.955993 0.241622 0.159421
O O5 0.957111 0.371263 0.526972
O O6 0.910904 0.386589 0.149251
O O7 0.895725 0.469046 0.449757
O O8 0.039153 0.498538 0.310197
O O9 0.327815 0.615699 0.457569
O O10 0.324194 0.559708 0.833728
O O11 0.464045 0.652043 0.618949
O O12 0.304951 0.295337 0.630135
O O13 0.394305 0.319928 0.972410
O O14 0.287814 0.424174 0.660928
#
# Coordination Sequence:
#
# PCOD8324487 Si02
#       7
#     6   6   6   6   6   6   6
#     4  10  24  41  69  97 133 162 219 269 333 402
#     4  11  21  40  66  96 117 164 224 277 333 395
#     4  12  31  44  56  89 129 183 228 277 344 392
#     4  11  24  42  64 103 125 175 211 273 337 400
#     4  10  19  42  64  98 128 163 214 268 328 384
#     4  10  22  43  63  89 122 168 220 273 321 397
#     4  12  23  40  66  88 128 167 218 281 330 396
#
# _framework density 20.564661999999998
#
# number of rings (size 3 to 8) (size 9 to 14) (size 15 to 20)
#    0.000    1.143    5.714    1.714    6.000    3.429 
#    0.000    0.000    0.000    0.000    3.714    0.000 
#    0.000    0.000    0.000    0.000    0.000    0.000 
#
# Total GULP energy -520685.094107 kJ/mol
# GULP energy per Si atom -12397.264145 kJ/mol
# Density = 2.051786 g / cm^3
# Si number density = 20.564662 Si / 1000 Ang^3
#
#
#
# Elastic Constant Matrix: (Units=GPa)
#
#
# Indices 1 2 3 4 5 6 
#
# 1 91.0355 37.8788 31.6664 0.0000 0.0000 0.0000
# 2 37.8788 91.0355 31.6664 0.0000 0.0000 0.0000
# 3 31.6664 31.6664 111.0764 0.0000 0.0000 0.0000
# 4 0.0000 0.0000 0.0000 27.8836 0.0000 0.0000
# 5 0.0000 0.0000 0.0000 0.0000 27.8836 0.0000
# 6 0.0000 0.0000 0.0000 0.0000 0.0000 26.5783
#
#
#
# Elastic Compliance Matrix: (Units=1/GPa)
#
#
# Indices 1 2 3 4 5 6 
#
# 1 0.013916 -0.004896 -0.002572 0.000000 0.000000 0.000000
# 2 -0.004896 0.013916 -0.002572 0.000000 0.000000 0.000000
# 3 -0.002572 -0.002572 0.010469 0.000000 0.000000 0.000000
# 4 0.000000 0.000000 0.000000 0.035863 0.000000 0.000000
# 5 0.000000 0.000000 0.000000 0.000000 0.035863 0.000000
# 6 0.000000 0.000000 0.000000 0.000000 0.000000 0.037625
#
#
# Mechanical properties :
#
#
# Convention : Reuss Voigt Hill
#
# Bulk Modulus (GPa) = 54.87402 55.06339 54.96870
# Shear Modulus (GPa) = 28.76768 29.26481 29.01625
#
# Velocity S-wave (km/s) = 3.74423 3.77644 3.76037
# Velocity P-wave (km/s) = 6.74047 6.77121 6.75585
#
# Compressibility (1/GPa) = 0.01822356
#
# Stress axis : x y z
#
# Youngs Moduli (GPa) = 71.85769 71.85769 95.51939
#
# Poissons Ratio (x) = 0.35181 0.24564
# Poissons Ratio (y) = 0.35181 0.24564
# Poissons Ratio (z) = 0.18479 0.18479
#
# Static dielectric constant tensor:
#      x y z
#    x 3.631070 0.000000 0.000000 
#    y 0.000000 3.631070 0.000000 
#    z 0.000000 0.000000 4.063060 
# 
# 
# High freq. dielectric constant tensor:
#      x y z
#    x 1.782190 0.000000 0.000000 
#    y 0.000000 1.782190 0.000000 
#    z 0.000000 0.000000 1.821300 
# 
# From -- ./inp_files/299.got.cif
#   From: 2010.03.12/outbox.cif.g09.slc.cpg/sg169_cif.got.tgz:299.got - 2010.04.02 06:46:06.
