data_PCOD8324468
_publ_section_title
;
Structure prediction by ZEFSAII (Michael W. Deem and Ramdas Pophale) SiO2 
 PCOD8324468
Probable space group: P 61
;
_chemical_formula_sum "Si O2"
_cell_formula_units_Z 30
_cell_length_a 19.301243
_cell_length_b 19.301243
_cell_length_c 4.829952
_cell_angle_alpha 90.000000
_cell_angle_beta 90.000000
_cell_angle_gamma 120.000000
_cell_volume 1558.274642
_symmetry_space_group_name_H-M "P 61"
_symmetry_group_IT_number 169
_symmetry_cell_setting 'hexagonal'
loop_
_space_group_symop_operation_xyz
x,y,z
x-y,x,1/6+z
-y,x-y,1/3+z
-x,-y,1/2+z
-x+y,-x,2/3+z
y,-x+y,5/6+z
loop_
_atom_site_type_symbol
_atom_site_label
_atom_site_fract_x
_atom_site_fract_y
_atom_site_fract_z
Si Si1 0.858272 0.564880 0.495570
Si Si2 0.673245 0.915413 0.813362
Si Si3 0.762991 0.089864 0.671308
Si Si4 0.527328 0.055171 0.044278
Si Si5 0.563481 0.860108 0.321434
O O1 0.910661 0.641878 0.694179
O O2 0.888623 0.501564 0.523202
O O3 0.761992 0.526076 0.537475
O O4 0.873064 0.592117 0.179246
O O5 0.711243 0.858771 0.867079
O O6 0.642757 0.904500 0.501756
O O7 0.743889 0.006805 0.812821
O O8 0.596882 0.891983 0.012914
O O9 0.469712 0.999419 0.292835
O O10 0.499724 0.113856 0.912586
#
# Coordination Sequence:
#
# PCOD8324468 Si02
#       5
#     6   6   6   6   6
#     4  10  21  35  53  76 106 137 174 217 267 314
#     4  10  19  33  53  78 105 134 169 214 262 312
#     4  10  19  33  53  78 105 134 169 214 262 312
#     4  12  22  34  58  82 104 138 184 226 268 316
#     4  10  21  35  53  76 106 137 174 217 267 314
#
# _framework density 19.252064000000001
#
# number of rings (size 3 to 8) (size 9 to 14) (size 15 to 20)
#    0.000    1.600    0.000    7.200    0.000    0.000 
#    0.000    0.000   17.600    0.000    0.000    8.400 
#    0.000    0.000    0.000    0.000    0.000    0.000 
#
# Total GULP energy -371728.810367 kJ/mol
# GULP energy per Si atom -12390.960346 kJ/mol
# Density = 1.920825 g / cm^3
# Si number density = 19.252064 Si / 1000 Ang^3
#
#
#
# Elastic Constant Matrix: (Units=GPa)
#
#
# Indices 1 2 3 4 5 6 
#
# 1 129.0539 71.5781 21.6655 0.0000 0.0000 0.0000
# 2 71.5781 129.0539 21.6655 0.0000 0.0000 0.0000
# 3 21.6655 21.6655 72.0748 0.0000 0.0000 0.0000
# 4 0.0000 0.0000 0.0000 25.3550 0.0000 0.0000
# 5 0.0000 0.0000 0.0000 0.0000 25.3550 0.0000
# 6 0.0000 0.0000 0.0000 0.0000 0.0000 28.7379
#
#
#
# Elastic Compliance Matrix: (Units=1/GPa)
#
#
# Indices 1 2 3 4 5 6 
#
# 1 0.011364 -0.006034 -0.001602 0.000000 0.000000 0.000000
# 2 -0.006034 0.011364 -0.001602 0.000000 0.000000 0.000000
# 3 -0.001602 -0.001602 0.014838 0.000000 0.000000 0.000000
# 4 0.000000 0.000000 0.000000 0.039440 0.000000 0.000000
# 5 0.000000 0.000000 0.000000 0.000000 0.039440 0.000000
# 6 0.000000 0.000000 0.000000 0.000000 0.000000 0.034797
#
#
# Mechanical properties :
#
#
# Convention : Reuss Voigt Hill
#
# Bulk Modulus (GPa) = 52.38550 62.22231 57.30390
# Shear Modulus (GPa) = 28.39548 30.24115 29.31831
#
# Velocity S-wave (km/s) = 3.84465 3.96763 3.90663
# Velocity P-wave (km/s) = 6.85404 7.30612 7.08369
#
# Compressibility (1/GPa) = 0.01908925
#
# Stress axis : x y z
#
# Youngs Moduli (GPa) = 87.99368 87.99368 67.39569
#
# Poissons Ratio (x) = 0.53097 0.10799
# Poissons Ratio (y) = 0.53097 0.10799
# Poissons Ratio (z) = 0.14099 0.14099
#
# Static dielectric constant tensor:
#      x y z
#    x 3.487580 0.000000 0.000000 
#    y 0.000000 3.487580 0.000000 
#    z 0.000000 0.000000 3.762320 
# 
# 
# High freq. dielectric constant tensor:
#      x y z
#    x 1.725640 0.000000 0.000000 
#    y 0.000000 1.725640 0.000000 
#    z 0.000000 0.000000 1.776700 
# 
# From -- ./inp_files/177.got.cif
#   From: 2010.03.12/outbox.cif.g09.slc.cpg/sg169_cif.got.tgz:177.got - 2010.04.02 06:46:06.
