data_PCOD8324154
_publ_section_title
;
Structure prediction by ZEFSAII (Michael W. Deem and Ramdas Pophale) SiO2 
 PCOD8324154
Probable space group: R -3 M
;
_chemical_formula_sum "Si O2"
_cell_formula_units_Z 216
_cell_length_a 23.352707
_cell_length_b 23.352707
_cell_length_c 24.492475
_cell_angle_alpha 90.000000
_cell_angle_beta 90.000000
_cell_angle_gamma 120.000000
_cell_volume 11567.453594
_symmetry_space_group_name_H-M "R -3 M"
_symmetry_group_IT_number 166
_symmetry_cell_setting 'hexagonal'
loop_
_space_group_symop_operation_xyz
x,y,z
-y,x-y,z
-x+y,-x,z
x-y,-y,-z
-x,-x+y,-z
y,x,-z
-x,-y,-z
y,-x+y,-z
x-y,x,-z
-x+y,y,z
x,x-y,z
-y,-x,z
2/3+x,1/3+y,1/3+z
2/3-y,1/3+x-y,1/3+z
2/3-x+y,1/3-x,1/3+z
2/3+x-y,1/3-y,1/3-z
2/3-x,1/3-x+y,1/3-z
2/3+y,1/3+x,1/3-z
2/3-x,1/3-y,1/3-z
2/3+y,1/3-x+y,1/3-z
2/3+x-y,1/3+x,1/3-z
2/3-x+y,1/3+y,1/3+z
2/3+x,1/3+x-y,1/3+z
2/3-y,1/3-x,1/3+z
1/3+x,2/3+y,2/3+z
1/3-y,2/3+x-y,2/3+z
1/3-x+y,2/3-x,2/3+z
1/3+x-y,2/3-y,2/3-z
1/3-x,2/3-x+y,2/3-z
1/3+y,2/3+x,2/3-z
1/3-x,2/3-y,2/3-z
1/3+y,2/3-x+y,2/3-z
1/3+x-y,2/3+x,2/3-z
1/3-x+y,2/3+y,2/3+z
1/3+x,2/3+x-y,2/3+z
1/3-y,2/3-x,2/3+z
loop_
_atom_site_type_symbol
_atom_site_label
_atom_site_fract_x
_atom_site_fract_y
_atom_site_fract_z
Si Si1 0.480188 0.090736 0.974652
Si Si2 0.829904 0.170097 0.245175
Si Si3 0.775632 0.551264 0.153152
Si Si4 0.613724 0.687719 0.728459
Si Si5 0.370054 0.081144 0.585553
Si Si6 0.703232 0.542348 0.486214
Si Si7 0.200772 0.667214 0.105458
O O1 0.552811 0.105621 0.991399
O O2 0.482666 0.148287 0.937348
O O3 0.446666 0.024813 0.937876
O O4 0.441183 0.087706 0.029855
O O5 0.807408 0.192593 0.191475
O O6 0.870154 0.129847 0.236888
O O7 0.873931 0.235726 0.278752
O O8 0.696411 0.505317 0.160770
O O9 0.607283 0.666667 0.666667
O O10 0.671275 0.680698 0.759176
O O11 0.545700 0.645850 0.762416
O O12 0.401236 0.124033 0.531508
O O13 0.763972 0.527944 0.478101
O O14 0.212506 0.606253 0.097396
O O15 0.268436 0.731565 0.092245
O O16 0.174939 0.666667 0.166667
#
# Coordination Sequence:
#
# PCOD8324154 Si02
#       7
#    36  18  18  36  36  36  36
#     4  10  20  35  53  77 116 161 196 235 285 337
#     4   9  18  36  62  80 113 154 199 235 280 350
#     4   9  18  38  62  86 108 155 196 231 287 352
#     4  11  22  38  60  89 119 154 193 240 291 349
#     4  11  20  38  57  84 114 155 197 232 283 344
#     4  11  23  39  63  91 117 149 192 244 295 348
#     4   9  18  34  55  79 110 152 199 242 284 331
#
# _framework density 18.673081
#
# number of rings (size 3 to 8) (size 9 to 14) (size 15 to 20)
#    0.000    1.833    3.333    2.667    1.167    2.000 
#    3.500    2.500    0.000    0.000    0.000    0.583 
#    0.000    0.000    0.000    0.000    0.000    0.000 
#
# Total GULP energy -892372.081647 kJ/mol
# GULP energy per Si atom -12394.056690 kJ/mol
# Density = 1.863058 g / cm^3
# Si number density = 18.673081 Si / 1000 Ang^3
#
#
#
# Elastic Constant Matrix: (Units=GPa)
#
#
# Indices 1 2 3 4 5 6 
#
# 1 -10.3775 131.9276 25.4965 6.6271 -0.0079 0.0000
# 2 131.9276 -10.3775 25.4965 -6.6271 0.0079 0.0000
# 3 25.4965 25.4965 47.7198 0.0000 0.0000 0.0000
# 4 6.6271 -6.6271 0.0000 31.0840 0.0000 0.0079
# 5 -0.0079 0.0079 0.0000 0.0000 31.0840 6.6271
# 6 0.0000 0.0000 0.0000 0.0079 6.6271 -71.1525
#
#
#
# Elastic Compliance Matrix: (Units=1/GPa)
#
#
# Indices 1 2 3 4 5 6 
#
# 1 0.001857 0.008747 -0.005666 0.001469 -0.000002 0.000000
# 2 0.008747 0.001857 -0.005666 -0.001469 0.000002 0.000000
# 3 -0.005666 -0.005666 0.027010 0.000000 0.000000 0.000000
# 4 0.001469 -0.001469 0.000000 0.031544 0.000000 0.000004
# 5 -0.000002 0.000002 0.000000 0.000000 0.031544 0.002938
# 6 0.000000 0.000000 0.000000 0.000004 0.002938 -0.013781
#
#
# Mechanical properties :
#
#
# Convention : Reuss Voigt Hill
#
# Bulk Modulus (GPa) = 39.13095 43.64513 41.38804
# Shear Modulus (GPa) = 53.35120 -12.19395 20.57863
#
# Velocity S-wave (km/s) = 5.35100 -2.55820 3.32331
# Velocity P-wave (km/s) = 7.69278 3.83382 6.07771
#
# Compressibility (1/GPa) = 0.02555522
#
# Stress axis : x y z
#
# Youngs Moduli (GPa) = 538.56184 538.56183 37.02338
#
# Poissons Ratio (x) = -4.71087 0.20976
# Poissons Ratio (y) = -4.71087 0.20976
# Poissons Ratio (z) = 3.05130 3.05130
#
# Static dielectric constant tensor:
#      x y z
#    x 3.529200 0.000000 0.000000 
#    y 0.000000 3.529200 0.000000 
#    z 0.000000 0.000000 3.417720 
# 
# 
# High freq. dielectric constant tensor:
#      x y z
#    x 1.719120 0.000000 0.000000 
#    y 0.000000 1.719120 0.000000 
#    z 0.000000 0.000000 1.721500 
# 
# From -- ./inp_files/8515.got.cif
#   From: 2010.03.12/outbox.cif.g09.slc.cpg/sg166_5_cif.got.tgz:8515.got - 2010.04.02 06:38:31.
