data_PCOD8324424
_publ_section_title
;
Structure prediction by ZEFSAII (Michael W. Deem and Ramdas Pophale) SiO2 
 PCOD8324424
Probable space group: R -3 C 
;
_chemical_formula_sum "Si O2"
_cell_formula_units_Z 84
_cell_length_a 16.179968
_cell_length_b 16.179968
_cell_length_c 14.445527
_cell_angle_alpha 90.000000
_cell_angle_beta 90.000000
_cell_angle_gamma 120.000000
_cell_volume 3275.060588
_symmetry_space_group_name_H-M "R -3 C "
_symmetry_group_IT_number 167
_symmetry_cell_setting 'hexagonal'
loop_
_space_group_symop_operation_xyz
x,y,z
-y,x-y,z
-x+y,-x,z
x-y,-y,1/2-z
-x,-x+y,1/2-z
y,x,1/2-z
-x,-y,-z
y,-x+y,-z
x-y,x,-z
-x+y,y,1/2+z
x,x-y,1/2+z
-y,-x,1/2+z
2/3+x,1/3+y,1/3+z
2/3-y,1/3+x-y,1/3+z
2/3-x+y,1/3-x,1/3+z
2/3+x-y,1/3-y,5/6-z
2/3-x,1/3-x+y,5/6-z
2/3+y,1/3+x,5/6-z
2/3-x,1/3-y,1/3-z
2/3+y,1/3-x+y,1/3-z
2/3+x-y,1/3+x,1/3-z
2/3-x+y,1/3+y,5/6+z
2/3+x,1/3+x-y,5/6+z
2/3-y,1/3-x,5/6+z
1/3+x,2/3+y,2/3+z
1/3-y,2/3+x-y,2/3+z
1/3-x+y,2/3-x,2/3+z
1/3+x-y,2/3-y,1/6-z
1/3-x,2/3-x+y,1/6-z
1/3+y,2/3+x,1/6-z
1/3-x,2/3-y,2/3-z
1/3+y,2/3-x+y,2/3-z
1/3+x-y,2/3+x,2/3-z
1/3-x+y,2/3+y,1/6+z
1/3+x,2/3+x-y,1/6+z
1/3-y,2/3-x,1/6+z
loop_
_atom_site_type_symbol
_atom_site_label
_atom_site_fract_x
_atom_site_fract_y
_atom_site_fract_z
Si Si1 0.536620 0.831091 0.514538
Si Si2 0.333334 0.666667 0.058564
Si Si3 0.331572 0.079700 0.817519
O O1 0.544322 0.877656 0.416667
O O2 0.441059 0.729326 0.522703
O O3 0.629968 0.819976 0.512897
O O4 0.539884 0.899134 0.599160
O O5 0.333335 0.666668 0.166667
O O6 0.253643 0.000000 0.750000
O O7 0.333334 0.031947 0.916667
#
# Coordination Sequence:
#
# PCOD8324424 Si02
#       3
#    36  12  36
#     4  12  26  47  76 113 157 213 275 343 417 504
#     4  12  25  44  73 114 163 218 278 344 418 504
#     4  12  27  49  76 111 155 209 273 343 418 504
#
# _framework density 25.648382000000002
#
# number of rings (size 3 to 8) (size 9 to 14) (size 15 to 20)
#    0.000    0.000    0.000   10.286    0.000    6.857 
#    0.000    0.000    0.000    0.000    0.000    0.000 
#    0.000    0.000    0.000    0.000    0.000    0.000 
#
# Total GULP energy -346931.380998 kJ/mol
# GULP energy per Si atom -12390.406464 kJ/mol
# Density = 2.559000 g / cm^3
# Si number density = 25.648382 Si / 1000 Ang^3
#
#
#
# Elastic Constant Matrix: (Units=GPa)
#
#
# Indices 1 2 3 4 5 6 
#
# 1 139.0911 68.4728 56.6005 -6.1337 -0.0002 0.0000
# 2 68.4728 139.0907 56.6010 6.1336 0.0002 0.0000
# 3 56.6005 56.6010 247.1772 0.0003 0.0000 0.0000
# 4 -6.1337 6.1336 0.0003 25.1322 0.0000 0.0002
# 5 -0.0002 0.0002 0.0000 0.0000 25.1297 -6.1325
# 6 0.0000 0.0000 0.0000 0.0002 -6.1325 35.3089
#
#
#
# Elastic Compliance Matrix: (Units=1/GPa)
#
#
# Indices 1 2 3 4 5 6 
#
# 1 0.010146 -0.004641 -0.001261 0.003609 0.000000 0.000000
# 2 -0.004641 0.010146 -0.001261 -0.003609 0.000000 0.000000
# 3 -0.001261 -0.001261 0.004623 0.000000 0.000000 0.000000
# 4 0.003609 -0.003609 0.000000 0.041551 0.000000 0.000000
# 5 0.000000 0.000000 0.000000 0.000000 0.041555 0.007217
# 6 0.000000 0.000000 0.000000 0.000000 0.007217 0.029575
#
#
# Mechanical properties :
#
#
# Convention : Reuss Voigt Hill
#
# Bulk Modulus (GPa) = 94.41913 98.74529 96.58221
# Shear Modulus (GPa) = 32.16424 40.02648 36.09536
#
# Velocity S-wave (km/s) = 3.54509 3.95471 3.75549
# Velocity P-wave (km/s) = 7.32460 7.70949 7.51950
#
# Compressibility (1/GPa) = 0.01059107
#
# Stress axis : x y z
#
# Youngs Moduli (GPa) = 98.55674 98.55626 216.30812
#
# Poissons Ratio (x) = 0.45741 0.27269
# Poissons Ratio (y) = 0.45741 0.27269
# Poissons Ratio (z) = 0.12424 0.12425
#
# Static dielectric constant tensor:
#      x y z
#    x 4.899780 0.000000 0.000000 
#    y 0.000000 4.900080 -0.000180 
#    z 0.000000 -0.000180 -0.977080 
# 
# 
# High freq. dielectric constant tensor:
#      x y z
#    x 2.028220 0.000000 0.000000 
#    y 0.000000 2.028220 0.000000 
#    z 0.000000 0.000000 2.066690 
# 
# From -- ./inp_files/1849.got.cif
#   From: 2010.03.12/outbox.cif.g09.slc.cpg/sg167_1_cif.got.tgz:1849.got - 2010.04.02 06:42:56.
