data_PCOD8324254
_publ_section_title
;
Structure prediction by ZEFSAII (Michael W. Deem and Ramdas Pophale) SiO2 
 PCOD8324254
Probable space group: R -3 M
;
_chemical_formula_sum "Si O2"
_cell_formula_units_Z 162
_cell_length_a 20.778199
_cell_length_b 20.778199
_cell_length_c 21.890806
_cell_angle_alpha 90.000000
_cell_angle_beta 90.000000
_cell_angle_gamma 120.000000
_cell_volume 8184.802166
_symmetry_space_group_name_H-M "R -3 M"
_symmetry_group_IT_number 166
_symmetry_cell_setting 'hexagonal'
loop_
_space_group_symop_operation_xyz
x,y,z
-y,x-y,z
-x+y,-x,z
x-y,-y,-z
-x,-x+y,-z
y,x,-z
-x,-y,-z
y,-x+y,-z
x-y,x,-z
-x+y,y,z
x,x-y,z
-y,-x,z
2/3+x,1/3+y,1/3+z
2/3-y,1/3+x-y,1/3+z
2/3-x+y,1/3-x,1/3+z
2/3+x-y,1/3-y,1/3-z
2/3-x,1/3-x+y,1/3-z
2/3+y,1/3+x,1/3-z
2/3-x,1/3-y,1/3-z
2/3+y,1/3-x+y,1/3-z
2/3+x-y,1/3+x,1/3-z
2/3-x+y,1/3+y,1/3+z
2/3+x,1/3+x-y,1/3+z
2/3-y,1/3-x,1/3+z
1/3+x,2/3+y,2/3+z
1/3-y,2/3+x-y,2/3+z
1/3-x+y,2/3-x,2/3+z
1/3+x-y,2/3-y,2/3-z
1/3-x,2/3-x+y,2/3-z
1/3+y,2/3+x,2/3-z
1/3-x,2/3-y,2/3-z
1/3+y,2/3-x+y,2/3-z
1/3+x-y,2/3+x,2/3-z
1/3-x+y,2/3+y,2/3+z
1/3+x,2/3+x-y,2/3+z
1/3-y,2/3-x,2/3+z
loop_
_atom_site_type_symbol
_atom_site_label
_atom_site_fract_x
_atom_site_fract_y
_atom_site_fract_z
Si Si1 0.518119 0.332314 0.215477
Si Si2 0.072595 0.397141 0.462761
Si Si3 0.474097 0.095735 0.891067
Si Si4 0.333334 0.894786 0.666667
Si Si5 0.120816 0.730432 0.000478
O O1 0.527878 0.263939 0.193928
O O2 0.597770 0.402230 0.229950
O O3 0.479345 0.352128 0.161350
O O4 0.469182 0.308344 0.276692
O O5 0.078411 0.323375 0.460360
O O6 0.068531 0.421981 0.395035
O O7 0.000000 0.383868 0.500000
O O8 0.555275 0.110550 0.907455
O O9 0.479422 0.146089 0.833334
O O10 0.445030 0.119596 0.949318
O O11 0.264281 0.903463 0.643729
O O12 0.204553 0.795448 0.990849
#
# Coordination Sequence:
#
# PCOD8324254 Si02
#       5
#    36  36  36  18  36
#     4  12  25  40  59  85 122 165 206 249 302 373
#     4  11  22  40  63  95 123 163 209 263 322 373
#     4  11  23  42  66  96 129 163 213 270 327 382
#     4  12  22  40  62  90 120 160 208 258 312 352
#     4  12  23  40  65  96 130 163 207 260 319 382
#
# _framework density 19.792781000000002
#
# number of rings (size 3 to 8) (size 9 to 14) (size 15 to 20)
#    0.000    0.444    4.444    5.556    0.000    3.556 
#    0.000    1.111    0.000    4.000    0.000    0.000 
#    0.000    0.000    0.000    0.000    0.000    0.000 
#
# Total GULP energy -670052.129900 kJ/mol
# GULP energy per Si atom -12408.372776 kJ/mol
# Density = 1.974773 g / cm^3
# Si number density = 19.792781 Si / 1000 Ang^3
#
#
#
# Elastic Constant Matrix: (Units=GPa)
#
#
# Indices 1 2 3 4 5 6 
#
# 1 59.2023 25.0106 -2.9296 2.9304 0.0001 0.0000
# 2 25.0106 59.2023 -2.9296 -2.9304 -0.0001 0.0000
# 3 -2.9296 -2.9296 82.4099 0.0000 0.0000 0.0000
# 4 2.9304 -2.9304 0.0000 19.5066 0.0000 -0.0001
# 5 0.0001 -0.0001 0.0000 0.0000 19.5066 2.9304
# 6 0.0000 0.0000 0.0000 -0.0001 2.9304 17.0959
#
#
#
# Elastic Compliance Matrix: (Units=1/GPa)
#
#
# Indices 1 2 3 4 5 6 
#
# 1 0.020962 -0.009058 0.000423 -0.004510 0.000000 0.000000
# 2 -0.009058 0.020962 0.000423 0.004510 0.000000 0.000000
# 3 0.000423 0.000423 0.012165 0.000000 0.000000 0.000000
# 4 -0.004510 0.004510 0.000000 0.052620 0.000000 0.000000
# 5 0.000000 0.000000 0.000000 0.000000 0.052620 -0.009020
# 6 0.000000 0.000000 0.000000 0.000000 -0.009020 0.060040
#
#
# Mechanical properties :
#
#
# Convention : Reuss Voigt Hill
#
# Bulk Modulus (GPa) = 26.54948 26.56857 26.55902
# Shear Modulus (GPa) = 20.13322 23.33270 21.73296
#
# Velocity S-wave (km/s) = 3.19282 3.43716 3.31724
# Velocity P-wave (km/s) = 5.19951 5.40413 5.30281
#
# Compressibility (1/GPa) = 0.03766552
#
# Stress axis : x y z
#
# Youngs Moduli (GPa) = 47.70542 47.70542 82.20605
#
# Poissons Ratio (x) = 0.43211 -0.03479
# Poissons Ratio (y) = 0.43211 -0.03479
# Poissons Ratio (z) = -0.02019 -0.02019
#
# Static dielectric constant tensor:
#      x y z
#    x 3.608640 0.000000 0.000000 
#    y 0.000000 3.608640 0.000000 
#    z 0.000000 0.000000 3.492840 
# 
# 
# High freq. dielectric constant tensor:
#      x y z
#    x 1.768280 0.000000 0.000000 
#    y 0.000000 1.768280 0.000000 
#    z 0.000000 0.000000 1.783630 
# 
# From -- ./inp_files/6738.got.cif
#   From: 2010.03.12/outbox.cif.g09.slc.cpg/sg166_4_cif.got.tgz:6738.got - 2010.04.02 06:38:31.
