data_PCOD8324797
_publ_section_title
;
Structure prediction by ZEFSAII (Michael W. Deem and Ramdas Pophale) SiO2 
 PCOD8324797
Probable space group: P 62
;
_chemical_formula_sum "Si O2"
_cell_formula_units_Z 48
_cell_length_a 11.609768
_cell_length_b 11.609768
_cell_length_c 19.884795
_cell_angle_alpha 90.000000
_cell_angle_beta 90.000000
_cell_angle_gamma 120.000000
_cell_volume 2321.126619
_symmetry_space_group_name_H-M "P 62"
_symmetry_group_IT_number 171
_symmetry_cell_setting 'hexagonal'
loop_
_space_group_symop_operation_xyz
x,y,z
x-y,x,1/3+z
-y,x-y,2/3+z
-x,-y,z
-x+y,-x,1/3+z
y,-x+y,2/3+z
loop_
_atom_site_type_symbol
_atom_site_label
_atom_site_fract_x
_atom_site_fract_y
_atom_site_fract_z
Si Si1 0.790018 0.325037 0.722640
Si Si2 0.104855 0.254328 0.845174
Si Si3 0.914483 0.779471 0.597439
Si Si4 0.530146 0.390974 0.527159
Si Si5 0.142045 0.229194 0.391263
Si Si6 0.317713 0.790314 0.925780
Si Si7 0.150402 0.255752 0.141796
Si Si8 0.393339 0.532774 0.122925
O O1 0.865489 0.415341 0.786466
O O2 0.826370 0.210795 0.706281
O O3 0.828361 0.418700 0.657860
O O4 0.634160 0.254476 0.740017
O O5 0.170779 0.410055 0.860037
O O6 0.216207 0.218807 0.821045
O O7 0.021160 0.168730 0.910182
O O8 0.998636 0.223667 0.787653
O O9 0.820955 0.621706 0.607168
O O10 0.992098 0.850164 0.664817
O O11 0.018603 0.796543 0.541218
O O12 0.500000 0.500000 0.560288
O O13 0.635274 0.381318 0.575395
O O14 0.986782 0.164261 0.411137
O O15 0.405315 0.867545 0.861353
O O16 0.242630 0.412354 0.129490
O O17 0.500000 0.500000 0.088792
#
# Coordination Sequence:
#
# PCOD8324797 Si02
#       8
#     6   6   6   6   6   6   6   6
#     4  11  23  38  65 100 121 165 239 272 318 398
#     4  11  23  40  62  93 130 170 209 267 338 401
#     4  11  21  37  64  95 123 161 216 273 322 392
#     4  11  20  43  65  88 131 175 215 274 337 390
#     4  11  21  37  64  95 123 161 216 273 322 392
#     4  11  23  38  65 100 121 165 239 272 318 398
#     4  11  23  40  62  93 130 170 209 267 338 401
#     4  11  20  43  65  88 131 175 215 274 337 390
#
# _framework density 20.679614000000001
#
# number of rings (size 3 to 8) (size 9 to 14) (size 15 to 20)
#    0.000    1.000    5.000    4.500    0.000    2.000 
#    4.500    2.500    0.000    0.000    0.000    0.000 
#    0.000    0.000    0.000    0.000    0.000    0.000 
#
# Total GULP energy -595182.426497 kJ/mol
# GULP energy per Si atom -12399.633885 kJ/mol
# Density = 2.063255 g / cm^3
# Si number density = 20.679614 Si / 1000 Ang^3
#
#
#
# Elastic Constant Matrix: (Units=GPa)
#
#
# Indices 1 2 3 4 5 6 
#
# 1 98.6434 34.5664 -4.0307 0.0000 0.0000 0.0000
# 2 34.5664 98.6434 -4.0307 0.0000 0.0000 0.0000
# 3 -4.0307 -4.0307 63.0641 0.0000 0.0000 0.0000
# 4 0.0000 0.0000 0.0000 21.4287 0.0000 0.0000
# 5 0.0000 0.0000 0.0000 0.0000 21.4287 0.0000
# 6 0.0000 0.0000 0.0000 0.0000 0.0000 32.0385
#
#
#
# Elastic Compliance Matrix: (Units=1/GPa)
#
#
# Indices 1 2 3 4 5 6 
#
# 1 0.011571 -0.004035 0.000482 0.000000 0.000000 0.000000
# 2 -0.004035 0.011571 0.000482 0.000000 0.000000 0.000000
# 3 0.000482 0.000482 0.015918 0.000000 0.000000 0.000000
# 4 0.000000 0.000000 0.000000 0.046666 0.000000 0.000000
# 5 0.000000 0.000000 0.000000 0.000000 0.046666 0.000000
# 6 0.000000 0.000000 0.000000 0.000000 0.000000 0.031212
#
#
# Mechanical properties :
#
#
# Convention : Reuss Voigt Hill
#
# Bulk Modulus (GPa) = 30.37913 34.81787 32.59850
# Shear Modulus (GPa) = 27.66683 30.56892 29.11788
#
# Velocity S-wave (km/s) = 3.66167 3.84893 3.75647
# Velocity P-wave (km/s) = 5.70959 6.05192 5.88324
#
# Compressibility (1/GPa) = 0.03291734
#
# Stress axis : x y z
#
# Youngs Moduli (GPa) = 86.42181 86.42181 62.82016
#
# Poissons Ratio (x) = 0.34872 -0.03026
# Poissons Ratio (y) = 0.34872 -0.03026
# Poissons Ratio (z) = -0.04163 -0.04163
#
# Static dielectric constant tensor:
#      x y z
#    x 3.738920 0.000000 0.000000 
#    y 0.000000 3.738920 0.000000 
#    z 0.000000 0.000000 3.850760 
# 
# 
# High freq. dielectric constant tensor:
#      x y z
#    x 1.809420 0.000000 0.000000 
#    y 0.000000 1.809420 0.000000 
#    z 0.000000 0.000000 1.796430 
# 
# From -- ./inp_files/5220.got.cif
#   From: 2010.03.12/outbox.cif.g09.slc.cpg/sg171_3_cif.got.tgz:5220.got - 2010.04.02 06:49:11.
