data_PCOD8324785
_publ_section_title
;
Structure prediction by ZEFSAII (Michael W. Deem and Ramdas Pophale) SiO2 
 PCOD8324785
Probable space group: P 62
;
_chemical_formula_sum "Si O2"
_cell_formula_units_Z 42
_cell_length_a 14.505771
_cell_length_b 14.505771
_cell_length_c 10.429175
_cell_angle_alpha 90.000000
_cell_angle_beta 90.000000
_cell_angle_gamma 120.000000
_cell_volume 1900.475261
_symmetry_space_group_name_H-M "P 62"
_symmetry_group_IT_number 171
_symmetry_cell_setting 'hexagonal'
loop_
_space_group_symop_operation_xyz
x,y,z
x-y,x,1/3+z
-y,x-y,2/3+z
-x,-y,z
-x+y,-x,1/3+z
y,-x+y,2/3+z
loop_
_atom_site_type_symbol
_atom_site_label
_atom_site_fract_x
_atom_site_fract_y
_atom_site_fract_z
Si Si1 0.236196 0.920116 0.010950
Si Si2 0.952877 0.566918 0.115325
Si Si3 0.048687 0.795252 0.212243
Si Si4 0.521368 0.288980 0.190020
Si Si5 0.729739 0.908813 0.834919
Si Si6 0.496242 0.747215 0.905426
Si Si7 0.047017 0.614129 0.838039
O O1 0.130907 0.856839 0.097323
O O2 0.327838 0.018850 0.091012
O O3 0.280991 0.846312 0.958200
O O4 0.209027 0.970236 0.887622
O O5 0.824721 0.495183 0.126412
O O6 0.000000 0.500000 0.178423
O O7 0.000048 0.670127 0.201381
O O8 0.983698 0.594680 0.969183
O O9 0.105883 0.830184 0.348523
O O10 0.943165 0.805648 0.212399
O O11 0.634033 0.389506 0.232033
O O12 0.512346 0.172709 0.193367
O O13 0.500784 0.305175 0.042086
O O14 0.608311 0.856892 0.888947
O O15 0.000000 0.500000 0.767514
#
# Coordination Sequence:
#
# PCOD8324785 Si02
#       7
#     6   6   6   6   6   6   6
#     4  12  24  45  75  97 153 186 234 310 362 431
#     4  10  23  42  67 101 137 184 232 289 355 427
#     4  11  25  46  74 103 140 196 240 301 375 430
#     4  12  26  45  72 106 141 188 240 292 368 430
#     4  11  26  47  72 107 144 188 248 302 367 448
#     4  11  26  44  67 106 144 180 239 294 354 435
#     4  11  24  44  69 103 140 187 240 284 363 435
#
# _framework density 22.099734999999999
#
# number of rings (size 3 to 8) (size 9 to 14) (size 15 to 20)
#    0.000    0.857    2.857    4.286    6.000    1.143 
#    0.000    2.143    0.000    0.000    0.000    0.000 
#    0.000    0.000    0.000    0.000    0.000    0.000 
#
# Total GULP energy -520406.381005 kJ/mol
# GULP energy per Si atom -12390.628119 kJ/mol
# Density = 2.204944 g / cm^3
# Si number density = 22.099735 Si / 1000 Ang^3
#
#
#
# Elastic Constant Matrix: (Units=GPa)
#
#
# Indices 1 2 3 4 5 6 
#
# 1 114.2633 65.5576 38.3304 0.0000 0.0000 0.0000
# 2 65.5576 114.2633 38.3304 0.0000 0.0000 0.0000
# 3 38.3304 38.3304 103.6272 0.0000 0.0000 0.0000
# 4 0.0000 0.0000 0.0000 15.1307 0.0000 0.0000
# 5 0.0000 0.0000 0.0000 0.0000 15.1307 0.0000
# 6 0.0000 0.0000 0.0000 0.0000 0.0000 24.3529
#
#
#
# Elastic Compliance Matrix: (Units=1/GPa)
#
#
# Indices 1 2 3 4 5 6 
#
# 1 0.013567 -0.006965 -0.002442 0.000000 0.000000 0.000000
# 2 -0.006965 0.013567 -0.002442 0.000000 0.000000 0.000000
# 3 -0.002442 -0.002442 0.011457 0.000000 0.000000 0.000000
# 4 0.000000 0.000000 0.000000 0.066091 0.000000 0.000000
# 5 0.000000 0.000000 0.000000 0.000000 0.066091 0.000000
# 6 0.000000 0.000000 0.000000 0.000000 0.000000 0.041063
#
#
# Mechanical properties :
#
#
# Convention : Reuss Voigt Hill
#
# Bulk Modulus (GPa) = 67.14717 68.51008 67.82862
# Shear Modulus (GPa) = 20.79032 23.58521 22.18777
#
# Velocity S-wave (km/s) = 3.07049 3.27037 3.17201
# Velocity P-wave (km/s) = 6.55898 6.73262 6.64637
#
# Compressibility (1/GPa) = 0.01489266
#
# Stress axis : x y z
#
# Youngs Moduli (GPa) = 73.70924 73.70924 87.28624
#
# Poissons Ratio (x) = 0.51336 0.21316
# Poissons Ratio (y) = 0.51336 0.21316
# Poissons Ratio (z) = 0.18000 0.18000
#
# Static dielectric constant tensor:
#      x y z
#    x 4.985600 0.000000 0.000000 
#    y 0.000000 4.985600 0.000000 
#    z 0.000000 0.000000 4.005130 
# 
# 
# High freq. dielectric constant tensor:
#      x y z
#    x 1.870980 0.000000 0.000000 
#    y 0.000000 1.870980 0.000000 
#    z 0.000000 0.000000 1.881580 
# 
# From -- ./inp_files/1669.got.cif
#   From: 2010.03.12/outbox.cif.g09.slc.cpg/sg171_1_cif.got.tgz:1669.got - 2010.04.02 06:49:11.
