data_PCOD8324790
_publ_section_title
;
Structure prediction by ZEFSAII (Michael W. Deem and Ramdas Pophale) SiO2 
 PCOD8324790
Probable space group: P 62
;
_chemical_formula_sum "Si O2"
_cell_formula_units_Z 39
_cell_length_a 11.994701
_cell_length_b 11.994701
_cell_length_c 13.304699
_cell_angle_alpha 90.000000
_cell_angle_beta 90.000000
_cell_angle_gamma 120.000000
_cell_volume 1657.732830
_symmetry_space_group_name_H-M "P 62"
_symmetry_group_IT_number 171
_symmetry_cell_setting 'hexagonal'
loop_
_space_group_symop_operation_xyz
x,y,z
x-y,x,1/3+z
-y,x-y,2/3+z
-x,-y,z
-x+y,-x,1/3+z
y,-x+y,2/3+z
loop_
_atom_site_type_symbol
_atom_site_label
_atom_site_fract_x
_atom_site_fract_y
_atom_site_fract_z
Si Si1 0.753764 0.064603 0.547380
Si Si2 0.333411 0.618590 0.566019
Si Si3 0.820435 0.074924 0.141386
Si Si4 0.260307 0.500036 0.080936
Si Si5 0.510203 0.385048 0.394270
Si Si6 0.500000 0.500000 0.002166
Si Si7 0.888710 0.031597 0.935816
O O1 0.767580 0.132111 0.438542
O O2 0.634770 0.061922 0.606821
O O3 0.900189 0.149790 0.590671
O O4 0.723251 0.918419 0.542681
O O5 0.452304 0.685818 0.642749
O O6 0.309983 0.726272 0.514009
O O7 0.213722 0.516507 0.633883
O O8 0.366532 0.556238 0.470253
O O9 0.690712 0.080282 0.135038
O O10 0.799971 0.936307 0.178034
O O11 0.881824 0.106443 0.031472
O O12 0.392918 0.498627 0.074583
O O13 0.500000 0.500000 0.342960
O O14 0.000000 0.000000 0.955073
#
# Coordination Sequence:
#
# PCOD8324790 Si02
#       7
#     6   6   6   6   6   3   6
#     4  11  26  44  74 104 145 190 243 305 368 450
#     4  10  25  47  66 102 147 181 240 308 360 446
#     4  11  26  44  72 106 142 193 248 304 389 440
#     4  11  24  46  70 102 143 186 239 300 360 449
#     4  11  27  46  73 104 145 193 245 305 378 450
#     4  12  26  42  78 108 136 198 248 290 388 442
#     4  10  24  45  69 108 145 186 245 315 368 444
#
# _framework density 23.526105999999999
#
# number of rings (size 3 to 8) (size 9 to 14) (size 15 to 20)
#    0.000    1.231    1.538    2.308   16.154    0.000 
#    0.000    0.000    0.000    0.000    0.000    0.000 
#    0.000    0.000    0.000    0.000    0.000    0.000 
#
# Total GULP energy -483135.788430 kJ/mol
# GULP energy per Si atom -12388.097139 kJ/mol
# Density = 2.347256 g / cm^3
# Si number density = 23.526106 Si / 1000 Ang^3
#
#
#
# Elastic Constant Matrix: (Units=GPa)
#
#
# Indices 1 2 3 4 5 6 
#
# 1 82.0870 17.3580 28.1907 0.0000 0.0000 0.0000
# 2 17.3580 82.0870 28.1907 0.0000 0.0000 0.0000
# 3 28.1907 28.1907 97.3582 0.0000 0.0000 0.0000
# 4 0.0000 0.0000 0.0000 32.2009 0.0000 0.0000
# 5 0.0000 0.0000 0.0000 0.0000 32.2009 0.0000
# 6 0.0000 0.0000 0.0000 0.0000 0.0000 32.3645
#
#
#
# Elastic Compliance Matrix: (Units=1/GPa)
#
#
# Indices 1 2 3 4 5 6 
#
# 1 0.013740 -0.001709 -0.003484 0.000000 0.000000 0.000000
# 2 -0.001709 0.013740 -0.003484 0.000000 0.000000 0.000000
# 3 -0.003484 -0.003484 0.012289 0.000000 0.000000 0.000000
# 4 0.000000 0.000000 0.000000 0.031055 0.000000 0.000000
# 5 0.000000 0.000000 0.000000 0.000000 0.031055 0.000000
# 6 0.000000 0.000000 0.000000 0.000000 0.000000 0.030898
#
#
# Mechanical properties :
#
#
# Convention : Reuss Voigt Hill
#
# Bulk Modulus (GPa) = 44.61093 45.44570 45.02831
# Shear Modulus (GPa) = 31.72559 31.87277 31.79918
#
# Velocity S-wave (km/s) = 3.67621 3.68473 3.68047
# Velocity P-wave (km/s) = 6.08464 6.12063 6.10266
#
# Compressibility (1/GPa) = 0.02241603
#
# Stress axis : x y z
#
# Youngs Moduli (GPa) = 72.78045 72.78045 81.37518
#
# Poissons Ratio (x) = 0.12439 0.28348
# Poissons Ratio (y) = 0.12439 0.28348
# Poissons Ratio (z) = 0.25354 0.25354
#
# Static dielectric constant tensor:
#      x y z
#    x 4.256790 0.000000 0.000000 
#    y 0.000000 4.256790 0.000000 
#    z 0.000000 0.000000 4.071570 
# 
# 
# High freq. dielectric constant tensor:
#      x y z
#    x 1.929920 0.000000 0.000000 
#    y 0.000000 1.929920 0.000000 
#    z 0.000000 0.000000 1.930110 
# 
# From -- ./inp_files/2017.got.cif
#   From: 2010.03.12/outbox.cif.g09.slc.cpg/sg171_2_cif.got.tgz:2017.got - 2010.04.02 06:49:11.
