data_PCOD8324084
_publ_section_title
;
Structure prediction by ZEFSAII (Michael W. Deem and Ramdas Pophale) SiO2 
 PCOD8324084
Probable space group: R -3 M
;
_chemical_formula_sum "Si O2"
_cell_formula_units_Z 144
_cell_length_a 20.625130
_cell_length_b 20.625130
_cell_length_c 20.203923
_cell_angle_alpha 90.000000
_cell_angle_beta 90.000000
_cell_angle_gamma 120.000000
_cell_volume 7443.200631
_symmetry_space_group_name_H-M "R -3 M"
_symmetry_group_IT_number 166
_symmetry_cell_setting 'hexagonal'
loop_
_space_group_symop_operation_xyz
x,y,z
-y,x-y,z
-x+y,-x,z
x-y,-y,-z
-x,-x+y,-z
y,x,-z
-x,-y,-z
y,-x+y,-z
x-y,x,-z
-x+y,y,z
x,x-y,z
-y,-x,z
2/3+x,1/3+y,1/3+z
2/3-y,1/3+x-y,1/3+z
2/3-x+y,1/3-x,1/3+z
2/3+x-y,1/3-y,1/3-z
2/3-x,1/3-x+y,1/3-z
2/3+y,1/3+x,1/3-z
2/3-x,1/3-y,1/3-z
2/3+y,1/3-x+y,1/3-z
2/3+x-y,1/3+x,1/3-z
2/3-x+y,1/3+y,1/3+z
2/3+x,1/3+x-y,1/3+z
2/3-y,1/3-x,1/3+z
1/3+x,2/3+y,2/3+z
1/3-y,2/3+x-y,2/3+z
1/3-x+y,2/3-x,2/3+z
1/3+x-y,2/3-y,2/3-z
1/3-x,2/3-x+y,2/3-z
1/3+y,2/3+x,2/3-z
1/3-x,2/3-y,2/3-z
1/3+y,2/3-x+y,2/3-z
1/3+x-y,2/3+x,2/3-z
1/3-x+y,2/3+y,2/3+z
1/3+x,2/3+x-y,2/3+z
1/3-y,2/3-x,2/3+z
loop_
_atom_site_type_symbol
_atom_site_label
_atom_site_fract_x
_atom_site_fract_y
_atom_site_fract_z
Si Si1 0.598582 0.681808 0.980148
Si Si2 0.563567 0.854938 0.226922
Si Si3 0.125064 0.399857 0.482639
Si Si4 0.381849 0.910114 0.606590
O O1 0.545338 0.655938 0.915614
O O2 0.671716 0.761362 0.967160
O O3 0.617809 0.617809 0.000000
O O4 0.554840 0.683917 0.045539
O O5 0.557743 0.778872 0.252661
O O6 0.506395 0.839729 0.166667
O O7 0.645647 0.909855 0.195616
O O8 0.209871 0.419741 0.495101
O O9 0.097066 0.426774 0.545325
O O10 0.444932 0.889863 0.585105
O O11 0.333334 0.855833 0.666667
#
# Coordination Sequence:
#
# PCOD8324084 Si02
#       4
#    36  36  36  36
#     4   9  18  32  50  76 106 134 168 213 264 315
#     4  10  19  32  52  78 107 138 172 213 265 323
#     4  10  19  33  53  76 106 142 177 215 260 313
#     4  11  22  35  53  78 108 141 178 223 272 318
#
# _framework density 19.346515
#
# number of rings (size 3 to 8) (size 9 to 14) (size 15 to 20)
#    0.000    2.000    0.000    6.750    0.000    8.000 
#    0.000    0.000    0.000    4.750    0.000    0.000 
#    0.000    0.000    0.000    0.000    0.000    0.000 
#
# Total GULP energy -595001.489224 kJ/mol
# GULP energy per Si atom -12395.864359 kJ/mol
# Density = 1.930248 g / cm^3
# Si number density = 19.346515 Si / 1000 Ang^3
#
#
#
# Elastic Constant Matrix: (Units=GPa)
#
#
# Indices 1 2 3 4 5 6 
#
# 1 58.1514 31.6509 27.1181 1.6359 0.0000 0.0000
# 2 31.6509 58.1514 27.1181 -1.6359 0.0000 0.0000
# 3 27.1181 27.1181 135.9106 0.0000 0.0000 0.0000
# 4 1.6359 -1.6359 0.0000 18.0484 0.0000 0.0000
# 5 0.0000 0.0000 0.0000 0.0000 18.0484 1.6359
# 6 0.0000 0.0000 0.0000 0.0000 1.6359 13.2502
#
#
#
# Elastic Compliance Matrix: (Units=1/GPa)
#
#
# Indices 1 2 3 4 5 6 
#
# 1 0.025412 -0.012750 -0.002526 -0.003459 0.000000 0.000000
# 2 -0.012750 0.025412 -0.002526 0.003459 0.000000 0.000000
# 3 -0.002526 -0.002526 0.008366 0.000000 0.000000 0.000000
# 4 -0.003459 0.003459 0.000000 0.056034 0.000000 0.000000
# 5 0.000000 0.000000 0.000000 0.000000 0.056034 -0.006918
# 6 0.000000 0.000000 0.000000 0.000000 -0.006918 0.076325
#
#
# Mechanical properties :
#
#
# Convention : Reuss Voigt Hill
#
# Bulk Modulus (GPa) = 42.40274 47.10972 44.75623
# Shear Modulus (GPa) = 17.17925 20.95782 19.06854
#
# Velocity S-wave (km/s) = 2.98313 3.29490 3.14288
# Velocity P-wave (km/s) = 5.81640 6.23527 6.02947
#
# Compressibility (1/GPa) = 0.02358338
#
# Stress axis : x y z
#
# Youngs Moduli (GPa) = 39.35180 39.35180 119.53267
#
# Poissons Ratio (x) = 0.50175 0.30198
# Poissons Ratio (y) = 0.50175 0.30198
# Poissons Ratio (z) = 0.09941 0.09941
#
# Static dielectric constant tensor:
#      x y z
#    x 3.163080 0.000000 0.000000 
#    y 0.000000 3.163080 0.000000 
#    z 0.000000 0.000000 3.903290 
# 
# 
# High freq. dielectric constant tensor:
#      x y z
#    x 1.712970 0.000000 0.000000 
#    y 0.000000 1.712970 0.000000 
#    z 0.000000 0.000000 1.782660 
# 
# From -- ./inp_files/5235.got.cif
#   From: 2010.03.12/outbox.cif.g09.slc.cpg/sg166_3_cif.got.tgz:5235.got - 2010.04.02 06:38:31.
