data_PCOD8324340
_publ_section_title
;
Structure prediction by ZEFSAII (Michael W. Deem and Ramdas Pophale) SiO2 
 PCOD8324340
Probable space group: R -3 C 
;
_chemical_formula_sum "Si O2"
_cell_formula_units_Z 138
_cell_length_a 25.201102
_cell_length_b 25.201102
_cell_length_c 12.771357
_cell_angle_alpha 90.000000
_cell_angle_beta 90.000000
_cell_angle_gamma 120.000000
_cell_volume 7024.359673
_symmetry_space_group_name_H-M "R -3 C "
_symmetry_group_IT_number 167
_symmetry_cell_setting 'hexagonal'
loop_
_space_group_symop_operation_xyz
x,y,z
-y,x-y,z
-x+y,-x,z
x-y,-y,1/2-z
-x,-x+y,1/2-z
y,x,1/2-z
-x,-y,-z
y,-x+y,-z
x-y,x,-z
-x+y,y,1/2+z
x,x-y,1/2+z
-y,-x,1/2+z
2/3+x,1/3+y,1/3+z
2/3-y,1/3+x-y,1/3+z
2/3-x+y,1/3-x,1/3+z
2/3+x-y,1/3-y,5/6-z
2/3-x,1/3-x+y,5/6-z
2/3+y,1/3+x,5/6-z
2/3-x,1/3-y,1/3-z
2/3+y,1/3-x+y,1/3-z
2/3+x-y,1/3+x,1/3-z
2/3-x+y,1/3+y,5/6+z
2/3+x,1/3+x-y,5/6+z
2/3-y,1/3-x,5/6+z
1/3+x,2/3+y,2/3+z
1/3-y,2/3+x-y,2/3+z
1/3-x+y,2/3-x,2/3+z
1/3+x-y,2/3-y,1/6-z
1/3-x,2/3-x+y,1/6-z
1/3+y,2/3+x,1/6-z
1/3-x,2/3-y,2/3-z
1/3+y,2/3-x+y,2/3-z
1/3+x-y,2/3+x,2/3-z
1/3-x+y,2/3+y,1/6+z
1/3+x,2/3+x-y,1/6+z
1/3-y,2/3-x,1/6+z
loop_
_atom_site_type_symbol
_atom_site_label
_atom_site_fract_x
_atom_site_fract_y
_atom_site_fract_z
Si Si1 0.569484 0.333334 0.083334
Si Si2 0.849674 0.274454 0.353384
Si Si3 0.772400 0.071423 0.762893
Si Si4 0.000000 0.000000 0.620955
Si Si5 0.210829 0.143834 0.604179
O O1 0.623315 0.360262 0.171934
O O2 0.506839 0.283516 0.138562
O O3 0.894332 0.266873 0.271087
O O4 0.853082 0.248667 0.466751
O O5 0.781477 0.237933 0.309158
O O6 0.866513 0.344181 0.364108
O O7 0.817626 0.094137 0.662726
O O8 0.724136 0.000000 0.750000
O O9 0.000000 0.000000 0.500000
#
# Coordination Sequence:
#
# PCOD8324340 Si02
#       5
#    18  36  36  12  36
#     4  10  22  38  54  86 118 152 196 246 298 344
#     4  10  21  36  64  87 116 160 198 238 309 356
#     4   9  19  41  60  85 122 153 193 249 296 355
#     4  10  26  40  61  80 115 166 206 244 283 359
#     4  11  21  38  61  87 122 155 193 251 298 358
#
# _framework density 19.645918999999999
#
# number of rings (size 3 to 8) (size 9 to 14) (size 15 to 20)
#    0.000    2.087    3.913    0.783    3.652    2.087 
#    4.696    0.000    5.739    0.000    0.000    0.000 
#    0.000    0.000    0.000    0.000    0.000    0.000 
#
# Total GULP energy -570072.005312 kJ/mol
# GULP energy per Si atom -12392.869681 kJ/mol
# Density = 1.960120 g / cm^3
# Si number density = 19.645919 Si / 1000 Ang^3
#
#
#
# Elastic Constant Matrix: (Units=GPa)
#
#
# Indices 1 2 3 4 5 6 
#
# 1 101.1598 64.8561 64.7734 7.8287 -0.0001 0.0001
# 2 64.8561 101.1599 64.7740 -7.8287 0.0000 0.0000
# 3 64.7734 64.7740 119.8785 0.0000 -0.0003 0.0001
# 4 7.8287 -7.8287 0.0000 33.7373 0.0000 -0.0001
# 5 -0.0001 0.0000 -0.0003 0.0000 33.7372 7.8288
# 6 0.0001 0.0000 0.0001 -0.0001 7.8288 18.1519
#
#
#
# Elastic Compliance Matrix: (Units=1/GPa)
#
#
# Indices 1 2 3 4 5 6 
#
# 1 0.020512 -0.010097 -0.005627 -0.007103 0.000000 0.000000
# 2 -0.010097 0.020512 -0.005627 0.007103 0.000000 0.000000
# 3 -0.005627 -0.005627 0.014423 0.000000 0.000000 0.000000
# 4 -0.007103 0.007103 0.000000 0.032937 0.000000 0.000000
# 5 0.000000 0.000000 0.000000 0.000000 0.032937 -0.014206
# 6 0.000000 0.000000 0.000000 0.000000 -0.014206 0.061218
#
#
# Mechanical properties :
#
#
# Convention : Reuss Voigt Hill
#
# Bulk Modulus (GPa) = 78.47440 79.00059 78.73749
# Shear Modulus (GPa) = 21.78747 25.64492 23.71620
#
# Velocity S-wave (km/s) = 3.33379 3.61689 3.47822
# Velocity P-wave (km/s) = 7.40608 7.59882 7.50307
#
# Compressibility (1/GPa) = 0.01274301
#
# Stress axis : x y z
#
# Youngs Moduli (GPa) = 48.75278 48.75237 69.33359
#
# Poissons Ratio (x) = 0.49225 0.39016
# Poissons Ratio (y) = 0.49226 0.39017
# Poissons Ratio (z) = 0.27434 0.27435
#
# Static dielectric constant tensor:
#      x y z
#    x 3.671640 0.000000 0.000000 
#    y 0.000000 3.671640 0.000000 
#    z 0.000000 0.000000 3.658260 
# 
# 
# High freq. dielectric constant tensor:
#      x y z
#    x 1.758270 0.000000 0.000000 
#    y 0.000000 1.758270 0.000000 
#    z 0.000000 0.000000 1.768500 
# 
# From -- ./inp_files/1464.got.cif
#   From: 2010.03.12/outbox.cif.g09.slc.cpg/sg167_1_cif.got.tgz:1464.got - 2010.04.02 06:42:56.
