data_PCOD8324800
_publ_section_title
;
Structure prediction by ZEFSAII (Michael W. Deem and Ramdas Pophale) SiO2 
 PCOD8324800
Probable space group: P 62
;
_chemical_formula_sum "Si O2"
_cell_formula_units_Z 45
_cell_length_a 12.576042
_cell_length_b 12.576042
_cell_length_c 16.179121
_cell_angle_alpha 90.000000
_cell_angle_beta 90.000000
_cell_angle_gamma 120.000000
_cell_volume 2216.019170
_symmetry_space_group_name_H-M "P 62"
_symmetry_group_IT_number 171
_symmetry_cell_setting 'hexagonal'
loop_
_space_group_symop_operation_xyz
x,y,z
x-y,x,1/3+z
-y,x-y,2/3+z
-x,-y,z
-x+y,-x,1/3+z
y,-x+y,2/3+z
loop_
_atom_site_type_symbol
_atom_site_label
_atom_site_fract_x
_atom_site_fract_y
_atom_site_fract_z
Si Si1 0.788706 0.331681 0.502580
Si Si2 0.000000 0.000000 0.852711
Si Si3 0.202987 0.433379 0.461411
Si Si4 0.418490 0.052653 0.988230
Si Si5 0.047627 0.690553 0.377125
Si Si6 0.181386 0.964983 0.414471
Si Si7 0.740594 0.860155 0.270889
Si Si8 0.939580 0.573943 0.200958
O O1 0.739542 0.427783 0.495605
O O2 0.899871 0.378489 0.566138
O O3 0.835940 0.317948 0.411605
O O4 0.680302 0.204747 0.539849
O O5 0.913770 0.886159 0.794252
O O6 0.087758 0.968973 0.908297
O O7 0.269995 0.430090 0.379302
O O8 0.208333 0.344648 0.531089
O O9 0.061051 0.382673 0.441565
O O10 0.500000 0.000000 0.030369
O O11 0.275621 0.956556 0.975444
O O12 0.006369 0.629293 0.287878
O O13 0.082525 0.832879 0.376601
O O14 0.262333 0.051956 0.340788
O O15 0.271960 0.955653 0.478029
O O16 0.000000 0.500000 0.160345
#
# Coordination Sequence:
#
# PCOD8324800 Si02
#       8
#     6   3   6   6   6   6   6   6
#     4  11  22  42  68  98 125 170 233 291 328 401
#     4  12  22  40  66 102 138 176 222 280 356 418
#     4  12  23  40  68  98 127 178 229 281 343 403
#     4  12  24  42  66  96 136 176 224 284 341 411
#     4  11  21  41  68  97 125 171 233 284 330 401
#     4  11  25  40  63  99 142 173 215 284 360 414
#     4  12  24  40  65  99 139 178 223 281 349 427
#     4  11  24  43  66  97 132 178 228 284 346 410
#
# _framework density 20.306683
#
# number of rings (size 3 to 8) (size 9 to 14) (size 15 to 20)
#    0.000    0.533    5.333    4.000    1.867    1.067 
#    0.000    0.667    0.000    0.000    0.000    0.000 
#    0.000    0.000    0.000    0.000    0.000    0.000 
#
# Total GULP energy -558079.755052 kJ/mol
# GULP energy per Si atom -12401.772334 kJ/mol
# Density = 2.026046 g / cm^3
# Si number density = 20.306683 Si / 1000 Ang^3
#
#
#
# Elastic Constant Matrix: (Units=GPa)
#
#
# Indices 1 2 3 4 5 6 
#
# 1 103.5751 38.5612 32.7192 0.0000 0.0000 0.0000
# 2 38.5612 103.5751 32.7192 0.0000 0.0000 0.0000
# 3 32.7192 32.7192 92.1893 0.0000 0.0000 0.0000
# 4 0.0000 0.0000 0.0000 9.2180 0.0000 0.0000
# 5 0.0000 0.0000 0.0000 0.0000 9.2180 0.0000
# 6 0.0000 0.0000 0.0000 0.0000 0.0000 32.5069
#
#
#
# Elastic Compliance Matrix: (Units=1/GPa)
#
#
# Indices 1 2 3 4 5 6 
#
# 1 0.011895 -0.003486 -0.002985 0.000000 0.000000 0.000000
# 2 -0.003486 0.011895 -0.002985 0.000000 0.000000 0.000000
# 3 -0.002985 -0.002985 0.012966 0.000000 0.000000 0.000000
# 4 0.000000 0.000000 0.000000 0.108483 0.000000 0.000000
# 5 0.000000 0.000000 0.000000 0.000000 0.108483 0.000000
# 6 0.000000 0.000000 0.000000 0.000000 0.000000 0.030763
#
#
# Mechanical properties :
#
#
# Convention : Reuss Voigt Hill
#
# Bulk Modulus (GPa) = 56.03383 56.37095 56.20239
# Shear Modulus (GPa) = 16.16320 23.21125 19.68723
#
# Velocity S-wave (km/s) = 2.82433 3.38455 3.11705
# Velocity P-wave (km/s) = 6.18785 6.56457 6.37899
#
# Compressibility (1/GPa) = 0.01784636
#
# Stress axis : x y z
#
# Youngs Moduli (GPa) = 84.06553 84.06553 77.12559
#
# Poissons Ratio (x) = 0.29304 0.23020
# Poissons Ratio (y) = 0.29304 0.23020
# Poissons Ratio (z) = 0.25091 0.25091
#
# Static dielectric constant tensor:
#      x y z
#    x 3.820550 0.000000 0.000000 
#    y 0.000000 3.820550 0.000000 
#    z 0.000000 0.000000 3.677980 
# 
# 
# High freq. dielectric constant tensor:
#      x y z
#    x 1.792010 0.000000 0.000000 
#    y 0.000000 1.792010 0.000000 
#    z 0.000000 0.000000 1.795340 
# 
# From -- ./inp_files/3043.got.cif
#   From: 2010.03.12/outbox.cif.g09.slc.cpg/sg171_2_cif.got.tgz:3043.got - 2010.04.02 06:49:11.
