data_PCOD8324397
_publ_section_title
;
Structure prediction by ZEFSAII (Michael W. Deem and Ramdas Pophale) SiO2 
 PCOD8324397
Probable space group: R -3 C 
;
_chemical_formula_sum "Si O2"
_cell_formula_units_Z 144
_cell_length_a 19.544829
_cell_length_b 19.544829
_cell_length_c 18.483849
_cell_angle_alpha 90.000000
_cell_angle_beta 90.000000
_cell_angle_gamma 120.000000
_cell_volume 6114.863880
_symmetry_space_group_name_H-M "R -3 C "
_symmetry_group_IT_number 167
_symmetry_cell_setting 'hexagonal'
loop_
_space_group_symop_operation_xyz
x,y,z
-y,x-y,z
-x+y,-x,z
x-y,-y,1/2-z
-x,-x+y,1/2-z
y,x,1/2-z
-x,-y,-z
y,-x+y,-z
x-y,x,-z
-x+y,y,1/2+z
x,x-y,1/2+z
-y,-x,1/2+z
2/3+x,1/3+y,1/3+z
2/3-y,1/3+x-y,1/3+z
2/3-x+y,1/3-x,1/3+z
2/3+x-y,1/3-y,5/6-z
2/3-x,1/3-x+y,5/6-z
2/3+y,1/3+x,5/6-z
2/3-x,1/3-y,1/3-z
2/3+y,1/3-x+y,1/3-z
2/3+x-y,1/3+x,1/3-z
2/3-x+y,1/3+y,5/6+z
2/3+x,1/3+x-y,5/6+z
2/3-y,1/3-x,5/6+z
1/3+x,2/3+y,2/3+z
1/3-y,2/3+x-y,2/3+z
1/3-x+y,2/3-x,2/3+z
1/3+x-y,2/3-y,1/6-z
1/3-x,2/3-x+y,1/6-z
1/3+y,2/3+x,1/6-z
1/3-x,2/3-y,2/3-z
1/3+y,2/3-x+y,2/3-z
1/3+x-y,2/3+x,2/3-z
1/3-x+y,2/3+y,1/6+z
1/3+x,2/3+x-y,1/6+z
1/3-y,2/3-x,1/6+z
loop_
_atom_site_type_symbol
_atom_site_label
_atom_site_fract_x
_atom_site_fract_y
_atom_site_fract_z
Si Si1 0.105183 0.624920 0.317102
Si Si2 0.486486 0.488637 0.584916
Si Si3 0.333334 0.755998 0.916667
Si Si4 0.314662 0.000000 0.750000
Si Si5 0.765589 0.513426 0.838911
O O1 0.196343 0.670680 0.345702
O O2 0.059540 0.673656 0.303262
O O3 0.102597 0.581320 0.242598
O O4 0.052786 0.570600 0.381303
O O5 0.500000 0.500000 0.500000
O O6 0.434004 0.399447 0.618582
O O7 0.445461 0.539004 0.607610
O O8 0.255794 0.666667 0.916667
O O9 0.795758 0.455743 0.810872
#
# Coordination Sequence:
#
# PCOD8324397 Si02
#       5
#    36  36  18  18  36
#     4  12  25  50  72 112 157 195 258 320 396 474
#     4  12  27  48  78 113 152 204 262 323 395 481
#     4  10  28  47  79 112 154 206 266 332 400 476
#     4  12  26  49  75 112 150 202 248 322 388 470
#     4  12  27  48  75 112 154 205 261 321 397 470
#
# _framework density 23.549175000000002
#
# number of rings (size 3 to 8) (size 9 to 14) (size 15 to 20)
#    0.250    0.000    5.000    1.750    8.750    0.000 
#    9.000    0.000    0.000    0.000    0.000    0.000 
#    0.000    0.000    0.000    0.000    0.000    0.000 
#
# Total GULP energy -594684.514293 kJ/mol
# GULP energy per Si atom -12389.260714 kJ/mol
# Density = 2.349558 g / cm^3
# Si number density = 23.549175 Si / 1000 Ang^3
#
#
#
# Elastic Constant Matrix: (Units=GPa)
#
#
# Indices 1 2 3 4 5 6 
#
# 1 93.4714 24.3614 2.3409 -5.7403 0.0000 0.0000
# 2 24.3614 93.4714 2.3409 5.7403 0.0000 0.0000
# 3 2.3409 2.3409 89.5444 0.0000 0.0000 0.0000
# 4 -5.7403 5.7403 0.0000 32.5006 0.0000 0.0000
# 5 0.0000 0.0000 0.0000 0.0000 32.5006 -5.7403
# 6 0.0000 0.0000 0.0000 0.0000 -5.7403 34.5550
#
#
#
# Elastic Compliance Matrix: (Units=1/GPa)
#
#
# Indices 1 2 3 4 5 6 
#
# 1 0.011701 -0.003206 -0.000222 0.002633 0.000000 0.000000
# 2 -0.003206 0.011701 -0.000222 -0.002633 0.000000 0.000000
# 3 -0.000222 -0.000222 0.011179 0.000000 0.000000 0.000000
# 4 0.002633 -0.002633 0.000000 0.031699 0.000000 0.000000
# 5 0.000000 0.000000 0.000000 0.000000 0.031699 0.005266
# 6 0.000000 0.000000 0.000000 0.000000 0.005266 0.029814
#
#
# Mechanical properties :
#
#
# Convention : Reuss Voigt Hill
#
# Bulk Modulus (GPa) = 36.65454 37.17485 36.91470
# Shear Modulus (GPa) = 34.67714 36.40752 35.54233
#
# Velocity S-wave (km/s) = 3.84153 3.93621 3.88916
# Velocity P-wave (km/s) = 5.93931 6.03976 5.98975
#
# Compressibility (1/GPa) = 0.02728175
#
# Stress axis : x y z
#
# Youngs Moduli (GPa) = 85.46102 85.46102 89.45140
#
# Poissons Ratio (x) = 0.27397 0.01987
# Poissons Ratio (y) = 0.27397 0.01987
# Poissons Ratio (z) = 0.01898 0.01898
#
# Static dielectric constant tensor:
#      x y z
#    x 4.611160 0.000000 0.000000 
#    y 0.000000 4.611160 0.000000 
#    z 0.000000 0.000000 4.399980 
# 
# 
# High freq. dielectric constant tensor:
#      x y z
#    x 1.948120 0.000000 0.000000 
#    y 0.000000 1.948120 0.000000 
#    z 0.000000 0.000000 1.925490 
# 
# From -- ./inp_files/4354.got.cif
#   From: 2010.03.12/outbox.cif.g09.slc.cpg/sg167_3_cif.got.tgz:4354.got - 2010.04.02 06:42:56.
