data_PCOD8324414
_publ_section_title
;
Structure prediction by ZEFSAII (Michael W. Deem and Ramdas Pophale) SiO2 
 PCOD8324414
Probable space group: R -3 C 
;
_chemical_formula_sum "Si O2"
_cell_formula_units_Z 84
_cell_length_a 15.152691
_cell_length_b 15.152691
_cell_length_c 17.736909
_cell_angle_alpha 90.000000
_cell_angle_beta 90.000000
_cell_angle_gamma 120.000000
_cell_volume 3526.859050
_symmetry_space_group_name_H-M "R -3 C "
_symmetry_group_IT_number 167
_symmetry_cell_setting 'hexagonal'
loop_
_space_group_symop_operation_xyz
x,y,z
-y,x-y,z
-x+y,-x,z
x-y,-y,1/2-z
-x,-x+y,1/2-z
y,x,1/2-z
-x,-y,-z
y,-x+y,-z
x-y,x,-z
-x+y,y,1/2+z
x,x-y,1/2+z
-y,-x,1/2+z
2/3+x,1/3+y,1/3+z
2/3-y,1/3+x-y,1/3+z
2/3-x+y,1/3-x,1/3+z
2/3+x-y,1/3-y,5/6-z
2/3-x,1/3-x+y,5/6-z
2/3+y,1/3+x,5/6-z
2/3-x,1/3-y,1/3-z
2/3+y,1/3-x+y,1/3-z
2/3+x-y,1/3+x,1/3-z
2/3-x+y,1/3+y,5/6+z
2/3+x,1/3+x-y,5/6+z
2/3-y,1/3-x,5/6+z
1/3+x,2/3+y,2/3+z
1/3-y,2/3+x-y,2/3+z
1/3-x+y,2/3-x,2/3+z
1/3+x-y,2/3-y,1/6-z
1/3-x,2/3-x+y,1/6-z
1/3+y,2/3+x,1/6-z
1/3-x,2/3-y,2/3-z
1/3+y,2/3-x+y,2/3-z
1/3+x-y,2/3+x,2/3-z
1/3-x+y,2/3+y,1/6+z
1/3+x,2/3+x-y,1/6+z
1/3-y,2/3-x,1/6+z
loop_
_atom_site_type_symbol
_atom_site_label
_atom_site_fract_x
_atom_site_fract_y
_atom_site_fract_z
Si Si1 0.030387 0.419916 0.131082
Si Si2 0.666668 0.333334 0.173279
Si Si3 0.292946 0.456997 0.769133
O O1 0.121078 0.474211 0.190722
O O2 0.033820 0.508939 0.078048
O O3 0.040924 0.333334 0.083334
O O4 0.918824 0.352030 0.167020
O O5 0.666668 0.333334 0.083334
O O6 0.713849 0.445797 0.206091
#
# Coordination Sequence:
#
# PCOD8324414 Si02
#       3
#    36  12  36
#     4  11  25  46  72 105 150 191 248 308 377 446
#     4  12  27  49  77 106 150 190 251 307 375 444
#     4  11  26  45  75 108 144 197 247 308 374 456
#
# _framework density 23.817228
#
# number of rings (size 3 to 8) (size 9 to 14) (size 15 to 20)
#    0.000    0.857    0.000    5.143   12.000    1.714 
#    0.000    0.000    0.000    0.000    0.000    0.000 
#    0.000    0.000    0.000    0.000    0.000    0.000 
#
# Total GULP energy -347131.669563 kJ/mol
# GULP energy per Si atom -12397.559627 kJ/mol
# Density = 2.376302 g / cm^3
# Si number density = 23.817228 Si / 1000 Ang^3
#
#
#
# Elastic Constant Matrix: (Units=GPa)
#
#
# Indices 1 2 3 4 5 6 
#
# 1 142.3006 55.9191 59.9818 -0.6233 0.0001 0.0001
# 2 55.9191 142.3031 59.9823 0.6237 0.0001 0.0001
# 3 59.9818 59.9823 129.5632 0.0002 0.0001 0.0000
# 4 -0.6233 0.6237 0.0002 32.0846 0.0000 0.0000
# 5 0.0001 0.0001 0.0001 0.0000 32.0844 -0.6232
# 6 0.0001 0.0001 0.0000 0.0000 -0.6232 43.1908
#
#
#
# Elastic Compliance Matrix: (Units=1/GPa)
#
#
# Indices 1 2 3 4 5 6 
#
# 1 0.009294 -0.002286 -0.003245 0.000225 0.000000 0.000000
# 2 -0.002286 0.009294 -0.003245 -0.000225 0.000000 0.000000
# 3 -0.003245 -0.003245 0.010723 0.000000 0.000000 0.000000
# 4 0.000225 -0.000225 0.000000 0.031176 0.000000 0.000000
# 5 0.000000 0.000000 0.000000 0.000000 0.031177 0.000450
# 6 0.000000 0.000000 0.000000 0.000000 0.000450 0.023160
#
#
# Mechanical properties :
#
#
# Convention : Reuss Voigt Hill
#
# Bulk Modulus (GPa) = 85.02679 85.10372 85.06525
# Shear Modulus (GPa) = 36.68562 37.35753 37.02157
#
# Velocity S-wave (km/s) = 3.92892 3.96474 3.94687
# Velocity P-wave (km/s) = 7.50727 7.53448 7.52089
#
# Compressibility (1/GPa) = 0.01176100
#
# Stress axis : x y z
#
# Youngs Moduli (GPa) = 107.59428 107.59624 93.26182
#
# Poissons Ratio (x) = 0.24592 0.30260
# Poissons Ratio (y) = 0.24591 0.30260
# Poissons Ratio (z) = 0.34911 0.34911
#
# Static dielectric constant tensor:
#      x y z
#    x 4.154380 0.000000 0.000000 
#    y 0.000000 4.154370 -0.000020 
#    z 0.000000 -0.000020 4.725450 
# 
# 
# High freq. dielectric constant tensor:
#      x y z
#    x 1.942800 0.000000 0.000000 
#    y 0.000000 1.942800 0.000000 
#    z 0.000000 0.000000 1.970100 
# 
# From -- ./inp_files/1884.got.cif
#   From: 2010.03.12/outbox.cif.g09.slc.cpg/sg167_1_cif.got.tgz:1884.got - 2010.04.02 06:42:56.
