data_PCOD8324411
_publ_section_title
;
Structure prediction by ZEFSAII (Michael W. Deem and Ramdas Pophale) SiO2 
 PCOD8324411
Probable space group: R -3 C 
;
_chemical_formula_sum "Si O2"
_cell_formula_units_Z 108
_cell_length_a 17.280535
_cell_length_b 17.280535
_cell_length_c 19.083612
_cell_angle_alpha 90.000000
_cell_angle_beta 90.000000
_cell_angle_gamma 120.000000
_cell_volume 4935.209324
_symmetry_space_group_name_H-M "R -3 C "
_symmetry_group_IT_number 167
_symmetry_cell_setting 'hexagonal'
loop_
_space_group_symop_operation_xyz
x,y,z
-y,x-y,z
-x+y,-x,z
x-y,-y,1/2-z
-x,-x+y,1/2-z
y,x,1/2-z
-x,-y,-z
y,-x+y,-z
x-y,x,-z
-x+y,y,1/2+z
x,x-y,1/2+z
-y,-x,1/2+z
2/3+x,1/3+y,1/3+z
2/3-y,1/3+x-y,1/3+z
2/3-x+y,1/3-x,1/3+z
2/3+x-y,1/3-y,5/6-z
2/3-x,1/3-x+y,5/6-z
2/3+y,1/3+x,5/6-z
2/3-x,1/3-y,1/3-z
2/3+y,1/3-x+y,1/3-z
2/3+x-y,1/3+x,1/3-z
2/3-x+y,1/3+y,5/6+z
2/3+x,1/3+x-y,5/6+z
2/3-y,1/3-x,5/6+z
1/3+x,2/3+y,2/3+z
1/3-y,2/3+x-y,2/3+z
1/3-x+y,2/3-x,2/3+z
1/3+x-y,2/3-y,1/6-z
1/3-x,2/3-x+y,1/6-z
1/3+y,2/3+x,1/6-z
1/3-x,2/3-y,2/3-z
1/3+y,2/3-x+y,2/3-z
1/3+x-y,2/3+x,2/3-z
1/3-x+y,2/3+y,1/6+z
1/3+x,2/3+x-y,1/6+z
1/3-y,2/3-x,1/6+z
loop_
_atom_site_type_symbol
_atom_site_label
_atom_site_fract_x
_atom_site_fract_y
_atom_site_fract_z
Si Si1 0.839309 0.033033 0.000753
Si Si2 0.936014 0.200734 0.650653
Si Si3 0.100410 0.100410 0.250000
Si Si4 0.357000 0.000000 0.750000
O O1 0.742151 0.797877 0.932559
O O2 0.786404 0.033124 0.930990
O O3 0.834978 0.940420 0.012213
O O4 0.833334 0.166667 0.666667
O O5 0.980229 0.144670 0.682877
O O6 0.990898 0.300337 0.680709
O O7 0.087522 0.000000 0.250000
#
# Coordination Sequence:
#
# PCOD8324411 Si02
#       4
#    36  36  18  18
#     4  12  28  46  76 107 149 186 244 302 366 431
#     4  11  24  46  70 106 141 189 243 295 358 435
#     4   9  24  42  72 105 142 192 230 297 366 442
#     4  11  26  48  72 105 142 192 236 301 360 436
#
# _framework density 21.883571
#
# number of rings (size 3 to 8) (size 9 to 14) (size 15 to 20)
#    0.333    0.667    3.333    1.333    9.333    2.667 
#    0.000    0.000    0.000    0.000    0.000    0.000 
#    0.000    0.000    0.000    0.000    0.000    0.000 
#
# Total GULP energy -446255.268859 kJ/mol
# GULP energy per Si atom -12395.979691 kJ/mol
# Density = 2.183376 g / cm^3
# Si number density = 21.883571 Si / 1000 Ang^3
#
#
#
# Elastic Constant Matrix: (Units=GPa)
#
#
# Indices 1 2 3 4 5 6 
#
# 1 138.0111 70.1082 32.3165 5.5924 0.0000 0.0000
# 2 70.1082 138.0111 32.3165 -5.5924 0.0000 0.0000
# 3 32.3165 32.3165 90.1933 0.0000 0.0000 0.0000
# 4 5.5924 -5.5924 0.0000 13.3508 0.0000 0.0000
# 5 0.0000 0.0000 0.0000 0.0000 13.3508 5.5924
# 6 0.0000 0.0000 0.0000 0.0000 5.5924 33.9515
#
#
#
# Elastic Compliance Matrix: (Units=1/GPa)
#
#
# Indices 1 2 3 4 5 6 
#
# 1 0.010612 -0.005206 -0.001937 -0.006626 0.000000 0.000000
# 2 -0.005206 0.010612 -0.001937 0.006626 0.000000 0.000000
# 3 -0.001937 -0.001937 0.012475 0.000000 0.000000 0.000000
# 4 -0.006626 0.006626 0.000000 0.080453 0.000000 0.000000
# 5 0.000000 0.000000 0.000000 0.000000 0.080453 -0.013252
# 6 0.000000 0.000000 0.000000 0.000000 -0.013252 0.031637
#
#
# Mechanical properties :
#
#
# Convention : Reuss Voigt Hill
#
# Bulk Modulus (GPa) = 64.35064 70.63309 67.49187
# Shear Modulus (GPa) = 20.03339 27.56224 23.79781
#
# Velocity S-wave (km/s) = 3.02893 3.55279 3.30126
# Velocity P-wave (km/s) = 6.45773 7.01260 6.74088
#
# Compressibility (1/GPa) = 0.01553986
#
# Stress axis : x y z
#
# Youngs Moduli (GPa) = 94.22909 94.22909 80.15723
#
# Poissons Ratio (x) = 0.49055 0.15528
# Poissons Ratio (y) = 0.49055 0.15528
# Poissons Ratio (z) = 0.18254 0.18254
#
# Static dielectric constant tensor:
#      x y z
#    x 3.621430 0.000000 0.000000 
#    y 0.000000 3.621430 0.000000 
#    z 0.000000 0.000000 3.919790 
# 
# 
# High freq. dielectric constant tensor:
#      x y z
#    x 1.871330 0.000000 0.000000 
#    y 0.000000 1.871330 0.000000 
#    z 0.000000 0.000000 1.855990 
# 
# From -- ./inp_files/5022.got.cif
#   From: 2010.03.12/outbox.cif.g09.slc.cpg/sg167_3_cif.got.tgz:5022.got - 2010.04.02 06:42:56.
