data_PCOD8324391
_publ_section_title
;
Structure prediction by ZEFSAII (Michael W. Deem and Ramdas Pophale) SiO2 
 PCOD8324391
Probable space group: R -3 C 
;
_chemical_formula_sum "Si O2"
_cell_formula_units_Z 90
_cell_length_a 24.473000
_cell_length_b 24.473000
_cell_length_c 7.327209
_cell_angle_alpha 90.000000
_cell_angle_beta 90.000000
_cell_angle_gamma 120.000000
_cell_volume 3800.525331
_symmetry_space_group_name_H-M "R -3 C "
_symmetry_group_IT_number 167
_symmetry_cell_setting 'hexagonal'
loop_
_space_group_symop_operation_xyz
x,y,z
-y,x-y,z
-x+y,-x,z
x-y,-y,1/2-z
-x,-x+y,1/2-z
y,x,1/2-z
-x,-y,-z
y,-x+y,-z
x-y,x,-z
-x+y,y,1/2+z
x,x-y,1/2+z
-y,-x,1/2+z
2/3+x,1/3+y,1/3+z
2/3-y,1/3+x-y,1/3+z
2/3-x+y,1/3-x,1/3+z
2/3+x-y,1/3-y,5/6-z
2/3-x,1/3-x+y,5/6-z
2/3+y,1/3+x,5/6-z
2/3-x,1/3-y,1/3-z
2/3+y,1/3-x+y,1/3-z
2/3+x-y,1/3+x,1/3-z
2/3-x+y,1/3+y,5/6+z
2/3+x,1/3+x-y,5/6+z
2/3-y,1/3-x,5/6+z
1/3+x,2/3+y,2/3+z
1/3-y,2/3+x-y,2/3+z
1/3-x+y,2/3-x,2/3+z
1/3+x-y,2/3-y,1/6-z
1/3-x,2/3-x+y,1/6-z
1/3+y,2/3+x,1/6-z
1/3-x,2/3-y,2/3-z
1/3+y,2/3-x+y,2/3-z
1/3+x-y,2/3+x,2/3-z
1/3-x+y,2/3+y,1/6+z
1/3+x,2/3+x-y,1/6+z
1/3-y,2/3-x,1/6+z
loop_
_atom_site_type_symbol
_atom_site_label
_atom_site_fract_x
_atom_site_fract_y
_atom_site_fract_z
Si Si1 0.731589 0.142961 0.638872
Si Si2 0.776991 0.464290 0.878509
Si Si3 0.823194 0.666667 0.416667
O O1 0.666667 0.080653 0.583334
O O2 0.712927 0.186701 0.754289
O O3 0.776100 0.173844 0.459169
O O4 0.774987 0.122908 0.751365
O O5 0.780327 0.408943 0.769208
O O6 0.805958 0.472624 0.083334
#
# Coordination Sequence:
#
# PCOD8324391 Si02
#       3
#    36  36  18
#     4  11  23  44  70  96 132 178 221 281 342 396
#     4  12  24  40  67 103 143 181 219 266 328 411
#     4  10  24  46  68  96 132 170 232 286 336 406
#
# _framework density 23.680938000000001
#
# number of rings (size 3 to 8) (size 9 to 14) (size 15 to 20)
#    0.000    0.800    0.000    8.800    0.000    3.200 
#    3.600    0.000    0.000    0.000    0.000    0.000 
#    0.000    0.000    0.000    0.000    0.000    0.000 
#
# Total GULP energy -371719.769602 kJ/mol
# GULP energy per Si atom -12390.658987 kJ/mol
# Density = 2.362704 g / cm^3
# Si number density = 23.680938 Si / 1000 Ang^3
#
#
#
# Elastic Constant Matrix: (Units=GPa)
#
#
# Indices 1 2 3 4 5 6 
#
# 1 133.9391 62.0059 53.0336 23.6964 0.0982 0.0763
# 2 62.0059 133.7006 52.7817 -23.6786 -0.0266 0.0190
# 3 53.0336 52.7817 122.7700 0.0421 0.1053 0.0329
# 4 23.6964 -23.6786 0.0421 34.9104 0.0499 0.0025
# 5 0.0982 -0.0266 0.1053 0.0499 34.8265 23.8029
# 6 0.0763 0.0190 0.0329 0.0025 23.8029 35.7902
#
#
#
# Elastic Compliance Matrix: (Units=1/GPa)
#
#
# Indices 1 2 3 4 5 6 
#
# 1 0.015929 -0.009276 -0.002887 -0.017100 -0.000003 -0.000023
# 2 -0.009276 0.015937 -0.002850 0.017109 0.000025 -0.000004
# 3 -0.002887 -0.002850 0.010618 0.000014 -0.000045 0.000028
# 4 -0.017100 0.017109 0.000014 0.051857 -0.000054 0.000059
# 5 -0.000003 0.000025 -0.000045 -0.000054 0.052643 -0.035011
# 6 -0.000023 -0.000004 0.000028 0.000059 -0.035011 0.051226
#
#
# Mechanical properties :
#
#
# Convention : Reuss Voigt Hill
#
# Bulk Modulus (GPa) = 80.27941 80.67245 80.47593
# Shear Modulus (GPa) = 21.51573 35.94466 28.73020
#
# Velocity S-wave (km/s) = 3.01752 3.90022 3.48691
# Velocity P-wave (km/s) = 6.79077 7.37717 7.09003
#
# Compressibility (1/GPa) = 0.01245649
#
# Stress axis : x y z
#
# Youngs Moduli (GPa) = 62.77919 62.74849 94.18049
#
# Poissons Ratio (x) = 0.58206 0.27190
# Poissons Ratio (y) = 0.58234 0.26845
# Poissons Ratio (z) = 0.18124 0.17886
#
# Static dielectric constant tensor:
#      x y z
#    x 4.308050 -0.000010 -0.000360 
#    y -0.000010 4.308240 -0.000260 
#    z -0.000360 -0.000260 4.828450 
# 
# 
# High freq. dielectric constant tensor:
#      x y z
#    x 1.928660 -0.000010 -0.000070 
#    y -0.000010 1.928710 -0.000010 
#    z -0.000070 -0.000010 1.965130 
# 
# From -- ./inp_files/501.got.cif
#   From: 2010.03.12/outbox.cif.g09.slc.cpg/sg167_1_cif.got.tgz:501.got - 2010.04.02 06:42:56.
