data_PCOD8324582
_publ_section_title
;
Structure prediction by ZEFSAII (Michael W. Deem and Ramdas Pophale) SiO2 
 PCOD8324582
Probable space group: P 61
;
_chemical_formula_sum "Si O2"
_cell_formula_units_Z 30
_cell_length_a 16.402521
_cell_length_b 16.402521
_cell_length_c 6.362010
_cell_angle_alpha 90.000000
_cell_angle_beta 90.000000
_cell_angle_gamma 120.000000
_cell_volume 1482.334389
_symmetry_space_group_name_H-M "P 61"
_symmetry_group_IT_number 169
_symmetry_cell_setting 'hexagonal'
loop_
_space_group_symop_operation_xyz
x,y,z
x-y,x,1/6+z
-y,x-y,1/3+z
-x,-y,1/2+z
-x+y,-x,2/3+z
y,-x+y,5/6+z
loop_
_atom_site_type_symbol
_atom_site_label
_atom_site_fract_x
_atom_site_fract_y
_atom_site_fract_z
Si Si1 0.875647 0.255314 0.301060
Si Si2 0.348840 0.598277 0.022052
Si Si3 0.033390 0.632079 0.176214
Si Si4 0.295995 0.931463 0.732600
Si Si5 0.891209 0.479724 0.881572
O O1 0.820945 0.309842 0.234956
O O2 0.903252 0.270918 0.549353
O O3 0.814251 0.143993 0.255727
O O4 0.970575 0.291171 0.169992
O O5 0.383174 0.654928 0.240815
O O6 0.439357 0.638758 0.865814
O O7 0.101626 0.611184 0.316987
O O8 0.951804 0.631327 0.319138
O O9 0.986029 0.550214 0.003102
O O10 0.348309 0.880995 0.845419
#
# Coordination Sequence:
#
# PCOD8324582 Si02
#       5
#     6   6   6   6   6
#     4  11  26  40  63  92 119 170 212 270 323 391
#     4  12  26  38  58  91 134 176 221 261 309 377
#     4  11  21  39  62  87 124 162 212 258 321 376
#     4  11  24  41  63  88 126 161 214 266 328 385
#     4  11  21  36  58  88 123 169 205 253 305 371
#
# _framework density 20.238348999999999
#
# number of rings (size 3 to 8) (size 9 to 14) (size 15 to 20)
#    0.000    0.800    4.000    3.600    8.400    3.200 
#    0.000    0.000    0.000    0.000    5.200    0.000 
#    0.000    0.000    0.000    0.000    0.000    0.000 
#
# Total GULP energy -372019.467811 kJ/mol
# GULP energy per Si atom -12400.648927 kJ/mol
# Density = 2.019229 g / cm^3
# Si number density = 20.238349 Si / 1000 Ang^3
#
#
#
# Elastic Constant Matrix: (Units=GPa)
#
#
# Indices 1 2 3 4 5 6 
#
# 1 99.5512 41.7652 35.9575 0.0000 0.0000 0.0000
# 2 41.7652 99.5512 35.9575 0.0000 0.0000 0.0000
# 3 35.9575 35.9575 114.1761 0.0000 0.0000 0.0000
# 4 0.0000 0.0000 0.0000 33.7551 0.0000 0.0000
# 5 0.0000 0.0000 0.0000 0.0000 33.7551 0.0000
# 6 0.0000 0.0000 0.0000 0.0000 0.0000 28.8930
#
#
#
# Elastic Compliance Matrix: (Units=1/GPa)
#
#
# Indices 1 2 3 4 5 6 
#
# 1 0.012866 -0.004439 -0.002654 0.000000 0.000000 0.000000
# 2 -0.004439 0.012866 -0.002654 0.000000 0.000000 0.000000
# 3 -0.002654 -0.002654 0.010430 0.000000 0.000000 0.000000
# 4 0.000000 0.000000 0.000000 0.029625 0.000000 0.000000
# 5 0.000000 0.000000 0.000000 0.000000 0.029625 0.000000
# 6 0.000000 0.000000 0.000000 0.000000 0.000000 0.034610
#
#
# Mechanical properties :
#
#
# Convention : Reuss Voigt Hill
#
# Bulk Modulus (GPa) = 59.99450 60.07100 60.03275
# Shear Modulus (GPa) = 32.24295 32.58721 32.41508
#
# Velocity S-wave (km/s) = 3.99577 4.01705 4.00642
# Velocity P-wave (km/s) = 7.14119 7.15973 7.15047
#
# Compressibility (1/GPa) = 0.01666820
#
# Stress axis : x y z
#
# Youngs Moduli (GPa) = 77.72403 77.72403 95.87755
#
# Poissons Ratio (x) = 0.34503 0.25445
# Poissons Ratio (y) = 0.34503 0.25445
# Poissons Ratio (z) = 0.20627 0.20627
#
# Static dielectric constant tensor:
#      x y z
#    x 3.542140 0.000000 0.000000 
#    y 0.000000 3.542140 0.000000 
#    z 0.000000 0.000000 4.080710 
# 
# 
# High freq. dielectric constant tensor:
#      x y z
#    x 1.764460 0.000000 0.000000 
#    y 0.000000 1.764460 0.000000 
#    z 0.000000 0.000000 1.813830 
# 
# From -- ./inp_files/155.got.cif
#   From: 2010.03.12/outbox.cif.g09.slc.cpg/sg169_cif.got.tgz:155.got - 2010.04.02 06:46:06.
