data_PCOD8324484
_publ_section_title
;
Structure prediction by ZEFSAII (Michael W. Deem and Ramdas Pophale) SiO2 
 PCOD8324484
Probable space group: P 61
;
_chemical_formula_sum "Si O2"
_cell_formula_units_Z 42
_cell_length_a 13.733539
_cell_length_b 13.733539
_cell_length_c 11.785765
_cell_angle_alpha 90.000000
_cell_angle_beta 90.000000
_cell_angle_gamma 120.000000
_cell_volume 1925.100201
_symmetry_space_group_name_H-M "P 61"
_symmetry_group_IT_number 169
_symmetry_cell_setting 'hexagonal'
loop_
_space_group_symop_operation_xyz
x,y,z
x-y,x,1/6+z
-y,x-y,1/3+z
-x,-y,1/2+z
-x+y,-x,2/3+z
y,-x+y,5/6+z
loop_
_atom_site_type_symbol
_atom_site_label
_atom_site_fract_x
_atom_site_fract_y
_atom_site_fract_z
Si Si1 0.852747 0.829283 0.586670
Si Si2 0.410232 0.125661 0.977867
Si Si3 0.502482 0.996039 0.602200
Si Si4 0.188544 0.309705 0.384462
Si Si5 0.742337 0.425941 0.488344
Si Si6 0.775703 0.305678 0.907377
Si Si7 0.106826 0.392274 0.579309
O O1 0.975774 0.864389 0.633732
O O2 0.781363 0.696231 0.561982
O O3 0.793767 0.858859 0.689385
O O4 0.514237 0.237171 0.929716
O O5 0.383337 0.148854 0.104530
O O6 0.440689 0.027007 0.992388
O O7 0.470673 0.088337 0.557932
O O8 0.585992 0.054416 0.707702
O O9 0.406445 0.874652 0.648156
O O10 0.185547 0.391317 0.479071
O O11 0.265401 0.260359 0.432925
O O12 0.706012 0.460767 0.374248
O O13 0.654077 0.293170 0.513946
O O14 0.736433 0.181972 0.857335
#
# Coordination Sequence:
#
# PCOD8324484 Si02
#       7
#     6   6   6   6   6   6   6
#     4  10  19  38  65 100 135 180 245 294 352 435
#     4  10  23  43  72 100 137 185 242 290 366 430
#     4  11  25  46  73 103 139 196 233 304 368 429
#     4  10  20  40  71 101 131 185 237 293 348 435
#     4  12  27  50  70 108 145 192 241 306 369 446
#     4  12  28  48  71 108 149 187 249 299 371 445
#     4  11  24  43  70 104 134 189 239 292 362 430
#
# _framework density 21.817045
#
# number of rings (size 3 to 8) (size 9 to 14) (size 15 to 20)
#    0.000    1.143    7.143    0.000    6.000    2.286 
#    5.143    2.857    0.000    0.000    0.000    0.000 
#    0.000    0.000    0.000    0.000    0.000    0.000 
#
# Total GULP energy -520578.813700 kJ/mol
# GULP energy per Si atom -12394.733660 kJ/mol
# Density = 2.176739 g / cm^3
# Si number density = 21.817045 Si / 1000 Ang^3
#
#
#
# Elastic Constant Matrix: (Units=GPa)
#
#
# Indices 1 2 3 4 5 6 
#
# 1 103.2365 34.9013 22.8648 0.0000 0.0000 0.0000
# 2 34.9013 103.2365 22.8648 0.0000 0.0000 0.0000
# 3 22.8648 22.8648 68.2456 0.0000 0.0000 0.0000
# 4 0.0000 0.0000 0.0000 22.5932 0.0000 0.0000
# 5 0.0000 0.0000 0.0000 0.0000 22.5932 0.0000
# 6 0.0000 0.0000 0.0000 0.0000 0.0000 34.1676
#
#
#
# Elastic Compliance Matrix: (Units=1/GPa)
#
#
# Indices 1 2 3 4 5 6 
#
# 1 0.011388 -0.003246 -0.002728 0.000000 0.000000 0.000000
# 2 -0.003246 0.011388 -0.002728 0.000000 0.000000 0.000000
# 3 -0.002728 -0.002728 0.016481 0.000000 0.000000 0.000000
# 4 0.000000 0.000000 0.000000 0.044261 0.000000 0.000000
# 5 0.000000 0.000000 0.000000 0.000000 0.044261 0.000000
# 6 0.000000 0.000000 0.000000 0.000000 0.000000 0.029267
#
#
# Mechanical properties :
#
#
# Convention : Reuss Voigt Hill
#
# Bulk Modulus (GPa) = 45.75917 48.44226 47.10071
# Shear Modulus (GPa) = 27.51266 28.80996 28.16131
#
# Velocity S-wave (km/s) = 3.55500 3.63785 3.59666
# Velocity P-wave (km/s) = 6.15388 6.31643 6.23569
#
# Compressibility (1/GPa) = 0.02185354
#
# Stress axis : x y z
#
# Youngs Moduli (GPa) = 87.81187 87.81187 60.67635
#
# Poissons Ratio (x) = 0.28502 0.16552
# Poissons Ratio (y) = 0.28502 0.16552
# Poissons Ratio (z) = 0.23955 0.23955
#
# Static dielectric constant tensor:
#      x y z
#    x 4.254670 0.000000 0.000000 
#    y 0.000000 4.254670 0.000000 
#    z 0.000000 0.000000 3.636060 
# 
# 
# High freq. dielectric constant tensor:
#      x y z
#    x 1.860730 0.000000 0.000000 
#    y 0.000000 1.860730 0.000000 
#    z 0.000000 0.000000 1.837000 
# 
# From -- ./inp_files/964.got.cif
#   From: 2010.03.12/outbox.cif.g09.slc.cpg/sg169_cif.got.tgz:964.got - 2010.04.02 06:46:06.
