data_PCOD8324963
_publ_section_title
;
Structure prediction by ZEFSAII (Michael W. Deem and Ramdas Pophale) SiO2 
 PCOD8324963
Probable space group: P -6
;
_chemical_formula_sum "Si O2"
_cell_formula_units_Z 42
_cell_length_a 8.661773
_cell_length_b 8.661773
_cell_length_c 31.923862
_cell_angle_alpha 90.000000
_cell_angle_beta 90.000000
_cell_angle_gamma 120.000000
_cell_volume 2074.243092
_symmetry_space_group_name_H-M "P -6"
_symmetry_group_IT_number 174
_symmetry_cell_setting 'hexagonal'
loop_
_space_group_symop_operation_xyz
x,y,z
-x+y,-x,-z
-y,x-y,z
x,y,-z
-x+y,-x,z
-y,x-y,-z
loop_
_atom_site_type_symbol
_atom_site_label
_atom_site_fract_x
_atom_site_fract_y
_atom_site_fract_z
Si Si1 0.695947 0.149655 0.500000
Si Si2 0.357890 0.876161 0.712737
Si Si3 0.338988 0.993844 0.378316
Si Si4 0.710126 0.158246 0.000000
Si Si5 0.330652 0.320813 0.588953
Si Si6 0.652135 0.654982 0.878841
Si Si7 0.681773 0.012714 0.087887
Si Si8 0.881829 0.369342 0.208890
O O1 0.505887 0.147042 0.500000
O O2 0.715297 0.047467 0.539662
O O3 0.169800 0.688578 0.714396
O O4 0.357053 0.975588 0.670929
O O5 0.382451 0.006338 0.750679
O O6 0.143215 0.862937 0.396598
O O7 0.385876 0.195421 0.385743
O O8 0.475243 0.949464 0.401824
O O9 0.857020 0.370866 0.000000
O O10 0.739182 0.059235 0.960526
O O11 0.510238 0.503953 0.908589
O O12 0.666764 0.833319 0.895811
O O13 0.598199 0.612010 0.830158
O O14 0.837300 0.660057 0.882068
O O15 0.823658 0.521929 0.208306
#
# Coordination Sequence:
#
# PCOD8324963 Si02
#       8
#     3   6   6   3   6   6   6   6
#     4  10  20  42  66 104 130 180 240 290 344 418
#     4  10  23  41  65 101 139 171 230 290 341 416
#     4  12  24  45  65 105 136 192 224 291 355 426
#     4  10  20  42  72  96 134 186 234 296 348 394
#     4  12  24  42  72  94 144 182 235 289 354 414
#     4  12  24  45  65 106 139 184 232 282 350 417
#     4  12  24  42  72  97 141 187 228 291 345 408
#     4  10  23  41  68  99 135 183 230 278 347 407
#
# _framework density 20.248351
#
# number of rings (size 3 to 8) (size 9 to 14) (size 15 to 20)
#    0.857    0.000    5.714    1.714    4.000    2.286 
#    0.000    0.000    0.000    0.571    0.000    0.000 
#    0.000    0.000    0.000    0.000    0.000    0.000 
#
# Total GULP energy -520721.604505 kJ/mol
# GULP energy per Si atom -12398.133441 kJ/mol
# Density = 2.020227 g / cm^3
# Si number density = 20.248351 Si / 1000 Ang^3
#
#
#
# Elastic Constant Matrix: (Units=GPa)
#
#
# Indices 1 2 3 4 5 6 
#
# 1 90.0721 24.4298 43.6198 0.0000 0.0000 0.0000
# 2 24.4298 90.0721 43.6198 0.0000 0.0000 0.0000
# 3 43.6198 43.6198 182.6070 0.0000 0.0000 0.0000
# 4 0.0000 0.0000 0.0000 30.9991 0.0000 0.0000
# 5 0.0000 0.0000 0.0000 0.0000 30.9991 0.0000
# 6 0.0000 0.0000 0.0000 0.0000 0.0000 32.8212
#
#
#
# Elastic Compliance Matrix: (Units=1/GPa)
#
#
# Indices 1 2 3 4 5 6 
#
# 1 0.012955 -0.002279 -0.002550 0.000000 0.000000 0.000000
# 2 -0.002279 0.012955 -0.002550 0.000000 0.000000 0.000000
# 3 -0.002550 -0.002550 0.006695 0.000000 0.000000 0.000000
# 4 0.000000 0.000000 0.000000 0.032259 0.000000 0.000000
# 5 0.000000 0.000000 0.000000 0.000000 0.032259 0.000000
# 6 0.000000 0.000000 0.000000 0.000000 0.000000 0.030468
#
#
# Mechanical properties :
#
#
# Convention : Reuss Voigt Hill
#
# Bulk Modulus (GPa) = 56.03345 65.12111 60.57728
# Shear Modulus (GPa) = 33.71560 35.70264 34.70912
#
# Velocity S-wave (km/s) = 4.08500 4.20365 4.14475
# Velocity P-wave (km/s) = 7.06985 7.46940 7.27237
#
# Compressibility (1/GPa) = 0.01784648
#
# Stress axis : x y z
#
# Youngs Moduli (GPa) = 77.18821 77.18821 149.37281
#
# Poissons Ratio (x) = 0.17589 0.38095
# Poissons Ratio (y) = 0.17589 0.38095
# Poissons Ratio (z) = 0.19686 0.19686
#
# Static dielectric constant tensor:
#      x y z
#    x 3.601520 0.000000 0.000000 
#    y 0.000000 3.601520 0.000000 
#    z 0.000000 0.000000 3.616550 
# 
# 
# High freq. dielectric constant tensor:
#      x y z
#    x 1.781440 0.000000 0.000000 
#    y 0.000000 1.781440 0.000000 
#    z 0.000000 0.000000 1.804120 
# 
# From -- ./inp_files/1104.got.cif
#   From: 2010.03.12/outbox.cif.g09.slc.cpg/sg174_cif.got.tgz:1104.got - 2010.04.02 06:54:58.
