data_PCOD8324113
_publ_section_title
;
Structure prediction by ZEFSAII (Michael W. Deem and Ramdas Pophale) SiO2 
 PCOD8324113
Probable space group: R -3 M
;
_chemical_formula_sum "Si O2"
_cell_formula_units_Z 162
_cell_length_a 21.752914
_cell_length_b 21.752914
_cell_length_c 19.215374
_cell_angle_alpha 90.000000
_cell_angle_beta 90.000000
_cell_angle_gamma 120.000000
_cell_volume 7874.343560
_symmetry_space_group_name_H-M "R -3 M"
_symmetry_group_IT_number 166
_symmetry_cell_setting 'hexagonal'
loop_
_space_group_symop_operation_xyz
x,y,z
-y,x-y,z
-x+y,-x,z
x-y,-y,-z
-x,-x+y,-z
y,x,-z
-x,-y,-z
y,-x+y,-z
x-y,x,-z
-x+y,y,z
x,x-y,z
-y,-x,z
2/3+x,1/3+y,1/3+z
2/3-y,1/3+x-y,1/3+z
2/3-x+y,1/3-x,1/3+z
2/3+x-y,1/3-y,1/3-z
2/3-x,1/3-x+y,1/3-z
2/3+y,1/3+x,1/3-z
2/3-x,1/3-y,1/3-z
2/3+y,1/3-x+y,1/3-z
2/3+x-y,1/3+x,1/3-z
2/3-x+y,1/3+y,1/3+z
2/3+x,1/3+x-y,1/3+z
2/3-y,1/3-x,1/3+z
1/3+x,2/3+y,2/3+z
1/3-y,2/3+x-y,2/3+z
1/3-x+y,2/3-x,2/3+z
1/3+x-y,2/3-y,2/3-z
1/3-x,2/3-x+y,2/3-z
1/3+y,2/3+x,2/3-z
1/3-x,2/3-y,2/3-z
1/3+y,2/3-x+y,2/3-z
1/3+x-y,2/3+x,2/3-z
1/3-x+y,2/3+y,2/3+z
1/3+x,2/3+x-y,2/3+z
1/3-y,2/3-x,2/3+z
loop_
_atom_site_type_symbol
_atom_site_label
_atom_site_fract_x
_atom_site_fract_y
_atom_site_fract_z
Si Si1 0.532405 0.607863 0.783118
Si Si2 0.267980 0.866168 0.880530
Si Si3 0.861001 0.999817 0.417557
Si Si4 0.474057 0.807390 0.666667
Si Si5 0.355596 0.408048 0.306893
O O1 0.472124 0.527876 0.798964
O O2 0.548711 0.650856 0.855741
O O3 0.507091 0.647458 0.730922
O O4 0.599594 0.605468 0.751745
O O5 0.219573 0.780428 0.872607
O O6 0.235569 0.902235 0.833334
O O7 0.262288 0.884581 0.960448
O O8 0.868855 0.934427 0.388950
O O9 0.861407 0.000000 0.500000
O O10 0.786668 0.989684 0.391710
O O11 0.926885 0.073115 0.388814
O O12 0.398759 0.797519 0.644139
O O13 0.290959 0.333334 0.333334
#
# Coordination Sequence:
#
# PCOD8324113 Si02
#       5
#    36  36  36  18  36
#     4  11  22  38  60  88 122 162 206 253 307 370
#     4  11  22  39  61  85 118 163 208 253 306 373
#     4  10  23  44  70  96 126 166 212 262 317 379
#     4  10  19  34  56  84 117 158 208 258 302 354
#     4  12  24  40  62  93 130 164 207 255 317 382
#
# _framework density 20.573143999999999
#
# number of rings (size 3 to 8) (size 9 to 14) (size 15 to 20)
#    0.000    1.111    3.333    3.000    3.111    5.778 
#    0.000    0.000    0.000    0.444    0.000    0.000 
#    0.000    0.000    0.000    0.000    0.000    0.000 
#
# Total GULP energy -669646.092748 kJ/mol
# GULP energy per Si atom -12400.853569 kJ/mol
# Density = 2.052632 g / cm^3
# Si number density = 20.573144 Si / 1000 Ang^3
#
#
#
# Elastic Constant Matrix: (Units=GPa)
#
#
# Indices 1 2 3 4 5 6 
#
# 1 130.5037 61.7974 17.6011 1.5162 0.0010 0.0000
# 2 61.7974 130.5037 17.6011 -1.5162 -0.0010 0.0000
# 3 17.6011 17.6011 51.7375 0.0000 0.0000 0.0000
# 4 1.5162 -1.5162 0.0000 37.6810 0.0000 -0.0010
# 5 0.0010 -0.0010 0.0000 0.0000 37.6810 1.5162
# 6 0.0000 0.0000 0.0000 -0.0010 1.5162 34.3532
#
#
#
# Elastic Compliance Matrix: (Units=1/GPa)
#
#
# Indices 1 2 3 4 5 6 
#
# 1 0.010063 -0.004518 -0.001887 -0.000587 0.000000 0.000000
# 2 -0.004518 0.010063 -0.001887 0.000587 0.000000 0.000000
# 3 -0.001887 -0.001887 0.020612 0.000000 0.000000 0.000000
# 4 -0.000587 0.000587 0.000000 0.026586 0.000000 0.000001
# 5 0.000000 0.000000 0.000000 0.000000 0.026586 -0.001173
# 6 0.000000 0.000000 0.000000 0.000001 -0.001173 0.029161
#
#
# Mechanical properties :
#
#
# Convention : Reuss Voigt Hill
#
# Bulk Modulus (GPa) = 41.39643 56.30490 48.85067
# Shear Modulus (GPa) = 33.85138 36.32607 35.08873
#
# Velocity S-wave (km/s) = 4.06077 4.20659 4.13432
# Velocity P-wave (km/s) = 6.49244 7.14293 6.82544
#
# Compressibility (1/GPa) = 0.02415667
#
# Stress axis : x y z
#
# Youngs Moduli (GPa) = 99.37330 99.37330 48.51552
#
# Poissons Ratio (x) = 0.44892 0.09153
# Poissons Ratio (y) = 0.44892 0.09153
# Poissons Ratio (z) = 0.18748 0.18748
#
# Static dielectric constant tensor:
#      x y z
#    x 3.930930 0.000000 0.000000 
#    y 0.000000 3.930930 0.000000 
#    z 0.000000 0.000000 4.528770 
# 
# 
# High freq. dielectric constant tensor:
#      x y z
#    x 1.807860 0.000000 0.000000 
#    y 0.000000 1.807860 0.000000 
#    z 0.000000 0.000000 1.795680 
# 
# From -- ./inp_files/6743.got.cif
#   From: 2010.03.12/outbox.cif.g09.slc.cpg/sg166_4_cif.got.tgz:6743.got - 2010.04.02 06:38:31.
