data_PCOD8324349
_publ_section_title
;
Structure prediction by ZEFSAII (Michael W. Deem and Ramdas Pophale) SiO2 
 PCOD8324349
Probable space group: R -3 C 
;
_chemical_formula_sum "Si O2"
_cell_formula_units_Z 120
_cell_length_a 17.530050
_cell_length_b 17.530050
_cell_length_c 21.343675
_cell_angle_alpha 90.000000
_cell_angle_beta 90.000000
_cell_angle_gamma 120.000000
_cell_volume 5680.232869
_symmetry_space_group_name_H-M "R -3 C "
_symmetry_group_IT_number 167
_symmetry_cell_setting 'hexagonal'
loop_
_space_group_symop_operation_xyz
x,y,z
-y,x-y,z
-x+y,-x,z
x-y,-y,1/2-z
-x,-x+y,1/2-z
y,x,1/2-z
-x,-y,-z
y,-x+y,-z
x-y,x,-z
-x+y,y,1/2+z
x,x-y,1/2+z
-y,-x,1/2+z
2/3+x,1/3+y,1/3+z
2/3-y,1/3+x-y,1/3+z
2/3-x+y,1/3-x,1/3+z
2/3+x-y,1/3-y,5/6-z
2/3-x,1/3-x+y,5/6-z
2/3+y,1/3+x,5/6-z
2/3-x,1/3-y,1/3-z
2/3+y,1/3-x+y,1/3-z
2/3+x-y,1/3+x,1/3-z
2/3-x+y,1/3+y,5/6+z
2/3+x,1/3+x-y,5/6+z
2/3-y,1/3-x,5/6+z
1/3+x,2/3+y,2/3+z
1/3-y,2/3+x-y,2/3+z
1/3-x+y,2/3-x,2/3+z
1/3+x-y,2/3-y,1/6-z
1/3-x,2/3-x+y,1/6-z
1/3+y,2/3+x,1/6-z
1/3-x,2/3-y,2/3-z
1/3+y,2/3-x+y,2/3-z
1/3+x-y,2/3+x,2/3-z
1/3-x+y,2/3+y,1/6+z
1/3+x,2/3+x-y,1/6+z
1/3-y,2/3-x,1/6+z
loop_
_atom_site_type_symbol
_atom_site_label
_atom_site_fract_x
_atom_site_fract_y
_atom_site_fract_z
Si Si1 0.260432 0.313234 0.187852
Si Si2 0.666668 0.333334 0.658471
Si Si3 0.369855 0.534625 0.767737
Si Si4 0.831149 0.082047 0.002905
O O1 0.268130 0.268130 0.250000
O O2 0.221581 0.238348 0.135389
O O3 0.355173 0.392270 0.165878
O O4 0.191600 0.348021 0.198175
O O5 0.666668 0.333334 0.583334
O O6 0.764575 0.397530 0.683661
O O7 0.295455 0.502900 0.713722
O O8 0.465345 0.578089 0.734308
#
# Coordination Sequence:
#
# PCOD8324349 Si02
#       4
#    36  12  36  36
#     4  11  22  39  62  92 126 159 199 249 306 358
#     4  12  24  40  59  88 129 159 196 254 310 366
#     4  11  23  40  63  90 119 161 207 249 304 359
#     4  10  21  40  66  89 118 160 209 253 288 356
#
# _framework density 21.125895
#
# number of rings (size 3 to 8) (size 9 to 14) (size 15 to 20)
#    0.000    1.200    0.000    9.900    0.000    2.400 
#    0.000    9.000    0.000    0.000    0.000    0.000 
#    0.000    0.000    0.000    0.000    0.000    0.000 
#
# Total GULP energy -496040.582446 kJ/mol
# GULP energy per Si atom -12401.014561 kJ/mol
# Density = 2.107781 g / cm^3
# Si number density = 21.125895 Si / 1000 Ang^3
#
#
#
# Elastic Constant Matrix: (Units=GPa)
#
#
# Indices 1 2 3 4 5 6 
#
# 1 107.7765 58.7962 62.8936 -2.1576 -0.0002 0.0000
# 2 58.7962 107.7767 62.8922 2.1583 0.0001 0.0000
# 3 62.8936 62.8922 154.9981 -0.0003 -0.0001 0.0001
# 4 -2.1576 2.1583 -0.0003 40.1778 0.0000 0.0002
# 5 -0.0002 0.0001 -0.0001 0.0000 40.1785 -2.1583
# 6 0.0000 0.0000 0.0001 0.0002 -2.1583 24.4900
#
#
#
# Elastic Compliance Matrix: (Units=1/GPa)
#
#
# Indices 1 2 3 4 5 6 
#
# 1 0.014585 -0.005929 -0.003512 0.001102 0.000000 0.000000
# 2 -0.005929 0.014584 -0.003512 -0.001102 0.000000 0.000000
# 3 -0.003512 -0.003512 0.009302 0.000000 0.000000 0.000000
# 4 0.001102 -0.001102 0.000000 0.025008 0.000000 0.000000
# 5 0.000000 0.000000 0.000000 0.000000 0.025007 0.002204
# 6 0.000000 0.000000 0.000000 0.000000 0.002204 0.041027
#
#
# Mechanical properties :
#
#
# Convention : Reuss Voigt Hill
#
# Bulk Modulus (GPa) = 79.58950 82.19058 80.89004
# Shear Modulus (GPa) = 31.32683 33.36721 32.34702
#
# Velocity S-wave (km/s) = 3.85498 3.97854 3.91724
# Velocity P-wave (km/s) = 7.58750 7.75207 7.67023
#
# Compressibility (1/GPa) = 0.01256447
#
# Stress axis : x y z
#
# Youngs Moduli (GPa) = 68.56557 68.56658 107.50507
#
# Poissons Ratio (x) = 0.40653 0.37758
# Poissons Ratio (y) = 0.40652 0.37756
# Poissons Ratio (z) = 0.24082 0.24080
#
# Static dielectric constant tensor:
#      x y z
#    x 3.781620 0.000000 0.000000 
#    y 0.000000 3.781630 -0.000010 
#    z 0.000000 -0.000010 4.062550 
# 
# 
# High freq. dielectric constant tensor:
#      x y z
#    x 1.826600 0.000000 0.000000 
#    y 0.000000 1.826600 0.000000 
#    z 0.000000 0.000000 1.832840 
# 
# From -- ./inp_files/5064.got.cif
#   From: 2010.03.12/outbox.cif.g09.slc.cpg/sg167_3_cif.got.tgz:5064.got - 2010.04.02 06:42:56.
