data_PCOD8324860
_publ_section_title
;
Structure prediction by ZEFSAII (Michael W. Deem and Ramdas Pophale) SiO2 
 PCOD8324860
Probable space group: P 63
;
_chemical_formula_sum "Si O2"
_cell_formula_units_Z 28
_cell_length_a 11.347843
_cell_length_b 11.347843
_cell_length_c 12.650896
_cell_angle_alpha 90.000000
_cell_angle_beta 90.000000
_cell_angle_gamma 120.000000
_cell_volume 1410.842567
_symmetry_space_group_name_H-M "P 63"
_symmetry_group_IT_number 173
_symmetry_cell_setting 'hexagonal'
loop_
_space_group_symop_operation_xyz
x,y,z
x-y,x,1/2+z
-y,x-y,z
-x,-y,1/2+z
-x+y,-x,z
y,-x+y,1/2+z
loop_
_atom_site_type_symbol
_atom_site_label
_atom_site_fract_x
_atom_site_fract_y
_atom_site_fract_z
Si Si1 0.007123 0.737304 0.115380
Si Si2 0.037244 0.510017 0.500049
Si Si3 0.308788 0.913276 0.842225
Si Si4 0.333334 0.666668 0.544510
Si Si5 0.333334 0.666666 0.794737
Si Si6 0.255634 0.253826 0.549391
O O1 0.047278 0.642615 0.045496
O O2 0.966691 0.674943 0.231000
O O3 0.886562 0.750258 0.060494
O O4 0.140645 0.885091 0.125905
O O5 0.193041 0.545460 0.499393
O O6 0.022195 0.617802 0.577530
O O7 0.992284 0.525077 0.381825
O O8 0.266671 0.755098 0.835697
O O9 0.218216 0.939745 0.928320
O O10 0.333334 0.666667 0.669577
#
# Coordination Sequence:
#
# PCOD8324860 Si02
#       6
#     6   6   6   2   2   6
#     4  12  22  47  66  95 144 172 223 278 342 402
#     4  10  21  42  63  97 127 170 231 274 324 407
#     4  10  24  38  66 102 121 186 214 278 343 390
#     4  12  18  42  69  88 131 178 222 273 336 409
#     4  12  18  39  69  91 134 175 228 267 351 403
#     4  10  25  40  65  99 131 177 220 276 328 415
#
# _framework density 19.846297
#
# number of rings (size 3 to 8) (size 9 to 14) (size 15 to 20)
#    1.286    0.000    4.286    1.714    0.000    1.714 
#    9.000    0.000    0.000    0.000    0.000    0.000 
#    0.000    0.000    0.000    0.000    0.000    0.000 
#
# Total GULP energy -346971.358102 kJ/mol
# GULP energy per Si atom -12391.834218 kJ/mol
# Density = 1.980113 g / cm^3
# Si number density = 19.846297 Si / 1000 Ang^3
#
#
#
# Elastic Constant Matrix: (Units=GPa)
#
#
# Indices 1 2 3 4 5 6 
#
# 1 91.9696 34.7867 30.5852 0.0000 0.0000 -0.0004
# 2 34.7867 91.9678 30.5853 0.0000 0.0000 0.0001
# 3 30.5852 30.5853 106.4061 0.0000 0.0000 0.0006
# 4 0.0000 0.0000 0.0000 27.3955 -0.0002 0.0000
# 5 0.0000 0.0000 0.0000 -0.0002 27.3947 0.0000
# 6 -0.0004 0.0001 0.0006 0.0000 0.0000 28.5912
#
#
#
# Elastic Compliance Matrix: (Units=1/GPa)
#
#
# Indices 1 2 3 4 5 6 
#
# 1 0.013324 -0.004164 -0.002633 0.000000 0.000000 0.000000
# 2 -0.004164 0.013324 -0.002633 0.000000 0.000000 0.000000
# 3 -0.002633 -0.002633 0.010912 0.000000 0.000000 0.000000
# 4 0.000000 0.000000 0.000000 0.036502 0.000000 0.000000
# 5 0.000000 0.000000 0.000000 0.000000 0.036503 0.000000
# 6 0.000000 0.000000 0.000000 0.000000 0.000000 0.034976
#
#
# Mechanical properties :
#
#
# Convention : Reuss Voigt Hill
#
# Bulk Modulus (GPa) = 53.47703 53.58422 53.53063
# Shear Modulus (GPa) = 29.30249 29.63536 29.46892
#
# Velocity S-wave (km/s) = 3.84666 3.86844 3.85757
# Velocity P-wave (km/s) = 6.83616 6.85648 6.84633
#
# Compressibility (1/GPa) = 0.01869962
#
# Stress axis : x y z
#
# Youngs Moduli (GPa) = 75.05386 75.05218 91.64604
#
# Poissons Ratio (x) = 0.31253 0.24129
# Poissons Ratio (y) = 0.31253 0.24130
# Poissons Ratio (z) = 0.19760 0.19761
#
# Static dielectric constant tensor:
#      x y z
#    x 3.672230 0.000000 0.000000 
#    y 0.000000 3.672240 0.000000 
#    z 0.000000 0.000000 3.356540 
# 
# 
# High freq. dielectric constant tensor:
#      x y z
#    x 1.776560 0.000000 0.000000 
#    y 0.000000 1.776560 0.000000 
#    z 0.000000 0.000000 1.751030 
# 
# From -- ./inp_files/990.got.cif
#   From: 2010.03.12/outbox.cif.g09.slc.cpg/sg173_cif.got.tgz:990.got - 2010.04.02 06:54:12.
