data_PCOD8324850
_publ_section_title
;
Structure prediction by ZEFSAII (Michael W. Deem and Ramdas Pophale) SiO2 
 PCOD8324850
Probable space group: P 63
;
_chemical_formula_sum "Si O2"
_cell_formula_units_Z 42
_cell_length_a 8.643812
_cell_length_b 8.643812
_cell_length_c 30.313530
_cell_angle_alpha 90.000000
_cell_angle_beta 90.000000
_cell_angle_gamma 120.000000
_cell_volume 1961.452383
_symmetry_space_group_name_H-M "P 63"
_symmetry_group_IT_number 173
_symmetry_cell_setting 'hexagonal'
loop_
_space_group_symop_operation_xyz
x,y,z
x-y,x,1/2+z
-y,x-y,z
-x,-y,1/2+z
-x+y,-x,z
y,-x+y,1/2+z
loop_
_atom_site_type_symbol
_atom_site_label
_atom_site_fract_x
_atom_site_fract_y
_atom_site_fract_z
Si Si1 0.990184 0.325953 0.112430
Si Si2 0.460896 0.141854 0.207145
Si Si3 0.336607 0.010754 0.474597
Si Si4 0.339134 0.010251 0.836595
Si Si5 0.325933 0.335511 0.801755
Si Si6 0.671618 0.661073 0.939743
Si Si7 0.989466 0.328481 0.577650
O O1 0.140878 0.276054 0.101589
O O2 0.962694 0.310434 0.164792
O O3 0.806746 0.194081 0.087351
O O4 0.054802 0.524874 0.096100
O O5 0.654124 0.151559 0.207212
O O6 0.347109 0.036387 0.249358
O O7 0.356640 0.051498 0.526123
O O8 0.135815 0.858574 0.463863
O O9 0.385346 0.191677 0.448914
O O10 0.470797 0.945150 0.458794
O O11 0.275918 0.135088 0.812846
O O12 0.530059 0.054858 0.818120
O O13 0.193323 0.805961 0.826654
O O14 0.355792 0.050189 0.888170
#
# Coordination Sequence:
#
# PCOD8324850 Si02
#       7
#     6   6   6   6   6   6   6
#     4  12  25  43  72  98 139 172 224 282 331 411
#     4  10  20  46  72 100 130 174 222 266 350 400
#     4  12  25  43  67  95 137 180 229 279 334 400
#     4  12  24  44  66 103 132 182 224 279 341 392
#     4  12  25  43  72  98 139 172 224 282 331 411
#     4  12  25  43  67  95 137 180 229 279 334 400
#     4  12  24  44  66 103 132 182 224 279 341 392
#
# _framework density 21.412706
#
# number of rings (size 3 to 8) (size 9 to 14) (size 15 to 20)
#    0.286    0.000    2.857    7.714    0.000    2.286 
#    0.000    0.000    0.000    0.000    0.000    0.000 
#    0.000    0.000    0.000    0.000    0.000    0.000 
#
# Total GULP energy -521218.382415 kJ/mol
# GULP energy per Si atom -12409.961486 kJ/mol
# Density = 2.136397 g / cm^3
# Si number density = 21.412706 Si / 1000 Ang^3
#
#
#
# Elastic Constant Matrix: (Units=GPa)
#
#
# Indices 1 2 3 4 5 6 
#
# 1 87.3465 19.8060 44.5695 0.0000 0.0000 0.0000
# 2 19.8060 87.3465 44.5695 0.0000 0.0000 0.0000
# 3 44.5695 44.5695 170.6248 0.0000 0.0000 0.0000
# 4 0.0000 0.0000 0.0000 25.9919 0.0000 0.0000
# 5 0.0000 0.0000 0.0000 0.0000 25.9919 0.0000
# 6 0.0000 0.0000 0.0000 0.0000 0.0000 33.7702
#
#
#
# Elastic Compliance Matrix: (Units=1/GPa)
#
#
# Indices 1 2 3 4 5 6 
#
# 1 0.013365 -0.001441 -0.003115 0.000000 0.000000 0.000000
# 2 -0.001441 0.013365 -0.003115 0.000000 0.000000 0.000000
# 3 -0.003115 -0.003115 0.007488 0.000000 0.000000 0.000000
# 4 0.000000 0.000000 0.000000 0.038474 0.000000 0.000000
# 5 0.000000 0.000000 0.000000 0.000000 0.038474 0.000000
# 6 0.000000 0.000000 0.000000 0.000000 0.000000 0.029612
#
#
# Mechanical properties :
#
#
# Convention : Reuss Voigt Hill
#
# Bulk Modulus (GPa) = 52.97567 62.57868 57.77717
# Shear Modulus (GPa) = 30.78643 32.90899 31.84771
#
# Velocity S-wave (km/s) = 3.79590 3.92457 3.86077
# Velocity P-wave (km/s) = 6.63369 7.05867 6.84948
#
# Compressibility (1/GPa) = 0.01887659
#
# Stress axis : x y z
#
# Youngs Moduli (GPa) = 74.82397 74.82397 133.54790
#
# Poissons Ratio (x) = 0.10784 0.41594
# Poissons Ratio (y) = 0.10784 0.41594
# Poissons Ratio (z) = 0.23304 0.23304
#
# Static dielectric constant tensor:
#      x y z
#    x 3.746720 0.000000 0.000000 
#    y 0.000000 3.746720 0.000000 
#    z 0.000000 0.000000 3.885020 
# 
# 
# High freq. dielectric constant tensor:
#      x y z
#    x 1.843050 0.000000 0.000000 
#    y 0.000000 1.843050 0.000000 
#    z 0.000000 0.000000 1.855860 
# 
# From -- ./inp_files/1513.got.cif
#   From: 2010.03.12/outbox.cif.g09.slc.cpg/sg173_cif.got.tgz:1513.got - 2010.04.02 06:54:12.
