data_PCOD8324456
_publ_section_title
;
Structure prediction by ZEFSAII (Michael W. Deem and Ramdas Pophale) SiO2 
 PCOD8324456
Probable space group: P 61
;
_chemical_formula_sum "Si O2"
_cell_formula_units_Z 48
_cell_length_a 11.928232
_cell_length_b 11.928232
_cell_length_c 16.612944
_cell_angle_alpha 90.000000
_cell_angle_beta 90.000000
_cell_angle_gamma 120.000000
_cell_volume 2047.054417
_symmetry_space_group_name_H-M "P 61"
_symmetry_group_IT_number 169
_symmetry_cell_setting 'hexagonal'
loop_
_space_group_symop_operation_xyz
x,y,z
x-y,x,1/6+z
-y,x-y,1/3+z
-x,-y,1/2+z
-x+y,-x,2/3+z
y,-x+y,5/6+z
loop_
_atom_site_type_symbol
_atom_site_label
_atom_site_fract_x
_atom_site_fract_y
_atom_site_fract_z
Si Si1 0.612585 0.292032 0.530450
Si Si2 0.952032 0.033113 0.326413
Si Si3 0.894194 0.684795 0.480790
Si Si4 0.622541 0.089436 0.425448
Si Si5 0.513259 0.854548 0.788824
Si Si6 0.476618 0.354903 0.390198
Si Si7 0.432023 0.159431 0.665494
Si Si8 0.785424 0.641744 0.644715
O O1 0.600084 0.157957 0.501175
O O2 0.759345 0.371553 0.566776
O O3 0.573805 0.356494 0.459375
O O4 0.508390 0.269901 0.599589
O O5 0.966362 0.173989 0.324029
O O6 0.017004 0.009650 0.246006
O O7 0.797983 0.939368 0.316760
O O8 0.814061 0.584652 0.410342
O O9 0.855011 0.616412 0.568199
O O10 0.047984 0.753567 0.465129
O O11 0.527595 0.073635 0.353605
O O12 0.769855 0.181459 0.391914
O O13 0.579138 0.944850 0.456009
O O14 0.569450 0.770779 0.832807
O O15 0.630813 0.981712 0.744765
O O16 0.572957 0.487200 0.345064
#
# Coordination Sequence:
#
# PCOD8324456 Si02
#       8
#     6   6   6   6   6   6   6   6
#     4  10  26  46  62 102 134 184 240 282 368 438
#     4  10  18  34  62  96 140 182 242 298 352 422
#     4  11  19  36  63 102 135 180 237 298 351 421
#     4  11  23  38  67 100 139 187 233 300 363 427
#     4  10  23  43  68  98 138 181 234 294 356 434
#     4  10  23  43  68  98 138 181 234 294 356 434
#     4  11  23  38  67 100 139 187 233 300 363 427
#     4  11  19  36  63 102 135 180 237 298 351 421
#
# _framework density 23.448325000000001
#
# number of rings (size 3 to 8) (size 9 to 14) (size 15 to 20)
#    0.000    1.500    5.000    1.500    5.250    4.000 
#    2.250    0.000    2.750    0.000    0.000    0.000 
#    0.000    0.000    0.000    0.000    0.000    0.000 
#
# Total GULP energy -594669.516871 kJ/mol
# GULP energy per Si atom -12388.948268 kJ/mol
# Density = 2.339496 g / cm^3
# Si number density = 23.448325 Si / 1000 Ang^3
#
#
#
# Elastic Constant Matrix: (Units=GPa)
#
#
# Indices 1 2 3 4 5 6 
#
# 1 66.4284 10.2316 5.9255 0.0000 0.0000 0.0000
# 2 10.2316 66.4284 5.9255 0.0000 0.0000 0.0000
# 3 5.9255 5.9255 101.0944 0.0000 0.0000 0.0000
# 4 0.0000 0.0000 0.0000 31.7698 0.0000 0.0000
# 5 0.0000 0.0000 0.0000 0.0000 31.7698 0.0000
# 6 0.0000 0.0000 0.0000 0.0000 0.0000 28.0984
#
#
#
# Elastic Compliance Matrix: (Units=1/GPa)
#
#
# Indices 1 2 3 4 5 6 
#
# 1 0.015479 -0.002315 -0.000772 0.000000 0.000000 0.000000
# 2 -0.002315 0.015479 -0.000772 0.000000 0.000000 0.000000
# 3 -0.000772 -0.000772 0.009982 0.000000 0.000000 0.000000
# 4 0.000000 0.000000 0.000000 0.031476 0.000000 0.000000
# 5 0.000000 0.000000 0.000000 0.000000 0.031476 0.000000
# 6 0.000000 0.000000 0.000000 0.000000 0.000000 0.035589
#
#
# Mechanical properties :
#
#
# Convention : Reuss Voigt Hill
#
# Bulk Modulus (GPa) = 30.09905 30.90183 30.50044
# Shear Modulus (GPa) = 31.59072 32.45218 32.02145
#
# Velocity S-wave (km/s) = 3.67447 3.72423 3.69944
# Velocity P-wave (km/s) = 5.55576 5.63032 5.59317
#
# Compressibility (1/GPa) = 0.03322364
#
# Stress axis : x y z
#
# Youngs Moduli (GPa) = 64.60263 64.60263 100.17838
#
# Poissons Ratio (x) = 0.14958 0.07730
# Poissons Ratio (y) = 0.14958 0.07730
# Poissons Ratio (z) = 0.04985 0.04985
#
# Static dielectric constant tensor:
#      x y z
#    x 3.886880 0.000000 0.000000 
#    y 0.000000 3.886880 0.000000 
#    z 0.000000 0.000000 4.541560 
# 
# 
# High freq. dielectric constant tensor:
#      x y z
#    x 1.907480 0.000000 0.000000 
#    y 0.000000 1.907480 0.000000 
#    z 0.000000 0.000000 1.937600 
# 
# From -- ./inp_files/1429.got.cif
#   From: 2010.03.12/outbox.cif.g09.slc.cpg/sg169_cif.got.tgz:1429.got - 2010.04.02 06:46:06.
