data_PCOD8324658
_publ_section_title
;
Structure prediction by ZEFSAII (Michael W. Deem and Ramdas Pophale) SiO2 
 PCOD8324658
Probable space group: P 65
;
_chemical_formula_sum "Si O2"
_cell_formula_units_Z 48
_cell_length_a 14.341417
_cell_length_b 14.341417
_cell_length_c 12.968792
_cell_angle_alpha 90.000000
_cell_angle_beta 90.000000
_cell_angle_gamma 120.000000
_cell_volume 2310.012256
_symmetry_space_group_name_H-M "P 65"
_symmetry_group_IT_number 170
_symmetry_cell_setting 'hexagonal'
loop_
_space_group_symop_operation_xyz
x,y,z
x-y,x,5/6+z
-y,x-y,2/3+z
-x,-y,1/2+z
-x+y,-x,1/3+z
y,-x+y,1/6+z
loop_
_atom_site_type_symbol
_atom_site_label
_atom_site_fract_x
_atom_site_fract_y
_atom_site_fract_z
Si Si1 0.457106 0.914223 0.844760
Si Si2 0.839805 0.184500 0.334804
Si Si3 0.463269 0.739473 0.705369
Si Si4 0.052603 0.378030 0.357692
Si Si5 0.745549 0.586545 0.341972
Si Si6 0.580240 0.083426 0.988882
Si Si7 0.843597 0.832425 0.285858
Si Si8 0.531224 0.285252 0.816906
O O1 0.458982 0.840298 0.753184
O O2 0.395988 0.973382 0.796114
O O3 0.400315 0.848964 0.948343
O O4 0.570358 0.005582 0.892781
O O5 0.786288 0.161529 0.220104
O O6 0.800630 0.256151 0.397526
O O7 0.967222 0.256259 0.328185
O O8 0.812794 0.072295 0.387107
O O9 0.556645 0.784715 0.620189
O O10 0.488970 0.685508 0.800248
O O11 0.352131 0.648785 0.654233
O O12 0.052745 0.450578 0.265872
O O13 0.616741 0.531038 0.327482
O O14 0.808976 0.715760 0.334598
O O15 0.787650 0.533619 0.257407
O O16 0.869440 0.921346 0.376834
#
# Coordination Sequence:
#
# PCOD8324658 Si02
#       8
#     6   6   6   6   6   6   6   6
#     4  11  24  39  64  98 138 185 234 277 345 420
#     4  11  21  41  70 103 132 170 229 295 346 413
#     4  11  24  42  62  99 150 186 228 280 350 431
#     4  11  23  40  66 100 133 174 225 280 354 411
#     4  11  22  43  68  98 138 181 232 284 348 418
#     4  11  25  40  61 100 140 187 228 276 346 433
#     4  12  25  47  75 103 130 178 248 320 358 416
#     4  10  20  38  68 101 135 177 224 272 341 420
#
# _framework density 20.779111
#
# number of rings (size 3 to 8) (size 9 to 14) (size 15 to 20)
#    0.000    1.000    3.750    4.500    1.750    4.000 
#    0.000    1.250    0.000    0.000    0.000    0.000 
#    0.000    0.000    0.000    0.000    0.000    0.000 
#
# Total GULP energy -594764.854595 kJ/mol
# GULP energy per Si atom -12390.934471 kJ/mol
# Density = 2.073182 g / cm^3
# Si number density = 20.779111 Si / 1000 Ang^3
#
#
#
# Elastic Constant Matrix: (Units=GPa)
#
#
# Indices 1 2 3 4 5 6 
#
# 1 86.7896 33.6552 47.1093 0.0000 0.0000 0.0000
# 2 33.6552 86.7896 47.1093 0.0000 0.0000 0.0000
# 3 47.1093 47.1093 106.4354 0.0000 0.0000 0.0000
# 4 0.0000 0.0000 0.0000 32.0304 0.0000 0.0000
# 5 0.0000 0.0000 0.0000 0.0000 32.0304 0.0000
# 6 0.0000 0.0000 0.0000 0.0000 0.0000 26.5672
#
#
#
# Elastic Compliance Matrix: (Units=1/GPa)
#
#
# Indices 1 2 3 4 5 6 
#
# 1 0.015760 -0.003060 -0.005621 0.000000 0.000000 0.000000
# 2 -0.003060 0.015760 -0.005621 0.000000 0.000000 0.000000
# 3 -0.005621 -0.005621 0.014371 0.000000 0.000000 0.000000
# 4 0.000000 0.000000 0.000000 0.031220 0.000000 0.000000
# 5 0.000000 0.000000 0.000000 0.000000 0.031220 0.000000
# 6 0.000000 0.000000 0.000000 0.000000 0.000000 0.037640
#
#
# Mechanical properties :
#
#
# Convention : Reuss Voigt Hill
#
# Bulk Modulus (GPa) = 57.84864 59.52913 58.68888
# Shear Modulus (GPa) = 27.72564 28.26833 27.99698
#
# Velocity S-wave (km/s) = 3.65677 3.69239 3.67463
# Velocity P-wave (km/s) = 6.76236 6.84756 6.80509
#
# Compressibility (1/GPa) = 0.01728649
#
# Stress axis : x y z
#
# Youngs Moduli (GPa) = 63.45224 63.45224 69.58388
#
# Poissons Ratio (x) = 0.19418 0.39113
# Poissons Ratio (y) = 0.19418 0.39113
# Poissons Ratio (z) = 0.35666 0.35666
#
# Static dielectric constant tensor:
#      x y z
#    x 3.794410 0.000000 0.000000 
#    y 0.000000 3.794410 0.000000 
#    z 0.000000 0.000000 3.811320 
# 
# 
# High freq. dielectric constant tensor:
#      x y z
#    x 1.804400 0.000000 0.000000 
#    y 0.000000 1.804400 0.000000 
#    z 0.000000 0.000000 1.819070 
# 
# From -- ./inp_files/1091.got.cif
#   From: 2010.03.12/outbox.cif.g09.slc.cpg/sg170_cif.got.tgz:1091.got - 2010.04.02 06:47:37.
