data_PCOD8324103
_publ_section_title
;
Structure prediction by ZEFSAII (Michael W. Deem and Ramdas Pophale) SiO2 
 PCOD8324103
Probable space group: R -3 M
;
_chemical_formula_sum "Si O2"
_cell_formula_units_Z 144
_cell_length_a 28.178907
_cell_length_b 28.178907
_cell_length_c 11.798437
_cell_angle_alpha 90.000000
_cell_angle_beta 90.000000
_cell_angle_gamma 120.000000
_cell_volume 8113.409515
_symmetry_space_group_name_H-M "R -3 M"
_symmetry_group_IT_number 166
_symmetry_cell_setting 'hexagonal'
loop_
_space_group_symop_operation_xyz
x,y,z
-y,x-y,z
-x+y,-x,z
x-y,-y,-z
-x,-x+y,-z
y,x,-z
-x,-y,-z
y,-x+y,-z
x-y,x,-z
-x+y,y,z
x,x-y,z
-y,-x,z
2/3+x,1/3+y,1/3+z
2/3-y,1/3+x-y,1/3+z
2/3-x+y,1/3-x,1/3+z
2/3+x-y,1/3-y,1/3-z
2/3-x,1/3-x+y,1/3-z
2/3+y,1/3+x,1/3-z
2/3-x,1/3-y,1/3-z
2/3+y,1/3-x+y,1/3-z
2/3+x-y,1/3+x,1/3-z
2/3-x+y,1/3+y,1/3+z
2/3+x,1/3+x-y,1/3+z
2/3-y,1/3-x,1/3+z
1/3+x,2/3+y,2/3+z
1/3-y,2/3+x-y,2/3+z
1/3-x+y,2/3-x,2/3+z
1/3+x-y,2/3-y,2/3-z
1/3-x,2/3-x+y,2/3-z
1/3+y,2/3+x,2/3-z
1/3-x,2/3-y,2/3-z
1/3+y,2/3-x+y,2/3-z
1/3+x-y,2/3+x,2/3-z
1/3-x+y,2/3+y,2/3+z
1/3+x,2/3+x-y,2/3+z
1/3-y,2/3-x,2/3+z
loop_
_atom_site_type_symbol
_atom_site_label
_atom_site_fract_x
_atom_site_fract_y
_atom_site_fract_z
Si Si1 0.728471 0.710496 0.373180
Si Si2 0.331691 0.453607 0.843670
Si Si3 0.891884 0.000015 0.133020
Si Si4 0.715190 0.801676 0.003780
O O1 0.730832 0.730832 0.500000
O O2 0.666667 0.670388 0.333334
O O3 0.757670 0.764286 0.295421
O O4 0.761003 0.677361 0.365125
O O5 0.321728 0.504232 0.867303
O O6 0.280136 0.404424 0.779694
O O7 0.387399 0.477404 0.771987
O O8 0.952999 0.047002 0.162604
O O9 0.885600 0.942800 0.172360
O O10 0.879674 0.000000 0.000000
O O11 0.708901 0.854451 0.989846
#
# Coordination Sequence:
#
# PCOD8324103 Si02
#       4
#    36  36  36  36
#     4  12  22  41  59  81 114 158 192 234 284 337
#     4  11  21  34  58  85 117 150 190 232 287 338
#     4  10  19  33  55  84 117 149 183 230 289 345
#     4  11  21  35  58  85 114 150 193 237 281 335
#
# _framework density 17.748396
#
# number of rings (size 3 to 8) (size 9 to 14) (size 15 to 20)
#    0.000    1.000    7.500    2.500    0.000    4.000 
#    0.000    3.750    0.000    0.000    0.000    0.000 
#    0.000    2.000    0.000    0.000    0.000    0.000 
#
# Total GULP energy -595466.748999 kJ/mol
# GULP energy per Si atom -12405.557271 kJ/mol
# Density = 1.770800 g / cm^3
# Si number density = 17.748396 Si / 1000 Ang^3
#
#
#
# Elastic Constant Matrix: (Units=GPa)
#
#
# Indices 1 2 3 4 5 6 
#
# 1 95.2369 35.4599 35.5523 0.8320 0.0014 -0.0006
# 2 35.4599 95.2343 35.5508 -0.8322 0.0010 -0.0004
# 3 35.5523 35.5508 100.4170 0.0019 -0.0018 -0.0019
# 4 0.8320 -0.8322 0.0019 10.8148 0.0008 -0.0007
# 5 0.0014 0.0010 -0.0018 0.0008 10.8131 0.8311
# 6 -0.0006 -0.0004 -0.0019 -0.0007 0.8311 29.8873
#
#
#
# Elastic Compliance Matrix: (Units=1/GPa)
#
#
# Indices 1 2 3 4 5 6 
#
# 1 0.013121 -0.003644 -0.003355 -0.001289 -0.000002 0.000000
# 2 -0.003644 0.013121 -0.003355 0.001291 -0.000001 0.000000
# 3 -0.003355 -0.003355 0.012334 -0.000002 0.000003 0.000001
# 4 -0.001289 0.001291 -0.000002 0.092664 -0.000007 0.000002
# 5 -0.000002 -0.000001 0.000003 -0.000007 0.092679 -0.002577
# 6 0.000000 0.000000 0.000001 0.000002 -0.002577 0.033531
#
#
# Mechanical properties :
#
#
# Convention : Reuss Voigt Hill
#
# Bulk Modulus (GPa) = 55.96895 56.00158 55.98527
# Shear Modulus (GPa) = 17.59856 22.59139 20.09498
#
# Velocity S-wave (km/s) = 3.15232 3.57160 3.36849
# Velocity P-wave (km/s) = 6.69721 6.97352 6.83676
#
# Compressibility (1/GPa) = 0.01786705
#
# Stress axis : x y z
#
# Youngs Moduli (GPa) = 76.21515 76.21348 81.07570
#
# Poissons Ratio (x) = 0.27774 0.27202
# Poissons Ratio (y) = 0.27774 0.27201
# Poissons Ratio (z) = 0.25571 0.25570
#
# Static dielectric constant tensor:
#      x y z
#    x 3.270640 0.000000 0.000000 
#    y 0.000000 3.270650 0.000000 
#    z 0.000000 0.000000 3.026500 
# 
# 
# High freq. dielectric constant tensor:
#      x y z
#    x 1.691340 0.000000 0.000000 
#    y 0.000000 1.691340 0.000000 
#    z 0.000000 0.000000 1.646250 
# 
# From -- ./inp_files/1764.got.cif
#   From: 2010.03.12/outbox.cif.g09.slc.cpg/sg166_1_cif.got.tgz:1764.got - 2010.04.02 06:38:31.
