data_PCOD8324055
_publ_section_title
;
Structure prediction by ZEFSAII (Michael W. Deem and Ramdas Pophale) SiO2 
 PCOD8324055
Probable space group: R -3 M
;
_chemical_formula_sum "Si O2"
_cell_formula_units_Z 252
_cell_length_a 31.822397
_cell_length_b 31.822397
_cell_length_c 15.610080
_cell_angle_alpha 90.000000
_cell_angle_beta 90.000000
_cell_angle_gamma 120.000000
_cell_volume 13689.939833
_symmetry_space_group_name_H-M "R -3 M"
_symmetry_group_IT_number 166
_symmetry_cell_setting 'hexagonal'
loop_
_space_group_symop_operation_xyz
x,y,z
-y,x-y,z
-x+y,-x,z
x-y,-y,-z
-x,-x+y,-z
y,x,-z
-x,-y,-z
y,-x+y,-z
x-y,x,-z
-x+y,y,z
x,x-y,z
-y,-x,z
2/3+x,1/3+y,1/3+z
2/3-y,1/3+x-y,1/3+z
2/3-x+y,1/3-x,1/3+z
2/3+x-y,1/3-y,1/3-z
2/3-x,1/3-x+y,1/3-z
2/3+y,1/3+x,1/3-z
2/3-x,1/3-y,1/3-z
2/3+y,1/3-x+y,1/3-z
2/3+x-y,1/3+x,1/3-z
2/3-x+y,1/3+y,1/3+z
2/3+x,1/3+x-y,1/3+z
2/3-y,1/3-x,1/3+z
1/3+x,2/3+y,2/3+z
1/3-y,2/3+x-y,2/3+z
1/3-x+y,2/3-x,2/3+z
1/3+x-y,2/3-y,2/3-z
1/3-x,2/3-x+y,2/3-z
1/3+y,2/3+x,2/3-z
1/3-x,2/3-y,2/3-z
1/3+y,2/3-x+y,2/3-z
1/3+x-y,2/3+x,2/3-z
1/3-x+y,2/3+y,2/3+z
1/3+x,2/3+x-y,2/3+z
1/3-y,2/3-x,2/3+z
loop_
_atom_site_type_symbol
_atom_site_label
_atom_site_fract_x
_atom_site_fract_y
_atom_site_fract_z
Si Si1 0.277918 0.461109 0.306055
Si Si2 0.705531 0.762741 0.094717
Si Si3 0.241178 0.855156 0.163836
Si Si4 0.198839 0.052797 0.361211
Si Si5 0.185838 0.720117 0.830271
Si Si6 0.184503 0.721530 0.503448
Si Si7 0.291910 0.238012 0.100634
O O1 0.238693 0.477386 0.281711
O O2 0.267497 0.414054 0.250928
O O3 0.330943 0.506518 0.284146
O O4 0.274325 0.446183 0.404855
O O5 0.660690 0.752473 0.155340
O O6 0.749811 0.817382 0.105743
O O7 0.723773 0.725846 0.122242
O O8 0.688532 0.755313 0.996072
O O9 0.184164 0.815837 0.166787
O O10 0.266408 0.845887 0.083175
O O11 0.177909 0.088955 0.382236
O O12 0.215352 0.058057 0.263103
O O13 0.241430 0.758571 0.804930
O O14 0.174595 0.665547 0.809805
O O15 0.150110 0.731477 0.775979
O O16 0.240537 0.759464 0.524399
O O17 0.333334 0.245630 0.166667
#
# Coordination Sequence:
#
# PCOD8324055 Si02
#       7
#    36  36  36  36  36  36  36
#     4   9  18  31  48  71  98 128 163 201 244 294
#     4  10  21  35  51  71  98 130 164 201 241 290
#     4  10  19  30  47  72  97 124 162 204 244 287
#     4   9  17  30  48  70  96 125 160 202 244 287
#     4   9  18  32  51  74  97 125 162 199 239 290
#     4   9  18  34  53  72  98 131 163 200 245 290
#     4  10  21  36  51  71  99 130 164 201 242 286
#
# _framework density 18.407678000000001
#
# number of rings (size 3 to 8) (size 9 to 14) (size 15 to 20)
#    0.000    2.571    0.000    1.714    0.000    3.143 
#    0.000    5.000    0.000    0.571    0.000    4.000 
#    0.000    3.429    0.000    7.429    0.000    7.429 
#
# Total GULP energy -1041501.087972 kJ/mol
# GULP energy per Si atom -12398.822476 kJ/mol
# Density = 1.836578 g / cm^3
# Si number density = 18.407678 Si / 1000 Ang^3
#
#
#
# Elastic Constant Matrix: (Units=GPa)
#
#
# Indices 1 2 3 4 5 6 
#
# 1 106.5280 59.6031 24.3403 1.8354 -0.0001 0.0000
# 2 59.6031 106.5279 24.3402 -1.8354 0.0001 0.0000
# 3 24.3403 24.3402 43.0103 0.0000 -0.0003 0.0000
# 4 1.8354 -1.8354 0.0000 23.5312 0.0000 0.0001
# 5 -0.0001 0.0001 -0.0003 0.0000 23.5311 1.8354
# 6 0.0000 0.0000 0.0000 0.0001 1.8354 23.4624
#
#
#
# Elastic Compliance Matrix: (Units=1/GPa)
#
#
# Indices 1 2 3 4 5 6 
#
# 1 0.014329 -0.007113 -0.004084 -0.001672 0.000000 0.000000
# 2 -0.007113 0.014329 -0.004084 0.001672 0.000000 0.000000
# 3 -0.004084 -0.004084 0.027872 0.000000 0.000000 0.000000
# 4 -0.001672 0.001672 0.000000 0.042758 0.000000 0.000000
# 5 0.000000 0.000000 0.000000 0.000000 0.042758 -0.003345
# 6 0.000000 0.000000 0.000000 0.000000 -0.003345 0.042883
#
#
# Mechanical properties :
#
#
# Convention : Reuss Voigt Hill
#
# Bulk Modulus (GPa) = 38.50651 52.51481 45.51066
# Shear Modulus (GPa) = 22.30700 23.95710 23.13205
#
# Velocity S-wave (km/s) = 3.48491 3.61151 3.54878
# Velocity P-wave (km/s) = 6.09565 6.78095 6.44741
#
# Compressibility (1/GPa) = 0.02596963
#
# Stress axis : x y z
#
# Youngs Moduli (GPa) = 69.78980 69.78984 35.87800
#
# Poissons Ratio (x) = 0.49640 0.14651
# Poissons Ratio (y) = 0.49640 0.14651
# Poissons Ratio (z) = 0.28500 0.28499
#
# Static dielectric constant tensor:
#      x y z
#    x 3.361140 0.000000 0.000000 
#    y 0.000000 3.361140 0.000000 
#    z 0.000000 0.000000 3.435970 
# 
# 
# High freq. dielectric constant tensor:
#      x y z
#    x 1.700040 0.000000 0.000000 
#    y 0.000000 1.700040 0.000000 
#    z 0.000000 0.000000 1.719920 
# 
# From -- ./inp_files/5817.got.cif
#   From: 2010.03.12/outbox.cif.g09.slc.cpg/sg166_3_cif.got.tgz:5817.got - 2010.04.02 06:38:31.
