data_PCOD8324194
_publ_section_title
;
Structure prediction by ZEFSAII (Michael W. Deem and Ramdas Pophale) SiO2 
 PCOD8324194
Probable space group: R -3 M
;
_chemical_formula_sum "Si O2"
_cell_formula_units_Z 126
_cell_length_a 24.837892
_cell_length_b 24.837892
_cell_length_c 12.406204
_cell_angle_alpha 90.000000
_cell_angle_beta 90.000000
_cell_angle_gamma 120.000000
_cell_volume 6628.252107
_symmetry_space_group_name_H-M "R -3 M"
_symmetry_group_IT_number 166
_symmetry_cell_setting 'hexagonal'
loop_
_space_group_symop_operation_xyz
x,y,z
-y,x-y,z
-x+y,-x,z
x-y,-y,-z
-x,-x+y,-z
y,x,-z
-x,-y,-z
y,-x+y,-z
x-y,x,-z
-x+y,y,z
x,x-y,z
-y,-x,z
2/3+x,1/3+y,1/3+z
2/3-y,1/3+x-y,1/3+z
2/3-x+y,1/3-x,1/3+z
2/3+x-y,1/3-y,1/3-z
2/3-x,1/3-x+y,1/3-z
2/3+y,1/3+x,1/3-z
2/3-x,1/3-y,1/3-z
2/3+y,1/3-x+y,1/3-z
2/3+x-y,1/3+x,1/3-z
2/3-x+y,1/3+y,1/3+z
2/3+x,1/3+x-y,1/3+z
2/3-y,1/3-x,1/3+z
1/3+x,2/3+y,2/3+z
1/3-y,2/3+x-y,2/3+z
1/3-x+y,2/3-x,2/3+z
1/3+x-y,2/3-y,2/3-z
1/3-x,2/3-x+y,2/3-z
1/3+y,2/3+x,2/3-z
1/3-x,2/3-y,2/3-z
1/3+y,2/3-x+y,2/3-z
1/3+x-y,2/3+x,2/3-z
1/3-x+y,2/3+y,2/3+z
1/3+x,2/3+x-y,2/3+z
1/3-y,2/3-x,2/3+z
loop_
_atom_site_type_symbol
_atom_site_label
_atom_site_fract_x
_atom_site_fract_y
_atom_site_fract_z
Si Si1 0.205556 0.163521 0.793180
Si Si2 0.047371 0.825972 0.598409
Si Si3 0.454379 0.666667 0.666667
Si Si4 0.377939 0.394685 0.764231
O O1 0.207132 0.103566 0.747406
O O2 0.173935 0.186238 0.706302
O O3 0.167268 0.148231 0.901593
O O4 0.275454 0.216049 0.821288
O O5 0.105912 0.894089 0.579722
O O6 0.071026 0.776562 0.612806
O O7 0.000000 0.808232 0.500000
O O8 0.444845 0.722423 0.706243
O O9 0.333334 0.390958 0.666667
O O10 0.343284 0.333334 0.833334
#
# Coordination Sequence:
#
# PCOD8324194 Si02
#       4
#    36  36  18  36
#     4  11  22  38  61  89 120 156 202 250 303 359
#     4  11  24  41  63  89 123 162 205 250 302 360
#     4  10  21  36  56  80 112 150 195 250 302 352
#     4  11  21  39  59  90 127 160 194 243 303 371
#
# _framework density 19.009536000000001
#
# number of rings (size 3 to 8) (size 9 to 14) (size 15 to 20)
#    0.000    1.143    4.286    2.714    0.000    0.000 
#    0.000    5.714    0.000    6.857    0.000    0.000 
#    0.000    0.000    0.000    0.000    0.000    0.000 
#
# Total GULP energy -520949.966643 kJ/mol
# GULP energy per Si atom -12403.570634 kJ/mol
# Density = 1.896627 g / cm^3
# Si number density = 19.009536 Si / 1000 Ang^3
#
#
#
# Elastic Constant Matrix: (Units=GPa)
#
#
# Indices 1 2 3 4 5 6 
#
# 1 102.9765 71.3328 26.5865 7.3536 -0.0004 0.0001
# 2 71.3328 102.9762 26.5848 -7.3536 0.0006 -0.0001
# 3 26.5865 26.5848 59.5034 -0.0004 0.0009 0.0005
# 4 7.3536 -7.3536 -0.0004 29.5863 -0.0001 0.0007
# 5 -0.0004 0.0006 0.0009 -0.0001 29.5865 7.3539
# 6 0.0001 -0.0001 0.0005 0.0007 7.3539 15.8216
#
#
#
# Elastic Compliance Matrix: (Units=1/GPa)
#
#
# Indices 1 2 3 4 5 6 
#
# 1 0.021186 -0.014544 -0.002968 -0.008881 0.000001 0.000000
# 2 -0.014544 0.021186 -0.002967 0.008880 -0.000001 0.000000
# 3 -0.002968 -0.002967 0.019458 0.000001 0.000000 0.000000
# 4 -0.008881 0.008880 0.000001 0.038214 0.000000 -0.000002
# 5 0.000001 -0.000001 0.000000 0.000000 0.038214 -0.017762
# 6 0.000000 0.000000 0.000000 -0.000002 -0.017762 0.071460
#
#
# Mechanical properties :
#
#
# Convention : Reuss Voigt Hill
#
# Bulk Modulus (GPa) = 47.91266 57.16269 52.53767
# Shear Modulus (GPa) = 19.40748 24.39569 21.90158
#
# Velocity S-wave (km/s) = 3.19867 3.58626 3.39800
# Velocity P-wave (km/s) = 6.23709 6.87635 6.56450
#
# Compressibility (1/GPa) = 0.02087131
#
# Stress axis : x y z
#
# Youngs Moduli (GPa) = 47.20101 47.20178 51.39367
#
# Poissons Ratio (x) = 0.68648 0.15255
# Poissons Ratio (y) = 0.68647 0.15249
# Poissons Ratio (z) = 0.14011 0.14005
#
# Static dielectric constant tensor:
#      x y z
#    x 3.704320 0.000000 0.000000 
#    y 0.000000 3.704320 0.000000 
#    z 0.000000 0.000000 3.506110 
# 
# 
# High freq. dielectric constant tensor:
#      x y z
#    x 1.746850 0.000000 0.000000 
#    y 0.000000 1.746850 0.000000 
#    z 0.000000 0.000000 1.744100 
# 
# From -- ./inp_files/2840.got.cif
#   From: 2010.03.12/outbox.cif.g09.slc.cpg/sg166_2_cif.got.tgz:2840.got - 2010.04.02 06:38:31.
