data_PCOD8324883
_publ_section_title
;
Structure prediction by ZEFSAII (Michael W. Deem and Ramdas Pophale) SiO2 
 PCOD8324883
Probable space group: P 63
;
_chemical_formula_sum "Si O2"
_cell_formula_units_Z 42
_cell_length_a 11.308863
_cell_length_b 11.308863
_cell_length_c 17.322877
_cell_angle_alpha 90.000000
_cell_angle_beta 90.000000
_cell_angle_gamma 120.000000
_cell_volume 1918.618109
_symmetry_space_group_name_H-M "P 63"
_symmetry_group_IT_number 173
_symmetry_cell_setting 'hexagonal'
loop_
_space_group_symop_operation_xyz
x,y,z
x-y,x,1/2+z
-y,x-y,z
-x,-y,1/2+z
-x+y,-x,z
y,-x+y,1/2+z
loop_
_atom_site_type_symbol
_atom_site_label
_atom_site_fract_x
_atom_site_fract_y
_atom_site_fract_z
Si Si1 0.326829 0.510388 0.907940
Si Si2 0.038829 0.754891 0.030794
Si Si3 0.939971 0.366902 0.149655
Si Si4 0.078849 0.691504 0.336886
Si Si5 0.935680 0.574503 0.803962
Si Si6 0.280593 0.032865 0.000499
Si Si7 0.919628 0.617556 0.180940
O O1 0.464785 0.661349 0.905505
O O2 0.332232 0.424413 0.834681
O O3 0.320669 0.427198 0.984776
O O4 0.884475 0.701254 0.002812
O O5 0.036100 0.719182 0.121096
O O6 0.125663 0.917744 0.019279
O O7 0.984697 0.364177 0.061741
O O8 0.871946 0.461691 0.157130
O O9 0.844264 0.212269 0.175676
O O10 0.065730 0.428879 0.210457
O O11 0.207483 0.842790 0.331184
O O12 0.126500 0.578748 0.337416
O O13 0.003277 0.685344 0.416237
O O14 0.974928 0.659121 0.266964
#
# Coordination Sequence:
#
# PCOD8324883 Si02
#       7
#     6   6   6   6   6   6   6
#     4  10  24  39  67 101 133 170 223 289 332 393
#     4  11  23  44  64  97 131 175 225 273 339 398
#     4  10  24  39  64  93 131 170 215 271 330 397
#     4  11  24  41  66  93 133 170 219 272 330 402
#     4  11  23  43  64  97 132 173 216 270 336 397
#     4  11  24  42  66  93 132 172 225 275 328 406
#     4  10  24  42  65  96 132 174 217 274 337 395
#
# _framework density 21.890754000000001
#
# number of rings (size 3 to 8) (size 9 to 14) (size 15 to 20)
#    0.286    1.143    1.429    2.571   10.000    0.000 
#    0.000    0.000    0.000    2.286    0.000    0.000 
#    0.000    0.000    0.000    0.000    0.000    0.000 
#
# Total GULP energy -520722.201063 kJ/mol
# GULP energy per Si atom -12398.147644 kJ/mol
# Density = 2.184093 g / cm^3
# Si number density = 21.890754 Si / 1000 Ang^3
#
#
#
# Elastic Constant Matrix: (Units=GPa)
#
#
# Indices 1 2 3 4 5 6 
#
# 1 89.7174 28.6598 43.3259 0.0000 0.0000 0.0000
# 2 28.6598 89.7174 43.3259 0.0000 0.0000 0.0000
# 3 43.3259 43.3259 177.7176 0.0000 0.0000 0.0000
# 4 0.0000 0.0000 0.0000 28.1771 0.0000 0.0000
# 5 0.0000 0.0000 0.0000 0.0000 28.1771 0.0000
# 6 0.0000 0.0000 0.0000 0.0000 0.0000 30.5288
#
#
#
# Elastic Compliance Matrix: (Units=1/GPa)
#
#
# Indices 1 2 3 4 5 6 
#
# 1 0.013330 -0.003048 -0.002507 0.000000 0.000000 0.000000
# 2 -0.003048 0.013330 -0.002507 0.000000 0.000000 0.000000
# 3 -0.002507 -0.002507 0.006849 0.000000 0.000000 0.000000
# 4 0.000000 0.000000 0.000000 0.035490 0.000000 0.000000
# 5 0.000000 0.000000 0.000000 0.000000 0.035490 0.000000
# 6 0.000000 0.000000 0.000000 0.000000 0.000000 0.032756
#
#
# Mechanical properties :
#
#
# Convention : Reuss Voigt Hill
#
# Bulk Modulus (GPa) = 57.51394 65.30840 61.41117
# Shear Modulus (GPa) = 31.41420 33.49929 32.45675
#
# Velocity S-wave (km/s) = 3.79231 3.91614 3.85472
# Velocity P-wave (km/s) = 6.74579 7.09555 6.92288
#
# Compressibility (1/GPa) = 0.01738709
#
# Stress axis : x y z
#
# Youngs Moduli (GPa) = 75.01728 75.01728 146.00311
#
# Poissons Ratio (x) = 0.22863 0.36600
# Poissons Ratio (y) = 0.22863 0.36600
# Poissons Ratio (z) = 0.18805 0.18805
#
# Static dielectric constant tensor:
#      x y z
#    x 3.774370 0.000000 0.000000 
#    y 0.000000 3.774370 0.000000 
#    z 0.000000 0.000000 4.133920 
# 
# 
# High freq. dielectric constant tensor:
#      x y z
#    x 1.854460 0.000000 0.000000 
#    y 0.000000 1.854460 0.000000 
#    z 0.000000 0.000000 1.874410 
# 
# From -- ./inp_files/1305.got.cif
#   From: 2010.03.12/outbox.cif.g09.slc.cpg/sg173_cif.got.tgz:1305.got - 2010.04.02 06:54:12.
