data_PCOD8324626
_publ_section_title
;
Structure prediction by ZEFSAII (Michael W. Deem and Ramdas Pophale) SiO2 
 PCOD8324626
Probable space group: P 65
;
_chemical_formula_sum "Si O2"
_cell_formula_units_Z 42
_cell_length_a 11.718814
_cell_length_b 11.718814
_cell_length_c 17.883038
_cell_angle_alpha 90.000000
_cell_angle_beta 90.000000
_cell_angle_gamma 120.000000
_cell_volume 2126.861714
_symmetry_space_group_name_H-M "P 65"
_symmetry_group_IT_number 170
_symmetry_cell_setting 'hexagonal'
loop_
_space_group_symop_operation_xyz
x,y,z
x-y,x,5/6+z
-y,x-y,2/3+z
-x,-y,1/2+z
-x+y,-x,1/3+z
y,-x+y,1/6+z
loop_
_atom_site_type_symbol
_atom_site_label
_atom_site_fract_x
_atom_site_fract_y
_atom_site_fract_z
Si Si1 0.317189 0.640302 0.271180
Si Si2 0.547332 0.889829 0.824009
Si Si3 0.901416 0.307326 0.264384
Si Si4 0.469691 0.314250 0.882292
Si Si5 0.450383 0.352967 0.551839
Si Si6 0.319088 0.926035 0.455517
Si Si7 0.459623 0.135401 0.002929
O O1 0.352855 0.573491 0.204342
O O2 0.456139 0.722550 0.316364
O O3 0.209668 0.529997 0.324248
O O4 0.244188 0.717232 0.237501
O O5 0.488407 0.948256 0.763208
O O6 0.622251 0.824669 0.781738
O O7 0.654870 0.001454 0.876748
O O8 0.862737 0.419997 0.257518
O O9 0.773385 0.162743 0.273335
O O10 0.975779 0.331935 0.342947
O O11 0.985916 0.309377 0.192512
O O12 0.351881 0.341424 0.858022
O O13 0.403786 0.193572 0.940490
O O14 0.426229 0.881739 0.465912
#
# Coordination Sequence:
#
# PCOD8324626 Si02
#       7
#     6   6   6   6   6   6   6
#     4  10  16  34  50  76 116 164 196 236 302 356
#     4  11  20  33  52  84 119 162 196 245 299 371
#     4  10  17  35  54  79 118 163 195 244 302 366
#     4  10  19  34  54  81 120 168 193 244 303 363
#     4  11  20  33  52  84 119 162 196 245 299 371
#     4  10  17  35  54  79 118 163 195 244 302 366
#     4  10  19  34  54  81 120 168 193 244 303 363
#
# _framework density 19.747405000000001
#
# number of rings (size 3 to 8) (size 9 to 14) (size 15 to 20)
#    0.000    1.714    8.571    3.429    0.000    0.000 
#   10.286    0.000    0.000    0.000    0.000    0.000 
#    0.000   45.714    0.000    0.000    0.000    0.000 
#
# Total GULP energy -520398.373030 kJ/mol
# GULP energy per Si atom -12390.437453 kJ/mol
# Density = 1.970246 g / cm^3
# Si number density = 19.747405 Si / 1000 Ang^3
#
#
#
# Elastic Constant Matrix: (Units=GPa)
#
#
# Indices 1 2 3 4 5 6 
#
# 1 76.5000 53.9311 53.5108 0.0000 0.0000 0.0000
# 2 53.9311 76.5000 53.5108 0.0000 0.0000 0.0000
# 3 53.5108 53.5108 86.4476 0.0000 0.0000 0.0000
# 4 0.0000 0.0000 0.0000 27.2933 0.0000 0.0000
# 5 0.0000 0.0000 0.0000 0.0000 27.2933 0.0000
# 6 0.0000 0.0000 0.0000 0.0000 0.0000 11.2844
#
#
#
# Elastic Compliance Matrix: (Units=1/GPa)
#
#
# Indices 1 2 3 4 5 6 
#
# 1 0.029944 -0.014364 -0.009644 0.000000 0.000000 0.000000
# 2 -0.014364 0.029944 -0.009644 0.000000 0.000000 0.000000
# 3 -0.009644 -0.009644 0.023507 0.000000 0.000000 0.000000
# 4 0.000000 0.000000 0.000000 0.036639 0.000000 0.000000
# 5 0.000000 0.000000 0.000000 0.000000 0.036639 0.000000
# 6 0.000000 0.000000 0.000000 0.000000 0.000000 0.088618
#
#
# Mechanical properties :
#
#
# Convention : Reuss Voigt Hill
#
# Bulk Modulus (GPa) = 62.14666 62.37258 62.25962
# Shear Modulus (GPa) = 15.72528 18.40721 17.06624
#
# Velocity S-wave (km/s) = 2.82498 3.05640 2.94296
# Velocity P-wave (km/s) = 6.49460 6.64148 6.56845
#
# Compressibility (1/GPa) = 0.01609097
#
# Stress axis : x y z
#
# Youngs Moduli (GPa) = 33.39527 33.39527 42.54080
#
# Poissons Ratio (x) = 0.47970 0.41026
# Poissons Ratio (y) = 0.47970 0.41026
# Poissons Ratio (z) = 0.32206 0.32206
#
# Static dielectric constant tensor:
#      x y z
#    x 3.583720 0.000000 0.000000 
#    y 0.000000 3.583720 0.000000 
#    z 0.000000 0.000000 3.814510 
# 
# 
# High freq. dielectric constant tensor:
#      x y z
#    x 1.734240 0.000000 0.000000 
#    y 0.000000 1.734240 0.000000 
#    z 0.000000 0.000000 1.775750 
# 
# From -- ./inp_files/1429.got.cif
#   From: 2010.03.12/outbox.cif.g09.slc.cpg/sg170_cif.got.tgz:1429.got - 2010.04.02 06:47:37.
