data_PCOD8324021
_publ_section_title
;
Structure prediction by ZEFSAII (Michael W. Deem and Ramdas Pophale) SiO2 
 PCOD8324021
Probable space group: R -3 M
;
_chemical_formula_sum "Si O2"
_cell_formula_units_Z 162
_cell_length_a 23.232227
_cell_length_b 23.232227
_cell_length_c 19.521654
_cell_angle_alpha 90.000000
_cell_angle_beta 90.000000
_cell_angle_gamma 120.000000
_cell_volume 9124.917105
_symmetry_space_group_name_H-M "R -3 M"
_symmetry_group_IT_number 166
_symmetry_cell_setting 'hexagonal'
loop_
_space_group_symop_operation_xyz
x,y,z
-y,x-y,z
-x+y,-x,z
x-y,-y,-z
-x,-x+y,-z
y,x,-z
-x,-y,-z
y,-x+y,-z
x-y,x,-z
-x+y,y,z
x,x-y,z
-y,-x,z
2/3+x,1/3+y,1/3+z
2/3-y,1/3+x-y,1/3+z
2/3-x+y,1/3-x,1/3+z
2/3+x-y,1/3-y,1/3-z
2/3-x,1/3-x+y,1/3-z
2/3+y,1/3+x,1/3-z
2/3-x,1/3-y,1/3-z
2/3+y,1/3-x+y,1/3-z
2/3+x-y,1/3+x,1/3-z
2/3-x+y,1/3+y,1/3+z
2/3+x,1/3+x-y,1/3+z
2/3-y,1/3-x,1/3+z
1/3+x,2/3+y,2/3+z
1/3-y,2/3+x-y,2/3+z
1/3-x+y,2/3-x,2/3+z
1/3+x-y,2/3-y,2/3-z
1/3-x,2/3-x+y,2/3-z
1/3+y,2/3+x,2/3-z
1/3-x,2/3-y,2/3-z
1/3+y,2/3-x+y,2/3-z
1/3+x-y,2/3+x,2/3-z
1/3-x+y,2/3+y,2/3+z
1/3+x,2/3+x-y,2/3+z
1/3-y,2/3-x,2/3+z
loop_
_atom_site_type_symbol
_atom_site_label
_atom_site_fract_x
_atom_site_fract_y
_atom_site_fract_z
Si Si1 0.360596 0.847521 0.736626
Si Si2 0.996620 0.433001 0.252393
Si Si3 0.935386 0.534288 0.608330
Si Si4 0.666667 0.984505 0.833334
Si Si5 0.868972 0.001870 0.210710
O O1 0.416673 0.833345 0.764041
O O2 0.333334 0.806743 0.666667
O O3 0.314722 0.822430 0.804457
O O4 0.389108 0.923494 0.715432
O O5 0.007522 0.503761 0.224902
O O6 0.048421 0.443964 0.312416
O O7 0.000061 0.390986 0.189165
O O8 0.954639 0.477320 0.591061
O O9 0.856398 0.504978 0.600367
O O10 0.977494 0.599213 0.562116
O O11 0.854297 0.927149 0.223025
O O12 0.947780 0.052221 0.217199
#
# Coordination Sequence:
#
# PCOD8324021 Si02
#       5
#    36  36  36  18  36
#     4  10  18  30  46  69 101 133 170 212 257 314
#     4  10  22  36  51  75 107 137 173 222 269 318
#     4  10  21  34  51  78 108 139 179 224 267 318
#     4  12  19  34  58  76 104 140 179 216 268 326
#     4  10  20  34  52  74 104 141 181 224 269 322
#
# _framework density 17.753585999999999
#
# number of rings (size 3 to 8) (size 9 to 14) (size 15 to 20)
#    0.000    1.778    2.222    3.222    0.000    0.000 
#    0.000    1.111    0.000    6.222    0.000    0.000 
#    0.000    0.000    0.000   16.333    0.000    0.000 
#
# Total GULP energy -669083.439133 kJ/mol
# GULP energy per Si atom -12390.434058 kJ/mol
# Density = 1.771318 g / cm^3
# Si number density = 17.753586 Si / 1000 Ang^3
#
#
#
# Elastic Constant Matrix: (Units=GPa)
#
#
# Indices 1 2 3 4 5 6 
#
# 1 57.3030 64.1661 36.7730 -8.0882 -0.0015 0.0000
# 2 64.1661 57.3030 36.7730 8.0882 0.0015 0.0000
# 3 36.7730 36.7730 63.5255 0.0000 0.0000 0.0000
# 4 -8.0882 8.0882 0.0000 26.0523 0.0000 0.0015
# 5 -0.0015 0.0015 0.0000 0.0000 26.0523 -8.0882
# 6 0.0000 0.0000 0.0000 0.0015 -8.0882 -3.4316
#
#
#
# Elastic Compliance Matrix: (Units=1/GPa)
#
#
# Indices 1 2 3 4 5 6 
#
# 1 -0.035731 0.048406 -0.007337 -0.026121 -0.000005 0.000000
# 2 0.048406 -0.035731 -0.007337 0.026121 0.000005 0.000000
# 3 -0.007337 -0.007337 0.024236 0.000000 0.000000 0.000000
# 4 -0.026121 0.026121 0.000000 0.022165 0.000000 0.000009
# 5 -0.000005 0.000005 0.000000 0.000000 0.022165 -0.052243
# 6 0.000000 0.000000 0.000000 0.000009 -0.052243 -0.168274
#
#
# Mechanical properties :
#
#
# Convention : Reuss Voigt Hill
#
# Bulk Modulus (GPa) = 49.41312 50.39508 49.90410
# Shear Modulus (GPa) = -21.56217 12.42921 -4.56648
#
# Velocity S-wave (km/s) = -3.48878 2.64880 -1.60553
# Velocity P-wave (km/s) = 3.41531 6.14836 4.97326
#
# Compressibility (1/GPa) = 0.02023754
#
# Stress axis : x y z
#
# Youngs Moduli (GPa) = -27.98687 -27.98687 41.26053
#
# Poissons Ratio (x) = 1.35473 0.30274
# Poissons Ratio (y) = 1.35473 0.30274
# Poissons Ratio (z) = -0.20534 -0.20534
#
# Static dielectric constant tensor:
#      x y z
#    x 3.315510 0.000000 0.000000 
#    y 0.000000 3.315510 0.000000 
#    z 0.000000 0.000000 2.869670 
# 
# 
# High freq. dielectric constant tensor:
#      x y z
#    x 1.683910 0.000000 0.000000 
#    y 0.000000 1.683910 0.000000 
#    z 0.000000 0.000000 1.663440 
# 
# From -- ./inp_files/4160.got.cif
#   From: 2010.03.12/outbox.cif.g09.slc.cpg/sg166_3_cif.got.tgz:4160.got - 2010.04.02 06:38:31.
