data_PCOD8324574
_publ_section_title
;
Structure prediction by ZEFSAII (Michael W. Deem and Ramdas Pophale) SiO2 
 PCOD8324574
Probable space group: P 61
;
_chemical_formula_sum "Si O2"
_cell_formula_units_Z 42
_cell_length_a 8.814825
_cell_length_b 8.814825
_cell_length_c 26.285451
_cell_angle_alpha 90.000000
_cell_angle_beta 90.000000
_cell_angle_gamma 120.000000
_cell_volume 1768.778514
_symmetry_space_group_name_H-M "P 61"
_symmetry_group_IT_number 169
_symmetry_cell_setting 'hexagonal'
loop_
_space_group_symop_operation_xyz
x,y,z
x-y,x,1/6+z
-y,x-y,1/3+z
-x,-y,1/2+z
-x+y,-x,2/3+z
y,-x+y,5/6+z
loop_
_atom_site_type_symbol
_atom_site_label
_atom_site_fract_x
_atom_site_fract_y
_atom_site_fract_z
Si Si1 0.989088 0.769678 0.573960
Si Si2 0.544977 0.961824 0.568749
Si Si3 0.107360 0.169036 0.559550
Si Si4 0.130626 0.799858 0.128144
Si Si5 0.728526 0.227040 0.886912
Si Si6 0.724472 0.194086 0.148573
Si Si7 0.725048 0.259894 0.307785
O O1 0.950703 0.678321 0.518735
O O2 0.830926 0.651196 0.612204
O O3 0.158938 0.777244 0.598460
O O4 0.009518 0.959810 0.566826
O O5 0.467527 0.884679 0.624647
O O6 0.506072 0.803228 0.531075
O O7 0.749512 0.094697 0.579565
O O8 0.468232 0.077522 0.544018
O O9 0.061108 0.234094 0.507209
O O10 0.314657 0.261339 0.551333
O O11 0.064667 0.258530 0.606896
O O12 0.140260 0.626811 0.143209
O O13 0.590964 0.218831 0.845341
O O14 0.669487 0.235942 0.944341
#
# Coordination Sequence:
#
# PCOD8324574 Si02
#       7
#     6   6   6   6   6   6   6
#     4  11  25  46  75 111 146 207 243 319 374 465
#     4  11  26  46  78 106 153 200 249 312 377 464
#     4  12  26  46  73 110 149 187 254 307 376 432
#     4  11  29  45  73 111 152 191 247 324 367 449
#     4  10  25  47  74 115 140 199 244 316 368 457
#     4  11  25  46  79 107 160 192 260 303 394 453
#     4  10  26  50  74 106 152 196 253 293 396 446
#
# _framework density 23.745199
#
# number of rings (size 3 to 8) (size 9 to 14) (size 15 to 20)
#    0.000    1.143    1.429    1.714   16.000    1.143 
#    2.571    0.000    0.000    0.000    0.000    0.000 
#    0.000    0.000    0.000    0.000    0.000    0.000 
#
# Total GULP energy -520687.129731 kJ/mol
# GULP energy per Si atom -12397.312613 kJ/mol
# Density = 2.369115 g / cm^3
# Si number density = 23.745199 Si / 1000 Ang^3
#
#
#
# Elastic Constant Matrix: (Units=GPa)
#
#
# Indices 1 2 3 4 5 6 
#
# 1 107.1247 47.7901 50.0288 0.0000 0.0000 0.0000
# 2 47.7901 107.1247 50.0288 0.0000 0.0000 0.0000
# 3 50.0288 50.0288 117.0829 0.0000 0.0000 0.0000
# 4 0.0000 0.0000 0.0000 37.8696 0.0000 0.0000
# 5 0.0000 0.0000 0.0000 0.0000 37.8696 0.0000
# 6 0.0000 0.0000 0.0000 0.0000 0.0000 29.6673
#
#
#
# Elastic Compliance Matrix: (Units=1/GPa)
#
#
# Indices 1 2 3 4 5 6 
#
# 1 0.012885 -0.003969 -0.003810 0.000000 0.000000 0.000000
# 2 -0.003969 0.012885 -0.003810 0.000000 0.000000 0.000000
# 3 -0.003810 -0.003810 0.011797 0.000000 0.000000 0.000000
# 4 0.000000 0.000000 0.000000 0.026406 0.000000 0.000000
# 5 0.000000 0.000000 0.000000 0.000000 0.026406 0.000000
# 6 0.000000 0.000000 0.000000 0.000000 0.000000 0.033707
#
#
# Mechanical properties :
#
#
# Convention : Reuss Voigt Hill
#
# Bulk Modulus (GPa) = 69.49480 69.66975 69.58228
# Shear Modulus (GPa) = 32.88201 33.31362 33.09781
#
# Velocity S-wave (km/s) = 3.72531 3.74968 3.73751
# Velocity P-wave (km/s) = 6.91624 6.93909 6.92767
#
# Compressibility (1/GPa) = 0.01438957
#
# Stress axis : x y z
#
# Youngs Moduli (GPa) = 77.61162 77.61162 84.76992
#
# Poissons Ratio (x) = 0.30803 0.32294
# Poissons Ratio (y) = 0.30803 0.32294
# Poissons Ratio (z) = 0.29567 0.29567
#
# Static dielectric constant tensor:
#      x y z
#    x 4.271750 0.000000 0.000000 
#    y 0.000000 4.271750 0.000000 
#    z 0.000000 0.000000 4.378330 
# 
# 
# High freq. dielectric constant tensor:
#      x y z
#    x 1.942090 0.000000 0.000000 
#    y 0.000000 1.942090 0.000000 
#    z 0.000000 0.000000 1.950460 
# 
# From -- ./inp_files/1830.got.cif
#   From: 2010.03.12/outbox.cif.g09.slc.cpg/sg169_cif.got.tgz:1830.got - 2010.04.02 06:46:06.
