data_PCOD8324262
_publ_section_title
;
Structure prediction by ZEFSAII (Michael W. Deem and Ramdas Pophale) SiO2 
 PCOD8324262
Probable space group: R -3 M
;
_chemical_formula_sum "Si O2"
_cell_formula_units_Z 48
_cell_length_a 30.000000
_cell_length_b 30.000000
_cell_length_c 9.000000
_cell_angle_alpha 90.000000
_cell_angle_beta 90.000000
_cell_angle_gamma 120.000000
_cell_volume 7014.805771
_symmetry_space_group_name_H-M "R -3 M"
_symmetry_group_IT_number 166
_symmetry_cell_setting 'hexagonal'
loop_
_space_group_symop_operation_xyz
x,y,z
-y,x-y,z
-x+y,-x,z
x-y,-y,-z
-x,-x+y,-z
y,x,-z
-x,-y,-z
y,-x+y,-z
x-y,x,-z
-x+y,y,z
x,x-y,z
-y,-x,z
2/3+x,1/3+y,1/3+z
2/3-y,1/3+x-y,1/3+z
2/3-x+y,1/3-x,1/3+z
2/3+x-y,1/3-y,1/3-z
2/3-x,1/3-x+y,1/3-z
2/3+y,1/3+x,1/3-z
2/3-x,1/3-y,1/3-z
2/3+y,1/3-x+y,1/3-z
2/3+x-y,1/3+x,1/3-z
2/3-x+y,1/3+y,1/3+z
2/3+x,1/3+x-y,1/3+z
2/3-y,1/3-x,1/3+z
1/3+x,2/3+y,2/3+z
1/3-y,2/3+x-y,2/3+z
1/3-x+y,2/3-x,2/3+z
1/3+x-y,2/3-y,2/3-z
1/3-x,2/3-x+y,2/3-z
1/3+y,2/3+x,2/3-z
1/3-x,2/3-y,2/3-z
1/3+y,2/3-x+y,2/3-z
1/3+x-y,2/3+x,2/3-z
1/3-x+y,2/3+y,2/3+z
1/3+x,2/3+x-y,2/3+z
1/3-y,2/3-x,2/3+z
loop_
_atom_site_type_symbol
_atom_site_label
_atom_site_fract_x
_atom_site_fract_y
_atom_site_fract_z
Si Si1 0.301199 0.057134 0.020228
Si Si2 0.089683 0.278303 0.528970
Si Si3 0.476104 0.630973 0.030351
Si Si4 0.177440 0.455347 0.841662
O O1 0.333334 0.083247 0.166667
O O2 0.246237 0.055403 0.036597
O O3 0.335825 0.089640 0.878251
O O4 0.291457 0.000000 0.000000
O O5 0.148973 0.297946 0.494634
O O6 0.054440 0.238962 0.398776
O O7 0.072384 0.245841 0.678998
O O8 0.418434 0.581567 0.011392
O O9 0.476079 0.666667 0.166667
O O10 0.495313 0.665284 0.878292
O O11 0.237184 0.474368 0.805083
#
# Coordination Sequence:
#
# PCOD8324262 Si02
#       4
#    36  36  36  36
#     4  10  20  31  46  68  95 128 165 201 238 281
#     4   8  15  29  48  68  92 123 157 193 238 292
#     4   9  16  28  49  75 101 128 158 198 249 301
#     4   9  17  31  50  69  94 130 167 201 239 289
#
# _framework density 6.84267
#
# number of rings (size 3 to 8) (size 9 to 14) (size 15 to 20)
#    0.000    3.000    0.000    3.000    0.000    8.000 
#    0.000    2.500    0.000    7.500    0.000    0.000 
#    0.000    2.000    0.000    0.000    0.000    0.000 
#
# Total GULP energy -594690.848014 kJ/mol
# GULP energy per Si atom -12389.392667 kJ/mol
# Density = 0.682710 g / cm^3
# Si number density = 6.842670 Si / 1000 Ang^3
#
#
#
# Elastic Constant Matrix: (Units=GPa)
#
#
# Indices 1 2 3 4 5 6 
#
# 1 149.0409 69.3085 22.0283 5.3548 -0.1196 -0.0316
# 2 69.3085 149.0962 22.0712 -5.4271 -0.1070 -0.0274
# 3 22.0283 22.0712 8.9978 -0.0679 -0.2980 -0.0611
# 4 5.3548 -5.4271 -0.0679 16.5396 0.0089 0.0315
# 5 -0.1196 -0.1070 -0.2980 0.0089 16.2711 5.3674
# 6 -0.0316 -0.0274 -0.0611 0.0315 5.3674 39.8866
#
#
#
# Elastic Compliance Matrix: (Units=1/GPa)
#
#
# Indices 1 2 3 4 5 6 
#
# 1 0.011093 -0.002023 -0.022241 -0.004347 -0.000344 0.000023
# 2 -0.002023 0.011092 -0.022235 0.004203 -0.000357 0.000017
# 3 -0.022241 -0.022235 0.220260 0.000807 0.003792 -0.000206
# 4 -0.004347 0.004203 0.000807 0.063251 -0.000008 -0.000048
# 5 -0.000344 -0.000357 0.003792 -0.000008 0.064379 -0.008658
# 6 0.000023 0.000017 -0.000206 -0.000048 -0.008658 0.026236
#
#
# Mechanical properties :
#
#
# Convention : Reuss Voigt Hill
#
# Bulk Modulus (GPa) = 6.69129 59.32789 33.00959
# Shear Modulus (GPa) = 9.27429 27.45456 18.36443
#
# Velocity S-wave (km/s) = 2.12783 3.66104 2.99424
# Velocity P-wave (km/s) = 3.05018 6.84359 5.29803
#
# Compressibility (1/GPa) = 0.14944793
#
# Stress axis : x y z
#
# Youngs Moduli (GPa) = 90.14396 90.15707 4.54009
#
# Poissons Ratio (x) = 0.18238 0.10097
# Poissons Ratio (y) = 0.18236 0.10095
# Poissons Ratio (z) = 2.00485 2.00465
#
# Static dielectric constant tensor:
#      x y z
#    x 3.917290 -0.000110 -0.000250 
#    y -0.000110 3.917330 -0.000130 
#    z -0.000250 -0.000130 3.489670 
# 
# 
# High freq. dielectric constant tensor:
#      x y z
#    x 1.799190 0.000000 -0.000040 
#    y 0.000000 1.799210 0.000000 
#    z -0.000040 0.000000 1.773030 
# 
# From -- ./inp_files/1810.got.cif
#   From: 2010.03.12/outbox.ucp.g09.slc.cvg/sg166_1_cif.got.tgz:1810.got - 2010.05.04 20:39:47.
