data_PCOD8324457
_publ_section_title
;
Structure prediction by ZEFSAII (Michael W. Deem and Ramdas Pophale) SiO2 
 PCOD8324457
Probable space group: P 61
;
_chemical_formula_sum "Si O2"
_cell_formula_units_Z 42
_cell_length_a 17.525682
_cell_length_b 17.525682
_cell_length_c 7.824225
_cell_angle_alpha 90.000000
_cell_angle_beta 90.000000
_cell_angle_gamma 120.000000
_cell_volume 2081.238337
_symmetry_space_group_name_H-M "P 61"
_symmetry_group_IT_number 169
_symmetry_cell_setting 'hexagonal'
loop_
_space_group_symop_operation_xyz
x,y,z
x-y,x,1/6+z
-y,x-y,1/3+z
-x,-y,1/2+z
-x+y,-x,2/3+z
y,-x+y,5/6+z
loop_
_atom_site_type_symbol
_atom_site_label
_atom_site_fract_x
_atom_site_fract_y
_atom_site_fract_z
Si Si1 0.194747 0.652461 0.907860
Si Si2 0.123382 0.957823 0.348745
Si Si3 0.343876 0.123576 0.115642
Si Si4 0.643460 0.175436 0.781182
Si Si5 0.829783 0.936273 0.491316
Si Si6 0.398432 0.773740 0.934293
Si Si7 0.745132 0.078559 0.725357
O O1 0.166367 0.724965 0.874760
O O2 0.149704 0.578576 0.762616
O O3 0.299741 0.698731 0.889281
O O4 0.166558 0.608855 0.097853
O O5 0.187155 0.916604 0.372655
O O6 0.020911 0.883080 0.341791
O O7 0.150278 0.011067 0.170044
O O8 0.276021 0.117384 0.967491
O O9 0.340539 0.190655 0.252770
O O10 0.313944 0.023808 0.172034
O O11 0.599394 0.167482 0.594409
O O12 0.726277 0.272146 0.812140
O O13 0.676783 0.105848 0.796555
O O14 0.870711 0.872053 0.498204
#
# Coordination Sequence:
#
# PCOD8324457 Si02
#       7
#     6   6   6   6   6   6   6
#     4  11  20  36  58  91 115 155 205 250 303 362
#     4   9  15  27  51  86 109 149 201 253 302 369
#     4  11  19  33  56  87 119 155 202 257 312 378
#     4  11  20  36  58  91 115 155 205 250 303 362
#     4   9  15  27  51  86 109 149 201 253 302 369
#     4  10  18  34  64  84 110 158 200 246 302 364
#     4  11  19  33  56  87 119 155 202 257 312 378
#
# _framework density 20.180294
#
# number of rings (size 3 to 8) (size 9 to 14) (size 15 to 20)
#    0.000    1.714   11.429    0.000    0.000    0.000 
#    2.571    0.000    0.000    0.000   66.857    0.000 
#    0.000    0.000    0.000    0.000    0.000    0.000 
#
# Total GULP energy -520355.320981 kJ/mol
# GULP energy per Si atom -12389.412404 kJ/mol
# Density = 2.013436 g / cm^3
# Si number density = 20.180294 Si / 1000 Ang^3
#
#
#
# Elastic Constant Matrix: (Units=GPa)
#
#
# Indices 1 2 3 4 5 6 
#
# 1 73.1910 9.8383 24.4632 0.0000 0.0000 0.0000
# 2 9.8383 73.1910 24.4632 0.0000 0.0000 0.0000
# 3 24.4632 24.4632 91.8650 0.0000 0.0000 0.0000
# 4 0.0000 0.0000 0.0000 6.9779 0.0000 0.0000
# 5 0.0000 0.0000 0.0000 0.0000 6.9779 0.0000
# 6 0.0000 0.0000 0.0000 0.0000 0.0000 31.6763
#
#
#
# Elastic Compliance Matrix: (Units=1/GPa)
#
#
# Indices 1 2 3 4 5 6 
#
# 1 0.015035 -0.000750 -0.003804 0.000000 0.000000 0.000000
# 2 -0.000750 0.015035 -0.003804 0.000000 0.000000 0.000000
# 3 -0.003804 -0.003804 0.012912 0.000000 0.000000 0.000000
# 4 0.000000 0.000000 0.000000 0.143309 0.000000 0.000000
# 5 0.000000 0.000000 0.000000 0.000000 0.143309 0.000000
# 6 0.000000 0.000000 0.000000 0.000000 0.000000 0.031569
#
#
# Mechanical properties :
#
#
# Convention : Reuss Voigt Hill
#
# Bulk Modulus (GPa) = 38.07189 39.53070 38.80129
# Shear Modulus (GPa) = 12.93192 21.09192 17.01192
#
# Velocity S-wave (km/s) = 2.53419 3.23642 2.90659
# Velocity P-wave (km/s) = 5.24115 5.79631 5.52571
#
# Compressibility (1/GPa) = 0.02626610
#
# Stress axis : x y z
#
# Youngs Moduli (GPa) = 66.51086 66.51086 77.44973
#
# Poissons Ratio (x) = 0.04985 0.29463
# Poissons Ratio (y) = 0.04985 0.29463
# Poissons Ratio (z) = 0.25302 0.25302
#
# Static dielectric constant tensor:
#      x y z
#    x 3.876040 0.000000 0.000000 
#    y 0.000000 3.876040 0.000000 
#    z 0.000000 0.000000 3.471090 
# 
# 
# High freq. dielectric constant tensor:
#      x y z
#    x 1.784830 0.000000 0.000000 
#    y 0.000000 1.784830 0.000000 
#    z 0.000000 0.000000 1.759250 
# 
# From -- ./inp_files/679.got.cif
#   From: 2010.03.12/outbox.cif.g09.slc.cpg/sg169_cif.got.tgz:679.got - 2010.04.02 06:46:06.
