data_PCOD8324432
_publ_section_title
;
Structure prediction by ZEFSAII (Michael W. Deem and Ramdas Pophale) SiO2 
 PCOD8324432
Probable space group: P 6
;
_chemical_formula_sum "Si O2"
_cell_formula_units_Z 42
_cell_length_a 11.608086
_cell_length_b 11.608086
_cell_length_c 18.056632
_cell_angle_alpha 90.000000
_cell_angle_beta 90.000000
_cell_angle_gamma 120.000000
_cell_volume 2107.116814
_symmetry_space_group_name_H-M "P 6"
_symmetry_group_IT_number 168
_symmetry_cell_setting 'hexagonal'
loop_
_space_group_symop_operation_xyz
x,y,z
x-y,x,z
-y,x-y,z
-x,-y,z
-x+y,-x,z
y,-x+y,z
loop_
_atom_site_type_symbol
_atom_site_label
_atom_site_fract_x
_atom_site_fract_y
_atom_site_fract_z
Si Si1 0.307627 0.094476 0.932500
Si Si2 0.092526 0.791603 0.092847
Si Si3 0.307627 0.094476 0.253195
Si Si4 0.698290 0.905909 0.507738
Si Si5 0.201271 0.693576 0.802415
Si Si6 0.792381 0.698290 0.677957
Si Si7 0.798730 0.306424 0.383279
O O1 0.245791 0.189833 0.921093
O O2 0.421781 0.126343 0.873689
O O3 0.378471 0.116287 0.014395
O O4 0.116286 0.737816 0.171300
O O5 0.946930 0.766763 0.092847
O O6 0.245791 0.189832 0.264602
O O7 0.421781 0.126342 0.312006
O O8 0.758165 0.811973 0.488246
O O9 0.653347 0.892179 0.592847
O O10 0.569734 0.866743 0.458371
O O11 0.191186 0.549029 0.803717
O O12 0.133258 0.702992 0.727323
O O13 0.758166 0.811973 0.697449
O O14 0.808813 0.450971 0.381978
#
# Coordination Sequence:
#
# PCOD8324432 Si02
#       7
#     6   6   6   6   6   6   6
#     4  10  19  34  58  85 111 138 175 228 284 332
#     4   8  15  28  50  82 112 136 167 216 282 340
#     4  10  19  34  58  85 111 138 175 228 284 332
#     4  10  21  38  62  89 113 136 169 222 282 332
#     4  10  24  40  52  75 110 155 192 223 255 305
#     4  10  21  38  62  89 113 136 169 222 282 332
#     4  10  24  40  52  75 110 155 192 223 255 305
#
# _framework density 19.932451
#
# number of rings (size 3 to 8) (size 9 to 14) (size 15 to 20)
#    0.571    1.714    0.000    2.429    0.000    9.143 
#    0.000    7.143    0.000    5.143    0.000    0.000 
#    0.000    0.000    0.000    0.000    0.000    0.000 
#
# Total GULP energy -520452.932797 kJ/mol
# GULP energy per Si atom -12391.736495 kJ/mol
# Density = 1.988708 g / cm^3
# Si number density = 19.932451 Si / 1000 Ang^3
#
#
#
# Elastic Constant Matrix: (Units=GPa)
#
#
# Indices 1 2 3 4 5 6 
#
# 1 46.1721 -24.4371 17.5722 0.0000 0.0000 0.0000
# 2 -24.4371 46.1721 17.5722 0.0000 0.0000 0.0000
# 3 17.5722 17.5722 122.6072 0.0000 0.0000 0.0000
# 4 0.0000 0.0000 0.0000 5.1718 0.0000 0.0000
# 5 0.0000 0.0000 0.0000 0.0000 5.1718 0.0000
# 6 0.0000 0.0000 0.0000 0.0000 0.0000 35.3046
#
#
#
# Elastic Compliance Matrix: (Units=1/GPa)
#
#
# Indices 1 2 3 4 5 6 
#
# 1 0.037025 0.022862 -0.008583 0.000000 0.000000 0.000000
# 2 0.022862 0.037025 -0.008583 0.000000 0.000000 0.000000
# 3 -0.008583 -0.008583 0.010616 0.000000 0.000000 0.000000
# 4 0.000000 0.000000 0.000000 0.193355 0.000000 0.000000
# 5 0.000000 0.000000 0.000000 0.000000 0.193355 0.000000
# 6 0.000000 0.000000 0.000000 0.000000 0.000000 0.028325
#
#
# Mechanical properties :
#
#
# Convention : Reuss Voigt Hill
#
# Bulk Modulus (GPa) = 10.41036 26.26287 18.33662
# Shear Modulus (GPa) = 9.60932 22.74594 16.17763
#
# Velocity S-wave (km/s) = 2.19805 3.38176 2.85199
# Velocity P-wave (km/s) = 3.41702 5.33413 4.47934
#
# Compressibility (1/GPa) = 0.09605817
#
# Stress axis : x y z
#
# Youngs Moduli (GPa) = 27.00898 27.00898 94.19404
#
# Poissons Ratio (x) = -0.61749 0.80847
# Poissons Ratio (y) = -0.61749 0.80847
# Poissons Ratio (z) = 0.23182 0.23182
#
# Static dielectric constant tensor:
#      x y z
#    x 3.413180 0.000000 0.000000 
#    y 0.000000 3.413180 0.000000 
#    z 0.000000 0.000000 4.123390 
# 
# 
# High freq. dielectric constant tensor:
#      x y z
#    x 1.762780 0.000000 0.000000 
#    y 0.000000 1.762780 0.000000 
#    z 0.000000 0.000000 1.800490 
# 
# From -- ./inp_files/474.got.cif
#   From: 2010.03.12/outbox.cif.g09.slc.cpg/sg168_cif.got.tgz:474.got - 2010.04.02 06:45:48.
