data_PCOD8324065
_publ_section_title
;
Structure prediction by ZEFSAII (Michael W. Deem and Ramdas Pophale) SiO2 
 PCOD8324065
Probable space group: R -3 M
;
_chemical_formula_sum "Si O2"
_cell_formula_units_Z 144
_cell_length_a 21.115447
_cell_length_b 21.115447
_cell_length_c 19.940169
_cell_angle_alpha 90.000000
_cell_angle_beta 90.000000
_cell_angle_gamma 120.000000
_cell_volume 7699.455720
_symmetry_space_group_name_H-M "R -3 M"
_symmetry_group_IT_number 166
_symmetry_cell_setting 'hexagonal'
loop_
_space_group_symop_operation_xyz
x,y,z
-y,x-y,z
-x+y,-x,z
x-y,-y,-z
-x,-x+y,-z
y,x,-z
-x,-y,-z
y,-x+y,-z
x-y,x,-z
-x+y,y,z
x,x-y,z
-y,-x,z
2/3+x,1/3+y,1/3+z
2/3-y,1/3+x-y,1/3+z
2/3-x+y,1/3-x,1/3+z
2/3+x-y,1/3-y,1/3-z
2/3-x,1/3-x+y,1/3-z
2/3+y,1/3+x,1/3-z
2/3-x,1/3-y,1/3-z
2/3+y,1/3-x+y,1/3-z
2/3+x-y,1/3+x,1/3-z
2/3-x+y,1/3+y,1/3+z
2/3+x,1/3+x-y,1/3+z
2/3-y,1/3-x,1/3+z
1/3+x,2/3+y,2/3+z
1/3-y,2/3+x-y,2/3+z
1/3-x+y,2/3-x,2/3+z
1/3+x-y,2/3-y,2/3-z
1/3-x,2/3-x+y,2/3-z
1/3+y,2/3+x,2/3-z
1/3-x,2/3-y,2/3-z
1/3+y,2/3-x+y,2/3-z
1/3+x-y,2/3+x,2/3-z
1/3-x+y,2/3+y,2/3+z
1/3+x,2/3+x-y,2/3+z
1/3-y,2/3-x,2/3+z
loop_
_atom_site_type_symbol
_atom_site_label
_atom_site_fract_x
_atom_site_fract_y
_atom_site_fract_z
Si Si1 0.876720 0.260979 0.731590
Si Si2 0.468033 0.081668 0.644164
Si Si3 0.950036 0.197426 0.060343
Si Si4 0.420655 0.136224 0.523963
O O1 0.789119 0.210882 0.742504
O O2 0.899082 0.232415 0.666667
O O3 0.900542 0.344959 0.716357
O O4 0.918564 0.251093 0.794978
O O5 0.549020 0.098039 0.655186
O O6 0.468574 0.135141 0.586419
O O7 0.413147 0.998376 0.623421
O O8 0.884268 0.115733 0.072793
O O9 0.998865 0.225812 0.125957
O O10 0.000000 0.196826 0.000000
O O11 0.438327 0.219164 0.512981
#
# Coordination Sequence:
#
# PCOD8324065 Si02
#       4
#    36  36  36  36
#     4   8  15  30  52  74  97 129 167 212 265 314
#     4  10  19  31  51  78 106 134 167 212 265 319
#     4  11  22  35  52  75 106 142 178 217 257 300
#     4  10  19  33  53  73  98 137 181 221 260 304
#
# _framework density 18.702621000000001
#
# number of rings (size 3 to 8) (size 9 to 14) (size 15 to 20)
#    0.000    2.250    0.000    6.750    0.000    2.000 
#    0.000    0.000    0.000   16.000    0.000    0.000 
#    0.000    0.000    0.000    0.000    0.000  563.250 
#
# Total GULP energy -594999.217264 kJ/mol
# GULP energy per Si atom -12395.817026 kJ/mol
# Density = 1.866005 g / cm^3
# Si number density = 18.702621 Si / 1000 Ang^3
#
#
#
# Elastic Constant Matrix: (Units=GPa)
#
#
# Indices 1 2 3 4 5 6 
#
# 1 124.5587 83.3102 57.4869 14.0404 0.0003 0.0000
# 2 83.3102 124.5587 57.4869 -14.0404 -0.0003 0.0000
# 3 57.4869 57.4869 94.4515 0.0000 0.0000 0.0000
# 4 14.0404 -14.0404 0.0000 22.2776 0.0000 -0.0003
# 5 0.0003 -0.0003 0.0000 0.0000 22.2776 14.0404
# 6 0.0000 0.0000 0.0000 -0.0003 14.0404 20.6243
#
#
#
# Elastic Compliance Matrix: (Units=1/GPa)
#
#
# Indices 1 2 3 4 5 6 
#
# 1 0.024857 -0.017605 -0.004414 -0.026761 -0.000001 0.000000
# 2 -0.017605 0.024857 -0.004414 0.026761 0.000001 0.000000
# 3 -0.004414 -0.004414 0.015960 0.000000 0.000000 0.000000
# 4 -0.026761 0.026761 0.000000 0.078620 0.000000 0.000001
# 5 -0.000001 0.000001 0.000000 0.000000 0.078620 -0.053522
# 6 0.000000 0.000000 0.000000 0.000001 -0.053522 0.084923
#
#
# Mechanical properties :
#
#
# Convention : Reuss Voigt Hill
#
# Bulk Modulus (GPa) = 78.07041 82.23744 80.15392
# Shear Modulus (GPa) = 13.69966 22.72157 18.21061
#
# Velocity S-wave (km/s) = 2.70941 3.48930 3.12379
# Velocity P-wave (km/s) = 7.18481 7.76532 7.48070
#
# Compressibility (1/GPa) = 0.01280895
#
# Stress axis : x y z
#
# Youngs Moduli (GPa) = 40.23044 40.23044 62.65501
#
# Poissons Ratio (x) = 0.70825 0.27655
# Poissons Ratio (y) = 0.70825 0.27655
# Poissons Ratio (z) = 0.17757 0.17757
#
# Static dielectric constant tensor:
#      x y z
#    x 3.530200 0.000000 0.000000 
#    y 0.000000 3.530200 0.000000 
#    z 0.000000 0.000000 3.664500 
# 
# 
# High freq. dielectric constant tensor:
#      x y z
#    x 1.715760 0.000000 0.000000 
#    y 0.000000 1.715760 0.000000 
#    z 0.000000 0.000000 1.722430 
# 
# From -- ./inp_files/6623.got.cif
#   From: 2010.03.12/outbox.cif.g09.slc.cpg/sg166_4_cif.got.tgz:6623.got - 2010.04.02 06:38:31.
