data_PCOD8324553
_publ_section_title
;
Structure prediction by ZEFSAII (Michael W. Deem and Ramdas Pophale) SiO2 
 PCOD8324553
Probable space group: P 61
;
_chemical_formula_sum "Si O2"
_cell_formula_units_Z 48
_cell_length_a 15.318428
_cell_length_b 15.318428
_cell_length_c 10.926243
_cell_angle_alpha 90.000000
_cell_angle_beta 90.000000
_cell_angle_gamma 120.000000
_cell_volume 2220.393186
_symmetry_space_group_name_H-M "P 61"
_symmetry_group_IT_number 169
_symmetry_cell_setting 'hexagonal'
loop_
_space_group_symop_operation_xyz
x,y,z
x-y,x,1/6+z
-y,x-y,1/3+z
-x,-y,1/2+z
-x+y,-x,2/3+z
y,-x+y,5/6+z
loop_
_atom_site_type_symbol
_atom_site_label
_atom_site_fract_x
_atom_site_fract_y
_atom_site_fract_z
Si Si1 0.088757 0.902595 0.567550
Si Si2 0.109758 0.392964 0.848645
Si Si3 0.802158 0.323141 0.913598
Si Si4 0.988064 0.275843 0.253280
Si Si5 0.642868 0.853914 0.647237
Si Si6 0.007478 0.429310 0.055686
Si Si7 0.631612 0.019069 0.776222
Si Si8 0.237215 0.509967 0.495960
O O1 0.181367 0.894760 0.514526
O O2 0.011665 0.886882 0.458877
O O3 0.030412 0.813453 0.663625
O O4 0.213178 0.481143 0.798444
O O5 0.024115 0.384540 0.756117
O O6 0.098492 0.428536 0.983309
O O7 0.912917 0.366803 0.967162
O O8 0.799225 0.319301 0.764540
O O9 0.750127 0.382771 0.967614
O O10 0.089646 0.299345 0.326086
O O11 0.891789 0.241661 0.341457
O O12 0.998114 0.373586 0.184138
O O13 0.529745 0.783374 0.698774
O O14 0.682159 0.953174 0.732208
O O15 0.028918 0.542090 0.076210
O O16 0.695527 0.126736 0.712460
#
# Coordination Sequence:
#
# PCOD8324553 Si02
#       8
#     6   6   6   6   6   6   6   6
#     4  12  24  47  69 105 140 191 246 303 362 433
#     4  11  21  43  73  97 139 189 239 293 364 430
#     4  10  22  43  67 100 139 178 235 293 353 435
#     4  12  24  42  73 101 138 185 241 296 357 431
#     4  12  24  44  68  99 143 183 234 290 365 423
#     4  11  23  43  70 102 138 184 241 289 355 434
#     4  10  25  42  68 100 135 184 231 290 357 434
#     4  10  23  44  66  98 142 178 231 292 355 426
#
# _framework density 21.617791
#
# number of rings (size 3 to 8) (size 9 to 14) (size 15 to 20)
#    0.000    1.000    5.000    0.750    1.750    3.000 
#    6.750    0.000    0.000    0.000    0.000    0.000 
#    0.000    0.000    0.000    0.000    0.000    0.000 
#
# Total GULP energy -594977.980376 kJ/mol
# GULP energy per Si atom -12395.374591 kJ/mol
# Density = 2.156859 g / cm^3
# Si number density = 21.617791 Si / 1000 Ang^3
#
#
#
# Elastic Constant Matrix: (Units=GPa)
#
#
# Indices 1 2 3 4 5 6 
#
# 1 99.5150 41.0949 43.8352 0.0000 0.0000 0.0000
# 2 41.0949 99.5150 43.8352 0.0000 0.0000 0.0000
# 3 43.8352 43.8352 91.3752 0.0000 0.0000 0.0000
# 4 0.0000 0.0000 0.0000 38.0908 0.0000 0.0000
# 5 0.0000 0.0000 0.0000 0.0000 38.0908 0.0000
# 6 0.0000 0.0000 0.0000 0.0000 0.0000 29.2101
#
#
#
# Elastic Compliance Matrix: (Units=1/GPa)
#
#
# Indices 1 2 3 4 5 6 
#
# 1 0.013632 -0.003485 -0.004868 0.000000 0.000000 0.000000
# 2 -0.003485 0.013632 -0.004868 0.000000 0.000000 0.000000
# 3 -0.004868 -0.004868 0.015614 0.000000 0.000000 0.000000
# 4 0.000000 0.000000 0.000000 0.026253 0.000000 0.000000
# 5 0.000000 0.000000 0.000000 0.000000 0.026253 0.000000
# 6 0.000000 0.000000 0.000000 0.000000 0.000000 0.034235
#
#
# Mechanical properties :
#
#
# Convention : Reuss Voigt Hill
#
# Bulk Modulus (GPa) = 60.83797 60.88173 60.85985
# Shear Modulus (GPa) = 30.95208 31.85434 31.40321
#
# Velocity S-wave (km/s) = 3.78800 3.84282 3.81551
# Velocity P-wave (km/s) = 6.88009 6.92196 6.90106
#
# Compressibility (1/GPa) = 0.01643710
#
# Stress axis : x y z
#
# Youngs Moduli (GPa) = 73.35594 73.35594 64.04393
#
# Poissons Ratio (x) = 0.25566 0.31175
# Poissons Ratio (y) = 0.25566 0.31175
# Poissons Ratio (z) = 0.35708 0.35708
#
# Static dielectric constant tensor:
#      x y z
#    x 3.927640 0.000000 0.000000 
#    y 0.000000 3.927640 0.000000 
#    z 0.000000 0.000000 4.105020 
# 
# 
# High freq. dielectric constant tensor:
#      x y z
#    x 1.847290 0.000000 0.000000 
#    y 0.000000 1.847290 0.000000 
#    z 0.000000 0.000000 1.857730 
# 
# From -- ./inp_files/1043.got.cif
#   From: 2010.03.12/outbox.cif.g09.slc.cpg/sg169_cif.got.tgz:1043.got - 2010.04.02 06:46:06.
