data_PCOD8324030
_publ_section_title
;
Structure prediction by ZEFSAII (Michael W. Deem and Ramdas Pophale) SiO2 
 PCOD8324030
Probable space group: R -3 M
;
_chemical_formula_sum "Si O2"
_cell_formula_units_Z 252
_cell_length_a 30.818778
_cell_length_b 30.818778
_cell_length_c 17.510410
_cell_angle_alpha 90.000000
_cell_angle_beta 90.000000
_cell_angle_gamma 120.000000
_cell_volume 14403.159685
_symmetry_space_group_name_H-M "R -3 M"
_symmetry_group_IT_number 166
_symmetry_cell_setting 'hexagonal'
loop_
_space_group_symop_operation_xyz
x,y,z
-y,x-y,z
-x+y,-x,z
x-y,-y,-z
-x,-x+y,-z
y,x,-z
-x,-y,-z
y,-x+y,-z
x-y,x,-z
-x+y,y,z
x,x-y,z
-y,-x,z
2/3+x,1/3+y,1/3+z
2/3-y,1/3+x-y,1/3+z
2/3-x+y,1/3-x,1/3+z
2/3+x-y,1/3-y,1/3-z
2/3-x,1/3-x+y,1/3-z
2/3+y,1/3+x,1/3-z
2/3-x,1/3-y,1/3-z
2/3+y,1/3-x+y,1/3-z
2/3+x-y,1/3+x,1/3-z
2/3-x+y,1/3+y,1/3+z
2/3+x,1/3+x-y,1/3+z
2/3-y,1/3-x,1/3+z
1/3+x,2/3+y,2/3+z
1/3-y,2/3+x-y,2/3+z
1/3-x+y,2/3-x,2/3+z
1/3+x-y,2/3-y,2/3-z
1/3-x,2/3-x+y,2/3-z
1/3+y,2/3+x,2/3-z
1/3-x,2/3-y,2/3-z
1/3+y,2/3-x+y,2/3-z
1/3+x-y,2/3+x,2/3-z
1/3-x+y,2/3+y,2/3+z
1/3+x,2/3+x-y,2/3+z
1/3-y,2/3-x,2/3+z
loop_
_atom_site_type_symbol
_atom_site_label
_atom_site_fract_x
_atom_site_fract_y
_atom_site_fract_z
Si Si1 0.880109 0.391747 0.753904
Si Si2 0.632565 0.921353 0.031086
Si Si3 0.072060 0.296981 0.896497
Si Si4 0.188172 0.717688 0.259161
Si Si5 0.113794 0.728656 0.357457
Si Si6 0.491436 0.608044 0.675899
Si Si7 0.944419 0.373359 0.196846
O O1 0.869692 0.434846 0.726306
O O2 0.928425 0.399356 0.708640
O O3 0.829664 0.340604 0.730969
O O4 0.890666 0.393144 0.844262
O O5 0.666357 0.943024 0.106853
O O6 0.669003 0.931818 0.961119
O O7 0.600230 0.947923 0.015389
O O8 0.113907 0.333334 0.833334
O O9 0.019435 0.268045 0.853223
O O10 0.080129 0.253960 0.935419
O O11 0.248697 0.751304 0.263997
O O12 0.165351 0.735452 0.325862
O O13 0.110260 0.776927 0.333334
O O14 0.116755 0.728723 0.448101
O O15 0.431386 0.568615 0.687821
O O16 0.504851 0.666667 0.666667
O O17 0.523214 0.606749 0.747513
#
# Coordination Sequence:
#
# PCOD8324030 Si02
#       7
#    36  36  36  36  36  36  36
#     4   9  18  34  52  70  95 126 161 201 254 307
#     4  10  19  29  47  71  99 136 173 207 240 281
#     4  10  18  32  50  73 102 136 176 212 245 285
#     4   9  19  34  50  70  94 123 161 204 248 298
#     4  11  20  29  46  71 100 137 177 209 236 279
#     4   9  20  37  56  75 100 133 170 212 267 323
#     4  10  20  32  48  72 103 142 174 208 254 293
#
# _framework density 17.496161000000001
#
# number of rings (size 3 to 8) (size 9 to 14) (size 15 to 20)
#    0.000    2.286    1.429    3.000    0.000    4.571 
#    0.000    0.000    0.000    0.429    0.000    2.000 
#    0.000    0.000    0.000    0.857    0.000    1.000 
#
# Total GULP energy -1040967.107914 kJ/mol
# GULP energy per Si atom -12392.465570 kJ/mol
# Density = 1.745634 g / cm^3
# Si number density = 17.496161 Si / 1000 Ang^3
#
#
#
# Elastic Constant Matrix: (Units=GPa)
#
#
# Indices 1 2 3 4 5 6 
#
# 1 64.7989 38.0963 23.4775 0.2595 -0.0001 0.0000
# 2 38.0963 64.7989 23.4775 -0.2595 0.0001 0.0000
# 3 23.4775 23.4775 85.8759 0.0000 0.0000 0.0000
# 4 0.2595 -0.2595 0.0000 12.6338 0.0000 0.0001
# 5 -0.0001 0.0001 0.0000 0.0000 12.6338 0.2595
# 6 0.0000 0.0000 0.0000 0.0001 0.2595 13.3513
#
#
#
# Elastic Compliance Matrix: (Units=1/GPa)
#
#
# Indices 1 2 3 4 5 6 
#
# 1 0.024284 -0.013180 -0.003036 -0.000770 0.000000 0.000000
# 2 -0.013180 0.024284 -0.003036 0.000770 0.000000 0.000000
# 3 -0.003036 -0.003036 0.013305 0.000000 0.000000 0.000000
# 4 -0.000770 0.000770 0.000000 0.079185 0.000000 0.000000
# 5 0.000000 0.000000 0.000000 0.000000 0.079185 -0.001539
# 6 0.000000 0.000000 0.000000 0.000000 -0.001539 0.074929
#
#
# Mechanical properties :
#
#
# Convention : Reuss Voigt Hill
#
# Bulk Modulus (GPa) = 42.79051 42.84179 42.81615
# Shear Modulus (GPa) = 14.64282 16.41859 15.53071
#
# Velocity S-wave (km/s) = 2.89609 3.06667 2.98260
# Velocity P-wave (km/s) = 5.97439 6.08924 6.03209
#
# Compressibility (1/GPa) = 0.02336967
#
# Stress axis : x y z
#
# Youngs Moduli (GPa) = 41.17905 41.17904 75.16223
#
# Poissons Ratio (x) = 0.54275 0.22817
# Poissons Ratio (y) = 0.54275 0.22817
# Poissons Ratio (z) = 0.12501 0.12501
#
# Static dielectric constant tensor:
#      x y z
#    x 3.146990 0.000000 0.000000 
#    y 0.000000 3.146990 0.000000 
#    z 0.000000 0.000000 3.325020 
# 
# 
# High freq. dielectric constant tensor:
#      x y z
#    x 1.653880 0.000000 0.000000 
#    y 0.000000 1.653880 0.000000 
#    z 0.000000 0.000000 1.680420 
# 
# From -- ./inp_files/5875.got.cif
#   From: 2010.03.12/outbox.cif.g09.slc.cpg/sg166_3_cif.got.tgz:5875.got - 2010.04.02 06:38:31.
