data_PCOD8324242
_publ_section_title
;
Structure prediction by ZEFSAII (Michael W. Deem and Ramdas Pophale) SiO2 
 PCOD8324242
Probable space group: R -3 M
;
_chemical_formula_sum "Si O2"
_cell_formula_units_Z 144
_cell_length_a 21.011826
_cell_length_b 21.011826
_cell_length_c 19.655363
_cell_angle_alpha 90.000000
_cell_angle_beta 90.000000
_cell_angle_gamma 120.000000
_cell_volume 7515.178356
_symmetry_space_group_name_H-M "R -3 M"
_symmetry_group_IT_number 166
_symmetry_cell_setting 'hexagonal'
loop_
_space_group_symop_operation_xyz
x,y,z
-y,x-y,z
-x+y,-x,z
x-y,-y,-z
-x,-x+y,-z
y,x,-z
-x,-y,-z
y,-x+y,-z
x-y,x,-z
-x+y,y,z
x,x-y,z
-y,-x,z
2/3+x,1/3+y,1/3+z
2/3-y,1/3+x-y,1/3+z
2/3-x+y,1/3-x,1/3+z
2/3+x-y,1/3-y,1/3-z
2/3-x,1/3-x+y,1/3-z
2/3+y,1/3+x,1/3-z
2/3-x,1/3-y,1/3-z
2/3+y,1/3-x+y,1/3-z
2/3+x-y,1/3+x,1/3-z
2/3-x+y,1/3+y,1/3+z
2/3+x,1/3+x-y,1/3+z
2/3-y,1/3-x,1/3+z
1/3+x,2/3+y,2/3+z
1/3-y,2/3+x-y,2/3+z
1/3-x+y,2/3-x,2/3+z
1/3+x-y,2/3-y,2/3-z
1/3-x,2/3-x+y,2/3-z
1/3+y,2/3+x,2/3-z
1/3-x,2/3-y,2/3-z
1/3+y,2/3-x+y,2/3-z
1/3+x-y,2/3+x,2/3-z
1/3-x+y,2/3+y,2/3+z
1/3+x,2/3+x-y,2/3+z
1/3-y,2/3-x,2/3+z
loop_
_atom_site_type_symbol
_atom_site_label
_atom_site_fract_x
_atom_site_fract_y
_atom_site_fract_z
Si Si1 0.402292 0.346862 0.411705
Si Si2 0.535533 0.921996 0.225947
Si Si3 0.529618 0.613577 0.992910
Si Si4 0.477026 0.101059 0.544401
O O1 0.417465 0.333334 0.333334
O O2 0.333188 0.275845 0.442546
O O3 0.396993 0.420052 0.420212
O O4 0.468492 0.360954 0.463265
O O5 0.466800 0.933600 0.216306
O O6 0.537726 0.871060 0.166667
O O7 0.529208 0.879786 0.295652
O O8 0.458852 0.541149 0.020511
O O9 0.599377 0.599377 0.000000
O O10 0.512703 0.633197 0.917620
O O11 0.559733 0.119465 0.559095
#
# Coordination Sequence:
#
# PCOD8324242 Si02
#       4
#    36  36  36  36
#     4  11  20  35  54  87 119 150 193 234 297 350
#     4  12  22  36  57  85 119 153 196 244 289 348
#     4  11  21  38  60  85 118 153 198 247 292 352
#     4  11  21  37  58  84 122 157 191 242 295 353
#
# _framework density 19.161223
#
# number of rings (size 3 to 8) (size 9 to 14) (size 15 to 20)
#    0.000    0.750    7.500    3.000    0.000    4.000 
#    0.000    0.000    0.000    9.500    0.000    0.000 
#    0.000    1.000    0.000    0.000    0.000    0.500 
#
# Total GULP energy -594788.080389 kJ/mol
# GULP energy per Si atom -12391.418341 kJ/mol
# Density = 1.911761 g / cm^3
# Si number density = 19.161223 Si / 1000 Ang^3
#
#
#
# Elastic Constant Matrix: (Units=GPa)
#
#
# Indices 1 2 3 4 5 6 
#
# 1 69.3423 35.3374 25.5446 4.2269 0.0001 0.0000
# 2 35.3374 69.3423 25.5446 -4.2269 -0.0001 0.0000
# 3 25.5446 25.5446 128.6602 0.0000 0.0000 0.0000
# 4 4.2269 -4.2269 0.0000 21.3090 0.0000 -0.0001
# 5 0.0001 -0.0001 0.0000 0.0000 21.3090 4.2269
# 6 0.0000 0.0000 0.0000 -0.0001 4.2269 17.0025
#
#
#
# Elastic Compliance Matrix: (Units=1/GPa)
#
#
# Indices 1 2 3 4 5 6 
#
# 1 0.020755 -0.010177 -0.002100 -0.006136 0.000000 0.000000
# 2 -0.010177 0.020755 -0.002100 0.006136 0.000000 0.000000
# 3 -0.002100 -0.002100 0.008606 0.000000 0.000000 0.000000
# 4 -0.006136 0.006136 0.000000 0.049363 0.000000 0.000000
# 5 0.000000 0.000000 0.000000 0.000000 0.049363 -0.012272
# 6 0.000000 0.000000 0.000000 0.000000 -0.012272 0.061866
#
#
# Mechanical properties :
#
#
# Convention : Reuss Voigt Hill
#
# Bulk Modulus (GPa) = 46.81307 48.91086 47.86196
# Shear Modulus (GPa) = 20.27698 23.98531 22.13114
#
# Velocity S-wave (km/s) = 3.25657 3.54186 3.40221
# Velocity P-wave (km/s) = 6.21487 6.50444 6.36130
#
# Compressibility (1/GPa) = 0.02136156
#
# Stress axis : x y z
#
# Youngs Moduli (GPa) = 48.18014 48.18014 116.19310
#
# Poissons Ratio (x) = 0.49035 0.24403
# Poissons Ratio (y) = 0.49035 0.24403
# Poissons Ratio (z) = 0.10119 0.10119
#
# Static dielectric constant tensor:
#      x y z
#    x 3.272870 0.000000 0.000000 
#    y 0.000000 3.272870 0.000000 
#    z 0.000000 0.000000 4.148290 
# 
# 
# High freq. dielectric constant tensor:
#      x y z
#    x 1.713930 0.000000 0.000000 
#    y 0.000000 1.713930 0.000000 
#    z 0.000000 0.000000 1.768680 
# 
# From -- ./inp_files/6627.got.cif
#   From: 2010.03.12/outbox.cif.g09.slc.cpg/sg166_4_cif.got.tgz:6627.got - 2010.04.02 06:38:31.
