data_PCOD8324355
_publ_section_title
;
Structure prediction by ZEFSAII (Michael W. Deem and Ramdas Pophale) SiO2 
 PCOD8324355
Probable space group: R -3 C 
;
_chemical_formula_sum "Si O2"
_cell_formula_units_Z 126
_cell_length_a 21.320400
_cell_length_b 21.320400
_cell_length_c 16.030974
_cell_angle_alpha 90.000000
_cell_angle_beta 90.000000
_cell_angle_gamma 120.000000
_cell_volume 6310.753811
_symmetry_space_group_name_H-M "R -3 C "
_symmetry_group_IT_number 167
_symmetry_cell_setting 'hexagonal'
loop_
_space_group_symop_operation_xyz
x,y,z
-y,x-y,z
-x+y,-x,z
x-y,-y,1/2-z
-x,-x+y,1/2-z
y,x,1/2-z
-x,-y,-z
y,-x+y,-z
x-y,x,-z
-x+y,y,1/2+z
x,x-y,1/2+z
-y,-x,1/2+z
2/3+x,1/3+y,1/3+z
2/3-y,1/3+x-y,1/3+z
2/3-x+y,1/3-x,1/3+z
2/3+x-y,1/3-y,5/6-z
2/3-x,1/3-x+y,5/6-z
2/3+y,1/3+x,5/6-z
2/3-x,1/3-y,1/3-z
2/3+y,1/3-x+y,1/3-z
2/3+x-y,1/3+x,1/3-z
2/3-x+y,1/3+y,5/6+z
2/3+x,1/3+x-y,5/6+z
2/3-y,1/3-x,5/6+z
1/3+x,2/3+y,2/3+z
1/3-y,2/3+x-y,2/3+z
1/3-x+y,2/3-x,2/3+z
1/3+x-y,2/3-y,1/6-z
1/3-x,2/3-x+y,1/6-z
1/3+y,2/3+x,1/6-z
1/3-x,2/3-y,2/3-z
1/3+y,2/3-x+y,2/3-z
1/3+x-y,2/3+x,2/3-z
1/3-x+y,2/3+y,1/6+z
1/3+x,2/3+x-y,1/6+z
1/3-y,2/3-x,1/6+z
loop_
_atom_site_type_symbol
_atom_site_label
_atom_site_fract_x
_atom_site_fract_y
_atom_site_fract_z
Si Si1 0.508936 0.842269 0.916667
Si Si2 0.433824 0.079855 0.254600
Si Si3 0.804453 0.189489 0.788364
Si Si4 0.100341 0.513899 0.944506
O O1 0.548084 0.894263 0.839429
O O2 0.430119 0.833913 0.930182
O O3 0.420040 0.138380 0.302433
O O4 0.498028 0.072576 0.298265
O O5 0.361912 0.000000 0.250000
O O6 0.829015 0.242009 0.708204
O O7 0.837815 0.137027 0.779280
O O8 0.123577 0.456910 0.916667
#
# Coordination Sequence:
#
# PCOD8324355 Si02
#       4
#    18  36  36  36
#     4  10  22  40  60  92 130 166 216 270 306 404
#     4  11  22  41  63  94 133 168 217 264 331 384
#     4  10  23  38  64  95 126 169 211 268 322 390
#     4  10  21  41  62  93 128 166 218 262 324 387
#
# _framework density 19.965917999999999
#
# number of rings (size 3 to 8) (size 9 to 14) (size 15 to 20)
#    0.000    1.714    2.857    0.857    4.000    0.000 
#    3.429    0.000    0.000    0.571    0.000    0.000 
#    0.000    0.000    0.000    0.000    0.000    0.000 
#
# Total GULP energy -520596.430934 kJ/mol
# GULP energy per Si atom -12395.153117 kJ/mol
# Density = 1.992048 g / cm^3
# Si number density = 19.965918 Si / 1000 Ang^3
#
#
#
# Elastic Constant Matrix: (Units=GPa)
#
#
# Indices 1 2 3 4 5 6 
#
# 1 114.4701 56.9042 42.7744 -4.4888 0.0002 0.0000
# 2 56.9042 114.4701 42.7744 4.4888 -0.0002 0.0000
# 3 42.7744 42.7744 86.5740 0.0000 0.0000 0.0000
# 4 -4.4888 4.4888 0.0000 28.0617 0.0000 -0.0002
# 5 0.0002 -0.0002 0.0000 0.0000 28.0617 -4.4888
# 6 0.0000 0.0000 0.0000 -0.0002 -4.4888 28.7830
#
#
#
# Elastic Compliance Matrix: (Units=1/GPa)
#
#
# Indices 1 2 3 4 5 6 
#
# 1 0.012781 -0.005035 -0.003827 0.002850 0.000000 0.000000
# 2 -0.005035 0.012781 -0.003827 -0.002850 0.000000 0.000000
# 3 -0.003827 -0.003827 0.015332 0.000000 0.000000 0.000000
# 4 0.002850 -0.002850 0.000000 0.036547 0.000000 0.000000
# 5 0.000000 0.000000 0.000000 0.000000 0.036547 0.005700
# 6 0.000000 0.000000 0.000000 0.000000 0.005700 0.035632
#
#
# Mechanical properties :
#
#
# Convention : Reuss Voigt Hill
#
# Bulk Modulus (GPa) = 64.45022 66.71336 65.58179
# Shear Modulus (GPa) = 27.75154 28.51870 28.13512
#
# Velocity S-wave (km/s) = 3.73224 3.78348 3.75795
# Velocity P-wave (km/s) = 7.13604 7.25068 7.19359
#
# Compressibility (1/GPa) = 0.01551585
#
# Stress axis : x y z
#
# Youngs Moduli (GPa) = 78.24307 78.24307 65.22132
#
# Poissons Ratio (x) = 0.39396 0.24960
# Poissons Ratio (y) = 0.39396 0.24960
# Poissons Ratio (z) = 0.29943 0.29943
#
# Static dielectric constant tensor:
#      x y z
#    x 3.830140 0.000000 0.000000 
#    y 0.000000 3.830140 0.000000 
#    z 0.000000 0.000000 3.566870 
# 
# 
# High freq. dielectric constant tensor:
#      x y z
#    x 1.773630 0.000000 0.000000 
#    y 0.000000 1.773630 0.000000 
#    z 0.000000 0.000000 1.786280 
# 
# From -- ./inp_files/3057.got.cif
#   From: 2010.03.12/outbox.cif.g09.slc.cpg/sg167_2_cif.got.tgz:3057.got - 2010.04.02 06:42:56.
