data_PCOD8324334
_publ_section_title
;
Structure prediction by ZEFSAII (Michael W. Deem and Ramdas Pophale) SiO2 
 PCOD8324334
Probable space group: R -3 C 
;
_chemical_formula_sum "Si O2"
_cell_formula_units_Z 90
_cell_length_a 20.336981
_cell_length_b 20.336981
_cell_length_c 12.013759
_cell_angle_alpha 90.000000
_cell_angle_beta 90.000000
_cell_angle_gamma 120.000000
_cell_volume 4303.110644
_symmetry_space_group_name_H-M "R -3 C "
_symmetry_group_IT_number 167
_symmetry_cell_setting 'hexagonal'
loop_
_space_group_symop_operation_xyz
x,y,z
-y,x-y,z
-x+y,-x,z
x-y,-y,1/2-z
-x,-x+y,1/2-z
y,x,1/2-z
-x,-y,-z
y,-x+y,-z
x-y,x,-z
-x+y,y,1/2+z
x,x-y,1/2+z
-y,-x,1/2+z
2/3+x,1/3+y,1/3+z
2/3-y,1/3+x-y,1/3+z
2/3-x+y,1/3-x,1/3+z
2/3+x-y,1/3-y,5/6-z
2/3-x,1/3-x+y,5/6-z
2/3+y,1/3+x,5/6-z
2/3-x,1/3-y,1/3-z
2/3+y,1/3-x+y,1/3-z
2/3+x-y,1/3+x,1/3-z
2/3-x+y,1/3+y,5/6+z
2/3+x,1/3+x-y,5/6+z
2/3-y,1/3-x,5/6+z
1/3+x,2/3+y,2/3+z
1/3-y,2/3+x-y,2/3+z
1/3-x+y,2/3-x,2/3+z
1/3+x-y,2/3-y,1/6-z
1/3-x,2/3-x+y,1/6-z
1/3+y,2/3+x,1/6-z
1/3-x,2/3-y,2/3-z
1/3+y,2/3-x+y,2/3-z
1/3+x-y,2/3+x,2/3-z
1/3-x+y,2/3+y,1/6+z
1/3+x,2/3+x-y,1/6+z
1/3-y,2/3-x,1/6+z
loop_
_atom_site_type_symbol
_atom_site_label
_atom_site_fract_x
_atom_site_fract_y
_atom_site_fract_z
Si Si1 0.333334 0.884088 0.916667
Si Si2 0.834987 0.968956 0.525663
Si Si3 0.283847 0.027980 0.631583
O O1 0.367074 0.854821 0.820823
O O2 0.267800 0.898420 0.863025
O O3 0.857407 0.905478 0.509043
O O4 0.814695 0.763856 0.552228
O O5 0.242394 0.000000 0.750000
O O6 0.290366 0.957033 0.583334
#
# Coordination Sequence:
#
# PCOD8324334 Si02
#       3
#    18  36  36
#     4  10  22  48  68 102 132 164 230 286 338 384
#     4  12  28  44  67  98 138 186 222 265 326 405
#     4  10  20  45  68 106 132 164 223 283 346 383
#
# _framework density 20.915102999999998
#
# number of rings (size 3 to 8) (size 9 to 14) (size 15 to 20)
#    1.200    0.000    4.000    1.600    5.600    4.800 
#    0.000    0.000    0.000    0.000    0.000    0.000 
#    0.000    0.000    0.000    0.000    0.000    0.000 
#
# Total GULP energy -371942.008020 kJ/mol
# GULP energy per Si atom -12398.066934 kJ/mol
# Density = 2.086750 g / cm^3
# Si number density = 20.915103 Si / 1000 Ang^3
#
#
#
# Elastic Constant Matrix: (Units=GPa)
#
#
# Indices 1 2 3 4 5 6 
#
# 1 93.3284 22.7383 17.4109 -4.8331 0.0013 0.0000
# 2 22.7383 93.3284 17.4109 4.8331 -0.0013 0.0000
# 3 17.4109 17.4109 142.2699 0.0000 0.0000 0.0000
# 4 -4.8331 4.8331 0.0000 -12.3857 0.0000 -0.0013
# 5 0.0013 -0.0013 0.0000 0.0000 -12.3856 -4.8331
# 6 0.0000 0.0000 0.0000 -0.0013 -4.8331 35.2951
#
#
#
# Elastic Compliance Matrix: (Units=1/GPa)
#
#
# Indices 1 2 3 4 5 6 
#
# 1 0.011196 -0.002252 -0.001095 -0.005248 0.000001 0.000000
# 2 -0.002252 0.011196 -0.001095 0.005248 -0.000001 0.000000
# 3 -0.001095 -0.001095 0.007297 0.000000 0.000000 0.000000
# 4 -0.005248 0.005248 0.000000 -0.076643 0.000000 -0.000003
# 5 0.000001 -0.000001 0.000000 0.000000 -0.076643 -0.010495
# 6 0.000000 0.000000 0.000000 -0.000003 -0.010495 0.026895
#
#
# Mechanical properties :
#
#
# Convention : Reuss Voigt Hill
#
# Bulk Modulus (GPa) = 48.06135 49.33856 48.69995
# Shear Modulus (GPa) = -61.81622 20.19586 -20.81018
#
# Velocity S-wave (km/s) = -5.44242 3.11080 -3.15776
# Velocity P-wave (km/s) = 4.05760 6.04515 3.16858
#
# Compressibility (1/GPa) = 0.02080674
#
# Stress axis : x y z
#
# Youngs Moduli (GPa) = 89.31822 89.31821 137.04631
#
# Poissons Ratio (x) = 0.20113 0.15001
# Poissons Ratio (y) = 0.20113 0.15001
# Poissons Ratio (z) = 0.09777 0.09777
#
# Static dielectric constant tensor:
#      x y z
#    x 3.632310 0.000000 0.000000 
#    y 0.000000 3.632310 0.000000 
#    z 0.000000 0.000000 3.737580 
# 
# 
# High freq. dielectric constant tensor:
#      x y z
#    x 1.808930 0.000000 0.000000 
#    y 0.000000 1.808930 0.000000 
#    z 0.000000 0.000000 1.831810 
# 
# From -- ./inp_files/1980.got.cif
#   From: 2010.03.12/outbox.cif.g09.slc.cpg/sg167_1_cif.got.tgz:1980.got - 2010.04.02 06:42:56.
