data_PCOD8324606
_publ_section_title
;
Structure prediction by ZEFSAII (Michael W. Deem and Ramdas Pophale) SiO2 
 PCOD8324606
Probable space group: P 61
;
_chemical_formula_sum "Si O2"
_cell_formula_units_Z 36
_cell_length_a 7.730025
_cell_length_b 7.730025
_cell_length_c 25.798207
_cell_angle_alpha 90.000000
_cell_angle_beta 90.000000
_cell_angle_gamma 120.000000
_cell_volume 1335.002109
_symmetry_space_group_name_H-M "P 61"
_symmetry_group_IT_number 169
_symmetry_cell_setting 'hexagonal'
loop_
_space_group_symop_operation_xyz
x,y,z
x-y,x,1/6+z
-y,x-y,1/3+z
-x,-y,1/2+z
-x+y,-x,2/3+z
y,-x+y,5/6+z
loop_
_atom_site_type_symbol
_atom_site_label
_atom_site_fract_x
_atom_site_fract_y
_atom_site_fract_z
Si Si1 0.356329 0.131557 0.278050
Si Si2 0.292721 0.748788 0.217551
Si Si3 0.944336 0.060404 0.310347
Si Si4 0.547237 0.253264 0.551712
Si Si5 0.641470 0.769628 0.158100
Si Si6 0.328977 0.335375 0.061180
O O1 0.479862 0.164341 0.330691
O O2 0.478771 0.296671 0.233633
O O3 0.179398 0.164262 0.299547
O O4 0.280744 0.915457 0.252190
O O5 0.519067 0.809703 0.202856
O O6 0.178352 0.539842 0.249117
O O7 0.863287 0.170196 0.272600
O O8 0.841391 0.822253 0.305612
O O9 0.881360 0.099735 0.366250
O O10 0.477111 0.315794 0.604911
O O11 0.648469 0.475820 0.526079
O O12 0.371386 0.092709 0.515446
#
# Coordination Sequence:
#
# PCOD8324606 Si02
#       6
#     6   6   6   6   6   6
#     4  11  24  45  75 111 151 199 251 316 384 459
#     4  11  25  47  75 109 152 200 255 312 383 459
#     4  12  24  44  72 108 150 190 242 308 380 444
#     4  11  25  47  75 109 152 200 255 312 383 459
#     4  11  24  45  75 111 151 199 251 316 384 459
#     4  12  26  44  72 108 152 200 250 312 378 452
#
# _framework density 26.966251
#
# number of rings (size 3 to 8) (size 9 to 14) (size 15 to 20)
#    0.000    0.667    0.000    8.000    0.000    2.667 
#    0.000    3.333    0.000    4.000    0.000    0.000 
#    0.000    0.000    0.000    0.000    0.000    0.000 
#
# Total GULP energy -446044.180168 kJ/mol
# GULP energy per Si atom -12390.116116 kJ/mol
# Density = 2.690487 g / cm^3
# Si number density = 26.966251 Si / 1000 Ang^3
#
#
#
# Elastic Constant Matrix: (Units=GPa)
#
#
# Indices 1 2 3 4 5 6 
#
# 1 137.4635 43.9557 21.4530 0.0000 0.0000 0.0000
# 2 43.9557 137.4635 21.4530 0.0000 0.0000 0.0000
# 3 21.4530 21.4530 84.7325 0.0000 0.0000 0.0000
# 4 0.0000 0.0000 0.0000 44.0486 0.0000 0.0000
# 5 0.0000 0.0000 0.0000 0.0000 44.0486 0.0000
# 6 0.0000 0.0000 0.0000 0.0000 0.0000 46.7539
#
#
#
# Elastic Compliance Matrix: (Units=1/GPa)
#
#
# Indices 1 2 3 4 5 6 
#
# 1 0.008279 -0.002416 -0.001484 0.000000 0.000000 0.000000
# 2 -0.002416 0.008279 -0.001484 0.000000 0.000000 0.000000
# 3 -0.001484 -0.001484 0.012554 0.000000 0.000000 0.000000
# 4 0.000000 0.000000 0.000000 0.022702 0.000000 0.000000
# 5 0.000000 0.000000 0.000000 0.000000 0.022702 0.000000
# 6 0.000000 0.000000 0.000000 0.000000 0.000000 0.021389
#
#
# Mechanical properties :
#
#
# Convention : Reuss Voigt Hill
#
# Bulk Modulus (GPa) = 54.51964 59.26477 56.89220
# Shear Modulus (GPa) = 44.33137 45.15675 44.74406
#
# Velocity S-wave (km/s) = 4.05897 4.09658 4.07782
# Velocity P-wave (km/s) = 6.49836 6.66342 6.58140
#
# Compressibility (1/GPa) = 0.01834201
#
# Stress axis : x y z
#
# Youngs Moduli (GPa) = 120.79137 120.79137 79.65885
#
# Poissons Ratio (x) = 0.29178 0.11825
# Poissons Ratio (y) = 0.29178 0.11825
# Poissons Ratio (z) = 0.17931 0.17931
#
# Static dielectric constant tensor:
#      x y z
#    x 4.968970 0.000000 0.000000 
#    y 0.000000 4.968970 0.000000 
#    z 0.000000 0.000000 4.993880 
# 
# 
# High freq. dielectric constant tensor:
#      x y z
#    x 2.095010 0.000000 0.000000 
#    y 0.000000 2.095010 0.000000 
#    z 0.000000 0.000000 2.075070 
# 
# From -- ./inp_files/1752.got.cif
#   From: 2010.03.12/outbox.cif.g09.slc.cpg/sg169_cif.got.tgz:1752.got - 2010.04.02 06:46:06.
