data_PCOD8324538
_publ_section_title
;
Structure prediction by ZEFSAII (Michael W. Deem and Ramdas Pophale) SiO2 
 PCOD8324538
Probable space group: P 61
;
_chemical_formula_sum "Si O2"
_cell_formula_units_Z 48
_cell_length_a 14.185369
_cell_length_b 14.185369
_cell_length_c 13.980605
_cell_angle_alpha 90.000000
_cell_angle_beta 90.000000
_cell_angle_gamma 120.000000
_cell_volume 2436.339869
_symmetry_space_group_name_H-M "P 61"
_symmetry_group_IT_number 169
_symmetry_cell_setting 'hexagonal'
loop_
_space_group_symop_operation_xyz
x,y,z
x-y,x,1/6+z
-y,x-y,1/3+z
-x,-y,1/2+z
-x+y,-x,2/3+z
y,-x+y,5/6+z
loop_
_atom_site_type_symbol
_atom_site_label
_atom_site_fract_x
_atom_site_fract_y
_atom_site_fract_z
Si Si1 0.505208 0.513042 0.423520
Si Si2 0.842242 0.924054 0.852455
Si Si3 0.893018 0.618860 0.039639
Si Si4 0.676532 0.756801 0.082210
Si Si5 0.531435 0.816166 0.184799
Si Si6 0.561763 0.353979 0.227472
Si Si7 0.614446 0.196511 0.129576
Si Si8 0.983656 0.508904 0.304987
O O1 0.406725 0.398028 0.384274
O O2 0.614203 0.550318 0.362733
O O3 0.465322 0.597196 0.396092
O O4 0.539618 0.514532 0.532639
O O5 0.736596 0.807438 0.825667
O O6 0.905105 0.982373 0.754873
O O7 0.806472 0.001232 0.907771
O O8 0.858703 0.623778 0.148662
O O9 0.797667 0.522880 0.976645
O O10 0.645332 0.825915 0.153818
O O11 0.625945 0.634206 0.123332
O O12 0.433990 0.753721 0.106646
O O13 0.485870 0.744071 0.280317
O O14 0.573140 0.282385 0.144492
O O15 0.515194 0.425983 0.183202
O O16 0.551768 0.119619 0.038330
#
# Coordination Sequence:
#
# PCOD8324538 Si02
#       8
#     6   6   6   6   6   6   6   6
#     4  10  22  41  61  85 127 160 203 249 305 368
#     4  10  22  37  65  92 115 151 209 259 303 351
#     4   9  20  37  58  89 114 156 197 254 299 352
#     4   9  21  36  64  87 120 155 204 252 308 352
#     4  10  23  38  58  90 128 161 197 251 308 368
#     4  11  24  34  61  88 129 162 195 246 312 361
#     4  11  24  36  56  91 118 161 203 243 298 382
#     4  10  22  39  57  86 125 156 200 248 295 368
#
# _framework density 19.701682999999999
#
# number of rings (size 3 to 8) (size 9 to 14) (size 15 to 20)
#    0.000    2.000    2.500    0.000   17.500    0.000 
#    0.000    0.000    2.750    0.000    0.000    0.000 
#    0.000    0.000    0.000    0.000    0.000    0.000 
#
# Total GULP energy -594808.517132 kJ/mol
# GULP energy per Si atom -12391.844107 kJ/mol
# Density = 1.965684 g / cm^3
# Si number density = 19.701683 Si / 1000 Ang^3
#
#
#
# Elastic Constant Matrix: (Units=GPa)
#
#
# Indices 1 2 3 4 5 6 
#
# 1 66.4202 21.7185 8.9624 0.0000 0.0000 0.0000
# 2 21.7185 66.4202 8.9624 0.0000 0.0000 0.0000
# 3 8.9624 8.9624 51.0374 0.0000 0.0000 0.0000
# 4 0.0000 0.0000 0.0000 30.5150 0.0000 0.0000
# 5 0.0000 0.0000 0.0000 0.0000 30.5150 0.0000
# 6 0.0000 0.0000 0.0000 0.0000 0.0000 22.3509
#
#
#
# Elastic Compliance Matrix: (Units=1/GPa)
#
#
# Indices 1 2 3 4 5 6 
#
# 1 0.017068 -0.005302 -0.002066 0.000000 0.000000 0.000000
# 2 -0.005302 0.017068 -0.002066 0.000000 0.000000 0.000000
# 3 -0.002066 -0.002066 0.020319 0.000000 0.000000 0.000000
# 4 0.000000 0.000000 0.000000 0.032771 0.000000 0.000000
# 5 0.000000 0.000000 0.000000 0.000000 0.032771 0.000000
# 6 0.000000 0.000000 0.000000 0.000000 0.000000 0.044741
#
#
# Mechanical properties :
#
#
# Convention : Reuss Voigt Hill
#
# Bulk Modulus (GPa) = 28.10061 29.24049 28.67055
# Shear Modulus (GPa) = 25.57944 26.29180 25.93562
#
# Velocity S-wave (km/s) = 3.60715 3.65704 3.63218
# Velocity P-wave (km/s) = 5.62519 5.71889 5.67223
#
# Compressibility (1/GPa) = 0.03558642
#
# Stress axis : x y z
#
# Youngs Moduli (GPa) = 58.58841 58.58841 49.21470
#
# Poissons Ratio (x) = 0.31065 0.10168
# Poissons Ratio (y) = 0.31065 0.10168
# Poissons Ratio (z) = 0.12105 0.12105
#
# Static dielectric constant tensor:
#      x y z
#    x 3.490890 0.000000 0.000000 
#    y 0.000000 3.490890 0.000000 
#    z 0.000000 0.000000 3.856910 
# 
# 
# High freq. dielectric constant tensor:
#      x y z
#    x 1.752830 0.000000 0.000000 
#    y 0.000000 1.752830 0.000000 
#    z 0.000000 0.000000 1.768580 
# 
# From -- ./inp_files/1237.got.cif
#   From: 2010.03.12/outbox.cif.g09.slc.cpg/sg169_cif.got.tgz:1237.got - 2010.04.02 06:46:06.
