data_PCOD8324507
_publ_section_title
;
Structure prediction by ZEFSAII (Michael W. Deem and Ramdas Pophale) SiO2 
 PCOD8324507
Probable space group: P 61
;
_chemical_formula_sum "Si O2"
_cell_formula_units_Z 30
_cell_length_a 13.380655
_cell_length_b 13.380655
_cell_length_c 7.509654
_cell_angle_alpha 90.000000
_cell_angle_beta 90.000000
_cell_angle_gamma 120.000000
_cell_volume 1164.408336
_symmetry_space_group_name_H-M "P 61"
_symmetry_group_IT_number 169
_symmetry_cell_setting 'hexagonal'
loop_
_space_group_symop_operation_xyz
x,y,z
x-y,x,1/6+z
-y,x-y,1/3+z
-x,-y,1/2+z
-x+y,-x,2/3+z
y,-x+y,5/6+z
loop_
_atom_site_type_symbol
_atom_site_label
_atom_site_fract_x
_atom_site_fract_y
_atom_site_fract_z
Si Si1 0.544363 0.888877 0.292120
Si Si2 0.787706 0.958327 0.359097
Si Si3 0.789731 0.814040 0.018601
Si Si4 0.592840 0.562154 0.059158
Si Si5 0.248603 0.603510 0.083784
O O1 0.672297 0.966502 0.372413
O O2 0.507703 0.756277 0.332942
O O3 0.457539 0.920718 0.394828
O O4 0.546284 0.910102 0.082511
O O5 0.806939 0.895364 0.526545
O O6 0.777645 0.875782 0.194476
O O7 0.903045 0.799952 0.022559
O O8 0.677014 0.690088 0.986246
O O9 0.587679 0.466532 0.920855
O O10 0.290875 0.622132 0.288573
#
# Coordination Sequence:
#
# PCOD8324507 Si02
#       5
#     6   6   6   6   6
#     4  12  25  44  75 110 159 207 271 319 399 480
#     4  10  20  41  77 105 148 202 260 326 401 469
#     4  10  22  42  77 104 147 202 257 315 399 465
#     4  12  26  44  76 115 156 206 262 327 395 478
#     4  12  27  47  75 108 156 209 264 323 392 466
#
# _framework density 25.764158999999999
#
# number of rings (size 3 to 8) (size 9 to 14) (size 15 to 20)
#    0.000    0.800    6.000    2.400    5.600    0.000 
#    0.000    0.000   74.800    0.000    0.000    0.000 
#    0.000    0.000    0.000    0.000    0.000    0.000 
#
# Total GULP energy -372047.858431 kJ/mol
# GULP energy per Si atom -12401.595281 kJ/mol
# Density = 2.570552 g / cm^3
# Si number density = 25.764159 Si / 1000 Ang^3
#
#
#
# Elastic Constant Matrix: (Units=GPa)
#
#
# Indices 1 2 3 4 5 6 
#
# 1 173.5445 68.1211 23.3617 0.0000 0.0000 0.0000
# 2 68.1211 173.5445 23.3617 0.0000 0.0000 0.0000
# 3 23.3617 23.3617 89.0203 0.0000 0.0000 0.0000
# 4 0.0000 0.0000 0.0000 24.1295 0.0000 0.0000
# 5 0.0000 0.0000 0.0000 0.0000 24.1295 0.0000
# 6 0.0000 0.0000 0.0000 0.0000 0.0000 52.7117
#
#
#
# Elastic Compliance Matrix: (Units=1/GPa)
#
#
# Indices 1 2 3 4 5 6 
#
# 1 0.006922 -0.002563 -0.001144 0.000000 0.000000 0.000000
# 2 -0.002563 0.006922 -0.001144 0.000000 0.000000 0.000000
# 3 -0.001144 -0.001144 0.011834 0.000000 0.000000 0.000000
# 4 0.000000 0.000000 0.000000 0.041443 0.000000 0.000000
# 5 0.000000 0.000000 0.000000 0.000000 0.041443 0.000000
# 6 0.000000 0.000000 0.000000 0.000000 0.000000 0.018971
#
#
# Mechanical properties :
#
#
# Convention : Reuss Voigt Hill
#
# Bulk Modulus (GPa) = 62.59315 73.97758 68.28537
# Shear Modulus (GPa) = 35.07214 41.61180 38.34197
#
# Velocity S-wave (km/s) = 3.69355 4.02320 3.86189
# Velocity P-wave (km/s) = 6.52205 7.09628 6.81522
#
# Compressibility (1/GPa) = 0.01597619
#
# Stress axis : x y z
#
# Youngs Moduli (GPa) = 144.45976 144.45976 84.50355
#
# Poissons Ratio (x) = 0.37028 0.09667
# Poissons Ratio (y) = 0.37028 0.09667
# Poissons Ratio (z) = 0.16526 0.16526
#
# Static dielectric constant tensor:
#      x y z
#    x 4.786930 0.000000 0.000000 
#    y 0.000000 4.786930 0.000000 
#    z 0.000000 0.000000 4.599760 
# 
# 
# High freq. dielectric constant tensor:
#      x y z
#    x 2.033750 0.000000 0.000000 
#    y 0.000000 2.033750 0.000000 
#    z 0.000000 0.000000 2.035940 
# 
# From -- ./inp_files/573.got.cif
#   From: 2010.03.12/outbox.cif.g09.slc.cpg/sg169_cif.got.tgz:573.got - 2010.04.02 06:46:06.
