data_PCOD8324044
_publ_section_title
;
Structure prediction by ZEFSAII (Michael W. Deem and Ramdas Pophale) SiO2 
 PCOD8324044
Probable space group: R -3 M
;
_chemical_formula_sum "Si O2"
_cell_formula_units_Z 144
_cell_length_a 19.849890
_cell_length_b 19.849890
_cell_length_c 27.052912
_cell_angle_alpha 90.000000
_cell_angle_beta 90.000000
_cell_angle_gamma 120.000000
_cell_volume 9231.257391
_symmetry_space_group_name_H-M "R -3 M"
_symmetry_group_IT_number 166
_symmetry_cell_setting 'hexagonal'
loop_
_space_group_symop_operation_xyz
x,y,z
-y,x-y,z
-x+y,-x,z
x-y,-y,-z
-x,-x+y,-z
y,x,-z
-x,-y,-z
y,-x+y,-z
x-y,x,-z
-x+y,y,z
x,x-y,z
-y,-x,z
2/3+x,1/3+y,1/3+z
2/3-y,1/3+x-y,1/3+z
2/3-x+y,1/3-x,1/3+z
2/3+x-y,1/3-y,1/3-z
2/3-x,1/3-x+y,1/3-z
2/3+y,1/3+x,1/3-z
2/3-x,1/3-y,1/3-z
2/3+y,1/3-x+y,1/3-z
2/3+x-y,1/3+x,1/3-z
2/3-x+y,1/3+y,1/3+z
2/3+x,1/3+x-y,1/3+z
2/3-y,1/3-x,1/3+z
1/3+x,2/3+y,2/3+z
1/3-y,2/3+x-y,2/3+z
1/3-x+y,2/3-x,2/3+z
1/3+x-y,2/3-y,2/3-z
1/3-x,2/3-x+y,2/3-z
1/3+y,2/3+x,2/3-z
1/3-x,2/3-y,2/3-z
1/3+y,2/3-x+y,2/3-z
1/3+x-y,2/3+x,2/3-z
1/3-x+y,2/3+y,2/3+z
1/3+x,2/3+x-y,2/3+z
1/3-y,2/3-x,2/3+z
loop_
_atom_site_type_symbol
_atom_site_label
_atom_site_fract_x
_atom_site_fract_y
_atom_site_fract_z
Si Si1 0.709592 0.140731 0.941279
Si Si2 0.652187 0.682328 0.446703
Si Si3 0.256743 0.896883 0.692484
Si Si4 0.452828 0.226414 0.689463
Si Si5 0.855689 0.144312 0.744140
O O1 0.785053 0.214948 0.919237
O O2 0.677223 0.076765 0.898621
O O3 0.647811 0.166192 0.957864
O O4 0.727817 0.108069 0.990235
O O5 0.644231 0.644231 0.500000
O O6 0.608323 0.609104 0.410512
O O7 0.615662 0.739770 0.444077
O O8 0.193713 0.806288 0.700790
O O9 0.333334 0.902752 0.666667
O O10 0.367660 0.183830 0.713367
O O11 0.447146 0.223573 0.629761
#
# Coordination Sequence:
#
# PCOD8324044 Si02
#       5
#    36  36  36  18  18
#     4   9  17  29  45  65  89 118 152 189 221 257
#     4  10  19  28  45  68  93 123 147 181 226 270
#     4   9  17  31  49  70  93 115 145 186 227 266
#     4   9  14  28  48  60  82 119 152 187 221 252
#     4   9  16  28  44  64  89 116 154 180 221 270
#
# _framework density 15.599175000000001
#
# number of rings (size 3 to 8) (size 9 to 14) (size 15 to 20)
#    0.000    2.750    2.500    0.000    1.750    0.500 
#    0.750    0.000    0.000    0.250    0.000    0.875 
#    0.000    0.000    0.000    0.000    0.000    0.000 
#
# Total GULP energy -594986.274969 kJ/mol
# GULP energy per Si atom -12395.547395 kJ/mol
# Density = 1.556367 g / cm^3
# Si number density = 15.599175 Si / 1000 Ang^3
#
#
#
# Elastic Constant Matrix: (Units=GPa)
#
#
# Indices 1 2 3 4 5 6 
#
# 1 77.0807 42.9238 22.9489 -0.0838 -0.0001 0.0000
# 2 42.9238 77.0807 22.9489 0.0838 0.0001 0.0000
# 3 22.9489 22.9489 71.1255 0.0000 0.0000 0.0000
# 4 -0.0838 0.0838 0.0000 15.2758 0.0000 0.0001
# 5 -0.0001 0.0001 0.0000 0.0000 15.2758 -0.0838
# 6 0.0000 0.0000 0.0000 0.0001 -0.0838 17.0784
#
#
#
# Elastic Compliance Matrix: (Units=1/GPa)
#
#
# Indices 1 2 3 4 5 6 
#
# 1 0.019392 -0.009886 -0.003067 0.000161 0.000000 0.000000
# 2 -0.009886 0.019392 -0.003067 -0.000161 0.000000 0.000000
# 3 -0.003067 -0.003067 0.016039 0.000000 0.000000 0.000000
# 4 0.000161 -0.000161 0.000000 0.065465 0.000000 0.000000
# 5 0.000000 0.000000 0.000000 0.000000 0.065465 0.000321
# 6 0.000000 0.000000 0.000000 0.000000 0.000321 0.058555
#
#
# Mechanical properties :
#
#
# Convention : Reuss Voigt Hill
#
# Bulk Modulus (GPa) = 43.89348 44.77002 44.33175
# Shear Modulus (GPa) = 17.60930 18.62371 18.11650
#
# Velocity S-wave (km/s) = 3.36350 3.45902 3.41159
# Velocity P-wave (km/s) = 6.57903 6.68698 6.63322
#
# Compressibility (1/GPa) = 0.02278243
#
# Stress axis : x y z
#
# Youngs Moduli (GPa) = 51.56822 51.56822 62.34828
#
# Poissons Ratio (x) = 0.50979 0.19123
# Poissons Ratio (y) = 0.50979 0.19123
# Poissons Ratio (z) = 0.15817 0.15817
#
# Static dielectric constant tensor:
#      x y z
#    x 2.987730 0.000000 0.000000 
#    y 0.000000 2.987730 0.000000 
#    z 0.000000 0.000000 2.774920 
# 
# 
# High freq. dielectric constant tensor:
#      x y z
#    x 1.582310 0.000000 0.000000 
#    y 0.000000 1.582310 0.000000 
#    z 0.000000 0.000000 1.586790 
# 
# From -- ./inp_files/8068.got.cif
#   From: 2010.03.12/outbox.cif.g09.slc.cpg/sg166_5_cif.got.tgz:8068.got - 2010.04.02 06:38:31.
