data_PCOD8324038
_publ_section_title
;
Structure prediction by ZEFSAII (Michael W. Deem and Ramdas Pophale) SiO2 
 PCOD8324038
Probable space group: R -3 M
;
_chemical_formula_sum "Si O2"
_cell_formula_units_Z 162
_cell_length_a 20.805529
_cell_length_b 20.805529
_cell_length_c 23.863975
_cell_angle_alpha 90.000000
_cell_angle_beta 90.000000
_cell_angle_gamma 120.000000
_cell_volume 8946.042196
_symmetry_space_group_name_H-M "R -3 M"
_symmetry_group_IT_number 166
_symmetry_cell_setting 'hexagonal'
loop_
_space_group_symop_operation_xyz
x,y,z
-y,x-y,z
-x+y,-x,z
x-y,-y,-z
-x,-x+y,-z
y,x,-z
-x,-y,-z
y,-x+y,-z
x-y,x,-z
-x+y,y,z
x,x-y,z
-y,-x,z
2/3+x,1/3+y,1/3+z
2/3-y,1/3+x-y,1/3+z
2/3-x+y,1/3-x,1/3+z
2/3+x-y,1/3-y,1/3-z
2/3-x,1/3-x+y,1/3-z
2/3+y,1/3+x,1/3-z
2/3-x,1/3-y,1/3-z
2/3+y,1/3-x+y,1/3-z
2/3+x-y,1/3+x,1/3-z
2/3-x+y,1/3+y,1/3+z
2/3+x,1/3+x-y,1/3+z
2/3-y,1/3-x,1/3+z
1/3+x,2/3+y,2/3+z
1/3-y,2/3+x-y,2/3+z
1/3-x+y,2/3-x,2/3+z
1/3+x-y,2/3-y,2/3-z
1/3-x,2/3-x+y,2/3-z
1/3+y,2/3+x,2/3-z
1/3-x,2/3-y,2/3-z
1/3+y,2/3-x+y,2/3-z
1/3+x-y,2/3+x,2/3-z
1/3-x+y,2/3+y,2/3+z
1/3+x,2/3+x-y,2/3+z
1/3-y,2/3-x,2/3+z
loop_
_atom_site_type_symbol
_atom_site_label
_atom_site_fract_x
_atom_site_fract_y
_atom_site_fract_z
Si Si1 0.151760 0.000164 0.321524
Si Si2 0.214094 0.926753 0.389996
Si Si3 0.916209 0.385119 0.439002
Si Si4 0.819669 0.333334 0.333334
Si Si5 0.591325 0.676736 0.892570
O O1 0.068628 0.931373 0.321182
O O2 0.198747 0.993513 0.373530
O O3 0.149786 0.074893 0.329635
O O4 0.189299 0.998887 0.263050
O O5 0.140387 0.859614 0.417762
O O6 0.231749 0.898415 0.333334
O O7 0.282052 0.950190 0.432217
O O8 0.894214 0.447107 0.451531
O O9 0.867115 0.334935 0.387360
O O10 0.899255 0.336081 0.494798
O O11 0.003872 0.425919 0.425192
O O12 0.810997 0.405499 0.329570
#
# Coordination Sequence:
#
# PCOD8324038 Si02
#       5
#    36  36  36  18  36
#     4  10  19  31  50  77 109 143 179 219 267 326
#     4   8  16  29  47  73 102 133 170 212 267 322
#     4  10  21  35  52  78 108 141 180 226 279 323
#     4  10  23  40  56  76 107 150 192 228 268 322
#     4  10  18  33  53  75 106 143 178 226 276 323
#
# _framework density 18.108566
#
# number of rings (size 3 to 8) (size 9 to 14) (size 15 to 20)
#    0.000    2.444    0.000    5.000    4.667    1.778 
#    0.000    0.000    0.000    5.333    0.000    0.000 
#    0.000    0.000    0.000   27.111    0.000    0.000 
#
# Total GULP energy -669326.759672 kJ/mol
# GULP energy per Si atom -12394.939994 kJ/mol
# Density = 1.806735 g / cm^3
# Si number density = 18.108566 Si / 1000 Ang^3
#
#
#
# Elastic Constant Matrix: (Units=GPa)
#
#
# Indices 1 2 3 4 5 6 
#
# 1 105.4743 48.8178 58.4271 -0.0736 0.0001 0.0000
# 2 48.8178 105.4743 58.4271 0.0736 -0.0001 0.0000
# 3 58.4271 58.4271 117.1458 0.0000 0.0000 0.0000
# 4 -0.0736 0.0736 0.0000 21.8978 0.0000 -0.0001
# 5 0.0001 -0.0001 0.0000 0.0000 21.8978 -0.0736
# 6 0.0000 0.0000 0.0000 -0.0001 -0.0736 28.3283
#
#
#
# Elastic Compliance Matrix: (Units=1/GPa)
#
#
# Indices 1 2 3 4 5 6 
#
# 1 0.014033 -0.003617 -0.005195 0.000059 0.000000 0.000000
# 2 -0.003617 0.014033 -0.005195 -0.000059 0.000000 0.000000
# 3 -0.005195 -0.005195 0.013718 0.000000 0.000000 0.000000
# 4 0.000059 -0.000059 0.000000 0.045667 0.000000 0.000000
# 5 0.000000 0.000000 0.000000 0.000000 0.045667 0.000119
# 6 0.000000 0.000000 0.000000 0.000000 0.000119 0.035301
#
#
# Mechanical properties :
#
#
# Convention : Reuss Voigt Hill
#
# Bulk Modulus (GPa) = 72.62111 73.27092 72.94601
# Shear Modulus (GPa) = 24.87279 25.25297 25.06288
#
# Velocity S-wave (km/s) = 3.71015 3.73839 3.72430
# Velocity P-wave (km/s) = 7.65139 7.69311 7.67228
#
# Compressibility (1/GPa) = 0.01377010
#
# Stress axis : x y z
#
# Youngs Moduli (GPa) = 71.26089 71.26089 72.89572
#
# Poissons Ratio (x) = 0.25778 0.37868
# Poissons Ratio (y) = 0.25778 0.37868
# Poissons Ratio (z) = 0.37019 0.37019
#
# Static dielectric constant tensor:
#      x y z
#    x 3.461600 0.000000 0.000000 
#    y 0.000000 3.461600 0.000000 
#    z 0.000000 0.000000 3.239280 
# 
# 
# High freq. dielectric constant tensor:
#      x y z
#    x 1.701740 0.000000 0.000000 
#    y 0.000000 1.701740 0.000000 
#    z 0.000000 0.000000 1.681470 
# 
# From -- ./inp_files/8161.got.cif
#   From: 2010.03.12/outbox.cif.g09.slc.cpg/sg166_5_cif.got.tgz:8161.got - 2010.04.02 06:38:31.
