data_PCOD8324312
_publ_section_title
;
Structure prediction by ZEFSAII (Michael W. Deem and Ramdas Pophale) SiO2 
 PCOD8324312
Probable space group: R -3 C 
;
_chemical_formula_sum "Si O2"
_cell_formula_units_Z 216
_cell_length_a 25.268642
_cell_length_b 25.268642
_cell_length_c 20.630050
_cell_angle_alpha 90.000000
_cell_angle_beta 90.000000
_cell_angle_gamma 120.000000
_cell_volume 11407.611365
_symmetry_space_group_name_H-M "R -3 C "
_symmetry_group_IT_number 167
_symmetry_cell_setting 'hexagonal'
loop_
_space_group_symop_operation_xyz
x,y,z
-y,x-y,z
-x+y,-x,z
x-y,-y,1/2-z
-x,-x+y,1/2-z
y,x,1/2-z
-x,-y,-z
y,-x+y,-z
x-y,x,-z
-x+y,y,1/2+z
x,x-y,1/2+z
-y,-x,1/2+z
2/3+x,1/3+y,1/3+z
2/3-y,1/3+x-y,1/3+z
2/3-x+y,1/3-x,1/3+z
2/3+x-y,1/3-y,5/6-z
2/3-x,1/3-x+y,5/6-z
2/3+y,1/3+x,5/6-z
2/3-x,1/3-y,1/3-z
2/3+y,1/3-x+y,1/3-z
2/3+x-y,1/3+x,1/3-z
2/3-x+y,1/3+y,5/6+z
2/3+x,1/3+x-y,5/6+z
2/3-y,1/3-x,5/6+z
1/3+x,2/3+y,2/3+z
1/3-y,2/3+x-y,2/3+z
1/3-x+y,2/3-x,2/3+z
1/3+x-y,2/3-y,1/6-z
1/3-x,2/3-x+y,1/6-z
1/3+y,2/3+x,1/6-z
1/3-x,2/3-y,2/3-z
1/3+y,2/3-x+y,2/3-z
1/3+x-y,2/3+x,2/3-z
1/3-x+y,2/3+y,1/6+z
1/3+x,2/3+x-y,1/6+z
1/3-y,2/3-x,1/6+z
loop_
_atom_site_type_symbol
_atom_site_label
_atom_site_fract_x
_atom_site_fract_y
_atom_site_fract_z
Si Si1 0.064358 0.749813 0.282693
Si Si2 0.768239 0.465903 0.337558
Si Si3 0.452438 0.542431 0.737776
Si Si4 0.717049 0.646723 0.262304
Si Si5 0.156063 0.320274 0.689434
Si Si6 0.999679 0.227574 0.046558
O O1 0.058557 0.764697 0.357180
O O2 0.117091 0.813591 0.254617
O O3 0.085615 0.700264 0.266268
O O4 0.000000 0.728808 0.250000
O O5 0.775680 0.408452 0.359039
O O6 0.772798 0.505815 0.401070
O O7 0.821054 0.513352 0.289435
O O8 0.450146 0.503066 0.673274
O O9 0.444797 0.507820 0.804365
O O10 0.521420 0.598458 0.739039
O O11 0.693848 0.693848 0.250000
O O12 0.782771 0.681859 0.296598
O O13 0.669584 0.589309 0.307143
#
# Coordination Sequence:
#
# PCOD8324312 Si02
#       6
#    36  36  36  36  36  36
#     4  12  23  34  54  82 116 155 197 239 288 345
#     4  10  20  36  59  87 114 145 189 249 301 350
#     4   9  19  35  59  77 115 147 188 235 287 353
#     4  11  22  37  57  80 117 154 196 241 288 355
#     4  10  21  36  53  82 112 155 194 234 288 345
#     4  10  21  37  55  85 111 152 189 232 297 349
#
# _framework density 18.934726000000001
#
# number of rings (size 3 to 8) (size 9 to 14) (size 15 to 20)
#    0.000    1.667    3.333    1.667    4.667    0.000 
#    0.000    0.000    0.000    0.000    0.000    0.000 
#    0.000    0.000    0.333    0.000    0.000    0.000 
#
# Total GULP energy -892063.911731 kJ/mol
# GULP energy per Si atom -12389.776552 kJ/mol
# Density = 1.889163 g / cm^3
# Si number density = 18.934726 Si / 1000 Ang^3
#
#
#
# Elastic Constant Matrix: (Units=GPa)
#
#
# Indices 1 2 3 4 5 6 
#
# 1 90.7242 35.2921 16.4583 2.0827 0.0000 0.0000
# 2 35.2921 90.7242 16.4583 -2.0827 0.0000 0.0000
# 3 16.4583 16.4583 81.7620 0.0000 0.0000 0.0000
# 4 2.0827 -2.0827 0.0000 21.5348 0.0000 0.0000
# 5 0.0000 0.0000 0.0000 0.0000 21.5348 2.0827
# 6 0.0000 0.0000 0.0000 0.0000 2.0827 27.7160
#
#
#
# Elastic Compliance Matrix: (Units=1/GPa)
#
#
# Indices 1 2 3 4 5 6 
#
# 1 0.013274 -0.004898 -0.001686 -0.001757 0.000000 0.000000
# 2 -0.004898 0.013274 -0.001686 0.001757 0.000000 0.000000
# 3 -0.001686 -0.001686 0.012909 0.000000 0.000000 0.000000
# 4 -0.001757 0.001757 0.000000 0.046776 0.000000 0.000000
# 5 0.000000 0.000000 0.000000 0.000000 0.046776 -0.003515
# 6 0.000000 0.000000 0.000000 0.000000 -0.003515 0.036344
#
#
# Mechanical properties :
#
#
# Convention : Reuss Voigt Hill
#
# Bulk Modulus (GPa) = 43.63559 44.40308 44.01933
# Shear Modulus (GPa) = 25.83524 27.15723 26.49624
#
# Velocity S-wave (km/s) = 3.69784 3.79126 3.74484
# Velocity P-wave (km/s) = 6.42863 6.53195 6.48050
#
# Compressibility (1/GPa) = 0.02291707
#
# Stress axis : x y z
#
# Youngs Moduli (GPa) = 75.33514 75.33514 77.46294
#
# Poissons Ratio (x) = 0.36900 0.13060
# Poissons Ratio (y) = 0.36900 0.13060
# Poissons Ratio (z) = 0.12702 0.12702
#
# Static dielectric constant tensor:
#      x y z
#    x 3.539660 0.000000 0.000000 
#    y 0.000000 3.539660 0.000000 
#    z 0.000000 0.000000 3.473080 
# 
# 
# High freq. dielectric constant tensor:
#      x y z
#    x 1.740040 0.000000 0.000000 
#    y 0.000000 1.740040 0.000000 
#    z 0.000000 0.000000 1.709630 
# 
# From -- ./inp_files/4641.got.cif
#   From: 2010.03.12/outbox.cif.g09.slc.cpg/sg167_3_cif.got.tgz:4641.got - 2010.04.02 06:42:56.
