data_PCOD8324997
_publ_section_title
;
Structure prediction by ZEFSAII (Michael W. Deem and Ramdas Pophale) SiO2 
 PCOD8324997
Probable space group: P 6/M
;
_chemical_formula_sum "Si O2"
_cell_formula_units_Z 60
_cell_length_a 17.504181
_cell_length_b 17.504181
_cell_length_c 12.225280
_cell_angle_alpha 90.000000
_cell_angle_beta 90.000000
_cell_angle_gamma 120.000000
_cell_volume 3243.941676
_symmetry_space_group_name_H-M "P 6/M"
_symmetry_group_IT_number 175
_symmetry_cell_setting 'hexagonal'
loop_
_space_group_symop_operation_xyz
x,y,z
x-y,x,z
-y,x-y,z
-x,-y,z
-x+y,-x,z
y,-x+y,z
-x,-y,-z
-x+y,-x,-z
y,-x+y,-z
x,y,-z
x-y,x,-z
-y,x-y,-z
loop_
_atom_site_type_symbol
_atom_site_label
_atom_site_fract_x
_atom_site_fract_y
_atom_site_fract_z
Si Si1 0.870539 0.806573 0.766609
Si Si2 0.882326 0.370502 0.624691
Si Si3 0.202077 0.394505 0.239610
Si Si4 0.985508 0.197822 0.000000
Si Si5 0.181578 0.817902 0.000000
Si Si6 0.086220 0.443579 0.375579
O O1 0.834835 0.868130 0.715039
O O2 0.808206 0.702136 0.743471
O O3 0.867770 0.824889 0.895869
O O4 0.855598 0.337641 0.500000
O O5 0.822313 0.291850 0.706736
O O6 0.866001 0.451673 0.648739
O O7 0.983202 0.400373 0.645378
O O8 0.120185 0.395419 0.295361
O O9 0.200451 0.419266 0.111446
O O10 0.083238 0.279475 0.000000
O O11 0.924727 0.244436 0.000000
O O12 0.105025 0.428174 0.500000
#
# Coordination Sequence:
#
# PCOD8324997 Si02
#       6
#    12  12  12   6   6  12
#     4  11  19  29  45  73 111 156 202 241 271 310
#     4   9  19  36  58  84 108 133 176 231 290 349
#     4  11  20  34  56  80 112 153 186 234 282 342
#     4  10  16  30  43  68 108 153 197 242 267 293
#     4  10  22  30  50  79 115 151 201 231 264 334
#     4   9  19  37  58  82 109 134 174 234 290 345
#
# _framework density 18.496016000000001
#
# number of rings (size 3 to 8) (size 9 to 14) (size 15 to 20)
#    0.000    2.000    4.000    3.200    2.800    0.000 
#    1.200    2.000    0.000    2.400    0.000    0.000 
#    0.000    9.600    0.000    0.000    0.000    0.000 
#
# Total GULP energy -743402.404784 kJ/mol
# GULP energy per Si atom -12390.040080 kJ/mol
# Density = 1.845392 g / cm^3
# Si number density = 18.496016 Si / 1000 Ang^3
#
#
#
# Elastic Constant Matrix: (Units=GPa)
#
#
# Indices 1 2 3 4 5 6 
#
# 1 57.5246 9.3562 32.0642 0.0000 0.0000 0.0000
# 2 9.3562 57.5246 32.0642 0.0000 0.0000 0.0000
# 3 32.0642 32.0642 96.2109 0.0000 0.0000 0.0000
# 4 0.0000 0.0000 0.0000 24.7372 0.0000 0.0000
# 5 0.0000 0.0000 0.0000 0.0000 24.7372 0.0000
# 6 0.0000 0.0000 0.0000 0.0000 0.0000 24.0842
#
#
#
# Elastic Compliance Matrix: (Units=1/GPa)
#
#
# Indices 1 2 3 4 5 6 
#
# 1 0.021367 0.000607 -0.007323 0.000000 0.000000 0.000000
# 2 0.000607 0.021367 -0.007323 0.000000 0.000000 0.000000
# 3 -0.007323 -0.007323 0.015275 0.000000 0.000000 0.000000
# 4 0.000000 0.000000 0.000000 0.040425 0.000000 0.000000
# 5 0.000000 0.000000 0.000000 0.000000 0.040425 0.000000
# 6 0.000000 0.000000 0.000000 0.000000 0.000000 0.041521
#
#
# Mechanical properties :
#
#
# Convention : Reuss Voigt Hill
#
# Bulk Modulus (GPa) = 33.41150 39.80327 36.60738
# Shear Modulus (GPa) = 22.88995 23.89674 23.39335
#
# Velocity S-wave (km/s) = 3.52172 3.59833 3.56023
# Velocity P-wave (km/s) = 5.88558 6.23142 6.06097
#
# Compressibility (1/GPa) = 0.02992982
#
# Stress axis : x y z
#
# Youngs Moduli (GPa) = 46.80081 46.80081 65.46625
#
# Poissons Ratio (x) = -0.02839 0.47942
# Poissons Ratio (y) = -0.02839 0.47942
# Poissons Ratio (z) = 0.34273 0.34273
#
# Static dielectric constant tensor:
#      x y z
#    x 3.381840 0.000000 0.000000 
#    y 0.000000 3.381840 0.000000 
#    z 0.000000 0.000000 3.294850 
# 
# 
# High freq. dielectric constant tensor:
#      x y z
#    x 1.705600 0.000000 0.000000 
#    y 0.000000 1.705600 0.000000 
#    z 0.000000 0.000000 1.697870 
# 
# From -- ./inp_files/1865.got.cif
#   From: 2010.03.12/outbox.cif.g09.slc.cpg/sg175_1_cif.got.tgz:1865.got - 2010.04.02 06:55:29.
