data_PCOD8324672
_publ_section_title
;
Structure prediction by ZEFSAII (Michael W. Deem and Ramdas Pophale) SiO2 
 PCOD8324672
Probable space group: P 65
;
_chemical_formula_sum "Si O2"
_cell_formula_units_Z 42
_cell_length_a 14.797781
_cell_length_b 14.797781
_cell_length_c 11.278987
_cell_angle_alpha 90.000000
_cell_angle_beta 90.000000
_cell_angle_gamma 120.000000
_cell_volume 2138.916936
_symmetry_space_group_name_H-M "P 65"
_symmetry_group_IT_number 170
_symmetry_cell_setting 'hexagonal'
loop_
_space_group_symop_operation_xyz
x,y,z
x-y,x,5/6+z
-y,x-y,2/3+z
-x,-y,1/2+z
-x+y,-x,1/3+z
y,-x+y,1/6+z
loop_
_atom_site_type_symbol
_atom_site_label
_atom_site_fract_x
_atom_site_fract_y
_atom_site_fract_z
Si Si1 0.466459 0.883167 0.042400
Si Si2 0.742628 0.102972 0.210579
Si Si3 0.133149 0.739945 0.896760
Si Si4 0.393203 0.260054 0.188492
Si Si5 0.243007 0.486015 0.792625
Si Si6 0.257372 0.360343 0.208006
Si Si7 0.466458 0.583293 0.876184
O O1 0.509986 0.864450 0.164492
O O2 0.345191 0.793608 0.043196
O O3 0.482604 0.000001 0.042626
O O4 0.527390 0.872473 0.928557
O O5 0.776782 0.150747 0.342100
O O6 0.843455 0.156545 0.125959
O O7 0.654919 0.127529 0.156694
O O8 0.706160 0.981511 0.212951
O O9 0.150182 0.735008 0.036300
O O10 0.293840 0.275350 0.205633
O O11 0.373965 0.150746 0.243151
O O12 0.490014 0.354463 0.254093
O O13 0.415173 0.264991 0.048951
O O14 0.345190 0.551584 0.875388
#
# Coordination Sequence:
#
# PCOD8324672 Si02
#       7
#     6   6   6   6   6   6   6
#     4   9  21  39  56  80 120 155 197 231 277 339
#     4   9  19  40  62  84 111 153 203 239 280 343
#     4  10  22  36  59  89 116 153 196 235 292 342
#     4  10  22  36  59  89 116 153 196 235 292 342
#     4  12  24  34  56  88 124 154 188 236 296 340
#     4   9  19  40  62  84 111 153 203 239 280 343
#     4   9  21  39  56  80 120 155 197 231 277 339
#
# _framework density 19.636108
#
# number of rings (size 3 to 8) (size 9 to 14) (size 15 to 20)
#    0.000    2.286    0.000    3.429    4.000    8.000 
#    0.000    0.000    0.000    0.000   18.571    0.000 
#    0.000    0.000    0.000    0.000    0.000    0.000 
#
# Total GULP energy -520634.723908 kJ/mol
# GULP energy per Si atom -12396.064855 kJ/mol
# Density = 1.959142 g / cm^3
# Si number density = 19.636108 Si / 1000 Ang^3
#
#
#
# Elastic Constant Matrix: (Units=GPa)
#
#
# Indices 1 2 3 4 5 6 
#
# 1 109.2661 57.9357 34.9148 0.0000 0.0000 0.0000
# 2 57.9357 109.2661 34.9148 0.0000 0.0000 0.0000
# 3 34.9148 34.9148 98.1723 0.0000 0.0000 0.0000
# 4 0.0000 0.0000 0.0000 20.8609 0.0000 0.0000
# 5 0.0000 0.0000 0.0000 0.0000 20.8609 0.0000
# 6 0.0000 0.0000 0.0000 0.0000 0.0000 25.6652
#
#
#
# Elastic Compliance Matrix: (Units=1/GPa)
#
#
# Indices 1 2 3 4 5 6 
#
# 1 0.013253 -0.006229 -0.002498 0.000000 0.000000 0.000000
# 2 -0.006229 0.013253 -0.002498 0.000000 0.000000 0.000000
# 3 -0.002498 -0.002498 0.011963 0.000000 0.000000 0.000000
# 4 0.000000 0.000000 0.000000 0.047937 0.000000 0.000000
# 5 0.000000 0.000000 0.000000 0.000000 0.047937 0.000000
# 6 0.000000 0.000000 0.000000 0.000000 0.000000 0.038963
#
#
# Mechanical properties :
#
#
# Convention : Reuss Voigt Hill
#
# Bulk Modulus (GPa) = 62.42652 63.58168 63.00410
# Shear Modulus (GPa) = 24.86387 26.07333 25.46860
#
# Velocity S-wave (km/s) = 3.56228 3.64789 3.60534
# Velocity P-wave (km/s) = 6.98430 7.08471 7.03468
#
# Compressibility (1/GPa) = 0.01601883
#
# Stress axis : x y z
#
# Youngs Moduli (GPa) = 75.45540 75.45540 83.59064
#
# Poissons Ratio (x) = 0.46999 0.20882
# Poissons Ratio (y) = 0.46999 0.20882
# Poissons Ratio (z) = 0.18850 0.18850
#
# Static dielectric constant tensor:
#      x y z
#    x 3.510410 0.000000 0.000000 
#    y 0.000000 3.510410 0.000000 
#    z 0.000000 0.000000 3.559910 
# 
# 
# High freq. dielectric constant tensor:
#      x y z
#    x 1.749160 0.000000 0.000000 
#    y 0.000000 1.749160 0.000000 
#    z 0.000000 0.000000 1.767140 
# 
# From -- ./inp_files/966.got.cif
#   From: 2010.03.12/outbox.cif.g09.slc.cpg/sg170_cif.got.tgz:966.got - 2010.04.02 06:47:37.
