data_PCOD8324910
_publ_section_title
;
Structure prediction by ZEFSAII (Michael W. Deem and Ramdas Pophale) SiO2 
 PCOD8324910
Probable space group: P -6
;
_chemical_formula_sum "Si O2"
_cell_formula_units_Z 36
_cell_length_a 16.675006
_cell_length_b 16.675006
_cell_length_c 9.308809
_cell_angle_alpha 90.000000
_cell_angle_beta 90.000000
_cell_angle_gamma 120.000000
_cell_volume 2241.592934
_symmetry_space_group_name_H-M "P -6"
_symmetry_group_IT_number 174
_symmetry_cell_setting 'hexagonal'
loop_
_space_group_symop_operation_xyz
x,y,z
-x+y,-x,-z
-y,x-y,z
x,y,-z
-x+y,-x,z
-y,x-y,-z
loop_
_atom_site_type_symbol
_atom_site_label
_atom_site_fract_x
_atom_site_fract_y
_atom_site_fract_z
Si Si1 0.310456 0.554714 0.838595
Si Si2 0.112395 0.899166 0.166673
Si Si3 0.760372 0.437770 0.669029
Si Si4 0.728279 0.093815 0.669607
Si Si5 0.256633 0.374655 0.331124
Si Si6 0.899419 0.788884 0.166648
O O1 0.412313 0.646335 0.817645
O O2 0.296444 0.478614 0.722891
O O3 0.302153 0.515061 0.000000
O O4 0.148242 0.841486 0.257465
O O5 0.005432 0.865053 0.198611
O O6 0.170261 0.005203 0.216075
O O7 0.128241 0.887396 0.000000
O O8 0.656498 0.418805 0.712161
O O9 0.772662 0.451198 0.500000
O O10 0.843205 0.531258 0.737306
O O11 0.743807 0.105586 0.500000
O O12 0.827658 0.130207 0.741386
O O13 0.657151 0.987687 0.710779
O O14 0.240660 0.371829 0.500000
O O15 0.885152 0.761662 0.000000
#
# Coordination Sequence:
#
# PCOD8324910 Si02
#       6
#     6   6   6   6   6   6
#     4   8  17  34  54  70  87 120 159 192 231 277
#     4   9  17  30  47  65  90 124 163 201 234 281
#     4   7  12  25  47  67  83 115 155 184 214 262
#     4   9  17  29  45  69  98 122 150 190 232 276
#     4  10  19  29  45  71 100 126 152 190 239 282
#     4   9  17  29  46  66  88 121 161 197 234 274
#
# _framework density 16.060008
#
# number of rings (size 3 to 8) (size 9 to 14) (size 15 to 20)
#    0.667    2.667    0.000    0.833    0.000    3.333 
#    0.000    1.667    0.000    5.000    0.000    0.000 
#    0.000    0.000    0.000    0.000    0.000    0.000 
#
# Total GULP energy -446016.241045 kJ/mol
# GULP energy per Si atom -12389.340029 kJ/mol
# Density = 1.602345 g / cm^3
# Si number density = 16.060008 Si / 1000 Ang^3
#
#
#
# Elastic Constant Matrix: (Units=GPa)
#
#
# Indices 1 2 3 4 5 6 
#
# 1 97.4094 56.3514 36.9614 0.0000 0.0000 0.0000
# 2 56.3514 97.4094 36.9614 0.0000 0.0000 0.0000
# 3 36.9614 36.9614 46.1433 0.0000 0.0000 0.0000
# 4 0.0000 0.0000 0.0000 23.9425 0.0000 0.0000
# 5 0.0000 0.0000 0.0000 0.0000 23.9425 0.0000
# 6 0.0000 0.0000 0.0000 0.0000 0.0000 20.5290
#
#
#
# Elastic Compliance Matrix: (Units=1/GPa)
#
#
# Indices 1 2 3 4 5 6 
#
# 1 0.017466 -0.006890 -0.008472 0.000000 0.000000 0.000000
# 2 -0.006890 0.017466 -0.008472 0.000000 0.000000 0.000000
# 3 -0.008472 -0.008472 0.035244 0.000000 0.000000 0.000000
# 4 0.000000 0.000000 0.000000 0.041767 0.000000 0.000000
# 5 0.000000 0.000000 0.000000 0.000000 0.041767 0.000000
# 6 0.000000 0.000000 0.000000 0.000000 0.000000 0.048712
#
#
# Mechanical properties :
#
#
# Convention : Reuss Voigt Hill
#
# Bulk Modulus (GPa) = 44.42630 55.72340 50.07485
# Shear Modulus (GPa) = 19.41052 21.06197 20.23624
#
# Velocity S-wave (km/s) = 3.48030 3.62533 3.55355
# Velocity P-wave (km/s) = 6.62365 7.23162 6.93430
#
# Compressibility (1/GPa) = 0.02250919
#
# Stress axis : x y z
#
# Youngs Moduli (GPa) = 57.25324 57.25324 28.37352
#
# Poissons Ratio (x) = 0.39445 0.24038
# Poissons Ratio (y) = 0.39445 0.24038
# Poissons Ratio (z) = 0.48505 0.48505
#
# Static dielectric constant tensor:
#      x y z
#    x 3.104830 0.000000 0.000000 
#    y 0.000000 3.104830 0.000000 
#    z 0.000000 0.000000 2.848710 
# 
# 
# High freq. dielectric constant tensor:
#      x y z
#    x 1.607770 0.000000 0.000000 
#    y 0.000000 1.607770 0.000000 
#    z 0.000000 0.000000 1.602450 
# 
# From -- ./inp_files/424.got.cif
#   From: 2010.03.12/outbox.cif.g09.slc.cpg/sg174_cif.got.tgz:424.got - 2010.04.02 06:54:58.
