data_PCOD8324971
_publ_section_title
;
Structure prediction by ZEFSAII (Michael W. Deem and Ramdas Pophale) SiO2 
 PCOD8324971
Probable space group: P -6
;
_chemical_formula_sum "Si O2"
_cell_formula_units_Z 30
_cell_length_a 8.623664
_cell_length_b 8.623664
_cell_length_c 24.021067
_cell_angle_alpha 90.000000
_cell_angle_beta 90.000000
_cell_angle_gamma 120.000000
_cell_volume 1547.057944
_symmetry_space_group_name_H-M "P -6"
_symmetry_group_IT_number 174
_symmetry_cell_setting 'hexagonal'
loop_
_space_group_symop_operation_xyz
x,y,z
-x+y,-x,-z
-y,x-y,z
x,y,-z
-x+y,-x,z
-y,x-y,-z
loop_
_atom_site_type_symbol
_atom_site_label
_atom_site_fract_x
_atom_site_fract_y
_atom_site_fract_z
Si Si1 0.664997 0.992902 0.719798
Si Si2 0.322913 0.462684 0.161507
Si Si3 0.207297 0.017543 0.438681
Si Si4 0.338520 0.007520 0.675850
Si Si5 0.790412 0.975059 0.937850
O O1 0.653232 0.974048 0.786288
O O2 0.606826 0.801798 0.692612
O O3 0.534785 0.060554 0.696271
O O4 0.866613 0.139554 0.704569
O O5 0.504615 0.656849 0.162834
O O6 0.316037 0.356458 0.105926
O O7 0.289958 0.024385 0.500000
O O8 0.343157 0.028721 0.391187
O O9 0.167160 0.182479 0.432546
O O10 0.836944 0.814480 0.930062
O O11 0.713583 0.965241 0.000000
#
# Coordination Sequence:
#
# PCOD8324971 Si02
#       5
#     6   6   6   6   6
#     4  12  24  39  60  88 127 158 212 249 313 377
#     4  10  21  36  53  88 120 153 198 252 299 352
#     4   8  15  33  61  89 113 151 204 247 303 377
#     4  12  22  41  59  89 120 166 196 259 316 366
#     4   8  18  35  57  84 112 152 204 243 287 356
#
# _framework density 19.391646000000001
#
# number of rings (size 3 to 8) (size 9 to 14) (size 15 to 20)
#    1.200    0.800    4.000    1.200    2.800    0.800 
#    0.000    2.000    0.000    0.800    0.000    0.000 
#    0.000    0.000    0.000    0.000    0.000    0.000 
#
# Total GULP energy -371793.764090 kJ/mol
# GULP energy per Si atom -12393.125470 kJ/mol
# Density = 1.934751 g / cm^3
# Si number density = 19.391646 Si / 1000 Ang^3
#
#
#
# Elastic Constant Matrix: (Units=GPa)
#
#
# Indices 1 2 3 4 5 6 
#
# 1 50.5542 7.9395 37.1350 0.0000 0.0000 0.0000
# 2 7.9395 50.5542 37.1350 0.0000 0.0000 0.0000
# 3 37.1350 37.1350 192.9260 0.0000 0.0000 0.0000
# 4 0.0000 0.0000 0.0000 27.2336 0.0000 0.0000
# 5 0.0000 0.0000 0.0000 0.0000 27.2336 0.0000
# 6 0.0000 0.0000 0.0000 0.0000 0.0000 21.3073
#
#
#
# Elastic Compliance Matrix: (Units=1/GPa)
#
#
# Indices 1 2 3 4 5 6 
#
# 1 0.023046 -0.000420 -0.004355 0.000000 0.000000 0.000000
# 2 -0.000420 0.023046 -0.004355 0.000000 0.000000 0.000000
# 3 -0.004355 -0.004355 0.006860 0.000000 0.000000 0.000000
# 4 0.000000 0.000000 0.000000 0.036719 0.000000 0.000000
# 5 0.000000 0.000000 0.000000 0.000000 0.036719 0.000000
# 6 0.000000 0.000000 0.000000 0.000000 0.000000 0.046932
#
#
# Mechanical properties :
#
#
# Convention : Reuss Voigt Hill
#
# Bulk Modulus (GPa) = 28.82618 50.93926 39.88272
# Shear Modulus (GPa) = 24.61277 29.27656 26.94466
#
# Velocity S-wave (km/s) = 3.56651 3.88977 3.73164
# Velocity P-wave (km/s) = 5.64425 6.81905 6.25927
#
# Compressibility (1/GPa) = 0.03469069
#
# Stress axis : x y z
#
# Youngs Moduli (GPa) = 43.39194 43.39194 145.77546
#
# Poissons Ratio (x) = 0.01824 0.63485
# Poissons Ratio (y) = 0.01824 0.63485
# Poissons Ratio (z) = 0.18897 0.18897
#
# Static dielectric constant tensor:
#      x y z
#    x 3.148300 0.000000 0.000000 
#    y 0.000000 3.148300 0.000000 
#    z 0.000000 0.000000 3.522560 
# 
# 
# High freq. dielectric constant tensor:
#      x y z
#    x 1.723900 0.000000 0.000000 
#    y 0.000000 1.723900 0.000000 
#    z 0.000000 0.000000 1.769980 
# 
# From -- ./inp_files/1070.got.cif
#   From: 2010.03.12/outbox.cif.g09.slc.cpg/sg174_cif.got.tgz:1070.got - 2010.04.02 06:54:58.
