data_PCOD8324668
_publ_section_title
;
Structure prediction by ZEFSAII (Michael W. Deem and Ramdas Pophale) SiO2 
 PCOD8324668
Probable space group: P 65
;
_chemical_formula_sum "Si O2"
_cell_formula_units_Z 24
_cell_length_a 10.071408
_cell_length_b 10.071408
_cell_length_c 9.985492
_cell_angle_alpha 90.000000
_cell_angle_beta 90.000000
_cell_angle_gamma 120.000000
_cell_volume 877.163354
_symmetry_space_group_name_H-M "P 65"
_symmetry_group_IT_number 170
_symmetry_cell_setting 'hexagonal'
loop_
_space_group_symop_operation_xyz
x,y,z
x-y,x,5/6+z
-y,x-y,2/3+z
-x,-y,1/2+z
-x+y,-x,1/3+z
y,-x+y,1/6+z
loop_
_atom_site_type_symbol
_atom_site_label
_atom_site_fract_x
_atom_site_fract_y
_atom_site_fract_z
Si Si1 0.851648 0.135154 0.593490
Si Si2 0.932751 0.732311 0.844467
Si Si3 0.171448 0.567942 0.449687
Si Si4 0.370252 0.826410 0.270946
O O1 0.715717 0.167857 0.635487
O O2 0.958299 0.172934 0.723762
O O3 0.950892 0.238774 0.468505
O O4 0.840398 0.548152 0.828509
O O5 0.022376 0.816637 0.710723
O O6 0.249956 0.738559 0.390189
O O7 0.274033 0.548125 0.565514
O O8 0.997232 0.514410 0.496025
#
# Coordination Sequence:
#
# PCOD8324668 Si02
#       4
#     6   6   6   6
#     4  10  21  43  76 106 152 197 246 305 380 447
#     4  10  21  43  73 105 148 194 240 303 377 446
#     4  12  26  45  73 108 146 192 253 307 381 442
#     4  12  26  45  74 107 146 195 247 317 370 451
#
# _framework density 27.360925000000002
#
# number of rings (size 3 to 8) (size 9 to 14) (size 15 to 20)
#    0.000    1.000    5.000    1.500    3.500    2.000 
#    0.000   12.500    0.000    0.000    0.000    0.000 
#    0.000    0.000    0.000    0.000    0.000    0.000 
#
# Total GULP energy -297463.822644 kJ/mol
# GULP energy per Si atom -12394.325944 kJ/mol
# Density = 2.729865 g / cm^3
# Si number density = 27.360925 Si / 1000 Ang^3
#
#
#
# Elastic Constant Matrix: (Units=GPa)
#
#
# Indices 1 2 3 4 5 6 
#
# 1 148.3594 64.8234 21.1018 0.0000 0.0000 0.0000
# 2 64.8234 148.3594 21.1018 0.0000 0.0000 0.0000
# 3 21.1018 21.1018 31.9141 0.0000 0.0000 0.0000
# 4 0.0000 0.0000 0.0000 29.7464 0.0000 0.0000
# 5 0.0000 0.0000 0.0000 0.0000 29.7464 0.0000
# 6 0.0000 0.0000 0.0000 0.0000 0.0000 41.7680
#
#
#
# Elastic Compliance Matrix: (Units=1/GPa)
#
#
# Indices 1 2 3 4 5 6 
#
# 1 0.008684 -0.003287 -0.003569 0.000000 0.000000 0.000000
# 2 -0.003287 0.008684 -0.003569 0.000000 0.000000 0.000000
# 3 -0.003569 -0.003569 0.036053 0.000000 0.000000 0.000000
# 4 0.000000 0.000000 0.000000 0.033618 0.000000 0.000000
# 5 0.000000 0.000000 0.000000 0.000000 0.033618 0.000000
# 6 0.000000 0.000000 0.000000 0.000000 0.000000 0.023942
#
#
# Mechanical properties :
#
#
# Convention : Reuss Voigt Hill
#
# Bulk Modulus (GPa) = 30.70018 60.29854 45.49936
# Shear Modulus (GPa) = 28.36003 35.02590 31.69297
#
# Velocity S-wave (km/s) = 3.22299 3.58179 3.40712
# Velocity P-wave (km/s) = 5.00949 6.26033 5.66951
#
# Compressibility (1/GPa) = 0.03257310
#
# Stress axis : x y z
#
# Youngs Moduli (GPa) = 115.15307 115.15307 27.73666
#
# Poissons Ratio (x) = 0.37848 0.09898
# Poissons Ratio (y) = 0.37848 0.09898
# Poissons Ratio (z) = 0.41095 0.41095
#
# Static dielectric constant tensor:
#      x y z
#    x 5.245330 0.000000 0.000000 
#    y 0.000000 5.245330 0.000000 
#    z 0.000000 0.000000 4.149240 
# 
# 
# High freq. dielectric constant tensor:
#      x y z
#    x 2.116520 0.000000 0.000000 
#    y 0.000000 2.116520 0.000000 
#    z 0.000000 0.000000 2.060160 
# 
# From -- ./inp_files/876.got.cif
#   From: 2010.03.12/outbox.cif.g09.slc.cpg/sg170_cif.got.tgz:876.got - 2010.04.02 06:47:37.
