data_PCOD8324774
_publ_section_title
;
Structure prediction by ZEFSAII (Michael W. Deem and Ramdas Pophale) SiO2 
 PCOD8324774
Probable space group: P 62
;
_chemical_formula_sum "Si O2"
_cell_formula_units_Z 42
_cell_length_a 14.358008
_cell_length_b 14.358008
_cell_length_c 10.025070
_cell_angle_alpha 90.000000
_cell_angle_beta 90.000000
_cell_angle_gamma 120.000000
_cell_volume 1789.807928
_symmetry_space_group_name_H-M "P 62"
_symmetry_group_IT_number 171
_symmetry_cell_setting 'hexagonal'
loop_
_space_group_symop_operation_xyz
x,y,z
x-y,x,1/3+z
-y,x-y,2/3+z
-x,-y,z
-x+y,-x,1/3+z
y,-x+y,2/3+z
loop_
_atom_site_type_symbol
_atom_site_label
_atom_site_fract_x
_atom_site_fract_y
_atom_site_fract_z
Si Si1 0.243383 0.608620 0.429350
Si Si2 0.651057 0.598172 0.711632
Si Si3 0.727445 0.032271 0.127058
Si Si4 0.682317 0.161704 0.509824
Si Si5 0.765663 0.942628 0.580315
Si Si6 0.102661 0.829838 0.546553
Si Si7 0.478303 0.709580 0.368274
O O1 0.253715 0.725592 0.431054
O O2 0.172425 0.556417 0.298591
O O3 0.364028 0.626433 0.431424
O O4 0.190196 0.528232 0.553106
O O5 0.682068 0.633145 0.557488
O O6 0.539936 0.597803 0.752421
O O7 0.738014 0.683531 0.810081
O O8 0.660558 0.489976 0.716869
O O9 0.837794 0.064506 0.206810
O O10 0.709921 0.133319 0.108097
O O11 0.724950 0.979692 0.985511
O O12 0.777059 0.147146 0.572880
O O13 0.723459 0.936034 0.731154
O O14 0.882786 0.050818 0.566403
#
# Coordination Sequence:
#
# PCOD8324774 Si02
#       7
#     6   6   6   6   6   6   6
#     4  10  23  43  67  96 140 174 225 292 344 391
#     4  10  22  41  69  96 131 173 235 266 342 412
#     4  11  23  42  71  99 135 179 226 279 341 413
#     4  10  22  42  67  97 134 179 223 286 344 406
#     4  10  22  41  64  99 133 175 221 278 327 403
#     4  11  24  41  71  94 140 177 228 278 347 408
#     4  10  24  42  70  94 136 179 221 285 343 401
#
# _framework density 23.466204000000001
#
# number of rings (size 3 to 8) (size 9 to 14) (size 15 to 20)
#    0.000    1.714    2.857    0.857   12.000    0.571 
#    0.000    9.286    0.000    0.000    0.000    0.000 
#    0.000    0.000    0.000    0.000    0.000    0.000 
#
# Total GULP energy -520432.889499 kJ/mol
# GULP energy per Si atom -12391.259274 kJ/mol
# Density = 2.341279 g / cm^3
# Si number density = 23.466204 Si / 1000 Ang^3
#
#
#
# Elastic Constant Matrix: (Units=GPa)
#
#
# Indices 1 2 3 4 5 6 
#
# 1 59.5087 7.5831 17.6558 0.0000 0.0000 0.0000
# 2 7.5831 59.5087 17.6558 0.0000 0.0000 0.0000
# 3 17.6558 17.6558 132.8755 0.0000 0.0000 0.0000
# 4 0.0000 0.0000 0.0000 32.0420 0.0000 0.0000
# 5 0.0000 0.0000 0.0000 0.0000 32.0420 0.0000
# 6 0.0000 0.0000 0.0000 0.0000 0.0000 25.9628
#
#
#
# Elastic Compliance Matrix: (Units=1/GPa)
#
#
# Indices 1 2 3 4 5 6 
#
# 1 0.017642 -0.001616 -0.002129 0.000000 0.000000 0.000000
# 2 -0.001616 0.017642 -0.002129 0.000000 0.000000 0.000000
# 3 -0.002129 -0.002129 0.008092 0.000000 0.000000 0.000000
# 4 0.000000 0.000000 0.000000 0.031209 0.000000 0.000000
# 5 0.000000 0.000000 0.000000 0.000000 0.031209 0.000000
# 6 0.000000 0.000000 0.000000 0.000000 0.000000 0.038517
#
#
# Mechanical properties :
#
#
# Convention : Reuss Voigt Hill
#
# Bulk Modulus (GPa) = 31.62010 37.52028 34.57019
# Shear Modulus (GPa) = 30.01155 31.94258 30.97706
#
# Velocity S-wave (km/s) = 3.58009 3.69347 3.63722
# Velocity P-wave (km/s) = 5.53113 5.84917 5.69237
#
# Compressibility (1/GPa) = 0.03162546
#
# Stress axis : x y z
#
# Youngs Moduli (GPa) = 56.68291 56.68291 123.58293
#
# Poissons Ratio (x) = 0.09162 0.26316
# Poissons Ratio (y) = 0.09162 0.26316
# Poissons Ratio (z) = 0.12070 0.12070
#
# Static dielectric constant tensor:
#      x y z
#    x 4.441080 0.000000 0.000000 
#    y 0.000000 4.441080 0.000000 
#    z 0.000000 0.000000 4.203400 
# 
# 
# High freq. dielectric constant tensor:
#      x y z
#    x 1.922900 0.000000 0.000000 
#    y 0.000000 1.922900 0.000000 
#    z 0.000000 0.000000 1.938610 
# 
# From -- ./inp_files/1657.got.cif
#   From: 2010.03.12/outbox.cif.g09.slc.cpg/sg171_1_cif.got.tgz:1657.got - 2010.04.02 06:49:11.
