data_PCOD8324377
_publ_section_title
;
Structure prediction by ZEFSAII (Michael W. Deem and Ramdas Pophale) SiO2 
 PCOD8324377
Probable space group: R -3 C 
;
_chemical_formula_sum "Si O2"
_cell_formula_units_Z 162
_cell_length_a 21.421101
_cell_length_b 21.421101
_cell_length_c 18.338935
_cell_angle_alpha 90.000000
_cell_angle_beta 90.000000
_cell_angle_gamma 120.000000
_cell_volume 7287.663657
_symmetry_space_group_name_H-M "R -3 C "
_symmetry_group_IT_number 167
_symmetry_cell_setting 'hexagonal'
loop_
_space_group_symop_operation_xyz
x,y,z
-y,x-y,z
-x+y,-x,z
x-y,-y,1/2-z
-x,-x+y,1/2-z
y,x,1/2-z
-x,-y,-z
y,-x+y,-z
x-y,x,-z
-x+y,y,1/2+z
x,x-y,1/2+z
-y,-x,1/2+z
2/3+x,1/3+y,1/3+z
2/3-y,1/3+x-y,1/3+z
2/3-x+y,1/3-x,1/3+z
2/3+x-y,1/3-y,5/6-z
2/3-x,1/3-x+y,5/6-z
2/3+y,1/3+x,5/6-z
2/3-x,1/3-y,1/3-z
2/3+y,1/3-x+y,1/3-z
2/3+x-y,1/3+x,1/3-z
2/3-x+y,1/3+y,5/6+z
2/3+x,1/3+x-y,5/6+z
2/3-y,1/3-x,5/6+z
1/3+x,2/3+y,2/3+z
1/3-y,2/3+x-y,2/3+z
1/3-x+y,2/3-x,2/3+z
1/3+x-y,2/3-y,1/6-z
1/3-x,2/3-x+y,1/6-z
1/3+y,2/3+x,1/6-z
1/3-x,2/3-y,2/3-z
1/3+y,2/3-x+y,2/3-z
1/3+x-y,2/3+x,2/3-z
1/3-x+y,2/3+y,1/6+z
1/3+x,2/3+x-y,1/6+z
1/3-y,2/3-x,1/6+z
loop_
_atom_site_type_symbol
_atom_site_label
_atom_site_fract_x
_atom_site_fract_y
_atom_site_fract_z
Si Si1 0.870692 0.977260 0.452695
Si Si2 0.956732 0.520968 0.398972
Si Si3 0.918567 0.666667 0.916667
Si Si4 0.605662 0.064247 0.988169
Si Si5 0.938511 0.871441 0.202107
O O1 0.862352 0.917600 0.511731
O O2 0.792048 0.963088 0.429593
O O3 0.905903 0.970569 0.377482
O O4 0.969105 0.457559 0.428625
O O5 0.978379 0.529513 0.315194
O O6 0.007447 0.592143 0.447011
O O7 0.922216 0.597170 0.943232
O O8 0.604838 0.132570 0.024856
O O9 0.927395 0.927395 0.250000
O O10 0.000000 0.864072 0.250000
#
# Coordination Sequence:
#
# PCOD8324377 Si02
#       5
#    36  36  18  36  36
#     4  11  23  41  64  95 134 167 223 279 337 414
#     4  10  22  43  64  97 132 175 223 274 347 403
#     4  12  22  44  74  94 132 182 222 290 340 396
#     4  10  24  45  65 100 138 170 234 284 334 417
#     4  11  22  39  65  95 131 175 220 271 342 406
#
# _framework density 22.229346
#
# number of rings (size 3 to 8) (size 9 to 14) (size 15 to 20)
#    0.000    1.333    0.000    6.444    0.000    1.778 
#   26.000    0.000    0.000    0.000    0.000    0.000 
#    0.000    0.000    0.000    0.000    0.000    0.000 
#
# Total GULP energy -669125.193482 kJ/mol
# GULP energy per Si atom -12391.207287 kJ/mol
# Density = 2.217875 g / cm^3
# Si number density = 22.229346 Si / 1000 Ang^3
#
#
#
# Elastic Constant Matrix: (Units=GPa)
#
#
# Indices 1 2 3 4 5 6 
#
# 1 91.6759 38.0013 53.4148 14.0138 0.0004 0.0000
# 2 38.0013 91.6759 53.4148 -14.0138 -0.0004 0.0000
# 3 53.4148 53.4148 200.2267 0.0000 0.0000 0.0000
# 4 14.0138 -14.0138 0.0000 37.1615 0.0000 -0.0004
# 5 0.0004 -0.0004 0.0000 0.0000 37.1615 14.0138
# 6 0.0000 0.0000 0.0000 -0.0004 14.0138 26.8373
#
#
#
# Elastic Compliance Matrix: (Units=1/GPa)
#
#
# Indices 1 2 3 4 5 6 
#
# 1 0.016541 -0.006658 -0.002637 -0.008749 0.000000 0.000000
# 2 -0.006658 0.016541 -0.002637 0.008749 0.000000 0.000000
# 3 -0.002637 -0.002637 0.006401 0.000000 0.000000 0.000000
# 4 -0.008749 0.008749 0.000000 0.033508 0.000000 0.000000
# 5 0.000000 0.000000 0.000000 0.000000 0.033508 -0.017497
# 6 0.000000 0.000000 0.000000 0.000000 -0.017497 0.046398
#
#
# Mechanical properties :
#
#
# Convention : Reuss Voigt Hill
#
# Bulk Modulus (GPa) = 64.01384 74.80447 69.40916
# Shear Modulus (GPa) = 27.47753 36.14854 31.81303
#
# Velocity S-wave (km/s) = 3.51963 4.03695 3.78713
# Velocity P-wave (km/s) = 6.73621 7.44671 7.10035
#
# Compressibility (1/GPa) = 0.01562162
#
# Stress axis : x y z
#
# Youngs Moduli (GPa) = 60.45469 60.45469 156.22285
#
# Poissons Ratio (x) = 0.40249 0.41191
# Poissons Ratio (y) = 0.40249 0.41191
# Poissons Ratio (z) = 0.15940 0.15940
#
# Static dielectric constant tensor:
#      x y z
#    x 3.964550 0.000000 0.000000 
#    y 0.000000 3.964550 0.000000 
#    z 0.000000 0.000000 4.544920 
# 
# 
# High freq. dielectric constant tensor:
#      x y z
#    x 1.863020 0.000000 0.000000 
#    y 0.000000 1.863020 0.000000 
#    z 0.000000 0.000000 1.904850 
# 
# From -- ./inp_files/3477.got.cif
#   From: 2010.03.12/outbox.cif.g09.slc.cpg/sg167_2_cif.got.tgz:3477.got - 2010.04.02 06:42:56.
