data_PCOD8324088
_publ_section_title
;
Structure prediction by ZEFSAII (Michael W. Deem and Ramdas Pophale) SiO2 
 PCOD8324088
Probable space group: R -3 M
;
_chemical_formula_sum "Si O2"
_cell_formula_units_Z 126
_cell_length_a 26.553078
_cell_length_b 26.553078
_cell_length_c 11.688790
_cell_angle_alpha 90.000000
_cell_angle_beta 90.000000
_cell_angle_gamma 120.000000
_cell_volume 7137.233912
_symmetry_space_group_name_H-M "R -3 M"
_symmetry_group_IT_number 166
_symmetry_cell_setting 'hexagonal'
loop_
_space_group_symop_operation_xyz
x,y,z
-y,x-y,z
-x+y,-x,z
x-y,-y,-z
-x,-x+y,-z
y,x,-z
-x,-y,-z
y,-x+y,-z
x-y,x,-z
-x+y,y,z
x,x-y,z
-y,-x,z
2/3+x,1/3+y,1/3+z
2/3-y,1/3+x-y,1/3+z
2/3-x+y,1/3-x,1/3+z
2/3+x-y,1/3-y,1/3-z
2/3-x,1/3-x+y,1/3-z
2/3+y,1/3+x,1/3-z
2/3-x,1/3-y,1/3-z
2/3+y,1/3-x+y,1/3-z
2/3+x-y,1/3+x,1/3-z
2/3-x+y,1/3+y,1/3+z
2/3+x,1/3+x-y,1/3+z
2/3-y,1/3-x,1/3+z
1/3+x,2/3+y,2/3+z
1/3-y,2/3+x-y,2/3+z
1/3-x+y,2/3-x,2/3+z
1/3+x-y,2/3-y,2/3-z
1/3-x,2/3-x+y,2/3-z
1/3+y,2/3+x,2/3-z
1/3-x,2/3-y,2/3-z
1/3+y,2/3-x+y,2/3-z
1/3+x-y,2/3+x,2/3-z
1/3-x+y,2/3+y,2/3+z
1/3+x,2/3+x-y,2/3+z
1/3-y,2/3-x,2/3+z
loop_
_atom_site_type_symbol
_atom_site_label
_atom_site_fract_x
_atom_site_fract_y
_atom_site_fract_z
Si Si1 0.882093 0.000000 0.000000
Si Si2 0.629788 0.872432 0.683179
Si Si3 0.396608 0.068073 0.965939
Si Si4 0.545567 0.675257 0.508883
O O1 0.851914 0.006216 0.116649
O O2 0.889274 0.944637 0.011902
O O3 0.638358 0.819179 0.721483
O O4 0.691277 0.927447 0.657631
O O5 0.590272 0.854797 0.569876
O O6 0.599753 0.889347 0.784285
O O7 0.412323 0.078989 0.833334
O O8 0.456145 0.106033 0.040189
O O9 0.364727 0.000000 0.000000
#
# Coordination Sequence:
#
# PCOD8324088 Si02
#       4
#    18  36  36  36
#     4  10  21  40  66  90 112 138 177 238 304 356
#     4  10  19  32  53  76 104 144 187 231 273 320
#     4  12  20  35  52  77 112 160 195 229 270 323
#     4  10  19  33  53  79 116 141 184 230 283 325
#
# _framework density 17.653898999999999
#
# number of rings (size 3 to 8) (size 9 to 14) (size 15 to 20)
#    0.000    1.714    5.714    4.429    0.000    3.429 
#    0.000    4.286    0.000    0.000    0.000    0.000 
#    0.000    2.286    0.000    0.000    0.000    0.000 
#
# Total GULP energy -520468.940634 kJ/mol
# GULP energy per Si atom -12392.117634 kJ/mol
# Density = 1.761372 g / cm^3
# Si number density = 17.653899 Si / 1000 Ang^3
#
#
#
# Elastic Constant Matrix: (Units=GPa)
#
#
# Indices 1 2 3 4 5 6 
#
# 1 67.9428 34.5403 32.1703 -0.1714 -0.0042 -0.0007
# 2 34.5403 67.9445 32.1737 0.1695 -0.0012 -0.0002
# 3 32.1703 32.1737 140.6118 -0.0050 -0.0095 -0.0017
# 4 -0.1714 0.1695 -0.0050 2.2302 -0.0028 -0.0006
# 5 -0.0042 -0.0012 -0.0095 -0.0028 2.2244 -0.1714
# 6 -0.0007 -0.0002 -0.0017 -0.0006 -0.1714 16.7015
#
#
#
# Elastic Compliance Matrix: (Units=1/GPa)
#
#
# Indices 1 2 3 4 5 6 
#
# 1 0.020677 -0.009283 -0.002607 0.002289 0.000026 0.000001
# 2 -0.009283 0.020677 -0.002607 -0.002291 -0.000020 -0.000001
# 3 -0.002607 -0.002607 0.008305 0.000016 0.000029 0.000001
# 4 0.002289 -0.002291 0.000016 0.448746 0.000565 0.000021
# 5 0.000026 -0.000020 0.000029 0.000565 0.449913 0.004617
# 6 0.000001 -0.000001 0.000001 0.000021 0.004617 0.059922
#
#
# Mechanical properties :
#
#
# Convention : Reuss Voigt Hill
#
# Bulk Modulus (GPa) = 48.38993 52.69642 50.54317
# Shear Modulus (GPa) = 4.78871 16.07221 10.43046
#
# Velocity S-wave (km/s) = 1.64877 3.02057 2.43334
# Velocity P-wave (km/s) = 5.57624 6.48688 6.04872
#
# Compressibility (1/GPa) = 0.02066546
#
# Stress axis : x y z
#
# Youngs Moduli (GPa) = 48.36182 48.36188 120.41270
#
# Poissons Ratio (x) = 0.44894 0.31387
# Poissons Ratio (y) = 0.44894 0.31398
# Poissons Ratio (z) = 0.12606 0.12610
#
# Static dielectric constant tensor:
#      x y z
#    x 3.167760 0.000000 -0.000010 
#    y 0.000000 3.167780 0.000000 
#    z -0.000010 0.000000 3.412370 
# 
# 
# High freq. dielectric constant tensor:
#      x y z
#    x 1.667760 0.000000 0.000000 
#    y 0.000000 1.667760 0.000000 
#    z 0.000000 0.000000 1.669510 
# 
# From -- ./inp_files/2842.got.cif
#   From: 2010.03.12/outbox.cif.g09.slc.cpg/sg166_2_cif.got.tgz:2842.got - 2010.04.02 06:38:31.
