data_PCOD8324815
_publ_section_title
;
Structure prediction by ZEFSAII (Michael W. Deem and Ramdas Pophale) SiO2 
 PCOD8324815
Probable space group: P 62
;
_chemical_formula_sum "Si O2"
_cell_formula_units_Z 33
_cell_length_a 16.503842
_cell_length_b 16.503842
_cell_length_c 6.292365
_cell_angle_alpha 90.000000
_cell_angle_beta 90.000000
_cell_angle_gamma 120.000000
_cell_volume 1484.275958
_symmetry_space_group_name_H-M "P 62"
_symmetry_group_IT_number 171
_symmetry_cell_setting 'hexagonal'
loop_
_space_group_symop_operation_xyz
x,y,z
x-y,x,1/3+z
-y,x-y,2/3+z
-x,-y,z
-x+y,-x,1/3+z
y,-x+y,2/3+z
loop_
_atom_site_type_symbol
_atom_site_label
_atom_site_fract_x
_atom_site_fract_y
_atom_site_fract_z
Si Si1 0.231419 0.999326 0.615100
Si Si2 0.913940 0.853761 0.604714
Si Si3 0.000000 0.500000 0.265141
Si Si4 0.905782 0.374583 0.643630
Si Si5 0.626030 0.091577 0.219265
Si Si6 0.615416 0.802735 0.788199
O O1 0.151076 0.959220 0.792966
O O2 0.248282 0.912566 0.575502
O O3 0.213861 0.027356 0.379702
O O4 0.315780 0.091314 0.714740
O O5 0.906304 0.931044 0.473304
O O6 0.055838 0.592527 0.406679
O O7 0.074920 0.490711 0.121811
O O8 0.869283 0.441888 0.739218
O O9 0.817333 0.268900 0.621925
O O10 0.992377 0.383750 0.787870
O O11 0.735629 0.170970 0.249606
#
# Coordination Sequence:
#
# PCOD8324815 Si02
#       6
#     6   6   3   6   6   6
#     4  12  27  39  64 102 150 196 252 309 352 435
#     4  12  24  45  56  84 145 208 265 302 352 405
#     4   8  16  44  68  92 130 174 228 294 372 410
#     4   9  21  42  70 101 137 182 233 300 362 431
#     4   9  21  42  70 101 137 182 233 300 362 431
#     4  12  24  44  69 108 142 190 243 292 370 434
#
# _framework density 22.233060999999999
#
# number of rings (size 3 to 8) (size 9 to 14) (size 15 to 20)
#    0.000    1.818    3.636    1.091    5.091    3.636 
#    0.000    0.000    4.000    0.000    4.727    0.000 
#    0.000    0.000    0.000    0.000    0.000    0.000 
#
# Total GULP energy -408823.211823 kJ/mol
# GULP energy per Si atom -12388.582176 kJ/mol
# Density = 2.218246 g / cm^3
# Si number density = 22.233061 Si / 1000 Ang^3
#
#
#
# Elastic Constant Matrix: (Units=GPa)
#
#
# Indices 1 2 3 4 5 6 
#
# 1 84.5205 29.7229 15.6427 0.0000 0.0000 0.0000
# 2 29.7229 84.5205 15.6427 0.0000 0.0000 0.0000
# 3 15.6427 15.6427 92.0988 0.0000 0.0000 0.0000
# 4 0.0000 0.0000 0.0000 30.3531 0.0000 0.0000
# 5 0.0000 0.0000 0.0000 0.0000 30.3531 0.0000
# 6 0.0000 0.0000 0.0000 0.0000 0.0000 27.3988
#
#
#
# Elastic Compliance Matrix: (Units=1/GPa)
#
#
# Indices 1 2 3 4 5 6 
#
# 1 0.013715 -0.004534 -0.001559 0.000000 0.000000 0.000000
# 2 -0.004534 0.013715 -0.001559 0.000000 0.000000 0.000000
# 3 -0.001559 -0.001559 0.011388 0.000000 0.000000 0.000000
# 4 0.000000 0.000000 0.000000 0.032946 0.000000 0.000000
# 5 0.000000 0.000000 0.000000 0.000000 0.032946 0.000000
# 6 0.000000 0.000000 0.000000 0.000000 0.000000 0.036498
#
#
# Mechanical properties :
#
#
# Convention : Reuss Voigt Hill
#
# Bulk Modulus (GPa) = 42.53308 42.57291 42.55300
# Shear Modulus (GPa) = 30.42314 30.96310 30.69312
#
# Velocity S-wave (km/s) = 3.70317 3.73588 3.71956
# Velocity P-wave (km/s) = 6.12019 6.14810 6.13416
#
# Compressibility (1/GPa) = 0.02351111
#
# Stress axis : x y z
#
# Youngs Moduli (GPa) = 72.91496 72.91496 87.81509
#
# Poissons Ratio (x) = 0.33062 0.13692
# Poissons Ratio (y) = 0.33062 0.13692
# Poissons Ratio (z) = 0.11369 0.11369
#
# Static dielectric constant tensor:
#      x y z
#    x 4.062640 0.000000 0.000000 
#    y 0.000000 4.062640 0.000000 
#    z 0.000000 0.000000 4.393360 
# 
# 
# High freq. dielectric constant tensor:
#      x y z
#    x 1.858970 0.000000 0.000000 
#    y 0.000000 1.858970 0.000000 
#    z 0.000000 0.000000 1.888170 
# 
# From -- ./inp_files/676.got.cif
#   From: 2010.03.12/outbox.cif.g09.slc.cpg/sg171_1_cif.got.tgz:676.got - 2010.04.02 06:49:11.
