data_PCOD8324172
_publ_section_title
;
Structure prediction by ZEFSAII (Michael W. Deem and Ramdas Pophale) SiO2 
 PCOD8324172
Probable space group: R -3 M
;
_chemical_formula_sum "Si O2"
_cell_formula_units_Z 126
_cell_length_a 21.716552
_cell_length_b 21.716552
_cell_length_c 15.077625
_cell_angle_alpha 90.000000
_cell_angle_beta 90.000000
_cell_angle_gamma 120.000000
_cell_volume 6158.079818
_symmetry_space_group_name_H-M "R -3 M"
_symmetry_group_IT_number 166
_symmetry_cell_setting 'hexagonal'
loop_
_space_group_symop_operation_xyz
x,y,z
-y,x-y,z
-x+y,-x,z
x-y,-y,-z
-x,-x+y,-z
y,x,-z
-x,-y,-z
y,-x+y,-z
x-y,x,-z
-x+y,y,z
x,x-y,z
-y,-x,z
2/3+x,1/3+y,1/3+z
2/3-y,1/3+x-y,1/3+z
2/3-x+y,1/3-x,1/3+z
2/3+x-y,1/3-y,1/3-z
2/3-x,1/3-x+y,1/3-z
2/3+y,1/3+x,1/3-z
2/3-x,1/3-y,1/3-z
2/3+y,1/3-x+y,1/3-z
2/3+x-y,1/3+x,1/3-z
2/3-x+y,1/3+y,1/3+z
2/3+x,1/3+x-y,1/3+z
2/3-y,1/3-x,1/3+z
1/3+x,2/3+y,2/3+z
1/3-y,2/3+x-y,2/3+z
1/3-x+y,2/3-x,2/3+z
1/3+x-y,2/3-y,2/3-z
1/3-x,2/3-x+y,2/3-z
1/3+y,2/3+x,2/3-z
1/3-x,2/3-y,2/3-z
1/3+y,2/3-x+y,2/3-z
1/3+x-y,2/3+x,2/3-z
1/3-x+y,2/3+y,2/3+z
1/3+x,2/3+x-y,2/3+z
1/3-y,2/3-x,2/3+z
loop_
_atom_site_type_symbol
_atom_site_label
_atom_site_fract_x
_atom_site_fract_y
_atom_site_fract_z
Si Si1 0.341670 0.949430 0.768421
Si Si2 0.858128 0.857757 0.155909
Si Si3 0.000069 0.138937 0.639334
Si Si4 0.761029 0.000000 0.500000
O O1 0.333334 0.966720 0.666667
O O2 0.279041 0.945708 0.833334
O O3 0.343298 0.876792 0.769776
O O4 0.415967 0.016830 0.804053
O O5 0.927608 0.855216 0.124292
O O6 0.842860 0.838912 0.259055
O O7 0.871031 0.935516 0.133712
O O8 0.943972 0.056028 0.627254
O O9 0.076060 0.152119 0.605250
O O10 0.975882 0.185353 0.582450
#
# Coordination Sequence:
#
# PCOD8324172 Si02
#       4
#    36  36  36  18
#     4  10  23  42  63  89 121 160 204 252 303 357
#     4  10  22  40  64  91 122 158 200 249 303 361
#     4  10  20  36  59  90 125 162 200 245 300 360
#     4  10  22  36  60  86 122 160 204 250 300 360
#
# _framework density 20.460923000000001
#
# number of rings (size 3 to 8) (size 9 to 14) (size 15 to 20)
#    0.857    1.143    0.000    3.143    0.000    6.286 
#    0.000    4.286    0.000    1.714    0.000    0.000 
#    0.000    0.000    0.000    0.000    0.000    0.000 
#
# Total GULP energy -520575.673479 kJ/mol
# GULP energy per Si atom -12394.658892 kJ/mol
# Density = 2.041435 g / cm^3
# Si number density = 20.460923 Si / 1000 Ang^3
#
#
#
# Elastic Constant Matrix: (Units=GPa)
#
#
# Indices 1 2 3 4 5 6 
#
# 1 109.5234 42.3739 44.3631 -0.1983 -0.0001 0.0000
# 2 42.3739 109.5234 44.3631 0.1983 0.0001 0.0000
# 3 44.3631 44.3631 98.4898 0.0000 0.0000 0.0000
# 4 -0.1983 0.1983 0.0000 27.8642 0.0000 0.0001
# 5 -0.0001 0.0001 0.0000 0.0000 27.8642 -0.1983
# 6 0.0000 0.0000 0.0000 0.0001 -0.1983 33.5748
#
#
#
# Elastic Compliance Matrix: (Units=1/GPa)
#
#
# Indices 1 2 3 4 5 6 
#
# 1 0.011913 -0.002979 -0.004024 0.000106 0.000000 0.000000
# 2 -0.002979 0.011913 -0.004024 -0.000106 0.000000 0.000000
# 3 -0.004024 -0.004024 0.013779 0.000000 0.000000 0.000000
# 4 0.000106 -0.000106 0.000000 0.035890 0.000000 0.000000
# 5 0.000000 0.000000 0.000000 0.000000 0.035890 0.000212
# 6 0.000000 0.000000 0.000000 0.000000 0.000212 0.029785
#
#
# Mechanical properties :
#
#
# Convention : Reuss Voigt Hill
#
# Bulk Modulus (GPa) = 64.30915 64.41519 64.36217
# Shear Modulus (GPa) = 30.04641 30.28975 30.16808
#
# Velocity S-wave (km/s) = 3.83623 3.85173 3.84399
# Velocity P-wave (km/s) = 7.14987 7.16460 7.15724
#
# Compressibility (1/GPa) = 0.01554989
#
# Stress axis : x y z
#
# Youngs Moduli (GPa) = 83.93931 83.93931 72.57645
#
# Poissons Ratio (x) = 0.25009 0.29206
# Poissons Ratio (y) = 0.25009 0.29206
# Poissons Ratio (z) = 0.33779 0.33779
#
# Static dielectric constant tensor:
#      x y z
#    x 3.524760 0.000000 0.000000 
#    y 0.000000 3.524760 0.000000 
#    z 0.000000 0.000000 3.706310 
# 
# 
# High freq. dielectric constant tensor:
#      x y z
#    x 1.788240 0.000000 0.000000 
#    y 0.000000 1.788240 0.000000 
#    z 0.000000 0.000000 1.809630 
# 
# From -- ./inp_files/4920.got.cif
#   From: 2010.03.12/outbox.cif.g09.slc.cpg/sg166_3_cif.got.tgz:4920.got - 2010.04.02 06:38:31.
