data_PCOD8324960
_publ_section_title
;
Structure prediction by ZEFSAII (Michael W. Deem and Ramdas Pophale) SiO2 
 PCOD8324960
Probable space group: P -6
;
_chemical_formula_sum "Si O2"
_cell_formula_units_Z 21
_cell_length_a 8.644104
_cell_length_b 8.644104
_cell_length_c 16.305683
_cell_angle_alpha 90.000000
_cell_angle_beta 90.000000
_cell_angle_gamma 120.000000
_cell_volume 1055.138800
_symmetry_space_group_name_H-M "P -6"
_symmetry_group_IT_number 174
_symmetry_cell_setting 'hexagonal'
loop_
_space_group_symop_operation_xyz
x,y,z
-x+y,-x,-z
-y,x-y,z
x,y,-z
-x+y,-x,z
-y,x-y,-z
loop_
_atom_site_type_symbol
_atom_site_label
_atom_site_fract_x
_atom_site_fract_y
_atom_site_fract_z
Si Si1 0.667778 0.995168 0.759623
Si Si2 0.538780 0.857338 0.409947
Si Si3 0.666656 0.532655 0.000000
Si Si4 0.666141 0.661507 0.175837
O O1 0.672843 0.979717 0.660899
O O2 0.724266 0.864085 0.802996
O O3 0.805254 0.196874 0.784410
O O4 0.469468 0.940316 0.788306
O O5 0.346285 0.847918 0.401769
O O6 0.622403 0.935275 0.500000
O O7 0.490844 0.333281 0.000000
O O8 0.665900 0.643351 0.078094
#
# Coordination Sequence:
#
# PCOD8324960 Si02
#       4
#     6   6   3   6
#     4  12  22  42  60 101 118 173 206 258 312 377
#     4   8  15  33  63  91 124 163 204 256 312 374
#     4  10  20  42  62  92 122 166 206 260 318 366
#     4  12  24  39  68  86 134 160 213 259 310 374
#
# _framework density 19.902595000000002
#
# number of rings (size 3 to 8) (size 9 to 14) (size 15 to 20)
#    0.857    0.571    5.714    1.714    0.000    2.286 
#    0.000    2.857    0.000    0.000    0.000    0.000 
#    0.000    0.000    0.000    0.000    0.000    0.000 
#
# Total GULP energy -260361.037091 kJ/mol
# GULP energy per Si atom -12398.144623 kJ/mol
# Density = 1.985730 g / cm^3
# Si number density = 19.902595 Si / 1000 Ang^3
#
#
#
# Elastic Constant Matrix: (Units=GPa)
#
#
# Indices 1 2 3 4 5 6 
#
# 1 59.0746 6.5444 36.7463 0.0000 0.0000 0.0000
# 2 6.5444 59.0746 36.7463 0.0000 0.0000 0.0000
# 3 36.7463 36.7463 213.0908 0.0000 0.0000 0.0000
# 4 0.0000 0.0000 0.0000 19.9589 0.0000 0.0000
# 5 0.0000 0.0000 0.0000 0.0000 19.9589 0.0000
# 6 0.0000 0.0000 0.0000 0.0000 0.0000 26.2651
#
#
#
# Elastic Compliance Matrix: (Units=1/GPa)
#
#
# Indices 1 2 3 4 5 6 
#
# 1 0.018962 -0.000075 -0.003257 0.000000 0.000000 0.000000
# 2 -0.000075 0.018962 -0.003257 0.000000 0.000000 0.000000
# 3 -0.003257 -0.003257 0.005816 0.000000 0.000000 0.000000
# 4 0.000000 0.000000 0.000000 0.050103 0.000000 0.000000
# 5 0.000000 0.000000 0.000000 0.000000 0.050103 0.000000
# 6 0.000000 0.000000 0.000000 0.000000 0.000000 0.038073
#
#
# Mechanical properties :
#
#
# Convention : Reuss Voigt Hill
#
# Bulk Modulus (GPa) = 32.71957 54.59043 43.65500
# Shear Modulus (GPa) = 24.34457 29.98342 27.16400
#
# Velocity S-wave (km/s) = 3.50120 3.88559 3.69839
# Velocity P-wave (km/s) = 5.72888 6.90063 6.34188
#
# Compressibility (1/GPa) = 0.03056275
#
# Stress axis : x y z
#
# Youngs Moduli (GPa) = 52.73704 52.73704 171.93529
#
# Poissons Ratio (x) = 0.00394 0.56000
# Poissons Ratio (y) = 0.00394 0.56000
# Poissons Ratio (z) = 0.17177 0.17177
#
# Static dielectric constant tensor:
#      x y z
#    x 3.242170 0.000000 0.000000 
#    y 0.000000 3.242170 0.000000 
#    z 0.000000 0.000000 3.686970 
# 
# 
# High freq. dielectric constant tensor:
#      x y z
#    x 1.749750 0.000000 0.000000 
#    y 0.000000 1.749750 0.000000 
#    z 0.000000 0.000000 1.795270 
# 
# From -- ./inp_files/959.got.cif
#   From: 2010.03.12/outbox.cif.g09.slc.cpg/sg174_cif.got.tgz:959.got - 2010.04.02 06:54:58.
