data_PCOD8324620
_publ_section_title
;
Structure prediction by ZEFSAII (Michael W. Deem and Ramdas Pophale) SiO2 
 PCOD8324620
Probable space group: P 61
;
_chemical_formula_sum "Si O2"
_cell_formula_units_Z 36
_cell_length_a 13.294164
_cell_length_b 13.294164
_cell_length_c 9.468097
_cell_angle_alpha 90.000000
_cell_angle_beta 90.000000
_cell_angle_gamma 120.000000
_cell_volume 1449.156851
_symmetry_space_group_name_H-M "P 61"
_symmetry_group_IT_number 169
_symmetry_cell_setting 'hexagonal'
loop_
_space_group_symop_operation_xyz
x,y,z
x-y,x,1/6+z
-y,x-y,1/3+z
-x,-y,1/2+z
-x+y,-x,2/3+z
y,-x+y,5/6+z
loop_
_atom_site_type_symbol
_atom_site_label
_atom_site_fract_x
_atom_site_fract_y
_atom_site_fract_z
Si Si1 0.207377 0.805811 0.232070
Si Si2 0.990940 0.347446 0.149044
Si Si3 0.029568 0.218198 0.381386
Si Si4 0.183526 0.212649 0.755905
Si Si5 0.585888 0.401363 0.591569
Si Si6 0.411915 0.592175 0.414554
O O1 0.255777 0.907711 0.116247
O O2 0.102445 0.821965 0.287231
O O3 0.297504 0.828447 0.357628
O O4 0.156687 0.682814 0.154381
O O5 0.882728 0.369396 0.158381
O O6 0.964333 0.241121 0.253444
O O7 0.110181 0.469621 0.171379
O O8 0.002145 0.305668 0.993913
O O9 0.119031 0.179964 0.319489
O O10 0.176970 0.095774 0.702314
O O11 0.682457 0.362593 0.590627
O O12 0.565365 0.428865 0.751711
#
# Coordination Sequence:
#
# PCOD8324620 Si02
#       6
#     6   6   6   6   6   6
#     4  12  28  48  76 116 160 212 264 330 402 488
#     4  12  28  46  80 114 158 214 268 336 400 488
#     4  12  28  54  79 116 157 212 274 340 414 485
#     4  12  28  54  79 116 157 212 274 340 414 485
#     4  12  26  47  77 114 161 212 269 331 407 484
#     4  12  26  47  77 114 161 212 269 331 407 484
#
# _framework density 24.842032
#
# number of rings (size 3 to 8) (size 9 to 14) (size 15 to 20)
#    0.000    0.000    1.667    8.000    9.333    0.000 
#   18.000    0.000    0.000    0.000    0.000    0.000 
#    0.000    0.000    0.000    0.000    0.000    0.000 
#
# Total GULP energy -446510.561242 kJ/mol
# GULP energy per Si atom -12403.071146 kJ/mol
# Density = 2.478549 g / cm^3
# Si number density = 24.842032 Si / 1000 Ang^3
#
#
#
# Elastic Constant Matrix: (Units=GPa)
#
#
# Indices 1 2 3 4 5 6 
#
# 1 115.0989 30.7275 32.5350 0.0000 0.0000 0.0000
# 2 30.7275 115.0989 32.5350 0.0000 0.0000 0.0000
# 3 32.5350 32.5350 114.8372 0.0000 0.0000 0.0000
# 4 0.0000 0.0000 0.0000 53.1536 0.0000 0.0000
# 5 0.0000 0.0000 0.0000 0.0000 53.1536 0.0000
# 6 0.0000 0.0000 0.0000 0.0000 0.0000 42.1857
#
#
#
# Elastic Compliance Matrix: (Units=1/GPa)
#
#
# Indices 1 2 3 4 5 6 
#
# 1 0.009851 -0.002001 -0.002224 0.000000 0.000000 0.000000
# 2 -0.002001 0.009851 -0.002224 0.000000 0.000000 0.000000
# 3 -0.002224 -0.002224 0.009968 0.000000 0.000000 0.000000
# 4 0.000000 0.000000 0.000000 0.018813 0.000000 0.000000
# 5 0.000000 0.000000 0.000000 0.000000 0.018813 0.000000
# 6 0.000000 0.000000 0.000000 0.000000 0.000000 0.023705
#
#
# Mechanical properties :
#
#
# Convention : Reuss Voigt Hill
#
# Bulk Modulus (GPa) = 59.62338 59.62554 59.62446
# Shear Modulus (GPa) = 45.66592 46.31444 45.99018
#
# Velocity S-wave (km/s) = 4.29214 4.32251 4.30735
# Velocity P-wave (km/s) = 6.97254 6.99757 6.98507
#
# Compressibility (1/GPa) = 0.01677194
#
# Stress axis : x y z
#
# Youngs Moduli (GPa) = 101.51156 101.51156 100.31957
#
# Poissons Ratio (x) = 0.20315 0.22311
# Poissons Ratio (y) = 0.20315 0.22311
# Poissons Ratio (z) = 0.22576 0.22576
#
# Static dielectric constant tensor:
#      x y z
#    x 4.373030 0.000000 0.000000 
#    y 0.000000 4.373030 0.000000 
#    z 0.000000 0.000000 4.722560 
# 
# 
# High freq. dielectric constant tensor:
#      x y z
#    x 1.992320 0.000000 0.000000 
#    y 0.000000 1.992320 0.000000 
#    z 0.000000 0.000000 2.006430 
# 
# From -- ./inp_files/596.got.cif
#   From: 2010.03.12/outbox.cif.g09.slc.cpg/sg169_cif.got.tgz:596.got - 2010.04.02 06:46:06.
