data_PCOD8324630
_publ_section_title
;
Structure prediction by ZEFSAII (Michael W. Deem and Ramdas Pophale) SiO2 
 PCOD8324630
Probable space group: P 65
;
_chemical_formula_sum "Si O2"
_cell_formula_units_Z 48
_cell_length_a 17.476889
_cell_length_b 17.476889
_cell_length_c 7.471680
_cell_angle_alpha 90.000000
_cell_angle_beta 90.000000
_cell_angle_gamma 120.000000
_cell_volume 1976.410493
_symmetry_space_group_name_H-M "P 65"
_symmetry_group_IT_number 170
_symmetry_cell_setting 'hexagonal'
loop_
_space_group_symop_operation_xyz
x,y,z
x-y,x,5/6+z
-y,x-y,2/3+z
-x,-y,1/2+z
-x+y,-x,1/3+z
y,-x+y,1/6+z
loop_
_atom_site_type_symbol
_atom_site_label
_atom_site_fract_x
_atom_site_fract_y
_atom_site_fract_z
Si Si1 0.672268 0.990487 0.023830
Si Si2 0.329906 0.317888 0.934615
Si Si3 0.182214 0.683438 0.657928
Si Si4 0.819384 0.490613 0.301655
Si Si5 0.015267 0.858460 0.230000
Si Si6 0.343365 0.847081 0.558639
Si Si7 0.330921 0.486852 0.915174
Si Si8 0.977606 0.840442 0.726859
O O1 0.665482 0.069550 0.114459
O O2 0.765087 0.004802 0.090698
O O3 0.673344 0.999734 0.812401
O O4 0.587558 0.897618 0.086758
O O5 0.418535 0.315576 0.882188
O O6 0.241339 0.233446 0.867666
O O7 0.329368 0.400033 0.838662
O O8 0.180294 0.592908 0.710137
O O9 0.279415 0.767146 0.695330
O O10 0.177764 0.705294 0.449427
O O11 0.829461 0.492053 0.513930
O O12 0.724423 0.486457 0.276666
O O13 0.083929 0.909727 0.395176
O O14 0.920740 0.853268 0.231643
O O15 0.441199 0.872835 0.607361
O O16 0.927258 0.853227 0.891931
#
# Coordination Sequence:
#
# PCOD8324630 Si02
#       8
#     6   6   6   6   6   6   6   6
#     4  10  18  34  55  84 119 150 193 244 295 347
#     4  10  18  34  55  84 119 150 193 244 295 347
#     4  10  22  36  58  86 119 159 194 245 297 346
#     4  10  22  36  58  86 119 159 194 245 297 346
#     4  10  18  29  53  90 115 146 191 242 292 344
#     4  10  22  35  57  87 116 155 200 242 289 350
#     4  10  22  35  57  87 116 155 200 242 289 350
#     4  10  18  29  53  90 115 146 191 242 292 344
#
# _framework density 24.286451
#
# number of rings (size 3 to 8) (size 9 to 14) (size 15 to 20)
#    0.000    2.000    2.500    2.250    7.000    0.000 
#    0.000    0.000    0.000    0.000   71.500    0.000 
#    0.000    0.000    0.000    0.000    0.000    0.000 
#
# Total GULP energy -594751.780266 kJ/mol
# GULP energy per Si atom -12390.662089 kJ/mol
# Density = 2.423117 g / cm^3
# Si number density = 24.286451 Si / 1000 Ang^3
#
#
#
# Elastic Constant Matrix: (Units=GPa)
#
#
# Indices 1 2 3 4 5 6 
#
# 1 203.9425 105.4619 10.3905 0.0000 0.0000 0.0000
# 2 105.4619 203.9425 10.3905 0.0000 0.0000 0.0000
# 3 10.3905 10.3905 23.3133 0.0000 0.0000 0.0000
# 4 0.0000 0.0000 0.0000 21.5062 0.0000 0.0000
# 5 0.0000 0.0000 0.0000 0.0000 21.5062 0.0000
# 6 0.0000 0.0000 0.0000 0.0000 0.0000 49.2403
#
#
#
# Elastic Compliance Matrix: (Units=1/GPa)
#
#
# Indices 1 2 3 4 5 6 
#
# 1 0.006743 -0.003411 -0.001485 0.000000 0.000000 0.000000
# 2 -0.003411 0.006743 -0.001485 0.000000 0.000000 0.000000
# 3 -0.001485 -0.001485 0.044218 0.000000 0.000000 0.000000
# 4 0.000000 0.000000 0.000000 0.046498 0.000000 0.000000
# 5 0.000000 0.000000 0.000000 0.000000 0.046498 0.000000
# 6 0.000000 0.000000 0.000000 0.000000 0.000000 0.020309
#
#
# Mechanical properties :
#
#
# Convention : Reuss Voigt Hill
#
# Bulk Modulus (GPa) = 22.25120 75.96488 49.10804
# Shear Modulus (GPa) = 25.15708 38.78090 31.96899
#
# Velocity S-wave (km/s) = 3.22195 4.00035 3.63206
# Velocity P-wave (km/s) = 4.79825 7.25835 6.15251
#
# Compressibility (1/GPa) = 0.04494139
#
# Stress axis : x y z
#
# Youngs Moduli (GPa) = 148.30149 148.30149 22.61544
#
# Poissons Ratio (x) = 0.50590 0.03358
# Poissons Ratio (y) = 0.50590 0.03358
# Poissons Ratio (z) = 0.22022 0.22022
#
# Static dielectric constant tensor:
#      x y z
#    x 4.665600 0.000000 0.000000 
#    y 0.000000 4.665600 0.000000 
#    z 0.000000 0.000000 4.173480 
# 
# 
# High freq. dielectric constant tensor:
#      x y z
#    x 1.976850 0.000000 0.000000 
#    y 0.000000 1.976850 0.000000 
#    z 0.000000 0.000000 1.946280 
# 
# From -- ./inp_files/741.got.cif
#   From: 2010.03.12/outbox.cif.g09.slc.cpg/sg170_cif.got.tgz:741.got - 2010.04.02 06:47:37.
