data_PCOD8324323
_publ_section_title
;
Structure prediction by ZEFSAII (Michael W. Deem and Ramdas Pophale) SiO2 
 PCOD8324323
Probable space group: R -3 C 
;
_chemical_formula_sum "Si O2"
_cell_formula_units_Z 162
_cell_length_a 23.494326
_cell_length_b 23.494326
_cell_length_c 15.926781
_cell_angle_alpha 90.000000
_cell_angle_beta 90.000000
_cell_angle_gamma 120.000000
_cell_volume 7613.504719
_symmetry_space_group_name_H-M "R -3 C "
_symmetry_group_IT_number 167
_symmetry_cell_setting 'hexagonal'
loop_
_space_group_symop_operation_xyz
x,y,z
-y,x-y,z
-x+y,-x,z
x-y,-y,1/2-z
-x,-x+y,1/2-z
y,x,1/2-z
-x,-y,-z
y,-x+y,-z
x-y,x,-z
-x+y,y,1/2+z
x,x-y,1/2+z
-y,-x,1/2+z
2/3+x,1/3+y,1/3+z
2/3-y,1/3+x-y,1/3+z
2/3-x+y,1/3-x,1/3+z
2/3+x-y,1/3-y,5/6-z
2/3-x,1/3-x+y,5/6-z
2/3+y,1/3+x,5/6-z
2/3-x,1/3-y,1/3-z
2/3+y,1/3-x+y,1/3-z
2/3+x-y,1/3+x,1/3-z
2/3-x+y,1/3+y,5/6+z
2/3+x,1/3+x-y,5/6+z
2/3-y,1/3-x,5/6+z
1/3+x,2/3+y,2/3+z
1/3-y,2/3+x-y,2/3+z
1/3-x+y,2/3-x,2/3+z
1/3+x-y,2/3-y,1/6-z
1/3-x,2/3-x+y,1/6-z
1/3+y,2/3+x,1/6-z
1/3-x,2/3-y,2/3-z
1/3+y,2/3-x+y,2/3-z
1/3+x-y,2/3+x,2/3-z
1/3-x+y,2/3+y,1/6+z
1/3+x,2/3+x-y,1/6+z
1/3-y,2/3-x,1/6+z
loop_
_atom_site_type_symbol
_atom_site_label
_atom_site_fract_x
_atom_site_fract_y
_atom_site_fract_z
Si Si1 0.800816 0.457528 0.344818
Si Si2 0.302330 0.000000 0.750000
Si Si3 0.227400 0.999060 0.114924
Si Si4 0.183546 0.935202 0.857509
Si Si5 0.949281 0.509567 0.090709
O O1 0.786739 0.388626 0.305140
O O2 0.834703 0.512829 0.274965
O O3 0.844604 0.478171 0.429963
O O4 0.374932 0.059061 0.773697
O O5 0.269024 0.010928 0.667020
O O6 0.187963 0.923516 0.148929
O O7 0.252395 0.047078 0.192747
O O8 0.150468 0.900799 0.767681
O O9 0.183947 0.879541 0.917623
#
# Coordination Sequence:
#
# PCOD8324323 Si02
#       5
#    36  18  36  36  36
#     4  12  26  44  62  91 126 177 224 274 313 372
#     4  10  22  38  64 100 130 160 206 266 326 406
#     4  10  20  39  63  89 127 168 209 255 329 379
#     4  10  21  39  63  97 130 161 213 265 325 388
#     4   9  19  39  64  90 127 168 199 263 327 383
#
# _framework density 21.277981
#
# number of rings (size 3 to 8) (size 9 to 14) (size 15 to 20)
#    0.000    1.778    2.222    1.556    3.111    2.667 
#    0.000    2.222    0.000    0.000    0.000    0.000 
#    0.000    0.000    0.000    0.000    0.000    0.000 
#
# Total GULP energy -669261.859976 kJ/mol
# GULP energy per Si atom -12393.738148 kJ/mol
# Density = 2.122955 g / cm^3
# Si number density = 21.277981 Si / 1000 Ang^3
#
#
#
# Elastic Constant Matrix: (Units=GPa)
#
#
# Indices 1 2 3 4 5 6 
#
# 1 113.2250 48.8648 25.2973 -1.4313 0.0000 0.0000
# 2 48.8648 113.2250 25.2973 1.4313 0.0000 0.0000
# 3 25.2973 25.2973 43.3584 0.0000 0.0000 0.0000
# 4 -1.4313 1.4313 0.0000 24.2306 0.0000 0.0000
# 5 0.0000 0.0000 0.0000 0.0000 24.2306 -1.4313
# 6 0.0000 0.0000 0.0000 0.0000 -1.4313 32.1801
#
#
#
# Elastic Compliance Matrix: (Units=1/GPa)
#
#
# Indices 1 2 3 4 5 6 
#
# 1 0.011561 -0.004018 -0.004401 0.000920 0.000000 0.000000
# 2 -0.004018 0.011561 -0.004401 -0.000920 0.000000 0.000000
# 3 -0.004401 -0.004401 0.028199 0.000000 0.000000 0.000000
# 4 0.000920 -0.000920 0.000000 0.041379 0.000000 0.000000
# 5 0.000000 0.000000 0.000000 0.000000 0.041379 0.001840
# 6 0.000000 0.000000 0.000000 0.000000 0.001840 0.031157
#
#
# Mechanical properties :
#
#
# Convention : Reuss Voigt Hill
#
# Bulk Modulus (GPa) = 38.93885 52.08082 45.50984
# Shear Modulus (GPa) = 25.07078 27.48484 26.27781
#
# Velocity S-wave (km/s) = 3.43629 3.59793 3.51804
# Velocity P-wave (km/s) = 5.83814 6.46449 6.15928
#
# Compressibility (1/GPa) = 0.02568129
#
# Stress axis : x y z
#
# Youngs Moduli (GPa) = 86.49905 86.49905 35.46214
#
# Poissons Ratio (x) = 0.34752 0.15607
# Poissons Ratio (y) = 0.34752 0.15607
# Poissons Ratio (z) = 0.38068 0.38068
#
# Static dielectric constant tensor:
#      x y z
#    x 4.138190 0.000000 0.000000 
#    y 0.000000 4.138190 0.000000 
#    z 0.000000 0.000000 3.663580 
# 
# 
# High freq. dielectric constant tensor:
#      x y z
#    x 1.837510 0.000000 0.000000 
#    y 0.000000 1.837510 0.000000 
#    z 0.000000 0.000000 1.802670 
# 
# From -- ./inp_files/3412.got.cif
#   From: 2010.03.12/outbox.cif.g09.slc.cpg/sg167_2_cif.got.tgz:3412.got - 2010.04.02 06:42:56.
