data_PCOD8324782
_publ_section_title
;
Structure prediction by ZEFSAII (Michael W. Deem and Ramdas Pophale) SiO2 
 PCOD8324782
Probable space group: P 62
;
_chemical_formula_sum "Si O2"
_cell_formula_units_Z 24
_cell_length_a 16.153558
_cell_length_b 16.153558
_cell_length_c 5.327567
_cell_angle_alpha 90.000000
_cell_angle_beta 90.000000
_cell_angle_gamma 120.000000
_cell_volume 1203.915325
_symmetry_space_group_name_H-M "P 62"
_symmetry_group_IT_number 171
_symmetry_cell_setting 'hexagonal'
loop_
_space_group_symop_operation_xyz
x,y,z
x-y,x,1/3+z
-y,x-y,2/3+z
-x,-y,z
-x+y,-x,1/3+z
y,-x+y,2/3+z
loop_
_atom_site_type_symbol
_atom_site_label
_atom_site_fract_x
_atom_site_fract_y
_atom_site_fract_z
Si Si1 0.346796 0.453580 0.015080
Si Si2 0.683603 0.643321 0.521656
Si Si3 0.781048 0.166517 0.085615
Si Si4 0.349693 0.763704 0.859934
O O1 0.369181 0.418880 0.275392
O O2 0.402288 0.568858 0.996939
O O3 0.377080 0.413850 0.770823
O O4 0.232297 0.413515 0.001874
O O5 0.687617 0.744802 0.493640
O O6 0.792169 0.662029 0.552841
O O7 0.693191 0.175294 0.977782
O O8 0.265022 0.668421 0.735467
#
# Coordination Sequence:
#
# PCOD8324782 Si02
#       4
#     6   6   6   6
#     4  10  23  40  59  94 120 171 210 267 314 385
#     4  10  23  41  64  92 123 171 210 270 330 371
#     4  10  24  40  66  90 133 166 222 267 325 389
#     4  12  20  39  59  89 131 180 219 261 321 371
#
# _framework density 19.934958000000002
#
# number of rings (size 3 to 8) (size 9 to 14) (size 15 to 20)
#    1.500    0.000    5.000    0.000    3.500    1.000 
#    0.000    5.000    0.000    0.000    0.000    8.750 
#    0.000    0.000    0.000    0.000    0.000    0.000 
#
# Total GULP energy -297360.124905 kJ/mol
# GULP energy per Si atom -12390.005204 kJ/mol
# Density = 1.988958 g / cm^3
# Si number density = 19.934958 Si / 1000 Ang^3
#
#
#
# Elastic Constant Matrix: (Units=GPa)
#
#
# Indices 1 2 3 4 5 6 
#
# 1 88.4956 41.7124 27.0177 0.0000 0.0000 0.0000
# 2 41.7124 88.4956 27.0177 0.0000 0.0000 0.0000
# 3 27.0177 27.0177 120.0447 0.0000 0.0000 0.0000
# 4 0.0000 0.0000 0.0000 21.2572 0.0000 0.0000
# 5 0.0000 0.0000 0.0000 0.0000 21.2572 0.0000
# 6 0.0000 0.0000 0.0000 0.0000 0.0000 23.3916
#
#
#
# Elastic Compliance Matrix: (Units=1/GPa)
#
#
# Indices 1 2 3 4 5 6 
#
# 1 0.014923 -0.006452 -0.001907 0.000000 0.000000 0.000000
# 2 -0.006452 0.014923 -0.001907 0.000000 0.000000 0.000000
# 3 -0.001907 -0.001907 0.009188 0.000000 0.000000 0.000000
# 4 0.000000 0.000000 0.000000 0.047043 0.000000 0.000000
# 5 0.000000 0.000000 0.000000 0.000000 0.047043 0.000000
# 6 0.000000 0.000000 0.000000 0.000000 0.000000 0.042750
#
#
# Mechanical properties :
#
#
# Convention : Reuss Voigt Hill
#
# Bulk Modulus (GPa) = 54.04054 54.28128 54.16091
# Shear Modulus (GPa) = 24.68290 26.60041 25.64166
#
# Velocity S-wave (km/s) = 3.52258 3.65685 3.59035
# Velocity P-wave (km/s) = 6.61151 6.71702 6.66448
#
# Compressibility (1/GPa) = 0.01850462
#
# Stress axis : x y z
#
# Youngs Moduli (GPa) = 67.00968 67.00968 108.83255
#
# Poissons Ratio (x) = 0.43235 0.20750
# Poissons Ratio (y) = 0.43235 0.20750
# Poissons Ratio (z) = 0.12776 0.12776
#
# Static dielectric constant tensor:
#      x y z
#    x 3.358180 0.000000 0.000000 
#    y 0.000000 3.358180 0.000000 
#    z 0.000000 0.000000 3.582280 
# 
# 
# High freq. dielectric constant tensor:
#      x y z
#    x 1.751870 0.000000 0.000000 
#    y 0.000000 1.751870 0.000000 
#    z 0.000000 0.000000 1.784160 
# 
# From -- ./inp_files/549.got.cif
#   From: 2010.03.12/outbox.cif.g09.slc.cpg/sg171_1_cif.got.tgz:549.got - 2010.04.02 06:49:11.
