data_PCOD8324602
_publ_section_title
;
Structure prediction by ZEFSAII (Michael W. Deem and Ramdas Pophale) SiO2 
 PCOD8324602
Probable space group: P 61
;
_chemical_formula_sum "Si O2"
_cell_formula_units_Z 30
_cell_length_a 12.059256
_cell_length_b 12.059256
_cell_length_c 11.553039
_cell_angle_alpha 90.000000
_cell_angle_beta 90.000000
_cell_angle_gamma 120.000000
_cell_volume 1455.016440
_symmetry_space_group_name_H-M "P 61"
_symmetry_group_IT_number 169
_symmetry_cell_setting 'hexagonal'
loop_
_space_group_symop_operation_xyz
x,y,z
x-y,x,1/6+z
-y,x-y,1/3+z
-x,-y,1/2+z
-x+y,-x,2/3+z
y,-x+y,5/6+z
loop_
_atom_site_type_symbol
_atom_site_label
_atom_site_fract_x
_atom_site_fract_y
_atom_site_fract_z
Si Si1 0.751745 0.875872 0.075540
Si Si2 0.292600 0.476501 0.364684
Si Si3 0.428100 0.322639 0.390651
Si Si4 0.183901 0.476501 0.119729
Si Si5 0.105461 0.677361 0.593762
O O1 0.841171 0.841171 0.158873
O O2 0.653709 0.903612 0.147360
O O3 0.653709 0.750098 0.003719
O O4 0.374531 0.409168 0.340878
O O5 0.183685 0.401051 0.459906
O O6 0.241319 0.482638 0.242206
O O7 0.379764 0.620236 0.408873
O O8 0.581481 0.418518 0.408873
O O9 0.034637 0.409168 0.143536
O O10 0.217366 0.401051 0.024506
#
# Coordination Sequence:
#
# PCOD8324602 Si02
#       5
#     6   6   6   6   6
#     4  12  26  52  76 108 148 196 246 298 364 434
#     4  11  24  42  65  98 137 181 232 295 358 430
#     4  11  25  42  70 101 139 182 234 297 361 431
#     4  11  24  42  65  98 137 181 232 295 358 430
#     4  11  25  42  70 101 139 182 234 297 361 431
#
# _framework density 20.618324999999999
#
# number of rings (size 3 to 8) (size 9 to 14) (size 15 to 20)
#    0.000    0.800    4.000    2.400    8.400    0.000 
#    3.600    0.000    0.000    0.000    0.000    0.000 
#    0.000    0.000    0.000    0.000    0.000    0.000 
#
# Total GULP energy -371858.017459 kJ/mol
# GULP energy per Si atom -12395.267249 kJ/mol
# Density = 2.057140 g / cm^3
# Si number density = 20.618325 Si / 1000 Ang^3
#
#
#
# Elastic Constant Matrix: (Units=GPa)
#
#
# Indices 1 2 3 4 5 6 
#
# 1 82.4798 36.5386 41.6997 0.0000 0.0000 0.0000
# 2 36.5386 82.4798 41.6997 0.0000 0.0000 0.0000
# 3 41.6997 41.6997 126.7239 0.0000 0.0000 0.0000
# 4 0.0000 0.0000 0.0000 42.8831 0.0000 0.0000
# 5 0.0000 0.0000 0.0000 0.0000 42.8831 0.0000
# 6 0.0000 0.0000 0.0000 0.0000 0.0000 22.9706
#
#
#
# Elastic Compliance Matrix: (Units=1/GPa)
#
#
# Indices 1 2 3 4 5 6 
#
# 1 0.016343 -0.005423 -0.003593 0.000000 0.000000 0.000000
# 2 -0.005423 0.016343 -0.003593 0.000000 0.000000 0.000000
# 3 -0.003593 -0.003593 0.010256 0.000000 0.000000 0.000000
# 4 0.000000 0.000000 0.000000 0.023319 0.000000 0.000000
# 5 0.000000 0.000000 0.000000 0.000000 0.023319 0.000000
# 6 0.000000 0.000000 0.000000 0.000000 0.000000 0.043534
#
#
# Mechanical properties :
#
#
# Convention : Reuss Voigt Hill
#
# Bulk Modulus (GPa) = 56.42480 59.06216 57.74348
# Shear Modulus (GPa) = 30.44266 33.19705 31.81986
#
# Velocity S-wave (km/s) = 3.84668 4.01693 3.93272
# Velocity P-wave (km/s) = 6.86695 7.08674 6.97771
#
# Compressibility (1/GPa) = 0.01772270
#
# Stress axis : x y z
#
# Youngs Moduli (GPa) = 61.18646 61.18646 97.50374
#
# Poissons Ratio (x) = 0.33184 0.35036
# Poissons Ratio (y) = 0.33184 0.35036
# Poissons Ratio (z) = 0.21986 0.21986
#
# Static dielectric constant tensor:
#      x y z
#    x 3.834410 0.000000 0.000000 
#    y 0.000000 3.834410 0.000000 
#    z 0.000000 0.000000 3.717540 
# 
# 
# High freq. dielectric constant tensor:
#      x y z
#    x 1.814640 0.000000 0.000000 
#    y 0.000000 1.814640 0.000000 
#    z 0.000000 0.000000 1.814840 
# 
# From -- ./inp_files/878.got.cif
#   From: 2010.03.12/outbox.cif.g09.slc.cpg/sg169_cif.got.tgz:878.got - 2010.04.02 06:46:06.
