data_PCOD8324509
_publ_section_title
;
Structure prediction by ZEFSAII (Michael W. Deem and Ramdas Pophale) SiO2 
 PCOD8324509
Probable space group: P 61
;
_chemical_formula_sum "Si O2"
_cell_formula_units_Z 42
_cell_length_a 11.575537
_cell_length_b 11.575537
_cell_length_c 21.253546
_cell_angle_alpha 90.000000
_cell_angle_beta 90.000000
_cell_angle_gamma 120.000000
_cell_volume 2466.291045
_symmetry_space_group_name_H-M "P 61"
_symmetry_group_IT_number 169
_symmetry_cell_setting 'hexagonal'
loop_
_space_group_symop_operation_xyz
x,y,z
x-y,x,1/6+z
-y,x-y,1/3+z
-x,-y,1/2+z
-x+y,-x,2/3+z
y,-x+y,5/6+z
loop_
_atom_site_type_symbol
_atom_site_label
_atom_site_fract_x
_atom_site_fract_y
_atom_site_fract_z
Si Si1 0.781795 0.390898 0.141080
Si Si2 0.643395 0.038709 0.706596
Si Si3 0.196682 0.333362 0.197123
Si Si4 0.446012 0.885531 0.602827
Si Si5 0.604687 0.961295 0.408897
Si Si6 0.136682 0.333361 0.418370
Si Si7 0.439518 0.885528 0.012668
O O1 0.869214 0.487106 0.086034
O O2 0.697982 0.243518 0.110972
O O3 0.869228 0.382119 0.196122
O O4 0.697983 0.454462 0.171191
O O5 0.761533 0.125631 0.657740
O O6 0.503931 0.947764 0.670953
O O7 0.691457 0.951401 0.745980
O O8 0.295316 0.460117 0.239030
O O9 0.238473 0.364108 0.124419
O O10 0.207231 0.207229 0.224411
O O11 0.048600 0.308541 0.202848
O O12 0.446006 1.000000 0.557747
O O13 0.556172 0.052242 0.444541
O O14 0.164804 0.460120 0.376465
#
# Coordination Sequence:
#
# PCOD8324509 Si02
#       7
#     6   6   6   6   6   6   6
#     4  12  22  32  56  86 118 148 190 248 284 356
#     4  10  21  31  59  83 112 148 190 241 280 355
#     4   9  17  36  57  80 108 144 189 238 281 340
#     4   9  19  37  54  77 114 146 182 235 296 335
#     4  10  21  31  59  83 112 148 190 241 280 355
#     4   9  17  36  57  80 108 144 189 238 281 340
#     4   9  19  37  54  77 114 146 182 235 296 335
#
# _framework density 17.029620000000001
#
# number of rings (size 3 to 8) (size 9 to 14) (size 15 to 20)
#    0.000    2.857    2.857    2.571    4.000    4.571 
#    0.000    0.000    0.000    5.143    0.000    0.000 
#    0.000    0.000    0.000    0.000    0.000    0.000 
#
# Total GULP energy -520597.033374 kJ/mol
# GULP energy per Si atom -12395.167461 kJ/mol
# Density = 1.699086 g / cm^3
# Si number density = 17.029620 Si / 1000 Ang^3
#
#
#
# Elastic Constant Matrix: (Units=GPa)
#
#
# Indices 1 2 3 4 5 6 
#
# 1 112.5995 54.9044 65.5893 0.0000 0.0000 0.0000
# 2 54.9044 112.5995 65.5893 0.0000 0.0000 0.0000
# 3 65.5893 65.5893 116.9536 0.0000 0.0000 0.0000
# 4 0.0000 0.0000 0.0000 14.8871 0.0000 0.0000
# 5 0.0000 0.0000 0.0000 0.0000 14.8871 0.0000
# 6 0.0000 0.0000 0.0000 0.0000 0.0000 28.8475
#
#
#
# Elastic Compliance Matrix: (Units=1/GPa)
#
#
# Indices 1 2 3 4 5 6 
#
# 1 0.013989 -0.003344 -0.005970 0.000000 0.000000 0.000000
# 2 -0.003344 0.013989 -0.005970 0.000000 0.000000 0.000000
# 3 -0.005970 -0.005970 0.015247 0.000000 0.000000 0.000000
# 4 0.000000 0.000000 0.000000 0.067172 0.000000 0.000000
# 5 0.000000 0.000000 0.000000 0.000000 0.067172 0.000000
# 6 0.000000 0.000000 0.000000 0.000000 0.000000 0.034665
#
#
# Mechanical properties :
#
#
# Convention : Reuss Voigt Hill
#
# Bulk Modulus (GPa) = 79.00727 79.36872 79.18799
# Shear Modulus (GPa) = 20.24121 22.12898 21.18509
#
# Velocity S-wave (km/s) = 3.45133 3.60869 3.53089
# Velocity P-wave (km/s) = 7.89791 8.00443 7.95135
#
# Compressibility (1/GPa) = 0.01265706
#
# Stress axis : x y z
#
# Youngs Moduli (GPa) = 71.48489 71.48489 65.58817
#
# Poissons Ratio (x) = 0.23901 0.39157
# Poissons Ratio (y) = 0.23901 0.39157
# Poissons Ratio (z) = 0.42677 0.42677
#
# Static dielectric constant tensor:
#      x y z
#    x 3.069750 0.000000 0.000000 
#    y 0.000000 3.069750 0.000000 
#    z 0.000000 0.000000 3.258350 
# 
# 
# High freq. dielectric constant tensor:
#      x y z
#    x 1.636750 0.000000 0.000000 
#    y 0.000000 1.636750 0.000000 
#    z 0.000000 0.000000 1.666960 
# 
# From -- ./inp_files/1520.got.cif
#   From: 2010.03.12/outbox.cif.g09.slc.cpg/sg169_cif.got.tgz:1520.got - 2010.04.02 06:46:06.
