data_PCOD8324922
_publ_section_title
;
Structure prediction by ZEFSAII (Michael W. Deem and Ramdas Pophale) SiO2 
 PCOD8324922
Probable space group: P -6
;
_chemical_formula_sum "Si O2"
_cell_formula_units_Z 28
_cell_length_a 13.927310
_cell_length_b 13.927310
_cell_length_c 8.478668
_cell_angle_alpha 90.000000
_cell_angle_beta 90.000000
_cell_angle_gamma 120.000000
_cell_volume 1424.271377
_symmetry_space_group_name_H-M "P -6"
_symmetry_group_IT_number 174
_symmetry_cell_setting 'hexagonal'
loop_
_space_group_symop_operation_xyz
x,y,z
-x+y,-x,-z
-y,x-y,z
x,y,-z
-x+y,-x,z
-y,x-y,-z
loop_
_atom_site_type_symbol
_atom_site_label
_atom_site_fract_x
_atom_site_fract_y
_atom_site_fract_z
Si Si1 0.333334 0.666667 0.810954
Si Si2 0.789845 0.222741 0.317082
Si Si3 0.900688 0.457889 0.184103
Si Si4 0.544010 0.660321 0.813461
Si Si5 0.790613 0.779148 0.812531
Si Si6 0.000000 0.000000 0.813136
O O1 0.450046 0.684119 0.744197
O O2 0.333334 0.666668 0.000000
O O3 0.804511 0.253586 0.500000
O O4 0.811169 0.330149 0.218152
O O5 0.665960 0.125290 0.281189
O O6 0.872524 0.179764 0.265977
O O7 0.020635 0.481085 0.242924
O O8 0.900302 0.482138 0.000000
O O9 0.667894 0.753242 0.758073
O O10 0.539185 0.661371 0.000000
O O11 0.881900 0.900954 0.752188
O O12 0.794371 0.767005 0.000000
O O13 0.000000 0.000000 0.000000
#
# Coordination Sequence:
#
# PCOD8324922 Si02
#       6
#     2   6   6   6   6   2
#     4   9  15  27  48  78 106 131 163 207 256 308
#     4  11  21  33  50  76 107 141 176 217 267 325
#     4  10  19  33  51  74 104 140 177 218 261 309
#     4   8  16  28  46  72 104 132 162 205 257 306
#     4   9  18  34  52  76 105 137 176 223 270 314
#     4   9  18  33  58  80 100 135 184 230 265 312
#
# _framework density 19.659174
#
# number of rings (size 3 to 8) (size 9 to 14) (size 15 to 20)
#    0.000    2.571    0.000    4.286    0.000    1.714 
#    0.000    7.500    0.000    0.000    0.000   21.000 
#    0.000    0.000    0.000    0.000    0.000    0.000 
#
# Total GULP energy -347144.797374 kJ/mol
# GULP energy per Si atom -12398.028478 kJ/mol
# Density = 1.961443 g / cm^3
# Si number density = 19.659174 Si / 1000 Ang^3
#
#
#
# Elastic Constant Matrix: (Units=GPa)
#
#
# Indices 1 2 3 4 5 6 
#
# 1 150.2908 92.3725 10.7479 0.0000 0.0000 0.0001
# 2 92.3725 150.2901 10.7479 0.0000 0.0000 0.0001
# 3 10.7479 10.7479 34.6685 0.0000 0.0000 0.0000
# 4 0.0000 0.0000 0.0000 7.6643 0.0001 0.0000
# 5 0.0000 0.0000 0.0000 0.0001 7.6642 0.0000
# 6 0.0001 0.0001 0.0000 0.0000 0.0000 28.9587
#
#
#
# Elastic Compliance Matrix: (Units=1/GPa)
#
#
# Indices 1 2 3 4 5 6 
#
# 1 0.010752 -0.006514 -0.001314 0.000000 0.000000 0.000000
# 2 -0.006514 0.010752 -0.001314 0.000000 0.000000 0.000000
# 3 -0.001314 -0.001314 0.029659 0.000000 0.000000 0.000000
# 4 0.000000 0.000000 0.000000 0.130476 -0.000001 0.000000
# 5 0.000000 0.000000 0.000000 -0.000001 0.130477 0.000000
# 6 0.000000 0.000000 0.000000 0.000000 0.000000 0.034532
#
#
# Mechanical properties :
#
#
# Convention : Reuss Voigt Hill
#
# Bulk Modulus (GPa) = 30.41442 62.55401 46.48422
# Shear Modulus (GPa) = 13.30178 23.61617 18.45898
#
# Velocity S-wave (km/s) = 2.60401 3.46971 3.06755
# Velocity P-wave (km/s) = 4.95435 6.92388 6.02021
#
# Compressibility (1/GPa) = 0.03287914
#
# Stress axis : x y z
#
# Youngs Moduli (GPa) = 93.00996 93.00954 33.71645
#
# Poissons Ratio (x) = 0.60589 0.04429
# Poissons Ratio (y) = 0.60589 0.04429
# Poissons Ratio (z) = 0.12218 0.12218
#
# Static dielectric constant tensor:
#      x y z
#    x 3.761120 0.000000 0.000000 
#    y 0.000000 3.761130 0.000000 
#    z 0.000000 0.000000 3.149380 
# 
# 
# High freq. dielectric constant tensor:
#      x y z
#    x 1.765000 0.000000 0.000000 
#    y 0.000000 1.765000 0.000000 
#    z 0.000000 0.000000 1.727250 
# 
# From -- ./inp_files/288.got.cif
#   From: 2010.03.12/outbox.cif.g09.slc.cpg/sg174_cif.got.tgz:288.got - 2010.04.02 06:54:58.
