data_PCOD8324547
_publ_section_title
;
Structure prediction by ZEFSAII (Michael W. Deem and Ramdas Pophale) SiO2 
 PCOD8324547
Probable space group: P 61
;
_chemical_formula_sum "Si O2"
_cell_formula_units_Z 36
_cell_length_a 12.523573
_cell_length_b 12.523573
_cell_length_c 13.501674
_cell_angle_alpha 90.000000
_cell_angle_beta 90.000000
_cell_angle_gamma 120.000000
_cell_volume 1833.896208
_symmetry_space_group_name_H-M "P 61"
_symmetry_group_IT_number 169
_symmetry_cell_setting 'hexagonal'
loop_
_space_group_symop_operation_xyz
x,y,z
x-y,x,1/6+z
-y,x-y,1/3+z
-x,-y,1/2+z
-x+y,-x,2/3+z
y,-x+y,5/6+z
loop_
_atom_site_type_symbol
_atom_site_label
_atom_site_fract_x
_atom_site_fract_y
_atom_site_fract_z
Si Si1 0.505923 0.505923 0.615790
Si Si2 0.926612 0.290929 0.132251
Si Si3 0.353316 0.903726 0.636664
Si Si4 0.290930 0.926612 0.099329
Si Si5 0.646684 0.550410 0.928249
Si Si6 0.175219 0.087609 0.032457
O O1 0.622055 0.536292 0.546709
O O2 0.473394 0.392743 0.688845
O O3 0.536292 0.622055 0.684871
O O4 0.392743 0.473394 0.542735
O O5 0.793360 0.172708 0.130243
O O6 0.033252 0.261266 0.164131
O O7 0.966873 0.358253 0.025576
O O8 0.420796 0.841592 0.699123
O O9 0.172708 0.793360 0.101337
O O10 0.358253 0.966873 0.206004
O O11 0.261267 0.033252 0.067449
O O12 0.082529 0.082529 0.115790
#
# Coordination Sequence:
#
# PCOD8324547 Si02
#       6
#     6   6   6   6   6   6
#     4  10  22  42  62  86 130 176 212 274 324 376
#     4  11  20  42  66  94 125 168 229 262 332 399
#     4  10  23  40  63  93 126 170 215 272 322 389
#     4  11  20  42  66  94 125 168 229 262 332 399
#     4  10  23  40  63  93 126 170 215 272 322 389
#     4  12  22  40  74  98 126 170 214 286 332 398
#
# _framework density 19.630337000000001
#
# number of rings (size 3 to 8) (size 9 to 14) (size 15 to 20)
#    0.000    1.333    5.000    0.000    0.000    5.333 
#   21.000    0.000    0.000    0.000    0.000    0.000 
#    0.000    0.000    0.000    0.000    0.000    0.000 
#
# Total GULP energy -446140.419198 kJ/mol
# GULP energy per Si atom -12392.789422 kJ/mol
# Density = 1.958566 g / cm^3
# Si number density = 19.630337 Si / 1000 Ang^3
#
#
#
# Elastic Constant Matrix: (Units=GPa)
#
#
# Indices 1 2 3 4 5 6 
#
# 1 95.8049 58.9970 50.5474 0.0000 0.0000 0.0000
# 2 58.9970 95.8049 50.5474 0.0000 0.0000 0.0000
# 3 50.5474 50.5474 147.7365 0.0000 0.0000 0.0000
# 4 0.0000 0.0000 0.0000 26.8749 0.0000 0.0000
# 5 0.0000 0.0000 0.0000 0.0000 26.8749 0.0000
# 6 0.0000 0.0000 0.0000 0.0000 0.0000 18.4039
#
#
#
# Elastic Compliance Matrix: (Units=1/GPa)
#
#
# Indices 1 2 3 4 5 6 
#
# 1 0.017743 -0.009425 -0.002846 0.000000 0.000000 0.000000
# 2 -0.009425 0.017743 -0.002846 0.000000 0.000000 0.000000
# 3 -0.002846 -0.002846 0.008716 0.000000 0.000000 0.000000
# 4 0.000000 0.000000 0.000000 0.037209 0.000000 0.000000
# 5 0.000000 0.000000 0.000000 0.000000 0.037209 0.000000
# 6 0.000000 0.000000 0.000000 0.000000 0.000000 0.054336
#
#
# Mechanical properties :
#
#
# Convention : Reuss Voigt Hill
#
# Bulk Modulus (GPa) = 71.58750 73.28108 72.43429
# Shear Modulus (GPa) = 24.05597 26.38106 25.21852
#
# Velocity S-wave (km/s) = 3.50444 3.66989 3.58812
# Velocity P-wave (km/s) = 7.27473 7.44104 7.35835
#
# Compressibility (1/GPa) = 0.01396892
#
# Stress axis : x y z
#
# Youngs Moduli (GPa) = 56.35920 56.35920 114.72615
#
# Poissons Ratio (x) = 0.53117 0.32653
# Poissons Ratio (y) = 0.53117 0.32653
# Poissons Ratio (z) = 0.16041 0.16041
#
# Static dielectric constant tensor:
#      x y z
#    x 3.474080 0.000000 0.000000 
#    y 0.000000 3.474080 0.000000 
#    z 0.000000 0.000000 3.943080 
# 
# 
# High freq. dielectric constant tensor:
#      x y z
#    x 1.754440 0.000000 0.000000 
#    y 0.000000 1.754440 0.000000 
#    z 0.000000 0.000000 1.781850 
# 
# From -- ./inp_files/1164.got.cif
#   From: 2010.03.12/outbox.cif.g09.slc.cpg/sg169_cif.got.tgz:1164.got - 2010.04.02 06:46:06.
