data_PCOD8324959
_publ_section_title
;
Structure prediction by ZEFSAII (Michael W. Deem and Ramdas Pophale) SiO2 
 PCOD8324959
Probable space group: P -6
;
_chemical_formula_sum "Si O2"
_cell_formula_units_Z 20
_cell_length_a 11.396344
_cell_length_b 11.396344
_cell_length_c 8.613528
_cell_angle_alpha 90.000000
_cell_angle_beta 90.000000
_cell_angle_gamma 120.000000
_cell_volume 968.819344
_symmetry_space_group_name_H-M "P -6"
_symmetry_group_IT_number 174
_symmetry_cell_setting 'hexagonal'
loop_
_space_group_symop_operation_xyz
x,y,z
-x+y,-x,-z
-y,x-y,z
x,y,-z
-x+y,-x,z
-y,x-y,-z
loop_
_atom_site_type_symbol
_atom_site_label
_atom_site_fract_x
_atom_site_fract_y
_atom_site_fract_z
Si Si1 0.666667 0.333335 0.315546
Si Si2 0.827359 0.636913 0.318132
Si Si3 0.089922 0.417014 0.318860
Si Si4 0.077695 0.660707 0.819449
O O1 0.666667 0.333334 0.500000
O O2 0.746169 0.485038 0.251898
O O3 0.857034 0.641427 0.500000
O O4 0.735891 0.705306 0.282365
O O5 0.971403 0.709794 0.229835
O O6 0.126680 0.432641 0.500000
O O7 0.043820 0.525269 0.274760
O O8 0.220108 0.448129 0.219058
O O9 0.067656 0.628416 0.000000
#
# Coordination Sequence:
#
# PCOD8324959 Si02
#       4
#     2   6   6   6
#     4   9  15  33  64  95 118 141 193 254 295 342
#     4  10  20  39  66  92 118 156 205 253 297 360
#     4  11  23  42  67  90 119 164 216 255 292 359
#     4  12  25  40  61  93 131 161 196 254 320 369
#
# _framework density 20.643682999999999
#
# number of rings (size 3 to 8) (size 9 to 14) (size 15 to 20)
#    0.000    1.200    3.000    4.200    0.000    2.400 
#    1.800    0.000    0.000    0.000    0.000    0.000 
#    0.000    0.000    0.000    0.000    0.000    0.000 
#
# Total GULP energy -248061.368727 kJ/mol
# GULP energy per Si atom -12403.068436 kJ/mol
# Density = 2.059670 g / cm^3
# Si number density = 20.643683 Si / 1000 Ang^3
#
#
#
# Elastic Constant Matrix: (Units=GPa)
#
#
# Indices 1 2 3 4 5 6 
#
# 1 86.9150 18.3722 27.2728 0.0000 0.0000 -0.0001
# 2 18.3722 86.9164 27.2728 0.0000 0.0000 0.0000
# 3 27.2728 27.2728 66.2488 0.0000 0.0000 0.0001
# 4 0.0000 0.0000 0.0000 20.0888 -0.0002 0.0000
# 5 0.0000 0.0000 0.0000 -0.0002 20.0884 0.0000
# 6 -0.0001 0.0000 0.0001 0.0000 0.0000 34.2713
#
#
#
# Elastic Compliance Matrix: (Units=1/GPa)
#
#
# Indices 1 2 3 4 5 6 
#
# 1 0.013331 -0.001258 -0.004970 0.000000 0.000000 0.000000
# 2 -0.001258 0.013331 -0.004970 0.000000 0.000000 0.000000
# 3 -0.004970 -0.004970 0.019187 0.000000 0.000000 0.000000
# 4 0.000000 0.000000 0.000000 0.049779 0.000000 0.000000
# 5 0.000000 0.000000 0.000000 0.000000 0.049780 0.000000
# 6 0.000000 0.000000 0.000000 0.000000 0.000000 0.029179
#
#
# Mechanical properties :
#
#
# Convention : Reuss Voigt Hill
#
# Bulk Modulus (GPa) = 42.64048 42.87954 42.76001
# Shear Modulus (GPa) = 24.41406 26.03384 25.22395
#
# Velocity S-wave (km/s) = 3.44268 3.55506 3.49932
# Velocity P-wave (km/s) = 6.04178 6.13739 6.08977
#
# Compressibility (1/GPa) = 0.02345189
#
# Stress axis : x y z
#
# Youngs Moduli (GPa) = 75.01311 75.01445 52.11982
#
# Poissons Ratio (x) = 0.09440 0.25903
# Poissons Ratio (y) = 0.09440 0.25903
# Poissons Ratio (z) = 0.37281 0.37281
#
# Static dielectric constant tensor:
#      x y z
#    x 3.695450 0.000000 0.000000 
#    y 0.000000 3.695430 0.000000 
#    z 0.000000 0.000000 3.450050 
# 
# 
# High freq. dielectric constant tensor:
#      x y z
#    x 1.805970 0.000000 0.000000 
#    y 0.000000 1.805970 0.000000 
#    z 0.000000 0.000000 1.792780 
# 
# From -- ./inp_files/149.got.cif
#   From: 2010.03.12/outbox.cif.g09.slc.cpg/sg174_cif.got.tgz:149.got - 2010.04.02 06:54:58.
