data_PCOD8324199
_publ_section_title
;
Structure prediction by ZEFSAII (Michael W. Deem and Ramdas Pophale) SiO2 
 PCOD8324199
Probable space group: R -3 M
;
_chemical_formula_sum "Si O2"
_cell_formula_units_Z 144
_cell_length_a 27.376845
_cell_length_b 27.376845
_cell_length_c 9.639470
_cell_angle_alpha 90.000000
_cell_angle_beta 90.000000
_cell_angle_gamma 120.000000
_cell_volume 6256.775640
_symmetry_space_group_name_H-M "R -3 M"
_symmetry_group_IT_number 166
_symmetry_cell_setting 'hexagonal'
loop_
_space_group_symop_operation_xyz
x,y,z
-y,x-y,z
-x+y,-x,z
x-y,-y,-z
-x,-x+y,-z
y,x,-z
-x,-y,-z
y,-x+y,-z
x-y,x,-z
-x+y,y,z
x,x-y,z
-y,-x,z
2/3+x,1/3+y,1/3+z
2/3-y,1/3+x-y,1/3+z
2/3-x+y,1/3-x,1/3+z
2/3+x-y,1/3-y,1/3-z
2/3-x,1/3-x+y,1/3-z
2/3+y,1/3+x,1/3-z
2/3-x,1/3-y,1/3-z
2/3+y,1/3-x+y,1/3-z
2/3+x-y,1/3+x,1/3-z
2/3-x+y,1/3+y,1/3+z
2/3+x,1/3+x-y,1/3+z
2/3-y,1/3-x,1/3+z
1/3+x,2/3+y,2/3+z
1/3-y,2/3+x-y,2/3+z
1/3-x+y,2/3-x,2/3+z
1/3+x-y,2/3-y,2/3-z
1/3-x,2/3-x+y,2/3-z
1/3+y,2/3+x,2/3-z
1/3-x,2/3-y,2/3-z
1/3+y,2/3-x+y,2/3-z
1/3+x-y,2/3+x,2/3-z
1/3-x+y,2/3+y,2/3+z
1/3+x,2/3+x-y,2/3+z
1/3-y,2/3-x,2/3+z
loop_
_atom_site_type_symbol
_atom_site_label
_atom_site_fract_x
_atom_site_fract_y
_atom_site_fract_z
Si Si1 0.172347 0.938018 0.988896
Si Si2 0.776792 0.106666 0.509648
Si Si3 0.108205 0.108022 0.661100
Si Si4 0.838170 0.273180 0.013134
O O1 0.107984 0.892017 0.025881
O O2 0.216577 0.935038 0.093719
O O3 0.187286 0.928083 0.832656
O O4 0.179239 0.000000 0.000000
O O5 0.836260 0.163741 0.505993
O O6 0.754809 0.088142 0.666667
O O7 0.782976 0.057409 0.431782
O O8 0.096289 0.096289 0.500000
O O9 0.053028 0.106056 0.731308
O O10 0.165116 0.169271 0.682659
O O11 0.118415 0.059208 0.726641
O O12 0.777006 0.222995 0.965884
#
# Coordination Sequence:
#
# PCOD8324199 Si02
#       4
#    36  36  36  36
#     4  10  21  37  59  88 123 163 204 247 299 357
#     4   9  18  35  61  88 110 140 189 249 308 363
#     4   9  17  29  48  78 119 167 215 259 299 341
#     4   9  18  33  54  81 113 150 193 244 302 358
#
# _framework density 23.015049999999999
#
# number of rings (size 3 to 8) (size 9 to 14) (size 15 to 20)
#    0.000    2.750    0.000    1.000    0.000    7.000 
#    0.000    5.000    0.000    9.250    0.000    0.000 
#    0.000    1.000    0.000    0.000    0.000    0.000 
#
# Total GULP energy -594893.818893 kJ/mol
# GULP energy per Si atom -12393.621227 kJ/mol
# Density = 2.296267 g / cm^3
# Si number density = 23.015050 Si / 1000 Ang^3
#
#
#
# Elastic Constant Matrix: (Units=GPa)
#
#
# Indices 1 2 3 4 5 6 
#
# 1 118.1792 62.5862 44.8725 -0.8761 0.0429 -0.0042
# 2 62.5862 118.1600 44.8146 0.8783 0.0086 0.0011
# 3 44.8725 44.8146 121.2178 -0.0089 0.0916 -0.0011
# 4 -0.8761 0.8783 -0.0089 14.6916 -0.0148 0.0004
# 5 0.0429 0.0086 0.0916 -0.0148 14.7483 -0.8821
# 6 -0.0042 0.0011 -0.0011 0.0004 -0.8821 27.7862
#
#
#
# Elastic Compliance Matrix: (Units=1/GPa)
#
#
# Indices 1 2 3 4 5 6 
#
# 1 0.012402 -0.005624 -0.002511 0.001074 -0.000016 0.000001
# 2 -0.005624 0.012399 -0.002502 -0.001078 0.000024 -0.000001
# 3 -0.002511 -0.002502 0.010104 0.000006 -0.000054 -0.000002
# 4 0.001074 -0.001078 0.000006 0.068195 0.000066 0.000001
# 5 -0.000016 0.000024 -0.000054 0.000066 0.067934 0.002157
# 6 0.000001 -0.000001 -0.000002 0.000001 0.002157 0.036058
#
#
# Mechanical properties :
#
#
# Convention : Reuss Voigt Hill
#
# Bulk Modulus (GPa) = 73.37009 73.56707 73.46858
# Shear Modulus (GPa) = 21.46745 25.13080 23.29912
#
# Velocity S-wave (km/s) = 3.05742 3.30802 3.18519
# Velocity P-wave (km/s) = 6.66424 6.82824 6.74674
#
# Compressibility (1/GPa) = 0.01362953
#
# Stress axis : x y z
#
# Youngs Moduli (GPa) = 80.63258 80.65047 98.96701
#
# Poissons Ratio (x) = 0.45361 0.24856
# Poissons Ratio (y) = 0.45351 0.24762
# Poissons Ratio (z) = 0.20251 0.20179
#
# Static dielectric constant tensor:
#      x y z
#    x 3.964250 0.000000 -0.000080 
#    y 0.000000 3.964290 0.000020 
#    z -0.000080 0.000020 4.137600 
# 
# 
# High freq. dielectric constant tensor:
#      x y z
#    x 1.885020 0.000000 -0.000010 
#    y 0.000000 1.885020 0.000000 
#    z -0.000010 0.000000 1.899330 
# 
# From -- ./inp_files/1805.got.cif
#   From: 2010.03.12/outbox.cif.g09.slc.cpg/sg166_1_cif.got.tgz:1805.got - 2010.04.02 06:38:31.
