data_PCOD8324004
_publ_section_title
;
Structure prediction by ZEFSAII (Michael W. Deem and Ramdas Pophale) SiO2 
 PCOD8324004
Probable space group: R -3 M
;
_chemical_formula_sum "Si O2"
_cell_formula_units_Z 126
_cell_length_a 28.069819
_cell_length_b 28.069819
_cell_length_c 10.881582
_cell_angle_alpha 90.000000
_cell_angle_beta 90.000000
_cell_angle_gamma 120.000000
_cell_volume 7425.092960
_symmetry_space_group_name_H-M "R -3 M"
_symmetry_group_IT_number 166
_symmetry_cell_setting 'hexagonal'
loop_
_space_group_symop_operation_xyz
x,y,z
-y,x-y,z
-x+y,-x,z
x-y,-y,-z
-x,-x+y,-z
y,x,-z
-x,-y,-z
y,-x+y,-z
x-y,x,-z
-x+y,y,z
x,x-y,z
-y,-x,z
2/3+x,1/3+y,1/3+z
2/3-y,1/3+x-y,1/3+z
2/3-x+y,1/3-x,1/3+z
2/3+x-y,1/3-y,1/3-z
2/3-x,1/3-x+y,1/3-z
2/3+y,1/3+x,1/3-z
2/3-x,1/3-y,1/3-z
2/3+y,1/3-x+y,1/3-z
2/3+x-y,1/3+x,1/3-z
2/3-x+y,1/3+y,1/3+z
2/3+x,1/3+x-y,1/3+z
2/3-y,1/3-x,1/3+z
1/3+x,2/3+y,2/3+z
1/3-y,2/3+x-y,2/3+z
1/3-x+y,2/3-x,2/3+z
1/3+x-y,2/3-y,2/3-z
1/3-x,2/3-x+y,2/3-z
1/3+y,2/3+x,2/3-z
1/3-x,2/3-y,2/3-z
1/3+y,2/3-x+y,2/3-z
1/3+x-y,2/3+x,2/3-z
1/3-x+y,2/3+y,2/3+z
1/3+x,2/3+x-y,2/3+z
1/3-y,2/3-x,2/3+z
loop_
_atom_site_type_symbol
_atom_site_label
_atom_site_fract_x
_atom_site_fract_y
_atom_site_fract_z
Si Si1 0.290482 0.472452 0.062581
Si Si2 0.000349 0.107351 0.803921
Si Si3 0.253518 0.858851 0.841577
Si Si4 0.333334 0.849272 0.666667
O O1 0.230147 0.460294 0.111855
O O2 0.333334 0.476721 0.166667
O O3 0.319467 0.531098 0.995317
O O4 0.283710 0.424654 0.968296
O O5 0.955945 0.044056 0.786170
O O6 0.056075 0.112149 0.861155
O O7 0.977302 0.137182 0.892180
O O8 0.196537 0.803464 0.836962
O O9 0.244619 0.911286 0.833334
O O10 0.286296 0.859695 0.720223
#
# Coordination Sequence:
#
# PCOD8324004 Si02
#       4
#    36  36  36  18
#     4   9  17  29  46  68  94 126 160 189 222 268
#     4  10  18  27  42  67 101 135 163 190 219 259
#     4   9  18  33  51  68  88 117 152 192 238 285
#     4  10  18  30  47  68  88 116 157 196 236 280
#
# _framework density 16.969484999999999
#
# number of rings (size 3 to 8) (size 9 to 14) (size 15 to 20)
#    0.000    2.571    0.000    5.429    0.000    0.000 
#    0.000    2.857    0.000    9.714    0.000   26.000 
#    0.000    0.000    0.000    0.000    0.000    0.000 
#
# Total GULP energy -520524.014186 kJ/mol
# GULP energy per Si atom -12393.428909 kJ/mol
# Density = 1.693086 g / cm^3
# Si number density = 16.969485 Si / 1000 Ang^3
#
#
#
# Elastic Constant Matrix: (Units=GPa)
#
#
# Indices 1 2 3 4 5 6 
#
# 1 95.0281 40.5346 47.5095 6.6728 0.0412 -0.0079
# 2 40.5346 95.0107 47.4668 -6.6833 -0.0188 0.0005
# 3 47.5095 47.4668 86.0310 -0.0370 0.1382 -0.0150
# 4 6.6728 -6.6833 -0.0370 19.0961 -0.0436 0.0051
# 5 0.0412 -0.0188 0.1382 -0.0436 19.2474 6.6647
# 6 -0.0079 0.0005 -0.0150 0.0051 6.6647 27.2368
#
#
#
# Elastic Compliance Matrix: (Units=1/GPa)
#
#
# Indices 1 2 3 4 5 6 
#
# 1 0.016058 -0.004023 -0.006652 -0.007032 -0.000008 0.000004
# 2 -0.004023 0.016046 -0.006629 0.007009 0.000098 -0.000031
# 3 -0.006652 -0.006629 0.018955 0.000041 -0.000143 0.000044
# 4 -0.007032 0.007009 0.000041 0.057277 0.000170 -0.000055
# 5 -0.000008 0.000098 -0.000143 0.000170 0.056766 -0.013891
# 6 0.000004 -0.000031 0.000044 -0.000055 -0.013891 0.040114
#
#
# Mechanical properties :
#
#
# Convention : Reuss Voigt Hill
#
# Bulk Modulus (GPa) = 60.77994 60.78796 60.78395
# Shear Modulus (GPa) = 20.38258 22.48666 21.43462
#
# Velocity S-wave (km/s) = 3.46949 3.64417 3.55791
# Velocity P-wave (km/s) = 7.20727 7.32164 7.26468
#
# Compressibility (1/GPa) = 0.01645280
#
# Stress axis : x y z
#
# Youngs Moduli (GPa) = 62.27312 62.32026 52.75713
#
# Poissons Ratio (x) = 0.25068 0.35092
# Poissons Ratio (y) = 0.25049 0.34973
# Poissons Ratio (z) = 0.41422 0.41313
#
# Static dielectric constant tensor:
#      x y z
#    x 3.269620 0.000070 -0.000180 
#    y 0.000070 3.269770 0.000080 
#    z -0.000180 0.000080 3.068020 
# 
# 
# High freq. dielectric constant tensor:
#      x y z
#    x 1.640370 0.000000 0.000000 
#    y 0.000000 1.640380 0.000000 
#    z 0.000000 0.000000 1.646200 
# 
# From -- ./inp_files/2855.got.cif
#   From: 2010.03.12/outbox.cif.g09.slc.cpg/sg166_2_cif.got.tgz:2855.got - 2010.04.02 06:38:31.
