data_PCOD8324535
_publ_section_title
;
Structure prediction by ZEFSAII (Michael W. Deem and Ramdas Pophale) SiO2 
 PCOD8324535
Probable space group: P 61
;
_chemical_formula_sum "Si O2"
_cell_formula_units_Z 48
_cell_length_a 15.882683
_cell_length_b 15.882683
_cell_length_c 11.407355
_cell_angle_alpha 90.000000
_cell_angle_beta 90.000000
_cell_angle_gamma 120.000000
_cell_volume 2492.087718
_symmetry_space_group_name_H-M "P 61"
_symmetry_group_IT_number 169
_symmetry_cell_setting 'hexagonal'
loop_
_space_group_symop_operation_xyz
x,y,z
x-y,x,1/6+z
-y,x-y,1/3+z
-x,-y,1/2+z
-x+y,-x,2/3+z
y,-x+y,5/6+z
loop_
_atom_site_type_symbol
_atom_site_label
_atom_site_fract_x
_atom_site_fract_y
_atom_site_fract_z
Si Si1 0.240487 0.709713 0.698250
Si Si2 0.752455 0.141434 0.026721
Si Si3 0.920153 0.464446 0.818958
Si Si4 0.040987 0.362065 0.469906
Si Si5 0.714869 0.441070 0.796145
Si Si6 0.593485 0.092838 0.846054
Si Si7 0.717267 0.639814 0.201428
Si Si8 0.375070 0.144680 0.268063
O O1 0.232605 0.799929 0.647153
O O2 0.223708 0.704639 0.837361
O O3 0.339105 0.714635 0.661086
O O4 0.155346 0.610933 0.641756
O O5 0.661046 0.138589 0.960652
O O6 0.850206 0.193432 0.948980
O O7 0.729041 0.032105 0.055129
O O8 0.810544 0.431701 0.787349
O O9 0.918055 0.380005 0.901429
O O10 0.981411 0.472406 0.701912
O O11 0.977288 0.571101 0.878674
O O12 0.096494 0.431581 0.579143
O O13 0.113641 0.326548 0.420580
O O14 0.942445 0.266504 0.507620
O O15 0.721502 0.511891 0.900484
O O16 0.739921 0.636520 0.064720
#
# Coordination Sequence:
#
# PCOD8324535 Si02
#       8
#     6   6   6   6   6   6   6   6
#     4  12  24  37  53  83 120 160 210 239 291 354
#     4  11  23  37  61  85 119 162 198 252 303 356
#     4  10  22  34  55  82 114 161 195 239 293 348
#     4  11  22  35  60  82 118 154 193 256 289 362
#     4  11  25  35  58  82 118 163 200 247 289 353
#     4  11  21  37  52  80 116 155 198 236 293 346
#     4  11  20  40  58  86 119 155 202 251 303 356
#     4  11  21  39  59  86 118 150 206 244 313 351
#
# _framework density 19.260960000000001
#
# number of rings (size 3 to 8) (size 9 to 14) (size 15 to 20)
#    0.000    1.000    5.000    3.000    5.250    1.000 
#    0.000    0.000    0.000    0.000    0.000    0.000 
#   60.000    0.000    0.000    0.000    0.000    0.000 
#
# Total GULP energy -595214.773298 kJ/mol
# GULP energy per Si atom -12400.307777 kJ/mol
# Density = 1.921712 g / cm^3
# Si number density = 19.260960 Si / 1000 Ang^3
#
#
#
# Elastic Constant Matrix: (Units=GPa)
#
#
# Indices 1 2 3 4 5 6 
#
# 1 110.6341 55.4297 15.4006 0.0000 0.0000 0.0000
# 2 55.4297 110.6341 15.4006 0.0000 0.0000 0.0000
# 3 15.4006 15.4006 47.4360 0.0000 0.0000 0.0000
# 4 0.0000 0.0000 0.0000 28.3701 0.0000 0.0000
# 5 0.0000 0.0000 0.0000 0.0000 28.3701 0.0000
# 6 0.0000 0.0000 0.0000 0.0000 0.0000 27.6022
#
#
#
# Elastic Compliance Matrix: (Units=1/GPa)
#
#
# Indices 1 2 3 4 5 6 
#
# 1 0.012261 -0.005853 -0.002080 0.000000 0.000000 0.000000
# 2 -0.005853 0.012261 -0.002080 0.000000 0.000000 0.000000
# 3 -0.002080 -0.002080 0.022432 0.000000 0.000000 0.000000
# 4 0.000000 0.000000 0.000000 0.035248 0.000000 0.000000
# 5 0.000000 0.000000 0.000000 0.000000 0.035248 0.000000
# 6 0.000000 0.000000 0.000000 0.000000 0.000000 0.036229
#
#
# Mechanical properties :
#
#
# Convention : Reuss Voigt Hill
#
# Bulk Modulus (GPa) = 37.13901 49.01843 43.07872
# Shear Modulus (GPa) = 27.36981 29.03337 28.20159
#
# Velocity S-wave (km/s) = 3.77370 3.88670 3.83062
# Velocity P-wave (km/s) = 6.18964 6.75624 6.47914
#
# Compressibility (1/GPa) = 0.02692587
#
# Stress axis : x y z
#
# Youngs Moduli (GPa) = 81.55897 81.55897 44.57951
#
# Poissons Ratio (x) = 0.47740 0.09274
# Poissons Ratio (y) = 0.47740 0.09274
# Poissons Ratio (z) = 0.16967 0.16967
#
# Static dielectric constant tensor:
#      x y z
#    x 3.507060 0.000000 0.000000 
#    y 0.000000 3.507060 0.000000 
#    z 0.000000 0.000000 3.511060 
# 
# 
# High freq. dielectric constant tensor:
#      x y z
#    x 1.737640 0.000000 0.000000 
#    y 0.000000 1.737640 0.000000 
#    z 0.000000 0.000000 1.744620 
# 
# From -- ./inp_files/1027.got.cif
#   From: 2010.03.12/outbox.cif.g09.slc.cpg/sg169_cif.got.tgz:1027.got - 2010.04.02 06:46:06.
