data_PCOD8324617
_publ_section_title
;
Structure prediction by ZEFSAII (Michael W. Deem and Ramdas Pophale) SiO2 
 PCOD8324617
Probable space group: P 61
;
_chemical_formula_sum "Si O2"
_cell_formula_units_Z 30
_cell_length_a 13.450130
_cell_length_b 13.450130
_cell_length_c 8.357704
_cell_angle_alpha 90.000000
_cell_angle_beta 90.000000
_cell_angle_gamma 120.000000
_cell_volume 1309.394709
_symmetry_space_group_name_H-M "P 61"
_symmetry_group_IT_number 169
_symmetry_cell_setting 'hexagonal'
loop_
_space_group_symop_operation_xyz
x,y,z
x-y,x,1/6+z
-y,x-y,1/3+z
-x,-y,1/2+z
-x+y,-x,2/3+z
y,-x+y,5/6+z
loop_
_atom_site_type_symbol
_atom_site_label
_atom_site_fract_x
_atom_site_fract_y
_atom_site_fract_z
Si Si1 0.746035 0.148560 0.992280
Si Si2 0.765965 0.857029 0.588265
Si Si3 0.105121 0.737131 0.203543
Si Si4 0.040954 0.659790 0.652715
Si Si5 0.480525 0.923609 0.630226
O O1 0.783986 0.199698 0.815689
O O2 0.701430 0.011405 0.977407
O O3 0.849709 0.216759 0.116244
O O4 0.641664 0.167777 0.051929
O O5 0.862018 0.826965 0.640669
O O6 0.715185 0.888456 0.740364
O O7 0.671412 0.745436 0.486802
O O8 0.118009 0.635604 0.121178
O O9 0.043061 0.622243 0.834585
O O10 0.030423 0.565078 0.524669
#
# Coordination Sequence:
#
# PCOD8324617 Si02
#       5
#     6   6   6   6   6
#     4  12  25  48  76 105 148 200 248 315 375 451
#     4  12  26  44  74 110 151 196 247 307 368 452
#     4  12  25  48  75 105 151 198 247 310 383 443
#     4  12  25  48  73 110 145 198 250 309 380 446
#     4  12  25  48  74 104 151 194 246 315 378 438
#
# _framework density 22.911349000000001
#
# number of rings (size 3 to 8) (size 9 to 14) (size 15 to 20)
#    0.000    0.000    8.000    1.200    0.000    1.600 
#    3.600    0.000    0.000    0.000    0.000    0.000 
#    0.000    0.000    0.000    0.000    0.000    0.000 
#
# Total GULP energy -371814.018736 kJ/mol
# GULP energy per Si atom -12393.800625 kJ/mol
# Density = 2.285920 g / cm^3
# Si number density = 22.911349 Si / 1000 Ang^3
#
#
#
# Elastic Constant Matrix: (Units=GPa)
#
#
# Indices 1 2 3 4 5 6 
#
# 1 97.9111 42.4070 35.6201 0.0000 0.0000 0.0000
# 2 42.4070 97.9111 35.6201 0.0000 0.0000 0.0000
# 3 35.6201 35.6201 70.3045 0.0000 0.0000 0.0000
# 4 0.0000 0.0000 0.0000 61.8287 0.0000 0.0000
# 5 0.0000 0.0000 0.0000 0.0000 61.8287 0.0000
# 6 0.0000 0.0000 0.0000 0.0000 0.0000 27.7520
#
#
#
# Elastic Compliance Matrix: (Units=1/GPa)
#
#
# Indices 1 2 3 4 5 6 
#
# 1 0.013806 -0.004211 -0.004861 0.000000 0.000000 0.000000
# 2 -0.004211 0.013806 -0.004861 0.000000 0.000000 0.000000
# 3 -0.004861 -0.004861 0.019150 0.000000 0.000000 0.000000
# 4 0.000000 0.000000 0.000000 0.016174 0.000000 0.000000
# 5 0.000000 0.000000 0.000000 0.000000 0.016174 0.000000
# 6 0.000000 0.000000 0.000000 0.000000 0.000000 0.036033
#
#
# Mechanical properties :
#
#
# Convention : Reuss Voigt Hill
#
# Bulk Modulus (GPa) = 52.92586 54.82457 53.87522
# Shear Modulus (GPa) = 33.48806 40.44720 36.96763
#
# Velocity S-wave (km/s) = 3.82728 4.20620 4.02121
# Velocity P-wave (km/s) = 6.53309 6.89713 6.71758
#
# Compressibility (1/GPa) = 0.01889435
#
# Stress axis : x y z
#
# Youngs Moduli (GPa) = 72.43378 72.43378 52.21997
#
# Poissons Ratio (x) = 0.30502 0.25385
# Poissons Ratio (y) = 0.30502 0.25385
# Poissons Ratio (z) = 0.35212 0.35212
#
# Static dielectric constant tensor:
#      x y z
#    x 4.225050 0.000000 0.000000 
#    y 0.000000 4.225050 0.000000 
#    z 0.000000 0.000000 4.486640 
# 
# 
# High freq. dielectric constant tensor:
#      x y z
#    x 1.897480 0.000000 0.000000 
#    y 0.000000 1.897480 0.000000 
#    z 0.000000 0.000000 1.944130 
# 
# From -- ./inp_files/560.got.cif
#   From: 2010.03.12/outbox.cif.g09.slc.cpg/sg169_cif.got.tgz:560.got - 2010.04.02 06:46:06.
