data_PCOD8324928
_publ_section_title
;
Structure prediction by ZEFSAII (Michael W. Deem and Ramdas Pophale) SiO2 
 PCOD8324928
Probable space group: P -6
;
_chemical_formula_sum "Si O2"
_cell_formula_units_Z 48
_cell_length_a 18.172826
_cell_length_b 18.172826
_cell_length_c 8.569506
_cell_angle_alpha 90.000000
_cell_angle_beta 90.000000
_cell_angle_gamma 120.000000
_cell_volume 2450.932528
_symmetry_space_group_name_H-M "P -6"
_symmetry_group_IT_number 174
_symmetry_cell_setting 'hexagonal'
loop_
_space_group_symop_operation_xyz
x,y,z
-x+y,-x,-z
-y,x-y,z
x,y,-z
-x+y,-x,z
-y,x-y,-z
loop_
_atom_site_type_symbol
_atom_site_label
_atom_site_fract_x
_atom_site_fract_y
_atom_site_fract_z
Si Si1 0.798706 0.766495 0.323766
Si Si2 0.431676 0.142743 0.320295
Si Si3 0.706317 0.132938 0.820290
Si Si4 0.246118 0.202250 0.320148
Si Si5 0.431177 0.858180 0.815488
Si Si6 0.525641 0.760488 0.185691
Si Si7 0.525100 0.044611 0.681879
Si Si8 0.719262 0.863912 0.819343
O O1 0.787894 0.791073 0.500000
O O2 0.742187 0.666537 0.297677
O O3 0.897084 0.795725 0.289317
O O4 0.766755 0.810450 0.201402
O O5 0.453445 0.170078 0.500000
O O6 0.457977 0.227418 0.221462
O O7 0.483109 0.098748 0.255595
O O8 0.746044 0.072943 0.789890
O O9 0.624486 0.100418 0.712686
O O10 0.679755 0.125761 0.000000
O O11 0.276101 0.221919 0.500000
O O12 0.177400 0.229384 0.282570
O O13 0.477288 0.808269 0.748541
O O14 0.335524 0.815005 0.746995
O O15 0.485057 0.956076 0.771199
O O16 0.427135 0.850491 0.000000
O O17 0.622913 0.810417 0.244215
O O18 0.523469 0.758021 0.000000
O O19 0.506691 0.024826 0.500000
O O20 0.720929 0.887538 0.000000
#
# Coordination Sequence:
#
# PCOD8324928 Si02
#       8
#     6   6   6   6   6   6   6   6
#     4   9  19  37  58  79 105 142 186 229 279 338
#     4   9  20  39  60  81 109 148 190 232 282 342
#     4  11  22  37  59  85 113 144 183 233 287 340
#     4  10  21  39  60  80 108 148 190 230 281 342
#     4  10  19  35  57  81 115 157 200 241 287 336
#     4   9  19  33  53  82 114 151 191 234 281 334
#     4  11  22  37  58  85 115 150 192 234 283 343
#     4  11  21  33  53  85 117 144 184 235 286 337
#
# _framework density 19.584382000000002
#
# number of rings (size 3 to 8) (size 9 to 14) (size 15 to 20)
#    0.000    2.000    0.000    4.750    0.000    5.500 
#    1.500    1.875    0.000    0.000    0.000    0.000 
#    0.000    0.000    0.000    0.000    0.000    0.000 
#
# Total GULP energy -595359.787976 kJ/mol
# GULP energy per Si atom -12403.328916 kJ/mol
# Density = 1.953981 g / cm^3
# Si number density = 19.584382 Si / 1000 Ang^3
#
#
#
# Elastic Constant Matrix: (Units=GPa)
#
#
# Indices 1 2 3 4 5 6 
#
# 1 123.8032 72.0150 15.6762 0.0000 0.0000 0.0000
# 2 72.0150 123.8032 15.6762 0.0000 0.0000 0.0000
# 3 15.6762 15.6762 34.3094 0.0000 0.0000 0.0000
# 4 0.0000 0.0000 0.0000 26.1579 0.0000 0.0000
# 5 0.0000 0.0000 0.0000 0.0000 26.1579 0.0000
# 6 0.0000 0.0000 0.0000 0.0000 0.0000 25.8941
#
#
#
# Elastic Compliance Matrix: (Units=1/GPa)
#
#
# Indices 1 2 3 4 5 6 
#
# 1 0.012410 -0.006900 -0.002517 0.000000 0.000000 0.000000
# 2 -0.006900 0.012410 -0.002517 0.000000 0.000000 0.000000
# 3 -0.002517 -0.002517 0.031447 0.000000 0.000000 0.000000
# 4 0.000000 0.000000 0.000000 0.038229 0.000000 0.000000
# 5 0.000000 0.000000 0.000000 0.000000 0.038229 0.000000
# 6 0.000000 0.000000 0.000000 0.000000 0.000000 0.038619
#
#
# Mechanical properties :
#
#
# Convention : Reuss Voigt Hill
#
# Bulk Modulus (GPa) = 30.86722 54.29450 42.58086
# Shear Modulus (GPa) = 24.27037 27.54519 25.90778
#
# Velocity S-wave (km/s) = 3.52415 3.75439 3.64109
# Velocity P-wave (km/s) = 5.68813 6.82477 6.28221
#
# Compressibility (1/GPa) = 0.03239683
#
# Stress axis : x y z
#
# Youngs Moduli (GPa) = 80.58253 80.58253 31.79944
#
# Poissons Ratio (x) = 0.55600 0.08005
# Poissons Ratio (y) = 0.55600 0.08005
# Poissons Ratio (z) = 0.20287 0.20287
#
# Static dielectric constant tensor:
#      x y z
#    x 3.642810 0.000000 0.000000 
#    y 0.000000 3.642810 0.000000 
#    z 0.000000 0.000000 3.314070 
# 
# 
# High freq. dielectric constant tensor:
#      x y z
#    x 1.768340 0.000000 0.000000 
#    y 0.000000 1.768340 0.000000 
#    z 0.000000 0.000000 1.746610 
# 
# From -- ./inp_files/522.got.cif
#   From: 2010.03.12/outbox.cif.g09.slc.cpg/sg174_cif.got.tgz:522.got - 2010.04.02 06:54:58.
