data_PCOD8324178
_publ_section_title
;
Structure prediction by ZEFSAII (Michael W. Deem and Ramdas Pophale) SiO2 
 PCOD8324178
Probable space group: R -3 M
;
_chemical_formula_sum "Si O2"
_cell_formula_units_Z 144
_cell_length_a 21.553519
_cell_length_b 21.553519
_cell_length_c 19.921099
_cell_angle_alpha 90.000000
_cell_angle_beta 90.000000
_cell_angle_gamma 120.000000
_cell_volume 8014.571336
_symmetry_space_group_name_H-M "R -3 M"
_symmetry_group_IT_number 166
_symmetry_cell_setting 'hexagonal'
loop_
_space_group_symop_operation_xyz
x,y,z
-y,x-y,z
-x+y,-x,z
x-y,-y,-z
-x,-x+y,-z
y,x,-z
-x,-y,-z
y,-x+y,-z
x-y,x,-z
-x+y,y,z
x,x-y,z
-y,-x,z
2/3+x,1/3+y,1/3+z
2/3-y,1/3+x-y,1/3+z
2/3-x+y,1/3-x,1/3+z
2/3+x-y,1/3-y,1/3-z
2/3-x,1/3-x+y,1/3-z
2/3+y,1/3+x,1/3-z
2/3-x,1/3-y,1/3-z
2/3+y,1/3-x+y,1/3-z
2/3+x-y,1/3+x,1/3-z
2/3-x+y,1/3+y,1/3+z
2/3+x,1/3+x-y,1/3+z
2/3-y,1/3-x,1/3+z
1/3+x,2/3+y,2/3+z
1/3-y,2/3+x-y,2/3+z
1/3-x+y,2/3-x,2/3+z
1/3+x-y,2/3-y,2/3-z
1/3-x,2/3-x+y,2/3-z
1/3+y,2/3+x,2/3-z
1/3-x,2/3-y,2/3-z
1/3+y,2/3-x+y,2/3-z
1/3+x-y,2/3+x,2/3-z
1/3-x+y,2/3+y,2/3+z
1/3+x,2/3+x-y,2/3+z
1/3-y,2/3-x,2/3+z
loop_
_atom_site_type_symbol
_atom_site_label
_atom_site_fract_x
_atom_site_fract_y
_atom_site_fract_z
Si Si1 0.262676 0.203580 0.129741
Si Si2 0.187010 0.666667 0.166667
Si Si3 0.524107 0.190013 0.570587
Si Si4 0.333334 0.377514 0.666667
Si Si5 0.712926 0.144029 0.966282
O O1 0.271101 0.135551 0.113961
O O2 0.333334 0.264081 0.166667
O O3 0.195759 0.184953 0.176492
O O4 0.253025 0.233664 0.060155
O O5 0.196836 0.598418 0.154788
O O6 0.147940 0.677766 0.103216
O O7 0.607769 0.215538 0.567142
O O8 0.513222 0.256611 0.561839
O O9 0.491906 0.153298 0.641241
O O10 0.267830 0.302125 0.643120
O O11 0.797531 0.202470 0.968598
#
# Coordination Sequence:
#
# PCOD8324178 Si02
#       5
#    36  18  36  18  36
#     4  10  21  39  60  82 113 150 190 234 280 335
#     4  10  21  38  58  82 113 150 190 234 284 334
#     4  10  20  37  60  86 114 148 191 237 283 332
#     4  12  22  36  61  84 113 154 188 226 288 342
#     4  10  22  37  56  84 118 150 190 235 276 335
#
# _framework density 17.967274
#
# number of rings (size 3 to 8) (size 9 to 14) (size 15 to 20)
#    0.000    1.750    2.500    1.875    1.750    2.000 
#    0.000    7.500    0.000    0.000    0.000    4.375 
#    0.000    0.000    0.000    0.000    0.000    0.000 
#
# Total GULP energy -595369.490357 kJ/mol
# GULP energy per Si atom -12403.531049 kJ/mol
# Density = 1.792638 g / cm^3
# Si number density = 17.967274 Si / 1000 Ang^3
#
#
#
# Elastic Constant Matrix: (Units=GPa)
#
#
# Indices 1 2 3 4 5 6 
#
# 1 121.2747 64.3352 72.8124 -12.9100 -0.0035 0.0000
# 2 64.3352 121.2747 72.8124 12.9100 0.0035 0.0000
# 3 72.8124 72.8124 160.9526 0.0000 0.0000 0.0000
# 4 -12.9100 12.9100 0.0000 78.8289 0.0000 0.0035
# 5 -0.0035 0.0035 0.0000 0.0000 78.8289 -12.9100
# 6 0.0000 0.0000 0.0000 0.0035 -12.9100 28.4697
#
#
#
# Elastic Compliance Matrix: (Units=1/GPa)
#
#
# Indices 1 2 3 4 5 6 
#
# 1 0.013662 -0.005310 -0.003778 0.003107 0.000001 0.000000
# 2 -0.005310 0.013662 -0.003778 -0.003107 -0.000001 0.000000
# 3 -0.003778 -0.003778 0.009632 0.000000 0.000000 0.000000
# 4 0.003107 -0.003107 0.000000 0.013703 0.000000 -0.000002
# 5 0.000001 -0.000001 0.000000 0.000000 0.013703 0.006214
# 6 0.000000 0.000000 0.000000 -0.000002 0.006214 0.037943
#
#
# Mechanical properties :
#
#
# Convention : Reuss Voigt Hill
#
# Bulk Modulus (GPa) = 89.10857 91.49135 90.29996
# Shear Modulus (GPa) = 37.94262 50.12833 44.03547
#
# Velocity S-wave (km/s) = 4.60038 5.28776 4.95600
# Velocity P-wave (km/s) = 8.82726 9.39745 9.11682
#
# Compressibility (1/GPa) = 0.01122227
#
# Stress axis : x y z
#
# Youngs Moduli (GPa) = 73.19726 73.19726 103.82585
#
# Poissons Ratio (x) = 0.38866 0.39229
# Poissons Ratio (y) = 0.38866 0.39229
# Poissons Ratio (z) = 0.27656 0.27656
#
# Static dielectric constant tensor:
#      x y z
#    x 3.261390 0.000000 0.000000 
#    y 0.000000 3.261390 0.000000 
#    z 0.000000 0.000000 3.561840 
# 
# 
# High freq. dielectric constant tensor:
#      x y z
#    x 1.695520 0.000000 0.000000 
#    y 0.000000 1.695520 0.000000 
#    z 0.000000 0.000000 1.713990 
# 
# From -- ./inp_files/6663.got.cif
#   From: 2010.03.12/outbox.cif.g09.slc.cpg/sg166_4_cif.got.tgz:6663.got - 2010.04.02 06:38:31.
