data_PCOD8324246
_publ_section_title
;
Structure prediction by ZEFSAII (Michael W. Deem and Ramdas Pophale) SiO2 
 PCOD8324246
Probable space group: R -3 M
;
_chemical_formula_sum "Si O2"
_cell_formula_units_Z 126
_cell_length_a 20.730522
_cell_length_b 20.730522
_cell_length_c 16.913750
_cell_angle_alpha 90.000000
_cell_angle_beta 90.000000
_cell_angle_gamma 120.000000
_cell_volume 6294.931586
_symmetry_space_group_name_H-M "R -3 M"
_symmetry_group_IT_number 166
_symmetry_cell_setting 'hexagonal'
loop_
_space_group_symop_operation_xyz
x,y,z
-y,x-y,z
-x+y,-x,z
x-y,-y,-z
-x,-x+y,-z
y,x,-z
-x,-y,-z
y,-x+y,-z
x-y,x,-z
-x+y,y,z
x,x-y,z
-y,-x,z
2/3+x,1/3+y,1/3+z
2/3-y,1/3+x-y,1/3+z
2/3-x+y,1/3-x,1/3+z
2/3+x-y,1/3-y,1/3-z
2/3-x,1/3-x+y,1/3-z
2/3+y,1/3+x,1/3-z
2/3-x,1/3-y,1/3-z
2/3+y,1/3-x+y,1/3-z
2/3+x-y,1/3+x,1/3-z
2/3-x+y,1/3+y,1/3+z
2/3+x,1/3+x-y,1/3+z
2/3-y,1/3-x,1/3+z
1/3+x,2/3+y,2/3+z
1/3-y,2/3+x-y,2/3+z
1/3-x+y,2/3-x,2/3+z
1/3+x-y,2/3-y,2/3-z
1/3-x,2/3-x+y,2/3-z
1/3+y,2/3+x,2/3-z
1/3-x,2/3-y,2/3-z
1/3+y,2/3-x+y,2/3-z
1/3+x-y,2/3+x,2/3-z
1/3-x+y,2/3+y,2/3+z
1/3+x,2/3+x-y,2/3+z
1/3-y,2/3-x,2/3+z
loop_
_atom_site_type_symbol
_atom_site_label
_atom_site_fract_x
_atom_site_fract_y
_atom_site_fract_z
Si Si1 0.609064 0.539432 0.132728
Si Si2 0.754219 0.754219 0.500000
Si Si3 0.741346 0.797016 0.938732
Si Si4 0.908323 0.526568 0.666313
O O1 0.539858 0.460143 0.161746
O O2 0.583753 0.600103 0.123213
O O3 0.678729 0.579394 0.191270
O O4 0.639546 0.525981 0.050040
O O5 0.776843 0.811104 0.573389
O O6 0.754008 0.877004 0.917890
O O7 0.803900 0.803900 0.000000
O O8 0.661912 0.744358 0.980739
O O9 0.887627 0.443814 0.639981
#
# Coordination Sequence:
#
# PCOD8324246 Si02
#       4
#    36  18  36  36
#     4  12  23  38  61  91 125 163 204 254 308 364
#     4  12  22  38  59  92 125 156 202 256 314 364
#     4  11  20  37  61  90 126 162 204 249 301 368
#     4  11  23  40  63  89 124 164 204 253 310 371
#
# _framework density 20.016103999999999
#
# number of rings (size 3 to 8) (size 9 to 14) (size 15 to 20)
#    0.000    0.571    5.714    3.429    0.000    5.714 
#    0.000    0.000    0.000   10.857    0.000    1.000 
#    0.000    0.000    0.000    0.000    0.000    0.000 
#
# Total GULP energy -520613.486311 kJ/mol
# GULP energy per Si atom -12395.559198 kJ/mol
# Density = 1.997055 g / cm^3
# Si number density = 20.016104 Si / 1000 Ang^3
#
#
#
# Elastic Constant Matrix: (Units=GPa)
#
#
# Indices 1 2 3 4 5 6 
#
# 1 63.9842 27.0488 8.0546 0.0463 0.0000 0.0000
# 2 27.0488 63.9842 8.0546 -0.0463 0.0000 0.0000
# 3 8.0546 8.0546 99.2233 0.0000 0.0000 0.0000
# 4 0.0463 -0.0463 0.0000 26.4804 0.0000 0.0000
# 5 0.0000 0.0000 0.0000 0.0000 26.4804 0.0463
# 6 0.0000 0.0000 0.0000 0.0000 0.0463 18.4677
#
#
#
# Elastic Compliance Matrix: (Units=1/GPa)
#
#
# Indices 1 2 3 4 5 6 
#
# 1 0.019110 -0.007965 -0.000905 -0.000047 0.000000 0.000000
# 2 -0.007965 0.019110 -0.000905 0.000047 0.000000 0.000000
# 3 -0.000905 -0.000905 0.010225 0.000000 0.000000 0.000000
# 4 -0.000047 0.000047 0.000000 0.037764 0.000000 0.000000
# 5 0.000000 0.000000 0.000000 0.000000 0.037764 -0.000095
# 6 0.000000 0.000000 0.000000 0.000000 -0.000095 0.054149
#
#
# Mechanical properties :
#
#
# Convention : Reuss Voigt Hill
#
# Bulk Modulus (GPa) = 34.60623 34.83419 34.72021
# Shear Modulus (GPa) = 24.11944 26.55462 25.33703
#
# Velocity S-wave (km/s) = 3.47508 3.64629 3.56171
# Velocity P-wave (km/s) = 5.78172 5.93027 5.85647
#
# Compressibility (1/GPa) = 0.02889653
#
# Stress axis : x y z
#
# Youngs Moduli (GPa) = 52.32932 52.32932 97.79793
#
# Poissons Ratio (x) = 0.41678 0.08848
# Poissons Ratio (y) = 0.41678 0.08848
# Poissons Ratio (z) = 0.04734 0.04734
#
# Static dielectric constant tensor:
#      x y z
#    x 3.487120 0.000000 0.000000 
#    y 0.000000 3.487120 0.000000 
#    z 0.000000 0.000000 3.850530 
# 
# 
# High freq. dielectric constant tensor:
#      x y z
#    x 1.756190 0.000000 0.000000 
#    y 0.000000 1.756190 0.000000 
#    z 0.000000 0.000000 1.800470 
# 
# From -- ./inp_files/4872.got.cif
#   From: 2010.03.12/outbox.cif.g09.slc.cpg/sg166_3_cif.got.tgz:4872.got - 2010.04.02 06:38:31.
