data_PCOD8324358
_publ_section_title
;
Structure prediction by ZEFSAII (Michael W. Deem and Ramdas Pophale) SiO2 
 PCOD8324358
Probable space group: R -3 C 
;
_chemical_formula_sum "Si O2"
_cell_formula_units_Z 126
_cell_length_a 20.929911
_cell_length_b 20.929911
_cell_length_c 16.286747
_cell_angle_alpha 90.000000
_cell_angle_beta 90.000000
_cell_angle_gamma 120.000000
_cell_volume 6178.737501
_symmetry_space_group_name_H-M "R -3 C "
_symmetry_group_IT_number 167
_symmetry_cell_setting 'hexagonal'
loop_
_space_group_symop_operation_xyz
x,y,z
-y,x-y,z
-x+y,-x,z
x-y,-y,1/2-z
-x,-x+y,1/2-z
y,x,1/2-z
-x,-y,-z
y,-x+y,-z
x-y,x,-z
-x+y,y,1/2+z
x,x-y,1/2+z
-y,-x,1/2+z
2/3+x,1/3+y,1/3+z
2/3-y,1/3+x-y,1/3+z
2/3-x+y,1/3-x,1/3+z
2/3+x-y,1/3-y,5/6-z
2/3-x,1/3-x+y,5/6-z
2/3+y,1/3+x,5/6-z
2/3-x,1/3-y,1/3-z
2/3+y,1/3-x+y,1/3-z
2/3+x-y,1/3+x,1/3-z
2/3-x+y,1/3+y,5/6+z
2/3+x,1/3+x-y,5/6+z
2/3-y,1/3-x,5/6+z
1/3+x,2/3+y,2/3+z
1/3-y,2/3+x-y,2/3+z
1/3-x+y,2/3-x,2/3+z
1/3+x-y,2/3-y,1/6-z
1/3-x,2/3-x+y,1/6-z
1/3+y,2/3+x,1/6-z
1/3-x,2/3-y,2/3-z
1/3+y,2/3-x+y,2/3-z
1/3+x-y,2/3+x,2/3-z
1/3-x+y,2/3+y,1/6+z
1/3+x,2/3+x-y,1/6+z
1/3-y,2/3-x,1/6+z
loop_
_atom_site_type_symbol
_atom_site_label
_atom_site_fract_x
_atom_site_fract_y
_atom_site_fract_z
Si Si1 0.163491 0.083105 0.978936
Si Si2 0.346339 0.346339 0.250000
Si Si3 0.789366 0.654178 0.821545
Si Si4 0.507852 0.898009 0.347922
O O1 0.179868 0.116827 0.887676
O O2 0.119421 0.114394 0.030165
O O3 0.237114 0.102503 0.031384
O O4 0.275485 0.329152 0.196812
O O5 0.362902 0.411780 0.311218
O O6 0.863858 0.714704 0.775380
O O7 0.809579 0.666667 0.916667
O O8 0.511860 0.845193 0.416667
#
# Coordination Sequence:
#
# PCOD8324358 Si02
#       4
#    36  18  36  36
#     4  11  21  42  67  88 126 183 225 257 329 408
#     4  12  20  40  70  94 128 174 216 272 346 402
#     4  10  21  41  65  97 129 168 215 276 333 393
#     4  11  23  41  62  98 136 168 221 284 325 392
#
# _framework density 20.392516000000001
#
# number of rings (size 3 to 8) (size 9 to 14) (size 15 to 20)
#    0.000    1.143    7.143    1.143    0.000    3.429 
#   10.286    0.000    0.000    0.000    0.000    0.000 
#    0.000    0.000    0.000    0.000    0.000    0.000 
#
# Total GULP energy -520815.160383 kJ/mol
# GULP energy per Si atom -12400.360962 kJ/mol
# Density = 2.034610 g / cm^3
# Si number density = 20.392516 Si / 1000 Ang^3
#
#
#
# Elastic Constant Matrix: (Units=GPa)
#
#
# Indices 1 2 3 4 5 6 
#
# 1 139.5433 73.1202 37.4996 0.7732 -0.0005 0.0000
# 2 73.1202 139.5433 37.4996 -0.7732 0.0005 0.0000
# 3 37.4996 37.4996 50.8792 0.0000 0.0000 0.0000
# 4 0.7732 -0.7732 0.0000 34.1855 0.0000 0.0005
# 5 -0.0005 0.0005 0.0000 0.0000 34.1855 0.7732
# 6 0.0000 0.0000 0.0000 0.0005 0.7732 33.2115
#
#
#
# Elastic Compliance Matrix: (Units=1/GPa)
#
#
# Indices 1 2 3 4 5 6 
#
# 1 0.010708 -0.004355 -0.004683 -0.000341 0.000000 0.000000
# 2 -0.004355 0.010708 -0.004683 0.000341 0.000000 0.000000
# 3 -0.004683 -0.004683 0.026557 0.000000 0.000000 0.000000
# 4 -0.000341 0.000341 0.000000 0.029268 0.000000 0.000000
# 5 0.000000 0.000000 0.000000 0.000000 0.029268 -0.000681
# 6 0.000000 0.000000 0.000000 0.000000 -0.000681 0.030126
#
#
# Mechanical properties :
#
#
# Convention : Reuss Voigt Hill
#
# Bulk Modulus (GPa) = 48.70172 69.57830 59.14001
# Shear Modulus (GPa) = 29.25337 32.43959 30.84648
#
# Velocity S-wave (km/s) = 3.79161 3.99276 3.89348
# Velocity P-wave (km/s) = 6.56524 7.44646 7.01969
#
# Compressibility (1/GPa) = 0.02053316
#
# Stress axis : x y z
#
# Youngs Moduli (GPa) = 93.38493 93.38493 37.65433
#
# Poissons Ratio (x) = 0.40665 0.17633
# Poissons Ratio (y) = 0.40665 0.17633
# Poissons Ratio (z) = 0.43732 0.43732
#
# Static dielectric constant tensor:
#      x y z
#    x 4.022180 0.000000 0.000000 
#    y 0.000000 4.022180 0.000000 
#    z 0.000000 0.000000 3.357490 
# 
# 
# High freq. dielectric constant tensor:
#      x y z
#    x 1.810550 0.000000 0.000000 
#    y 0.000000 1.810550 0.000000 
#    z 0.000000 0.000000 1.760290 
# 
# From -- ./inp_files/3017.got.cif
#   From: 2010.03.12/outbox.cif.g09.slc.cpg/sg167_2_cif.got.tgz:3017.got - 2010.04.02 06:42:56.
