data_PCOD8324383
_publ_section_title
;
Structure prediction by ZEFSAII (Michael W. Deem and Ramdas Pophale) SiO2 
 PCOD8324383
Probable space group: R -3 C 
;
_chemical_formula_sum "Si O2"
_cell_formula_units_Z 108
_cell_length_a 20.228933
_cell_length_b 20.228933
_cell_length_c 11.853924
_cell_angle_alpha 90.000000
_cell_angle_beta 90.000000
_cell_angle_gamma 120.000000
_cell_volume 4200.864971
_symmetry_space_group_name_H-M "R -3 C "
_symmetry_group_IT_number 167
_symmetry_cell_setting 'hexagonal'
loop_
_space_group_symop_operation_xyz
x,y,z
-y,x-y,z
-x+y,-x,z
x-y,-y,1/2-z
-x,-x+y,1/2-z
y,x,1/2-z
-x,-y,-z
y,-x+y,-z
x-y,x,-z
-x+y,y,1/2+z
x,x-y,1/2+z
-y,-x,1/2+z
2/3+x,1/3+y,1/3+z
2/3-y,1/3+x-y,1/3+z
2/3-x+y,1/3-x,1/3+z
2/3+x-y,1/3-y,5/6-z
2/3-x,1/3-x+y,5/6-z
2/3+y,1/3+x,5/6-z
2/3-x,1/3-y,1/3-z
2/3+y,1/3-x+y,1/3-z
2/3+x-y,1/3+x,1/3-z
2/3-x+y,1/3+y,5/6+z
2/3+x,1/3+x-y,5/6+z
2/3-y,1/3-x,5/6+z
1/3+x,2/3+y,2/3+z
1/3-y,2/3+x-y,2/3+z
1/3-x+y,2/3-x,2/3+z
1/3+x-y,2/3-y,1/6-z
1/3-x,2/3-x+y,1/6-z
1/3+y,2/3+x,1/6-z
1/3-x,2/3-y,2/3-z
1/3+y,2/3-x+y,2/3-z
1/3+x-y,2/3+x,2/3-z
1/3-x+y,2/3+y,1/6+z
1/3+x,2/3+x-y,1/6+z
1/3-y,2/3-x,1/6+z
loop_
_atom_site_type_symbol
_atom_site_label
_atom_site_fract_x
_atom_site_fract_y
_atom_site_fract_z
Si Si1 0.295625 0.788136 0.143651
Si Si2 0.039357 0.619558 0.044899
Si Si3 0.145692 0.869674 0.685214
O O1 0.378389 0.799136 0.115138
O O2 0.307590 0.861991 0.211790
O O3 0.250278 0.776228 0.026636
O O4 0.010822 0.677488 0.083334
O O5 0.969186 0.534476 0.064611
O O6 0.058668 0.610149 0.911509
O O7 0.180541 0.847208 0.583334
#
# Coordination Sequence:
#
# PCOD8324383 Si02
#       3
#    36  36  36
#     4  11  26  48  73 106 151 208 269 324 391 482
#     4  10  23  44  78 110 157 195 253 336 404 476
#     4   9  22  43  71 112 150 201 254 318 403 479
#
# _framework density 25.70899
#
# number of rings (size 3 to 8) (size 9 to 14) (size 15 to 20)
#    0.000    2.000    0.000    0.333   14.000    5.333 
#   12.000    0.000    0.000    4.000    0.000    0.000 
#    0.000    0.000    0.000    0.000    0.000    0.000 
#
# Total GULP energy -446209.016173 kJ/mol
# GULP energy per Si atom -12394.694894 kJ/mol
# Density = 2.565048 g / cm^3
# Si number density = 25.708990 Si / 1000 Ang^3
#
#
#
# Elastic Constant Matrix: (Units=GPa)
#
#
# Indices 1 2 3 4 5 6 
#
# 1 179.1619 85.5682 44.1391 -4.2478 -0.0001 0.0000
# 2 85.5682 179.1619 44.1391 4.2478 0.0001 0.0000
# 3 44.1391 44.1391 129.0812 0.0000 0.0000 0.0000
# 4 -4.2478 4.2478 0.0000 5.9847 0.0000 0.0001
# 5 -0.0001 0.0001 0.0000 0.0000 5.9847 -4.2478
# 6 0.0000 0.0000 0.0000 0.0001 -4.2478 46.7968
#
#
#
# Elastic Compliance Matrix: (Units=1/GPa)
#
#
# Indices 1 2 3 4 5 6 
#
# 1 0.007842 -0.003578 -0.001458 0.008106 0.000000 0.000000
# 2 -0.003578 0.007842 -0.001458 -0.008106 0.000000 0.000000
# 3 -0.001458 -0.001458 0.008744 0.000000 0.000000 0.000000
# 4 0.008106 -0.008106 0.000000 0.178599 0.000000 0.000000
# 5 0.000000 0.000000 0.000000 0.000000 0.178599 0.016212
# 6 0.000000 0.000000 0.000000 0.000000 0.016212 0.022841
#
#
# Mechanical properties :
#
#
# Convention : Reuss Voigt Hill
#
# Bulk Modulus (GPa) = 87.41557 92.78865 90.10211
# Shear Modulus (GPa) = 11.86893 32.65716 22.26304
#
# Velocity S-wave (km/s) = 2.15097 3.56794 2.94592
# Velocity P-wave (km/s) = 6.34387 7.28998 6.83332
#
# Compressibility (1/GPa) = 0.01143961
#
# Stress axis : x y z
#
# Youngs Moduli (GPa) = 127.51959 127.51961 114.36238
#
# Poissons Ratio (x) = 0.45631 0.16673
# Poissons Ratio (y) = 0.45631 0.16673
# Poissons Ratio (z) = 0.18592 0.18591
#
# Static dielectric constant tensor:
#      x y z
#    x 5.053260 0.000000 0.000000 
#    y 0.000000 5.053260 0.000000 
#    z 0.000000 0.000000 4.851930 
# 
# 
# High freq. dielectric constant tensor:
#      x y z
#    x 2.052130 0.000000 0.000000 
#    y 0.000000 2.052130 0.000000 
#    z 0.000000 0.000000 2.017400 
# 
# From -- ./inp_files/1243.got.cif
#   From: 2010.03.12/outbox.cif.g09.slc.cpg/sg167_1_cif.got.tgz:1243.got - 2010.04.02 06:42:56.
