data_PCOD8324068
_publ_section_title
;
Structure prediction by ZEFSAII (Michael W. Deem and Ramdas Pophale) SiO2 
 PCOD8324068
Probable space group: R -3 M
;
_chemical_formula_sum "Si O2"
_cell_formula_units_Z 216
_cell_length_a 26.243687
_cell_length_b 26.243687
_cell_length_c 17.291010
_cell_angle_alpha 90.000000
_cell_angle_beta 90.000000
_cell_angle_gamma 120.000000
_cell_volume 10313.372228
_symmetry_space_group_name_H-M "R -3 M"
_symmetry_group_IT_number 166
_symmetry_cell_setting 'hexagonal'
loop_
_space_group_symop_operation_xyz
x,y,z
-y,x-y,z
-x+y,-x,z
x-y,-y,-z
-x,-x+y,-z
y,x,-z
-x,-y,-z
y,-x+y,-z
x-y,x,-z
-x+y,y,z
x,x-y,z
-y,-x,z
2/3+x,1/3+y,1/3+z
2/3-y,1/3+x-y,1/3+z
2/3-x+y,1/3-x,1/3+z
2/3+x-y,1/3-y,1/3-z
2/3-x,1/3-x+y,1/3-z
2/3+y,1/3+x,1/3-z
2/3-x,1/3-y,1/3-z
2/3+y,1/3-x+y,1/3-z
2/3+x-y,1/3+x,1/3-z
2/3-x+y,1/3+y,1/3+z
2/3+x,1/3+x-y,1/3+z
2/3-y,1/3-x,1/3+z
1/3+x,2/3+y,2/3+z
1/3-y,2/3+x-y,2/3+z
1/3-x+y,2/3-x,2/3+z
1/3+x-y,2/3-y,2/3-z
1/3-x,2/3-x+y,2/3-z
1/3+y,2/3+x,2/3-z
1/3-x,2/3-y,2/3-z
1/3+y,2/3-x+y,2/3-z
1/3+x-y,2/3+x,2/3-z
1/3-x+y,2/3+y,2/3+z
1/3+x,2/3+x-y,2/3+z
1/3-y,2/3-x,2/3+z
loop_
_atom_site_type_symbol
_atom_site_label
_atom_site_fract_x
_atom_site_fract_y
_atom_site_fract_z
Si Si1 0.211685 0.904971 0.092696
Si Si2 0.217391 0.551057 0.790860
Si Si3 0.731286 0.579962 0.000206
Si Si4 0.939049 0.344535 0.521754
Si Si5 0.392890 0.488903 0.611859
Si Si6 0.549941 0.333638 0.636556
O O1 0.145999 0.854002 0.106108
O O2 0.226729 0.942439 0.171596
O O3 0.254123 0.877694 0.073178
O O4 0.215067 0.949840 0.024297
O O5 0.285533 0.571065 0.781178
O O6 0.208078 0.604039 0.764344
O O7 0.176781 0.498318 0.733415
O O8 0.198192 0.532848 0.880075
O O9 0.793239 0.586478 0.031326
O O10 0.697765 0.599850 0.059870
O O11 0.686982 0.510417 0.980834
O O12 0.937602 0.391172 0.463371
O O13 0.000000 0.347548 0.500000
O O14 0.458272 0.541729 0.615832
O O15 0.539393 0.269697 0.663081
O O16 0.618939 0.381062 0.647804
#
# Coordination Sequence:
#
# PCOD8324068 Si02
#       6
#    36  36  36  36  36  36
#     4  10  23  39  54  77 106 138 180 234 283 327
#     4   9  16  26  42  66  98 134 172 212 259 314
#     4  10  20  35  55  77 109 147 182 221 277 339
#     4  12  22  33  55  77 103 135 181 226 277 318
#     4  10  19  32  49  70  99 134 177 222 269 318
#     4   9  16  27  46  74 103 132 166 207 256 315
#
# _framework density 20.943684000000001
#
# number of rings (size 3 to 8) (size 9 to 14) (size 15 to 20)
#    0.000    2.000    3.333    1.333    0.000    3.333 
#    0.000    1.667    0.000    1.000    0.000    2.333 
#    0.000   22.667    0.000    0.000    0.000   23.833 
#
# Total GULP energy -892175.438430 kJ/mol
# GULP energy per Si atom -12391.325534 kJ/mol
# Density = 2.089601 g / cm^3
# Si number density = 20.943684 Si / 1000 Ang^3
#
#
#
# Elastic Constant Matrix: (Units=GPa)
#
#
# Indices 1 2 3 4 5 6 
#
# 1 101.6527 33.6837 8.9047 1.6037 0.0000 0.0000
# 2 33.6837 101.6527 8.9047 -1.6037 0.0000 0.0000
# 3 8.9047 8.9047 19.3210 0.0000 0.0000 0.0000
# 4 1.6037 -1.6037 0.0000 17.5733 0.0000 0.0000
# 5 0.0000 0.0000 0.0000 0.0000 17.5733 1.6037
# 6 0.0000 0.0000 0.0000 0.0000 1.6037 33.9845
#
#
#
# Elastic Compliance Matrix: (Units=1/GPa)
#
#
# Indices 1 2 3 4 5 6 
#
# 1 0.011321 -0.003455 -0.003625 -0.001348 0.000000 0.000000
# 2 -0.003455 0.011321 -0.003625 0.001348 0.000000 0.000000
# 3 -0.003625 -0.003625 0.055099 0.000000 0.000000 0.000000
# 4 -0.001348 0.001348 0.000000 0.057151 0.000000 0.000000
# 5 0.000000 0.000000 0.000000 0.000000 0.057151 -0.002697
# 6 0.000000 0.000000 0.000000 0.000000 -0.002697 0.029552
#
#
# Mechanical properties :
#
#
# Convention : Reuss Voigt Hill
#
# Bulk Modulus (GPa) = 17.75266 36.17917 26.96591
# Shear Modulus (GPa) = 19.09982 25.23510 22.16746
#
# Velocity S-wave (km/s) = 3.02315 3.47494 3.25688
# Velocity P-wave (km/s) = 4.54760 5.78033 5.20062
#
# Compressibility (1/GPa) = 0.05632960
#
# Stress axis : x y z
#
# Youngs Moduli (GPa) = 88.33024 88.33024 18.14925
#
# Poissons Ratio (x) = 0.30519 0.06580
# Poissons Ratio (y) = 0.30519 0.06580
# Poissons Ratio (z) = 0.32022 0.32022
#
# Static dielectric constant tensor:
#      x y z
#    x 3.936740 0.000000 0.000000 
#    y 0.000000 3.936740 0.000000 
#    z 0.000000 0.000000 3.244320 
# 
# 
# High freq. dielectric constant tensor:
#      x y z
#    x 1.830210 0.000000 0.000000 
#    y 0.000000 1.830210 0.000000 
#    z 0.000000 0.000000 1.752470 
# 
# From -- ./inp_files/7132.got.cif
#   From: 2010.03.12/outbox.cif.g09.slc.cpg/sg166_4_cif.got.tgz:7132.got - 2010.04.02 06:38:31.
