data_PCOD8324116
_publ_section_title
;
Structure prediction by ZEFSAII (Michael W. Deem and Ramdas Pophale) SiO2 
 PCOD8324116
Probable space group: R -3 M
;
_chemical_formula_sum "Si O2"
_cell_formula_units_Z 162
_cell_length_a 21.045379
_cell_length_b 21.045379
_cell_length_c 22.902173
_cell_angle_alpha 90.000000
_cell_angle_beta 90.000000
_cell_angle_gamma 120.000000
_cell_volume 8784.576417
_symmetry_space_group_name_H-M "R -3 M"
_symmetry_group_IT_number 166
_symmetry_cell_setting 'hexagonal'
loop_
_space_group_symop_operation_xyz
x,y,z
-y,x-y,z
-x+y,-x,z
x-y,-y,-z
-x,-x+y,-z
y,x,-z
-x,-y,-z
y,-x+y,-z
x-y,x,-z
-x+y,y,z
x,x-y,z
-y,-x,z
2/3+x,1/3+y,1/3+z
2/3-y,1/3+x-y,1/3+z
2/3-x+y,1/3-x,1/3+z
2/3+x-y,1/3-y,1/3-z
2/3-x,1/3-x+y,1/3-z
2/3+y,1/3+x,1/3-z
2/3-x,1/3-y,1/3-z
2/3+y,1/3-x+y,1/3-z
2/3+x-y,1/3+x,1/3-z
2/3-x+y,1/3+y,1/3+z
2/3+x,1/3+x-y,1/3+z
2/3-y,1/3-x,1/3+z
1/3+x,2/3+y,2/3+z
1/3-y,2/3+x-y,2/3+z
1/3-x+y,2/3-x,2/3+z
1/3+x-y,2/3-y,2/3-z
1/3-x,2/3-x+y,2/3-z
1/3+y,2/3+x,2/3-z
1/3-x,2/3-y,2/3-z
1/3+y,2/3-x+y,2/3-z
1/3+x-y,2/3+x,2/3-z
1/3-x+y,2/3+y,2/3+z
1/3+x,2/3+x-y,2/3+z
1/3-y,2/3-x,2/3+z
loop_
_atom_site_type_symbol
_atom_site_label
_atom_site_fract_x
_atom_site_fract_y
_atom_site_fract_z
Si Si1 0.666822 0.187110 0.679606
Si Si2 0.463539 0.387130 0.780198
Si Si3 0.952140 0.754505 0.891437
Si Si4 0.484289 0.817622 0.666667
Si Si5 0.146714 0.000035 0.786037
O O1 0.605525 0.211049 0.685700
O O2 0.743888 0.256113 0.698037
O O3 0.650031 0.119228 0.720727
O O4 0.668584 0.161783 0.613439
O O5 0.537924 0.462077 0.793840
O O6 0.450436 0.333334 0.833334
O O7 0.394830 0.400366 0.772141
O O8 0.875194 0.750388 0.898520
O O9 0.003982 0.805042 0.943615
O O10 0.988735 0.788216 0.828993
O O11 0.404021 0.808042 0.666960
O O12 0.076270 0.923731 0.802125
O O13 0.125259 0.062630 0.795732
#
# Coordination Sequence:
#
# PCOD8324116 Si02
#       5
#    36  36  36  18  36
#     4   9  17  30  52  81 109 134 166 216 276 329
#     4  10  20  36  54  73 101 139 181 222 263 309
#     4   9  19  34  50  72 106 139 169 209 254 306
#     4  10  19  34  58  84 109 136 172 218 270 320
#     4   9  16  29  51  79 108 133 162 206 264 323
#
# _framework density 18.441413000000001
#
# number of rings (size 3 to 8) (size 9 to 14) (size 15 to 20)
#    0.000    2.667    0.000    1.889    0.000    1.778 
#    4.000    2.222    0.000   10.222    0.000    0.000 
#    0.000    0.000    0.000    0.000    0.000    0.000 
#
# Total GULP energy -669610.349208 kJ/mol
# GULP energy per Si atom -12400.191652 kJ/mol
# Density = 1.839944 g / cm^3
# Si number density = 18.441413 Si / 1000 Ang^3
#
#
#
# Elastic Constant Matrix: (Units=GPa)
#
#
# Indices 1 2 3 4 5 6 
#
# 1 96.1524 47.5405 66.6969 4.9179 0.0002 0.0000
# 2 47.5405 96.1524 66.6969 -4.9179 -0.0002 0.0000
# 3 66.6969 66.6969 143.5918 0.0000 0.0000 0.0000
# 4 4.9179 -4.9179 0.0000 21.7009 0.0000 -0.0002
# 5 0.0002 -0.0002 0.0000 0.0000 21.7009 4.9179
# 6 0.0000 0.0000 0.0000 -0.0002 4.9179 24.3060
#
#
#
# Elastic Compliance Matrix: (Units=1/GPa)
#
#
# Indices 1 2 3 4 5 6 
#
# 1 0.016897 -0.004662 -0.005683 -0.004886 0.000000 0.000000
# 2 -0.004662 0.016897 -0.005683 0.004886 0.000000 0.000000
# 3 -0.005683 -0.005683 0.012244 0.000000 0.000000 0.000000
# 4 -0.004886 0.004886 0.000000 0.048296 0.000000 0.000000
# 5 0.000000 0.000000 0.000000 0.000000 0.048296 -0.009772
# 6 0.000000 0.000000 0.000000 0.000000 -0.009772 0.043119
#
#
# Mechanical properties :
#
#
# Convention : Reuss Voigt Hill
#
# Bulk Modulus (GPa) = 71.52322 77.52947 74.52634
# Shear Modulus (GPa) = 22.47534 23.87236 23.17385
#
# Velocity S-wave (km/s) = 3.49484 3.60182 3.54873
# Velocity P-wave (km/s) = 7.42653 7.70906 7.56912
#
# Compressibility (1/GPa) = 0.01398147
#
# Stress axis : x y z
#
# Youngs Moduli (GPa) = 59.18096 59.18096 81.67531
#
# Poissons Ratio (x) = 0.27592 0.46416
# Poissons Ratio (y) = 0.27592 0.46416
# Poissons Ratio (z) = 0.33633 0.33633
#
# Static dielectric constant tensor:
#      x y z
#    x 3.295970 0.000000 0.000000 
#    y 0.000000 3.295970 0.000000 
#    z 0.000000 0.000000 3.579640 
# 
# 
# High freq. dielectric constant tensor:
#      x y z
#    x 1.700950 0.000000 0.000000 
#    y 0.000000 1.700950 0.000000 
#    z 0.000000 0.000000 1.727340 
# 
# From -- ./inp_files/6805.got.cif
#   From: 2010.03.12/outbox.cif.g09.slc.cpg/sg166_4_cif.got.tgz:6805.got - 2010.04.02 06:38:31.
