data_PCOD8324035
_publ_section_title
;
Structure prediction by ZEFSAII (Michael W. Deem and Ramdas Pophale) SiO2 
 PCOD8324035
Probable space group: R -3 M
;
_chemical_formula_sum "Si O2"
_cell_formula_units_Z 162
_cell_length_a 21.941217
_cell_length_b 21.941217
_cell_length_c 22.548999
_cell_angle_alpha 90.000000
_cell_angle_beta 90.000000
_cell_angle_gamma 120.000000
_cell_volume 9401.114114
_symmetry_space_group_name_H-M "R -3 M"
_symmetry_group_IT_number 166
_symmetry_cell_setting 'hexagonal'
loop_
_space_group_symop_operation_xyz
x,y,z
-y,x-y,z
-x+y,-x,z
x-y,-y,-z
-x,-x+y,-z
y,x,-z
-x,-y,-z
y,-x+y,-z
x-y,x,-z
-x+y,y,z
x,x-y,z
-y,-x,z
2/3+x,1/3+y,1/3+z
2/3-y,1/3+x-y,1/3+z
2/3-x+y,1/3-x,1/3+z
2/3+x-y,1/3-y,1/3-z
2/3-x,1/3-x+y,1/3-z
2/3+y,1/3+x,1/3-z
2/3-x,1/3-y,1/3-z
2/3+y,1/3-x+y,1/3-z
2/3+x-y,1/3+x,1/3-z
2/3-x+y,1/3+y,1/3+z
2/3+x,1/3+x-y,1/3+z
2/3-y,1/3-x,1/3+z
1/3+x,2/3+y,2/3+z
1/3-y,2/3+x-y,2/3+z
1/3-x+y,2/3-x,2/3+z
1/3+x-y,2/3-y,2/3-z
1/3-x,2/3-x+y,2/3-z
1/3+y,2/3+x,2/3-z
1/3-x,2/3-y,2/3-z
1/3+y,2/3-x+y,2/3-z
1/3+x-y,2/3+x,2/3-z
1/3-x+y,2/3+y,2/3+z
1/3+x,2/3+x-y,2/3+z
1/3-y,2/3-x,2/3+z
loop_
_atom_site_type_symbol
_atom_site_label
_atom_site_fract_x
_atom_site_fract_y
_atom_site_fract_z
Si Si1 0.923804 0.531739 0.656356
Si Si2 0.799170 0.737285 0.458301
Si Si3 0.912218 0.527895 0.214499
Si Si4 0.000000 0.734912 0.000000
Si Si5 0.521380 0.188418 0.108341
O O1 0.942701 0.471351 0.642893
O O2 0.902617 0.530404 0.724654
O O3 0.858663 0.520042 0.615387
O O4 0.993604 0.604750 0.643259
O O5 0.790181 0.790181 0.500000
O O6 0.871040 0.742080 0.477731
O O7 0.735156 0.657754 0.468324
O O8 0.910750 0.455375 0.219434
O O9 0.894854 0.544400 0.279528
O O10 0.855445 0.521781 0.166239
O O11 0.596335 0.192671 0.102606
O O12 0.533789 0.266895 0.112904
#
# Coordination Sequence:
#
# PCOD8324035 Si02
#       5
#    36  36  36  18  36
#     4   9  20  34  49  76 105 132 170 209 247 304
#     4   9  18  33  52  73 104 135 166 207 254 299
#     4   9  20  34  50  76 104 130 168 210 249 305
#     4  10  18  32  55  72 105 138 160 204 264 296
#     4  10  21  37  54  74 102 135 174 215 254 298
#
# _framework density 17.231999999999999
#
# number of rings (size 3 to 8) (size 9 to 14) (size 15 to 20)
#    0.000    2.667    0.000    2.222    6.222    2.667 
#    0.000    2.778    0.000    0.222    0.000    3.889 
#    0.000    0.000    0.000    0.000    0.000    0.000 
#
# Total GULP energy -669470.673444 kJ/mol
# GULP energy per Si atom -12397.605064 kJ/mol
# Density = 1.719278 g / cm^3
# Si number density = 17.232000 Si / 1000 Ang^3
#
#
#
# Elastic Constant Matrix: (Units=GPa)
#
#
# Indices 1 2 3 4 5 6 
#
# 1 64.9111 43.7410 58.0352 5.7155 0.0000 0.0000
# 2 43.7410 64.9111 58.0352 -5.7155 0.0000 0.0000
# 3 58.0352 58.0352 103.3204 0.0000 0.0000 0.0000
# 4 5.7155 -5.7155 0.0000 32.2683 0.0000 0.0000
# 5 0.0000 0.0000 0.0000 0.0000 32.2683 5.7155
# 6 0.0000 0.0000 0.0000 0.0000 5.7155 10.5851
#
#
#
# Elastic Compliance Matrix: (Units=1/GPa)
#
#
# Indices 1 2 3 4 5 6 
#
# 1 0.037622 -0.014610 -0.012926 -0.009251 0.000000 0.000000
# 2 -0.014610 0.037622 -0.012926 0.009251 0.000000 0.000000
# 3 -0.012926 -0.012926 0.024200 0.000000 0.000000 0.000000
# 4 -0.009251 0.009251 0.000000 0.034267 0.000000 0.000000
# 5 0.000000 0.000000 0.000000 0.000000 0.034267 -0.018503
# 6 0.000000 0.000000 0.000000 0.000000 -0.018503 0.104464
#
#
# Mechanical properties :
#
#
# Convention : Reuss Voigt Hill
#
# Bulk Modulus (GPa) = 53.99512 61.41839 57.70676
# Shear Modulus (GPa) = 13.90668 19.91307 16.90987
#
# Velocity S-wave (km/s) = 2.84390 3.40308 3.13598
# Velocity P-wave (km/s) = 6.49507 7.15267 6.83179
#
# Compressibility (1/GPa) = 0.01852019
#
# Stress axis : x y z
#
# Youngs Moduli (GPa) = 26.58018 26.58018 41.32265
#
# Poissons Ratio (x) = 0.38833 0.53414
# Poissons Ratio (y) = 0.38833 0.53414
# Poissons Ratio (z) = 0.34358 0.34358
#
# Static dielectric constant tensor:
#      x y z
#    x 3.205300 0.000000 0.000000 
#    y 0.000000 3.205300 0.000000 
#    z 0.000000 0.000000 3.418200 
# 
# 
# High freq. dielectric constant tensor:
#      x y z
#    x 1.661350 0.000000 0.000000 
#    y 0.000000 1.661350 0.000000 
#    z 0.000000 0.000000 1.670990 
# 
# From -- ./inp_files/8176.got.cif
#   From: 2010.03.12/outbox.cif.g09.slc.cpg/sg166_5_cif.got.tgz:8176.got - 2010.04.02 06:38:31.
