data_PCOD8324882
_publ_section_title
;
Structure prediction by ZEFSAII (Michael W. Deem and Ramdas Pophale) SiO2 
 PCOD8324882
Probable space group: P 63
;
_chemical_formula_sum "Si O2"
_cell_formula_units_Z 42
_cell_length_a 11.559830
_cell_length_b 11.559830
_cell_length_c 17.313894
_cell_angle_alpha 90.000000
_cell_angle_beta 90.000000
_cell_angle_gamma 120.000000
_cell_volume 2003.679619
_symmetry_space_group_name_H-M "P 63"
_symmetry_group_IT_number 173
_symmetry_cell_setting 'hexagonal'
loop_
_space_group_symop_operation_xyz
x,y,z
x-y,x,1/2+z
-y,x-y,z
-x,-y,1/2+z
-x+y,-x,z
y,-x+y,1/2+z
loop_
_atom_site_type_symbol
_atom_site_label
_atom_site_fract_x
_atom_site_fract_y
_atom_site_fract_z
Si Si1 0.394499 0.100172 0.051530
Si Si2 0.642898 0.469969 0.642867
Si Si3 0.018388 0.273432 0.372968
Si Si4 0.603713 0.896846 0.723450
Si Si5 0.980041 0.726502 0.404469
Si Si6 0.379438 0.948717 0.518247
Si Si7 0.377350 0.941939 0.760545
O O1 0.365483 0.040001 0.137870
O O2 0.379885 0.231035 0.049991
O O3 0.541337 0.132650 0.024219
O O4 0.289830 0.985717 0.994528
O O5 0.526137 0.311871 0.642636
O O6 0.630236 0.544933 0.567457
O O7 0.628447 0.541701 0.719592
O O8 0.006303 0.303259 0.283849
O O9 0.155225 0.275261 0.376816
O O10 0.016143 0.384233 0.429183
O O11 0.899562 0.129673 0.397162
O O12 0.455240 0.860322 0.749435
O O13 0.620033 0.766985 0.721449
O O14 0.952700 0.600130 0.351470
#
# Coordination Sequence:
#
# PCOD8324882 Si02
#       7
#     6   6   6   6   6   6   6
#     4  11  21  39  65  91 124 165 218 274 320 384
#     4  10  24  38  62  96 136 168 202 270 322 388
#     4  10  24  41  63  88 127 170 215 268 329 395
#     4  11  21  39  65  91 124 165 218 274 320 384
#     4  10  24  41  63  88 127 170 215 268 329 395
#     4  11  22  41  64  95 128 172 218 266 333 379
#     4  11  22  41  64  95 128 172 218 266 333 379
#
# _framework density 20.961435000000002
#
# number of rings (size 3 to 8) (size 9 to 14) (size 15 to 20)
#    0.286    1.143    2.857    1.714    4.000    0.000 
#    0.000    0.000    0.000    0.000    0.000    0.000 
#    0.000    0.000    0.000    0.000    0.000    0.000 
#
# Total GULP energy -520653.444771 kJ/mol
# GULP energy per Si atom -12396.510590 kJ/mol
# Density = 2.091373 g / cm^3
# Si number density = 20.961435 Si / 1000 Ang^3
#
#
#
# Elastic Constant Matrix: (Units=GPa)
#
#
# Indices 1 2 3 4 5 6 
#
# 1 74.8680 17.0941 50.1854 0.0000 0.0000 0.0000
# 2 17.0941 74.8680 50.1854 0.0000 0.0000 0.0000
# 3 50.1854 50.1854 147.3421 0.0000 0.0000 0.0000
# 4 0.0000 0.0000 0.0000 9.9054 0.0000 0.0000
# 5 0.0000 0.0000 0.0000 0.0000 9.9054 0.0000
# 6 0.0000 0.0000 0.0000 0.0000 0.0000 28.8870
#
#
#
# Elastic Compliance Matrix: (Units=1/GPa)
#
#
# Indices 1 2 3 4 5 6 
#
# 1 0.017309 0.000000 -0.005895 0.000000 0.000000 0.000000
# 2 0.000000 0.017309 -0.005895 0.000000 0.000000 0.000000
# 3 -0.005895 -0.005895 0.010803 0.000000 0.000000 0.000000
# 4 0.000000 0.000000 0.000000 0.100955 0.000000 0.000000
# 5 0.000000 0.000000 0.000000 0.000000 0.100955 0.000000
# 6 0.000000 0.000000 0.000000 0.000000 0.000000 0.034618
#
#
# Mechanical properties :
#
#
# Convention : Reuss Voigt Hill
#
# Bulk Modulus (GPa) = 45.79089 59.11200 52.45145
# Shear Modulus (GPa) = 15.98418 21.71377 18.84897
#
# Velocity S-wave (km/s) = 2.76443 3.22202 3.00196
# Velocity P-wave (km/s) = 5.66411 6.48872 6.09039
#
# Compressibility (1/GPa) = 0.02183841
#
# Stress axis : x y z
#
# Youngs Moduli (GPa) = 57.77463 57.77463 92.56782
#
# Poissons Ratio (x) = 0.00001 0.54572
# Poissons Ratio (y) = 0.00001 0.54572
# Poissons Ratio (z) = 0.34060 0.34060
#
# Static dielectric constant tensor:
#      x y z
#    x 3.671990 0.000000 0.000000 
#    y 0.000000 3.671990 0.000000 
#    z 0.000000 0.000000 3.983580 
# 
# 
# High freq. dielectric constant tensor:
#      x y z
#    x 1.817090 0.000000 0.000000 
#    y 0.000000 1.817090 0.000000 
#    z 0.000000 0.000000 1.831890 
# 
# From -- ./inp_files/1292.got.cif
#   From: 2010.03.12/outbox.cif.g09.slc.cpg/sg173_cif.got.tgz:1292.got - 2010.04.02 06:54:12.
