data_PCOD8324099
_publ_section_title
;
Structure prediction by ZEFSAII (Michael W. Deem and Ramdas Pophale) SiO2 
 PCOD8324099
Probable space group: R -3 M
;
_chemical_formula_sum "Si O2"
_cell_formula_units_Z 252
_cell_length_a 28.932218
_cell_length_b 28.932218
_cell_length_c 19.202177
_cell_angle_alpha 90.000000
_cell_angle_beta 90.000000
_cell_angle_gamma 120.000000
_cell_volume 13920.170600
_symmetry_space_group_name_H-M "R -3 M"
_symmetry_group_IT_number 166
_symmetry_cell_setting 'hexagonal'
loop_
_space_group_symop_operation_xyz
x,y,z
-y,x-y,z
-x+y,-x,z
x-y,-y,-z
-x,-x+y,-z
y,x,-z
-x,-y,-z
y,-x+y,-z
x-y,x,-z
-x+y,y,z
x,x-y,z
-y,-x,z
2/3+x,1/3+y,1/3+z
2/3-y,1/3+x-y,1/3+z
2/3-x+y,1/3-x,1/3+z
2/3+x-y,1/3-y,1/3-z
2/3-x,1/3-x+y,1/3-z
2/3+y,1/3+x,1/3-z
2/3-x,1/3-y,1/3-z
2/3+y,1/3-x+y,1/3-z
2/3+x-y,1/3+x,1/3-z
2/3-x+y,1/3+y,1/3+z
2/3+x,1/3+x-y,1/3+z
2/3-y,1/3-x,1/3+z
1/3+x,2/3+y,2/3+z
1/3-y,2/3+x-y,2/3+z
1/3-x+y,2/3-x,2/3+z
1/3+x-y,2/3-y,2/3-z
1/3-x,2/3-x+y,2/3-z
1/3+y,2/3+x,2/3-z
1/3-x,2/3-y,2/3-z
1/3+y,2/3-x+y,2/3-z
1/3+x-y,2/3+x,2/3-z
1/3-x+y,2/3+y,2/3+z
1/3+x,2/3+x-y,2/3+z
1/3-y,2/3-x,2/3+z
loop_
_atom_site_type_symbol
_atom_site_label
_atom_site_fract_x
_atom_site_fract_y
_atom_site_fract_z
Si Si1 0.600491 0.607344 0.695244
Si Si2 0.332891 0.772648 0.591177
Si Si3 0.094874 0.384628 0.285791
Si Si4 0.652185 0.772638 0.496473
Si Si5 0.869320 0.630520 0.225625
Si Si6 0.149358 0.960541 0.819151
Si Si7 0.389612 0.884226 0.936430
O O1 0.623817 0.666667 0.666667
O O2 0.646896 0.593710 0.712558
O O3 0.565853 0.594288 0.765366
O O4 0.560981 0.573311 0.633625
O O5 0.387990 0.775979 0.576992
O O6 0.288100 0.711901 0.587652
O O7 0.333334 0.797722 0.666667
O O8 0.327230 0.806149 0.529840
O O9 0.072762 0.333334 0.333334
O O10 0.104859 0.368384 0.208903
O O11 0.150921 0.429585 0.318521
O O12 0.668089 0.834045 0.510894
O O13 0.599426 0.743725 0.450531
O O14 0.818489 0.636977 0.222267
O O15 0.911686 0.666667 0.166667
O O16 0.853215 0.570691 0.204097
O O17 0.094139 0.905862 0.800807
O O18 0.175892 0.993976 0.749005
O O19 0.430231 0.860462 0.936047
#
# Coordination Sequence:
#
# PCOD8324099 Si02
#       7
#    36  36  36  36  36  36  36
#     4  11  21  32  51  74 100 132 166 203 245 296
#     4   9  17  29  45  65  92 128 168 210 256 305
#     4   9  19  34  52  74  99 130 167 210 258 306
#     4  10  20  34  52  76 104 131 167 214 260 304
#     4  10  21  36  50  65  92 130 167 199 235 287
#     4  10  20  32  47  70 100 131 168 214 259 307
#     4  10  19  33  54  75  98 131 170 212 260 312
#
# _framework density 18.103227
#
# number of rings (size 3 to 8) (size 9 to 14) (size 15 to 20)
#    0.000    2.143    0.000    3.571    0.000    6.286 
#    0.000    3.571    0.000    0.286    0.000    0.000 
#    0.000    0.000    0.000    0.000    0.000    6.000 
#
# Total GULP energy -1040630.845898 kJ/mol
# GULP energy per Si atom -12388.462451 kJ/mol
# Density = 1.806202 g / cm^3
# Si number density = 18.103227 Si / 1000 Ang^3
#
#
#
# Elastic Constant Matrix: (Units=GPa)
#
#
# Indices 1 2 3 4 5 6 
#
# 1 57.0858 26.5743 24.2981 4.1495 -0.0003 0.0000
# 2 26.5743 57.0858 24.2981 -4.1495 0.0003 0.0000
# 3 24.2981 24.2981 97.0715 0.0000 0.0000 0.0000
# 4 4.1495 -4.1495 0.0000 29.7982 0.0000 0.0003
# 5 -0.0003 0.0003 0.0000 0.0000 29.7982 4.1495
# 6 0.0000 0.0000 0.0000 0.0003 4.1495 15.2557
#
#
#
# Elastic Compliance Matrix: (Units=1/GPa)
#
#
# Indices 1 2 3 4 5 6 
#
# 1 0.024026 -0.010039 -0.003501 -0.004744 0.000000 0.000000
# 2 -0.010039 0.024026 -0.003501 0.004744 0.000000 0.000000
# 3 -0.003501 -0.003501 0.012054 0.000000 0.000000 0.000000
# 4 -0.004744 0.004744 0.000000 0.034880 0.000000 -0.000001
# 5 0.000000 0.000000 0.000000 0.000000 0.034880 -0.009487
# 6 0.000000 0.000000 0.000000 -0.000001 -0.009487 0.068130
#
#
# Mechanical properties :
#
#
# Convention : Reuss Voigt Hill
#
# Bulk Modulus (GPa) = 38.42638 40.17601 39.30120
# Shear Modulus (GPa) = 20.76818 24.04193 22.40505
#
# Velocity S-wave (km/s) = 3.39072 3.64819 3.52181
# Velocity P-wave (km/s) = 6.04993 6.32350 6.18823
#
# Compressibility (1/GPa) = 0.02602379
#
# Stress axis : x y z
#
# Youngs Moduli (GPa) = 41.62190 41.62190 82.95727
#
# Poissons Ratio (x) = 0.41784 0.29044
# Poissons Ratio (y) = 0.41784 0.29044
# Poissons Ratio (z) = 0.14572 0.14572
#
# Static dielectric constant tensor:
#      x y z
#    x 3.433500 0.000000 0.000000 
#    y 0.000000 3.433500 0.000000 
#    z 0.000000 0.000000 3.561940 
# 
# 
# High freq. dielectric constant tensor:
#      x y z
#    x 1.694660 0.000000 0.000000 
#    y 0.000000 1.694660 0.000000 
#    z 0.000000 0.000000 1.693110 
# 
# From -- ./inp_files/5856.got.cif
#   From: 2010.03.12/outbox.cif.g09.slc.cpg/sg166_3_cif.got.tgz:5856.got - 2010.04.02 06:38:31.
