data_PCOD8324416
_publ_section_title
;
Structure prediction by ZEFSAII (Michael W. Deem and Ramdas Pophale) SiO2 
 PCOD8324416
Probable space group: R -3 C 
;
_chemical_formula_sum "Si O2"
_cell_formula_units_Z 126
_cell_length_a 18.003057
_cell_length_b 18.003057
_cell_length_c 20.398843
_cell_angle_alpha 90.000000
_cell_angle_beta 90.000000
_cell_angle_gamma 120.000000
_cell_volume 5725.701198
_symmetry_space_group_name_H-M "R -3 C "
_symmetry_group_IT_number 167
_symmetry_cell_setting 'hexagonal'
loop_
_space_group_symop_operation_xyz
x,y,z
-y,x-y,z
-x+y,-x,z
x-y,-y,1/2-z
-x,-x+y,1/2-z
y,x,1/2-z
-x,-y,-z
y,-x+y,-z
x-y,x,-z
-x+y,y,1/2+z
x,x-y,1/2+z
-y,-x,1/2+z
2/3+x,1/3+y,1/3+z
2/3-y,1/3+x-y,1/3+z
2/3-x+y,1/3-x,1/3+z
2/3+x-y,1/3-y,5/6-z
2/3-x,1/3-x+y,5/6-z
2/3+y,1/3+x,5/6-z
2/3-x,1/3-y,1/3-z
2/3+y,1/3-x+y,1/3-z
2/3+x-y,1/3+x,1/3-z
2/3-x+y,1/3+y,5/6+z
2/3+x,1/3+x-y,5/6+z
2/3-y,1/3-x,5/6+z
1/3+x,2/3+y,2/3+z
1/3-y,2/3+x-y,2/3+z
1/3-x+y,2/3-x,2/3+z
1/3+x-y,2/3-y,1/6-z
1/3-x,2/3-x+y,1/6-z
1/3+y,2/3+x,1/6-z
1/3-x,2/3-y,2/3-z
1/3+y,2/3-x+y,2/3-z
1/3+x-y,2/3+x,2/3-z
1/3-x+y,2/3+y,1/6+z
1/3+x,2/3+x-y,1/6+z
1/3-y,2/3-x,1/6+z
loop_
_atom_site_type_symbol
_atom_site_label
_atom_site_fract_x
_atom_site_fract_y
_atom_site_fract_z
Si Si1 0.174391 0.025241 0.024924
Si Si2 0.703864 0.741044 0.678552
Si Si3 0.836353 0.088879 0.868856
Si Si4 0.269155 0.000000 0.250000
O O1 0.155819 0.988587 0.099177
O O2 0.272273 0.054009 0.007141
O O3 0.106682 0.946167 0.979195
O O4 0.739810 0.739810 0.750000
O O5 0.759210 0.829129 0.638676
O O6 0.719348 0.675288 0.636731
O O7 0.772441 0.105775 0.916667
O O8 0.810114 0.068389 0.792799
#
# Coordination Sequence:
#
# PCOD8324416 Si02
#       4
#    36  36  36  18
#     4  12  23  44  70  98 136 184 235 283 345 427
#     4  12  23  43  70 102 134 177 233 300 351 406
#     4  12  24  42  65 101 139 177 230 293 350 422
#     4  12  20  40  62  96 136 170 224 278 356 410
#
# _framework density 22.006038
#
# number of rings (size 3 to 8) (size 9 to 14) (size 15 to 20)
#    0.000    0.000   10.000    0.286    0.000    1.143 
#   10.286    0.000    0.000    0.000    0.000    0.000 
#    0.000    0.000    0.000    0.000    0.000    0.000 
#
# Total GULP energy -520373.096841 kJ/mol
# GULP energy per Si atom -12389.835639 kJ/mol
# Density = 2.195595 g / cm^3
# Si number density = 22.006038 Si / 1000 Ang^3
#
#
#
# Elastic Constant Matrix: (Units=GPa)
#
#
# Indices 1 2 3 4 5 6 
#
# 1 55.2485 20.7837 17.9733 12.1017 -0.0001 0.0000
# 2 20.7837 55.2485 17.9733 -12.1017 0.0001 0.0000
# 3 17.9733 17.9733 131.7492 0.0000 0.0000 0.0000
# 4 12.1017 -12.1017 0.0000 37.2368 0.0000 0.0001
# 5 -0.0001 0.0001 0.0000 0.0000 37.2368 12.1017
# 6 0.0000 0.0000 0.0000 0.0001 12.1017 17.2324
#
#
#
# Elastic Compliance Matrix: (Units=1/GPa)
#
#
# Indices 1 2 3 4 5 6 
#
# 1 0.025827 -0.011768 -0.001918 -0.012218 0.000000 0.000000
# 2 -0.011768 0.025827 -0.001918 0.012218 0.000000 0.000000
# 3 -0.001918 -0.001918 0.008113 0.000000 0.000000 0.000000
# 4 -0.012218 0.012218 0.000000 0.034797 0.000000 0.000000
# 5 0.000000 0.000000 0.000000 0.000000 0.034797 -0.024437
# 6 0.000000 0.000000 0.000000 0.000000 -0.024437 0.075191
#
#
# Mechanical properties :
#
#
# Convention : Reuss Voigt Hill
#
# Bulk Modulus (GPa) = 35.01418 39.52299 37.26859
# Shear Modulus (GPa) = 20.38477 30.70893 25.54685
#
# Velocity S-wave (km/s) = 3.04686 3.73966 3.41090
# Velocity P-wave (km/s) = 5.32199 6.05358 5.69953
#
# Compressibility (1/GPa) = 0.02855986
#
# Stress axis : x y z
#
# Youngs Moduli (GPa) = 38.71872 38.71872 123.25171
#
# Poissons Ratio (x) = 0.45565 0.23639
# Poissons Ratio (y) = 0.45565 0.23639
# Poissons Ratio (z) = 0.07426 0.07426
#
# Static dielectric constant tensor:
#      x y z
#    x 4.071580 0.000000 0.000000 
#    y 0.000000 4.071580 0.000000 
#    z 0.000000 0.000000 4.243730 
# 
# 
# High freq. dielectric constant tensor:
#      x y z
#    x 1.848500 0.000000 0.000000 
#    y 0.000000 1.848500 0.000000 
#    z 0.000000 0.000000 1.880770 
# 
# From -- ./inp_files/3038.got.cif
#   From: 2010.03.12/outbox.cif.g09.slc.cpg/sg167_2_cif.got.tgz:3038.got - 2010.04.02 06:42:56.
