data_PCOD8324143
_publ_section_title
;
Structure prediction by ZEFSAII (Michael W. Deem and Ramdas Pophale) SiO2 
 PCOD8324143
Probable space group: R -3 M
;
_chemical_formula_sum "Si O2"
_cell_formula_units_Z 216
_cell_length_a 22.512258
_cell_length_b 22.512258
_cell_length_c 25.214034
_cell_angle_alpha 90.000000
_cell_angle_beta 90.000000
_cell_angle_gamma 120.000000
_cell_volume 11066.520184
_symmetry_space_group_name_H-M "R -3 M"
_symmetry_group_IT_number 166
_symmetry_cell_setting 'hexagonal'
loop_
_space_group_symop_operation_xyz
x,y,z
-y,x-y,z
-x+y,-x,z
x-y,-y,-z
-x,-x+y,-z
y,x,-z
-x,-y,-z
y,-x+y,-z
x-y,x,-z
-x+y,y,z
x,x-y,z
-y,-x,z
2/3+x,1/3+y,1/3+z
2/3-y,1/3+x-y,1/3+z
2/3-x+y,1/3-x,1/3+z
2/3+x-y,1/3-y,1/3-z
2/3-x,1/3-x+y,1/3-z
2/3+y,1/3+x,1/3-z
2/3-x,1/3-y,1/3-z
2/3+y,1/3-x+y,1/3-z
2/3+x-y,1/3+x,1/3-z
2/3-x+y,1/3+y,1/3+z
2/3+x,1/3+x-y,1/3+z
2/3-y,1/3-x,1/3+z
1/3+x,2/3+y,2/3+z
1/3-y,2/3+x-y,2/3+z
1/3-x+y,2/3-x,2/3+z
1/3+x-y,2/3-y,2/3-z
1/3-x,2/3-x+y,2/3-z
1/3+y,2/3+x,2/3-z
1/3-x,2/3-y,2/3-z
1/3+y,2/3-x+y,2/3-z
1/3+x-y,2/3+x,2/3-z
1/3-x+y,2/3+y,2/3+z
1/3+x,2/3+x-y,2/3+z
1/3-y,2/3-x,2/3+z
loop_
_atom_site_type_symbol
_atom_site_label
_atom_site_fract_x
_atom_site_fract_y
_atom_site_fract_z
Si Si1 0.508401 0.819053 0.898963
Si Si2 0.538257 0.334284 0.214518
Si Si3 0.196135 0.251301 0.953395
Si Si4 0.971104 0.344093 0.558858
Si Si5 0.407157 0.951224 0.050509
Si Si6 0.133324 0.000767 0.651452
O O1 0.545480 0.772740 0.898507
O O2 0.458449 0.798933 0.848888
O O3 0.561683 0.898210 0.894535
O O4 0.463765 0.803695 0.951700
O O5 0.561778 0.280889 0.233427
O O6 0.591784 0.408217 0.238889
O O7 0.462224 0.308668 0.234947
O O8 0.131740 0.263479 0.967698
O O9 0.264383 0.320697 0.936681
O O10 0.213399 0.213399 0.000000
O O11 0.963558 0.270533 0.572528
O O12 0.000000 0.365946 0.500000
O O13 0.477636 0.955271 0.071162
O O14 0.349938 0.873330 0.037228
O O15 0.423969 0.000000 0.000000
O O16 0.115144 0.057572 0.630614
O O17 0.074454 0.925547 0.632004
#
# Coordination Sequence:
#
# PCOD8324143 Si02
#       6
#    36  36  36  36  36  36
#     4  10  20  33  54  84 117 153 194 241 293 346
#     4  10  20  35  54  79 112 152 197 243 292 342
#     4  11  24  40  59  84 118 156 201 249 293 344
#     4  12  23  40  59  86 117 155 201 243 290 346
#     4  10  21  39  61  85 117 154 192 236 297 366
#     4  10  20  36  61  91 122 153 193 244 301 363
#
# _framework density 19.518331
#
# number of rings (size 3 to 8) (size 9 to 14) (size 15 to 20)
#    0.000    1.500    3.333    2.333    0.000    1.333 
#    0.000    3.333    0.000    2.667    0.000    0.000 
#    0.000    3.333    0.000    0.000    0.000    0.000 
#
# Total GULP energy -892391.982371 kJ/mol
# GULP energy per Si atom -12394.333088 kJ/mol
# Density = 1.947391 g / cm^3
# Si number density = 19.518331 Si / 1000 Ang^3
#
#
#
# Elastic Constant Matrix: (Units=GPa)
#
#
# Indices 1 2 3 4 5 6 
#
# 1 113.3629 53.7310 21.4541 -1.9787 0.0000 0.0000
# 2 53.7310 113.3629 21.4541 1.9787 0.0000 0.0000
# 3 21.4541 21.4541 49.0435 0.0000 0.0000 0.0000
# 4 -1.9787 1.9787 0.0000 22.1071 0.0000 0.0000
# 5 0.0000 0.0000 0.0000 0.0000 22.1071 -1.9787
# 6 0.0000 0.0000 0.0000 0.0000 -1.9787 29.8160
#
#
#
# Elastic Compliance Matrix: (Units=1/GPa)
#
#
# Indices 1 2 3 4 5 6 
#
# 1 0.011806 -0.005064 -0.002949 0.001510 0.000000 0.000000
# 2 -0.005064 0.011806 -0.002949 -0.001510 0.000000 0.000000
# 3 -0.002949 -0.002949 0.022970 0.000000 0.000000 0.000000
# 4 0.001510 -0.001510 0.000000 0.045505 0.000000 0.000000
# 5 0.000000 0.000000 0.000000 0.000000 0.045505 0.003020
# 6 0.000000 0.000000 0.000000 0.000000 0.003020 0.033739
#
#
# Mechanical properties :
#
#
# Convention : Reuss Voigt Hill
#
# Bulk Modulus (GPa) = 40.55601 52.11640 46.33621
# Shear Modulus (GPa) = 24.81696 26.74803 25.78250
#
# Velocity S-wave (km/s) = 3.56964 3.70592 3.63841
# Velocity P-wave (km/s) = 6.14925 6.71349 6.43755
#
# Compressibility (1/GPa) = 0.02465726
#
# Stress axis : x y z
#
# Youngs Moduli (GPa) = 84.70361 84.70361 43.53425
#
# Poissons Ratio (x) = 0.42893 0.12840
# Poissons Ratio (y) = 0.42893 0.12840
# Poissons Ratio (z) = 0.24982 0.24982
#
# Static dielectric constant tensor:
#      x y z
#    x 3.589020 0.000000 0.000000 
#    y 0.000000 3.589020 0.000000 
#    z 0.000000 0.000000 3.374460 
# 
# 
# High freq. dielectric constant tensor:
#      x y z
#    x 1.765200 0.000000 0.000000 
#    y 0.000000 1.765200 0.000000 
#    z 0.000000 0.000000 1.731990 
# 
# From -- ./inp_files/8423.got.cif
#   From: 2010.03.12/outbox.cif.g09.slc.cpg/sg166_5_cif.got.tgz:8423.got - 2010.04.02 06:38:31.
