data_PCOD8324223
_publ_section_title
;
Structure prediction by ZEFSAII (Michael W. Deem and Ramdas Pophale) SiO2 
 PCOD8324223
Probable space group: R -3 M
;
_chemical_formula_sum "Si O2"
_cell_formula_units_Z 162
_cell_length_a 27.317868
_cell_length_b 27.317868
_cell_length_c 11.946441
_cell_angle_alpha 90.000000
_cell_angle_beta 90.000000
_cell_angle_gamma 120.000000
_cell_volume 7720.808463
_symmetry_space_group_name_H-M "R -3 M"
_symmetry_group_IT_number 166
_symmetry_cell_setting 'hexagonal'
loop_
_space_group_symop_operation_xyz
x,y,z
-y,x-y,z
-x+y,-x,z
x-y,-y,-z
-x,-x+y,-z
y,x,-z
-x,-y,-z
y,-x+y,-z
x-y,x,-z
-x+y,y,z
x,x-y,z
-y,-x,z
2/3+x,1/3+y,1/3+z
2/3-y,1/3+x-y,1/3+z
2/3-x+y,1/3-x,1/3+z
2/3+x-y,1/3-y,1/3-z
2/3-x,1/3-x+y,1/3-z
2/3+y,1/3+x,1/3-z
2/3-x,1/3-y,1/3-z
2/3+y,1/3-x+y,1/3-z
2/3+x-y,1/3+x,1/3-z
2/3-x+y,1/3+y,1/3+z
2/3+x,1/3+x-y,1/3+z
2/3-y,1/3-x,1/3+z
1/3+x,2/3+y,2/3+z
1/3-y,2/3+x-y,2/3+z
1/3-x+y,2/3-x,2/3+z
1/3+x-y,2/3-y,2/3-z
1/3-x,2/3-x+y,2/3-z
1/3+y,2/3+x,2/3-z
1/3-x,2/3-y,2/3-z
1/3+y,2/3-x+y,2/3-z
1/3+x-y,2/3+x,2/3-z
1/3-x+y,2/3+y,2/3+z
1/3+x,2/3+x-y,2/3+z
1/3-y,2/3-x,2/3+z
loop_
_atom_site_type_symbol
_atom_site_label
_atom_site_fract_x
_atom_site_fract_y
_atom_site_fract_z
Si Si1 0.445469 0.666237 0.294188
Si Si2 0.084196 0.710770 0.069344
Si Si3 0.666667 0.581552 0.333334
Si Si4 0.669176 0.131051 0.556941
Si Si5 0.858305 0.141696 0.506964
Si Si6 0.461952 0.538049 0.919261
O O1 0.454331 0.727166 0.328872
O O2 0.379267 0.620733 0.302709
O O3 0.466342 0.666667 0.166667
O O4 0.478695 0.647149 0.379614
O O5 0.050532 0.666667 0.166667
O O6 0.149043 0.754897 0.100307
O O7 0.051905 0.744380 0.040736
O O8 0.085649 0.675404 0.963517
O O9 0.642921 0.535091 0.433967
O O10 0.734848 0.169979 0.530075
O O11 0.828043 0.171958 0.562481
O O12 0.879345 0.120656 0.614148
#
# Coordination Sequence:
#
# PCOD8324223 Si02
#       6
#    36  36  18  36  18  18
#     4  10  22  41  70 102 131 159 202 268 333 386
#     4  12  24  42  69  95 127 164 219 274 326 383
#     4  12  28  44  58  89 131 182 216 260 310 374
#     4  12  24  43  65  93 131 173 220 256 319 387
#     4  11  24  40  66 101 127 158 217 285 330 368
#     4  11  22  42  65  96 125 169 217 273 317 386
#
# _framework density 20.982257000000001
#
# number of rings (size 3 to 8) (size 9 to 14) (size 15 to 20)
#    0.000    0.667    5.556    2.889    1.556    0.889 
#    4.000    1.111    0.000    0.000    0.000    1.556 
#    0.000    0.000    0.000    0.000    0.000    0.000 
#
# Total GULP energy -669663.371924 kJ/mol
# GULP energy per Si atom -12401.173554 kJ/mol
# Density = 2.093450 g / cm^3
# Si number density = 20.982257 Si / 1000 Ang^3
#
#
#
# Elastic Constant Matrix: (Units=GPa)
#
#
# Indices 1 2 3 4 5 6 
#
# 1 89.5786 24.7902 47.5188 -1.3359 0.0024 -0.0008
# 2 24.7902 89.5760 47.5114 1.3345 0.0011 -0.0001
# 3 47.5188 47.5114 150.8389 -0.0072 0.0144 -0.0035
# 4 -1.3359 1.3345 -0.0072 22.2106 -0.0027 0.0007
# 5 0.0024 0.0011 0.0144 -0.0027 22.2149 -1.3354
# 6 -0.0008 -0.0001 -0.0035 0.0007 -1.3354 32.3936
#
#
#
# Elastic Compliance Matrix: (Units=1/GPa)
#
#
# Indices 1 2 3 4 5 6 
#
# 1 0.013659 -0.001815 -0.003731 0.000929 0.000001 0.000000
# 2 -0.001815 0.013658 -0.003730 -0.000931 0.000002 0.000000
# 3 -0.003731 -0.003730 0.008980 0.000003 -0.000005 0.000001
# 4 0.000929 -0.000931 0.000003 0.045135 0.000005 -0.000001
# 5 0.000001 0.000002 -0.000005 0.000005 0.045127 0.001860
# 6 0.000000 0.000000 0.000001 -0.000001 0.001860 0.030947
#
#
# Mechanical properties :
#
#
# Convention : Reuss Voigt Hill
#
# Bulk Modulus (GPa) = 56.35644 63.29273 59.82458
# Shear Modulus (GPa) = 27.47643 29.37537 28.42590
#
# Velocity S-wave (km/s) = 3.62264 3.74573 3.68470
# Velocity P-wave (km/s) = 6.66449 6.99555 6.83202
#
# Compressibility (1/GPa) = 0.01774420
#
# Stress axis : x y z
#
# Youngs Moduli (GPa) = 73.21287 73.21450 111.35760
#
# Poissons Ratio (x) = 0.13287 0.41550
# Poissons Ratio (y) = 0.13287 0.41542
# Poissons Ratio (z) = 0.27318 0.27313
#
# Static dielectric constant tensor:
#      x y z
#    x 3.745180 0.000000 -0.000010 
#    y 0.000000 3.745180 -0.000010 
#    z -0.000010 -0.000010 3.850810 
# 
# 
# High freq. dielectric constant tensor:
#      x y z
#    x 1.823260 0.000000 0.000000 
#    y 0.000000 1.823260 0.000000 
#    z 0.000000 0.000000 1.811780 
# 
# From -- ./inp_files/3150.got.cif
#   From: 2010.03.12/outbox.cif.g09.slc.cpg/sg166_2_cif.got.tgz:3150.got - 2010.04.02 06:38:31.
