data_PCOD8324808
_publ_section_title
;
Structure prediction by ZEFSAII (Michael W. Deem and Ramdas Pophale) SiO2 
 PCOD8324808
Probable space group: P 62
;
_chemical_formula_sum "Si O2"
_cell_formula_units_Z 27
_cell_length_a 15.888087
_cell_length_b 15.888087
_cell_length_c 6.330674
_cell_angle_alpha 90.000000
_cell_angle_beta 90.000000
_cell_angle_gamma 120.000000
_cell_volume 1383.960835
_symmetry_space_group_name_H-M "P 62"
_symmetry_group_IT_number 171
_symmetry_cell_setting 'hexagonal'
loop_
_space_group_symop_operation_xyz
x,y,z
x-y,x,1/3+z
-y,x-y,2/3+z
-x,-y,z
-x+y,-x,1/3+z
y,-x+y,2/3+z
loop_
_atom_site_type_symbol
_atom_site_label
_atom_site_fract_x
_atom_site_fract_y
_atom_site_fract_z
Si Si1 0.856973 0.488477 0.098260
Si Si2 0.278910 0.471724 0.861921
Si Si3 0.500000 0.500000 0.432562
Si Si4 0.300629 0.362449 0.216548
Si Si5 0.762698 0.147743 0.798850
O O1 0.852769 0.389614 0.145161
O O2 0.883082 0.554186 0.307770
O O3 0.753124 0.470941 0.022128
O O4 0.935944 0.531902 0.909952
O O5 0.213264 0.449759 0.656679
O O6 0.271440 0.378316 0.980381
O O7 0.401428 0.460196 0.291065
O O8 0.305087 0.262911 0.220757
O O9 0.207751 0.339607 0.360604
#
# Coordination Sequence:
#
# PCOD8324808 Si02
#       5
#     6   6   3   6   6
#     4  11  24  35  59  88 127 169 208 256 306 375
#     4  11  24  38  60  88 126 168 216 260 307 376
#     4  12  20  40  62  90 134 168 208 258 324 386
#     4  11  24  40  63  90 125 169 212 269 317 389
#     4  11  24  42  61  91 124 168 219 263 324 378
#
# _framework density 19.509222000000001
#
# number of rings (size 3 to 8) (size 9 to 14) (size 15 to 20)
#    0.000    0.889    4.444    2.667    3.111    0.000 
#    0.000    0.000    0.000    0.000    0.000    7.778 
#    0.000    0.000    0.000    0.000    0.000    0.000 
#
# Total GULP energy -334568.444468 kJ/mol
# GULP energy per Si atom -12391.423869 kJ/mol
# Density = 1.946482 g / cm^3
# Si number density = 19.509222 Si / 1000 Ang^3
#
#
#
# Elastic Constant Matrix: (Units=GPa)
#
#
# Indices 1 2 3 4 5 6 
#
# 1 87.8067 45.4661 29.4746 0.0000 0.0000 0.0000
# 2 45.4661 87.8067 29.4746 0.0000 0.0000 0.0000
# 3 29.4746 29.4746 89.4368 0.0000 0.0000 0.0000
# 4 0.0000 0.0000 0.0000 29.0829 0.0000 0.0000
# 5 0.0000 0.0000 0.0000 0.0000 29.0829 0.0000
# 6 0.0000 0.0000 0.0000 0.0000 0.0000 21.1703
#
#
#
# Elastic Compliance Matrix: (Units=1/GPa)
#
#
# Indices 1 2 3 4 5 6 
#
# 1 0.016201 -0.007417 -0.002895 0.000000 0.000000 0.000000
# 2 -0.007417 0.016201 -0.002895 0.000000 0.000000 0.000000
# 3 -0.002895 -0.002895 0.013089 0.000000 0.000000 0.000000
# 4 0.000000 0.000000 0.000000 0.034384 0.000000 0.000000
# 5 0.000000 0.000000 0.000000 0.000000 0.034384 0.000000
# 6 0.000000 0.000000 0.000000 0.000000 0.000000 0.047236
#
#
# Mechanical properties :
#
#
# Convention : Reuss Voigt Hill
#
# Bulk Modulus (GPa) = 52.41745 52.65341 52.53543
# Shear Modulus (GPa) = 25.73760 26.57622 26.15691
#
# Velocity S-wave (km/s) = 3.63609 3.69486 3.66559
# Velocity P-wave (km/s) = 6.67492 6.72683 6.70092
#
# Compressibility (1/GPa) = 0.01907762
#
# Stress axis : x y z
#
# Youngs Moduli (GPa) = 61.72487 61.72487 76.39962
#
# Poissons Ratio (x) = 0.45782 0.22116
# Poissons Ratio (y) = 0.45782 0.22116
# Poissons Ratio (z) = 0.17868 0.17868
#
# Static dielectric constant tensor:
#      x y z
#    x 3.565000 0.000000 0.000000 
#    y 0.000000 3.565000 0.000000 
#    z 0.000000 0.000000 4.021230 
# 
# 
# High freq. dielectric constant tensor:
#      x y z
#    x 1.740450 0.000000 0.000000 
#    y 0.000000 1.740450 0.000000 
#    z 0.000000 0.000000 1.786710 
# 
# From -- ./inp_files/608.got.cif
#   From: 2010.03.12/outbox.cif.g09.slc.cpg/sg171_1_cif.got.tgz:608.got - 2010.04.02 06:49:11.
