data_PCOD8324488
_publ_section_title
;
Structure prediction by ZEFSAII (Michael W. Deem and Ramdas Pophale) SiO2 
 PCOD8324488
Probable space group: P 61
;
_chemical_formula_sum "Si O2"
_cell_formula_units_Z 30
_cell_length_a 12.322934
_cell_length_b 12.322934
_cell_length_c 12.440429
_cell_angle_alpha 90.000000
_cell_angle_beta 90.000000
_cell_angle_gamma 120.000000
_cell_volume 1636.041190
_symmetry_space_group_name_H-M "P 61"
_symmetry_group_IT_number 169
_symmetry_cell_setting 'hexagonal'
loop_
_space_group_symop_operation_xyz
x,y,z
x-y,x,1/6+z
-y,x-y,1/3+z
-x,-y,1/2+z
-x+y,-x,2/3+z
y,-x+y,5/6+z
loop_
_atom_site_type_symbol
_atom_site_label
_atom_site_fract_x
_atom_site_fract_y
_atom_site_fract_z
Si Si1 0.390341 0.613077 0.717910
Si Si2 0.861997 0.419307 0.652126
Si Si3 0.436812 0.326885 0.563038
Si Si4 0.017974 0.398828 0.967446
Si Si5 0.076882 0.872428 0.427150
O O1 0.460302 0.748236 0.774951
O O2 0.452370 0.627627 0.600231
O O3 0.241183 0.560602 0.699644
O O4 0.409937 0.517184 0.793027
O O5 0.888935 0.523929 0.563596
O O6 0.991361 0.418764 0.662922
O O7 0.445575 0.352716 0.689834
O O8 0.313707 0.196834 0.532497
O O9 0.985657 0.257895 0.992025
O O10 0.985308 0.877009 0.339596
#
# Coordination Sequence:
#
# PCOD8324488 Si02
#       5
#     6   6   6   6   6
#     4  10  20  34  54  79 108 140 174 217 266 315
#     4  11  20  33  55  81 106 134 174 221 263 308
#     4   9  19  35  54  75 105 142 172 203 260 326
#     4   9  19  33  51  76 106 138 171 209 260 318
#     4   9  18  35  54  71  95 134 173 204 245 307
#
# _framework density 18.336946999999999
#
# number of rings (size 3 to 8) (size 9 to 14) (size 15 to 20)
#    0.000    2.400    0.000    3.600    0.000    3.200 
#    0.000    2.000    0.000    0.000    0.000    0.000 
#    0.000    0.000    0.000    0.000    0.000    0.000 
#
# Total GULP energy -371900.693568 kJ/mol
# GULP energy per Si atom -12396.689786 kJ/mol
# Density = 1.829521 g / cm^3
# Si number density = 18.336947 Si / 1000 Ang^3
#
#
#
# Elastic Constant Matrix: (Units=GPa)
#
#
# Indices 1 2 3 4 5 6 
#
# 1 73.7599 18.7020 29.7342 0.0000 0.0000 0.0000
# 2 18.7020 73.7599 29.7342 0.0000 0.0000 0.0000
# 3 29.7342 29.7342 77.8198 0.0000 0.0000 0.0000
# 4 0.0000 0.0000 0.0000 29.8978 0.0000 0.0000
# 5 0.0000 0.0000 0.0000 0.0000 29.8978 0.0000
# 6 0.0000 0.0000 0.0000 0.0000 0.0000 27.5290
#
#
#
# Elastic Compliance Matrix: (Units=1/GPa)
#
#
# Indices 1 2 3 4 5 6 
#
# 1 0.016251 -0.001912 -0.005479 0.000000 0.000000 0.000000
# 2 -0.001912 0.016251 -0.005479 0.000000 0.000000 0.000000
# 3 -0.005479 -0.005479 0.017037 0.000000 0.000000 0.000000
# 4 0.000000 0.000000 0.000000 0.033447 0.000000 0.000000
# 5 0.000000 0.000000 0.000000 0.000000 0.033447 0.000000
# 6 0.000000 0.000000 0.000000 0.000000 0.000000 0.036325
#
#
# Mechanical properties :
#
#
# Convention : Reuss Voigt Hill
#
# Bulk Modulus (GPa) = 42.01707 42.40894 42.21301
# Shear Modulus (GPa) = 26.81960 27.27621 27.04790
#
# Velocity S-wave (km/s) = 3.82854 3.86100 3.84480
# Velocity P-wave (km/s) = 6.51976 6.56157 6.54070
#
# Compressibility (1/GPa) = 0.02379985
#
# Stress axis : x y z
#
# Youngs Moduli (GPa) = 61.53515 61.53515 58.69570
#
# Poissons Ratio (x) = 0.11764 0.32158
# Poissons Ratio (y) = 0.11764 0.32158
# Poissons Ratio (z) = 0.33714 0.33714
#
# Static dielectric constant tensor:
#      x y z
#    x 3.398050 0.000000 0.000000 
#    y 0.000000 3.398050 0.000000 
#    z 0.000000 0.000000 3.284580 
# 
# 
# High freq. dielectric constant tensor:
#      x y z
#    x 1.704680 0.000000 0.000000 
#    y 0.000000 1.704680 0.000000 
#    z 0.000000 0.000000 1.707690 
# 
# From -- ./inp_files/879.got.cif
#   From: 2010.03.12/outbox.cif.g09.slc.cpg/sg169_cif.got.tgz:879.got - 2010.04.02 06:46:06.
