data_PCOD8324361
_publ_section_title
;
Structure prediction by ZEFSAII (Michael W. Deem and Ramdas Pophale) SiO2 
 PCOD8324361
Probable space group: R -3 C 
;
_chemical_formula_sum "Si O2"
_cell_formula_units_Z 204
_cell_length_a 20.837671
_cell_length_b 20.837671
_cell_length_c 26.150155
_cell_angle_alpha 90.000000
_cell_angle_beta 90.000000
_cell_angle_gamma 120.000000
_cell_volume 9833.389745
_symmetry_space_group_name_H-M "R -3 C "
_symmetry_group_IT_number 167
_symmetry_cell_setting 'hexagonal'
loop_
_space_group_symop_operation_xyz
x,y,z
-y,x-y,z
-x+y,-x,z
x-y,-y,1/2-z
-x,-x+y,1/2-z
y,x,1/2-z
-x,-y,-z
y,-x+y,-z
x-y,x,-z
-x+y,y,1/2+z
x,x-y,1/2+z
-y,-x,1/2+z
2/3+x,1/3+y,1/3+z
2/3-y,1/3+x-y,1/3+z
2/3-x+y,1/3-x,1/3+z
2/3+x-y,1/3-y,5/6-z
2/3-x,1/3-x+y,5/6-z
2/3+y,1/3+x,5/6-z
2/3-x,1/3-y,1/3-z
2/3+y,1/3-x+y,1/3-z
2/3+x-y,1/3+x,1/3-z
2/3-x+y,1/3+y,5/6+z
2/3+x,1/3+x-y,5/6+z
2/3-y,1/3-x,5/6+z
1/3+x,2/3+y,2/3+z
1/3-y,2/3+x-y,2/3+z
1/3-x+y,2/3-x,2/3+z
1/3+x-y,2/3-y,1/6-z
1/3-x,2/3-x+y,1/6-z
1/3+y,2/3+x,1/6-z
1/3-x,2/3-y,2/3-z
1/3+y,2/3-x+y,2/3-z
1/3+x-y,2/3+x,2/3-z
1/3-x+y,2/3+y,1/6+z
1/3+x,2/3+x-y,1/6+z
1/3-y,2/3-x,1/6+z
loop_
_atom_site_type_symbol
_atom_site_label
_atom_site_fract_x
_atom_site_fract_y
_atom_site_fract_z
Si Si1 0.065182 0.802509 0.360501
Si Si2 0.778151 0.110850 0.243405
Si Si3 0.390605 0.390605 0.250000
Si Si4 0.799180 0.370728 0.206237
Si Si5 0.000000 0.000000 0.691666
Si Si6 0.436989 0.938819 0.838278
Si Si7 0.666668 0.333334 0.392685
Si Si8 0.614020 0.947353 0.416667
O O1 0.063130 0.795750 0.298248
O O2 0.145088 0.862001 0.381941
O O3 0.035434 0.721254 0.384015
O O4 0.011863 0.830003 0.382040
O O5 0.690597 0.072695 0.253567
O O6 0.818121 0.119838 0.298380
O O7 0.437716 0.436932 0.200475
O O8 0.741520 0.336043 0.159756
O O9 0.864488 0.452907 0.193880
O O10 0.752055 0.371019 0.255220
O O11 0.000000 0.000000 0.750000
O O12 0.375612 0.919523 0.880599
O O13 0.666668 0.333335 0.333334
#
# Coordination Sequence:
#
# PCOD8324361 Si02
#       8
#    36  36  18  36  12  36  12  18
#     4  10  21  42  72  97 134 173 221 277 347 411
#     4  10  23  41  68  98 137 177 216 278 354 400
#     4  12  24  45  64  98 145 170 236 286 332 428
#     4  10  24  43  68  96 130 171 230 272 328 409
#     4  10  26  37  64 104 130 166 221 283 328 398
#     4  11  25  41  68  99 134 178 218 289 332 410
#     4  10  26  52  64  92 136 181 227 274 331 410
#     4  10  22  43  68 102 135 168 218 286 348 406
#
# _framework density 20.745645
#
# number of rings (size 3 to 8) (size 9 to 14) (size 15 to 20)
#    0.000    1.765    1.765    1.059    8.647    0.706 
#    9.529    0.000    0.000    0.000    0.000    0.000 
#    0.000    0.000    0.000    0.000    0.000    0.000 
#
# Total GULP energy -843079.305936 kJ/mol
# GULP energy per Si atom -12398.225087 kJ/mol
# Density = 2.069843 g / cm^3
# Si number density = 20.745645 Si / 1000 Ang^3
#
#
#
# Elastic Constant Matrix: (Units=GPa)
#
#
# Indices 1 2 3 4 5 6 
#
# 1 100.6825 40.7252 45.0187 -1.1230 0.0004 0.0000
# 2 40.7252 100.6832 45.0185 1.1234 -0.0004 0.0000
# 3 45.0187 45.0185 160.8320 0.0001 0.0000 0.0000
# 4 -1.1230 1.1234 0.0001 18.9579 0.0000 -0.0004
# 5 0.0004 -0.0004 0.0000 0.0000 18.9576 -1.1229
# 6 0.0000 0.0000 0.0000 -0.0004 -1.1229 29.9785
#
#
#
# Elastic Compliance Matrix: (Units=1/GPa)
#
#
# Indices 1 2 3 4 5 6 
#
# 1 0.012661 -0.004055 -0.002409 0.000990 0.000000 0.000000
# 2 -0.004055 0.012660 -0.002409 -0.000990 0.000000 0.000000
# 3 -0.002409 -0.002409 0.007566 0.000000 0.000000 0.000000
# 4 0.000990 -0.000990 0.000000 0.052866 0.000000 0.000001
# 5 0.000000 0.000000 0.000000 0.000000 0.052867 0.001980
# 6 0.000000 0.000000 0.000000 0.000001 0.001980 0.033431
#
#
# Mechanical properties :
#
#
# Convention : Reuss Voigt Hill
#
# Bulk Modulus (GPa) = 66.04150 69.30251 67.67201
# Shear Modulus (GPa) = 25.66166 29.00783 27.33474
#
# Velocity S-wave (km/s) = 3.52087 3.74339 3.63383
# Velocity P-wave (km/s) = 6.95929 7.22235 7.09204
#
# Compressibility (1/GPa) = 0.01514199
#
# Stress axis : x y z
#
# Youngs Moduli (GPa) = 78.98553 78.98622 132.16776
#
# Poissons Ratio (x) = 0.32029 0.31836
# Poissons Ratio (y) = 0.32029 0.31836
# Poissons Ratio (z) = 0.19026 0.19026
#
# Static dielectric constant tensor:
#      x y z
#    x 3.818730 0.000000 0.000000 
#    y 0.000000 3.818720 0.000000 
#    z 0.000000 0.000000 3.873030 
# 
# 
# High freq. dielectric constant tensor:
#      x y z
#    x 1.812860 0.000000 0.000000 
#    y 0.000000 1.812860 0.000000 
#    z 0.000000 0.000000 1.811230 
# 
# From -- ./inp_files/6327.got.cif
#   From: 2010.03.12/outbox.cif.g09.slc.cpg/sg167_4_cif.got.tgz:6327.got - 2010.04.02 06:42:56.
