data_PCOD8324049
_publ_section_title
;
Structure prediction by ZEFSAII (Michael W. Deem and Ramdas Pophale) SiO2 
 PCOD8324049
Probable space group: R -3 M
;
_chemical_formula_sum "Si O2"
_cell_formula_units_Z 216
_cell_length_a 22.246354
_cell_length_b 22.246354
_cell_length_c 31.492036
_cell_angle_alpha 90.000000
_cell_angle_beta 90.000000
_cell_angle_gamma 120.000000
_cell_volume 13497.367053
_symmetry_space_group_name_H-M "R -3 M"
_symmetry_group_IT_number 166
_symmetry_cell_setting 'hexagonal'
loop_
_space_group_symop_operation_xyz
x,y,z
-y,x-y,z
-x+y,-x,z
x-y,-y,-z
-x,-x+y,-z
y,x,-z
-x,-y,-z
y,-x+y,-z
x-y,x,-z
-x+y,y,z
x,x-y,z
-y,-x,z
2/3+x,1/3+y,1/3+z
2/3-y,1/3+x-y,1/3+z
2/3-x+y,1/3-x,1/3+z
2/3+x-y,1/3-y,1/3-z
2/3-x,1/3-x+y,1/3-z
2/3+y,1/3+x,1/3-z
2/3-x,1/3-y,1/3-z
2/3+y,1/3-x+y,1/3-z
2/3+x-y,1/3+x,1/3-z
2/3-x+y,1/3+y,1/3+z
2/3+x,1/3+x-y,1/3+z
2/3-y,1/3-x,1/3+z
1/3+x,2/3+y,2/3+z
1/3-y,2/3+x-y,2/3+z
1/3-x+y,2/3-x,2/3+z
1/3+x-y,2/3-y,2/3-z
1/3-x,2/3-x+y,2/3-z
1/3+y,2/3+x,2/3-z
1/3-x,2/3-y,2/3-z
1/3+y,2/3-x+y,2/3-z
1/3+x-y,2/3+x,2/3-z
1/3-x+y,2/3+y,2/3+z
1/3+x,2/3+x-y,2/3+z
1/3-y,2/3-x,2/3+z
loop_
_atom_site_type_symbol
_atom_site_label
_atom_site_fract_x
_atom_site_fract_y
_atom_site_fract_z
Si Si1 0.724533 0.931836 0.147047
Si Si2 0.965342 0.412417 0.647866
Si Si3 0.438969 0.008522 0.899643
Si Si4 0.137019 0.135303 0.189073
Si Si5 0.963960 0.661309 0.397837
Si Si6 0.139249 0.503937 0.943737
O O1 0.730466 0.865233 0.135409
O O2 0.665383 0.912359 0.182774
O O3 0.796903 0.993015 0.165321
O O4 0.708515 0.959221 0.104644
O O5 0.979489 0.489745 0.637336
O O6 0.882659 0.356591 0.644800
O O7 0.005301 0.388249 0.615464
O O8 0.994479 0.413115 0.694627
O O9 0.522959 0.045917 0.905830
O O10 0.405994 0.933292 0.919958
O O11 0.406173 0.049243 0.923165
O O12 0.062150 0.124299 0.177957
O O13 0.148064 0.138697 0.239978
O O14 0.142187 0.071094 0.170828
O O15 0.154343 0.577172 0.965486
#
# Coordination Sequence:
#
# PCOD8324049 Si02
#       6
#    36  36  36  36  36  36
#     4   9  17  29  44  62  86 113 141 177 218 257
#     4  10  20  31  43  62  87 114 148 183 207 242
#     4   8  15  28  45  65  84 102 131 169 209 257
#     4   9  16  26  42  63  86 112 142 176 213 254
#     4  10  19  30  45  62  84 116 146 176 217 253
#     4   8  15  28  44  62  85 110 133 163 207 255
#
# _framework density 16.003121
#
# number of rings (size 3 to 8) (size 9 to 14) (size 15 to 20)
#    0.000    3.000    0.000    3.667    0.000    1.333 
#    0.000    3.333    0.000    6.333    0.000    0.000 
#    0.000    0.000    0.000   20.667    0.000   22.833 
#
# Total GULP energy -892103.672379 kJ/mol
# GULP energy per Si atom -12390.328783 kJ/mol
# Density = 1.596670 g / cm^3
# Si number density = 16.003121 Si / 1000 Ang^3
#
#
#
# Elastic Constant Matrix: (Units=GPa)
#
#
# Indices 1 2 3 4 5 6 
#
# 1 60.8055 34.6181 28.4628 -1.3898 0.0000 0.0000
# 2 34.6181 60.8055 28.4628 1.3898 0.0000 0.0000
# 3 28.4628 28.4628 59.0047 0.0000 0.0000 0.0000
# 4 -1.3898 1.3898 0.0000 19.0112 0.0000 0.0000
# 5 0.0000 0.0000 0.0000 0.0000 19.0112 -1.3898
# 6 0.0000 0.0000 0.0000 0.0000 -1.3898 13.0937
#
#
#
# Elastic Compliance Matrix: (Units=1/GPa)
#
#
# Indices 1 2 3 4 5 6 
#
# 1 0.026599 -0.011886 -0.007098 0.002813 0.000000 0.000000
# 2 -0.011886 0.026599 -0.007098 -0.002813 0.000000 0.000000
# 3 -0.007098 -0.007098 0.023795 0.000000 0.000000 0.000000
# 4 0.002813 -0.002813 0.000000 0.053012 0.000000 0.000000
# 5 0.000000 0.000000 0.000000 0.000000 0.053012 0.005627
# 6 0.000000 0.000000 0.000000 0.000000 0.005627 0.076970
#
#
# Mechanical properties :
#
#
# Convention : Reuss Voigt Hill
#
# Bulk Modulus (GPa) = 40.27019 40.41145 40.34082
# Shear Modulus (GPa) = 15.60419 16.16136 15.88278
#
# Velocity S-wave (km/s) = 3.12600 3.18132 3.15378
# Velocity P-wave (km/s) = 6.18448 6.22908 6.20682
#
# Compressibility (1/GPa) = 0.02483226
#
# Stress axis : x y z
#
# Youngs Moduli (GPa) = 37.59495 37.59495 42.02511
#
# Poissons Ratio (x) = 0.44684 0.29828
# Poissons Ratio (y) = 0.44684 0.29828
# Poissons Ratio (z) = 0.26683 0.26683
#
# Static dielectric constant tensor:
#      x y z
#    x 3.052260 0.000000 0.000000 
#    y 0.000000 3.052260 0.000000 
#    z 0.000000 0.000000 2.909490 
# 
# 
# High freq. dielectric constant tensor:
#      x y z
#    x 1.601900 0.000000 0.000000 
#    y 0.000000 1.601900 0.000000 
#    z 0.000000 0.000000 1.600080 
# 
# From -- ./inp_files/9705.got.cif
#   From: 2010.03.12/outbox.cif.g09.slc.cpg/sg166_5_cif.got.tgz:9705.got - 2010.04.02 06:38:31.
