data_PCOD8324983
_publ_section_title
;
Structure prediction by ZEFSAII (Michael W. Deem and Ramdas Pophale) SiO2 
 PCOD8324983
Probable space group: P -6
;
_chemical_formula_sum "Si O2"
_cell_formula_units_Z 26
_cell_length_a 8.485102
_cell_length_b 8.485102
_cell_length_c 19.836534
_cell_angle_alpha 90.000000
_cell_angle_beta 90.000000
_cell_angle_gamma 120.000000
_cell_volume 1236.831557
_symmetry_space_group_name_H-M "P -6"
_symmetry_group_IT_number 174
_symmetry_cell_setting 'hexagonal'
loop_
_space_group_symop_operation_xyz
x,y,z
-x+y,-x,-z
-y,x-y,z
x,y,-z
-x+y,-x,z
-y,x-y,-z
loop_
_atom_site_type_symbol
_atom_site_label
_atom_site_fract_x
_atom_site_fract_y
_atom_site_fract_z
Si Si1 0.330601 0.293407 0.780945
Si Si2 0.036371 0.369899 0.169843
Si Si3 0.975869 0.669235 0.371024
Si Si4 0.646300 0.663919 0.423069
Si Si5 0.333333 0.666667 0.920556
O O1 0.138514 0.281125 0.792064
O O2 0.484348 0.502894 0.785707
O O3 0.337115 0.236634 0.704350
O O4 0.362807 0.168595 0.836433
O O5 0.152418 0.478651 0.103194
O O6 0.807564 0.616075 0.420973
O O7 0.141349 0.867537 0.387659
O O8 0.046541 0.527767 0.381564
O O9 0.589614 0.668862 0.500000
O O10 0.333334 0.666668 0.000000
#
# Coordination Sequence:
#
# PCOD8324983 Si02
#       5
#     6   6   6   6   2
#     4  11  20  38  58  93 121 158 202 252 316 359
#     4  10  22  37  64  93 131 158 196 253 294 353
#     4  12  24  39  61  81 114 157 203 259 316 381
#     4  12  25  41  56  81 113 157 208 262 318 378
#     4   9  21  45  69  96 129 168 199 230 286 357
#
# _framework density 21.021455
#
# number of rings (size 3 to 8) (size 9 to 14) (size 15 to 20)
#    0.000    0.923    0.000    9.000    0.000    0.000 
#    0.000    4.615    0.000    0.000    0.000    0.000 
#    0.000    0.000    0.000    0.000    0.000    0.000 
#
# Total GULP energy -322316.602788 kJ/mol
# GULP energy per Si atom -12396.792415 kJ/mol
# Density = 2.097361 g / cm^3
# Si number density = 21.021455 Si / 1000 Ang^3
#
#
#
# Elastic Constant Matrix: (Units=GPa)
#
#
# Indices 1 2 3 4 5 6 
#
# 1 98.3793 17.5552 41.0654 0.0000 0.0000 0.0000
# 2 17.5552 98.3792 41.0652 0.0000 0.0000 -0.0001
# 3 41.0654 41.0652 124.8312 0.0000 0.0000 0.0000
# 4 0.0000 0.0000 0.0000 21.2181 -0.0001 0.0000
# 5 0.0000 0.0000 0.0000 -0.0001 21.2181 0.0000
# 6 0.0000 -0.0001 0.0000 0.0000 0.0000 40.4121
#
#
#
# Elastic Compliance Matrix: (Units=1/GPa)
#
#
# Indices 1 2 3 4 5 6 
#
# 1 0.011810 -0.000563 -0.003700 0.000000 0.000000 0.000000
# 2 -0.000563 0.011810 -0.003700 0.000000 0.000000 0.000000
# 3 -0.003700 -0.003700 0.010445 0.000000 0.000000 0.000000
# 4 0.000000 0.000000 0.000000 0.047130 0.000000 0.000000
# 5 0.000000 0.000000 0.000000 0.000000 0.047130 0.000000
# 6 0.000000 0.000000 0.000000 0.000000 0.000000 0.024745
#
#
# Mechanical properties :
#
#
# Convention : Reuss Voigt Hill
#
# Bulk Modulus (GPa) = 55.12943 57.88459 56.50701
# Shear Modulus (GPa) = 28.56496 31.36325 29.96411
#
# Velocity S-wave (km/s) = 3.69025 3.86679 3.77955
# Velocity P-wave (km/s) = 6.66630 6.89433 6.78127
#
# Compressibility (1/GPa) = 0.01813913
#
# Stress axis : x y z
#
# Youngs Moduli (GPa) = 84.67730 84.67726 95.73960
#
# Poissons Ratio (x) = 0.04767 0.35421
# Poissons Ratio (y) = 0.04767 0.35421
# Poissons Ratio (z) = 0.31328 0.31328
#
# Static dielectric constant tensor:
#      x y z
#    x 3.921080 0.000000 0.000000 
#    y 0.000000 3.921080 0.000000 
#    z 0.000000 0.000000 3.385950 
# 
# 
# High freq. dielectric constant tensor:
#      x y z
#    x 1.839920 0.000000 0.000000 
#    y 0.000000 1.839920 0.000000 
#    z 0.000000 0.000000 1.780110 
# 
# From -- ./inp_files/1035.got.cif
#   From: 2010.03.12/outbox.cif.g09.slc.cpg/sg174_cif.got.tgz:1035.got - 2010.04.02 06:54:58.
