data_PCOD8324003
_publ_section_title
;
Structure prediction by ZEFSAII (Michael W. Deem and Ramdas Pophale) SiO2 
 PCOD8324003
Probable space group: R -3 M
;
_chemical_formula_sum "Si O2"
_cell_formula_units_Z 144
_cell_length_a 21.832644
_cell_length_b 21.832644
_cell_length_c 23.655759
_cell_angle_alpha 90.000000
_cell_angle_beta 90.000000
_cell_angle_gamma 120.000000
_cell_volume 9765.178478
_symmetry_space_group_name_H-M "R -3 M"
_symmetry_group_IT_number 166
_symmetry_cell_setting 'hexagonal'
loop_
_space_group_symop_operation_xyz
x,y,z
-y,x-y,z
-x+y,-x,z
x-y,-y,-z
-x,-x+y,-z
y,x,-z
-x,-y,-z
y,-x+y,-z
x-y,x,-z
-x+y,y,z
x,x-y,z
-y,-x,z
2/3+x,1/3+y,1/3+z
2/3-y,1/3+x-y,1/3+z
2/3-x+y,1/3-x,1/3+z
2/3+x-y,1/3-y,1/3-z
2/3-x,1/3-x+y,1/3-z
2/3+y,1/3+x,1/3-z
2/3-x,1/3-y,1/3-z
2/3+y,1/3-x+y,1/3-z
2/3+x-y,1/3+x,1/3-z
2/3-x+y,1/3+y,1/3+z
2/3+x,1/3+x-y,1/3+z
2/3-y,1/3-x,1/3+z
1/3+x,2/3+y,2/3+z
1/3-y,2/3+x-y,2/3+z
1/3-x+y,2/3-x,2/3+z
1/3+x-y,2/3-y,2/3-z
1/3-x,2/3-x+y,2/3-z
1/3+y,2/3+x,2/3-z
1/3-x,2/3-y,2/3-z
1/3+y,2/3-x+y,2/3-z
1/3+x-y,2/3+x,2/3-z
1/3-x+y,2/3+y,2/3+z
1/3+x,2/3+x-y,2/3+z
1/3-y,2/3-x,2/3+z
loop_
_atom_site_type_symbol
_atom_site_label
_atom_site_fract_x
_atom_site_fract_y
_atom_site_fract_z
Si Si1 0.334802 0.526563 0.875577
Si Si2 0.803066 0.057193 0.886658
Si Si3 0.055869 0.457389 0.394518
Si Si4 0.333334 0.031181 0.166667
Si Si5 0.608409 0.941742 0.666667
O O1 0.267417 0.534834 0.864639
O O2 0.399838 0.600163 0.896224
O O3 0.351176 0.502728 0.815641
O O4 0.320890 0.471792 0.927025
O O5 0.859157 0.140844 0.891552
O O6 0.780225 0.021246 0.948330
O O7 0.733074 0.044920 0.851788
O O8 0.043894 0.521947 0.379242
O O9 0.014079 0.419277 0.450547
O O10 0.020594 0.399557 0.344732
#
# Coordination Sequence:
#
# PCOD8324003 Si02
#       5
#    36  36  36  18  18
#     4   9  17  29  44  60  78 103 135 167 196 228
#     4   9  17  27  40  59  81 104 130 161 196 232
#     4   9  16  26  40  57  78 104 134 164 193 228
#     4   8  15  26  40  56  76 104 137 164 190 224
#     4  10  18  26  39  60  83 106 130 158 196 238
#
# _framework density 14.746274
#
# number of rings (size 3 to 8) (size 9 to 14) (size 15 to 20)
#    0.000    3.000    0.000    1.375    0.000    7.000 
#    0.000    0.625    0.000    1.500    0.000    4.375 
#    0.000    0.000    0.000    0.375    0.000    0.500 
#
# Total GULP energy -594631.249120 kJ/mol
# GULP energy per Si atom -12388.151023 kJ/mol
# Density = 1.471271 g / cm^3
# Si number density = 14.746274 Si / 1000 Ang^3
#
#
#
# Elastic Constant Matrix: (Units=GPa)
#
#
# Indices 1 2 3 4 5 6 
#
# 1 102.7081 60.6446 39.3389 -3.6905 0.0002 0.0000
# 2 60.6446 102.7081 39.3389 3.6905 -0.0002 0.0000
# 3 39.3389 39.3389 52.0922 0.0000 0.0000 0.0000
# 4 -3.6905 3.6905 0.0000 16.8885 0.0000 -0.0002
# 5 0.0002 -0.0002 0.0000 0.0000 16.8885 -3.6905
# 6 0.0000 0.0000 0.0000 -0.0002 -3.6905 21.0317
#
#
#
# Elastic Compliance Matrix: (Units=1/GPa)
#
#
# Indices 1 2 3 4 5 6 
#
# 1 0.017171 -0.007550 -0.007266 0.005402 0.000000 0.000000
# 2 -0.007550 0.017171 -0.007266 -0.005402 0.000000 0.000000
# 3 -0.007266 -0.007266 0.030171 0.000000 0.000000 0.000000
# 4 0.005402 -0.005402 0.000000 0.061573 0.000000 0.000001
# 5 0.000000 0.000000 0.000000 0.000000 0.061573 0.010804
# 6 0.000000 0.000000 0.000000 0.000001 0.010804 0.049443
#
#
# Mechanical properties :
#
#
# Convention : Reuss Voigt Hill
#
# Bulk Modulus (GPa) = 49.13989 59.57261 54.35625
# Shear Modulus (GPa) = 17.35815 18.84078 18.09946
#
# Velocity S-wave (km/s) = 3.43464 3.57832 3.50722
# Velocity P-wave (km/s) = 7.00892 7.58674 7.30355
#
# Compressibility (1/GPa) = 0.02035007
#
# Stress axis : x y z
#
# Youngs Moduli (GPa) = 58.23641 58.23641 33.14485
#
# Poissons Ratio (x) = 0.43969 0.24082
# Poissons Ratio (y) = 0.43969 0.24082
# Poissons Ratio (z) = 0.42313 0.42313
#
# Static dielectric constant tensor:
#      x y z
#    x 3.046790 0.000000 0.000000 
#    y 0.000000 3.046790 0.000000 
#    z 0.000000 0.000000 2.843190 
# 
# 
# High freq. dielectric constant tensor:
#      x y z
#    x 1.556730 0.000000 0.000000 
#    y 0.000000 1.556730 0.000000 
#    z 0.000000 0.000000 1.549400 
# 
# From -- ./inp_files/8340.got.cif
#   From: 2010.03.12/outbox.cif.g09.slc.cpg/sg166_5_cif.got.tgz:8340.got - 2010.04.02 06:38:31.
