data_PCOD8324039
_publ_section_title
;
Structure prediction by ZEFSAII (Michael W. Deem and Ramdas Pophale) SiO2 
 PCOD8324039
Probable space group: R -3 M
;
_chemical_formula_sum "Si O2"
_cell_formula_units_Z 234
_cell_length_a 27.979378
_cell_length_b 27.979378
_cell_length_c 18.979269
_cell_angle_alpha 90.000000
_cell_angle_beta 90.000000
_cell_angle_gamma 120.000000
_cell_volume 12867.264374
_symmetry_space_group_name_H-M "R -3 M"
_symmetry_group_IT_number 166
_symmetry_cell_setting 'hexagonal'
loop_
_space_group_symop_operation_xyz
x,y,z
-y,x-y,z
-x+y,-x,z
x-y,-y,-z
-x,-x+y,-z
y,x,-z
-x,-y,-z
y,-x+y,-z
x-y,x,-z
-x+y,y,z
x,x-y,z
-y,-x,z
2/3+x,1/3+y,1/3+z
2/3-y,1/3+x-y,1/3+z
2/3-x+y,1/3-x,1/3+z
2/3+x-y,1/3-y,1/3-z
2/3-x,1/3-x+y,1/3-z
2/3+y,1/3+x,1/3-z
2/3-x,1/3-y,1/3-z
2/3+y,1/3-x+y,1/3-z
2/3+x-y,1/3+x,1/3-z
2/3-x+y,1/3+y,1/3+z
2/3+x,1/3+x-y,1/3+z
2/3-y,1/3-x,1/3+z
1/3+x,2/3+y,2/3+z
1/3-y,2/3+x-y,2/3+z
1/3-x+y,2/3-x,2/3+z
1/3+x-y,2/3-y,2/3-z
1/3-x,2/3-x+y,2/3-z
1/3+y,2/3+x,2/3-z
1/3-x,2/3-y,2/3-z
1/3+y,2/3-x+y,2/3-z
1/3+x-y,2/3+x,2/3-z
1/3-x+y,2/3+y,2/3+z
1/3+x,2/3+x-y,2/3+z
1/3-y,2/3-x,2/3+z
loop_
_atom_site_type_symbol
_atom_site_label
_atom_site_fract_x
_atom_site_fract_y
_atom_site_fract_z
Si Si1 0.569029 0.032618 0.628525
Si Si2 0.666667 0.018132 0.833334
Si Si3 0.263785 0.987686 0.364472
Si Si4 0.023215 0.264116 0.921414
Si Si5 0.000016 0.891566 0.579975
Si Si6 0.470308 0.179995 0.635982
Si Si7 0.534954 0.712832 0.855931
O O1 0.514276 0.028551 0.662492
O O2 0.614488 0.050767 0.689880
O O3 0.591115 0.075052 0.564750
O O4 0.554679 0.975338 0.593500
O O5 0.638051 0.041402 0.887395
O O6 0.712403 0.009184 0.874246
O O7 0.312430 0.979097 0.333334
O O8 0.207043 0.951587 0.321176
O O9 0.021327 0.211558 0.882697
O O10 0.000000 0.246844 0.000000
O O11 0.059345 0.940656 0.603451
O O12 0.000000 0.872825 0.500000
O O13 0.956297 0.912595 0.588702
O O14 0.984881 0.839555 0.628146
O O15 0.459263 0.229632 0.620809
O O16 0.503121 0.175563 0.568942
O O17 0.513957 0.756979 0.841798
#
# Coordination Sequence:
#
# PCOD8324039 Si02
#       7
#    36  18  36  36  36  36  36
#     4  10  18  33  55  84 110 133 177 231 281 331
#     4  12  18  34  57  76 110 154 187 214 262 330
#     4  11  21  37  55  76 106 152 190 225 270 325
#     4  12  20  34  57  85 113 147 184 231 281 334
#     4   9  17  31  53  81 112 142 177 227 288 342
#     4  10  22  38  55  78 109 150 195 236 272 326
#     4  10  20  35  59  83 109 143 179 234 299 343
#
# _framework density 18.185683999999998
#
# number of rings (size 3 to 8) (size 9 to 14) (size 15 to 20)
#    0.000    1.538    4.615    2.000    1.077    2.769 
#    0.000    2.308    0.000    0.308    0.000    0.000 
#    0.000    0.615    0.000    0.000    0.000    0.000 
#
# Total GULP energy -966746.843800 kJ/mol
# GULP energy per Si atom -12394.190305 kJ/mol
# Density = 1.814429 g / cm^3
# Si number density = 18.185684 Si / 1000 Ang^3
#
#
#
# Elastic Constant Matrix: (Units=GPa)
#
#
# Indices 1 2 3 4 5 6 
#
# 1 86.0688 46.2991 37.5919 -0.1368 0.0000 0.0000
# 2 46.2991 86.0688 37.5919 0.1368 0.0000 0.0000
# 3 37.5919 37.5919 107.5225 0.0000 0.0000 0.0000
# 4 -0.1368 0.1368 0.0000 21.6918 0.0000 0.0000
# 5 0.0000 0.0000 0.0000 0.0000 21.6918 -0.1368
# 6 0.0000 0.0000 0.0000 0.0000 -0.1368 19.8849
#
#
#
# Elastic Compliance Matrix: (Units=1/GPa)
#
#
# Indices 1 2 3 4 5 6 
#
# 1 0.017286 -0.007860 -0.003296 0.000159 0.000000 0.000000
# 2 -0.007860 0.017286 -0.003296 -0.000159 0.000000 0.000000
# 3 -0.003296 -0.003296 0.011605 0.000000 0.000000 0.000000
# 4 0.000159 -0.000159 0.000000 0.046102 0.000000 0.000000
# 5 0.000000 0.000000 0.000000 0.000000 0.046102 0.000317
# 6 0.000000 0.000000 0.000000 0.000000 0.000317 0.050292
#
#
# Mechanical properties :
#
#
# Convention : Reuss Voigt Hill
#
# Bulk Modulus (GPa) = 57.88631 58.06954 57.97793
# Shear Modulus (GPa) = 22.38797 23.19886 22.79341
#
# Velocity S-wave (km/s) = 3.51248 3.57552 3.54414
# Velocity P-wave (km/s) = 6.95340 7.00333 6.97841
#
# Compressibility (1/GPa) = 0.01727524
#
# Stress axis : x y z
#
# Youngs Moduli (GPa) = 57.84950 57.84950 86.17073
#
# Poissons Ratio (x) = 0.45467 0.28400
# Poissons Ratio (y) = 0.45467 0.28400
# Poissons Ratio (z) = 0.19066 0.19066
#
# Static dielectric constant tensor:
#      x y z
#    x 3.408500 0.000000 0.000000 
#    y 0.000000 3.408500 0.000000 
#    z 0.000000 0.000000 3.538960 
# 
# 
# High freq. dielectric constant tensor:
#      x y z
#    x 1.691000 0.000000 0.000000 
#    y 0.000000 1.691000 0.000000 
#    z 0.000000 0.000000 1.701030 
# 
# From -- ./inp_files/7235.got.cif
#   From: 2010.03.12/outbox.cif.g09.slc.cpg/sg166_4_cif.got.tgz:7235.got - 2010.04.02 06:38:31.
