data_PCOD8324842
_publ_section_title
;
Structure prediction by ZEFSAII (Michael W. Deem and Ramdas Pophale) SiO2 
 PCOD8324842
Probable space group: P 63
;
_chemical_formula_sum "Si O2"
_cell_formula_units_Z 48
_cell_length_a 17.946871
_cell_length_b 17.946871
_cell_length_c 8.545701
_cell_angle_alpha 90.000000
_cell_angle_beta 90.000000
_cell_angle_gamma 120.000000
_cell_volume 2383.723113
_symmetry_space_group_name_H-M "P 63"
_symmetry_group_IT_number 173
_symmetry_cell_setting 'hexagonal'
loop_
_space_group_symop_operation_xyz
x,y,z
x-y,x,1/2+z
-y,x-y,z
-x,-y,1/2+z
-x+y,-x,z
y,-x+y,1/2+z
loop_
_atom_site_type_symbol
_atom_site_label
_atom_site_fract_x
_atom_site_fract_y
_atom_site_fract_z
Si Si1 0.812962 0.897201 0.327520
Si Si2 0.820018 0.627947 0.691322
Si Si3 0.897201 0.084239 0.191001
Si Si4 0.893761 0.521154 0.188831
Si Si5 0.094287 0.625434 0.190428
Si Si6 0.521154 0.627393 0.329690
Si Si7 0.192071 0.820018 0.827198
Si Si8 0.905713 0.374566 0.328093
O O1 0.713390 0.832598 0.288930
O O2 0.823015 0.921752 0.509260
O O3 0.866001 0.849168 0.292377
O O4 0.849168 0.983167 0.226144
O O5 0.722486 0.588204 0.750565
O O6 0.845445 0.555509 0.720471
O O7 0.828984 0.652317 0.509260
O O8 0.832598 0.119208 0.229590
O O9 0.845445 0.555509 0.298049
O O10 0.864399 0.422913 0.233467
O O11 0.993883 0.580600 0.224430
O O12 0.870930 0.525673 0.009260
O O13 0.135601 0.577087 0.285054
O O14 0.114893 0.622417 0.009260
O O15 0.580600 0.586717 0.294090
O O16 0.134282 0.722486 0.767956
#
# Coordination Sequence:
#
# PCOD8324842 Si02
#       8
#     6   6   6   6   6   6   6   6
#     4  12  25  42  63  90 125 164 207 253 304 358
#     4  11  22  38  61  89 120 157 200 245 297 360
#     4  12  25  42  63  90 125 164 207 253 304 358
#     4  10  20  36  59  85 114 148 192 243 294 349
#     4   9  20  38  58  81 112 151 191 236 292 353
#     4  10  20  36  59  85 114 148 192 243 294 349
#     4  11  22  38  61  89 120 157 200 245 297 360
#     4   9  20  38  58  81 112 151 191 236 292 353
#
# _framework density 20.136565000000001
#
# number of rings (size 3 to 8) (size 9 to 14) (size 15 to 20)
#    0.000    1.500    0.000    5.500    0.000    5.000 
#    1.500    0.000    0.000    0.000    0.000    0.000 
#    0.000    0.000    0.000    0.000    0.000    0.000 
#
# Total GULP energy -595510.047865 kJ/mol
# GULP energy per Si atom -12406.459331 kJ/mol
# Density = 2.009073 g / cm^3
# Si number density = 20.136565 Si / 1000 Ang^3
#
#
#
# Elastic Constant Matrix: (Units=GPa)
#
#
# Indices 1 2 3 4 5 6 
#
# 1 69.9774 21.6215 25.3719 0.0000 0.0000 0.0000
# 2 21.6215 69.9774 25.3719 0.0000 0.0000 0.0000
# 3 25.3719 25.3719 63.9861 0.0000 0.0000 0.0000
# 4 0.0000 0.0000 0.0000 30.8618 0.0000 0.0000
# 5 0.0000 0.0000 0.0000 0.0000 30.8618 0.0000
# 6 0.0000 0.0000 0.0000 0.0000 0.0000 24.1779
#
#
#
# Elastic Compliance Matrix: (Units=1/GPa)
#
#
# Indices 1 2 3 4 5 6 
#
# 1 0.017335 -0.003345 -0.005547 0.000000 0.000000 0.000000
# 2 -0.003345 0.017335 -0.005547 0.000000 0.000000 0.000000
# 3 -0.005547 -0.005547 0.020028 0.000000 0.000000 0.000000
# 4 0.000000 0.000000 0.000000 0.032402 0.000000 0.000000
# 5 0.000000 0.000000 0.000000 0.000000 0.032402 0.000000
# 6 0.000000 0.000000 0.000000 0.000000 0.000000 0.041360
#
#
# Mechanical properties :
#
#
# Convention : Reuss Voigt Hill
#
# Bulk Modulus (GPa) = 38.73184 38.74129 38.73657
# Shear Modulus (GPa) = 25.20809 25.95201 25.58005
#
# Velocity S-wave (km/s) = 3.54200 3.59388 3.56803
# Velocity P-wave (km/s) = 6.00033 6.04172 6.02106
#
# Compressibility (1/GPa) = 0.02581855
#
# Stress axis : x y z
#
# Youngs Moduli (GPa) = 57.68612 57.68612 49.93061
#
# Poissons Ratio (x) = 0.19295 0.27699
# Poissons Ratio (y) = 0.19295 0.27699
# Poissons Ratio (z) = 0.32001 0.32001
#
# Static dielectric constant tensor:
#      x y z
#    x 3.692900 0.000000 0.000000 
#    y 0.000000 3.692900 0.000000 
#    z 0.000000 0.000000 3.598510 
# 
# 
# High freq. dielectric constant tensor:
#      x y z
#    x 1.789120 0.000000 0.000000 
#    y 0.000000 1.789120 0.000000 
#    z 0.000000 0.000000 1.790220 
# 
# From -- ./inp_files/675.got.cif
#   From: 2010.03.12/outbox.cif.g09.slc.cpg/sg173_cif.got.tgz:675.got - 2010.04.02 06:54:12.
