data_PCOD8324440
_publ_section_title
;
Structure prediction by ZEFSAII (Michael W. Deem and Ramdas Pophale) SiO2 
 PCOD8324440
Probable space group: P 6
;
_chemical_formula_sum "Si O2"
_cell_formula_units_Z 24
_cell_length_a 12.179851
_cell_length_b 12.179851
_cell_length_c 9.898436
_cell_angle_alpha 90.000000
_cell_angle_beta 90.000000
_cell_angle_gamma 120.000000
_cell_volume 1271.689724
_symmetry_space_group_name_H-M "P 6"
_symmetry_group_IT_number 168
_symmetry_cell_setting 'hexagonal'
loop_
_space_group_symop_operation_xyz
x,y,z
x-y,x,z
-y,x-y,z
-x,-y,z
-x+y,-x,z
y,-x+y,z
loop_
_atom_site_type_symbol
_atom_site_label
_atom_site_fract_x
_atom_site_fract_y
_atom_site_fract_z
Si Si1 0.790569 0.485511 0.537240
Si Si2 0.913694 0.714270 0.031860
Si Si3 0.694943 0.209431 0.840069
Si Si4 0.800576 0.086306 0.345448
O O1 0.641291 0.443239 0.517757
O O2 0.834172 0.539959 0.688655
O O3 0.878550 0.588807 0.429157
O O4 0.821586 0.767477 0.992616
O O5 0.902674 0.678148 0.188654
O O6 0.878550 0.588807 0.948152
O O7 0.801948 0.358709 0.859552
O O8 0.945890 0.178414 0.384692
#
# Coordination Sequence:
#
# PCOD8324440 Si02
#       4
#     6   6   6   6
#     4   8  18  37  56  78 106 137 171 214 267 314
#     4  10  21  36  54  77 107 142 177 215 259 308
#     4   8  18  37  56  78 106 137 171 214 267 314
#     4  10  21  36  54  77 107 142 177 215 259 308
#
# _framework density 18.872529
#
# number of rings (size 3 to 8) (size 9 to 14) (size 15 to 20)
#    1.000    2.000    0.000    0.500    0.000    8.000 
#    0.000   10.000    0.000    3.000    0.000    0.000 
#    0.000    0.000    0.000    0.000    0.000    0.000 
#
# Total GULP energy -297446.058531 kJ/mol
# GULP energy per Si atom -12393.585772 kJ/mol
# Density = 1.882957 g / cm^3
# Si number density = 18.872529 Si / 1000 Ang^3
#
#
#
# Elastic Constant Matrix: (Units=GPa)
#
#
# Indices 1 2 3 4 5 6 
#
# 1 34.7647 -10.3491 14.7072 0.0000 0.0000 0.0000
# 2 -10.3491 34.7647 14.7072 0.0000 0.0000 0.0000
# 3 14.7072 14.7072 53.1217 0.0000 0.0000 0.0000
# 4 0.0000 0.0000 0.0000 2.5087 0.0000 0.0000
# 5 0.0000 0.0000 0.0000 0.0000 2.5087 0.0000
# 6 0.0000 0.0000 0.0000 0.0000 0.0000 22.5569
#
#
#
# Elastic Compliance Matrix: (Units=1/GPa)
#
#
# Indices 1 2 3 4 5 6 
#
# 1 0.041811 0.019645 -0.017014 0.000000 0.000000 0.000000
# 2 0.019645 0.041811 -0.017014 0.000000 0.000000 0.000000
# 3 -0.017014 -0.017014 0.028246 0.000000 0.000000 0.000000
# 4 0.000000 0.000000 0.000000 0.398612 0.000000 0.000000
# 5 0.000000 0.000000 0.000000 0.000000 0.398612 0.000000
# 6 0.000000 0.000000 0.000000 0.000000 0.000000 0.044332
#
#
# Mechanical properties :
#
#
# Convention : Reuss Voigt Hill
#
# Bulk Modulus (GPa) = 12.03384 17.86461 14.94922
# Shear Modulus (GPa) = 4.95102 12.42059 8.68581
#
# Velocity S-wave (km/s) = 1.62145 2.56819 2.14764
# Velocity P-wave (km/s) = 3.14574 4.27558 3.75342
#
# Compressibility (1/GPa) = 0.08309901
#
# Stress axis : x y z
#
# Youngs Moduli (GPa) = 23.91728 23.91728 35.40348
#
# Poissons Ratio (x) = -0.46985 0.60237
# Poissons Ratio (y) = -0.46985 0.60237
# Poissons Ratio (z) = 0.40694 0.40694
#
# Static dielectric constant tensor:
#      x y z
#    x 3.270170 0.000000 0.000000 
#    y 0.000000 3.270170 0.000000 
#    z 0.000000 0.000000 3.296090 
# 
# 
# High freq. dielectric constant tensor:
#      x y z
#    x 1.722770 0.000000 0.000000 
#    y 0.000000 1.722770 0.000000 
#    z 0.000000 0.000000 1.730690 
# 
# From -- ./inp_files/198.got.cif
#   From: 2010.03.12/outbox.cif.g09.slc.cpg/sg168_cif.got.tgz:198.got - 2010.04.02 06:45:48.
