data_PCOD8324198
_publ_section_title
;
Structure prediction by ZEFSAII (Michael W. Deem and Ramdas Pophale) SiO2 
 PCOD8324198
Probable space group: R -3 M
;
_chemical_formula_sum "Si O2"
_cell_formula_units_Z 162
_cell_length_a 26.221645
_cell_length_b 26.221645
_cell_length_c 15.133844
_cell_angle_alpha 90.000000
_cell_angle_beta 90.000000
_cell_angle_gamma 120.000000
_cell_volume 9011.555287
_symmetry_space_group_name_H-M "R -3 M"
_symmetry_group_IT_number 166
_symmetry_cell_setting 'hexagonal'
loop_
_space_group_symop_operation_xyz
x,y,z
-y,x-y,z
-x+y,-x,z
x-y,-y,-z
-x,-x+y,-z
y,x,-z
-x,-y,-z
y,-x+y,-z
x-y,x,-z
-x+y,y,z
x,x-y,z
-y,-x,z
2/3+x,1/3+y,1/3+z
2/3-y,1/3+x-y,1/3+z
2/3-x+y,1/3-x,1/3+z
2/3+x-y,1/3-y,1/3-z
2/3-x,1/3-x+y,1/3-z
2/3+y,1/3+x,1/3-z
2/3-x,1/3-y,1/3-z
2/3+y,1/3-x+y,1/3-z
2/3+x-y,1/3+x,1/3-z
2/3-x+y,1/3+y,1/3+z
2/3+x,1/3+x-y,1/3+z
2/3-y,1/3-x,1/3+z
1/3+x,2/3+y,2/3+z
1/3-y,2/3+x-y,2/3+z
1/3-x+y,2/3-x,2/3+z
1/3+x-y,2/3-y,2/3-z
1/3-x,2/3-x+y,2/3-z
1/3+y,2/3+x,2/3-z
1/3-x,2/3-y,2/3-z
1/3+y,2/3-x+y,2/3-z
1/3+x-y,2/3+x,2/3-z
1/3-x+y,2/3+y,2/3+z
1/3+x,2/3+x-y,2/3+z
1/3-y,2/3-x,2/3+z
loop_
_atom_site_type_symbol
_atom_site_label
_atom_site_fract_x
_atom_site_fract_y
_atom_site_fract_z
Si Si1 0.173060 0.229781 0.124740
Si Si2 0.650180 0.767921 0.047433
Si Si3 0.898920 0.392759 0.869775
Si Si4 0.455436 0.788769 0.666667
Si Si5 0.933706 0.353925 0.033500
O O1 0.115519 0.231039 0.160348
O O2 0.204127 0.279227 0.048247
O O3 0.222099 0.251146 0.200949
O O4 0.152911 0.165078 0.084517
O O5 0.633629 0.816815 0.018257
O O6 0.624961 0.744344 0.146588
O O7 0.620044 0.716099 0.976944
O O8 0.876998 0.438499 0.859725
O O9 0.845054 0.333334 0.833334
O O10 0.907509 0.384842 0.972055
O O11 0.391047 0.782093 0.648127
O O12 0.000000 0.380471 0.000000
#
# Coordination Sequence:
#
# PCOD8324198 Si02
#       5
#    36  36  36  18  36
#     4  10  21  37  56  80 110 143 182 229 276 323
#     4   9  19  34  48  72 112 147 177 218 268 321
#     4   9  17  30  48  73 104 142 180 218 263 318
#     4  10  23  44  66  84 104 138 185 240 294 338
#     4  11  20  30  54  82 107 144 187 220 263 322
#
# _framework density 17.976918999999999
#
# number of rings (size 3 to 8) (size 9 to 14) (size 15 to 20)
#    0.000    2.222    2.222    0.778    1.556    1.778 
#    0.000    0.000    0.000    4.222    0.000    0.000 
#    0.000    0.000    0.000    0.000    0.000    0.000 
#
# Total GULP energy -669103.626611 kJ/mol
# GULP energy per Si atom -12390.807900 kJ/mol
# Density = 1.793600 g / cm^3
# Si number density = 17.976919 Si / 1000 Ang^3
#
#
#
# Elastic Constant Matrix: (Units=GPa)
#
#
# Indices 1 2 3 4 5 6 
#
# 1 124.7456 68.2546 42.6955 3.8147 0.0011 0.0000
# 2 68.2546 124.7456 42.6955 -3.8147 -0.0011 0.0000
# 3 42.6955 42.6955 64.5746 0.0000 0.0000 0.0000
# 4 3.8147 -3.8147 0.0000 36.8218 0.0000 -0.0011
# 5 0.0011 -0.0011 0.0000 0.0000 36.8218 3.8147
# 6 0.0000 0.0000 0.0000 -0.0011 3.8147 28.2455
#
#
#
# Elastic Compliance Matrix: (Units=1/GPa)
#
#
# Indices 1 2 3 4 5 6 
#
# 1 0.012638 -0.005315 -0.004842 -0.001860 -0.000001 0.000000
# 2 -0.005315 0.012638 -0.004842 0.001860 0.000001 0.000000
# 3 -0.004842 -0.004842 0.021889 0.000000 0.000000 0.000000
# 4 -0.001860 0.001860 0.000000 0.027543 0.000000 0.000001
# 5 -0.000001 0.000001 0.000000 0.000000 0.027543 -0.003720
# 6 0.000000 0.000000 0.000000 0.000001 -0.003720 0.035906
#
#
# Mechanical properties :
#
#
# Convention : Reuss Voigt Hill
#
# Bulk Modulus (GPa) = 58.24967 69.03968 63.64468
# Shear Modulus (GPa) = 28.75543 31.07249 29.91396
#
# Velocity S-wave (km/s) = 4.00381 4.16199 4.08367
# Velocity P-wave (km/s) = 7.33804 7.84756 7.59707
#
# Compressibility (1/GPa) = 0.01716748
#
# Stress axis : x y z
#
# Youngs Moduli (GPa) = 79.12353 79.12353 45.68438
#
# Poissons Ratio (x) = 0.42052 0.22122
# Poissons Ratio (y) = 0.42052 0.22122
# Poissons Ratio (z) = 0.38314 0.38314
#
# Static dielectric constant tensor:
#      x y z
#    x 3.335530 0.000000 0.000000 
#    y 0.000000 3.335530 0.000000 
#    z 0.000000 0.000000 3.087070 
# 
# 
# High freq. dielectric constant tensor:
#      x y z
#    x 1.697380 0.000000 0.000000 
#    y 0.000000 1.697380 0.000000 
#    z 0.000000 0.000000 1.672740 
# 
# From -- ./inp_files/5565.got.cif
#   From: 2010.03.12/outbox.cif.g09.slc.cpg/sg166_3_cif.got.tgz:5565.got - 2010.04.02 06:38:31.
