data_PCOD8324166
_publ_section_title
;
Structure prediction by ZEFSAII (Michael W. Deem and Ramdas Pophale) SiO2 
 PCOD8324166
Probable space group: R -3 M
;
_chemical_formula_sum "Si O2"
_cell_formula_units_Z 162
_cell_length_a 20.973529
_cell_length_b 20.973529
_cell_length_c 22.015241
_cell_angle_alpha 90.000000
_cell_angle_beta 90.000000
_cell_angle_gamma 120.000000
_cell_volume 8386.815661
_symmetry_space_group_name_H-M "R -3 M"
_symmetry_group_IT_number 166
_symmetry_cell_setting 'hexagonal'
loop_
_space_group_symop_operation_xyz
x,y,z
-y,x-y,z
-x+y,-x,z
x-y,-y,-z
-x,-x+y,-z
y,x,-z
-x,-y,-z
y,-x+y,-z
x-y,x,-z
-x+y,y,z
x,x-y,z
-y,-x,z
2/3+x,1/3+y,1/3+z
2/3-y,1/3+x-y,1/3+z
2/3-x+y,1/3-x,1/3+z
2/3+x-y,1/3-y,1/3-z
2/3-x,1/3-x+y,1/3-z
2/3+y,1/3+x,1/3-z
2/3-x,1/3-y,1/3-z
2/3+y,1/3-x+y,1/3-z
2/3+x-y,1/3+x,1/3-z
2/3-x+y,1/3+y,1/3+z
2/3+x,1/3+x-y,1/3+z
2/3-y,1/3-x,1/3+z
1/3+x,2/3+y,2/3+z
1/3-y,2/3+x-y,2/3+z
1/3-x+y,2/3-x,2/3+z
1/3+x-y,2/3-y,2/3-z
1/3-x,2/3-x+y,2/3-z
1/3+y,2/3+x,2/3-z
1/3-x,2/3-y,2/3-z
1/3+y,2/3-x+y,2/3-z
1/3+x-y,2/3+x,2/3-z
1/3-x+y,2/3+y,2/3+z
1/3+x,2/3+x-y,2/3+z
1/3-y,2/3-x,2/3+z
loop_
_atom_site_type_symbol
_atom_site_label
_atom_site_fract_x
_atom_site_fract_y
_atom_site_fract_z
Si Si1 0.061225 0.789529 0.161228
Si Si2 0.667916 0.480138 0.724917
Si Si3 0.459295 0.389804 0.036872
Si Si4 0.236429 0.000000 0.500000
Si Si5 0.815216 0.482166 0.263763
O O1 0.129767 0.870234 0.163321
O O2 0.025338 0.765601 0.228555
O O3 0.086712 0.732472 0.140285
O O4 0.004265 0.791153 0.112893
O O5 0.725235 0.450470 0.720216
O O6 0.587187 0.412814 0.737814
O O7 0.667635 0.520775 0.662994
O O8 0.695012 0.539639 0.778849
O O9 0.529374 0.470627 0.040542
O O10 0.395210 0.395210 0.000000
O O11 0.741283 0.482566 0.247041
O O12 0.799951 0.399976 0.252686
O O13 0.839356 0.506022 0.333334
#
# Coordination Sequence:
#
# PCOD8324166 Si02
#       5
#    36  36  36  18  36
#     4  10  20  36  57  82 112 149 196 240 278 338
#     4  11  22  36  57  86 118 149 190 243 297 349
#     4   9  17  34  56  75 103 148 194 233 280 343
#     4  12  22  36  56  78 110 162 202 232 280 344
#     4   9  18  35  60  88 118 150 187 237 300 362
#
# _framework density 19.316032
#
# number of rings (size 3 to 8) (size 9 to 14) (size 15 to 20)
#    0.000    2.000    2.222    2.444    0.000    1.778 
#    4.000    1.667    0.000    2.667    0.000    0.000 
#    0.000    0.000    0.000    0.000    0.000    0.000 
#
# Total GULP energy -669574.149739 kJ/mol
# GULP energy per Si atom -12399.521291 kJ/mol
# Density = 1.927207 g / cm^3
# Si number density = 19.316032 Si / 1000 Ang^3
#
#
#
# Elastic Constant Matrix: (Units=GPa)
#
#
# Indices 1 2 3 4 5 6 
#
# 1 86.5550 36.5405 44.4015 -6.3719 -0.0001 0.0000
# 2 36.5405 86.5550 44.4015 6.3719 0.0001 0.0000
# 3 44.4015 44.4015 119.2797 0.0000 0.0000 0.0000
# 4 -6.3719 6.3719 0.0000 27.7335 0.0000 0.0001
# 5 -0.0001 0.0001 0.0000 0.0000 27.7335 -6.3719
# 6 0.0000 0.0000 0.0000 0.0001 -6.3719 25.0073
#
#
#
# Elastic Compliance Matrix: (Units=1/GPa)
#
#
# Indices 1 2 3 4 5 6 
#
# 1 0.016172 -0.005066 -0.004134 0.004879 0.000000 0.000000
# 2 -0.005066 0.016172 -0.004134 -0.004879 0.000000 0.000000
# 3 -0.004134 -0.004134 0.011462 0.000000 0.000000 0.000000
# 4 0.004879 -0.004879 0.000000 0.038300 0.000000 0.000000
# 5 0.000000 0.000000 0.000000 0.000000 0.038300 0.009759
# 6 0.000000 0.000000 0.000000 0.000000 0.009759 0.042475
#
#
# Mechanical properties :
#
#
# Convention : Reuss Voigt Hill
#
# Bulk Modulus (GPa) = 58.35302 60.34187 59.34744
# Shear Modulus (GPa) = 25.60682 27.23125 26.41904
#
# Velocity S-wave (km/s) = 3.64493 3.75877 3.70229
# Velocity P-wave (km/s) = 6.92743 7.08131 7.00479
#
# Compressibility (1/GPa) = 0.01713707
#
# Stress axis : x y z
#
# Youngs Moduli (GPa) = 61.83561 61.83561 87.24770
#
# Poissons Ratio (x) = 0.31323 0.36071
# Poissons Ratio (y) = 0.31323 0.36071
# Poissons Ratio (z) = 0.25565 0.25565
#
# Static dielectric constant tensor:
#      x y z
#    x 3.307380 0.000000 0.000000 
#    y 0.000000 3.307380 0.000000 
#    z 0.000000 0.000000 3.887580 
# 
# 
# High freq. dielectric constant tensor:
#      x y z
#    x 1.734360 0.000000 0.000000 
#    y 0.000000 1.734360 0.000000 
#    z 0.000000 0.000000 1.758780 
# 
# From -- ./inp_files/6761.got.cif
#   From: 2010.03.12/outbox.cif.g09.slc.cpg/sg166_4_cif.got.tgz:6761.got - 2010.04.02 06:38:31.
