data_PCOD8324555
_publ_section_title
;
Structure prediction by ZEFSAII (Michael W. Deem and Ramdas Pophale) SiO2 
 PCOD8324555
Probable space group: P 61
;
_chemical_formula_sum "Si O2"
_cell_formula_units_Z 36
_cell_length_a 13.771348
_cell_length_b 13.771348
_cell_length_c 10.046586
_cell_angle_alpha 90.000000
_cell_angle_beta 90.000000
_cell_angle_gamma 120.000000
_cell_volume 1650.068767
_symmetry_space_group_name_H-M "P 61"
_symmetry_group_IT_number 169
_symmetry_cell_setting 'hexagonal'
loop_
_space_group_symop_operation_xyz
x,y,z
x-y,x,1/6+z
-y,x-y,1/3+z
-x,-y,1/2+z
-x+y,-x,2/3+z
y,-x+y,5/6+z
loop_
_atom_site_type_symbol
_atom_site_label
_atom_site_fract_x
_atom_site_fract_y
_atom_site_fract_z
Si Si1 0.910163 0.118654 0.731200
Si Si2 0.282469 0.767841 0.476010
Si Si3 0.679670 0.685197 0.762155
Si Si4 0.356613 0.362158 0.557246
Si Si5 0.452176 0.602703 0.638369
Si Si6 0.283295 0.487955 0.108185
O O1 0.819705 0.060699 0.610499
O O2 0.920690 0.233753 0.791603
O O3 0.032883 0.151352 0.682832
O O4 0.241609 0.662839 0.375301
O O5 0.414835 0.817238 0.494693
O O6 0.214362 0.729465 0.614716
O O7 0.276004 0.872885 0.413580
O O8 0.557320 0.667507 0.733700
O O9 0.727848 0.630407 0.655999
O O10 0.669973 0.628963 0.903909
O O11 0.443953 0.484760 0.607406
O O12 0.483270 0.676253 0.504455
#
# Coordination Sequence:
#
# PCOD8324555 Si02
#       6
#     6   6   6   6   6   6
#     4  10  22  44  67  89 122 178 224 276 338 402
#     4  12  25  42  66 103 142 180 231 289 356 435
#     4  11  24  43  67  97 134 181 226 279 351 425
#     4  11  24  43  67  97 134 181 226 279 351 425
#     4  12  24  38  67  93 134 182 212 282 346 422
#     4  12  25  42  66 103 142 180 231 289 356 435
#
# _framework density 21.817274000000001
#
# number of rings (size 3 to 8) (size 9 to 14) (size 15 to 20)
#    0.000    0.667    3.333    6.000    2.333    0.000 
#    3.000    0.000    0.000    0.000    0.000    0.000 
#    0.000    0.000    0.000    0.000    0.000    0.000 
#
# Total GULP energy -446156.795424 kJ/mol
# GULP energy per Si atom -12393.244317 kJ/mol
# Density = 2.176762 g / cm^3
# Si number density = 21.817274 Si / 1000 Ang^3
#
#
#
# Elastic Constant Matrix: (Units=GPa)
#
#
# Indices 1 2 3 4 5 6 
#
# 1 68.0128 15.2032 3.2577 0.0000 0.0000 0.0000
# 2 15.2032 68.0128 3.2577 0.0000 0.0000 0.0000
# 3 3.2577 3.2577 45.0432 0.0000 0.0000 0.0000
# 4 0.0000 0.0000 0.0000 20.9286 0.0000 0.0000
# 5 0.0000 0.0000 0.0000 0.0000 20.9286 0.0000
# 6 0.0000 0.0000 0.0000 0.0000 0.0000 26.4048
#
#
#
# Elastic Compliance Matrix: (Units=1/GPa)
#
#
# Indices 1 2 3 4 5 6 
#
# 1 0.015511 -0.003425 -0.000874 0.000000 0.000000 0.000000
# 2 -0.003425 0.015511 -0.000874 0.000000 0.000000 0.000000
# 3 -0.000874 -0.000874 0.022327 0.000000 0.000000 0.000000
# 4 0.000000 0.000000 0.000000 0.047782 0.000000 0.000000
# 5 0.000000 0.000000 0.000000 0.000000 0.047782 0.000000
# 6 0.000000 0.000000 0.000000 0.000000 0.000000 0.037872
#
#
# Mechanical properties :
#
#
# Convention : Reuss Voigt Hill
#
# Bulk Modulus (GPa) = 23.25485 24.94512 24.09999
# Shear Modulus (GPa) = 23.64462 24.27572 23.96017
#
# Velocity S-wave (km/s) = 3.29562 3.33931 3.31754
# Velocity P-wave (km/s) = 5.01633 5.13093 5.07395
#
# Compressibility (1/GPa) = 0.04300179
#
# Stress axis : x y z
#
# Youngs Moduli (GPa) = 64.47179 64.47179 44.78810
#
# Poissons Ratio (x) = 0.22084 0.03915
# Poissons Ratio (y) = 0.22084 0.03915
# Poissons Ratio (z) = 0.05635 0.05635
#
# Static dielectric constant tensor:
#      x y z
#    x 4.098830 0.000000 0.000000 
#    y 0.000000 4.098830 0.000000 
#    z 0.000000 0.000000 3.697660 
# 
# 
# High freq. dielectric constant tensor:
#      x y z
#    x 1.868140 0.000000 0.000000 
#    y 0.000000 1.868140 0.000000 
#    z 0.000000 0.000000 1.836860 
# 
# From -- ./inp_files/622.got.cif
#   From: 2010.03.12/outbox.cif.g09.slc.cpg/sg169_cif.got.tgz:622.got - 2010.04.02 06:46:06.
