data_PCOD8324385
_publ_section_title
;
Structure prediction by ZEFSAII (Michael W. Deem and Ramdas Pophale) SiO2 
 PCOD8324385
Probable space group: R -3 C 
;
_chemical_formula_sum "Si O2"
_cell_formula_units_Z 162
_cell_length_a 24.354357
_cell_length_b 24.354357
_cell_length_c 15.391120
_cell_angle_alpha 90.000000
_cell_angle_beta 90.000000
_cell_angle_gamma 120.000000
_cell_volume 7905.952336
_symmetry_space_group_name_H-M "R -3 C "
_symmetry_group_IT_number 167
_symmetry_cell_setting 'hexagonal'
loop_
_space_group_symop_operation_xyz
x,y,z
-y,x-y,z
-x+y,-x,z
x-y,-y,1/2-z
-x,-x+y,1/2-z
y,x,1/2-z
-x,-y,-z
y,-x+y,-z
x-y,x,-z
-x+y,y,1/2+z
x,x-y,1/2+z
-y,-x,1/2+z
2/3+x,1/3+y,1/3+z
2/3-y,1/3+x-y,1/3+z
2/3-x+y,1/3-x,1/3+z
2/3+x-y,1/3-y,5/6-z
2/3-x,1/3-x+y,5/6-z
2/3+y,1/3+x,5/6-z
2/3-x,1/3-y,1/3-z
2/3+y,1/3-x+y,1/3-z
2/3+x-y,1/3+x,1/3-z
2/3-x+y,1/3+y,5/6+z
2/3+x,1/3+x-y,5/6+z
2/3-y,1/3-x,5/6+z
1/3+x,2/3+y,2/3+z
1/3-y,2/3+x-y,2/3+z
1/3-x+y,2/3-x,2/3+z
1/3+x-y,2/3-y,1/6-z
1/3-x,2/3-x+y,1/6-z
1/3+y,2/3+x,1/6-z
1/3-x,2/3-y,2/3-z
1/3+y,2/3-x+y,2/3-z
1/3+x-y,2/3+x,2/3-z
1/3-x+y,2/3+y,1/6+z
1/3+x,2/3+x-y,1/6+z
1/3-y,2/3-x,1/6+z
loop_
_atom_site_type_symbol
_atom_site_label
_atom_site_fract_x
_atom_site_fract_y
_atom_site_fract_z
Si Si1 0.387849 0.877621 0.264603
Si Si2 0.199498 0.443549 0.239394
Si Si3 0.401594 0.530749 0.414522
Si Si4 0.581830 0.994983 0.346431
Si Si5 0.378919 0.000000 0.250000
O O1 0.317563 0.820255 0.245660
O O2 0.429157 0.881507 0.182019
O O3 0.412535 0.861259 0.352091
O O4 0.389536 0.943689 0.284347
O O5 0.240415 0.446415 0.321268
O O6 0.137186 0.374731 0.242009
O O7 0.333334 0.526994 0.416667
O O8 0.387013 0.462608 0.379222
O O9 0.560187 0.000000 0.250000
O O10 0.656935 0.017158 0.343246
#
# Coordination Sequence:
#
# PCOD8324385 Si02
#       5
#    36  36  36  36  18
#     4  11  23  44  64  98 132 175 223 279 327 401
#     4  11  24  40  68  91 129 176 220 275 340 385
#     4  12  24  42  66  95 130 175 225 278 331 394
#     4  11  22  40  62  98 137 173 215 264 331 414
#     4  10  24  36  66  94 140 176 206 260 330 412
#
# _framework density 20.490888999999999
#
# number of rings (size 3 to 8) (size 9 to 14) (size 15 to 20)
#    0.000    0.889    3.333    4.000    3.111    3.556 
#    0.000    0.000    0.000   13.333    0.000    0.000 
#    0.000    0.000    0.000    0.000    0.000    0.000 
#
# Total GULP energy -669580.898988 kJ/mol
# GULP energy per Si atom -12399.646278 kJ/mol
# Density = 2.044425 g / cm^3
# Si number density = 20.490889 Si / 1000 Ang^3
#
#
#
# Elastic Constant Matrix: (Units=GPa)
#
#
# Indices 1 2 3 4 5 6 
#
# 1 97.9160 37.6766 18.9892 4.7272 -0.0002 0.0000
# 2 37.6766 97.9160 18.9892 -4.7272 0.0002 0.0000
# 3 18.9892 18.9892 80.5869 0.0000 0.0000 0.0000
# 4 4.7272 -4.7272 0.0000 20.0917 0.0000 0.0002
# 5 -0.0002 0.0002 0.0000 0.0000 20.0917 4.7272
# 6 0.0000 0.0000 0.0000 0.0002 4.7272 30.1197
#
#
#
# Elastic Compliance Matrix: (Units=1/GPa)
#
#
# Indices 1 2 3 4 5 6 
#
# 1 0.012567 -0.004670 -0.001861 -0.004055 0.000000 0.000000
# 2 -0.004670 0.012567 -0.001861 0.004055 0.000000 0.000000
# 3 -0.001861 -0.001861 0.013286 0.000000 0.000000 0.000000
# 4 -0.004055 0.004055 0.000000 0.051680 0.000000 0.000000
# 5 0.000000 0.000000 0.000000 0.000000 0.051680 -0.008111
# 6 0.000000 0.000000 0.000000 0.000000 -0.008111 0.034474
#
#
# Mechanical properties :
#
#
# Convention : Reuss Voigt Hill
#
# Bulk Modulus (GPa) = 46.21996 47.52544 46.87270
# Shear Modulus (GPa) = 24.96900 27.44488 26.20694
#
# Velocity S-wave (km/s) = 3.49455 3.66371 3.58013
# Velocity P-wave (km/s) = 6.23601 6.41411 6.32569
#
# Compressibility (1/GPa) = 0.02163568
#
# Stress axis : x y z
#
# Youngs Moduli (GPa) = 79.57632 79.57632 75.26820
#
# Poissons Ratio (x) = 0.37165 0.14005
# Poissons Ratio (y) = 0.37165 0.14005
# Poissons Ratio (z) = 0.14806 0.14806
#
# Static dielectric constant tensor:
#      x y z
#    x 3.821290 0.000000 0.000000 
#    y 0.000000 3.821290 0.000000 
#    z 0.000000 0.000000 3.778610 
# 
# 
# High freq. dielectric constant tensor:
#      x y z
#    x 1.803090 0.000000 0.000000 
#    y 0.000000 1.803090 0.000000 
#    z 0.000000 0.000000 1.802980 
# 
# From -- ./inp_files/3398.got.cif
#   From: 2010.03.12/outbox.cif.g09.slc.cpg/sg167_2_cif.got.tgz:3398.got - 2010.04.02 06:42:56.
