data_PCOD8324916
_publ_section_title
;
Structure prediction by ZEFSAII (Michael W. Deem and Ramdas Pophale) SiO2 
 PCOD8324916
Probable space group: P -6
;
_chemical_formula_sum "Si O2"
_cell_formula_units_Z 32
_cell_length_a 14.649798
_cell_length_b 14.649798
_cell_length_c 9.511776
_cell_angle_alpha 90.000000
_cell_angle_beta 90.000000
_cell_angle_gamma 120.000000
_cell_volume 1767.891138
_symmetry_space_group_name_H-M "P -6"
_symmetry_group_IT_number 174
_symmetry_cell_setting 'hexagonal'
loop_
_space_group_symop_operation_xyz
x,y,z
-x+y,-x,-z
-y,x-y,z
x,y,-z
-x+y,-x,z
-y,x-y,-z
loop_
_atom_site_type_symbol
_atom_site_label
_atom_site_fract_x
_atom_site_fract_y
_atom_site_fract_z
Si Si1 0.151129 0.237985 0.162607
Si Si2 0.423824 0.797996 0.157325
Si Si3 0.430731 0.244888 0.663253
Si Si4 0.666668 0.333334 0.332901
Si Si5 0.055718 0.659065 0.662940
Si Si6 0.912798 0.153229 0.162188
O O1 0.229518 0.335224 0.258377
O O2 0.168678 0.139692 0.190792
O O3 0.033637 0.205539 0.208634
O O4 0.172351 0.272456 0.000000
O O5 0.297612 0.747638 0.177414
O O6 0.486457 0.890031 0.270522
O O7 0.456697 0.845146 0.000000
O O8 0.419659 0.213793 0.500000
O O9 0.546950 0.280844 0.722180
O O10 0.410532 0.341841 0.688347
O O11 0.346979 0.142089 0.747204
O O12 0.666667 0.333334 0.500000
O O13 0.084337 0.679848 0.500000
O O14 0.902061 0.175778 0.000000
#
# Coordination Sequence:
#
# PCOD8324916 Si02
#       6
#     6   6   6   2   6   6
#     4   9  17  30  50  72 103 138 171 206 254 311
#     4   8  17  34  53  71  96 130 163 195 244 305
#     4   9  19  35  54  73  99 134 175 216 262 312
#     4   9  18  39  61  71  94 141 181 215 262 315
#     4  10  19  31  49  76 104 131 167 212 256 302
#     4   9  17  31  51  77 104 136 173 212 254 307
#
# _framework density 18.100662
#
# number of rings (size 3 to 8) (size 9 to 14) (size 15 to 20)
#    0.375    2.625    0.000    0.938    0.000    3.750 
#    3.375    0.938    0.000    2.250    0.000    0.000 
#    0.000    0.000    0.000    0.000    0.000    0.000 
#
# Total GULP energy -396707.580125 kJ/mol
# GULP energy per Si atom -12397.111879 kJ/mol
# Density = 1.805946 g / cm^3
# Si number density = 18.100662 Si / 1000 Ang^3
#
#
#
# Elastic Constant Matrix: (Units=GPa)
#
#
# Indices 1 2 3 4 5 6 
#
# 1 87.4381 42.9388 40.7460 0.0000 0.0000 -0.0007
# 2 42.9388 87.4384 40.7457 0.0000 0.0000 -0.0002
# 3 40.7460 40.7457 75.1429 0.0000 0.0000 -0.0003
# 4 0.0000 0.0000 0.0000 28.3426 -0.0001 0.0000
# 5 0.0000 0.0000 0.0000 -0.0001 28.3429 0.0000
# 6 -0.0007 -0.0002 -0.0003 0.0000 0.0000 22.2495
#
#
#
# Elastic Compliance Matrix: (Units=1/GPa)
#
#
# Indices 1 2 3 4 5 6 
#
# 1 0.017037 -0.005435 -0.006291 0.000000 0.000000 0.000000
# 2 -0.005435 0.017037 -0.006291 0.000000 0.000000 0.000000
# 3 -0.006291 -0.006291 0.020131 0.000000 0.000000 0.000000
# 4 0.000000 0.000000 0.000000 0.035283 0.000000 0.000000
# 5 0.000000 0.000000 0.000000 0.000000 0.035282 0.000000
# 6 0.000000 0.000000 0.000000 0.000000 0.000000 0.044945
#
#
# Mechanical properties :
#
#
# Convention : Reuss Voigt Hill
#
# Bulk Modulus (GPa) = 55.03476 55.43115 55.23296
# Shear Modulus (GPa) = 23.60637 24.15959 23.88298
#
# Velocity S-wave (km/s) = 3.61525 3.65737 3.63637
# Velocity P-wave (km/s) = 6.92081 6.96602 6.94345
#
# Compressibility (1/GPa) = 0.01817033
#
# Stress axis : x y z
#
# Youngs Moduli (GPa) = 58.69439 58.69493 49.67482
#
# Poissons Ratio (x) = 0.31900 0.31253
# Poissons Ratio (y) = 0.31900 0.31252
# Poissons Ratio (z) = 0.36927 0.36927
#
# Static dielectric constant tensor:
#      x y z
#    x 3.257120 0.000000 0.000000 
#    y 0.000000 3.257110 0.000000 
#    z 0.000000 0.000000 3.237510 
# 
# 
# High freq. dielectric constant tensor:
#      x y z
#    x 1.691970 0.000000 0.000000 
#    y 0.000000 1.691970 0.000000 
#    z 0.000000 0.000000 1.691590 
# 
# From -- ./inp_files/341.got.cif
#   From: 2010.03.12/outbox.cif.g09.slc.cpg/sg174_cif.got.tgz:341.got - 2010.04.02 06:54:58.
