data_PCOD8324114
_publ_section_title
;
Structure prediction by ZEFSAII (Michael W. Deem and Ramdas Pophale) SiO2 
 PCOD8324114
Probable space group: R -3 M
;
_chemical_formula_sum "Si O2"
_cell_formula_units_Z 216
_cell_length_a 22.896149
_cell_length_b 22.896149
_cell_length_c 25.199921
_cell_angle_alpha 90.000000
_cell_angle_beta 90.000000
_cell_angle_gamma 120.000000
_cell_volume 11440.755287
_symmetry_space_group_name_H-M "R -3 M"
_symmetry_group_IT_number 166
_symmetry_cell_setting 'hexagonal'
loop_
_space_group_symop_operation_xyz
x,y,z
-y,x-y,z
-x+y,-x,z
x-y,-y,-z
-x,-x+y,-z
y,x,-z
-x,-y,-z
y,-x+y,-z
x-y,x,-z
-x+y,y,z
x,x-y,z
-y,-x,z
2/3+x,1/3+y,1/3+z
2/3-y,1/3+x-y,1/3+z
2/3-x+y,1/3-x,1/3+z
2/3+x-y,1/3-y,1/3-z
2/3-x,1/3-x+y,1/3-z
2/3+y,1/3+x,1/3-z
2/3-x,1/3-y,1/3-z
2/3+y,1/3-x+y,1/3-z
2/3+x-y,1/3+x,1/3-z
2/3-x+y,1/3+y,1/3+z
2/3+x,1/3+x-y,1/3+z
2/3-y,1/3-x,1/3+z
1/3+x,2/3+y,2/3+z
1/3-y,2/3+x-y,2/3+z
1/3-x+y,2/3-x,2/3+z
1/3+x-y,2/3-y,2/3-z
1/3-x,2/3-x+y,2/3-z
1/3+y,2/3+x,2/3-z
1/3-x,2/3-y,2/3-z
1/3+y,2/3-x+y,2/3-z
1/3+x-y,2/3+x,2/3-z
1/3-x+y,2/3+y,2/3+z
1/3+x,2/3+x-y,2/3+z
1/3-y,2/3-x,2/3+z
loop_
_atom_site_type_symbol
_atom_site_label
_atom_site_fract_x
_atom_site_fract_y
_atom_site_fract_z
Si Si1 0.967946 0.161351 0.861946
Si Si2 0.567556 0.559492 0.825678
Si Si3 0.131044 0.130133 0.245625
Si Si4 0.638740 0.067479 0.632708
Si Si5 0.013990 0.729549 0.411701
Si Si6 0.274757 0.857938 0.709622
O O1 0.906525 0.093476 0.889975
O O2 0.934450 0.196770 0.827261
O O3 0.003985 0.139598 0.818042
O O4 0.023898 0.213736 0.902052
O O5 0.515716 0.484285 0.805907
O O6 0.604610 0.549906 0.877316
O O7 0.613470 0.601382 0.776370
O O8 0.105769 0.052885 0.260766
O O9 0.203195 0.175235 0.272876
O O10 0.074252 0.148503 0.264591
O O11 0.657254 0.089154 0.694692
O O12 0.695467 0.055770 0.607649
O O13 0.568388 0.998046 0.622998
O O14 0.218468 0.781533 0.695136
O O15 0.333334 0.889418 0.666667
#
# Coordination Sequence:
#
# PCOD8324114 Si02
#       6
#    36  36  36  36  36  36
#     4  10  20  36  56  81 112 150 194 238 285 332
#     4  10  19  34  57  82 113 153 191 226 277 337
#     4  11  24  41  60  82 111 151 196 240 284 337
#     4  11  21  38  56  86 116 148 184 230 293 345
#     4  10  20  35  56  82 120 146 183 234 282 339
#     4  12  23  37  57  83 114 150 192 239 289 341
#
# _framework density 18.879873
#
# number of rings (size 3 to 8) (size 9 to 14) (size 15 to 20)
#    0.000    1.333    5.000    1.667    0.000    4.000 
#    0.000    3.333    0.000    4.000    0.000    0.000 
#    0.000    0.000    0.000    8.500    0.000    0.000 
#
# Total GULP energy -892000.050439 kJ/mol
# GULP energy per Si atom -12388.889589 kJ/mol
# Density = 1.883690 g / cm^3
# Si number density = 18.879873 Si / 1000 Ang^3
#
#
#
# Elastic Constant Matrix: (Units=GPa)
#
#
# Indices 1 2 3 4 5 6 
#
# 1 96.9426 51.6746 34.4644 3.0887 0.0000 0.0000
# 2 51.6746 96.9426 34.4644 -3.0887 0.0000 0.0000
# 3 34.4644 34.4644 91.1032 0.0000 0.0000 0.0000
# 4 3.0887 -3.0887 0.0000 15.6156 0.0000 0.0000
# 5 0.0000 0.0000 0.0000 0.0000 15.6156 3.0887
# 6 0.0000 0.0000 0.0000 0.0000 3.0887 22.6340
#
#
#
# Elastic Compliance Matrix: (Units=1/GPa)
#
#
# Indices 1 2 3 4 5 6 
#
# 1 0.015432 -0.007271 -0.003087 -0.004491 0.000000 0.000000
# 2 -0.007271 0.015432 -0.003087 0.004491 0.000000 0.000000
# 3 -0.003087 -0.003087 0.013312 0.000000 0.000000 0.000000
# 4 -0.004491 0.004491 0.000000 0.065815 0.000000 0.000000
# 5 0.000000 0.000000 0.000000 0.000000 0.065815 -0.008981
# 6 0.000000 0.000000 0.000000 0.000000 -0.008981 0.045407
#
#
# Mechanical properties :
#
#
# Convention : Reuss Voigt Hill
#
# Bulk Modulus (GPa) = 57.85430 58.46614 58.16022
# Shear Modulus (GPa) = 19.69539 21.73203 20.71371
#
# Velocity S-wave (km/s) = 3.23336 3.39642 3.31589
# Velocity P-wave (km/s) = 6.68202 6.81290 6.74777
#
# Compressibility (1/GPa) = 0.01728480
#
# Stress axis : x y z
#
# Youngs Moduli (GPa) = 64.80044 64.80044 75.11863
#
# Poissons Ratio (x) = 0.47120 0.23190
# Poissons Ratio (y) = 0.47120 0.23190
# Poissons Ratio (z) = 0.20005 0.20005
#
# Static dielectric constant tensor:
#      x y z
#    x 3.416970 0.000000 0.000000 
#    y 0.000000 3.416970 0.000000 
#    z 0.000000 0.000000 3.548300 
# 
# 
# High freq. dielectric constant tensor:
#      x y z
#    x 1.724620 0.000000 0.000000 
#    y 0.000000 1.724620 0.000000 
#    z 0.000000 0.000000 1.730290 
# 
# From -- ./inp_files/8413.got.cif
#   From: 2010.03.12/outbox.cif.g09.slc.cpg/sg166_5_cif.got.tgz:8413.got - 2010.04.02 06:38:31.
