data_PCOD8324966
_publ_section_title
;
Structure prediction by ZEFSAII (Michael W. Deem and Ramdas Pophale) SiO2 
 PCOD8324966
Probable space group: P -6
;
_chemical_formula_sum "Si O2"
_cell_formula_units_Z 30
_cell_length_a 8.474957
_cell_length_b 8.474957
_cell_length_c 24.274158
_cell_angle_alpha 90.000000
_cell_angle_beta 90.000000
_cell_angle_gamma 120.000000
_cell_volume 1509.905659
_symmetry_space_group_name_H-M "P -6"
_symmetry_group_IT_number 174
_symmetry_cell_setting 'hexagonal'
loop_
_space_group_symop_operation_xyz
x,y,z
-x+y,-x,-z
-y,x-y,z
x,y,-z
-x+y,-x,z
-y,x-y,-z
loop_
_atom_site_type_symbol
_atom_site_label
_atom_site_fract_x
_atom_site_fract_y
_atom_site_fract_z
Si Si1 0.999111 0.661760 0.882320
Si Si2 0.027461 0.215991 0.381358
Si Si3 0.122532 0.653387 0.000000
Si Si4 0.138103 0.457320 0.278710
Si Si5 0.327433 0.996510 0.837226
Si Si6 0.786118 0.813731 0.500000
O O1 0.071996 0.536874 0.855745
O O2 0.798150 0.597901 0.859405
O O3 0.131558 0.868652 0.864228
O O4 0.001487 0.645336 0.948181
O O5 0.188855 0.164525 0.376135
O O6 0.042369 0.356151 0.334957
O O7 0.040482 0.312901 0.441384
O O8 0.160505 0.482292 0.000000
O O9 0.346324 0.494055 0.276072
O O10 0.017419 0.327351 0.228917
O O11 0.975506 0.810395 0.500000
#
# Coordination Sequence:
#
# PCOD8324966 Si02
#       6
#     6   6   3   6   6   3
#     4  12  24  42  68  91 123 161 202 250 315 375
#     4   8  16  29  56  84 105 152 210 254 298 373
#     4  10  20  42  72  88 120 156 188 250 328 366
#     4  10  21  36  54  79 127 161 196 255 321 342
#     4  12  24  43  61  96 123 166 203 256 312 380
#     4   6  10  26  46  78 116 140 190 262 312 348
#
# _framework density 19.868791000000002
#
# number of rings (size 3 to 8) (size 9 to 14) (size 15 to 20)
#    1.200    0.800    4.000    1.200    2.800    1.600 
#    0.000    1.000    0.000    0.800    0.000    0.000 
#    0.000    0.000    0.000    0.000    0.000    0.000 
#
# Total GULP energy -371654.945301 kJ/mol
# GULP energy per Si atom -12388.498177 kJ/mol
# Density = 1.982357 g / cm^3
# Si number density = 19.868791 Si / 1000 Ang^3
#
#
#
# Elastic Constant Matrix: (Units=GPa)
#
#
# Indices 1 2 3 4 5 6 
#
# 1 55.3936 9.9071 40.0210 0.0000 0.0000 0.0000
# 2 9.9071 55.3936 40.0210 0.0000 0.0000 0.0000
# 3 40.0210 40.0210 222.5123 0.0000 0.0000 0.0000
# 4 0.0000 0.0000 0.0000 26.0374 0.0000 0.0000
# 5 0.0000 0.0000 0.0000 0.0000 26.0374 0.0000
# 6 0.0000 0.0000 0.0000 0.0000 0.0000 22.7433
#
#
#
# Elastic Compliance Matrix: (Units=1/GPa)
#
#
# Indices 1 2 3 4 5 6 
#
# 1 0.020815 -0.001170 -0.003533 0.000000 0.000000 0.000000
# 2 -0.001170 0.020815 -0.003533 0.000000 0.000000 0.000000
# 3 -0.003533 -0.003533 0.005765 0.000000 0.000000 0.000000
# 4 0.000000 0.000000 0.000000 0.038406 0.000000 0.000000
# 5 0.000000 0.000000 0.000000 0.000000 0.038406 0.000000
# 6 0.000000 0.000000 0.000000 0.000000 0.000000 0.043969
#
#
# Mechanical properties :
#
#
# Convention : Reuss Voigt Hill
#
# Bulk Modulus (GPa) = 32.34014 57.02197 44.68106
# Shear Modulus (GPa) = 25.64682 31.18699 28.41690
#
# Velocity S-wave (km/s) = 3.59668 3.96618 3.78594
# Velocity P-wave (km/s) = 5.79313 7.05235 6.45353
#
# Compressibility (1/GPa) = 0.03092132
#
# Stress axis : x y z
#
# Youngs Moduli (GPa) = 48.04322 48.04322 173.45678
#
# Poissons Ratio (x) = 0.05621 0.61287
# Poissons Ratio (y) = 0.05621 0.61287
# Poissons Ratio (z) = 0.16975 0.16975
#
# Static dielectric constant tensor:
#      x y z
#    x 3.129730 0.000000 0.000000 
#    y 0.000000 3.129730 0.000000 
#    z 0.000000 0.000000 3.693480 
# 
# 
# High freq. dielectric constant tensor:
#      x y z
#    x 1.737180 0.000000 0.000000 
#    y 0.000000 1.737180 0.000000 
#    z 0.000000 0.000000 1.796150 
# 
# From -- ./inp_files/1072.got.cif
#   From: 2010.03.12/outbox.cif.g09.slc.cpg/sg174_cif.got.tgz:1072.got - 2010.04.02 06:54:58.
