data_PCOD8324687
_publ_section_title
;
Structure prediction by ZEFSAII (Michael W. Deem and Ramdas Pophale) SiO2 
 PCOD8324687
Probable space group: P 65
;
_chemical_formula_sum "Si O2"
_cell_formula_units_Z 48
_cell_length_a 15.759169
_cell_length_b 15.759169
_cell_length_c 10.846840
_cell_angle_alpha 90.000000
_cell_angle_beta 90.000000
_cell_angle_gamma 120.000000
_cell_volume 2332.923466
_symmetry_space_group_name_H-M "P 65"
_symmetry_group_IT_number 170
_symmetry_cell_setting 'hexagonal'
loop_
_space_group_symop_operation_xyz
x,y,z
x-y,x,5/6+z
-y,x-y,2/3+z
-x,-y,1/2+z
-x+y,-x,1/3+z
y,-x+y,1/6+z
loop_
_atom_site_type_symbol
_atom_site_label
_atom_site_fract_x
_atom_site_fract_y
_atom_site_fract_z
Si Si1 0.655061 0.120359 0.025950
Si Si2 0.818425 0.874593 0.175808
Si Si3 0.261949 0.688210 0.203529
Si Si4 0.911175 0.362731 0.095290
Si Si5 0.779911 0.180343 0.256004
Si Si6 0.674800 0.230961 0.453585
Si Si7 0.129950 0.182707 0.913052
Si Si8 0.231604 0.389939 0.041390
O O1 0.682777 0.122641 0.170435
O O2 0.617907 0.194926 0.990871
O O3 0.753651 0.148115 0.952806
O O4 0.571317 0.014805 0.981845
O O5 0.714045 0.835473 0.114786
O O6 0.803674 0.806197 0.294038
O O7 0.869452 0.984639 0.232057
O O8 0.354349 0.694910 0.272034
O O9 0.195033 0.711345 0.289670
O O10 0.303721 0.771403 0.097717
O O11 0.859556 0.280384 0.196637
O O12 0.847438 0.414804 0.074465
O O13 0.920674 0.314374 0.967608
O O14 0.750232 0.209211 0.383030
O O15 0.018864 0.134967 0.857822
O O16 0.174721 0.291460 0.963753
#
# Coordination Sequence:
#
# PCOD8324687 Si02
#       8
#     6   6   6   6   6   6   6   6
#     4  11  23  42  66  98 134 175 230 280 327 409
#     4  10  23  45  67  96 136 170 225 285 347 418
#     4  12  22  44  68  95 136 185 223 278 337 416
#     4  11  23  42  66  98 134 175 230 280 327 409
#     4  11  23  42  68  95 139 173 225 279 348 396
#     4  12  22  44  68  95 136 185 223 278 337 416
#     4  10  23  45  67  96 136 170 225 285 347 418
#     4  11  23  42  68  95 139 173 225 279 348 396
#
# _framework density 20.575042
#
# number of rings (size 3 to 8) (size 9 to 14) (size 15 to 20)
#    0.000    1.000    5.000    2.250    3.500    1.000 
#    9.000   21.250    0.000    0.000    0.000    0.000 
#    0.000    0.000    0.000    0.000    0.000    0.000 
#
# Total GULP energy -595064.697248 kJ/mol
# GULP energy per Si atom -12397.181193 kJ/mol
# Density = 2.052821 g / cm^3
# Si number density = 20.575042 Si / 1000 Ang^3
#
#
#
# Elastic Constant Matrix: (Units=GPa)
#
#
# Indices 1 2 3 4 5 6 
#
# 1 81.0815 27.7924 20.4974 0.0000 0.0000 0.0000
# 2 27.7924 81.0815 20.4974 0.0000 0.0000 0.0000
# 3 20.4974 20.4974 59.8381 0.0000 0.0000 0.0000
# 4 0.0000 0.0000 0.0000 46.8064 0.0000 0.0000
# 5 0.0000 0.0000 0.0000 0.0000 46.8064 0.0000
# 6 0.0000 0.0000 0.0000 0.0000 0.0000 26.6445
#
#
#
# Elastic Compliance Matrix: (Units=1/GPa)
#
#
# Indices 1 2 3 4 5 6 
#
# 1 0.014655 -0.004110 -0.003612 0.000000 0.000000 0.000000
# 2 -0.004110 0.014655 -0.003612 0.000000 0.000000 0.000000
# 3 -0.003612 -0.003612 0.019186 0.000000 0.000000 0.000000
# 4 0.000000 0.000000 0.000000 0.021365 0.000000 0.000000
# 5 0.000000 0.000000 0.000000 0.000000 0.021365 0.000000
# 6 0.000000 0.000000 0.000000 0.000000 0.000000 0.037531
#
#
# Mechanical properties :
#
#
# Convention : Reuss Voigt Hill
#
# Bulk Modulus (GPa) = 38.71794 39.95283 39.33539
# Shear Modulus (GPa) = 31.24299 34.26572 32.75435
#
# Velocity S-wave (km/s) = 3.90101 4.08536 3.99425
# Velocity P-wave (km/s) = 6.25694 6.45862 6.35858
#
# Compressibility (1/GPa) = 0.02582782
#
# Stress axis : x y z
#
# Youngs Moduli (GPa) = 68.23468 68.23468 52.12016
#
# Poissons Ratio (x) = 0.28046 0.18827
# Poissons Ratio (y) = 0.28046 0.18827
# Poissons Ratio (z) = 0.24648 0.24648
#
# Static dielectric constant tensor:
#      x y z
#    x 3.574220 0.000000 0.000000 
#    y 0.000000 3.574220 0.000000 
#    z 0.000000 0.000000 3.941880 
# 
# 
# High freq. dielectric constant tensor:
#      x y z
#    x 1.802570 0.000000 0.000000 
#    y 0.000000 1.802570 0.000000 
#    z 0.000000 0.000000 1.818260 
# 
# From -- ./inp_files/1095.got.cif
#   From: 2010.03.12/outbox.cif.g09.slc.cpg/sg170_cif.got.tgz:1095.got - 2010.04.02 06:47:37.
