data_PCOD8324244
_publ_section_title
;
Structure prediction by ZEFSAII (Michael W. Deem and Ramdas Pophale) SiO2 
 PCOD8324244
Probable space group: R -3 M
;
_chemical_formula_sum "Si O2"
_cell_formula_units_Z 162
_cell_length_a 21.374927
_cell_length_b 21.374927
_cell_length_c 21.827949
_cell_angle_alpha 90.000000
_cell_angle_beta 90.000000
_cell_angle_gamma 120.000000
_cell_volume 8636.799594
_symmetry_space_group_name_H-M "R -3 M"
_symmetry_group_IT_number 166
_symmetry_cell_setting 'hexagonal'
loop_
_space_group_symop_operation_xyz
x,y,z
-y,x-y,z
-x+y,-x,z
x-y,-y,-z
-x,-x+y,-z
y,x,-z
-x,-y,-z
y,-x+y,-z
x-y,x,-z
-x+y,y,z
x,x-y,z
-y,-x,z
2/3+x,1/3+y,1/3+z
2/3-y,1/3+x-y,1/3+z
2/3-x+y,1/3-x,1/3+z
2/3+x-y,1/3-y,1/3-z
2/3-x,1/3-x+y,1/3-z
2/3+y,1/3+x,1/3-z
2/3-x,1/3-y,1/3-z
2/3+y,1/3-x+y,1/3-z
2/3+x-y,1/3+x,1/3-z
2/3-x+y,1/3+y,1/3+z
2/3+x,1/3+x-y,1/3+z
2/3-y,1/3-x,1/3+z
1/3+x,2/3+y,2/3+z
1/3-y,2/3+x-y,2/3+z
1/3-x+y,2/3-x,2/3+z
1/3+x-y,2/3-y,2/3-z
1/3-x,2/3-x+y,2/3-z
1/3+y,2/3+x,2/3-z
1/3-x,2/3-y,2/3-z
1/3+y,2/3-x+y,2/3-z
1/3+x-y,2/3+x,2/3-z
1/3-x+y,2/3+y,2/3+z
1/3+x,2/3+x-y,2/3+z
1/3-y,2/3-x,2/3+z
loop_
_atom_site_type_symbol
_atom_site_label
_atom_site_fract_x
_atom_site_fract_y
_atom_site_fract_z
Si Si1 0.262704 0.008822 0.205814
Si Si2 0.812985 0.478119 0.449953
Si Si3 0.121630 0.385242 0.006457
Si Si4 0.892961 0.559628 0.333334
Si Si5 0.257715 0.376711 0.270363
O O1 0.333334 0.061090 0.166667
O O2 0.267923 0.048390 0.269065
O O3 0.190034 0.994740 0.173163
O O4 0.257227 0.931658 0.216182
O O5 0.740179 0.480357 0.439432
O O6 0.793288 0.396644 0.464412
O O7 0.862000 0.504416 0.389379
O O8 0.201749 0.403497 0.020734
O O9 0.109530 0.437898 0.052005
O O10 0.065263 0.302396 0.023264
O O11 0.202621 0.405242 0.253272
O O12 0.234282 0.333334 0.333334
#
# Coordination Sequence:
#
# PCOD8324244 Si02
#       5
#    36  36  36  18  36
#     4  11  20  35  56  84 109 139 179 227 277 318
#     4  12  25  39  55  77 110 149 186 223 268 326
#     4  11  20  35  57  84 114 142 178 225 276 323
#     4  12  22  38  56  78 106 144 190 234 274 312
#     4   9  18  35  56  79 108 140 179 222 270 324
#
# _framework density 18.756948000000001
#
# number of rings (size 3 to 8) (size 9 to 14) (size 15 to 20)
#    0.000    1.111    5.556    3.556    0.000    1.778 
#    0.000    2.222    0.000    0.444    0.000    0.000 
#    0.000    0.889    0.000    0.000    0.000    0.000 
#
# Total GULP energy -669760.407199 kJ/mol
# GULP energy per Si atom -12402.970504 kJ/mol
# Density = 1.871426 g / cm^3
# Si number density = 18.756948 Si / 1000 Ang^3
#
#
#
# Elastic Constant Matrix: (Units=GPa)
#
#
# Indices 1 2 3 4 5 6 
#
# 1 116.8793 71.9274 18.3016 6.4708 0.0001 0.0000
# 2 71.9274 116.8793 18.3016 -6.4708 -0.0001 0.0000
# 3 18.3016 18.3016 39.3584 0.0000 0.0000 0.0000
# 4 6.4708 -6.4708 0.0000 18.2558 0.0000 -0.0001
# 5 0.0001 -0.0001 0.0000 0.0000 18.2558 6.4708
# 6 0.0000 0.0000 0.0000 -0.0001 6.4708 22.4759
#
#
#
# Elastic Compliance Matrix: (Units=1/GPa)
#
#
# Indices 1 2 3 4 5 6 
#
# 1 0.015298 -0.009476 -0.002707 -0.008781 0.000000 0.000000
# 2 -0.009476 0.015298 -0.002707 0.008781 0.000000 0.000000
# 3 -0.002707 -0.002707 0.027925 0.000000 0.000000 0.000000
# 4 -0.008781 0.008781 0.000000 0.061002 0.000000 0.000000
# 5 0.000000 0.000000 0.000000 0.000000 0.061002 -0.017562
# 6 0.000000 0.000000 0.000000 0.000000 -0.017562 0.049548
#
#
# Mechanical properties :
#
#
# Convention : Reuss Voigt Hill
#
# Bulk Modulus (GPa) = 34.79482 54.46423 44.62953
# Shear Modulus (GPa) = 18.55748 22.76992 20.66370
#
# Velocity S-wave (km/s) = 3.14883 3.48795 3.32272
# Velocity P-wave (km/s) = 5.64011 6.73208 6.21014
#
# Compressibility (1/GPa) = 0.02873991
#
# Stress axis : x y z
#
# Youngs Moduli (GPa) = 65.36950 65.36950 35.81029
#
# Poissons Ratio (x) = 0.61947 0.09693
# Poissons Ratio (y) = 0.61947 0.09693
# Poissons Ratio (z) = 0.17695 0.17695
#
# Static dielectric constant tensor:
#      x y z
#    x 3.573540 0.000000 0.000000 
#    y 0.000000 3.573540 0.000000 
#    z 0.000000 0.000000 3.425170 
# 
# 
# High freq. dielectric constant tensor:
#      x y z
#    x 1.722740 0.000000 0.000000 
#    y 0.000000 1.722740 0.000000 
#    z 0.000000 0.000000 1.722050 
# 
# From -- ./inp_files/6739.got.cif
#   From: 2010.03.12/outbox.cif.g09.slc.cpg/sg166_4_cif.got.tgz:6739.got - 2010.04.02 06:38:31.
