data_PCOD8324174
_publ_section_title
;
Structure prediction by ZEFSAII (Michael W. Deem and Ramdas Pophale) SiO2 
 PCOD8324174
Probable space group: R -3 M
;
_chemical_formula_sum "Si O2"
_cell_formula_units_Z 126
_cell_length_a 25.366509
_cell_length_b 25.366509
_cell_length_c 12.185984
_cell_angle_alpha 90.000000
_cell_angle_beta 90.000000
_cell_angle_gamma 120.000000
_cell_volume 6790.670229
_symmetry_space_group_name_H-M "R -3 M"
_symmetry_group_IT_number 166
_symmetry_cell_setting 'hexagonal'
loop_
_space_group_symop_operation_xyz
x,y,z
-y,x-y,z
-x+y,-x,z
x-y,-y,-z
-x,-x+y,-z
y,x,-z
-x,-y,-z
y,-x+y,-z
x-y,x,-z
-x+y,y,z
x,x-y,z
-y,-x,z
2/3+x,1/3+y,1/3+z
2/3-y,1/3+x-y,1/3+z
2/3-x+y,1/3-x,1/3+z
2/3+x-y,1/3-y,1/3-z
2/3-x,1/3-x+y,1/3-z
2/3+y,1/3+x,1/3-z
2/3-x,1/3-y,1/3-z
2/3+y,1/3-x+y,1/3-z
2/3+x-y,1/3+x,1/3-z
2/3-x+y,1/3+y,1/3+z
2/3+x,1/3+x-y,1/3+z
2/3-y,1/3-x,1/3+z
1/3+x,2/3+y,2/3+z
1/3-y,2/3+x-y,2/3+z
1/3-x+y,2/3-x,2/3+z
1/3+x-y,2/3-y,2/3-z
1/3-x,2/3-x+y,2/3-z
1/3+y,2/3+x,2/3-z
1/3-x,2/3-y,2/3-z
1/3+y,2/3-x+y,2/3-z
1/3+x-y,2/3+x,2/3-z
1/3-x+y,2/3+y,2/3+z
1/3+x,2/3+x-y,2/3+z
1/3-y,2/3-x,2/3+z
loop_
_atom_site_type_symbol
_atom_site_label
_atom_site_fract_x
_atom_site_fract_y
_atom_site_fract_z
Si Si1 0.122733 0.000000 0.500000
Si Si2 0.041165 0.203245 0.704908
Si Si3 0.211830 0.168055 0.912084
Si Si4 0.895712 0.671515 0.045330
O O1 0.114662 0.057331 0.512936
O O2 0.159930 0.002673 0.393048
O O3 0.095475 0.190950 0.744494
O O4 0.070864 0.271808 0.657382
O O5 0.994413 0.193082 0.801357
O O6 0.208274 0.104137 0.888820
O O7 0.160339 0.160339 0.000000
O O8 0.277068 0.220454 0.962289
O O9 0.846016 0.692031 0.066060
O O10 0.920472 0.666667 0.166667
#
# Coordination Sequence:
#
# PCOD8324174 Si02
#       4
#    18  36  36  36
#     4  10  21  38  60  84 116 158 201 238 280 338
#     4  10  20  37  58  81 111 150 193 237 285 341
#     4  11  20  32  55  84 112 144 186 232 284 342
#     4   9  17  32  53  76 104 142 182 223 277 343
#
# _framework density 18.554869
#
# number of rings (size 3 to 8) (size 9 to 14) (size 15 to 20)
#    0.000    2.000    2.857    1.857    0.000    0.000 
#    0.000    4.286    0.000   13.714    0.000    0.000 
#    0.000    0.000    0.000    0.000    0.000    0.000 
#
# Total GULP energy -520395.072321 kJ/mol
# GULP energy per Si atom -12390.358865 kJ/mol
# Density = 1.851264 g / cm^3
# Si number density = 18.554869 Si / 1000 Ang^3
#
#
#
# Elastic Constant Matrix: (Units=GPa)
#
#
# Indices 1 2 3 4 5 6 
#
# 1 71.9141 56.2038 66.1061 2.9855 -0.0002 0.0001
# 2 56.2038 71.9143 66.1067 -2.9855 0.0000 -0.0002
# 3 66.1061 66.1067 138.0258 0.0002 -0.0002 0.0002
# 4 2.9855 -2.9855 0.0002 34.8413 0.0001 -0.0001
# 5 -0.0002 0.0000 -0.0002 0.0001 34.8411 2.9855
# 6 0.0001 -0.0002 0.0002 -0.0001 2.9855 7.8552
#
#
#
# Elastic Compliance Matrix: (Units=1/GPa)
#
#
# Indices 1 2 3 4 5 6 
#
# 1 0.040614 -0.025181 -0.007391 -0.005638 0.000000 -0.000001
# 2 -0.025181 0.040614 -0.007392 0.005638 0.000000 0.000002
# 3 -0.007391 -0.007392 0.014325 0.000000 0.000000 0.000000
# 4 -0.005638 0.005638 0.000000 0.029668 0.000000 0.000000
# 5 0.000000 0.000000 0.000000 0.000000 0.029668 -0.011276
# 6 -0.000001 0.000002 0.000000 0.000000 -0.011276 0.131590
#
#
# Mechanical properties :
#
#
# Convention : Reuss Voigt Hill
#
# Bulk Modulus (GPa) = 63.99902 73.18750 68.59326
# Shear Modulus (GPa) = 13.45478 21.73668 17.59573
#
# Velocity S-wave (km/s) = 2.69575 3.42640 3.08280
# Velocity P-wave (km/s) = 6.65253 7.42853 7.05121
#
# Compressibility (1/GPa) = 0.01562524
#
# Stress axis : x y z
#
# Youngs Moduli (GPa) = 24.62220 24.62197 69.80649
#
# Poissons Ratio (x) = 0.62000 0.51596
# Poissons Ratio (y) = 0.62001 0.51600
# Poissons Ratio (z) = 0.18199 0.18200
#
# Static dielectric constant tensor:
#      x y z
#    x 3.501840 0.000000 0.000000 
#    y 0.000000 3.501840 0.000000 
#    z 0.000000 0.000000 3.361430 
# 
# 
# High freq. dielectric constant tensor:
#      x y z
#    x 1.716700 0.000000 0.000000 
#    y 0.000000 1.716700 0.000000 
#    z 0.000000 0.000000 1.714160 
# 
# From -- ./inp_files/2841.got.cif
#   From: 2010.03.12/outbox.cif.g09.slc.cpg/sg166_2_cif.got.tgz:2841.got - 2010.04.02 06:38:31.
