data_PCOD8324730
_publ_section_title
;
Structure prediction by ZEFSAII (Michael W. Deem and Ramdas Pophale) SiO2 
 PCOD8324730
Probable space group: P 62
;
_chemical_formula_sum "Si O2"
_cell_formula_units_Z 30
_cell_length_a 11.913762
_cell_length_b 11.913762
_cell_length_c 12.260967
_cell_angle_alpha 90.000000
_cell_angle_beta 90.000000
_cell_angle_gamma 120.000000
_cell_volume 1507.138608
_symmetry_space_group_name_H-M "P 62"
_symmetry_group_IT_number 171
_symmetry_cell_setting 'hexagonal'
loop_
_space_group_symop_operation_xyz
x,y,z
x-y,x,1/3+z
-y,x-y,2/3+z
-x,-y,z
-x+y,-x,1/3+z
y,-x+y,2/3+z
loop_
_atom_site_type_symbol
_atom_site_label
_atom_site_fract_x
_atom_site_fract_y
_atom_site_fract_z
Si Si1 0.151912 0.454176 0.212570
Si Si2 0.846231 0.145903 0.987619
Si Si3 0.697735 0.545824 0.839629
Si Si4 0.299673 0.145902 0.064579
Si Si5 0.713870 0.856936 0.692766
O O1 0.218294 0.609147 0.192766
O O2 0.190491 0.432964 0.334372
O O3 0.199884 0.381659 0.129814
O O4 0.800116 0.181775 0.255718
O O5 0.836459 0.163545 0.859433
O O6 0.809513 0.242476 0.051160
O O7 0.990455 0.188277 0.026160
O O8 0.751942 0.000000 0.026098
O O9 0.608174 0.608175 0.859435
O O10 0.197824 0.188278 0.026039
#
# Coordination Sequence:
#
# PCOD8324730 Si02
#       5
#     6   6   6   6   6
#     4   9  19  35  53  76 112 164 206 242 296 370
#     4  11  20  32  55  92 131 158 199 259 324 384
#     4   9  19  35  53  76 112 164 206 242 296 370
#     4  11  20  32  55  92 131 158 199 259 324 384
#     4  10  19  32  54  84 123 166 198 244 320 390
#
# _framework density 19.905270000000002
#
# number of rings (size 3 to 8) (size 9 to 14) (size 15 to 20)
#    0.000    2.000    4.000    0.600    0.000    1.600 
#    0.000    2.000    0.000    0.000    0.000    0.000 
#    0.000    0.000    0.000    0.000    0.000    0.000 
#
# Total GULP energy -371813.692125 kJ/mol
# GULP energy per Si atom -12393.789738 kJ/mol
# Density = 1.985997 g / cm^3
# Si number density = 19.905270 Si / 1000 Ang^3
#
#
#
# Elastic Constant Matrix: (Units=GPa)
#
#
# Indices 1 2 3 4 5 6 
#
# 1 79.7634 38.2118 44.3692 0.0000 0.0000 0.0000
# 2 38.2118 79.7634 44.3692 0.0000 0.0000 0.0000
# 3 44.3692 44.3692 184.5166 0.0000 0.0000 0.0000
# 4 0.0000 0.0000 0.0000 20.4373 0.0000 0.0000
# 5 0.0000 0.0000 0.0000 0.0000 20.4373 0.0000
# 6 0.0000 0.0000 0.0000 0.0000 0.0000 20.7758
#
#
#
# Elastic Compliance Matrix: (Units=1/GPa)
#
#
# Indices 1 2 3 4 5 6 
#
# 1 0.017207 -0.006859 -0.002488 0.000000 0.000000 0.000000
# 2 -0.006859 0.017207 -0.002488 0.000000 0.000000 0.000000
# 3 -0.002488 -0.002488 0.006616 0.000000 0.000000 0.000000
# 4 0.000000 0.000000 0.000000 0.048930 0.000000 0.000000
# 5 0.000000 0.000000 0.000000 0.000000 0.048930 0.000000
# 6 0.000000 0.000000 0.000000 0.000000 0.000000 0.048133
#
#
# Mechanical properties :
#
#
# Convention : Reuss Voigt Hill
#
# Bulk Modulus (GPa) = 57.60681 66.43819 62.02250
# Shear Modulus (GPa) = 23.09664 26.80298 24.94981
#
# Velocity S-wave (km/s) = 3.41005 3.67349 3.54422
# Velocity P-wave (km/s) = 6.67143 7.17233 6.92641
#
# Compressibility (1/GPa) = 0.01735906
#
# Stress axis : x y z
#
# Youngs Moduli (GPa) = 58.11513 58.11513 151.14303
#
# Poissons Ratio (x) = 0.39862 0.37609
# Poissons Ratio (y) = 0.39862 0.37609
# Poissons Ratio (z) = 0.14461 0.14461
#
# Static dielectric constant tensor:
#      x y z
#    x 3.531770 0.000000 0.000000 
#    y 0.000000 3.531770 0.000000 
#    z 0.000000 0.000000 3.872000 
# 
# 
# High freq. dielectric constant tensor:
#      x y z
#    x 1.752580 0.000000 0.000000 
#    y 0.000000 1.752580 0.000000 
#    z 0.000000 0.000000 1.789980 
# 
# From -- ./inp_files/1874.got.cif
#   From: 2010.03.12/outbox.cif.g09.slc.cpg/sg171_1_cif.got.tgz:1874.got - 2010.04.02 06:49:11.
