data_PCOD8324890
_publ_section_title
;
Structure prediction by ZEFSAII (Michael W. Deem and Ramdas Pophale) SiO2 
 PCOD8324890
Probable space group: P 63
;
_chemical_formula_sum "Si O2"
_cell_formula_units_Z 34
_cell_length_a 14.211803
_cell_length_b 14.211803
_cell_length_c 8.645557
_cell_angle_alpha 90.000000
_cell_angle_beta 90.000000
_cell_angle_gamma 120.000000
_cell_volume 1512.244340
_symmetry_space_group_name_H-M "P 63"
_symmetry_group_IT_number 173
_symmetry_cell_setting 'hexagonal'
loop_
_space_group_symop_operation_xyz
x,y,z
x-y,x,1/2+z
-y,x-y,z
-x,-y,1/2+z
-x+y,-x,z
y,-x+y,1/2+z
loop_
_atom_site_type_symbol
_atom_site_label
_atom_site_fract_x
_atom_site_fract_y
_atom_site_fract_z
Si Si1 0.582149 0.115153 0.725130
Si Si2 0.214295 0.179520 0.381149
Si Si3 0.791301 0.828394 0.534942
Si Si4 0.629804 0.598901 0.477324
Si Si5 0.666668 0.333335 0.263555
Si Si6 0.183789 0.453039 0.935632
Si Si7 0.666668 0.333335 0.892671
O O1 0.473114 0.051335 0.627612
O O2 0.685968 0.166221 0.610662
O O3 0.588220 0.211889 0.829591
O O4 0.569730 0.020715 0.835969
O O5 0.152785 0.222118 0.491459
O O6 0.343473 0.269415 0.384267
O O7 0.182507 0.058803 0.428467
O O8 0.168279 0.166254 0.209146
O O9 0.671880 0.723961 0.518043
O O10 0.726530 0.581576 0.422481
O O11 0.663475 0.223628 0.327854
O O12 0.666668 0.333334 0.078699
#
# Coordination Sequence:
#
# PCOD8324890 Si02
#       7
#     6   6   6   6   2   6   2
#     4  12  26  51  73 113 151 204 257 318 389 461
#     4  11  26  45  76 105 149 195 244 314 374 460
#     4  11  26  47  73 111 145 195 247 307 381 451
#     4  11  28  45  77 109 150 197 253 316 379 462
#     4  12  25  50  76 117 148 209 265 312 397 458
#     4  11  25  49  76 103 155 202 247 324 378 458
#     4  12  28  47  85 102 160 212 259 315 400 470
#
# _framework density 22.483138
#
# number of rings (size 3 to 8) (size 9 to 14) (size 15 to 20)
#    0.000    0.706    3.529    1.412   17.294    0.000 
#    0.000    0.000    0.000    0.000    0.000    0.000 
#    0.000    0.000    0.000    0.000    0.000    0.000 
#
# Total GULP energy -421576.500041 kJ/mol
# GULP energy per Si atom -12399.308825 kJ/mol
# Density = 2.243196 g / cm^3
# Si number density = 22.483138 Si / 1000 Ang^3
#
#
#
# Elastic Constant Matrix: (Units=GPa)
#
#
# Indices 1 2 3 4 5 6 
#
# 1 104.1539 59.4481 35.2105 0.0000 0.0000 -0.0004
# 2 59.4481 104.1541 35.2097 0.0000 0.0000 0.0002
# 3 35.2105 35.2097 123.7452 0.0000 0.0000 0.0002
# 4 0.0000 0.0000 0.0000 31.8019 -0.0008 0.0000
# 5 0.0000 0.0000 0.0000 -0.0008 31.8018 0.0000
# 6 -0.0004 0.0002 0.0002 0.0000 0.0000 22.3532
#
#
#
# Elastic Compliance Matrix: (Units=1/GPa)
#
#
# Indices 1 2 3 4 5 6 
#
# 1 0.014667 -0.007701 -0.001982 0.000000 0.000000 0.000000
# 2 -0.007701 0.014667 -0.001982 0.000000 0.000000 0.000000
# 3 -0.001982 -0.001982 0.009209 0.000000 0.000000 0.000000
# 4 0.000000 0.000000 0.000000 0.031445 0.000001 0.000000
# 5 0.000000 0.000000 0.000000 0.000001 0.031445 0.000000
# 6 0.000000 0.000000 0.000000 0.000000 0.000000 0.044736
#
#
# Mechanical properties :
#
#
# Convention : Reuss Voigt Hill
#
# Bulk Modulus (GPa) = 65.73667 65.75442 65.74554
# Shear Modulus (GPa) = 28.64178 30.67035 29.65607
#
# Velocity S-wave (km/s) = 3.57308 3.69745 3.63579
# Velocity P-wave (km/s) = 6.80619 6.89476 6.85062
#
# Compressibility (1/GPa) = 0.01521221
#
# Stress axis : x y z
#
# Youngs Moduli (GPa) = 68.18035 68.18078 108.58947
#
# Poissons Ratio (x) = 0.52509 0.21523
# Poissons Ratio (y) = 0.52509 0.21521
# Poissons Ratio (z) = 0.13514 0.13512
#
# Static dielectric constant tensor:
#      x y z
#    x 4.304690 -0.000020 0.000000 
#    y -0.000020 4.304700 0.000000 
#    z 0.000000 0.000000 4.006440 
# 
# 
# High freq. dielectric constant tensor:
#      x y z
#    x 1.892690 0.000000 0.000000 
#    y 0.000000 1.892690 0.000000 
#    z 0.000000 0.000000 1.893650 
# 
# From -- ./inp_files/555.got.cif
#   From: 2010.03.12/outbox.cif.g09.slc.cpg/sg173_cif.got.tgz:555.got - 2010.04.02 06:54:12.
