data_PCOD8324587
_publ_section_title
;
Structure prediction by ZEFSAII (Michael W. Deem and Ramdas Pophale) SiO2 
 PCOD8324587
Probable space group: P 61
;
_chemical_formula_sum "Si O2"
_cell_formula_units_Z 48
_cell_length_a 12.080821
_cell_length_b 12.080821
_cell_length_c 18.855305
_cell_angle_alpha 90.000000
_cell_angle_beta 90.000000
_cell_angle_gamma 120.000000
_cell_volume 2383.181355
_symmetry_space_group_name_H-M "P 61"
_symmetry_group_IT_number 169
_symmetry_cell_setting 'hexagonal'
loop_
_space_group_symop_operation_xyz
x,y,z
x-y,x,1/6+z
-y,x-y,1/3+z
-x,-y,1/2+z
-x+y,-x,2/3+z
y,-x+y,5/6+z
loop_
_atom_site_type_symbol
_atom_site_label
_atom_site_fract_x
_atom_site_fract_y
_atom_site_fract_z
Si Si1 0.916004 0.319118 0.719660
Si Si2 0.088980 0.720828 0.861253
Si Si3 0.777765 0.195265 0.856702
Si Si4 0.635506 0.030031 0.377953
Si Si5 0.411767 0.230538 0.252980
Si Si6 0.206778 0.665695 0.631735
Si Si7 0.374926 0.527965 0.810425
Si Si8 0.587769 0.470021 0.819624
O O1 0.888043 0.262215 0.798524
O O2 0.911614 0.451700 0.716132
O O3 0.813664 0.213124 0.667312
O O4 0.045233 0.323159 0.696343
O O5 0.215643 0.862468 0.865231
O O6 0.122404 0.625295 0.903658
O O7 0.052442 0.671988 0.781439
O O8 0.958835 0.706607 0.897609
O O9 0.659971 0.211511 0.835768
O O10 0.835379 0.255514 0.933588
O O11 0.588568 0.927417 0.313915
O O12 0.547146 0.362124 0.252152
O O13 0.427289 0.137441 0.198371
O O14 0.238751 0.673002 0.547887
O O15 0.323039 0.786686 0.669003
O O16 0.468767 0.483448 0.842925
#
# Coordination Sequence:
#
# PCOD8324587 Si02
#       8
#     6   6   6   6   6   6   6   6
#     4  11  24  39  65  97 129 172 221 278 345 404
#     4  11  24  41  64  98 134 177 222 279 343 405
#     4  11  23  41  61  95 129 166 218 273 339 403
#     4  11  25  41  66  97 136 176 225 280 343 408
#     4  11  22  40  67  94 132 166 221 276 330 406
#     4  11  24  38  63  93 127 178 209 274 328 403
#     4  11  24  38  61  95 132 163 211 269 337 399
#     4  11  22  38  63  95 127 166 215 267 343 388
#
# _framework density 20.141143
#
# number of rings (size 3 to 8) (size 9 to 14) (size 15 to 20)
#    0.000    1.000    3.750    3.750   10.500    0.000 
#    0.000    0.000    0.000    4.500    0.000    0.000 
#    0.000    0.000    0.000    0.000    0.000    0.000 
#
# Total GULP energy -594853.721224 kJ/mol
# GULP energy per Si atom -12392.785859 kJ/mol
# Density = 2.009530 g / cm^3
# Si number density = 20.141143 Si / 1000 Ang^3
#
#
#
# Elastic Constant Matrix: (Units=GPa)
#
#
# Indices 1 2 3 4 5 6 
#
# 1 85.4409 41.3458 31.0683 0.0000 0.0000 0.0000
# 2 41.3458 85.4409 31.0683 0.0000 0.0000 0.0000
# 3 31.0683 31.0683 89.7411 0.0000 0.0000 0.0000
# 4 0.0000 0.0000 0.0000 35.3710 0.0000 0.0000
# 5 0.0000 0.0000 0.0000 0.0000 35.3710 0.0000
# 6 0.0000 0.0000 0.0000 0.0000 0.0000 22.0475
#
#
#
# Elastic Compliance Matrix: (Units=1/GPa)
#
#
# Indices 1 2 3 4 5 6 
#
# 1 0.016089 -0.006590 -0.003289 0.000000 0.000000 0.000000
# 2 -0.006590 0.016089 -0.003289 0.000000 0.000000 0.000000
# 3 -0.003289 -0.003289 0.013420 0.000000 0.000000 0.000000
# 4 0.000000 0.000000 0.000000 0.028272 0.000000 0.000000
# 5 0.000000 0.000000 0.000000 0.000000 0.028272 0.000000
# 6 0.000000 0.000000 0.000000 0.000000 0.000000 0.045357
#
#
# Mechanical properties :
#
#
# Convention : Reuss Voigt Hill
#
# Bulk Modulus (GPa) = 51.91055 51.95418 51.93236
# Shear Modulus (GPa) = 27.73893 29.03394 28.38644
#
# Velocity S-wave (km/s) = 3.71513 3.80086 3.75824
# Velocity P-wave (km/s) = 6.65073 6.71663 6.68376
#
# Compressibility (1/GPa) = 0.01926391
#
# Stress axis : x y z
#
# Youngs Moduli (GPa) = 62.15583 62.15583 74.51494
#
# Poissons Ratio (x) = 0.40959 0.24504
# Poissons Ratio (y) = 0.40959 0.24504
# Poissons Ratio (z) = 0.20440 0.20440
#
# Static dielectric constant tensor:
#      x y z
#    x 3.745340 0.000000 0.000000 
#    y 0.000000 3.745340 0.000000 
#    z 0.000000 0.000000 3.844440 
# 
# 
# High freq. dielectric constant tensor:
#      x y z
#    x 1.772190 0.000000 0.000000 
#    y 0.000000 1.772190 0.000000 
#    z 0.000000 0.000000 1.802670 
# 
# From -- ./inp_files/1407.got.cif
#   From: 2010.03.12/outbox.cif.g09.slc.cpg/sg169_cif.got.tgz:1407.got - 2010.04.02 06:46:06.
