data_PCOD8324082
_publ_section_title
;
Structure prediction by ZEFSAII (Michael W. Deem and Ramdas Pophale) SiO2 
 PCOD8324082
Probable space group: R -3 M
;
_chemical_formula_sum "Si O2"
_cell_formula_units_Z 162
_cell_length_a 24.794066
_cell_length_b 24.794066
_cell_length_c 16.582754
_cell_angle_alpha 90.000000
_cell_angle_beta 90.000000
_cell_angle_gamma 120.000000
_cell_volume 8828.416133
_symmetry_space_group_name_H-M "R -3 M"
_symmetry_group_IT_number 166
_symmetry_cell_setting 'hexagonal'
loop_
_space_group_symop_operation_xyz
x,y,z
-y,x-y,z
-x+y,-x,z
x-y,-y,-z
-x,-x+y,-z
y,x,-z
-x,-y,-z
y,-x+y,-z
x-y,x,-z
-x+y,y,z
x,x-y,z
-y,-x,z
2/3+x,1/3+y,1/3+z
2/3-y,1/3+x-y,1/3+z
2/3-x+y,1/3-x,1/3+z
2/3+x-y,1/3-y,1/3-z
2/3-x,1/3-x+y,1/3-z
2/3+y,1/3+x,1/3-z
2/3-x,1/3-y,1/3-z
2/3+y,1/3-x+y,1/3-z
2/3+x-y,1/3+x,1/3-z
2/3-x+y,1/3+y,1/3+z
2/3+x,1/3+x-y,1/3+z
2/3-y,1/3-x,1/3+z
1/3+x,2/3+y,2/3+z
1/3-y,2/3+x-y,2/3+z
1/3-x+y,2/3-x,2/3+z
1/3+x-y,2/3-y,2/3-z
1/3-x,2/3-x+y,2/3-z
1/3+y,2/3+x,2/3-z
1/3-x,2/3-y,2/3-z
1/3+y,2/3-x+y,2/3-z
1/3+x-y,2/3+x,2/3-z
1/3-x+y,2/3+y,2/3+z
1/3+x,2/3+x-y,2/3+z
1/3-y,2/3-x,2/3+z
loop_
_atom_site_type_symbol
_atom_site_label
_atom_site_fract_x
_atom_site_fract_y
_atom_site_fract_z
Si Si1 0.294413 0.333001 0.584057
Si Si2 0.623083 0.120441 0.698849
Si Si3 0.711848 0.546228 0.407573
Si Si4 0.666667 0.208942 0.833334
Si Si5 0.459055 0.668049 0.442519
O O1 0.320678 0.320678 0.500000
O O2 0.333334 0.344202 0.666667
O O3 0.229940 0.275433 0.610951
O O4 0.286086 0.391393 0.561592
O O5 0.553896 0.107792 0.712768
O O6 0.673252 0.174692 0.755639
O O7 0.648140 0.146900 0.610022
O O8 0.781736 0.563472 0.383935
O O9 0.666667 0.518604 0.333334
O O10 0.683199 0.491030 0.471462
O O11 0.609056 0.218112 0.823267
O O12 0.457871 0.728936 0.408407
O O13 0.388225 0.611776 0.447562
#
# Coordination Sequence:
#
# PCOD8324082 Si02
#       5
#    36  36  36  18  36
#     4  11  22  38  58  81 111 148 191 236 280 329
#     4  10  20  35  54  77 110 145 179 222 271 321
#     4  10  21  37  57  81 109 143 185 234 286 337
#     4  10  19  32  52  76 106 140 175 214 260 316
#     4  10  20  35  56  83 113 145 182 226 280 341
#
# _framework density 18.349837000000001
#
# number of rings (size 3 to 8) (size 9 to 14) (size 15 to 20)
#    0.000    1.778    1.111    3.667    0.000    0.000 
#    0.000    2.222    0.000   19.556    0.000    0.000 
#    0.000    0.000    0.000    0.000    0.000    0.000 
#
# Total GULP energy -669133.240573 kJ/mol
# GULP energy per Si atom -12391.356307 kJ/mol
# Density = 1.830807 g / cm^3
# Si number density = 18.349837 Si / 1000 Ang^3
#
#
#
# Elastic Constant Matrix: (Units=GPa)
#
#
# Indices 1 2 3 4 5 6 
#
# 1 137.6502 15.3144 50.5128 -18.0972 -0.0402 0.0000
# 2 15.3144 137.6502 50.5128 18.0972 0.0402 0.0000
# 3 50.5128 50.5128 82.9269 0.0000 0.0000 0.0000
# 4 -18.0972 18.0972 0.0000 95.8190 0.0000 0.0402
# 5 -0.0402 0.0402 0.0000 0.0000 95.8190 -18.0972
# 6 0.0000 0.0000 0.0000 0.0402 -18.0972 61.1679
#
#
#
# Elastic Compliance Matrix: (Units=1/GPa)
#
#
# Indices 1 2 3 4 5 6 
#
# 1 0.009798 0.001140 -0.006662 0.001635 0.000004 0.000000
# 2 0.001140 0.009798 -0.006662 -0.001635 -0.000004 0.000000
# 3 -0.006662 -0.006662 0.020175 0.000000 0.000000 0.000000
# 4 0.001635 -0.001635 0.000000 0.011054 0.000000 -0.000007
# 5 0.000004 -0.000004 0.000000 0.000000 0.011054 0.003270
# 6 0.000000 0.000000 0.000000 -0.000007 0.003270 0.017316
#
#
# Mechanical properties :
#
#
# Convention : Reuss Voigt Hill
#
# Bulk Modulus (GPa) = 64.93088 65.65639 65.29364
# Shear Modulus (GPa) = 45.99872 66.68698 56.34285
#
# Velocity S-wave (km/s) = 5.01219 6.03497 5.54720
# Velocity P-wave (km/s) = 8.30409 9.18799 8.75720
#
# Compressibility (1/GPa) = 0.01540099
#
# Stress axis : x y z
#
# Youngs Moduli (GPa) = 102.06334 102.06334 49.56566
#
# Poissons Ratio (x) = -0.11633 0.33023
# Poissons Ratio (y) = -0.11633 0.33023
# Poissons Ratio (z) = 0.67999 0.67999
#
# Static dielectric constant tensor:
#      x y z
#    x 3.331140 0.000000 0.000000 
#    y 0.000000 3.331140 0.000000 
#    z 0.000000 0.000000 3.472850 
# 
# 
# High freq. dielectric constant tensor:
#      x y z
#    x 1.720260 0.000000 0.000000 
#    y 0.000000 1.720260 0.000000 
#    z 0.000000 0.000000 1.720720 
# 
# From -- ./inp_files/5407.got.cif
#   From: 2010.03.12/outbox.cif.g09.slc.cpg/sg166_3_cif.got.tgz:5407.got - 2010.04.02 06:38:31.
