data_PCOD8324187
_publ_section_title
;
Structure prediction by ZEFSAII (Michael W. Deem and Ramdas Pophale) SiO2 
 PCOD8324187
Probable space group: R -3 M
;
_chemical_formula_sum "Si O2"
_cell_formula_units_Z 108
_cell_length_a 14.574358
_cell_length_b 14.574358
_cell_length_c 25.867829
_cell_angle_alpha 90.000000
_cell_angle_beta 90.000000
_cell_angle_gamma 120.000000
_cell_volume 4758.493490
_symmetry_space_group_name_H-M "R -3 M"
_symmetry_group_IT_number 166
_symmetry_cell_setting 'hexagonal'
loop_
_space_group_symop_operation_xyz
x,y,z
-y,x-y,z
-x+y,-x,z
x-y,-y,-z
-x,-x+y,-z
y,x,-z
-x,-y,-z
y,-x+y,-z
x-y,x,-z
-x+y,y,z
x,x-y,z
-y,-x,z
2/3+x,1/3+y,1/3+z
2/3-y,1/3+x-y,1/3+z
2/3-x+y,1/3-x,1/3+z
2/3+x-y,1/3-y,1/3-z
2/3-x,1/3-x+y,1/3-z
2/3+y,1/3+x,1/3-z
2/3-x,1/3-y,1/3-z
2/3+y,1/3-x+y,1/3-z
2/3+x-y,1/3+x,1/3-z
2/3-x+y,1/3+y,1/3+z
2/3+x,1/3+x-y,1/3+z
2/3-y,1/3-x,1/3+z
1/3+x,2/3+y,2/3+z
1/3-y,2/3+x-y,2/3+z
1/3-x+y,2/3-x,2/3+z
1/3+x-y,2/3-y,2/3-z
1/3-x,2/3-x+y,2/3-z
1/3+y,2/3+x,2/3-z
1/3-x,2/3-y,2/3-z
1/3+y,2/3-x+y,2/3-z
1/3+x-y,2/3+x,2/3-z
1/3-x+y,2/3+y,2/3+z
1/3+x,2/3+x-y,2/3+z
1/3-y,2/3-x,2/3+z
loop_
_atom_site_type_symbol
_atom_site_label
_atom_site_fract_x
_atom_site_fract_y
_atom_site_fract_z
Si Si1 0.933837 0.066164 0.254811
Si Si2 0.226012 0.773988 0.809156
Si Si3 0.789354 0.210647 0.980440
Si Si4 0.878466 0.121535 0.624919
Si Si5 0.576312 0.788156 0.177813
Si Si6 0.879571 0.759141 0.902411
O O1 0.927581 0.072420 0.193676
O O2 0.879805 0.120196 0.289248
O O3 0.060061 0.120122 0.269131
O O4 0.166667 0.833334 0.833334
O O5 0.326889 0.843094 0.772071
O O6 0.670912 0.157913 0.960455
O O7 0.849880 0.150121 0.958910
O O8 0.833334 0.166667 0.666667
O O9 0.852995 0.147006 0.568059
O O10 0.504698 0.666667 0.166667
O O11 0.674401 0.837201 0.141338
#
# Coordination Sequence:
#
# PCOD8324187 Si02
#       6
#    18  18  18  18  18  18
#     4  10  20  44  77 109 145 193 248 306 384 443
#     4  12  27  46  78 107 148 205 264 314 364 451
#     4  12  25  45  72 113 157 193 236 311 396 459
#     4  12  26  43  71 108 154 193 235 303 381 463
#     4  12  23  42  70 108 153 189 227 287 382 474
#     4  12  26  48  71 109 147 196 265 307 374 441
#
# _framework density 22.696256999999999
#
# number of rings (size 3 to 8) (size 9 to 14) (size 15 to 20)
#    0.333    0.000    6.667    1.833    4.667    0.000 
#    0.000    0.000    0.000    0.000    0.000    3.500 
#    0.000    0.000    0.000    0.000    0.000    0.000 
#
# Total GULP energy -446012.705222 kJ/mol
# GULP energy per Si atom -12389.241812 kJ/mol
# Density = 2.264460 g / cm^3
# Si number density = 22.696257 Si / 1000 Ang^3
#
#
#
# Elastic Constant Matrix: (Units=GPa)
#
#
# Indices 1 2 3 4 5 6 
#
# 1 -3140.7057 3353.6872 36.5678 3441.7659 0.1022 0.0000
# 2 3353.6872-3140.7058 36.5678-3441.7659 -0.1022 0.0000
# 3 36.5678 36.5678 139.6180 0.0000 0.0000 0.0000
# 4 3441.7659-3441.7659 0.0000-3558.2180 0.0000 -0.1022
# 5 0.1022 -0.1022 0.0000 0.0000-3558.2180 3441.7658
# 6 0.0000 0.0000 0.0000 -0.1022 3441.7658-3247.1964
#
#
#
# Elastic Compliance Matrix: (Units=1/GPa)
#
#
# Indices 1 2 3 4 5 6 
#
# 1 0.005631 -0.000472 -0.001351 0.005903 0.000000 0.000000
# 2 -0.000472 0.005631 -0.001351 -0.005903 0.000000 0.000000
# 3 -0.001351 -0.001351 0.007870 0.000000 0.000000 0.000000
# 4 0.005903 -0.005903 0.000000 0.011139 0.000000 0.000000
# 5 0.000000 0.000000 0.000000 0.000000 0.011139 0.011806
# 6 0.000000 0.000000 0.000000 0.000000 0.011806 0.012206
#
#
# Mechanical properties :
#
#
# Convention : Reuss Voigt Hill
#
# Bulk Modulus (GPa) = 78.22497 79.09467 78.65982
# Shear Modulus (GPa) = 77.85033 -2710.63422 -1316.39194
#
# Velocity S-wave (km/s) = 5.86306 -34.59627 -24.10940
# Velocity P-wave (km/s) = 8.96520 39.50878 27.20817
#
# Compressibility (1/GPa) = 0.01278364
#
# Stress axis : x y z
#
# Youngs Moduli (GPa) = 177.58615 177.58615 127.06104
#
# Poissons Ratio (x) = 0.08379 0.17169
# Poissons Ratio (y) = 0.08379 0.17169
# Poissons Ratio (z) = 0.23997 0.23997
#
# Static dielectric constant tensor:
#      x y z
#    x 3.821870 0.000000 0.000000 
#    y 0.000000 3.821870 0.000000 
#    z 0.000000 0.000000 4.574950 
# 
# 
# High freq. dielectric constant tensor:
#      x y z
#    x 1.896620 0.000000 0.000000 
#    y 0.000000 1.896620 0.000000 
#    z 0.000000 0.000000 1.906390 
# 
# From -- ./inp_files/10194.got.cif
#   From: 2010.03.12/outbox.cif.g09.slc.cpg/sg166_6_cif.got.tgz:10194.got - 2010.04.02 06:38:31.
