data_PCOD8324289
_publ_section_title
;
Structure prediction by ZEFSAII (Michael W. Deem and Ramdas Pophale) SiO2 
 PCOD8324289
Probable space group: R -3 C 
;
_chemical_formula_sum "Si O2"
_cell_formula_units_Z 252
_cell_length_a 29.984751
_cell_length_b 29.984751
_cell_length_c 17.573075
_cell_angle_alpha 90.000000
_cell_angle_beta 90.000000
_cell_angle_gamma 120.000000
_cell_volume 13682.935750
_symmetry_space_group_name_H-M "R -3 C "
_symmetry_group_IT_number 167
_symmetry_cell_setting 'hexagonal'
loop_
_space_group_symop_operation_xyz
x,y,z
-y,x-y,z
-x+y,-x,z
x-y,-y,1/2-z
-x,-x+y,1/2-z
y,x,1/2-z
-x,-y,-z
y,-x+y,-z
x-y,x,-z
-x+y,y,1/2+z
x,x-y,1/2+z
-y,-x,1/2+z
2/3+x,1/3+y,1/3+z
2/3-y,1/3+x-y,1/3+z
2/3-x+y,1/3-x,1/3+z
2/3+x-y,1/3-y,5/6-z
2/3-x,1/3-x+y,5/6-z
2/3+y,1/3+x,5/6-z
2/3-x,1/3-y,1/3-z
2/3+y,1/3-x+y,1/3-z
2/3+x-y,1/3+x,1/3-z
2/3-x+y,1/3+y,5/6+z
2/3+x,1/3+x-y,5/6+z
2/3-y,1/3-x,5/6+z
1/3+x,2/3+y,2/3+z
1/3-y,2/3+x-y,2/3+z
1/3-x+y,2/3-x,2/3+z
1/3+x-y,2/3-y,1/6-z
1/3-x,2/3-x+y,1/6-z
1/3+y,2/3+x,1/6-z
1/3-x,2/3-y,2/3-z
1/3+y,2/3-x+y,2/3-z
1/3+x-y,2/3+x,2/3-z
1/3-x+y,2/3+y,1/6+z
1/3+x,2/3+x-y,1/6+z
1/3-y,2/3-x,1/6+z
loop_
_atom_site_type_symbol
_atom_site_label
_atom_site_fract_x
_atom_site_fract_y
_atom_site_fract_z
Si Si1 0.391018 0.231512 0.188233
Si Si2 0.744422 0.533513 0.391152
Si Si3 0.035926 0.835985 0.983572
Si Si4 0.026961 0.481682 0.643859
Si Si5 0.948701 0.277024 0.612792
Si Si6 0.536208 0.077459 0.139626
Si Si7 0.382355 0.438358 0.781323
O O1 0.437906 0.272747 0.238629
O O2 0.358983 0.177324 0.232253
O O3 0.354970 0.256466 0.171892
O O4 0.416158 0.221300 0.113734
O O5 0.772928 0.506021 0.351842
O O6 0.685967 0.504913 0.368335
O O7 0.777569 0.592004 0.360944
O O8 0.753540 0.538676 0.482201
O O9 0.032255 0.794555 0.044626
O O10 0.027286 0.429281 0.624769
O O11 0.972062 0.465699 0.681425
O O12 0.962526 0.333334 0.583334
O O13 0.999264 0.278546 0.648533
O O14 0.480091 0.072621 0.150477
O O15 0.423865 0.423865 0.750000
#
# Coordination Sequence:
#
# PCOD8324289 Si02
#       7
#    36  36  36  36  36  36  36
#     4  10  22  35  53  77 108 144 182 233 274 317
#     4  10  20  35  58  77 100 141 175 227 264 337
#     4  10  21  37  57  77 106 138 180 219 280 322
#     4  10  19  37  51  71 107 145 185 218 272 316
#     4  10  20  32  49  74 110 139 186 230 255 307
#     4  10  19  32  55  75 102 141 181 221 272 317
#     4  10  19  35  51  73 105 146 186 219 259 320
#
# _framework density 18.417100000000001
#
# number of rings (size 3 to 8) (size 9 to 14) (size 15 to 20)
#    0.000    2.000    1.429    4.714    4.000    0.000 
#    0.000   11.429    0.000    0.286    0.000    0.000 
#    0.000    0.000    0.000    0.857    0.000    0.000 
#
# Total GULP energy -1041129.736752 kJ/mol
# GULP energy per Si atom -12394.401628 kJ/mol
# Density = 1.837518 g / cm^3
# Si number density = 18.417100 Si / 1000 Ang^3
#
#
#
# Elastic Constant Matrix: (Units=GPa)
#
#
# Indices 1 2 3 4 5 6 
#
# 1 104.1735 41.8671 35.4401 1.4795 0.0000 0.0000
# 2 41.8671 104.1735 35.4401 -1.4795 0.0000 0.0000
# 3 35.4401 35.4401 84.0149 0.0000 0.0000 0.0000
# 4 1.4795 -1.4795 0.0000 13.8384 0.0000 0.0000
# 5 0.0000 0.0000 0.0000 0.0000 13.8384 1.4795
# 6 0.0000 0.0000 0.0000 0.0000 1.4795 31.1532
#
#
#
# Elastic Compliance Matrix: (Units=1/GPa)
#
#
# Indices 1 2 3 4 5 6 
#
# 1 0.012371 -0.003761 -0.003632 -0.001725 0.000000 0.000000
# 2 -0.003761 0.012371 -0.003632 0.001725 0.000000 0.000000
# 3 -0.003632 -0.003632 0.014967 0.000000 0.000000 0.000000
# 4 -0.001725 0.001725 0.000000 0.072632 0.000000 0.000000
# 5 0.000000 0.000000 0.000000 0.000000 0.072632 -0.003449
# 6 0.000000 0.000000 0.000000 0.000000 -0.003449 0.032263
#
#
# Mechanical properties :
#
#
# Convention : Reuss Voigt Hill
#
# Bulk Modulus (GPa) = 56.62807 57.53960 57.08383
# Shear Modulus (GPa) = 20.39390 23.74029 22.06709
#
# Velocity S-wave (km/s) = 3.33127 3.59421 3.46524
# Velocity P-wave (km/s) = 6.75358 6.96669 6.86096
#
# Compressibility (1/GPa) = 0.01765909
#
# Stress axis : x y z
#
# Youngs Moduli (GPa) = 80.83473 80.83473 66.81423
#
# Poissons Ratio (x) = 0.30400 0.24267
# Poissons Ratio (y) = 0.30400 0.24267
# Poissons Ratio (z) = 0.29360 0.29360
#
# Static dielectric constant tensor:
#      x y z
#    x 3.325110 0.000000 0.000000 
#    y 0.000000 3.325110 0.000000 
#    z 0.000000 0.000000 3.388180 
# 
# 
# High freq. dielectric constant tensor:
#      x y z
#    x 1.697690 0.000000 0.000000 
#    y 0.000000 1.697690 0.000000 
#    z 0.000000 0.000000 1.713850 
# 
# From -- ./inp_files/3713.got.cif
#   From: 2010.03.12/outbox.cif.g09.slc.cpg/sg167_2_cif.got.tgz:3713.got - 2010.04.02 06:42:56.
