data_PCOD8324111
_publ_section_title
;
Structure prediction by ZEFSAII (Michael W. Deem and Ramdas Pophale) SiO2 
 PCOD8324111
Probable space group: R -3 M
;
_chemical_formula_sum "Si O2"
_cell_formula_units_Z 126
_cell_length_a 19.717165
_cell_length_b 19.717165
_cell_length_c 18.097769
_cell_angle_alpha 90.000000
_cell_angle_beta 90.000000
_cell_angle_gamma 120.000000
_cell_volume 6093.188501
_symmetry_space_group_name_H-M "R -3 M"
_symmetry_group_IT_number 166
_symmetry_cell_setting 'hexagonal'
loop_
_space_group_symop_operation_xyz
x,y,z
-y,x-y,z
-x+y,-x,z
x-y,-y,-z
-x,-x+y,-z
y,x,-z
-x,-y,-z
y,-x+y,-z
x-y,x,-z
-x+y,y,z
x,x-y,z
-y,-x,z
2/3+x,1/3+y,1/3+z
2/3-y,1/3+x-y,1/3+z
2/3-x+y,1/3-x,1/3+z
2/3+x-y,1/3-y,1/3-z
2/3-x,1/3-x+y,1/3-z
2/3+y,1/3+x,1/3-z
2/3-x,1/3-y,1/3-z
2/3+y,1/3-x+y,1/3-z
2/3+x-y,1/3+x,1/3-z
2/3-x+y,1/3+y,1/3+z
2/3+x,1/3+x-y,1/3+z
2/3-y,1/3-x,1/3+z
1/3+x,2/3+y,2/3+z
1/3-y,2/3+x-y,2/3+z
1/3-x+y,2/3-x,2/3+z
1/3+x-y,2/3-y,2/3-z
1/3-x,2/3-x+y,2/3-z
1/3+y,2/3+x,2/3-z
1/3-x,2/3-y,2/3-z
1/3+y,2/3-x+y,2/3-z
1/3+x-y,2/3+x,2/3-z
1/3-x+y,2/3+y,2/3+z
1/3+x,2/3+x-y,2/3+z
1/3-y,2/3-x,2/3+z
loop_
_atom_site_type_symbol
_atom_site_label
_atom_site_fract_x
_atom_site_fract_y
_atom_site_fract_z
Si Si1 0.576370 0.866795 0.596830
Si Si2 0.509895 0.333334 0.833334
Si Si3 0.126378 0.414177 0.030413
Si Si4 0.171057 0.665968 0.448522
O O1 0.584379 0.792190 0.582509
O O2 0.519891 0.853224 0.666667
O O3 0.661231 0.940258 0.618044
O O4 0.537948 0.878125 0.522513
O O5 0.520898 0.260449 0.845549
O O6 0.469937 0.345303 0.905681
O O7 0.205537 0.411073 0.031566
O O8 0.119305 0.448806 0.951967
O O9 0.186742 0.593371 0.445843
O O10 0.254771 0.745230 0.444108
#
# Coordination Sequence:
#
# PCOD8324111 Si02
#       4
#    36  18  36  36
#     4  10  21  37  56  80 111 148 190 235 285 342
#     4  10  19  34  56  82 113 148 190 240 294 348
#     4   9  20  35  51  77 111 145 182 224 275 339
#     4  10  20  36  59  86 114 145 187 241 297 347
#
# _framework density 20.678829
#
# number of rings (size 3 to 8) (size 9 to 14) (size 15 to 20)
#    0.000    2.286    0.000    2.143    0.000    3.429 
#    0.000    7.143    0.000   13.143    0.000    0.000 
#    0.000    0.000    0.000    0.000    0.000    0.000 
#
# Total GULP energy -520553.618679 kJ/mol
# GULP energy per Si atom -12394.133778 kJ/mol
# Density = 2.063176 g / cm^3
# Si number density = 20.678829 Si / 1000 Ang^3
#
#
#
# Elastic Constant Matrix: (Units=GPa)
#
#
# Indices 1 2 3 4 5 6 
#
# 1 51.7052 40.4452 43.6667 7.5377 0.0004 0.0000
# 2 40.4452 51.7052 43.6667 -7.5377 -0.0004 0.0000
# 3 43.6667 43.6667 204.6391 0.0000 0.0000 0.0000
# 4 7.5377 -7.5377 0.0000 33.5024 0.0000 -0.0004
# 5 0.0004 -0.0004 0.0000 0.0000 33.5024 7.5377
# 6 0.0000 0.0000 0.0000 -0.0004 7.5377 5.6300
#
#
#
# Elastic Compliance Matrix: (Units=1/GPa)
#
#
# Indices 1 2 3 4 5 6 
#
# 1 0.070348 -0.056745 -0.002903 -0.028595 -0.000001 0.000000
# 2 -0.056745 0.070348 -0.002903 0.028595 0.000001 0.000000
# 3 -0.002903 -0.002903 0.006125 0.000000 0.000000 0.000000
# 4 -0.028595 0.028595 0.000000 0.042716 0.000000 0.000003
# 5 -0.000001 0.000001 0.000000 0.000000 0.042716 -0.057190
# 6 0.000000 0.000000 0.000000 0.000003 -0.057190 0.254186
#
#
# Mechanical properties :
#
#
# Convention : Reuss Voigt Hill
#
# Bulk Modulus (GPa) = 46.03970 62.62295 54.33132
# Shear Modulus (GPa) = 8.08041 26.54503 17.31272
#
# Velocity S-wave (km/s) = 1.97890 3.58674 2.89661
# Velocity P-wave (km/s) = 5.24728 6.89219 6.12520
#
# Compressibility (1/GPa) = 0.02172039
#
# Stress axis : x y z
#
# Youngs Moduli (GPa) = 14.21505 14.21505 163.25509
#
# Poissons Ratio (x) = 0.80664 0.47386
# Poissons Ratio (y) = 0.80664 0.47386
# Poissons Ratio (z) = 0.04126 0.04126
#
# Static dielectric constant tensor:
#      x y z
#    x 3.653620 0.000000 0.000000 
#    y 0.000000 3.653620 0.000000 
#    z 0.000000 0.000000 4.156310 
# 
# 
# High freq. dielectric constant tensor:
#      x y z
#    x 1.798730 0.000000 0.000000 
#    y 0.000000 1.798730 0.000000 
#    z 0.000000 0.000000 1.829770 
# 
# From -- ./inp_files/4900.got.cif
#   From: 2010.03.12/outbox.cif.g09.slc.cpg/sg166_3_cif.got.tgz:4900.got - 2010.04.02 06:38:31.
