data_PCOD8324482
_publ_section_title
;
Structure prediction by ZEFSAII (Michael W. Deem and Ramdas Pophale) SiO2 
 PCOD8324482
Probable space group: P 61
;
_chemical_formula_sum "Si O2"
_cell_formula_units_Z 42
_cell_length_a 14.165996
_cell_length_b 14.165996
_cell_length_c 11.583334
_cell_angle_alpha 90.000000
_cell_angle_beta 90.000000
_cell_angle_gamma 120.000000
_cell_volume 2013.067978
_symmetry_space_group_name_H-M "P 61"
_symmetry_group_IT_number 169
_symmetry_cell_setting 'hexagonal'
loop_
_space_group_symop_operation_xyz
x,y,z
x-y,x,1/6+z
-y,x-y,1/3+z
-x,-y,1/2+z
-x+y,-x,2/3+z
y,-x+y,5/6+z
loop_
_atom_site_type_symbol
_atom_site_label
_atom_site_fract_x
_atom_site_fract_y
_atom_site_fract_z
Si Si1 0.087290 0.189347 0.364220
Si Si2 0.574111 0.194910 0.750661
Si Si3 0.086211 0.903030 0.675535
Si Si4 0.817851 0.581586 0.567870
Si Si5 0.428109 0.175208 0.151414
Si Si6 0.050466 0.533324 0.122842
Si Si7 0.582087 0.200873 0.493490
O O1 0.141608 0.118400 0.318493
O O2 0.175378 0.315455 0.385019
O O3 0.003257 0.182133 0.265465
O O4 0.515991 0.244411 0.826580
O O5 0.529802 0.183599 0.620022
O O6 0.701493 0.281908 0.758798
O O7 0.552446 0.079378 0.796990
O O8 0.180176 0.872526 0.661035
O O9 0.027378 0.891144 0.553143
O O10 0.758928 0.594129 0.681194
O O11 0.912324 0.555050 0.598691
O O12 0.469308 0.092539 0.188549
O O13 0.517591 0.297818 0.181605
O O14 0.095419 0.586460 0.248303
#
# Coordination Sequence:
#
# PCOD8324482 Si02
#       7
#     6   6   6   6   6   6   6
#     4  10  21  36  67 102 130 167 227 284 330 399
#     4  12  25  41  70  93 143 182 225 287 350 413
#     4  10  19  37  62 100 128 161 223 286 330 402
#     4  11  22  39  64 101 129 178 230 284 334 409
#     4  11  21  40  64  95 132 174 233 275 329 411
#     4  11  26  39  69  98 133 190 226 277 349 415
#     4  11  24  46  60 101 137 178 228 289 346 405
#
# _framework density 20.863676000000002
#
# number of rings (size 3 to 8) (size 9 to 14) (size 15 to 20)
#    0.000    1.143    5.714    1.714    6.000    0.000 
#    0.000    0.000    0.000   34.286    0.000    0.000 
#    0.000    0.000    0.000    0.000    0.000    0.000 
#
# Total GULP energy -520899.472913 kJ/mol
# GULP energy per Si atom -12402.368403 kJ/mol
# Density = 2.081619 g / cm^3
# Si number density = 20.863676 Si / 1000 Ang^3
#
#
#
# Elastic Constant Matrix: (Units=GPa)
#
#
# Indices 1 2 3 4 5 6 
#
# 1 99.5458 28.3365 27.4204 0.0000 0.0000 0.0000
# 2 28.3365 99.5458 27.4204 0.0000 0.0000 0.0000
# 3 27.4204 27.4204 76.4515 0.0000 0.0000 0.0000
# 4 0.0000 0.0000 0.0000 23.7998 0.0000 0.0000
# 5 0.0000 0.0000 0.0000 0.0000 23.7998 0.0000
# 6 0.0000 0.0000 0.0000 0.0000 0.0000 35.6046
#
#
#
# Elastic Compliance Matrix: (Units=1/GPa)
#
#
# Indices 1 2 3 4 5 6 
#
# 1 0.011642 -0.002401 -0.003314 0.000000 0.000000 0.000000
# 2 -0.002401 0.011642 -0.003314 0.000000 0.000000 0.000000
# 3 -0.003314 -0.003314 0.015458 0.000000 0.000000 0.000000
# 4 0.000000 0.000000 0.000000 0.042017 0.000000 0.000000
# 5 0.000000 0.000000 0.000000 0.000000 0.042017 0.000000
# 6 0.000000 0.000000 0.000000 0.000000 0.000000 0.028086
#
#
# Mechanical properties :
#
#
# Convention : Reuss Voigt Hill
#
# Bulk Modulus (GPa) = 48.35101 49.09974 48.72537
# Shear Modulus (GPa) = 28.43879 29.46524 28.95201
#
# Velocity S-wave (km/s) = 3.69599 3.76210 3.72919
# Velocity P-wave (km/s) = 6.43730 6.51582 6.47668
#
# Compressibility (1/GPa) = 0.02068209
#
# Stress axis : x y z
#
# Youngs Moduli (GPa) = 85.89530 85.89530 64.69266
#
# Poissons Ratio (x) = 0.20624 0.21442
# Poissons Ratio (y) = 0.20624 0.21442
# Poissons Ratio (z) = 0.28469 0.28469
#
# Static dielectric constant tensor:
#      x y z
#    x 3.744970 0.000000 0.000000 
#    y 0.000000 3.744970 0.000000 
#    z 0.000000 0.000000 3.736470 
# 
# 
# High freq. dielectric constant tensor:
#      x y z
#    x 1.815180 0.000000 0.000000 
#    y 0.000000 1.815180 0.000000 
#    z 0.000000 0.000000 1.800220 
# 
# From -- ./inp_files/944.got.cif
#   From: 2010.03.12/outbox.cif.g09.slc.cpg/sg169_cif.got.tgz:944.got - 2010.04.02 06:46:06.
