data_PCOD8324925
_publ_section_title
;
Structure prediction by ZEFSAII (Michael W. Deem and Ramdas Pophale) SiO2 
 PCOD8324925
Probable space group: P -6
;
_chemical_formula_sum "Si O2"
_cell_formula_units_Z 32
_cell_length_a 14.484060
_cell_length_b 14.484060
_cell_length_c 9.394227
_cell_angle_alpha 90.000000
_cell_angle_beta 90.000000
_cell_angle_gamma 120.000000
_cell_volume 1706.759435
_symmetry_space_group_name_H-M "P -6"
_symmetry_group_IT_number 174
_symmetry_cell_setting 'hexagonal'
loop_
_space_group_symop_operation_xyz
x,y,z
-x+y,-x,-z
-y,x-y,z
x,y,-z
-x+y,-x,z
-y,x-y,-z
loop_
_atom_site_type_symbol
_atom_site_label
_atom_site_fract_x
_atom_site_fract_y
_atom_site_fract_z
Si Si1 0.901066 0.491244 0.836645
Si Si2 0.000000 0.000000 0.668609
Si Si3 0.220743 0.019180 0.669299
Si Si4 0.268102 0.836387 0.668510
Si Si5 0.102161 0.602904 0.669154
Si Si6 0.745260 0.576203 0.163802
O O1 0.877759 0.375728 0.784768
O O2 0.798141 0.503031 0.815305
O O3 0.991991 0.579975 0.737896
O O4 0.938532 0.510257 0.000000
O O5 0.897563 0.891034 0.723412
O O6 0.000000 0.000000 0.500000
O O7 0.232154 0.033878 0.500000
O O8 0.317813 0.123034 0.740822
O O9 0.227314 0.915956 0.720509
O O10 0.270791 0.834924 0.500000
O O11 0.190279 0.718204 0.726132
O O12 0.385255 0.871406 0.727227
O O13 0.092265 0.600960 0.500000
O O14 0.751228 0.611155 0.000000
#
# Coordination Sequence:
#
# PCOD8324925 Si02
#       6
#     6   2   6   6   6   6
#     4  10  21  37  56  80 109 142 180 222 277 334
#     4   9  21  36  55  80 112 150 187 227 277 321
#     4  10  20  37  57  81 109 145 189 230 270 323
#     4   9  18  32  54  82 111 139 174 222 274 324
#     4  10  19  34  56  83 110 141 180 223 272 328
#     4  10  21  38  58  80 109 145 180 224 278 334
#
# _framework density 18.748981000000001
#
# number of rings (size 3 to 8) (size 9 to 14) (size 15 to 20)
#    0.000    2.250    1.875    0.750    2.625    3.750 
#    0.000    2.812    0.000    2.250    0.000    0.000 
#    0.000    0.000    0.000    0.000    0.000    0.000 
#
# Total GULP energy -396822.953804 kJ/mol
# GULP energy per Si atom -12400.717306 kJ/mol
# Density = 1.870631 g / cm^3
# Si number density = 18.748981 Si / 1000 Ang^3
#
#
#
# Elastic Constant Matrix: (Units=GPa)
#
#
# Indices 1 2 3 4 5 6 
#
# 1 120.2152 45.6296 29.3858 0.0000 0.0000 0.0000
# 2 45.6296 120.2152 29.3858 0.0000 0.0000 0.0000
# 3 29.3858 29.3858 32.1905 0.0000 0.0000 0.0000
# 4 0.0000 0.0000 0.0000 23.8822 0.0000 0.0000
# 5 0.0000 0.0000 0.0000 0.0000 23.8822 0.0000
# 6 0.0000 0.0000 0.0000 0.0000 0.0000 37.2928
#
#
#
# Elastic Compliance Matrix: (Units=1/GPa)
#
#
# Indices 1 2 3 4 5 6 
#
# 1 0.011160 -0.002247 -0.008137 0.000000 0.000000 0.000000
# 2 -0.002247 0.011160 -0.008137 0.000000 0.000000 0.000000
# 3 -0.008137 -0.008137 0.045920 0.000000 0.000000 0.000000
# 4 0.000000 0.000000 0.000000 0.041872 0.000000 0.000000
# 5 0.000000 0.000000 0.000000 0.000000 0.041872 0.000000
# 6 0.000000 0.000000 0.000000 0.000000 0.000000 0.026815
#
#
# Mechanical properties :
#
#
# Convention : Reuss Voigt Hill
#
# Bulk Modulus (GPa) = 32.05087 53.49146 42.77117
# Shear Modulus (GPa) = 22.10035 28.22607 25.16321
#
# Velocity S-wave (km/s) = 3.43702 3.88425 3.66746
# Velocity P-wave (km/s) = 5.73434 6.97917 6.38715
#
# Compressibility (1/GPa) = 0.03120040
#
# Stress axis : x y z
#
# Youngs Moduli (GPa) = 89.60354 89.60354 21.77687
#
# Poissons Ratio (x) = 0.20135 0.17719
# Poissons Ratio (y) = 0.20135 0.17719
# Poissons Ratio (z) = 0.72906 0.72906
#
# Static dielectric constant tensor:
#      x y z
#    x 3.549250 0.000000 0.000000 
#    y 0.000000 3.549250 0.000000 
#    z 0.000000 0.000000 3.072870 
# 
# 
# High freq. dielectric constant tensor:
#      x y z
#    x 1.737950 0.000000 0.000000 
#    y 0.000000 1.737950 0.000000 
#    z 0.000000 0.000000 1.691330 
# 
# From -- ./inp_files/310.got.cif
#   From: 2010.03.12/outbox.cif.g09.slc.cpg/sg174_cif.got.tgz:310.got - 2010.04.02 06:54:58.
