data_PCOD8324090
_publ_section_title
;
Structure prediction by ZEFSAII (Michael W. Deem and Ramdas Pophale) SiO2 
 PCOD8324090
Probable space group: R -3 M
;
_chemical_formula_sum "Si O2"
_cell_formula_units_Z 144
_cell_length_a 20.372963
_cell_length_b 20.372963
_cell_length_c 20.403509
_cell_angle_alpha 90.000000
_cell_angle_beta 90.000000
_cell_angle_gamma 120.000000
_cell_volume 7334.050373
_symmetry_space_group_name_H-M "R -3 M"
_symmetry_group_IT_number 166
_symmetry_cell_setting 'hexagonal'
loop_
_space_group_symop_operation_xyz
x,y,z
-y,x-y,z
-x+y,-x,z
x-y,-y,-z
-x,-x+y,-z
y,x,-z
-x,-y,-z
y,-x+y,-z
x-y,x,-z
-x+y,y,z
x,x-y,z
-y,-x,z
2/3+x,1/3+y,1/3+z
2/3-y,1/3+x-y,1/3+z
2/3-x+y,1/3-x,1/3+z
2/3+x-y,1/3-y,1/3-z
2/3-x,1/3-x+y,1/3-z
2/3+y,1/3+x,1/3-z
2/3-x,1/3-y,1/3-z
2/3+y,1/3-x+y,1/3-z
2/3+x-y,1/3+x,1/3-z
2/3-x+y,1/3+y,1/3+z
2/3+x,1/3+x-y,1/3+z
2/3-y,1/3-x,1/3+z
1/3+x,2/3+y,2/3+z
1/3-y,2/3+x-y,2/3+z
1/3-x+y,2/3-x,2/3+z
1/3+x-y,2/3-y,2/3-z
1/3-x,2/3-x+y,2/3-z
1/3+y,2/3+x,2/3-z
1/3-x,2/3-y,2/3-z
1/3+y,2/3-x+y,2/3-z
1/3+x-y,2/3+x,2/3-z
1/3-x+y,2/3+y,2/3+z
1/3+x,2/3+x-y,2/3+z
1/3-y,2/3-x,2/3+z
loop_
_atom_site_type_symbol
_atom_site_label
_atom_site_fract_x
_atom_site_fract_y
_atom_site_fract_z
Si Si1 0.819934 0.486698 0.259544
Si Si2 0.710955 0.576946 0.531659
Si Si3 0.282160 0.409804 0.225249
Si Si4 0.665819 0.486575 0.656115
O O1 0.743882 0.487764 0.243767
O O2 0.801144 0.400572 0.251196
O O3 0.849352 0.516019 0.333334
O O4 0.884076 0.541784 0.207796
O O5 0.792295 0.584589 0.534701
O O6 0.721547 0.658710 0.550432
O O7 0.657172 0.514246 0.584352
O O8 0.202984 0.405967 0.220845
O O9 0.333334 0.462581 0.166667
O O10 0.322445 0.447148 0.293734
O O11 0.735164 0.470328 0.659959
O O12 0.589933 0.410068 0.674241
#
# Coordination Sequence:
#
# PCOD8324090 Si02
#       4
#    36  36  36  36
#     4   9  16  27  46  73 105 140 178 221 268 315
#     4   9  18  32  50  73 103 139 175 210 254 312
#     4  10  20  35  54  75 101 137 180 222 265 313
#     4  10  19  32  53  81 110 137 169 215 270 323
#
# _framework density 19.634443999999998
#
# number of rings (size 3 to 8) (size 9 to 14) (size 15 to 20)
#    0.000    2.500    0.000    2.750    0.000    4.000 
#    0.000    5.000    0.000   10.000    0.000    0.000 
#    0.000    0.000    0.000    0.000    0.000    0.000 
#
# Total GULP energy -595057.649241 kJ/mol
# GULP energy per Si atom -12397.034359 kJ/mol
# Density = 1.958976 g / cm^3
# Si number density = 19.634444 Si / 1000 Ang^3
#
#
#
# Elastic Constant Matrix: (Units=GPa)
#
#
# Indices 1 2 3 4 5 6 
#
# 1 104.9626 11.3228 62.4117 -7.5352 -0.0004 0.0000
# 2 11.3228 104.9626 62.4117 7.5352 0.0004 0.0000
# 3 62.4117 62.4117 160.8621 0.0000 0.0000 0.0000
# 4 -7.5352 7.5352 0.0000 27.3885 0.0000 0.0004
# 5 -0.0004 0.0004 0.0000 0.0000 27.3885 -7.5352
# 6 0.0000 0.0000 0.0000 0.0004 -7.5352 46.8199
#
#
#
# Elastic Compliance Matrix: (Units=1/GPa)
#
#
# Indices 1 2 3 4 5 6 
#
# 1 0.012956 0.001782 -0.005718 0.003074 0.000000 0.000000
# 2 0.001782 0.012956 -0.005718 -0.003074 0.000000 0.000000
# 3 -0.005718 -0.005718 0.010653 0.000000 0.000000 0.000000
# 4 0.003074 -0.003074 0.000000 0.038203 0.000000 0.000000
# 5 0.000000 0.000000 0.000000 0.000000 0.038203 0.006148
# 6 0.000000 0.000000 0.000000 0.000000 0.006148 0.022348
#
#
# Mechanical properties :
#
#
# Convention : Reuss Voigt Hill
#
# Bulk Modulus (GPa) = 57.94917 71.45327 64.70122
# Shear Modulus (GPa) = 31.17621 35.96214 33.56918
#
# Velocity S-wave (km/s) = 3.98908 4.28434 4.13935
# Velocity P-wave (km/s) = 7.12707 7.80672 7.47463
#
# Compressibility (1/GPa) = 0.01725650
#
# Stress axis : x y z
#
# Youngs Moduli (GPa) = 77.18714 77.18714 93.86802
#
# Poissons Ratio (x) = -0.13751 0.53671
# Poissons Ratio (y) = -0.13751 0.53671
# Poissons Ratio (z) = 0.44133 0.44133
#
# Static dielectric constant tensor:
#      x y z
#    x 3.453390 0.000000 0.000000 
#    y 0.000000 3.453390 0.000000 
#    z 0.000000 0.000000 3.838490 
# 
# 
# High freq. dielectric constant tensor:
#      x y z
#    x 1.746030 0.000000 0.000000 
#    y 0.000000 1.746030 0.000000 
#    z 0.000000 0.000000 1.779910 
# 
# From -- ./inp_files/6599.got.cif
#   From: 2010.03.12/outbox.cif.g09.slc.cpg/sg166_4_cif.got.tgz:6599.got - 2010.04.02 06:38:31.
