data_PCOD8324423
_publ_section_title
;
Structure prediction by ZEFSAII (Michael W. Deem and Ramdas Pophale) SiO2 
 PCOD8324423
Probable space group: R -3 C 
;
_chemical_formula_sum "Si O2"
_cell_formula_units_Z 144
_cell_length_a 28.615498
_cell_length_b 28.615498
_cell_length_c 8.775757
_cell_angle_alpha 90.000000
_cell_angle_beta 90.000000
_cell_angle_gamma 120.000000
_cell_volume 6223.258453
_symmetry_space_group_name_H-M "R -3 C "
_symmetry_group_IT_number 167
_symmetry_cell_setting 'hexagonal'
loop_
_space_group_symop_operation_xyz
x,y,z
-y,x-y,z
-x+y,-x,z
x-y,-y,1/2-z
-x,-x+y,1/2-z
y,x,1/2-z
-x,-y,-z
y,-x+y,-z
x-y,x,-z
-x+y,y,1/2+z
x,x-y,1/2+z
-y,-x,1/2+z
2/3+x,1/3+y,1/3+z
2/3-y,1/3+x-y,1/3+z
2/3-x+y,1/3-x,1/3+z
2/3+x-y,1/3-y,5/6-z
2/3-x,1/3-x+y,5/6-z
2/3+y,1/3+x,5/6-z
2/3-x,1/3-y,1/3-z
2/3+y,1/3-x+y,1/3-z
2/3+x-y,1/3+x,1/3-z
2/3-x+y,1/3+y,5/6+z
2/3+x,1/3+x-y,5/6+z
2/3-y,1/3-x,5/6+z
1/3+x,2/3+y,2/3+z
1/3-y,2/3+x-y,2/3+z
1/3-x+y,2/3-x,2/3+z
1/3+x-y,2/3-y,1/6-z
1/3-x,2/3-x+y,1/6-z
1/3+y,2/3+x,1/6-z
1/3-x,2/3-y,2/3-z
1/3+y,2/3-x+y,2/3-z
1/3+x-y,2/3+x,2/3-z
1/3-x+y,2/3+y,1/6+z
1/3+x,2/3+x-y,1/6+z
1/3-y,2/3-x,1/6+z
loop_
_atom_site_type_symbol
_atom_site_label
_atom_site_fract_x
_atom_site_fract_y
_atom_site_fract_z
Si Si1 0.394038 0.245107 0.908353
Si Si2 0.084528 0.103730 0.918998
Si Si3 0.228036 0.078512 0.091616
Si Si4 0.255114 0.270712 0.082044
O O1 0.333334 0.195204 0.916667
O O2 0.427142 0.231744 0.784592
O O3 0.391802 0.297893 0.861010
O O4 0.423796 0.256070 0.068157
O O5 0.080792 0.080792 0.750000
O O6 0.131272 0.165645 0.931063
O O7 0.098227 0.070907 0.041648
O O8 0.263895 0.064599 0.980052
O O9 0.245949 0.245949 0.250000
O O10 0.300351 0.333334 0.083334
#
# Coordination Sequence:
#
# PCOD8324423 Si02
#       4
#    36  36  36  36
#     4  12  25  45  71 103 142 185 236 295 358 431
#     4  12  26  46  72 104 143 188 238 295 355 423
#     4  12  25  46  73 106 142 187 240 298 362 431
#     4  12  25  43  67  99 139 186 236 292 355 427
#
# _framework density 23.139004
#
# number of rings (size 3 to 8) (size 9 to 14) (size 15 to 20)
#    0.000    0.000    0.000   11.500    0.000    2.000 
#    0.000    0.000    0.000    0.000    0.000    0.000 
#    0.000    0.000    0.000    0.000    0.000    0.000 
#
# Total GULP energy -595706.390777 kJ/mol
# GULP energy per Si atom -12410.549808 kJ/mol
# Density = 2.308634 g / cm^3
# Si number density = 23.139004 Si / 1000 Ang^3
#
#
#
# Elastic Constant Matrix: (Units=GPa)
#
#
# Indices 1 2 3 4 5 6 
#
# 1 140.3553 62.5382 76.3150 2.2547 -0.0252 -0.0697
# 2 62.5382 140.3531 76.2757 -2.2354 0.0090 0.0424
# 3 76.3150 76.2757 145.6283 -0.0591 0.0874 -0.1275
# 4 2.2547 -2.2354 -0.0591 43.4601 -0.0102 -0.0123
# 5 -0.0252 0.0090 0.0874 -0.0102 43.5012 2.2396
# 6 -0.0697 0.0424 -0.1275 -0.0123 2.2396 38.9784
#
#
#
# Elastic Compliance Matrix: (Units=1/GPa)
#
#
# Indices 1 2 3 4 5 6 
#
# 1 0.010514 -0.002378 -0.004264 -0.000674 0.000015 0.000006
# 2 -0.002378 0.010509 -0.004258 0.000658 0.000007 -0.000030
# 3 -0.004264 -0.004258 0.011332 0.000018 -0.000026 0.000036
# 4 -0.000674 0.000658 0.000018 0.023078 0.000005 0.000005
# 5 0.000015 0.000007 -0.000026 0.000005 0.023056 -0.001325
# 6 0.000006 -0.000030 0.000036 0.000005 -0.001325 0.025732
#
#
# Mechanical properties :
#
#
# Convention : Reuss Voigt Hill
#
# Bulk Modulus (GPa) = 94.75119 95.17717 94.96418
# Shear Modulus (GPa) = 38.59840 39.26846 38.93343
#
# Velocity S-wave (km/s) = 4.08868 4.12402 4.10639
# Velocity P-wave (km/s) = 7.95785 7.99367 7.97578
#
# Compressibility (1/GPa) = 0.01055396
#
# Stress axis : x y z
#
# Youngs Moduli (GPa) = 95.11272 95.15753 88.24757
#
# Poissons Ratio (x) = 0.22628 0.37633
# Poissons Ratio (y) = 0.22617 0.37575
# Poissons Ratio (z) = 0.40561 0.40517
#
# Static dielectric constant tensor:
#      x y z
#    x 4.292070 -0.000030 -0.001780 
#    y -0.000030 4.292300 -0.001230 
#    z -0.001780 -0.001230 4.682290 
# 
# 
# High freq. dielectric constant tensor:
#      x y z
#    x 1.928160 0.000000 -0.000040 
#    y 0.000000 1.928170 0.000000 
#    z -0.000040 0.000000 1.925240 
# 
# From -- ./inp_files/770.got.cif
#   From: 2010.03.12/outbox.cif.g09.slc.cpg/sg167_1_cif.got.tgz:770.got - 2010.04.02 06:42:56.
