data_PCOD8324451
_publ_section_title
;
Structure prediction by ZEFSAII (Michael W. Deem and Ramdas Pophale) SiO2 
 PCOD8324451
Probable space group: P 61
;
_chemical_formula_sum "Si O2"
_cell_formula_units_Z 48
_cell_length_a 16.548671
_cell_length_b 16.548671
_cell_length_c 9.921871
_cell_angle_alpha 90.000000
_cell_angle_beta 90.000000
_cell_angle_gamma 120.000000
_cell_volume 2353.154551
_symmetry_space_group_name_H-M "P 61"
_symmetry_group_IT_number 169
_symmetry_cell_setting 'hexagonal'
loop_
_space_group_symop_operation_xyz
x,y,z
x-y,x,1/6+z
-y,x-y,1/3+z
-x,-y,1/2+z
-x+y,-x,2/3+z
y,-x+y,5/6+z
loop_
_atom_site_type_symbol
_atom_site_label
_atom_site_fract_x
_atom_site_fract_y
_atom_site_fract_z
Si Si1 0.257373 0.728096 0.610870
Si Si2 0.731209 0.647922 0.397795
Si Si3 0.074762 0.904850 0.616598
Si Si4 0.044925 0.877842 0.211895
Si Si5 0.542346 0.555866 0.067728
Si Si6 0.472462 0.684042 0.980940
Si Si7 0.074061 0.467394 0.033906
Si Si8 0.371526 0.125235 0.427377
O O1 0.149528 0.698873 0.641318
O O2 0.277921 0.767555 0.463070
O O3 0.271529 0.638397 0.617194
O O4 0.327229 0.813551 0.706785
O O5 0.815661 0.729524 0.480859
O O6 0.644719 0.666633 0.384073
O O7 0.772924 0.648066 0.252093
O O8 0.966898 0.868546 0.583018
O O9 0.145944 0.971092 0.500020
O O10 0.106327 0.828297 0.183329
O O11 0.986563 0.872234 0.079255
O O12 0.506091 0.608853 0.970777
O O13 0.509510 0.549388 0.224558
O O14 0.652923 0.610516 0.055748
O O15 0.506123 0.455612 0.000815
O O16 0.538082 0.773765 0.886426
#
# Coordination Sequence:
#
# PCOD8324451 Si02
#       8
#     6   6   6   6   6   6   6   6
#     4  10  21  33  55  80 114 150 196 247 289 356
#     4  10  17  33  53  83 108 140 190 244 291 334
#     4  10  18  28  51  86 111 138 180 238 290 341
#     4  10  18  30  52  89 113 142 184 242 294 340
#     4  10  21  37  56  85 114 154 194 244 302 357
#     4  10  21  36  53  82 115 150 197 245 291 354
#     4  10  21  36  58  84 114 157 193 249 300 355
#     4  10  19  31  56  81 111 145 192 241 289 345
#
# _framework density 20.398149
#
# number of rings (size 3 to 8) (size 9 to 14) (size 15 to 20)
#    0.000    2.000    3.750    1.500    5.250    0.000 
#    0.000    0.000    0.000    0.000   35.750    0.000 
#    0.000    0.000    0.000    0.000    0.000    0.000 
#
# Total GULP energy -594883.155421 kJ/mol
# GULP energy per Si atom -12393.399071 kJ/mol
# Density = 2.035172 g / cm^3
# Si number density = 20.398149 Si / 1000 Ang^3
#
#
#
# Elastic Constant Matrix: (Units=GPa)
#
#
# Indices 1 2 3 4 5 6 
#
# 1 136.5364 57.5461 17.1697 0.0000 0.0000 0.0000
# 2 57.5461 136.5364 17.1697 0.0000 0.0000 0.0000
# 3 17.1697 17.1697 22.5875 0.0000 0.0000 0.0000
# 4 0.0000 0.0000 0.0000 16.5281 0.0000 0.0000
# 5 0.0000 0.0000 0.0000 0.0000 16.5281 0.0000
# 6 0.0000 0.0000 0.0000 0.0000 0.0000 39.4952
#
#
#
# Elastic Compliance Matrix: (Units=1/GPa)
#
#
# Indices 1 2 3 4 5 6 
#
# 1 0.009306 -0.003353 -0.004525 0.000000 0.000000 0.000000
# 2 -0.003353 0.009306 -0.004525 0.000000 0.000000 0.000000
# 3 -0.004525 -0.004525 0.051152 0.000000 0.000000 0.000000
# 4 0.000000 0.000000 0.000000 0.060503 0.000000 0.000000
# 5 0.000000 0.000000 0.000000 0.000000 0.060503 0.000000
# 6 0.000000 0.000000 0.000000 0.000000 0.000000 0.025320
#
#
# Mechanical properties :
#
#
# Convention : Reuss Voigt Hill
#
# Bulk Modulus (GPa) = 22.24336 53.27013 37.75674
# Shear Modulus (GPa) = 19.54015 28.09526 23.81771
#
# Velocity S-wave (km/s) = 3.09841 3.71528 3.42078
# Velocity P-wave (km/s) = 4.87119 6.67655 5.84401
#
# Compressibility (1/GPa) = 0.04495724
#
# Stress axis : x y z
#
# Youngs Moduli (GPa) = 107.45250 107.45250 19.54967
#
# Poissons Ratio (x) = 0.36033 0.08847
# Poissons Ratio (y) = 0.36033 0.08847
# Poissons Ratio (z) = 0.48624 0.48624
#
# Static dielectric constant tensor:
#      x y z
#    x 3.987720 0.000000 0.000000 
#    y 0.000000 3.987720 0.000000 
#    z 0.000000 0.000000 3.170500 
# 
# 
# High freq. dielectric constant tensor:
#      x y z
#    x 1.805980 0.000000 0.000000 
#    y 0.000000 1.805980 0.000000 
#    z 0.000000 0.000000 1.731060 
# 
# From -- ./inp_files/1015.got.cif
#   From: 2010.03.12/outbox.cif.g09.slc.cpg/sg169_cif.got.tgz:1015.got - 2010.04.02 06:46:06.
