data_PCOD8324869
_publ_section_title
;
Structure prediction by ZEFSAII (Michael W. Deem and Ramdas Pophale) SiO2 
 PCOD8324869
Probable space group: P 63
;
_chemical_formula_sum "Si O2"
_cell_formula_units_Z 48
_cell_length_a 15.505576
_cell_length_b 15.505576
_cell_length_c 11.230608
_cell_angle_alpha 90.000000
_cell_angle_beta 90.000000
_cell_angle_gamma 120.000000
_cell_volume 2338.351035
_symmetry_space_group_name_H-M "P 63"
_symmetry_group_IT_number 173
_symmetry_cell_setting 'hexagonal'
loop_
_space_group_symop_operation_xyz
x,y,z
x-y,x,1/2+z
-y,x-y,z
-x,-y,1/2+z
-x+y,-x,z
y,-x+y,1/2+z
loop_
_atom_site_type_symbol
_atom_site_label
_atom_site_fract_x
_atom_site_fract_y
_atom_site_fract_z
Si Si1 0.738556 0.553313 0.584880
Si Si2 0.890821 0.293134 0.831202
Si Si3 0.152206 0.807301 0.699023
Si Si4 0.089125 0.868531 0.470783
Si Si5 0.374400 0.904619 0.733370
Si Si6 0.903118 0.142504 0.449382
Si Si7 0.864511 0.466059 0.488306
Si Si8 0.458645 0.072229 0.069423
O O1 0.744237 0.550534 0.729137
O O2 0.797090 0.669247 0.542334
O O3 0.774126 0.479346 0.534085
O O4 0.624006 0.498613 0.542819
O O5 0.901661 0.200120 0.871229
O O6 0.989418 0.375877 0.765002
O O7 0.862353 0.334926 0.949329
O O8 0.132053 0.867312 0.599076
O O9 0.263875 0.828793 0.692399
O O10 0.135209 0.842515 0.824454
O O11 0.085197 0.689733 0.674418
O O12 0.972262 0.828896 0.486482
O O13 0.158952 0.981631 0.431603
O O14 0.404330 0.860064 0.845473
O O15 0.437103 0.907985 0.618596
O O16 0.959531 0.569470 0.526907
#
# Coordination Sequence:
#
# PCOD8324869 Si02
#       8
#     6   6   6   6   6   6   6   6
#     4  12  23  45  67 101 137 180 231 292 351 419
#     4  10  22  43  65  98 137 174 223 291 339 417
#     4  11  23  44  67  98 135 182 231 283 355 413
#     4  11  26  42  68 102 140 182 238 288 355 423
#     4  11  20  44  67  93 132 175 230 276 338 414
#     4  12  25  43  71 102 140 189 235 294 362 416
#     4  11  24  40  70  97 133 172 234 281 339 414
#     4  10  23  43  65  99 130 178 226 279 343 418
#
# _framework density 20.527286
#
# number of rings (size 3 to 8) (size 9 to 14) (size 15 to 20)
#    0.000    1.000    3.750    3.500    3.500    0.000 
#    5.250    0.000    0.000    0.000    0.000    0.000 
#    0.000    0.000    0.000    0.000    0.000    0.000 
#
# Total GULP energy -595027.118837 kJ/mol
# GULP energy per Si atom -12396.398309 kJ/mol
# Density = 2.048057 g / cm^3
# Si number density = 20.527286 Si / 1000 Ang^3
#
#
#
# Elastic Constant Matrix: (Units=GPa)
#
#
# Indices 1 2 3 4 5 6 
#
# 1 81.4861 40.5149 30.1821 0.0000 0.0000 0.0000
# 2 40.5149 81.4861 30.1821 0.0000 0.0000 0.0000
# 3 30.1821 30.1821 116.9788 0.0000 0.0000 0.0000
# 4 0.0000 0.0000 0.0000 421.0246 0.0000 0.0000
# 5 0.0000 0.0000 0.0000 0.0000 421.0246 0.0000
# 6 0.0000 0.0000 0.0000 0.0000 0.0000 20.4856
#
#
#
# Elastic Compliance Matrix: (Units=1/GPa)
#
#
# Indices 1 2 3 4 5 6 
#
# 1 0.016902 -0.007506 -0.002424 0.000000 0.000000 0.000000
# 2 -0.007506 0.016902 -0.002424 0.000000 0.000000 0.000000
# 3 -0.002424 -0.002424 0.009800 0.000000 0.000000 0.000000
# 4 0.000000 0.000000 0.000000 0.002375 0.000000 0.000000
# 5 0.000000 0.000000 0.000000 0.000000 0.002375 0.000000
# 6 0.000000 0.000000 0.000000 0.000000 0.000000 0.048815
#
#
# Mechanical properties :
#
#
# Convention : Reuss Voigt Hill
#
# Bulk Modulus (GPa) = 52.92520 53.52322 53.22421
# Shear Modulus (GPa) = 39.00914 184.44509 111.72712
#
# Velocity S-wave (km/s) = 4.36404 9.48940 7.38558
# Velocity P-wave (km/s) = 7.15765 12.09114 9.93548
#
# Compressibility (1/GPa) = 0.01889459
#
# Stress axis : x y z
#
# Youngs Moduli (GPa) = 59.16531 59.16531 102.04525
#
# Poissons Ratio (x) = 0.44407 0.24739
# Poissons Ratio (y) = 0.44407 0.24739
# Poissons Ratio (z) = 0.14344 0.14344
#
# Static dielectric constant tensor:
#      x y z
#    x 1.291220 0.000000 0.000000 
#    y 0.000000 1.291220 0.000000 
#    z 0.000000 0.000000 3.907020 
# 
# 
# High freq. dielectric constant tensor:
#      x y z
#    x 1.801280 0.000000 0.000000 
#    y 0.000000 1.801280 0.000000 
#    z 0.000000 0.000000 1.815820 
# 
# From -- ./inp_files/933.got.cif
#   From: 2010.03.12/outbox.cif.g09.slc.cpg/sg173_cif.got.tgz:933.got - 2010.04.02 06:54:12.
