data_PCOD8324777
_publ_section_title
;
Structure prediction by ZEFSAII (Michael W. Deem and Ramdas Pophale) SiO2 
 PCOD8324777
Probable space group: P 62
;
_chemical_formula_sum "Si O2"
_cell_formula_units_Z 42
_cell_length_a 13.303301
_cell_length_b 13.303301
_cell_length_c 13.230006
_cell_angle_alpha 90.000000
_cell_angle_beta 90.000000
_cell_angle_gamma 120.000000
_cell_volume 2027.727112
_symmetry_space_group_name_H-M "P 62"
_symmetry_group_IT_number 171
_symmetry_cell_setting 'hexagonal'
loop_
_space_group_symop_operation_xyz
x,y,z
x-y,x,1/3+z
-y,x-y,2/3+z
-x,-y,z
-x+y,-x,1/3+z
y,-x+y,2/3+z
loop_
_atom_site_type_symbol
_atom_site_label
_atom_site_fract_x
_atom_site_fract_y
_atom_site_fract_z
Si Si1 0.883905 0.039048 0.885150
Si Si2 0.975027 0.123312 0.331025
Si Si3 0.651383 0.220326 0.393693
Si Si4 0.597317 0.914637 0.693991
Si Si5 0.685785 0.093511 0.870920
Si Si6 0.358267 0.580981 0.502416
Si Si7 0.000000 0.500000 0.707849
Si Si8 0.500000 0.500000 0.854727
O O1 0.807281 0.100045 0.891303
O O2 0.999923 0.116582 0.949601
O O3 0.913777 0.023475 0.771399
O O4 0.815615 0.907461 0.929458
O O5 0.912917 0.198601 0.337618
O O6 0.790070 0.286585 0.402928
O O7 0.605213 0.300215 0.442950
O O8 0.611139 0.194174 0.278373
O O9 0.598785 0.098957 0.452220
O O10 0.615600 0.009127 0.778330
O O11 0.557911 0.943746 0.589665
O O12 0.710289 0.219872 0.842205
O O13 0.613793 0.047623 0.973164
O O14 0.404251 0.506754 0.443268
#
# Coordination Sequence:
#
# PCOD8324777 Si02
#       8
#     6   6   6   6   6   6   3   3
#     4  10  22  42  65  98 136 173 222 282 345 413
#     4  10  22  42  65  98 136 173 222 282 345 413
#     4  12  26  50  71 104 143 180 235 294 351 420
#     4  11  26  43  73 104 135 189 234 289 350 424
#     4  11  26  43  73 104 135 189 234 289 350 424
#     4  12  26  50  71 104 143 180 235 294 351 420
#     4  12  26  46  76 100 142 184 236 292 352 416
#     4  12  26  46  76 100 142 184 236 292 352 416
#
# _framework density 20.712848000000001
#
# number of rings (size 3 to 8) (size 9 to 14) (size 15 to 20)
#    0.000    0.857    2.857    4.286    8.000    2.286 
#    5.143    0.000    0.000    0.000    0.000    0.000 
#    0.000    0.000    0.000    0.000    0.000    0.000 
#
# Total GULP energy -520915.605384 kJ/mol
# GULP energy per Si atom -12402.752509 kJ/mol
# Density = 2.066570 g / cm^3
# Si number density = 20.712848 Si / 1000 Ang^3
#
#
#
# Elastic Constant Matrix: (Units=GPa)
#
#
# Indices 1 2 3 4 5 6 
#
# 1 96.5235 18.4341 28.6639 0.0000 0.0000 0.0000
# 2 18.4341 96.5235 28.6639 0.0000 0.0000 0.0000
# 3 28.6639 28.6639 95.3112 0.0000 0.0000 0.0000
# 4 0.0000 0.0000 0.0000 36.8502 0.0000 0.0000
# 5 0.0000 0.0000 0.0000 0.0000 36.8502 0.0000
# 6 0.0000 0.0000 0.0000 0.0000 0.0000 39.0447
#
#
#
# Elastic Compliance Matrix: (Units=1/GPa)
#
#
# Indices 1 2 3 4 5 6 
#
# 1 0.011520 -0.001286 -0.003078 0.000000 0.000000 0.000000
# 2 -0.001286 0.011520 -0.003078 0.000000 0.000000 0.000000
# 3 -0.003078 -0.003078 0.012343 0.000000 0.000000 0.000000
# 4 0.000000 0.000000 0.000000 0.027137 0.000000 0.000000
# 5 0.000000 0.000000 0.000000 0.000000 0.027137 0.000000
# 6 0.000000 0.000000 0.000000 0.000000 0.000000 0.025612
#
#
# Mechanical properties :
#
#
# Convention : Reuss Voigt Hill
#
# Bulk Modulus (GPa) = 48.78112 48.87577 48.82845
# Shear Modulus (GPa) = 36.50058 36.72211 36.61134
#
# Velocity S-wave (km/s) = 4.20243 4.21517 4.20881
# Velocity P-wave (km/s) = 6.86655 6.88028 6.87342
#
# Compressibility (1/GPa) = 0.02049973
#
# Stress axis : x y z
#
# Youngs Moduli (GPa) = 86.80747 86.80747 81.01686
#
# Poissons Ratio (x) = 0.11164 0.24934
# Poissons Ratio (y) = 0.11164 0.24934
# Poissons Ratio (z) = 0.26717 0.26717
#
# Static dielectric constant tensor:
#      x y z
#    x 3.745330 0.000000 0.000000 
#    y 0.000000 3.745330 0.000000 
#    z 0.000000 0.000000 3.961010 
# 
# 
# High freq. dielectric constant tensor:
#      x y z
#    x 1.815430 0.000000 0.000000 
#    y 0.000000 1.815430 0.000000 
#    z 0.000000 0.000000 1.829910 
# 
# From -- ./inp_files/4683.got.cif
#   From: 2010.03.12/outbox.cif.g09.slc.cpg/sg171_3_cif.got.tgz:4683.got - 2010.04.02 06:49:11.
