data_PCOD8324805
_publ_section_title
;
Structure prediction by ZEFSAII (Michael W. Deem and Ramdas Pophale) SiO2 
 PCOD8324805
Probable space group: P 62
;
_chemical_formula_sum "Si O2"
_cell_formula_units_Z 42
_cell_length_a 18.032798
_cell_length_b 18.032798
_cell_length_c 6.927729
_cell_angle_alpha 90.000000
_cell_angle_beta 90.000000
_cell_angle_gamma 120.000000
_cell_volume 1950.957272
_symmetry_space_group_name_H-M "P 62"
_symmetry_group_IT_number 171
_symmetry_cell_setting 'hexagonal'
loop_
_space_group_symop_operation_xyz
x,y,z
x-y,x,1/3+z
-y,x-y,2/3+z
-x,-y,z
-x+y,-x,1/3+z
y,-x+y,2/3+z
loop_
_atom_site_type_symbol
_atom_site_label
_atom_site_fract_x
_atom_site_fract_y
_atom_site_fract_z
Si Si1 0.307028 0.051772 0.575080
Si Si2 0.261254 0.652619 0.368076
Si Si3 0.292970 0.821378 0.201235
Si Si4 0.516591 0.927879 0.728843
Si Si5 0.156232 0.762642 0.903536
Si Si6 0.426677 0.510992 0.490960
Si Si7 0.140161 0.336420 0.175895
O O1 0.401525 0.069824 0.632026
O O2 0.311961 0.080711 0.350575
O O3 0.285000 0.111853 0.709385
O O4 0.230114 0.954478 0.595964
O O5 0.312988 0.616681 0.245809
O O6 0.253412 0.723531 0.251401
O O7 0.160461 0.584562 0.386447
O O8 0.389005 0.853275 0.145348
O O9 0.275244 0.866770 0.383032
O O10 0.245406 0.826045 0.009401
O O11 0.500000 0.000000 0.633740
O O12 0.538465 0.948092 0.954592
O O13 0.134269 0.664294 0.929531
O O14 0.167290 0.791522 0.682592
O O15 0.500000 0.500000 0.603051
#
# Coordination Sequence:
#
# PCOD8324805 Si02
#       7
#     6   6   6   6   6   6   6
#     4  11  25  46  69 105 133 181 231 282 361 427
#     4  12  25  43  61  87 128 178 238 289 349 398
#     4  11  24  40  60  96 129 188 236 291 343 397
#     4  11  25  41  61  93 131 184 242 289 350 402
#     4  11  23  45  67  95 138 180 237 285 343 413
#     4  11  23  39  62  94 134 183 239 285 341 399
#     4  11  25  44  74  98 141 178 231 291 352 427
#
# _framework density 21.527892999999999
#
# number of rings (size 3 to 8) (size 9 to 14) (size 15 to 20)
#    0.000    0.857    4.286    2.571    6.000    5.143 
#    0.000    1.429    0.000    0.000    0.000    5.000 
#    0.000    0.000    0.000    0.000    0.000    0.000 
#
# Total GULP energy -520487.865993 kJ/mol
# GULP energy per Si atom -12392.568238 kJ/mol
# Density = 2.147889 g / cm^3
# Si number density = 21.527893 Si / 1000 Ang^3
#
#
#
# Elastic Constant Matrix: (Units=GPa)
#
#
# Indices 1 2 3 4 5 6 
#
# 1 112.3395 48.8736 30.5784 0.0000 0.0000 0.0000
# 2 48.8736 112.3395 30.5784 0.0000 0.0000 0.0000
# 3 30.5784 30.5784 98.2332 0.0000 0.0000 0.0000
# 4 0.0000 0.0000 0.0000 11.3774 0.0000 0.0000
# 5 0.0000 0.0000 0.0000 0.0000 11.3774 0.0000
# 6 0.0000 0.0000 0.0000 0.0000 0.0000 31.7330
#
#
#
# Elastic Compliance Matrix: (Units=1/GPa)
#
#
# Indices 1 2 3 4 5 6 
#
# 1 0.011395 -0.004361 -0.002189 0.000000 0.000000 0.000000
# 2 -0.004361 0.011395 -0.002189 0.000000 0.000000 0.000000
# 3 -0.002189 -0.002189 0.011543 0.000000 0.000000 0.000000
# 4 0.000000 0.000000 0.000000 0.087894 0.000000 0.000000
# 5 0.000000 0.000000 0.000000 0.000000 0.087894 0.000000
# 6 0.000000 0.000000 0.000000 0.000000 0.000000 0.031513
#
#
# Mechanical properties :
#
#
# Convention : Reuss Voigt Hill
#
# Bulk Modulus (GPa) = 59.33910 60.33033 59.83472
# Shear Modulus (GPa) = 18.88707 25.08966 21.98837
#
# Velocity S-wave (km/s) = 2.96519 3.41757 3.19939
# Velocity P-wave (km/s) = 6.27270 6.60743 6.44224
#
# Compressibility (1/GPa) = 0.01685229
#
# Stress axis : x y z
#
# Youngs Moduli (GPa) = 87.75768 87.75768 86.63312
#
# Poissons Ratio (x) = 0.38275 0.18968
# Poissons Ratio (y) = 0.38275 0.18968
# Poissons Ratio (z) = 0.19214 0.19214
#
# Static dielectric constant tensor:
#      x y z
#    x 3.605650 0.000000 0.000000 
#    y 0.000000 3.605650 0.000000 
#    z 0.000000 0.000000 4.155150 
# 
# 
# High freq. dielectric constant tensor:
#      x y z
#    x 1.825040 0.000000 0.000000 
#    y 0.000000 1.825040 0.000000 
#    z 0.000000 0.000000 1.864100 
# 
# From -- ./inp_files/753.got.cif
#   From: 2010.03.12/outbox.cif.g09.slc.cpg/sg171_1_cif.got.tgz:753.got - 2010.04.02 06:49:11.
