data_PCOD8324559
_publ_section_title
;
Structure prediction by ZEFSAII (Michael W. Deem and Ramdas Pophale) SiO2 
 PCOD8324559
Probable space group: P 61
;
_chemical_formula_sum "Si O2"
_cell_formula_units_Z 48
_cell_length_a 18.346789
_cell_length_b 18.346789
_cell_length_c 8.605066
_cell_angle_alpha 90.000000
_cell_angle_beta 90.000000
_cell_angle_gamma 120.000000
_cell_volume 2508.447234
_symmetry_space_group_name_H-M "P 61"
_symmetry_group_IT_number 169
_symmetry_cell_setting 'hexagonal'
loop_
_space_group_symop_operation_xyz
x,y,z
x-y,x,1/6+z
-y,x-y,1/3+z
-x,-y,1/2+z
-x+y,-x,2/3+z
y,-x+y,5/6+z
loop_
_atom_site_type_symbol
_atom_site_label
_atom_site_fract_x
_atom_site_fract_y
_atom_site_fract_z
Si Si1 0.566932 0.051073 0.642280
Si Si2 0.079573 0.340495 0.568936
Si Si3 0.365641 0.657380 0.524050
Si Si4 0.455469 0.892762 0.462116
Si Si5 0.249316 0.457029 0.150366
Si Si6 0.549281 0.732504 0.172566
Si Si7 0.503715 0.844512 0.968700
Si Si8 0.763784 0.655099 0.931289
O O1 0.666742 0.081153 0.626541
O O2 0.546186 0.052065 0.821417
O O3 0.540043 0.106488 0.540370
O O4 0.510230 0.953668 0.600877
O O5 0.107487 0.376923 0.742616
O O6 0.144781 0.312189 0.507452
O O7 0.987131 0.257117 0.571769
O O8 0.319572 0.663440 0.685334
O O9 0.465245 0.710004 0.559992
O O10 0.337764 0.559453 0.509545
O O11 0.501218 0.842916 0.407659
O O12 0.360857 0.827826 0.520501
O O13 0.232651 0.383855 0.268021
O O14 0.181034 0.415784 0.012009
O O15 0.520686 0.794559 0.102163
O O16 0.589584 0.902258 0.874869
#
# Coordination Sequence:
#
# PCOD8324559 Si02
#       8
#     6   6   6   6   6   6   6   6
#     4  11  22  37  59  85 124 169 212 258 306 364
#     4  10  23  43  62  88 119 160 201 259 321 385
#     4  12  24  34  54  82 122 171 220 270 313 355
#     4  11  23  36  55  84 120 167 216 262 302 362
#     4  12  21  38  53  85 119 159 216 260 304 366
#     4  10  23  37  57  84 123 165 215 266 307 355
#     4  11  21  37  55  82 119 166 210 260 304 357
#     4  11  23  42  63  88 120 155 206 259 323 386
#
# _framework density 19.135342999999999
#
# number of rings (size 3 to 8) (size 9 to 14) (size 15 to 20)
#    0.000    1.000    3.750    4.500    3.500    1.000 
#    0.000    0.000    0.000    0.000    0.000    1.750 
#    0.000    0.000    0.000    0.000    0.000    0.000 
#
# Total GULP energy -594940.357948 kJ/mol
# GULP energy per Si atom -12394.590791 kJ/mol
# Density = 1.909179 g / cm^3
# Si number density = 19.135343 Si / 1000 Ang^3
#
#
#
# Elastic Constant Matrix: (Units=GPa)
#
#
# Indices 1 2 3 4 5 6 
#
# 1 87.5328 36.7441 35.7160 0.0000 0.0000 0.0000
# 2 36.7441 87.5328 35.7160 0.0000 0.0000 0.0000
# 3 35.7160 35.7160 104.4061 0.0000 0.0000 0.0000
# 4 0.0000 0.0000 0.0000 24.1162 0.0000 0.0000
# 5 0.0000 0.0000 0.0000 0.0000 24.1162 0.0000
# 6 0.0000 0.0000 0.0000 0.0000 0.0000 25.3943
#
#
#
# Elastic Compliance Matrix: (Units=1/GPa)
#
#
# Indices 1 2 3 4 5 6 
#
# 1 0.014853 -0.004837 -0.003426 0.000000 0.000000 0.000000
# 2 -0.004837 0.014853 -0.003426 0.000000 0.000000 0.000000
# 3 -0.003426 -0.003426 0.011922 0.000000 0.000000 0.000000
# 4 0.000000 0.000000 0.000000 0.041466 0.000000 0.000000
# 5 0.000000 0.000000 0.000000 0.000000 0.041466 0.000000
# 6 0.000000 0.000000 0.000000 0.000000 0.000000 0.039379
#
#
# Mechanical properties :
#
#
# Convention : Reuss Voigt Hill
#
# Bulk Modulus (GPa) = 54.79823 55.09153 54.94488
# Shear Modulus (GPa) = 25.85318 26.14507 25.99913
#
# Velocity S-wave (km/s) = 3.67968 3.70039 3.69005
# Velocity P-wave (km/s) = 6.83760 6.86368 6.85065
#
# Compressibility (1/GPa) = 0.01824877
#
# Stress axis : x y z
#
# Youngs Moduli (GPa) = 67.32792 67.32792 83.87730
#
# Poissons Ratio (x) = 0.32565 0.28739
# Poissons Ratio (y) = 0.32565 0.28739
# Poissons Ratio (z) = 0.23069 0.23069
#
# Static dielectric constant tensor:
#      x y z
#    x 3.370870 0.000000 0.000000 
#    y 0.000000 3.370870 0.000000 
#    z 0.000000 0.000000 3.516450 
# 
# 
# High freq. dielectric constant tensor:
#      x y z
#    x 1.718910 0.000000 0.000000 
#    y 0.000000 1.718910 0.000000 
#    z 0.000000 0.000000 1.755550 
# 
# From -- ./inp_files/761.got.cif
#   From: 2010.03.12/outbox.cif.g09.slc.cpg/sg169_cif.got.tgz:761.got - 2010.04.02 06:46:06.
