data_PCOD8324236
_publ_section_title
;
Structure prediction by ZEFSAII (Michael W. Deem and Ramdas Pophale) SiO2 
 PCOD8324236
Probable space group: R -3 M
;
_chemical_formula_sum "Si O2"
_cell_formula_units_Z 108
_cell_length_a 17.433074
_cell_length_b 17.433074
_cell_length_c 24.323011
_cell_angle_alpha 90.000000
_cell_angle_beta 90.000000
_cell_angle_gamma 120.000000
_cell_volume 6401.708801
_symmetry_space_group_name_H-M "R -3 M"
_symmetry_group_IT_number 166
_symmetry_cell_setting 'hexagonal'
loop_
_space_group_symop_operation_xyz
x,y,z
-y,x-y,z
-x+y,-x,z
x-y,-y,-z
-x,-x+y,-z
y,x,-z
-x,-y,-z
y,-x+y,-z
x-y,x,-z
-x+y,y,z
x,x-y,z
-y,-x,z
2/3+x,1/3+y,1/3+z
2/3-y,1/3+x-y,1/3+z
2/3-x+y,1/3-x,1/3+z
2/3+x-y,1/3-y,1/3-z
2/3-x,1/3-x+y,1/3-z
2/3+y,1/3+x,1/3-z
2/3-x,1/3-y,1/3-z
2/3+y,1/3-x+y,1/3-z
2/3+x-y,1/3+x,1/3-z
2/3-x+y,1/3+y,1/3+z
2/3+x,1/3+x-y,1/3+z
2/3-y,1/3-x,1/3+z
1/3+x,2/3+y,2/3+z
1/3-y,2/3+x-y,2/3+z
1/3-x+y,2/3-x,2/3+z
1/3+x-y,2/3-y,2/3-z
1/3-x,2/3-x+y,2/3-z
1/3+y,2/3+x,2/3-z
1/3-x,2/3-y,2/3-z
1/3+y,2/3-x+y,2/3-z
1/3+x-y,2/3+x,2/3-z
1/3-x+y,2/3+y,2/3+z
1/3+x,2/3+x-y,2/3+z
1/3-y,2/3-x,2/3+z
loop_
_atom_site_type_symbol
_atom_site_label
_atom_site_fract_x
_atom_site_fract_y
_atom_site_fract_z
Si Si1 0.722571 0.445142 0.987384
Si Si2 0.281794 0.393647 0.784560
Si Si3 0.848995 0.151006 0.304129
Si Si4 0.757488 0.242513 0.864635
Si Si5 0.705897 0.852949 0.093642
O O1 0.616236 0.383765 0.997912
O O2 0.764379 0.528758 0.027645
O O3 0.737253 0.474505 0.924712
O O4 0.214512 0.429023 0.802377
O O5 0.286503 0.333334 0.833334
O O6 0.243100 0.334289 0.728992
O O7 0.377099 0.476594 0.773023
O O8 0.827851 0.172150 0.363889
O O9 0.817857 0.333334 0.833334
O O10 0.810507 0.189494 0.866902
#
# Coordination Sequence:
#
# PCOD8324236 Si02
#       5
#    18  36  18  18  18
#     4   9  17  31  52  80 107 141 180 206 257 325
#     4   9  20  39  54  75 110 140 171 226 274 311
#     4   9  19  35  56  75 111 142 171 225 277 302
#     4  11  18  30  53  78 111 144 171 218 264 305
#     4  11  20  33  58  82 101 142 191 213 264 327
#
# _framework density 16.870494999999998
#
# number of rings (size 3 to 8) (size 9 to 14) (size 15 to 20)
#    1.333    1.000    1.667    2.167    0.000    0.000 
#    4.000    0.000    0.000    6.000    0.000    0.000 
#    0.000    0.000    0.000    0.000    0.000    0.000 
#
# Total GULP energy -446108.000780 kJ/mol
# GULP energy per Si atom -12391.888911 kJ/mol
# Density = 1.683210 g / cm^3
# Si number density = 16.870495 Si / 1000 Ang^3
#
#
#
# Elastic Constant Matrix: (Units=GPa)
#
#
# Indices 1 2 3 4 5 6 
#
# 1 109.7545 72.0541 41.8412 -0.1788 -0.0004 0.0000
# 2 72.0541 109.7545 41.8412 0.1788 0.0004 0.0000
# 3 41.8412 41.8412 82.8303 0.0000 0.0000 0.0000
# 4 -0.1788 0.1788 0.0000 6.3696 0.0000 0.0004
# 5 -0.0004 0.0004 0.0000 0.0000 6.3696 -0.1788
# 6 0.0000 0.0000 0.0000 0.0004 -0.1788 18.8502
#
#
#
# Elastic Compliance Matrix: (Units=1/GPa)
#
#
# Indices 1 2 3 4 5 6 
#
# 1 0.016849 -0.009683 -0.003620 0.000745 0.000002 0.000000
# 2 -0.009683 0.016849 -0.003620 -0.000745 -0.000002 0.000000
# 3 -0.003620 -0.003620 0.015730 0.000000 0.000000 0.000000
# 4 0.000745 -0.000745 0.000000 0.157038 0.000000 -0.000003
# 5 0.000002 -0.000002 0.000000 0.000000 0.157038 0.001490
# 6 0.000000 0.000000 0.000000 -0.000003 0.001490 0.053064
#
#
# Mechanical properties :
#
#
# Convention : Reuss Voigt Hill
#
# Bulk Modulus (GPa) = 64.17330 68.20138 66.18734
# Shear Modulus (GPa) = 10.97433 16.09140 13.53287
#
# Velocity S-wave (km/s) = 2.55327 3.09175 2.83532
# Velocity P-wave (km/s) = 6.84204 7.29790 7.07365
#
# Compressibility (1/GPa) = 0.01558281
#
# Stress axis : x y z
#
# Youngs Moduli (GPa) = 59.34983 59.34983 63.57173
#
# Poissons Ratio (x) = 0.57467 0.23014
# Poissons Ratio (y) = 0.57467 0.23014
# Poissons Ratio (z) = 0.21486 0.21486
#
# Static dielectric constant tensor:
#      x y z
#    x 3.045510 0.000000 0.000000 
#    y 0.000000 3.045510 0.000000 
#    z 0.000000 0.000000 3.171360 
# 
# 
# High freq. dielectric constant tensor:
#      x y z
#    x 1.639350 0.000000 0.000000 
#    y 0.000000 1.639350 0.000000 
#    z 0.000000 0.000000 1.655930 
# 
# From -- ./inp_files/9133.got.cif
#   From: 2010.03.12/outbox.cif.g09.slc.cpg/sg166_5_cif.got.tgz:9133.got - 2010.04.02 06:38:31.
