data_PCOD8324294
_publ_section_title
;
Structure prediction by ZEFSAII (Michael W. Deem and Ramdas Pophale) SiO2 
 PCOD8324294
Probable space group: R -3 C 
;
_chemical_formula_sum "Si O2"
_cell_formula_units_Z 216
_cell_length_a 24.549289
_cell_length_b 24.549289
_cell_length_c 22.247715
_cell_angle_alpha 90.000000
_cell_angle_beta 90.000000
_cell_angle_gamma 120.000000
_cell_volume 11611.648514
_symmetry_space_group_name_H-M "R -3 C "
_symmetry_group_IT_number 167
_symmetry_cell_setting 'hexagonal'
loop_
_space_group_symop_operation_xyz
x,y,z
-y,x-y,z
-x+y,-x,z
x-y,-y,1/2-z
-x,-x+y,1/2-z
y,x,1/2-z
-x,-y,-z
y,-x+y,-z
x-y,x,-z
-x+y,y,1/2+z
x,x-y,1/2+z
-y,-x,1/2+z
2/3+x,1/3+y,1/3+z
2/3-y,1/3+x-y,1/3+z
2/3-x+y,1/3-x,1/3+z
2/3+x-y,1/3-y,5/6-z
2/3-x,1/3-x+y,5/6-z
2/3+y,1/3+x,5/6-z
2/3-x,1/3-y,1/3-z
2/3+y,1/3-x+y,1/3-z
2/3+x-y,1/3+x,1/3-z
2/3-x+y,1/3+y,5/6+z
2/3+x,1/3+x-y,5/6+z
2/3-y,1/3-x,5/6+z
1/3+x,2/3+y,2/3+z
1/3-y,2/3+x-y,2/3+z
1/3-x+y,2/3-x,2/3+z
1/3+x-y,2/3-y,1/6-z
1/3-x,2/3-x+y,1/6-z
1/3+y,2/3+x,1/6-z
1/3-x,2/3-y,2/3-z
1/3+y,2/3-x+y,2/3-z
1/3+x-y,2/3+x,2/3-z
1/3-x+y,2/3+y,1/6+z
1/3+x,2/3+x-y,1/6+z
1/3-y,2/3-x,1/6+z
loop_
_atom_site_type_symbol
_atom_site_label
_atom_site_fract_x
_atom_site_fract_y
_atom_site_fract_z
Si Si1 0.668663 0.681755 0.485979
Si Si2 0.127241 0.886424 0.623778
Si Si3 0.342888 0.442353 0.349401
Si Si4 0.009712 0.209934 0.820786
Si Si5 0.875789 0.143867 0.133843
Si Si6 0.622259 0.846268 0.166997
O O1 0.667647 0.666667 0.416667
O O2 0.695216 0.641004 0.519248
O O3 0.598336 0.660497 0.509091
O O4 0.715373 0.756268 0.497684
O O5 0.058238 0.837166 0.646289
O O6 0.173999 0.867693 0.654358
O O7 0.132468 0.888254 0.551337
O O8 0.147100 0.956145 0.646871
O O9 0.333334 0.460030 0.416667
O O10 0.279807 0.417618 0.312706
O O11 0.076043 0.217507 0.840407
O O12 0.000000 0.201184 0.750000
O O13 0.833334 0.166667 0.166667
O O14 0.868988 0.140811 0.061984
#
# Coordination Sequence:
#
# PCOD8324294 Si02
#       6
#    36  36  36  36  36  36
#     4  10  19  35  54  80 117 154 192 239 300 369
#     4  10  24  37  51  82 121 154 192 247 303 366
#     4  12  24  35  58  88 121 155 206 253 307 371
#     4  10  20  38  57  76 111 149 194 243 295 359
#     4  12  21  37  60  85 107 153 208 250 305 379
#     4  10  22  36  54  83 119 158 197 235 306 369
#
# _framework density 18.60201
#
# number of rings (size 3 to 8) (size 9 to 14) (size 15 to 20)
#    0.000    1.333    3.333    4.000    7.000    1.333 
#    0.000    0.000    0.000    0.667    0.000    2.333 
#    0.000    2.667    0.000    0.000    0.000    0.000 
#
# Total GULP energy -892789.463582 kJ/mol
# GULP energy per Si atom -12399.853661 kJ/mol
# Density = 1.855967 g / cm^3
# Si number density = 18.602010 Si / 1000 Ang^3
#
#
#
# Elastic Constant Matrix: (Units=GPa)
#
#
# Indices 1 2 3 4 5 6 
#
# 1 94.1119 39.7373 42.6858 -3.0986 0.0002 0.0000
# 2 39.7373 94.1119 42.6858 3.0986 -0.0002 0.0000
# 3 42.6858 42.6858 148.8774 0.0000 0.0000 0.0000
# 4 -3.0986 3.0986 0.0000 23.4851 0.0000 -0.0002
# 5 0.0002 -0.0002 0.0000 0.0000 23.4851 -3.0986
# 6 0.0000 0.0000 0.0000 -0.0002 -3.0986 27.1873
#
#
#
# Elastic Compliance Matrix: (Units=1/GPa)
#
#
# Indices 1 2 3 4 5 6 
#
# 1 0.013907 -0.004764 -0.002622 0.002463 0.000000 0.000000
# 2 -0.004764 0.013907 -0.002622 -0.002463 0.000000 0.000000
# 3 -0.002622 -0.002622 0.008220 0.000000 0.000000 0.000000
# 4 0.002463 -0.002463 0.000000 0.043230 0.000000 0.000000
# 5 0.000000 0.000000 0.000000 0.000000 0.043230 0.004927
# 6 0.000000 0.000000 0.000000 0.000000 0.004927 0.037343
#
#
# Mechanical properties :
#
#
# Convention : Reuss Voigt Hill
#
# Bulk Modulus (GPa) = 62.42016 65.25770 63.83893
# Shear Modulus (GPa) = 26.99876 28.96431 27.98153
#
# Velocity S-wave (km/s) = 3.81384 3.95023 3.88264
# Velocity P-wave (km/s) = 7.28164 7.48084 7.38191
#
# Compressibility (1/GPa) = 0.01602046
#
# Stress axis : x y z
#
# Youngs Moduli (GPa) = 71.90401 71.90401 121.65156
#
# Poissons Ratio (x) = 0.34257 0.31891
# Poissons Ratio (y) = 0.34257 0.31891
# Poissons Ratio (z) = 0.18850 0.18850
#
# Static dielectric constant tensor:
#      x y z
#    x 2.942660 0.000000 0.000000 
#    y 0.000000 2.942660 0.000000 
#    z 0.000000 0.000000 3.441520 
# 
# 
# High freq. dielectric constant tensor:
#      x y z
#    x 1.694500 0.000000 0.000000 
#    y 0.000000 1.694500 0.000000 
#    z 0.000000 0.000000 1.742050 
# 
# From -- ./inp_files/5515.got.cif
#   From: 2010.03.12/outbox.cif.g09.slc.cpg/sg167_3_cif.got.tgz:5515.got - 2010.04.02 06:42:56.
