data_PCOD8324824
_publ_section_title
;
Structure prediction by ZEFSAII (Michael W. Deem and Ramdas Pophale) SiO2 
 PCOD8324824
Probable space group: P 64
;
_chemical_formula_sum "Si O2"
_cell_formula_units_Z 39
_cell_length_a 14.055163
_cell_length_b 14.055163
_cell_length_c 11.993495
_cell_angle_alpha 90.000000
_cell_angle_beta 90.000000
_cell_angle_gamma 120.000000
_cell_volume 2051.862069
_symmetry_space_group_name_H-M "P 64"
_symmetry_group_IT_number 172
_symmetry_cell_setting 'hexagonal'
loop_
_space_group_symop_operation_xyz
x,y,z
x-y,x,2/3+z
-y,x-y,1/3+z
-x,-y,z
-x+y,-x,2/3+z
y,-x+y,1/3+z
loop_
_atom_site_type_symbol
_atom_site_label
_atom_site_fract_x
_atom_site_fract_y
_atom_site_fract_z
Si Si1 0.500000 0.500000 0.198200
Si Si2 0.241903 0.160102 0.498439
Si Si3 0.599464 0.684216 0.925128
Si Si4 0.863753 0.375157 0.658554
Si Si5 0.273429 0.869400 0.650987
Si Si6 0.251615 0.169221 0.117981
Si Si7 0.841664 0.084472 0.087691
O O1 0.449014 0.397002 0.279929
O O2 0.593255 0.499913 0.119549
O O3 0.353511 0.254738 0.441680
O O4 0.268639 0.148679 0.626367
O O5 0.147792 0.191899 0.486849
O O6 0.203883 0.044470 0.438655
O O7 0.631397 0.589219 0.921587
O O8 0.466953 0.627031 0.937869
O O9 0.642335 0.754228 0.812122
O O10 0.651398 0.762250 0.031359
O O11 0.754058 0.257172 0.651901
O O12 0.190681 0.887429 0.573592
O O13 0.195480 0.041974 0.093411
#
# Coordination Sequence:
#
# PCOD8324824 Si02
#       7
#     3   6   6   6   6   6   6
#     4  10  22  40  66  94 118 156 224 260 318 380
#     4  12  25  36  59  95 134 170 202 248 321 392
#     4  10  20  38  60  88 116 160 216 259 302 373
#     4  10  20  38  67  90 111 162 222 262 306 370
#     4  12  21  41  67  89 122 162 213 271 314 370
#     4  12  20  38  61  90 125 172 206 253 304 378
#     4  12  24  36  57  95 138 165 205 250 321 387
#
# _framework density 19.007127000000001
#
# number of rings (size 3 to 8) (size 9 to 14) (size 15 to 20)
#    0.000    0.923    9.231    0.462    0.000    1.231 
#    0.000    3.077    0.000    0.000    0.000    0.000 
#    0.000    0.000    0.000    0.000    0.000    0.000 
#
# Total GULP energy -483644.194907 kJ/mol
# GULP energy per Si atom -12401.133203 kJ/mol
# Density = 1.896387 g / cm^3
# Si number density = 19.007127 Si / 1000 Ang^3
#
#
#
# Elastic Constant Matrix: (Units=GPa)
#
#
# Indices 1 2 3 4 5 6 
#
# 1 96.3507 46.4126 26.4713 0.0000 0.0000 0.0000
# 2 46.4126 96.3507 26.4713 0.0000 0.0000 0.0000
# 3 26.4713 26.4713 86.5956 0.0000 0.0000 0.0000
# 4 0.0000 0.0000 0.0000 15.9664 0.0000 0.0000
# 5 0.0000 0.0000 0.0000 0.0000 15.9664 0.0000
# 6 0.0000 0.0000 0.0000 0.0000 0.0000 24.9690
#
#
#
# Elastic Compliance Matrix: (Units=1/GPa)
#
#
# Indices 1 2 3 4 5 6 
#
# 1 0.013963 -0.006062 -0.002415 0.000000 0.000000 0.000000
# 2 -0.006062 0.013963 -0.002415 0.000000 0.000000 0.000000
# 3 -0.002415 -0.002415 0.013024 0.000000 0.000000 0.000000
# 4 0.000000 0.000000 0.000000 0.062631 0.000000 0.000000
# 5 0.000000 0.000000 0.000000 0.000000 0.062631 0.000000
# 6 0.000000 0.000000 0.000000 0.000000 0.000000 0.040050
#
#
# Mechanical properties :
#
#
# Convention : Reuss Voigt Hill
#
# Bulk Modulus (GPa) = 52.17902 53.11192 52.64547
# Shear Modulus (GPa) = 21.32791 23.37649 22.35220
#
# Velocity S-wave (km/s) = 3.35341 3.51077 3.43299
# Velocity P-wave (km/s) = 6.51964 6.66617 6.59331
#
# Compressibility (1/GPa) = 0.01916479
#
# Stress axis : x y z
#
# Youngs Moduli (GPa) = 71.62041 71.62041 76.77894
#
# Poissons Ratio (x) = 0.43419 0.18542
# Poissons Ratio (y) = 0.43419 0.18542
# Poissons Ratio (z) = 0.17296 0.17296
#
# Static dielectric constant tensor:
#      x y z
#    x 3.474640 0.000000 0.000000 
#    y 0.000000 3.474640 0.000000 
#    z 0.000000 0.000000 3.511310 
# 
# 
# High freq. dielectric constant tensor:
#      x y z
#    x 1.730510 0.000000 0.000000 
#    y 0.000000 1.730510 0.000000 
#    z 0.000000 0.000000 1.736220 
# 
# From -- ./inp_files/1061.got.cif
#   From: 2010.03.12/outbox.cif.g09.slc.cpg/sg172_1_cif.got.tgz:1061.got - 2010.04.02 06:52:29.
