data_PCOD8324878
_publ_section_title
;
Structure prediction by ZEFSAII (Michael W. Deem and Ramdas Pophale) SiO2 
 PCOD8324878
Probable space group: P 63
;
_chemical_formula_sum "Si O2"
_cell_formula_units_Z 34
_cell_length_a 13.759902
_cell_length_b 13.759902
_cell_length_c 8.967480
_cell_angle_alpha 90.000000
_cell_angle_beta 90.000000
_cell_angle_gamma 120.000000
_cell_volume 1470.387256
_symmetry_space_group_name_H-M "P 63"
_symmetry_group_IT_number 173
_symmetry_cell_setting 'hexagonal'
loop_
_space_group_symop_operation_xyz
x,y,z
x-y,x,1/2+z
-y,x-y,z
-x,-y,1/2+z
-x+y,-x,z
y,-x+y,1/2+z
loop_
_atom_site_type_symbol
_atom_site_label
_atom_site_fract_x
_atom_site_fract_y
_atom_site_fract_z
Si Si1 0.925866 0.457801 0.590960
Si Si2 0.333335 0.666668 0.767738
Si Si3 0.666667 0.333333 0.922323
Si Si4 0.139494 0.916806 0.814668
Si Si5 0.085432 0.229924 0.454932
Si Si6 0.639552 0.102753 0.888088
Si Si7 0.459637 0.229250 0.454153
O O1 0.959133 0.513318 0.752954
O O2 0.844136 0.321602 0.583457
O O3 0.867098 0.520092 0.512961
O O4 0.047919 0.488255 0.530128
O O5 0.333334 0.666667 0.595568
O O6 0.302334 0.544433 0.824005
O O7 0.685111 0.234067 0.865025
O O8 0.144376 0.921730 0.634751
O O9 0.161042 0.821048 0.878635
O O10 0.016015 0.879791 0.876951
O O11 0.229735 0.034746 0.890112
O O12 0.086086 0.339830 0.394113
#
# Coordination Sequence:
#
# PCOD8324878 Si02
#       7
#     6   2   2   6   6   6   6
#     4  11  26  46  72 106 144 194 250 312 381 466
#     4   9  21  43  68 106 138 187 233 298 375 445
#     4  12  27  43  68 103 156 181 242 304 372 451
#     4  12  27  49  76 111 154 203 260 325 395 479
#     4  12  29  49  79 113 156 204 265 325 402 475
#     4  12  29  46  75 110 150 200 255 314 395 463
#     4  10  23  44  76 101 148 191 245 312 384 451
#
# _framework density 23.123161
#
# number of rings (size 3 to 8) (size 9 to 14) (size 15 to 20)
#    0.000    0.706    1.765    3.882   14.824    0.000 
#    0.000    0.000    0.000    0.000    0.000    0.000 
#    0.000    0.000    0.000    0.000    0.000    0.000 
#
# Total GULP energy -421503.907107 kJ/mol
# GULP energy per Si atom -12397.173738 kJ/mol
# Density = 2.307053 g / cm^3
# Si number density = 23.123161 Si / 1000 Ang^3
#
#
#
# Elastic Constant Matrix: (Units=GPa)
#
#
# Indices 1 2 3 4 5 6 
#
# 1 116.0497 43.2073 46.5293 0.0000 0.0000 -0.0002
# 2 43.2073 116.0496 46.5288 0.0000 0.0000 0.0000
# 3 46.5293 46.5288 136.6303 0.0000 0.0000 0.0001
# 4 0.0000 0.0000 0.0000 41.5824 0.0006 0.0000
# 5 0.0000 0.0000 0.0000 0.0006 41.5818 0.0000
# 6 -0.0002 0.0000 0.0001 0.0000 0.0000 36.4208
#
#
#
# Elastic Compliance Matrix: (Units=1/GPa)
#
#
# Indices 1 2 3 4 5 6 
#
# 1 0.010784 -0.002945 -0.002670 0.000000 0.000000 0.000000
# 2 -0.002945 0.010784 -0.002670 0.000000 0.000000 0.000000
# 3 -0.002670 -0.002670 0.009137 0.000000 0.000000 0.000000
# 4 0.000000 0.000000 0.000000 0.024049 0.000000 0.000000
# 5 0.000000 0.000000 0.000000 0.000000 0.024049 0.000000
# 6 0.000000 0.000000 0.000000 0.000000 0.000000 0.027457
#
#
# Mechanical properties :
#
#
# Convention : Reuss Voigt Hill
#
# Bulk Modulus (GPa) = 70.73588 71.25114 70.99351
# Shear Modulus (GPa) = 39.20373 39.41462 39.30918
#
# Velocity S-wave (km/s) = 4.12203 4.13310 4.12757
# Velocity P-wave (km/s) = 7.30152 7.32512 7.31333
#
# Compressibility (1/GPa) = 0.01413710
#
# Stress axis : x y z
#
# Youngs Moduli (GPa) = 92.73273 92.73298 109.44208
#
# Poissons Ratio (x) = 0.27306 0.29217
# Poissons Ratio (y) = 0.27306 0.29216
# Poissons Ratio (z) = 0.24756 0.24755
#
# Static dielectric constant tensor:
#      x y z
#    x 3.759270 0.000020 0.000000 
#    y 0.000020 3.759140 0.000000 
#    z 0.000000 0.000000 4.236380 
# 
# 
# High freq. dielectric constant tensor:
#      x y z
#    x 1.925430 0.000000 0.000000 
#    y 0.000000 1.925430 0.000000 
#    z 0.000000 0.000000 1.914490 
# 
# From -- ./inp_files/573.got.cif
#   From: 2010.03.12/outbox.cif.g09.slc.cpg/sg173_cif.got.tgz:573.got - 2010.04.02 06:54:12.
