data_PCOD8324410
_publ_section_title
;
Structure prediction by ZEFSAII (Michael W. Deem and Ramdas Pophale) SiO2 
 PCOD8324410
Probable space group: R -3 C 
;
_chemical_formula_sum "Si O2"
_cell_formula_units_Z 126
_cell_length_a 18.241958
_cell_length_b 18.241958
_cell_length_c 19.459836
_cell_angle_alpha 90.000000
_cell_angle_beta 90.000000
_cell_angle_gamma 120.000000
_cell_volume 5608.060763
_symmetry_space_group_name_H-M "R -3 C "
_symmetry_group_IT_number 167
_symmetry_cell_setting 'hexagonal'
loop_
_space_group_symop_operation_xyz
x,y,z
-y,x-y,z
-x+y,-x,z
x-y,-y,1/2-z
-x,-x+y,1/2-z
y,x,1/2-z
-x,-y,-z
y,-x+y,-z
x-y,x,-z
-x+y,y,1/2+z
x,x-y,1/2+z
-y,-x,1/2+z
2/3+x,1/3+y,1/3+z
2/3-y,1/3+x-y,1/3+z
2/3-x+y,1/3-x,1/3+z
2/3+x-y,1/3-y,5/6-z
2/3-x,1/3-x+y,5/6-z
2/3+y,1/3+x,5/6-z
2/3-x,1/3-y,1/3-z
2/3+y,1/3-x+y,1/3-z
2/3+x-y,1/3+x,1/3-z
2/3-x+y,1/3+y,5/6+z
2/3+x,1/3+x-y,5/6+z
2/3-y,1/3-x,5/6+z
1/3+x,2/3+y,2/3+z
1/3-y,2/3+x-y,2/3+z
1/3-x+y,2/3-x,2/3+z
1/3+x-y,2/3-y,1/6-z
1/3-x,2/3-x+y,1/6-z
1/3+y,2/3+x,1/6-z
1/3-x,2/3-y,2/3-z
1/3+y,2/3-x+y,2/3-z
1/3+x-y,2/3+x,2/3-z
1/3-x+y,2/3+y,1/6+z
1/3+x,2/3+x-y,1/6+z
1/3-y,2/3-x,1/6+z
loop_
_atom_site_type_symbol
_atom_site_label
_atom_site_fract_x
_atom_site_fract_y
_atom_site_fract_z
Si Si1 0.333334 0.436065 0.916667
Si Si2 0.310598 0.985389 0.988795
Si Si3 0.942181 0.134555 0.311748
Si Si4 0.157314 0.006239 0.464743
O O1 0.290926 0.357881 0.862622
O O2 0.270637 0.451945 0.962204
O O3 0.272372 0.886804 0.977034
O O4 0.333334 0.035037 0.916667
O O5 0.241541 0.999323 0.028995
O O6 0.973324 0.119781 0.385438
O O7 0.000000 0.132104 0.250000
O O8 0.160976 0.077459 0.515428
#
# Coordination Sequence:
#
# PCOD8324410 Si02
#       4
#    18  36  36  36
#     4  12  24  48  72 106 152 192 246 314 380 440
#     4  11  24  44  77 106 140 190 252 318 373 444
#     4  11  27  44  71 110 144 198 251 316 377 448
#     4  12  26  47  71 107 150 201 253 309 383 461
#
# _framework density 22.467659999999999
#
# number of rings (size 3 to 8) (size 9 to 14) (size 15 to 20)
#    0.000    0.571    2.857    3.714    8.000    2.286 
#    0.857    0.000    0.000    0.000    0.000    0.000 
#    0.000    0.000    0.000    0.000    0.000    0.000 
#
# Total GULP energy -520630.441908 kJ/mol
# GULP energy per Si atom -12395.962903 kJ/mol
# Density = 2.241652 g / cm^3
# Si number density = 22.467660 Si / 1000 Ang^3
#
#
#
# Elastic Constant Matrix: (Units=GPa)
#
#
# Indices 1 2 3 4 5 6 
#
# 1 87.0610 47.0874 48.0626 13.7787 0.0002 0.0000
# 2 47.0874 87.0610 48.0626 -13.7787 -0.0002 0.0000
# 3 48.0626 48.0626 208.6727 0.0000 0.0000 0.0000
# 4 13.7787 -13.7787 0.0000 37.1661 0.0000 -0.0002
# 5 0.0002 -0.0002 0.0000 0.0000 37.1661 13.7787
# 6 0.0000 0.0000 0.0000 -0.0002 13.7787 19.9868
#
#
#
# Elastic Compliance Matrix: (Units=1/GPa)
#
#
# Indices 1 2 3 4 5 6 
#
# 1 0.021267 -0.012339 -0.002056 -0.012459 0.000000 0.000000
# 2 -0.012339 0.021267 -0.002056 0.012459 0.000000 0.000000
# 3 -0.002056 -0.002056 0.005739 0.000000 0.000000 0.000000
# 4 -0.012459 0.012459 0.000000 0.036144 0.000000 0.000000
# 5 0.000000 0.000000 0.000000 0.000000 0.036144 -0.024917
# 6 0.000000 0.000000 0.000000 0.000000 -0.024917 0.067211
#
#
# Mechanical properties :
#
#
# Convention : Reuss Voigt Hill
#
# Bulk Modulus (GPa) = 65.06194 74.35777 69.70985
# Shear Modulus (GPa) = 22.14377 34.83593 28.48985
#
# Velocity S-wave (km/s) = 3.14281 3.94190 3.56482
# Velocity P-wave (km/s) = 6.49543 7.34067 6.93094
#
# Compressibility (1/GPa) = 0.01536997
#
# Stress axis : x y z
#
# Youngs Moduli (GPa) = 47.02204 47.02204 174.23300
#
# Poissons Ratio (x) = 0.58019 0.35828
# Poissons Ratio (y) = 0.58019 0.35828
# Poissons Ratio (z) = 0.09669 0.09669
#
# Static dielectric constant tensor:
#      x y z
#    x 3.956270 0.000000 0.000000 
#    y 0.000000 3.956270 0.000000 
#    z 0.000000 0.000000 4.610770 
# 
# 
# High freq. dielectric constant tensor:
#      x y z
#    x 1.878150 0.000000 0.000000 
#    y 0.000000 1.878150 0.000000 
#    z 0.000000 0.000000 1.917380 
# 
# From -- ./inp_files/3103.got.cif
#   From: 2010.03.12/outbox.cif.g09.slc.cpg/sg167_2_cif.got.tgz:3103.got - 2010.04.02 06:42:56.
