data_PCOD8324077
_publ_section_title
;
Structure prediction by ZEFSAII (Michael W. Deem and Ramdas Pophale) SiO2 
 PCOD8324077
Probable space group: R -3 M
;
_chemical_formula_sum "Si O2"
_cell_formula_units_Z 162
_cell_length_a 19.867988
_cell_length_b 19.867988
_cell_length_c 28.505900
_cell_angle_alpha 90.000000
_cell_angle_beta 90.000000
_cell_angle_gamma 120.000000
_cell_volume 9744.805314
_symmetry_space_group_name_H-M "R -3 M"
_symmetry_group_IT_number 166
_symmetry_cell_setting 'hexagonal'
loop_
_space_group_symop_operation_xyz
x,y,z
-y,x-y,z
-x+y,-x,z
x-y,-y,-z
-x,-x+y,-z
y,x,-z
-x,-y,-z
y,-x+y,-z
x-y,x,-z
-x+y,y,z
x,x-y,z
-y,-x,z
2/3+x,1/3+y,1/3+z
2/3-y,1/3+x-y,1/3+z
2/3-x+y,1/3-x,1/3+z
2/3+x-y,1/3-y,1/3-z
2/3-x,1/3-x+y,1/3-z
2/3+y,1/3+x,1/3-z
2/3-x,1/3-y,1/3-z
2/3+y,1/3-x+y,1/3-z
2/3+x-y,1/3+x,1/3-z
2/3-x+y,1/3+y,1/3+z
2/3+x,1/3+x-y,1/3+z
2/3-y,1/3-x,1/3+z
1/3+x,2/3+y,2/3+z
1/3-y,2/3+x-y,2/3+z
1/3-x+y,2/3-x,2/3+z
1/3+x-y,2/3-y,2/3-z
1/3-x,2/3-x+y,2/3-z
1/3+y,2/3+x,2/3-z
1/3-x,2/3-y,2/3-z
1/3+y,2/3-x+y,2/3-z
1/3+x-y,2/3+x,2/3-z
1/3-x+y,2/3+y,2/3+z
1/3+x,2/3+x-y,2/3+z
1/3-y,2/3-x,2/3+z
loop_
_atom_site_type_symbol
_atom_site_label
_atom_site_fract_x
_atom_site_fract_y
_atom_site_fract_z
Si Si1 0.100063 0.748373 0.125371
Si Si2 0.089688 0.466609 0.877108
Si Si3 0.775488 0.224513 0.154125
Si Si4 0.333334 0.512553 0.166667
Si Si5 0.849809 0.699618 0.087693
Si Si6 0.972146 0.665235 0.051789
O O1 0.161303 0.838698 0.119027
O O2 0.051768 0.742106 0.173097
O O3 0.144372 0.698235 0.126688
O O4 0.047380 0.724306 0.080299
O O5 0.084664 0.542332 0.887052
O O6 0.177195 0.492845 0.859718
O O7 0.070075 0.420667 0.926073
O O8 0.815034 0.184967 0.124827
O O9 0.779835 0.220166 0.210769
O O10 0.262071 0.524141 0.184975
O O11 0.913247 0.698735 0.053241
O O12 0.000000 0.661328 0.000000
#
# Coordination Sequence:
#
# PCOD8324077 Si02
#       6
#    36  36  18  18  18  36
#     4  10  19  32  51  74 101 133 172 216 256 303
#     4  10  19  34  53  75 100 131 172 214 260 309
#     4   9  16  32  56  72  95 133 167 218 259 301
#     4  10  19  32  52  75 102 132 170 214 258 305
#     4   9  18  32  50  74 103 133 175 209 260 312
#     4  11  21  32  50  76 108 137 168 210 265 315
#
# _framework density 16.624241999999999
#
# number of rings (size 3 to 8) (size 9 to 14) (size 15 to 20)
#    0.000    2.000    4.444    0.111    1.556    0.444 
#    0.667    0.000    0.000    0.000    0.000    0.000 
#    0.000    1.778    0.000    0.000    0.000    0.000 
#
# Total GULP energy -669286.350614 kJ/mol
# GULP energy per Si atom -12394.191678 kJ/mol
# Density = 1.658640 g / cm^3
# Si number density = 16.624242 Si / 1000 Ang^3
#
#
#
# Elastic Constant Matrix: (Units=GPa)
#
#
# Indices 1 2 3 4 5 6 
#
# 1 93.2824 45.4745 43.6093 1.1831 0.0000 0.0000
# 2 45.4745 93.2824 43.6093 -1.1831 0.0000 0.0000
# 3 43.6093 43.6093 105.2073 0.0000 0.0000 0.0000
# 4 1.1831 -1.1831 0.0000 18.4125 0.0000 0.0000
# 5 0.0000 0.0000 0.0000 0.0000 18.4125 1.1831
# 6 0.0000 0.0000 0.0000 0.0000 1.1831 23.9040
#
#
#
# Elastic Compliance Matrix: (Units=1/GPa)
#
#
# Indices 1 2 3 4 5 6 
#
# 1 0.015365 -0.005619 -0.004040 -0.001348 0.000000 0.000000
# 2 -0.005619 0.015365 -0.004040 0.001348 0.000000 0.000000
# 3 -0.004040 -0.004040 0.012854 0.000000 0.000000 0.000000
# 4 -0.001348 0.001348 0.000000 0.054484 0.000000 0.000000
# 5 0.000000 0.000000 0.000000 0.000000 0.054484 -0.002697
# 6 0.000000 0.000000 0.000000 0.000000 -0.002697 0.041968
#
#
# Mechanical properties :
#
#
# Convention : Reuss Voigt Hill
#
# Bulk Modulus (GPa) = 61.77778 61.90648 61.84213
# Shear Modulus (GPa) = 21.99613 22.75107 22.37360
#
# Velocity S-wave (km/s) = 3.64144 3.70340 3.67255
# Velocity P-wave (km/s) = 7.41094 7.45697 7.43399
#
# Compressibility (1/GPa) = 0.01618705
#
# Stress axis : x y z
#
# Youngs Moduli (GPa) = 65.08304 65.08304 77.79575
#
# Poissons Ratio (x) = 0.36569 0.31429
# Poissons Ratio (y) = 0.36569 0.31429
# Poissons Ratio (z) = 0.26293 0.26293
#
# Static dielectric constant tensor:
#      x y z
#    x 3.239940 0.000000 0.000000 
#    y 0.000000 3.239940 0.000000 
#    z 0.000000 0.000000 2.843130 
# 
# 
# High freq. dielectric constant tensor:
#      x y z
#    x 1.642270 0.000000 0.000000 
#    y 0.000000 1.642270 0.000000 
#    z 0.000000 0.000000 1.605690 
# 
# From -- ./inp_files/8238.got.cif
#   From: 2010.03.12/outbox.cif.g09.slc.cpg/sg166_5_cif.got.tgz:8238.got - 2010.04.02 06:38:31.
