data_PCOD8324944
_publ_section_title
;
Structure prediction by ZEFSAII (Michael W. Deem and Ramdas Pophale) SiO2 
 PCOD8324944
Probable space group: P -6
;
_chemical_formula_sum "Si O2"
_cell_formula_units_Z 44
_cell_length_a 11.719000
_cell_length_b 11.719000
_cell_length_c 19.199850
_cell_angle_alpha 90.000000
_cell_angle_beta 90.000000
_cell_angle_gamma 120.000000
_cell_volume 2283.545009
_symmetry_space_group_name_H-M "P -6"
_symmetry_group_IT_number 174
_symmetry_cell_setting 'hexagonal'
loop_
_space_group_symop_operation_xyz
x,y,z
-x+y,-x,-z
-y,x-y,z
x,y,-z
-x+y,-x,z
-y,x-y,-z
loop_
_atom_site_type_symbol
_atom_site_label
_atom_site_fract_x
_atom_site_fract_y
_atom_site_fract_z
Si Si1 0.333334 0.666668 0.582568
Si Si2 0.668601 0.598638 0.922882
Si Si3 0.667458 0.069589 0.649820
Si Si4 0.629887 0.814943 0.417367
Si Si5 0.402131 0.069590 0.350179
Si Si6 0.401362 0.331400 0.077118
Si Si7 0.257854 0.258842 0.213502
Si Si8 0.741159 0.742146 0.786498
O O1 0.333334 0.666668 0.500000
O O2 0.259549 0.519098 0.611395
O O3 0.778637 0.557273 0.910313
O O4 0.529270 0.470730 0.915264
O O5 0.680885 0.700853 0.863859
O O6 0.684229 0.661881 0.000000
O O7 0.528595 0.057190 0.627603
O O8 0.785033 0.214966 0.629797
O O9 0.696113 0.964583 0.610193
O O10 0.666761 0.045521 0.732733
O O11 0.639030 0.819514 0.500000
O O12 0.696114 0.731530 0.389806
O O13 0.378760 0.045523 0.267267
O O14 0.299147 0.319116 0.136141
O O15 0.338119 0.315772 0.000000
O O16 0.207775 0.103888 0.212096
O O17 0.139582 0.279166 0.239318
#
# Coordination Sequence:
#
# PCOD8324944 Si02
#       8
#     2   6   6   6   6   6   6   6
#     4   9  18  36  66  90 114 150 196 242 280 333
#     4   9  17  30  50  76 106 141 182 230 283 339
#     4  11  23  40  63  91 122 156 196 245 298 351
#     4  11  22  40  64  90 119 156 198 240 287 349
#     4  11  23  40  63  91 122 156 196 245 298 351
#     4   9  17  30  50  76 106 141 182 230 283 339
#     4  10  20  34  53  78 110 148 190 235 286 343
#     4  10  20  34  53  78 110 148 190 235 286 343
#
# _framework density 19.268287000000001
#
# number of rings (size 3 to 8) (size 9 to 14) (size 15 to 20)
#    0.000    1.909    2.727    1.636    0.000    2.182 
#    0.818    2.727    0.000    3.818    0.000    0.000 
#    0.000    0.000    0.000    0.000    0.000    0.000 
#
# Total GULP energy -545552.435685 kJ/mol
# GULP energy per Si atom -12398.918993 kJ/mol
# Density = 1.922443 g / cm^3
# Si number density = 19.268287 Si / 1000 Ang^3
#
#
#
# Elastic Constant Matrix: (Units=GPa)
#
#
# Indices 1 2 3 4 5 6 
#
# 1 87.7567 34.8708 27.5983 0.0000 0.0000 0.0001
# 2 34.8708 87.7562 27.5984 0.0000 0.0000 0.0000
# 3 27.5983 27.5984 88.8959 0.0000 0.0000 0.0000
# 4 0.0000 0.0000 0.0000 25.7263 0.0000 0.0000
# 5 0.0000 0.0000 0.0000 0.0000 25.7263 0.0000
# 6 0.0001 0.0000 0.0000 0.0000 0.0000 26.4430
#
#
#
# Elastic Compliance Matrix: (Units=1/GPa)
#
#
# Indices 1 2 3 4 5 6 
#
# 1 0.014194 -0.004715 -0.002943 0.000000 0.000000 0.000000
# 2 -0.004715 0.014194 -0.002943 0.000000 0.000000 0.000000
# 3 -0.002943 -0.002943 0.013076 0.000000 0.000000 0.000000
# 4 0.000000 0.000000 0.000000 0.038871 0.000000 0.000000
# 5 0.000000 0.000000 0.000000 0.000000 0.038871 0.000000
# 6 0.000000 0.000000 0.000000 0.000000 0.000000 0.037817
#
#
# Mechanical properties :
#
#
# Convention : Reuss Voigt Hill
#
# Bulk Modulus (GPa) = 49.34977 49.39376 49.37177
# Shear Modulus (GPa) = 27.03011 27.20187 27.11599
#
# Velocity S-wave (km/s) = 3.74950 3.76139 3.75545
# Velocity P-wave (km/s) = 6.66427 6.67492 6.66960
#
# Compressibility (1/GPa) = 0.02026352
#
# Stress axis : x y z
#
# Youngs Moduli (GPa) = 70.45202 70.45153 76.47339
#
# Poissons Ratio (x) = 0.33215 0.22506
# Poissons Ratio (y) = 0.33215 0.22506
# Poissons Ratio (z) = 0.20734 0.20734
#
# Static dielectric constant tensor:
#      x y z
#    x 3.349210 0.000000 0.000000 
#    y 0.000000 3.349220 0.000000 
#    z 0.000000 0.000000 3.615140 
# 
# 
# High freq. dielectric constant tensor:
#      x y z
#    x 1.738240 0.000000 0.000000 
#    y 0.000000 1.738240 0.000000 
#    z 0.000000 0.000000 1.755730 
# 
# From -- ./inp_files/1021.got.cif
#   From: 2010.03.12/outbox.cif.g09.slc.cpg/sg174_cif.got.tgz:1021.got - 2010.04.02 06:54:58.
