data_PCOD8324283
_publ_section_title
;
Structure prediction by ZEFSAII (Michael W. Deem and Ramdas Pophale) SiO2 
 PCOD8324283
Probable space group: R -3 C 
;
_chemical_formula_sum "Si O2"
_cell_formula_units_Z 162
_cell_length_a 29.836144
_cell_length_b 29.836144
_cell_length_c 14.356371
_cell_angle_alpha 90.000000
_cell_angle_beta 90.000000
_cell_angle_gamma 120.000000
_cell_volume 11067.784482
_symmetry_space_group_name_H-M "R -3 C "
_symmetry_group_IT_number 167
_symmetry_cell_setting 'hexagonal'
loop_
_space_group_symop_operation_xyz
x,y,z
-y,x-y,z
-x+y,-x,z
x-y,-y,1/2-z
-x,-x+y,1/2-z
y,x,1/2-z
-x,-y,-z
y,-x+y,-z
x-y,x,-z
-x+y,y,1/2+z
x,x-y,1/2+z
-y,-x,1/2+z
2/3+x,1/3+y,1/3+z
2/3-y,1/3+x-y,1/3+z
2/3-x+y,1/3-x,1/3+z
2/3+x-y,1/3-y,5/6-z
2/3-x,1/3-x+y,5/6-z
2/3+y,1/3+x,5/6-z
2/3-x,1/3-y,1/3-z
2/3+y,1/3-x+y,1/3-z
2/3+x-y,1/3+x,1/3-z
2/3-x+y,1/3+y,5/6+z
2/3+x,1/3+x-y,5/6+z
2/3-y,1/3-x,5/6+z
1/3+x,2/3+y,2/3+z
1/3-y,2/3+x-y,2/3+z
1/3-x+y,2/3-x,2/3+z
1/3+x-y,2/3-y,1/6-z
1/3-x,2/3-x+y,1/6-z
1/3+y,2/3+x,1/6-z
1/3-x,2/3-y,2/3-z
1/3+y,2/3-x+y,2/3-z
1/3+x-y,2/3+x,2/3-z
1/3-x+y,2/3+y,1/6+z
1/3+x,2/3+x-y,1/6+z
1/3-y,2/3-x,1/6+z
loop_
_atom_site_type_symbol
_atom_site_label
_atom_site_fract_x
_atom_site_fract_y
_atom_site_fract_z
Si Si1 0.796102 0.027421 0.841235
Si Si2 0.945757 0.542998 0.894920
Si Si3 0.507094 0.452639 0.296646
Si Si4 0.630201 0.630201 0.250000
Si Si5 0.589732 0.587121 0.923329
O O1 0.843885 0.079986 0.886650
O O2 0.753170 0.043481 0.815627
O O3 0.806156 0.000000 0.750000
O O4 0.773067 0.984692 0.921585
O O5 0.925682 0.487547 0.846401
O O6 0.985009 0.590885 0.834025
O O7 0.976368 0.549324 0.991536
O O8 0.492126 0.492126 0.250000
O O9 0.465021 0.419161 0.374810
O O10 0.636199 0.683968 0.286954
#
# Coordination Sequence:
#
# PCOD8324283 Si02
#       5
#    36  36  36  18  36
#     4   9  18  31  48  58  79 119 153 184 228 277
#     4  11  19  29  43  64  84 114 151 198 234 268
#     4  10  19  30  41  64  87 108 151 203 231 266
#     4  12  18  28  44  64  82 116 158 190 230 270
#     4  10  19  29  45  58  84 118 156 190 229 272
#
# _framework density 14.637074999999999
#
# number of rings (size 3 to 8) (size 9 to 14) (size 15 to 20)
#    0.000    1.778    6.667    1.333    0.000    0.000 
#    0.000    0.000    0.000    0.000    0.000    0.000 
#    0.000    0.000    0.000    0.667    0.000    2.667 
#
# Total GULP energy -669075.396462 kJ/mol
# GULP energy per Si atom -12390.285120 kJ/mol
# Density = 1.460376 g / cm^3
# Si number density = 14.637075 Si / 1000 Ang^3
#
#
#
# Elastic Constant Matrix: (Units=GPa)
#
#
# Indices 1 2 3 4 5 6 
#
# 1 62.1706 35.6064 35.5977 -0.2173 0.0000 0.0000
# 2 35.6064 62.1706 35.5974 0.2173 0.0000 0.0000
# 3 35.5977 35.5974 72.0599 0.0003 0.0001 0.0001
# 4 -0.2173 0.2173 0.0003 26.3043 0.0001 0.0000
# 5 0.0000 0.0000 0.0001 0.0001 26.3043 -0.2174
# 6 0.0000 0.0000 0.0001 0.0000 -0.2174 13.2820
#
#
#
# Elastic Compliance Matrix: (Units=1/GPa)
#
#
# Indices 1 2 3 4 5 6 
#
# 1 0.026811 -0.010839 -0.007891 0.000311 0.000000 0.000000
# 2 -0.010839 0.026811 -0.007890 -0.000311 0.000000 0.000000
# 3 -0.007891 -0.007890 0.021673 0.000000 0.000000 0.000000
# 4 0.000311 -0.000311 0.000000 0.038022 0.000000 0.000000
# 5 0.000000 0.000000 0.000000 0.000000 0.038022 0.000622
# 6 0.000000 0.000000 0.000000 0.000000 0.000622 0.075300
#
#
# Mechanical properties :
#
#
# Convention : Reuss Voigt Hill
#
# Bulk Modulus (GPa) = 45.33800 45.55601 45.44701
# Shear Modulus (GPa) = 17.40762 19.15141 18.27951
#
# Velocity S-wave (km/s) = 3.45234 3.62113 3.53774
# Velocity P-wave (km/s) = 6.85081 6.97673 6.91405
#
# Compressibility (1/GPa) = 0.02205655
#
# Stress axis : x y z
#
# Youngs Moduli (GPa) = 37.29773 37.29784 46.14000
#
# Poissons Ratio (x) = 0.40425 0.36407
# Poissons Ratio (y) = 0.40425 0.36407
# Poissons Ratio (z) = 0.29430 0.29430
#
# Static dielectric constant tensor:
#      x y z
#    x 2.646020 0.000000 0.000000 
#    y 0.000000 2.646020 0.000000 
#    z 0.000000 0.000000 3.185850 
# 
# 
# High freq. dielectric constant tensor:
#      x y z
#    x 1.521910 0.000000 0.000000 
#    y 0.000000 1.521910 0.000000 
#    z 0.000000 0.000000 1.576010 
# 
# From -- ./inp_files/2397.got.cif
#   From: 2010.03.12/outbox.cif.g09.slc.cpg/sg167_2_cif.got.tgz:2397.got - 2010.04.02 06:42:56.
