data_PCOD8324567
_publ_section_title
;
Structure prediction by ZEFSAII (Michael W. Deem and Ramdas Pophale) SiO2 
 PCOD8324567
Probable space group: P 61
;
_chemical_formula_sum "Si O2"
_cell_formula_units_Z 48
_cell_length_a 14.153959
_cell_length_b 14.153959
_cell_length_c 12.804604
_cell_angle_alpha 90.000000
_cell_angle_beta 90.000000
_cell_angle_gamma 120.000000
_cell_volume 2221.532392
_symmetry_space_group_name_H-M "P 61"
_symmetry_group_IT_number 169
_symmetry_cell_setting 'hexagonal'
loop_
_space_group_symop_operation_xyz
x,y,z
x-y,x,1/6+z
-y,x-y,1/3+z
-x,-y,1/2+z
-x+y,-x,2/3+z
y,-x+y,5/6+z
loop_
_atom_site_type_symbol
_atom_site_label
_atom_site_fract_x
_atom_site_fract_y
_atom_site_fract_z
Si Si1 0.971120 0.496021 0.102670
Si Si2 0.858871 0.028425 0.219154
Si Si3 0.628453 0.673665 0.290191
Si Si4 0.666666 0.562345 0.099147
Si Si5 0.263308 0.625510 0.396040
Si Si6 0.711097 0.468844 0.450025
Si Si7 0.847734 0.008749 0.553334
Si Si8 0.605863 0.741359 0.809360
O O1 0.875115 0.385515 0.154870
O O2 0.056499 0.560750 0.192766
O O3 0.933039 0.577864 0.057490
O O4 0.023595 0.461565 0.009550
O O5 0.735219 0.997941 0.194071
O O6 0.926958 0.064758 0.109473
O O7 0.910698 0.127587 0.303220
O O8 0.658930 0.645312 0.178648
O O9 0.580090 0.754314 0.274510
O O10 0.673040 0.463235 0.151007
O O11 0.778731 0.630667 0.035484
O O12 0.265051 0.675804 0.506492
O O13 0.387181 0.665454 0.363430
O O14 0.198752 0.494738 0.396496
O O15 0.770176 0.058626 0.574768
O O16 0.962477 0.094437 0.495856
#
# Coordination Sequence:
#
# PCOD8324567 Si02
#       8
#     6   6   6   6   6   6   6   6
#     4  11  24  43  66 105 142 180 239 284 350 434
#     4  10  24  48  70  98 138 178 238 300 362 427
#     4  12  25  42  70 105 137 185 238 289 354 425
#     4  12  24  43  68 103 140 183 238 284 348 432
#     4  11  22  43  67  95 141 180 225 275 347 423
#     4  11  23  43  64  97 140 182 223 287 348 413
#     4  10  23  48  70 101 136 180 236 293 354 422
#     4  11  23  44  71 100 146 180 231 292 351 426
#
# _framework density 21.606707
#
# number of rings (size 3 to 8) (size 9 to 14) (size 15 to 20)
#    0.000    1.000    5.000    3.000    0.000    3.000 
#   13.500    0.000    0.000    0.000    0.000    0.000 
#    0.000    0.000    0.000    0.000    0.000    0.000 
#
# Total GULP energy -595185.872395 kJ/mol
# GULP energy per Si atom -12399.705675 kJ/mol
# Density = 2.155753 g / cm^3
# Si number density = 21.606707 Si / 1000 Ang^3
#
#
#
# Elastic Constant Matrix: (Units=GPa)
#
#
# Indices 1 2 3 4 5 6 
#
# 1 90.2174 11.8066 26.0715 0.0000 0.0000 0.0000
# 2 11.8066 90.2174 26.0715 0.0000 0.0000 0.0000
# 3 26.0715 26.0715 64.2874 0.0000 0.0000 0.0000
# 4 0.0000 0.0000 0.0000 12.6194 0.0000 0.0000
# 5 0.0000 0.0000 0.0000 0.0000 12.6194 0.0000
# 6 0.0000 0.0000 0.0000 0.0000 0.0000 39.2054
#
#
#
# Elastic Compliance Matrix: (Units=1/GPa)
#
#
# Indices 1 2 3 4 5 6 
#
# 1 0.012559 -0.000194 -0.005014 0.000000 0.000000 0.000000
# 2 -0.000194 0.012559 -0.005014 0.000000 0.000000 0.000000
# 3 -0.005014 -0.005014 0.019622 0.000000 0.000000 0.000000
# 4 0.000000 0.000000 0.000000 0.079243 0.000000 0.000000
# 5 0.000000 0.000000 0.000000 0.000000 0.079243 0.000000
# 6 0.000000 0.000000 0.000000 0.000000 0.000000 0.025507
#
#
# Mechanical properties :
#
#
# Convention : Reuss Voigt Hill
#
# Bulk Modulus (GPa) = 41.16299 41.40239 41.28269
# Shear Modulus (GPa) = 19.43428 24.94034 22.18731
#
# Velocity S-wave (km/s) = 3.00235 3.40117 3.20796
# Velocity P-wave (km/s) = 5.57774 5.88450 5.73317
#
# Compressibility (1/GPa) = 0.02429367
#
# Stress axis : x y z
#
# Youngs Moduli (GPa) = 79.62510 79.62510 50.96260
#
# Poissons Ratio (x) = 0.01549 0.25554
# Poissons Ratio (y) = 0.01549 0.25554
# Poissons Ratio (z) = 0.39927 0.39927
#
# Static dielectric constant tensor:
#      x y z
#    x 4.035050 0.000000 0.000000 
#    y 0.000000 4.035050 0.000000 
#    z 0.000000 0.000000 3.958810 
# 
# 
# High freq. dielectric constant tensor:
#      x y z
#    x 1.850230 0.000000 0.000000 
#    y 0.000000 1.850230 0.000000 
#    z 0.000000 0.000000 1.847170 
# 
# From -- ./inp_files/1053.got.cif
#   From: 2010.03.12/outbox.cif.g09.slc.cpg/sg169_cif.got.tgz:1053.got - 2010.04.02 06:46:06.
