data_PCOD8324249
_publ_section_title
;
Structure prediction by ZEFSAII (Michael W. Deem and Ramdas Pophale) SiO2 
 PCOD8324249
Probable space group: R -3 M
;
_chemical_formula_sum "Si O2"
_cell_formula_units_Z 162
_cell_length_a 20.815318
_cell_length_b 20.815318
_cell_length_c 22.833888
_cell_angle_alpha 90.000000
_cell_angle_beta 90.000000
_cell_angle_gamma 120.000000
_cell_volume 8567.943587
_symmetry_space_group_name_H-M "R -3 M"
_symmetry_group_IT_number 166
_symmetry_cell_setting 'hexagonal'
loop_
_space_group_symop_operation_xyz
x,y,z
-y,x-y,z
-x+y,-x,z
x-y,-y,-z
-x,-x+y,-z
y,x,-z
-x,-y,-z
y,-x+y,-z
x-y,x,-z
-x+y,y,z
x,x-y,z
-y,-x,z
2/3+x,1/3+y,1/3+z
2/3-y,1/3+x-y,1/3+z
2/3-x+y,1/3-x,1/3+z
2/3+x-y,1/3-y,1/3-z
2/3-x,1/3-x+y,1/3-z
2/3+y,1/3+x,1/3-z
2/3-x,1/3-y,1/3-z
2/3+y,1/3-x+y,1/3-z
2/3+x-y,1/3+x,1/3-z
2/3-x+y,1/3+y,1/3+z
2/3+x,1/3+x-y,1/3+z
2/3-y,1/3-x,1/3+z
1/3+x,2/3+y,2/3+z
1/3-y,2/3+x-y,2/3+z
1/3-x+y,2/3-x,2/3+z
1/3+x-y,2/3-y,2/3-z
1/3-x,2/3-x+y,2/3-z
1/3+y,2/3+x,2/3-z
1/3-x,2/3-y,2/3-z
1/3+y,2/3-x+y,2/3-z
1/3+x-y,2/3+x,2/3-z
1/3-x+y,2/3+y,2/3+z
1/3+x,2/3+x-y,2/3+z
1/3-y,2/3-x,2/3+z
loop_
_atom_site_type_symbol
_atom_site_label
_atom_site_fract_x
_atom_site_fract_y
_atom_site_fract_z
Si Si1 0.997188 0.749839 0.605519
Si Si2 0.945656 0.203532 0.946248
Si Si3 0.586346 0.718293 0.399433
Si Si4 0.333334 0.515429 0.166667
Si Si5 0.950310 0.753985 0.163091
O O1 0.935333 0.668045 0.585718
O O2 0.972936 0.770693 0.666155
O O3 0.006298 0.808601 0.557343
O O4 0.075222 0.754222 0.614922
O O5 0.879854 0.120147 0.952150
O O6 0.987423 0.211371 0.886031
O O7 0.000000 0.219508 0.000000
O O8 0.584376 0.792188 0.412974
O O9 0.528971 0.653320 0.441590
O O10 0.262285 0.524569 0.171922
O O11 0.886744 0.773487 0.148421
O O12 0.917742 0.666667 0.166667
#
# Coordination Sequence:
#
# PCOD8324249 Si02
#       5
#    36  36  36  18  36
#     4  11  21  40  60  92 121 155 200 253 310 353
#     4  12  23  40  64  93 126 156 199 252 307 364
#     4  11  21  38  62  90 125 156 195 252 306 361
#     4  12  25  40  58  84 121 166 206 242 294 364
#     4  11  22  39  61  88 123 159 204 254 299 353
#
# _framework density 18.907686999999999
#
# number of rings (size 3 to 8) (size 9 to 14) (size 15 to 20)
#    0.000    0.667    4.444    6.111    0.000    3.556 
#    0.000    0.000    0.000    8.444    0.000    0.000 
#    0.000    0.000    0.000    0.000    0.000    0.000 
#
# Total GULP energy -669948.167408 kJ/mol
# GULP energy per Si atom -12406.447545 kJ/mol
# Density = 1.886465 g / cm^3
# Si number density = 18.907687 Si / 1000 Ang^3
#
#
#
# Elastic Constant Matrix: (Units=GPa)
#
#
# Indices 1 2 3 4 5 6 
#
# 1 116.1296 41.6563 32.7025 6.6458 -0.0033 0.0000
# 2 41.6563 116.1296 32.7025 -6.6458 0.0033 0.0000
# 3 32.7025 32.7025 55.2340 0.0000 0.0000 0.0000
# 4 6.6458 -6.6458 0.0000 16.5599 0.0000 0.0033
# 5 -0.0033 0.0033 0.0000 0.0000 16.5599 6.6458
# 6 0.0000 0.0000 0.0000 0.0033 6.6458 37.2366
#
#
#
# Elastic Compliance Matrix: (Units=1/GPa)
#
#
# Indices 1 2 3 4 5 6 
#
# 1 0.011431 -0.003032 -0.004973 -0.005804 0.000003 0.000000
# 2 -0.003032 0.011431 -0.004973 0.005804 -0.000003 0.000000
# 3 -0.004973 -0.004973 0.023993 0.000000 0.000000 0.000000
# 4 -0.005804 0.005804 0.000000 0.065046 0.000000 -0.000006
# 5 0.000003 -0.000003 0.000000 0.000000 0.065046 -0.011609
# 6 0.000000 0.000000 0.000000 -0.000006 -0.011609 0.028927
#
#
# Mechanical properties :
#
#
# Convention : Reuss Voigt Hill
#
# Bulk Modulus (GPa) = 47.84673 55.73511 51.79092
# Shear Modulus (GPa) = 20.93827 26.10007 23.51917
#
# Velocity S-wave (km/s) = 3.33136 3.71940 3.53072
# Velocity P-wave (km/s) = 6.33701 6.92724 6.63869
#
# Compressibility (1/GPa) = 0.02090007
#
# Stress axis : x y z
#
# Youngs Moduli (GPa) = 87.47906 87.47906 41.67821
#
# Poissons Ratio (x) = 0.26526 0.20726
# Poissons Ratio (y) = 0.26526 0.20726
# Poissons Ratio (z) = 0.43502 0.43502
#
# Static dielectric constant tensor:
#      x y z
#    x 3.304710 0.000000 0.000000 
#    y 0.000000 3.304710 0.000000 
#    z 0.000000 0.000000 3.771680 
# 
# 
# High freq. dielectric constant tensor:
#      x y z
#    x 1.730720 0.000000 0.000000 
#    y 0.000000 1.730720 0.000000 
#    z 0.000000 0.000000 1.754900 
# 
# From -- ./inp_files/6750.got.cif
#   From: 2010.03.12/outbox.cif.g09.slc.cpg/sg166_4_cif.got.tgz:6750.got - 2010.04.02 06:38:31.
