data_PCOD8324105
_publ_section_title
;
Structure prediction by ZEFSAII (Michael W. Deem and Ramdas Pophale) SiO2 
 PCOD8324105
Probable space group: R -3 M
;
_chemical_formula_sum "Si O2"
_cell_formula_units_Z 114
_cell_length_a 14.994801
_cell_length_b 14.994801
_cell_length_c 29.320257
_cell_angle_alpha 90.000000
_cell_angle_beta 90.000000
_cell_angle_gamma 120.000000
_cell_volume 5709.259949
_symmetry_space_group_name_H-M "R -3 M"
_symmetry_group_IT_number 166
_symmetry_cell_setting 'hexagonal'
loop_
_space_group_symop_operation_xyz
x,y,z
-y,x-y,z
-x+y,-x,z
x-y,-y,-z
-x,-x+y,-z
y,x,-z
-x,-y,-z
y,-x+y,-z
x-y,x,-z
-x+y,y,z
x,x-y,z
-y,-x,z
2/3+x,1/3+y,1/3+z
2/3-y,1/3+x-y,1/3+z
2/3-x+y,1/3-x,1/3+z
2/3+x-y,1/3-y,1/3-z
2/3-x,1/3-x+y,1/3-z
2/3+y,1/3+x,1/3-z
2/3-x,1/3-y,1/3-z
2/3+y,1/3-x+y,1/3-z
2/3+x-y,1/3+x,1/3-z
2/3-x+y,1/3+y,1/3+z
2/3+x,1/3+x-y,1/3+z
2/3-y,1/3-x,1/3+z
1/3+x,2/3+y,2/3+z
1/3-y,2/3+x-y,2/3+z
1/3-x+y,2/3-x,2/3+z
1/3+x-y,2/3-y,2/3-z
1/3-x,2/3-x+y,2/3-z
1/3+y,2/3+x,2/3-z
1/3-x,2/3-y,2/3-z
1/3+y,2/3-x+y,2/3-z
1/3+x-y,2/3+x,2/3-z
1/3-x+y,2/3+y,2/3+z
1/3+x,2/3+x-y,2/3+z
1/3-y,2/3-x,2/3+z
loop_
_atom_site_type_symbol
_atom_site_label
_atom_site_fract_x
_atom_site_fract_y
_atom_site_fract_z
Si Si1 0.110046 0.889955 0.779536
Si Si2 0.788917 0.577833 0.444745
Si Si3 0.333334 0.666667 0.115128
Si Si4 0.556427 0.112854 0.445603
Si Si5 0.868913 0.434457 0.729158
Si Si6 0.210838 0.421675 0.446269
Si Si7 0.125236 0.250472 0.372856
O O1 0.166436 0.833565 0.758552
O O2 0.109397 0.890604 0.833643
O O3 0.993856 0.825055 0.762324
O O4 0.835803 0.508123 0.428025
O O5 0.842270 0.684539 0.417599
O O6 0.799578 0.599156 0.499241
O O7 0.333335 0.666668 0.166667
O O8 0.451964 0.725982 0.101961
O O9 0.847137 0.514473 0.700587
O O10 0.155309 0.310618 0.421625
O O11 0.166667 0.333334 0.333334
#
# Coordination Sequence:
#
# PCOD8324105 Si02
#       7
#    18  18   6  18  18  18  18
#     4   9  17  30  46  76 110 144 188 220 267 343
#     4  10  19  33  57  87 121 154 189 242 310 359
#     4   9  21  36  57  96 129 153 180 237 324 390
#     4   9  17  29  46  76 117 146 175 225 280 344
#     4  10  23  40  62  89 119 153 199 251 306 371
#     4  10  20  33  56  85 117 158 195 240 295 361
#     4  11  25  43  60  84 116 155 203 249 300 361
#
# _framework density 19.967562000000001
#
# number of rings (size 3 to 8) (size 9 to 14) (size 15 to 20)
#    0.000    2.211    0.000    2.842    4.421    6.316 
#    0.000    1.579    0.000    0.000    0.000    1.105 
#    0.000    0.000    0.000    0.000    0.000    0.000 
#
# Total GULP energy -470903.593018 kJ/mol
# GULP energy per Si atom -12392.199816 kJ/mol
# Density = 1.992211 g / cm^3
# Si number density = 19.967562 Si / 1000 Ang^3
#
#
#
# Elastic Constant Matrix: (Units=GPa)
#
#
# Indices 1 2 3 4 5 6 
#
# 1 195.8433 95.8819 34.2239 2.4061 0.0000 0.0000
# 2 95.8819 195.8432 34.2239 -2.4062 0.0000 0.0000
# 3 34.2239 34.2239 51.0491 -0.0001 0.0000 0.0000
# 4 2.4061 -2.4062 -0.0001 6.4494 0.0000 0.0000
# 5 0.0000 0.0000 0.0000 0.0000 6.4495 2.4061
# 6 0.0000 0.0000 0.0000 0.0000 2.4061 49.9807
#
#
#
# Elastic Compliance Matrix: (Units=1/GPa)
#
#
# Indices 1 2 3 4 5 6 
#
# 1 0.007127 -0.003060 -0.002727 -0.003801 0.000000 0.000000
# 2 -0.003060 0.007127 -0.002727 0.003801 0.000000 0.000000
# 3 -0.002727 -0.002727 0.023246 0.000000 0.000000 0.000000
# 4 -0.003801 0.003801 0.000000 0.157889 0.000000 0.000000
# 5 0.000000 0.000000 0.000000 0.000000 0.157886 -0.007601
# 6 0.000000 0.000000 0.000000 0.000000 -0.007601 0.020374
#
#
# Mechanical properties :
#
#
# Convention : Reuss Voigt Hill
#
# Bulk Modulus (GPa) = 48.84546 85.71055 67.27801
# Shear Modulus (GPa) = 12.57861 31.13631 21.85746
#
# Velocity S-wave (km/s) = 2.51261 3.95314 3.31214
# Velocity P-wave (km/s) = 5.73874 7.99090 6.95656
#
# Compressibility (1/GPa) = 0.02047273
#
# Stress axis : x y z
#
# Youngs Moduli (GPa) = 140.30591 140.30593 43.01908
#
# Poissons Ratio (x) = 0.42927 0.11732
# Poissons Ratio (y) = 0.42927 0.11732
# Poissons Ratio (z) = 0.38262 0.38262
#
# Static dielectric constant tensor:
#      x y z
#    x 3.980290 0.000000 0.000000 
#    y 0.000000 3.980290 0.000000 
#    z 0.000000 0.000000 3.040140 
# 
# 
# High freq. dielectric constant tensor:
#      x y z
#    x 1.801270 0.000000 0.000000 
#    y 0.000000 1.801270 0.000000 
#    z 0.000000 0.000000 1.722100 
# 
# From -- ./inp_files/10235.got.cif
#   From: 2010.03.12/outbox.cif.g09.slc.cpg/sg166_6_cif.got.tgz:10235.got - 2010.04.02 06:38:31.
