data_PCOD8324490
_publ_section_title
;
Structure prediction by ZEFSAII (Michael W. Deem and Ramdas Pophale) SiO2 
 PCOD8324490
Probable space group: P 61
;
_chemical_formula_sum "Si O2"
_cell_formula_units_Z 42
_cell_length_a 14.031697
_cell_length_b 14.031697
_cell_length_c 12.727403
_cell_angle_alpha 90.000000
_cell_angle_beta 90.000000
_cell_angle_gamma 120.000000
_cell_volume 2170.155348
_symmetry_space_group_name_H-M "P 61"
_symmetry_group_IT_number 169
_symmetry_cell_setting 'hexagonal'
loop_
_space_group_symop_operation_xyz
x,y,z
x-y,x,1/6+z
-y,x-y,1/3+z
-x,-y,1/2+z
-x+y,-x,2/3+z
y,-x+y,5/6+z
loop_
_atom_site_type_symbol
_atom_site_label
_atom_site_fract_x
_atom_site_fract_y
_atom_site_fract_z
Si Si1 0.156574 0.147330 0.115330
Si Si2 0.047840 0.387757 0.239005
Si Si3 0.003849 0.849157 0.462211
Si Si4 0.670452 0.410046 0.355723
Si Si5 0.031858 0.651026 0.508913
Si Si6 0.561366 0.290991 0.161487
Si Si7 0.562273 0.455968 0.709060
O O1 0.285984 0.231919 0.123846
O O2 0.100983 0.130867 0.230943
O O3 0.103771 0.200490 0.037691
O O4 0.160678 0.497920 0.260432
O O5 0.840436 0.348206 0.472261
O O6 0.948515 0.396166 0.290903
O O7 0.965446 0.866899 0.346480
O O8 0.044916 0.761139 0.455291
O O9 0.671290 0.521756 0.377633
O O10 0.568759 0.328026 0.281082
O O11 0.647035 0.337326 0.460364
O O12 0.793965 0.442739 0.316512
O O13 0.959646 0.621919 0.613603
O O14 0.980127 0.555238 0.423114
#
# Coordination Sequence:
#
# PCOD8324490 Si02
#       7
#     6   6   6   6   6   6   6
#     4  10  20  35  61  96 124 155 207 264 305 363
#     4  12  21  37  61  94 121 159 211 253 307 377
#     4  10  20  35  61  96 124 155 207 264 305 363
#     4  10  22  39  57  85 124 156 198 253 308 356
#     4  12  21  37  61  94 121 159 211 253 307 377
#     4  10  22  39  57  85 124 156 198 253 308 356
#     4  10  24  34  60  90 118 164 194 256 308 356
#
# _framework density 19.353453999999999
#
# number of rings (size 3 to 8) (size 9 to 14) (size 15 to 20)
#    0.857    0.571    4.286    3.429    0.000    0.000 
#    0.000    0.000    0.000    8.571   37.143    0.000 
#    0.000    0.000    0.000    0.000    0.000    0.000 
#
# Total GULP energy -520368.718481 kJ/mol
# GULP energy per Si atom -12389.731392 kJ/mol
# Density = 1.930940 g / cm^3
# Si number density = 19.353454 Si / 1000 Ang^3
#
#
#
# Elastic Constant Matrix: (Units=GPa)
#
#
# Indices 1 2 3 4 5 6 
#
# 1 76.4880 14.4149 16.7922 0.0000 0.0000 0.0000
# 2 14.4149 76.4880 16.7922 0.0000 0.0000 0.0000
# 3 16.7922 16.7922 53.7232 0.0000 0.0000 0.0000
# 4 0.0000 0.0000 0.0000 26.3034 0.0000 0.0000
# 5 0.0000 0.0000 0.0000 0.0000 26.3034 0.0000
# 6 0.0000 0.0000 0.0000 0.0000 0.0000 31.0365
#
#
#
# Elastic Compliance Matrix: (Units=1/GPa)
#
#
# Indices 1 2 3 4 5 6 
#
# 1 0.014273 -0.001837 -0.003887 0.000000 0.000000 0.000000
# 2 -0.001837 0.014273 -0.003887 0.000000 0.000000 0.000000
# 3 -0.003887 -0.003887 0.021044 0.000000 0.000000 0.000000
# 4 0.000000 0.000000 0.000000 0.038018 0.000000 0.000000
# 5 0.000000 0.000000 0.000000 0.000000 0.038018 0.000000
# 6 0.000000 0.000000 0.000000 0.000000 0.000000 0.032220
#
#
# Mechanical properties :
#
#
# Convention : Reuss Voigt Hill
#
# Bulk Modulus (GPa) = 32.92895 33.63308 33.28101
# Shear Modulus (GPa) = 26.71049 27.30867 27.00958
#
# Velocity S-wave (km/s) = 3.71905 3.76047 3.73982
# Velocity P-wave (km/s) = 5.95762 6.02253 5.99017
#
# Compressibility (1/GPa) = 0.03036841
#
# Stress axis : x y z
#
# Youngs Moduli (GPa) = 70.05991 70.05991 47.51926
#
# Poissons Ratio (x) = 0.12867 0.18473
# Poissons Ratio (y) = 0.12867 0.18473
# Poissons Ratio (z) = 0.27235 0.27235
#
# Static dielectric constant tensor:
#      x y z
#    x 3.504900 0.000000 0.000000 
#    y 0.000000 3.504900 0.000000 
#    z 0.000000 0.000000 3.239700 
# 
# 
# High freq. dielectric constant tensor:
#      x y z
#    x 1.750860 0.000000 0.000000 
#    y 0.000000 1.750860 0.000000 
#    z 0.000000 0.000000 1.726280 
# 
# From -- ./inp_files/986.got.cif
#   From: 2010.03.12/outbox.cif.g09.slc.cpg/sg169_cif.got.tgz:986.got - 2010.04.02 06:46:06.
