data_PCOD8324980
_publ_section_title
;
Structure prediction by ZEFSAII (Michael W. Deem and Ramdas Pophale) SiO2 
 PCOD8324980
Probable space group: P -6
;
_chemical_formula_sum "Si O2"
_cell_formula_units_Z 32
_cell_length_a 14.749065
_cell_length_b 14.749065
_cell_length_c 8.749122
_cell_angle_alpha 90.000000
_cell_angle_beta 90.000000
_cell_angle_gamma 120.000000
_cell_volume 1648.253791
_symmetry_space_group_name_H-M "P -6"
_symmetry_group_IT_number 174
_symmetry_cell_setting 'hexagonal'
loop_
_space_group_symop_operation_xyz
x,y,z
-x+y,-x,-z
-y,x-y,z
x,y,-z
-x+y,-x,z
-y,x-y,-z
loop_
_atom_site_type_symbol
_atom_site_label
_atom_site_fract_x
_atom_site_fract_y
_atom_site_fract_z
Si Si1 0.152170 0.233073 0.818384
Si Si2 0.374773 0.577824 0.173021
Si Si3 0.448083 0.257092 0.818866
Si Si4 0.666667 0.333333 0.319468
Si Si5 0.028822 0.637396 0.677667
Si Si6 0.922877 0.150975 0.179945
O O1 0.243006 0.333948 0.734795
O O2 0.162307 0.132668 0.771724
O O3 0.040679 0.213218 0.754028
O O4 0.164949 0.252177 0.000000
O O5 0.449388 0.703067 0.199135
O O6 0.407567 0.514187 0.287977
O O7 0.387117 0.547845 0.000000
O O8 0.548876 0.263866 0.740569
O O9 0.431568 0.352500 0.767800
O O10 0.348222 0.147253 0.764280
O O11 0.462235 0.262082 0.000000
O O12 0.666667 0.333334 0.500000
O O13 0.002730 0.629875 0.500000
O O14 0.932165 0.158501 0.000000
#
# Coordination Sequence:
#
# PCOD8324980 Si02
#       6
#     6   6   6   2   6   6
#     4   9  16  30  53  79 111 146 186 232 279 333
#     4   8  17  35  57  78 102 137 180 223 268 329
#     4  10  21  40  63  83 108 149 199 244 286 343
#     4  12  25  44  64  87 115 149 190 252 316 356
#     4  11  21  34  53  82 116 149 181 228 288 341
#     4   8  15  29  54  85 110 142 188 235 277 326
#
# _framework density 19.414486
#
# number of rings (size 3 to 8) (size 9 to 14) (size 15 to 20)
#    0.375    2.250    0.000    4.312    0.000    2.250 
#    3.375    4.688    0.000    0.000    0.000    0.000 
#    0.000    0.000    0.000    0.000    0.000    0.000 
#
# Total GULP energy -396626.029952 kJ/mol
# GULP energy per Si atom -12394.563436 kJ/mol
# Density = 1.937030 g / cm^3
# Si number density = 19.414486 Si / 1000 Ang^3
#
#
#
# Elastic Constant Matrix: (Units=GPa)
#
#
# Indices 1 2 3 4 5 6 
#
# 1 75.7065 28.7199 23.4362 0.0000 0.0000 -0.0001
# 2 28.7199 75.7073 23.4366 0.0000 0.0000 0.0000
# 3 23.4362 23.4366 78.6579 0.0000 0.0000 0.0000
# 4 0.0000 0.0000 0.0000 13.9620 0.0000 0.0000
# 5 0.0000 0.0000 0.0000 0.0000 13.9621 0.0000
# 6 -0.0001 0.0000 0.0000 0.0000 0.0000 23.4934
#
#
#
# Elastic Compliance Matrix: (Units=1/GPa)
#
#
# Indices 1 2 3 4 5 6 
#
# 1 0.016169 -0.005114 -0.003294 0.000000 0.000000 0.000000
# 2 -0.005114 0.016168 -0.003294 0.000000 0.000000 0.000000
# 3 -0.003294 -0.003294 0.014676 0.000000 0.000000 0.000000
# 4 0.000000 0.000000 0.000000 0.071623 0.000000 0.000000
# 5 0.000000 0.000000 0.000000 0.000000 0.071623 0.000000
# 6 0.000000 0.000000 0.000000 0.000000 0.000000 0.042565
#
#
# Mechanical properties :
#
#
# Convention : Reuss Voigt Hill
#
# Bulk Modulus (GPa) = 42.35471 42.36191 42.35831
# Shear Modulus (GPa) = 18.93248 20.58210 19.75729
#
# Velocity S-wave (km/s) = 3.12616 3.25951 3.19353
# Velocity P-wave (km/s) = 5.90711 6.00275 5.95512
#
# Compressibility (1/GPa) = 0.02361012
#
# Stress axis : x y z
#
# Youngs Moduli (GPa) = 61.84844 61.84897 68.13829
#
# Poissons Ratio (x) = 0.31629 0.22443
# Poissons Ratio (y) = 0.31629 0.22443
# Poissons Ratio (z) = 0.20371 0.20372
#
# Static dielectric constant tensor:
#      x y z
#    x 3.565540 0.000000 0.000000 
#    y 0.000000 3.565540 0.000000 
#    z 0.000000 0.000000 3.228920 
# 
# 
# High freq. dielectric constant tensor:
#      x y z
#    x 1.748620 0.000000 0.000000 
#    y 0.000000 1.748620 0.000000 
#    z 0.000000 0.000000 1.729000 
# 
# From -- ./inp_files/342.got.cif
#   From: 2010.03.12/outbox.cif.g09.slc.cpg/sg174_cif.got.tgz:342.got - 2010.04.02 06:54:58.
