data_PCOD8324638
_publ_section_title
;
Structure prediction by ZEFSAII (Michael W. Deem and Ramdas Pophale) SiO2 
 PCOD8324638
Probable space group: P 65
;
_chemical_formula_sum "Si O2"
_cell_formula_units_Z 36
_cell_length_a 14.254976
_cell_length_b 14.254976
_cell_length_c 8.070645
_cell_angle_alpha 90.000000
_cell_angle_beta 90.000000
_cell_angle_gamma 120.000000
_cell_volume 1420.273086
_symmetry_space_group_name_H-M "P 65"
_symmetry_group_IT_number 170
_symmetry_cell_setting 'hexagonal'
loop_
_space_group_symop_operation_xyz
x,y,z
x-y,x,5/6+z
-y,x-y,2/3+z
-x,-y,1/2+z
-x+y,-x,1/3+z
y,-x+y,1/6+z
loop_
_atom_site_type_symbol
_atom_site_label
_atom_site_fract_x
_atom_site_fract_y
_atom_site_fract_z
Si Si1 0.262736 0.455160 0.776180
Si Si2 0.579531 0.414611 0.776796
Si Si3 0.546576 0.053512 0.092254
Si Si4 0.232244 0.798365 0.479838
Si Si5 0.889843 0.788322 0.210724
Si Si6 0.852757 0.798627 0.684002
O O1 0.244184 0.532463 0.649637
O O2 0.388918 0.495952 0.802659
O O3 0.202150 0.336365 0.694065
O O4 0.210578 0.454230 0.951585
O O5 0.548460 0.471697 0.923619
O O6 0.537360 0.444204 0.612018
O O7 0.708269 0.464832 0.753712
O O8 0.666893 0.086152 0.030238
O O9 0.116167 0.785238 0.525325
O O10 0.829246 0.858677 0.220241
O O11 0.967247 0.806350 0.367960
O O12 0.836044 0.855791 0.843643
#
# Coordination Sequence:
#
# PCOD8324638 Si02
#       6
#     6   6   6   6   6   6
#     4  11  23  42  70  96 137 182 240 290 360 431
#     4  11  26  41  69 103 137 181 240 293 359 428
#     4  11  26  43  69  98 143 187 231 296 357 433
#     4  11  23  42  68  97 134 189 232 293 358 432
#     4  10  19  36  70  99 132 179 232 283 353 426
#     4  10  19  36  70  97 133 176 233 283 349 428
#
# _framework density 25.347238999999998
#
# number of rings (size 3 to 8) (size 9 to 14) (size 15 to 20)
#    0.000    1.333    3.333    3.000    7.000    1.333 
#    0.000    0.000   40.333    0.000    0.000    0.000 
#    0.000    0.000    0.000    0.000    0.000    0.000 
#
# Total GULP energy -446415.181012 kJ/mol
# GULP energy per Si atom -12400.421695 kJ/mol
# Density = 2.528955 g / cm^3
# Si number density = 25.347239 Si / 1000 Ang^3
#
#
#
# Elastic Constant Matrix: (Units=GPa)
#
#
# Indices 1 2 3 4 5 6 
#
# 1 105.4654 12.8974 18.0155 0.0000 0.0000 0.0000
# 2 12.8974 105.4654 18.0155 0.0000 0.0000 0.0000
# 3 18.0155 18.0155 40.4347 0.0000 0.0000 0.0000
# 4 0.0000 0.0000 0.0000 33.5383 0.0000 0.0000
# 5 0.0000 0.0000 0.0000 0.0000 33.5383 0.0000
# 6 0.0000 0.0000 0.0000 0.0000 0.0000 46.2840
#
#
#
# Elastic Compliance Matrix: (Units=1/GPa)
#
#
# Indices 1 2 3 4 5 6 
#
# 1 0.010289 -0.000514 -0.004355 0.000000 0.000000 0.000000
# 2 -0.000514 0.010289 -0.004355 0.000000 0.000000 0.000000
# 3 -0.004355 -0.004355 0.028612 0.000000 0.000000 0.000000
# 4 0.000000 0.000000 0.000000 0.029817 0.000000 0.000000
# 5 0.000000 0.000000 0.000000 0.000000 0.029817 0.000000
# 6 0.000000 0.000000 0.000000 0.000000 0.000000 0.021606
#
#
# Mechanical properties :
#
#
# Convention : Reuss Voigt Hill
#
# Bulk Modulus (GPa) = 32.53002 38.80249 35.66625
# Shear Modulus (GPa) = 31.42219 36.16791 33.79505
#
# Velocity S-wave (km/s) = 3.52471 3.78153 3.65538
# Velocity P-wave (km/s) = 5.42461 5.86585 5.64954
#
# Compressibility (1/GPa) = 0.03074084
#
# Stress axis : x y z
#
# Youngs Moduli (GPa) = 97.19516 97.19516 34.95054
#
# Poissons Ratio (x) = 0.04999 0.15221
# Poissons Ratio (y) = 0.04999 0.15221
# Poissons Ratio (z) = 0.42328 0.42328
#
# Static dielectric constant tensor:
#      x y z
#    x 4.663250 0.000000 0.000000 
#    y 0.000000 4.663250 0.000000 
#    z 0.000000 0.000000 4.524870 
# 
# 
# High freq. dielectric constant tensor:
#      x y z
#    x 2.015640 0.000000 0.000000 
#    y 0.000000 2.015640 0.000000 
#    z 0.000000 0.000000 1.999170 
# 
# From -- ./inp_files/611.got.cif
#   From: 2010.03.12/outbox.cif.g09.slc.cpg/sg170_cif.got.tgz:611.got - 2010.04.02 06:47:37.
