data_PCOD8324422
_publ_section_title
;
Structure prediction by ZEFSAII (Michael W. Deem and Ramdas Pophale) SiO2 
 PCOD8324422
Probable space group: R -3 C 
;
_chemical_formula_sum "Si O2"
_cell_formula_units_Z 168
_cell_length_a 16.534635
_cell_length_b 16.534635
_cell_length_c 30.715140
_cell_angle_alpha 90.000000
_cell_angle_beta 90.000000
_cell_angle_gamma 120.000000
_cell_volume 7272.309533
_symmetry_space_group_name_H-M "R -3 C "
_symmetry_group_IT_number 167
_symmetry_cell_setting 'hexagonal'
loop_
_space_group_symop_operation_xyz
x,y,z
-y,x-y,z
-x+y,-x,z
x-y,-y,1/2-z
-x,-x+y,1/2-z
y,x,1/2-z
-x,-y,-z
y,-x+y,-z
x-y,x,-z
-x+y,y,1/2+z
x,x-y,1/2+z
-y,-x,1/2+z
2/3+x,1/3+y,1/3+z
2/3-y,1/3+x-y,1/3+z
2/3-x+y,1/3-x,1/3+z
2/3+x-y,1/3-y,5/6-z
2/3-x,1/3-x+y,5/6-z
2/3+y,1/3+x,5/6-z
2/3-x,1/3-y,1/3-z
2/3+y,1/3-x+y,1/3-z
2/3+x-y,1/3+x,1/3-z
2/3-x+y,1/3+y,5/6+z
2/3+x,1/3+x-y,5/6+z
2/3-y,1/3-x,5/6+z
1/3+x,2/3+y,2/3+z
1/3-y,2/3+x-y,2/3+z
1/3-x+y,2/3-x,2/3+z
1/3+x-y,2/3-y,1/6-z
1/3-x,2/3-x+y,1/6-z
1/3+y,2/3+x,1/6-z
1/3-x,2/3-y,2/3-z
1/3+y,2/3-x+y,2/3-z
1/3+x-y,2/3+x,2/3-z
1/3-x+y,2/3+y,1/6+z
1/3+x,2/3+x-y,1/6+z
1/3-y,2/3-x,1/6+z
loop_
_atom_site_type_symbol
_atom_site_label
_atom_site_fract_x
_atom_site_fract_y
_atom_site_fract_z
Si Si1 0.333334 0.666667 0.365984
Si Si2 0.722415 0.529078 0.744234
Si Si3 0.010206 0.825325 0.680087
Si Si4 0.666668 0.333334 0.884610
Si Si5 0.297214 0.035531 0.619871
Si Si6 0.620690 0.733430 0.457045
O O1 0.333334 0.666668 0.416667
O O2 0.305447 0.564412 0.349136
O O3 0.658853 0.531013 0.704519
O O4 0.672388 0.427512 0.765298
O O5 0.824433 0.555690 0.726839
O O6 0.730866 0.603171 0.779887
O O7 0.111718 0.864873 0.700518
O O8 0.939715 0.733265 0.707424
O O9 0.666668 0.333335 0.833334
O O10 0.299871 0.966538 0.583334
O O11 0.270592 0.987570 0.666459
O O12 0.564127 0.666667 0.416667
#
# Coordination Sequence:
#
# PCOD8324422 Si02
#       6
#    12  36  36  12  36  36
#     4  12  25  38  76 111 157 194 250 316 386 460
#     4  12  27  52  78 110 157 199 260 325 383 465
#     4  12  25  47  74 114 152 202 254 314 396 452
#     4  12  31  53  79 111 151 212 268 319 386 466
#     4  12  26  48  75 113 155 199 257 317 386 459
#     4  12  27  48  79 113 154 204 254 318 386 463
#
# _framework density 23.101326
#
# number of rings (size 3 to 8) (size 9 to 14) (size 15 to 20)
#    0.000    0.000    4.286    5.786    6.000    0.000 
#    3.857    0.000    0.000    0.000    0.000    0.000 
#    0.000    0.000    0.000    0.000    0.000    0.000 
#
# Total GULP energy -694758.634309 kJ/mol
# GULP energy per Si atom -12406.404184 kJ/mol
# Density = 2.304875 g / cm^3
# Si number density = 23.101326 Si / 1000 Ang^3
#
#
#
# Elastic Constant Matrix: (Units=GPa)
#
#
# Indices 1 2 3 4 5 6 
#
# 1 66.8576 8.6648 18.5227 -0.4961 -0.0004 0.0000
# 2 8.6648 66.8587 18.5234 0.4971 0.0004 0.0000
# 3 18.5227 18.5234 145.3106 0.0006 0.0000 0.0001
# 4 -0.4961 0.4971 0.0006 45.1107 0.0000 0.0004
# 5 -0.0004 0.0004 0.0000 0.0000 45.1106 -0.4966
# 6 0.0000 0.0000 0.0001 0.0004 -0.4966 29.0968
#
#
#
# Elastic Compliance Matrix: (Units=1/GPa)
#
#
# Indices 1 2 3 4 5 6 
#
# 1 0.015656 -0.001532 -0.001800 0.000189 0.000000 0.000000
# 2 -0.001532 0.015656 -0.001800 -0.000189 0.000000 0.000000
# 3 -0.001800 -0.001800 0.007341 0.000000 0.000000 0.000000
# 4 0.000189 -0.000189 0.000000 0.022172 0.000000 0.000000
# 5 0.000000 0.000000 0.000000 0.000000 0.022172 0.000378
# 6 0.000000 0.000000 0.000000 0.000000 0.000378 0.034375
#
#
# Mechanical properties :
#
#
# Convention : Reuss Voigt Hill
#
# Bulk Modulus (GPa) = 35.22686 41.16097 38.19391
# Shear Modulus (GPa) = 36.47027 39.41802 37.94415
#
# Velocity S-wave (km/s) = 3.97761 4.13523 4.05719
# Velocity P-wave (km/s) = 6.03134 6.37624 6.20619
#
# Compressibility (1/GPa) = 0.02838743
#
# Stress axis : x y z
#
# Youngs Moduli (GPa) = 63.87385 63.87473 136.22452
#
# Poissons Ratio (x) = 0.09783 0.24526
# Poissons Ratio (y) = 0.09783 0.24527
# Poissons Ratio (z) = 0.11500 0.11500
#
# Static dielectric constant tensor:
#      x y z
#    x 4.238090 0.000000 0.000000 
#    y 0.000000 4.238320 0.000030 
#    z 0.000000 0.000030 4.450710 
# 
# 
# High freq. dielectric constant tensor:
#      x y z
#    x 1.915300 0.000000 0.000000 
#    y 0.000000 1.915300 0.000000 
#    z 0.000000 0.000000 1.935900 
# 
# From -- ./inp_files/6993.got.cif
#   From: 2010.03.12/outbox.cif.g09.slc.cpg/sg167_4_cif.got.tgz:6993.got - 2010.04.02 06:42:56.
