data_PCOD8324409
_publ_section_title
;
Structure prediction by ZEFSAII (Michael W. Deem and Ramdas Pophale) SiO2 
 PCOD8324409
Probable space group: R -3 C 
;
_chemical_formula_sum "Si O2"
_cell_formula_units_Z 162
_cell_length_a 21.961427
_cell_length_b 21.961427
_cell_length_c 18.740265
_cell_angle_alpha 90.000000
_cell_angle_beta 90.000000
_cell_angle_gamma 120.000000
_cell_volume 7827.579221
_symmetry_space_group_name_H-M "R -3 C "
_symmetry_group_IT_number 167
_symmetry_cell_setting 'hexagonal'
loop_
_space_group_symop_operation_xyz
x,y,z
-y,x-y,z
-x+y,-x,z
x-y,-y,1/2-z
-x,-x+y,1/2-z
y,x,1/2-z
-x,-y,-z
y,-x+y,-z
x-y,x,-z
-x+y,y,1/2+z
x,x-y,1/2+z
-y,-x,1/2+z
2/3+x,1/3+y,1/3+z
2/3-y,1/3+x-y,1/3+z
2/3-x+y,1/3-x,1/3+z
2/3+x-y,1/3-y,5/6-z
2/3-x,1/3-x+y,5/6-z
2/3+y,1/3+x,5/6-z
2/3-x,1/3-y,1/3-z
2/3+y,1/3-x+y,1/3-z
2/3+x-y,1/3+x,1/3-z
2/3-x+y,1/3+y,5/6+z
2/3+x,1/3+x-y,5/6+z
2/3-y,1/3-x,5/6+z
1/3+x,2/3+y,2/3+z
1/3-y,2/3+x-y,2/3+z
1/3-x+y,2/3-x,2/3+z
1/3+x-y,2/3-y,1/6-z
1/3-x,2/3-x+y,1/6-z
1/3+y,2/3+x,1/6-z
1/3-x,2/3-y,2/3-z
1/3+y,2/3-x+y,2/3-z
1/3+x-y,2/3+x,2/3-z
1/3-x+y,2/3+y,1/6+z
1/3+x,2/3+x-y,1/6+z
1/3-y,2/3-x,1/6+z
loop_
_atom_site_type_symbol
_atom_site_label
_atom_site_fract_x
_atom_site_fract_y
_atom_site_fract_z
Si Si1 0.811218 0.711775 0.845103
Si Si2 0.015417 0.143554 0.421946
Si Si3 0.074203 0.629495 0.343055
Si Si4 0.648417 0.981750 0.916667
Si Si5 0.809994 0.348895 0.249375
O O1 0.778380 0.666667 0.916667
O O2 0.877987 0.704648 0.819274
O O3 0.757488 0.691255 0.778781
O O4 0.835200 0.792235 0.862224
O O5 0.020749 0.169459 0.503036
O O6 0.088629 0.152767 0.393933
O O7 0.995056 0.192761 0.380286
O O8 0.956744 0.062088 0.411765
O O9 0.108034 0.666667 0.416667
O O10 0.018821 0.652282 0.317718
#
# Coordination Sequence:
#
# PCOD8324409 Si02
#       5
#    36  36  36  18  36
#     4  11  24  44  67  93 132 172 218 275 332 400
#     4   9  18  35  61  92 128 165 210 271 316 390
#     4  11  25  44  65  94 130 167 217 272 332 394
#     4  12  26  46  68  94 124 178 224 270 332 402
#     4   9  18  35  62  93 124 167 216 260 327 381
#
# _framework density 20.696054
#
# number of rings (size 3 to 8) (size 9 to 14) (size 15 to 20)
#    0.000    1.778    1.111    2.444    3.111    2.667 
#    8.000    0.000    0.000    0.000    0.000    0.000 
#    0.000    0.000    0.000    0.000    0.000    0.000 
#
# Total GULP energy -669608.070861 kJ/mol
# GULP energy per Si atom -12400.149460 kJ/mol
# Density = 2.064895 g / cm^3
# Si number density = 20.696054 Si / 1000 Ang^3
#
#
#
# Elastic Constant Matrix: (Units=GPa)
#
#
# Indices 1 2 3 4 5 6 
#
# 1 95.4623 45.5129 34.8659 -1.2368 -0.0009 0.0000
# 2 45.5129 95.4623 34.8659 1.2368 0.0009 0.0000
# 3 34.8659 34.8659 62.7071 0.0000 0.0000 0.0000
# 4 -1.2368 1.2368 0.0000 26.3521 0.0000 0.0009
# 5 -0.0009 0.0009 0.0000 0.0000 26.3521 -1.2368
# 6 0.0000 0.0000 0.0000 0.0009 -1.2368 24.9747
#
#
#
# Elastic Compliance Matrix: (Units=1/GPa)
#
#
# Indices 1 2 3 4 5 6 
#
# 1 0.014926 -0.005141 -0.005440 0.000942 0.000001 0.000000
# 2 -0.005141 0.014926 -0.005440 -0.000942 -0.000001 0.000000
# 3 -0.005440 -0.005440 0.021997 0.000000 0.000000 0.000000
# 4 0.000942 -0.000942 0.000000 0.038036 0.000000 -0.000001
# 5 0.000001 -0.000001 0.000000 0.000000 0.038036 0.001884
# 6 0.000000 0.000000 0.000000 -0.000001 0.001884 0.040134
#
#
# Mechanical properties :
#
#
# Convention : Reuss Voigt Hill
#
# Bulk Modulus (GPa) = 50.49313 53.79121 52.14217
# Shear Modulus (GPa) = 24.18976 24.76159 24.47567
#
# Velocity S-wave (km/s) = 3.42250 3.46271 3.44266
# Velocity P-wave (km/s) = 6.32996 6.48341 6.40715
#
# Compressibility (1/GPa) = 0.01980468
#
# Stress axis : x y z
#
# Youngs Moduli (GPa) = 66.99876 66.99876 45.46105
#
# Poissons Ratio (x) = 0.34446 0.24732
# Poissons Ratio (y) = 0.34446 0.24732
# Poissons Ratio (z) = 0.36449 0.36449
#
# Static dielectric constant tensor:
#      x y z
#    x 3.858160 0.000000 0.000000 
#    y 0.000000 3.858160 0.000000 
#    z 0.000000 0.000000 3.591330 
# 
# 
# High freq. dielectric constant tensor:
#      x y z
#    x 1.817810 0.000000 0.000000 
#    y 0.000000 1.817810 0.000000 
#    z 0.000000 0.000000 1.793870 
# 
# From -- ./inp_files/4431.got.cif
#   From: 2010.03.12/outbox.cif.g09.slc.cpg/sg167_3_cif.got.tgz:4431.got - 2010.04.02 06:42:56.
