data_PCOD8324489
_publ_section_title
;
Structure prediction by ZEFSAII (Michael W. Deem and Ramdas Pophale) SiO2 
 PCOD8324489
Probable space group: P 61
;
_chemical_formula_sum "Si O2"
_cell_formula_units_Z 42
_cell_length_a 14.465089
_cell_length_b 14.465089
_cell_length_c 9.913688
_cell_angle_alpha 90.000000
_cell_angle_beta 90.000000
_cell_angle_gamma 120.000000
_cell_volume 1796.420898
_symmetry_space_group_name_H-M "P 61"
_symmetry_group_IT_number 169
_symmetry_cell_setting 'hexagonal'
loop_
_space_group_symop_operation_xyz
x,y,z
x-y,x,1/6+z
-y,x-y,1/3+z
-x,-y,1/2+z
-x+y,-x,2/3+z
y,-x+y,5/6+z
loop_
_atom_site_type_symbol
_atom_site_label
_atom_site_fract_x
_atom_site_fract_y
_atom_site_fract_z
Si Si1 0.178301 0.311568 0.760620
Si Si2 0.587938 0.165655 0.868788
Si Si3 0.048190 0.191286 0.098305
Si Si4 0.810183 0.576627 0.538398
Si Si5 0.647247 0.645399 0.053452
Si Si6 0.390178 0.780048 0.068983
Si Si7 0.843625 0.393902 0.607149
O O1 0.165824 0.198166 0.804232
O O2 0.282095 0.371444 0.666679
O O3 0.073211 0.301301 0.684835
O O4 0.195971 0.382075 0.891646
O O5 0.492028 0.180862 0.929315
O O6 0.577814 0.151134 0.705963
O O7 0.701702 0.263420 0.911067
O O8 0.590140 0.066118 0.936434
O O9 0.115190 0.318730 0.128931
O O10 0.980720 0.129728 0.229913
O O11 0.862972 0.500646 0.529470
O O12 0.639685 0.574564 0.921491
O O13 0.263199 0.706663 0.056201
O O14 0.427683 0.849417 0.933904
#
# Coordination Sequence:
#
# PCOD8324489 Si02
#       7
#     6   6   6   6   6   6   6
#     4  11  22  40  65 101 132 173 240 286 336 413
#     4  10  20  34  62  92 138 179 220 278 342 409
#     4  10  21  40  72  96 123 166 237 297 344 402
#     4  10  21  38  63 100 134 171 230 283 336 427
#     4  12  23  37  66 102 133 175 222 290 342 412
#     4   9  19  41  57  90 137 180 222 269 337 425
#     4  10  22  36  63  91 137 182 221 273 349 406
#
# _framework density 23.379822000000001
#
# number of rings (size 3 to 8) (size 9 to 14) (size 15 to 20)
#    0.000    1.714    2.857    3.429    4.000    2.286 
#    0.000    0.000    3.143    0.000    0.000    0.000 
#    0.000    0.000    0.000    0.000    0.000    0.000 
#
# Total GULP energy -520376.157391 kJ/mol
# GULP energy per Si atom -12389.908509 kJ/mol
# Density = 2.332661 g / cm^3
# Si number density = 23.379822 Si / 1000 Ang^3
#
#
#
# Elastic Constant Matrix: (Units=GPa)
#
#
# Indices 1 2 3 4 5 6 
#
# 1 110.5137 36.9727 13.4526 0.0000 0.0000 0.0000
# 2 36.9727 110.5137 13.4526 0.0000 0.0000 0.0000
# 3 13.4526 13.4526 46.1339 0.0000 0.0000 0.0000
# 4 0.0000 0.0000 0.0000 28.2218 0.0000 0.0000
# 5 0.0000 0.0000 0.0000 0.0000 28.2218 0.0000
# 6 0.0000 0.0000 0.0000 0.0000 0.0000 36.7705
#
#
#
# Elastic Compliance Matrix: (Units=1/GPa)
#
#
# Indices 1 2 3 4 5 6 
#
# 1 0.010380 -0.003218 -0.002088 0.000000 0.000000 0.000000
# 2 -0.003218 0.010380 -0.002088 0.000000 0.000000 0.000000
# 3 -0.002088 -0.002088 0.022894 0.000000 0.000000 0.000000
# 4 0.000000 0.000000 0.000000 0.035434 0.000000 0.000000
# 5 0.000000 0.000000 0.000000 0.000000 0.035434 0.000000
# 6 0.000000 0.000000 0.000000 0.000000 0.000000 0.027196
#
#
# Mechanical properties :
#
#
# Convention : Reuss Voigt Hill
#
# Bulk Modulus (GPa) = 34.64580 43.87965 39.26273
# Shear Modulus (GPa) = 30.09756 32.19505 31.14631
#
# Velocity S-wave (km/s) = 3.59183 3.71488 3.65387
# Velocity P-wave (km/s) = 5.66149 6.09995 5.88481
#
# Compressibility (1/GPa) = 0.02886353
#
# Stress axis : x y z
#
# Youngs Moduli (GPa) = 96.34331 96.34331 43.67979
#
# Poissons Ratio (x) = 0.31006 0.09121
# Poissons Ratio (y) = 0.31006 0.09121
# Poissons Ratio (z) = 0.20118 0.20118
#
# Static dielectric constant tensor:
#      x y z
#    x 4.539780 0.000000 0.000000 
#    y 0.000000 4.539780 0.000000 
#    z 0.000000 0.000000 3.876610 
# 
# 
# High freq. dielectric constant tensor:
#      x y z
#    x 1.930400 0.000000 0.000000 
#    y 0.000000 1.930400 0.000000 
#    z 0.000000 0.000000 1.879820 
# 
# From -- ./inp_files/1003.got.cif
#   From: 2010.03.12/outbox.cif.g09.slc.cpg/sg169_cif.got.tgz:1003.got - 2010.04.02 06:46:06.
