data_PCOD8324428
_publ_section_title
;
Structure prediction by ZEFSAII (Michael W. Deem and Ramdas Pophale) SiO2 
 PCOD8324428
Probable space group: R -3 C 
;
_chemical_formula_sum "Si O2"
_cell_formula_units_Z 72
_cell_length_a 21.186146
_cell_length_b 21.186146
_cell_length_c 9.902885
_cell_angle_alpha 90.000000
_cell_angle_beta 90.000000
_cell_angle_gamma 120.000000
_cell_volume 3849.428781
_symmetry_space_group_name_H-M "R -3 C "
_symmetry_group_IT_number 167
_symmetry_cell_setting 'hexagonal'
loop_
_space_group_symop_operation_xyz
x,y,z
-y,x-y,z
-x+y,-x,z
x-y,-y,1/2-z
-x,-x+y,1/2-z
y,x,1/2-z
-x,-y,-z
y,-x+y,-z
x-y,x,-z
-x+y,y,1/2+z
x,x-y,1/2+z
-y,-x,1/2+z
2/3+x,1/3+y,1/3+z
2/3-y,1/3+x-y,1/3+z
2/3-x+y,1/3-x,1/3+z
2/3+x-y,1/3-y,5/6-z
2/3-x,1/3-x+y,5/6-z
2/3+y,1/3+x,5/6-z
2/3-x,1/3-y,1/3-z
2/3+y,1/3-x+y,1/3-z
2/3+x-y,1/3+x,1/3-z
2/3-x+y,1/3+y,5/6+z
2/3+x,1/3+x-y,5/6+z
2/3-y,1/3-x,5/6+z
1/3+x,2/3+y,2/3+z
1/3-y,2/3+x-y,2/3+z
1/3-x+y,2/3-x,2/3+z
1/3+x-y,2/3-y,1/6-z
1/3-x,2/3-x+y,1/6-z
1/3+y,2/3+x,1/6-z
1/3-x,2/3-y,2/3-z
1/3+y,2/3-x+y,2/3-z
1/3+x-y,2/3+x,2/3-z
1/3-x+y,2/3+y,1/6+z
1/3+x,2/3+x-y,1/6+z
1/3-y,2/3-x,1/6+z
loop_
_atom_site_type_symbol
_atom_site_label
_atom_site_fract_x
_atom_site_fract_y
_atom_site_fract_z
Si Si1 0.082705 0.283167 0.957355
Si Si2 0.950101 0.754164 0.629175
O O1 0.116476 0.233664 0.906519
O O2 0.085176 0.336475 0.839004
O O3 0.129674 0.333334 0.083334
O O4 0.999040 0.229588 0.996213
O O5 0.000000 0.808114 0.750000
#
# Coordination Sequence:
#
# PCOD8324428 Si02
#       2
#    36  36
#     4   9  18  32  51  73 101 133 170 209 251 297
#     4   9  18  32  48  73 103 133 167 206 251 300
#
# _framework density 18.704073999999999
#
# number of rings (size 3 to 8) (size 9 to 14) (size 15 to 20)
#    0.000    3.000    0.000    0.000    0.000   10.000 
#    0.000   20.000    0.000    1.000    0.000    0.000 
#    0.000    0.000    0.000    0.000    0.000    0.000 
#
# Total GULP energy -297500.136725 kJ/mol
# GULP energy per Si atom -12395.839030 kJ/mol
# Density = 1.866150 g / cm^3
# Si number density = 18.704074 Si / 1000 Ang^3
#
#
#
# Elastic Constant Matrix: (Units=GPa)
#
#
# Indices 1 2 3 4 5 6 
#
# 1 114.0516 66.5362 50.6161 -3.2296 0.0000 0.0000
# 2 66.5362 114.0518 50.6157 3.2296 0.0001 0.0001
# 3 50.6161 50.6157 57.6419 0.0012 0.0011 -0.0002
# 4 -3.2296 3.2296 0.0012 37.6916 0.0002 -0.0001
# 5 0.0000 0.0001 0.0011 0.0002 37.6916 -3.2295
# 6 0.0000 0.0001 -0.0002 -0.0001 -3.2295 23.7578
#
#
#
# Elastic Compliance Matrix: (Units=1/GPa)
#
#
# Indices 1 2 3 4 5 6 
#
# 1 0.016100 -0.005194 -0.009577 0.001825 0.000000 0.000000
# 2 -0.005194 0.016100 -0.009576 -0.001824 0.000000 0.000000
# 3 -0.009577 -0.009576 0.034167 -0.000001 -0.000001 0.000000
# 4 0.001825 -0.001824 -0.000001 0.026844 0.000000 0.000000
# 5 0.000000 0.000000 -0.000001 0.000000 0.026844 0.003649
# 6 0.000000 0.000000 0.000000 0.000000 0.003649 0.042587
#
#
# Mechanical properties :
#
#
# Convention : Reuss Voigt Hill
#
# Bulk Modulus (GPa) = 56.58491 69.03125 62.80808
# Shear Modulus (GPa) = 23.01753 27.69336 25.35545
#
# Velocity S-wave (km/s) = 3.51182 3.85204 3.68586
# Velocity P-wave (km/s) = 6.83829 7.53468 7.19492
#
# Compressibility (1/GPa) = 0.01767256
#
# Stress axis : x y z
#
# Youngs Moduli (GPa) = 62.11217 62.11335 29.26822
#
# Poissons Ratio (x) = 0.32262 0.28029
# Poissons Ratio (y) = 0.32261 0.28028
# Poissons Ratio (z) = 0.59483 0.59481
#
# Static dielectric constant tensor:
#      x y z
#    x 3.264480 0.000000 0.000000 
#    y 0.000000 3.264480 0.000000 
#    z 0.000000 0.000000 3.600470 
# 
# 
# High freq. dielectric constant tensor:
#      x y z
#    x 1.698340 0.000000 0.000000 
#    y 0.000000 1.698340 0.000000 
#    z 0.000000 0.000000 1.732810 
# 
# From -- ./inp_files/336.got.cif
#   From: 2010.03.12/outbox.cif.g09.slc.cpg/sg167_1_cif.got.tgz:336.got - 2010.04.02 06:42:56.
