data_PCOD8324906
_publ_section_title
;
Structure prediction by ZEFSAII (Michael W. Deem and Ramdas Pophale) SiO2 
 PCOD8324906
Probable space group: P -6
;
_chemical_formula_sum "Si O2"
_cell_formula_units_Z 20
_cell_length_a 11.776131
_cell_length_b 11.776131
_cell_length_c 9.081922
_cell_angle_alpha 90.000000
_cell_angle_beta 90.000000
_cell_angle_gamma 120.000000
_cell_volume 1090.720952
_symmetry_space_group_name_H-M "P -6"
_symmetry_group_IT_number 174
_symmetry_cell_setting 'hexagonal'
loop_
_space_group_symop_operation_xyz
x,y,z
-x+y,-x,-z
-y,x-y,z
x,y,-z
-x+y,-x,z
-y,x-y,-z
loop_
_atom_site_type_symbol
_atom_site_label
_atom_site_fract_x
_atom_site_fract_y
_atom_site_fract_z
Si Si1 0.263127 0.122679 0.671317
Si Si2 0.000000 0.000000 0.826133
Si Si3 0.597428 0.918493 0.324614
Si Si4 0.075930 0.423380 0.671564
O O1 0.222669 0.110265 0.500000
O O2 0.137481 0.024621 0.765184
O O3 0.322162 0.271528 0.727906
O O4 0.362873 0.067483 0.697714
O O5 0.000000 0.000000 0.000000
O O6 0.593995 0.917402 0.500000
O O7 0.472700 0.923451 0.257376
O O8 0.595511 0.788826 0.262028
O O9 0.105151 0.450625 0.500000
#
# Coordination Sequence:
#
# PCOD8324906 Si02
#       4
#     6   2   6   6
#     4  10  18  32  52  74 102 133 164 204 259 306
#     4  12  22  32  52  78 100 125 172 222 253 290
#     4   9  16  26  44  71 101 129 160 200 246 298
#     4   9  16  26  44  71 101 129 160 200 246 298
#
# _framework density 18.336493999999998
#
# number of rings (size 3 to 8) (size 9 to 14) (size 15 to 20)
#    0.000    2.400    3.000    1.500    0.000    2.400 
#    1.800    0.000    0.000    1.800    0.000    0.000 
#    0.000    0.000    0.000    0.000    0.000    0.000 
#
# Total GULP energy -247877.140012 kJ/mol
# GULP energy per Si atom -12393.857001 kJ/mol
# Density = 1.829476 g / cm^3
# Si number density = 18.336494 Si / 1000 Ang^3
#
#
#
# Elastic Constant Matrix: (Units=GPa)
#
#
# Indices 1 2 3 4 5 6 
#
# 1 141.2397 70.5128 8.9528 0.0000 0.0000 0.0000
# 2 70.5128 141.2397 8.9528 0.0000 0.0000 0.0000
# 3 8.9528 8.9528 30.2151 0.0000 0.0000 0.0000
# 4 0.0000 0.0000 0.0000 2.5994 0.0000 0.0000
# 5 0.0000 0.0000 0.0000 0.0000 2.5994 0.0000
# 6 0.0000 0.0000 0.0000 0.0000 0.0000 35.3634
#
#
#
# Elastic Compliance Matrix: (Units=1/GPa)
#
#
# Indices 1 2 3 4 5 6 
#
# 1 0.009491 -0.004648 -0.001435 0.000000 0.000000 0.000000
# 2 -0.004648 0.009491 -0.001435 0.000000 0.000000 0.000000
# 3 -0.001435 -0.001435 0.033947 0.000000 0.000000 0.000000
# 4 0.000000 0.000000 0.000000 0.384701 0.000000 0.000000
# 5 0.000000 0.000000 0.000000 0.000000 0.384701 0.000000
# 6 0.000000 0.000000 0.000000 0.000000 0.000000 0.028278
#
#
# Mechanical properties :
#
#
# Convention : Reuss Voigt Hill
#
# Bulk Modulus (GPa) = 26.38989 54.39238 40.39114
# Shear Modulus (GPa) = 5.69297 23.06419 14.37858
#
# Velocity S-wave (km/s) = 1.76393 3.55044 2.80331
# Velocity P-wave (km/s) = 4.30951 6.82168 5.70558
#
# Compressibility (1/GPa) = 0.03789329
#
# Stress axis : x y z
#
# Youngs Moduli (GPa) = 105.35879 105.35879 29.45805
#
# Poissons Ratio (x) = 0.48966 0.04228
# Poissons Ratio (y) = 0.48966 0.04228
# Poissons Ratio (z) = 0.15122 0.15122
#
# Static dielectric constant tensor:
#      x y z
#    x 3.587060 0.000000 0.000000 
#    y 0.000000 3.587060 0.000000 
#    z 0.000000 0.000000 2.644250 
# 
# 
# High freq. dielectric constant tensor:
#      x y z
#    x 1.716650 0.000000 0.000000 
#    y 0.000000 1.716650 0.000000 
#    z 0.000000 0.000000 1.627000 
# 
# From -- ./inp_files/146.got.cif
#   From: 2010.03.12/outbox.cif.g09.slc.cpg/sg174_cif.got.tgz:146.got - 2010.04.02 06:54:58.
