data_PCOD8324372
_publ_section_title
;
Structure prediction by ZEFSAII (Michael W. Deem and Ramdas Pophale) SiO2 
 PCOD8324372
Probable space group: R -3 C 
;
_chemical_formula_sum "Si O2"
_cell_formula_units_Z 144
_cell_length_a 18.742830
_cell_length_b 18.742830
_cell_length_c 22.550880
_cell_angle_alpha 90.000000
_cell_angle_beta 90.000000
_cell_angle_gamma 120.000000
_cell_volume 6860.637263
_symmetry_space_group_name_H-M "R -3 C "
_symmetry_group_IT_number 167
_symmetry_cell_setting 'hexagonal'
loop_
_space_group_symop_operation_xyz
x,y,z
-y,x-y,z
-x+y,-x,z
x-y,-y,1/2-z
-x,-x+y,1/2-z
y,x,1/2-z
-x,-y,-z
y,-x+y,-z
x-y,x,-z
-x+y,y,1/2+z
x,x-y,1/2+z
-y,-x,1/2+z
2/3+x,1/3+y,1/3+z
2/3-y,1/3+x-y,1/3+z
2/3-x+y,1/3-x,1/3+z
2/3+x-y,1/3-y,5/6-z
2/3-x,1/3-x+y,5/6-z
2/3+y,1/3+x,5/6-z
2/3-x,1/3-y,1/3-z
2/3+y,1/3-x+y,1/3-z
2/3+x-y,1/3+x,1/3-z
2/3-x+y,1/3+y,5/6+z
2/3+x,1/3+x-y,5/6+z
2/3-y,1/3-x,5/6+z
1/3+x,2/3+y,2/3+z
1/3-y,2/3+x-y,2/3+z
1/3-x+y,2/3-x,2/3+z
1/3+x-y,2/3-y,1/6-z
1/3-x,2/3-x+y,1/6-z
1/3+y,2/3+x,1/6-z
1/3-x,2/3-y,2/3-z
1/3+y,2/3-x+y,2/3-z
1/3+x-y,2/3+x,2/3-z
1/3-x+y,2/3+y,1/6+z
1/3+x,2/3+x-y,1/6+z
1/3-y,2/3-x,1/6+z
loop_
_atom_site_type_symbol
_atom_site_label
_atom_site_fract_x
_atom_site_fract_y
_atom_site_fract_z
Si Si1 0.425377 0.276423 0.198894
Si Si2 0.486774 0.573357 0.425368
Si Si3 0.506383 0.735898 0.190234
Si Si4 0.191039 0.317776 0.645275
O O1 0.451656 0.261382 0.133242
O O2 0.328485 0.220758 0.209041
O O3 0.482724 0.262829 0.246187
O O4 0.433373 0.364751 0.204712
O O5 0.509737 0.666667 0.416667
O O6 0.477937 0.546532 0.357562
O O7 0.443016 0.637701 0.191255
O O8 0.593611 0.744897 0.172393
O O9 0.156140 0.333334 0.583334
#
# Coordination Sequence:
#
# PCOD8324372 Si02
#       4
#    36  36  36  36
#     4  10  22  42  62  95 138 172 227 285 336 411
#     4  10  23  39  64  97 135 179 221 285 341 405
#     4  11  24  41  65  97 131 180 226 283 343 413
#     4  11  22  41  66  95 133 175 226 276 341 409
#
# _framework density 20.989304000000001
#
# number of rings (size 3 to 8) (size 9 to 14) (size 15 to 20)
#    0.000    1.500    2.500    1.750    7.000    0.000 
#    0.000    0.000    0.000    4.000    0.000    0.000 
#    0.000    0.000    0.000    0.000    0.000    0.000 
#
# Total GULP energy -594816.767751 kJ/mol
# GULP energy per Si atom -12392.015995 kJ/mol
# Density = 2.094153 g / cm^3
# Si number density = 20.989304 Si / 1000 Ang^3
#
#
#
# Elastic Constant Matrix: (Units=GPa)
#
#
# Indices 1 2 3 4 5 6 
#
# 1 83.2937 36.3064 40.7119 4.9982 -0.0003 0.0000
# 2 36.3064 83.2937 40.7119 -4.9982 0.0003 0.0000
# 3 40.7119 40.7119 158.2867 0.0000 0.0000 0.0000
# 4 4.9982 -4.9982 0.0000 24.3072 0.0000 0.0003
# 5 -0.0003 0.0003 0.0000 0.0000 24.3072 4.9982
# 6 0.0000 0.0000 0.0000 0.0003 4.9982 23.4936
#
#
#
# Elastic Compliance Matrix: (Units=1/GPa)
#
#
# Indices 1 2 3 4 5 6 
#
# 1 0.016196 -0.006060 -0.002607 -0.004576 0.000000 0.000000
# 2 -0.006060 0.016196 -0.002607 0.004576 0.000000 0.000000
# 3 -0.002607 -0.002607 0.007659 0.000000 0.000000 0.000000
# 4 -0.004576 0.004576 0.000000 0.043022 0.000000 0.000000
# 5 0.000000 0.000000 0.000000 0.000000 0.043022 -0.009153
# 6 0.000000 0.000000 0.000000 0.000000 -0.009153 0.044512
#
#
# Mechanical properties :
#
#
# Convention : Reuss Voigt Hill
#
# Bulk Modulus (GPa) = 57.13393 62.25937 59.69665
# Shear Modulus (GPa) = 25.12698 28.23122 26.67910
#
# Velocity S-wave (km/s) = 3.46371 3.67144 3.56909
# Velocity P-wave (km/s) = 6.57845 6.90648 6.74446
#
# Compressibility (1/GPa) = 0.01750273
#
# Stress axis : x y z
#
# Youngs Moduli (GPa) = 61.74352 61.74352 130.57006
#
# Poissons Ratio (x) = 0.37416 0.34040
# Poissons Ratio (y) = 0.37416 0.34040
# Poissons Ratio (z) = 0.16097 0.16097
#
# Static dielectric constant tensor:
#      x y z
#    x 3.743720 0.000000 0.000000 
#    y 0.000000 3.743720 0.000000 
#    z 0.000000 0.000000 4.371730 
# 
# 
# High freq. dielectric constant tensor:
#      x y z
#    x 1.812870 0.000000 0.000000 
#    y 0.000000 1.812870 0.000000 
#    z 0.000000 0.000000 1.835130 
# 
# From -- ./inp_files/4307.got.cif
#   From: 2010.03.12/outbox.cif.g09.slc.cpg/sg167_3_cif.got.tgz:4307.got - 2010.04.02 06:42:56.
