data_PCOD8324436
_publ_section_title
;
Structure prediction by ZEFSAII (Michael W. Deem and Ramdas Pophale) SiO2 
 PCOD8324436
Probable space group: P 6
;
_chemical_formula_sum "Si O2"
_cell_formula_units_Z 42
_cell_length_a 16.918426
_cell_length_b 16.918426
_cell_length_c 7.794923
_cell_angle_alpha 90.000000
_cell_angle_beta 90.000000
_cell_angle_gamma 120.000000
_cell_volume 1932.245807
_symmetry_space_group_name_H-M "P 6"
_symmetry_group_IT_number 168
_symmetry_cell_setting 'hexagonal'
loop_
_space_group_symop_operation_xyz
x,y,z
x-y,x,z
-y,x-y,z
-x,-y,z
-x+y,-x,z
y,-x+y,z
loop_
_atom_site_type_symbol
_atom_site_label
_atom_site_fract_x
_atom_site_fract_y
_atom_site_fract_z
Si Si1 0.002142 0.303922 0.251090
Si Si2 0.303922 0.301780 0.630898
Si Si3 0.687751 0.522172 0.142231
Si Si4 0.499186 0.355685 0.142620
Si Si5 0.143501 0.499186 0.739369
Si Si6 0.834420 0.312249 0.739758
Si Si7 0.175348 0.978879 0.940994
O O1 0.014169 0.272798 0.440994
O O2 0.063500 0.412706 0.236667
O O3 0.031496 0.254509 0.771248
O O4 0.897387 0.278132 0.231107
O O5 0.412706 0.349205 0.645321
O O6 0.278133 0.380746 0.650882
O O7 0.254507 0.223011 0.110742
O O8 0.588821 0.445750 0.209730
O O9 0.758780 0.489134 0.188432
O O10 0.684459 0.537315 0.940995
O O11 0.486164 0.361605 0.940994
O O12 0.143071 0.588821 0.672258
O O13 0.241220 0.510866 0.693557
O O14 0.072599 0.897489 0.940993
#
# Coordination Sequence:
#
# PCOD8324436 Si02
#       7
#     6   6   6   6   6   6   6
#     4  12  25  42  68  99 131 171 218 265 317 383
#     4  12  25  42  68  99 131 171 218 265 317 383
#     4  10  20  37  62  94 132 175 222 271 321 375
#     4  10  20  37  62  94 132 175 222 271 321 375
#     4  10  20  37  62  94 132 175 222 271 321 375
#     4  10  20  37  62  94 132 175 222 271 321 375
#     4  12  27  50  75 100 128 162 206 262 327 390
#
# _framework density 21.736363999999998
#
# number of rings (size 3 to 8) (size 9 to 14) (size 15 to 20)
#    0.000    1.143    2.857    3.286    0.000   11.429 
#    0.000    0.000    0.000    5.143    0.000    0.000 
#    0.000    0.000    0.000    0.000    0.000    0.000 
#
# Total GULP energy -521017.147849 kJ/mol
# GULP energy per Si atom -12405.170187 kJ/mol
# Density = 2.168689 g / cm^3
# Si number density = 21.736364 Si / 1000 Ang^3
#
#
#
# Elastic Constant Matrix: (Units=GPa)
#
#
# Indices 1 2 3 4 5 6 
#
# 1 88.3535 1.6573 23.0467 0.0000 0.0000 0.0000
# 2 1.6573 88.3535 23.0467 0.0000 0.0000 0.0000
# 3 23.0467 23.0467 100.2798 0.0000 0.0000 0.0000
# 4 0.0000 0.0000 0.0000 3.5057 0.0000 0.0000
# 5 0.0000 0.0000 0.0000 0.0000 3.5057 0.0000
# 6 0.0000 0.0000 0.0000 0.0000 0.0000 43.3481
#
#
#
# Elastic Compliance Matrix: (Units=1/GPa)
#
#
# Indices 1 2 3 4 5 6 
#
# 1 0.012063 0.000529 -0.002894 0.000000 0.000000 0.000000
# 2 0.000529 0.012063 -0.002894 0.000000 0.000000 0.000000
# 3 -0.002894 -0.002894 0.011302 0.000000 0.000000 0.000000
# 4 0.000000 0.000000 0.000000 0.285247 0.000000 0.000000
# 5 0.000000 0.000000 0.000000 0.000000 0.285247 0.000000
# 6 0.000000 0.000000 0.000000 0.000000 0.000000 0.023069
#
#
# Mechanical properties :
#
#
# Convention : Reuss Voigt Hill
#
# Bulk Modulus (GPa) = 40.14429 41.38759 40.76594
# Shear Modulus (GPa) = 7.71828 25.35433 16.53630
#
# Velocity S-wave (km/s) = 1.88642 3.41903 2.76119
# Velocity P-wave (km/s) = 4.82220 5.88799 5.38154
#
# Compressibility (1/GPa) = 0.02491015
#
# Stress axis : x y z
#
# Youngs Moduli (GPa) = 82.89738 82.89738 88.47786
#
# Poissons Ratio (x) = -0.04382 0.25604
# Poissons Ratio (y) = -0.04382 0.25604
# Poissons Ratio (z) = 0.23989 0.23989
#
# Static dielectric constant tensor:
#      x y z
#    x 4.002840 0.000000 0.000000 
#    y 0.000000 4.002840 0.000000 
#    z 0.000000 0.000000 3.828190 
# 
# 
# High freq. dielectric constant tensor:
#      x y z
#    x 1.858270 0.000000 0.000000 
#    y 0.000000 1.858270 0.000000 
#    z 0.000000 0.000000 1.841200 
# 
# From -- ./inp_files/317.got.cif
#   From: 2010.03.12/outbox.cif.g09.slc.cpg/sg168_cif.got.tgz:317.got - 2010.04.02 06:45:48.
