data_PCOD8324636
_publ_section_title
;
Structure prediction by ZEFSAII (Michael W. Deem and Ramdas Pophale) SiO2 
 PCOD8324636
Probable space group: P 65
;
_chemical_formula_sum "Si O2"
_cell_formula_units_Z 36
_cell_length_a 12.534533
_cell_length_b 12.534533
_cell_length_c 13.481576
_cell_angle_alpha 90.000000
_cell_angle_beta 90.000000
_cell_angle_gamma 120.000000
_cell_volume 1834.372842
_symmetry_space_group_name_H-M "P 65"
_symmetry_group_IT_number 170
_symmetry_cell_setting 'hexagonal'
loop_
_space_group_symop_operation_xyz
x,y,z
x-y,x,5/6+z
-y,x-y,2/3+z
-x,-y,1/2+z
-x+y,-x,1/3+z
y,-x+y,1/6+z
loop_
_atom_site_type_symbol
_atom_site_label
_atom_site_fract_x
_atom_site_fract_y
_atom_site_fract_z
Si Si1 0.403872 0.659534 0.288200
Si Si2 0.845427 0.340743 0.798608
Si Si3 0.760868 0.608980 0.793414
Si Si4 0.886598 0.367354 0.577985
Si Si5 0.391252 0.271392 0.260663
Si Si6 0.106169 0.449466 0.443365
O O1 0.286976 0.676583 0.274696
O O2 0.364611 0.519357 0.319865
O O3 0.492735 0.753019 0.373088
O O4 0.467005 0.688350 0.180821
O O5 0.911718 0.351951 0.693358
O O6 0.831612 0.217165 0.851355
O O7 0.917733 0.460941 0.869652
O O8 0.733901 0.719986 0.769154
O O9 0.818342 0.576709 0.700623
O O10 0.857913 0.640391 0.882900
O O11 0.903809 0.501020 0.559289
O O12 0.987983 0.361051 0.509038
#
# Coordination Sequence:
#
# PCOD8324636 Si02
#       6
#     6   6   6   6   6   6
#     4  10  19  34  52  85 120 154 190 232 288 357
#     4  10  19  37  54  83 122 155 195 237 293 361
#     4  11  22  36  58  84 118 156 200 237 290 363
#     4  11  21  35  57  89 121 158 189 242 305 351
#     4  11  20  38  57  85 115 158 198 238 290 367
#     4  11  21  36  56  86 124 157 192 244 300 359
#
# _framework density 19.625236999999998
#
# number of rings (size 3 to 8) (size 9 to 14) (size 15 to 20)
#    0.000    1.333    6.667    2.000    2.333    0.000 
#    9.000    0.000    0.000    0.000    4.333    0.000 
#    0.000    0.000    0.000    0.000    0.000    0.000 
#
# Total GULP energy -446151.257135 kJ/mol
# GULP energy per Si atom -12393.090476 kJ/mol
# Density = 1.958057 g / cm^3
# Si number density = 19.625237 Si / 1000 Ang^3
#
#
#
# Elastic Constant Matrix: (Units=GPa)
#
#
# Indices 1 2 3 4 5 6 
#
# 1 60.2195 25.1341 30.3064 0.0000 0.0000 0.0000
# 2 25.1341 60.2195 30.3064 0.0000 0.0000 0.0000
# 3 30.3064 30.3064 134.3698 0.0000 0.0000 0.0000
# 4 0.0000 0.0000 0.0000 29.0365 0.0000 0.0000
# 5 0.0000 0.0000 0.0000 0.0000 29.0365 0.0000
# 6 0.0000 0.0000 0.0000 0.0000 0.0000 17.5427
#
#
#
# Elastic Compliance Matrix: (Units=1/GPa)
#
#
# Indices 1 2 3 4 5 6 
#
# 1 0.021226 -0.007276 -0.003146 0.000000 0.000000 0.000000
# 2 -0.007276 0.021226 -0.003146 0.000000 0.000000 0.000000
# 3 -0.003146 -0.003146 0.008861 0.000000 0.000000 0.000000
# 4 0.000000 0.000000 0.000000 0.034439 0.000000 0.000000
# 5 0.000000 0.000000 0.000000 0.000000 0.034439 0.000000
# 6 0.000000 0.000000 0.000000 0.000000 0.000000 0.057004
#
#
# Mechanical properties :
#
#
# Convention : Reuss Voigt Hill
#
# Bulk Modulus (GPa) = 41.36254 47.36696 44.36475
# Shear Modulus (GPa) = 23.54134 26.39395 24.96764
#
# Velocity S-wave (km/s) = 3.46720 3.67126 3.57069
# Velocity P-wave (km/s) = 6.09513 6.49300 6.29721
#
# Compressibility (1/GPa) = 0.02417646
#
# Stress axis : x y z
#
# Youngs Moduli (GPa) = 47.11178 47.11179 112.84816
#
# Poissons Ratio (x) = 0.34277 0.35507
# Poissons Ratio (y) = 0.34277 0.35507
# Poissons Ratio (z) = 0.14823 0.14823
#
# Static dielectric constant tensor:
#      x y z
#    x 3.352540 0.000000 0.000000 
#    y 0.000000 3.352540 0.000000 
#    z 0.000000 0.000000 3.824840 
# 
# 
# High freq. dielectric constant tensor:
#      x y z
#    x 1.721190 0.000000 0.000000 
#    y 0.000000 1.721190 0.000000 
#    z 0.000000 0.000000 1.785250 
# 
# From -- ./inp_files/894.got.cif
#   From: 2010.03.12/outbox.cif.g09.slc.cpg/sg170_cif.got.tgz:894.got - 2010.04.02 06:47:37.
