data_PCOD8324857
_publ_section_title
;
Structure prediction by ZEFSAII (Michael W. Deem and Ramdas Pophale) SiO2 
 PCOD8324857
Probable space group: P 63
;
_chemical_formula_sum "Si O2"
_cell_formula_units_Z 48
_cell_length_a 18.036914
_cell_length_b 18.036914
_cell_length_c 8.586644
_cell_angle_alpha 90.000000
_cell_angle_beta 90.000000
_cell_angle_gamma 120.000000
_cell_volume 2419.237793
_symmetry_space_group_name_H-M "P 63"
_symmetry_group_IT_number 173
_symmetry_cell_setting 'hexagonal'
loop_
_space_group_symop_operation_xyz
x,y,z
x-y,x,1/2+z
-y,x-y,z
-x,-y,1/2+z
-x+y,-x,z
y,-x+y,1/2+z
loop_
_atom_site_type_symbol
_atom_site_label
_atom_site_fract_x
_atom_site_fract_y
_atom_site_fract_z
Si Si1 0.810266 0.911311 0.270330
Si Si2 0.800174 0.613028 0.766316
Si Si3 0.911311 0.101045 0.402419
Si Si4 0.908026 0.542666 0.263507
Si Si5 0.087504 0.621692 0.407935
Si Si6 0.542662 0.634637 0.409243
Si Si7 0.187143 0.800171 0.906436
Si Si8 0.912496 0.378312 0.264818
O O1 0.711374 0.864321 0.322476
O O2 0.852138 0.857644 0.332994
O O3 0.857626 0.005507 0.339756
O O4 0.819999 0.917232 0.086375
O O5 0.716990 0.555859 0.869914
O O6 0.861553 0.573901 0.790646
O O7 0.774645 0.605831 0.586377
O O8 0.864335 0.152962 0.350274
O O9 0.861555 0.573908 0.382100
O O10 0.875781 0.442607 0.293453
O O11 0.009035 0.598299 0.293518
O O12 0.890341 0.558842 0.086374
O O13 0.124221 0.557398 0.379300
O O14 0.057240 0.614746 0.586377
O O15 0.598295 0.589261 0.379234
O O16 0.161132 0.716985 0.802845
#
# Coordination Sequence:
#
# PCOD8324857 Si02
#       8
#     6   6   6   6   6   6   6   6
#     4  11  24  40  59  85 118 156 196 241 291 344
#     4  11  23  38  60  89 117 152 197 243 292 350
#     4  11  24  40  59  85 118 156 196 241 291 344
#     4  10  21  38  60  85 115 152 191 237 291 348
#     4  10  21  38  60  85 115 152 191 237 291 348
#     4  10  21  38  60  85 115 152 191 237 291 348
#     4  11  23  38  60  89 117 152 197 243 292 350
#     4  10  21  38  60  85 115 152 191 237 291 348
#
# _framework density 19.840961
#
# number of rings (size 3 to 8) (size 9 to 14) (size 15 to 20)
#    0.000    1.500    0.000    4.750    0.000   11.000 
#    1.500    0.000    0.000    0.000    0.000    0.000 
#    0.000    0.000    0.000    0.000    0.000    0.000 
#
# Total GULP energy -595471.352222 kJ/mol
# GULP energy per Si atom -12405.653171 kJ/mol
# Density = 1.979580 g / cm^3
# Si number density = 19.840961 Si / 1000 Ang^3
#
#
#
# Elastic Constant Matrix: (Units=GPa)
#
#
# Indices 1 2 3 4 5 6 
#
# 1 96.3353 53.6337 38.8931 0.0000 0.0000 0.0000
# 2 53.6337 96.3353 38.8931 0.0000 0.0000 0.0000
# 3 38.8931 38.8931 69.0514 0.0000 0.0000 0.0000
# 4 0.0000 0.0000 0.0000 30.6927 0.0000 0.0000
# 5 0.0000 0.0000 0.0000 0.0000 30.6927 0.0000
# 6 0.0000 0.0000 0.0000 0.0000 0.0000 21.3508
#
#
#
# Elastic Compliance Matrix: (Units=1/GPa)
#
#
# Indices 1 2 3 4 5 6 
#
# 1 0.016419 -0.006999 -0.005306 0.000000 0.000000 0.000000
# 2 -0.006999 0.016419 -0.005306 0.000000 0.000000 0.000000
# 3 -0.005306 -0.005306 0.020459 0.000000 0.000000 0.000000
# 4 0.000000 0.000000 0.000000 0.032581 0.000000 0.000000
# 5 0.000000 0.000000 0.000000 0.000000 0.032581 0.000000
# 6 0.000000 0.000000 0.000000 0.000000 0.000000 0.046837
#
#
# Mechanical properties :
#
#
# Convention : Reuss Voigt Hill
#
# Bulk Modulus (GPa) = 55.32267 58.28462 56.80365
# Shear Modulus (GPa) = 24.20803 25.23404 24.72103
#
# Velocity S-wave (km/s) = 3.49679 3.57012 3.53364
# Velocity P-wave (km/s) = 6.65184 6.81425 6.73353
#
# Compressibility (1/GPa) = 0.01807577
#
# Stress axis : x y z
#
# Youngs Moduli (GPa) = 60.90430 60.90430 48.87831
#
# Poissons Ratio (x) = 0.42628 0.25934
# Poissons Ratio (y) = 0.42628 0.25934
# Poissons Ratio (z) = 0.32315 0.32315
#
# Static dielectric constant tensor:
#      x y z
#    x 3.641700 0.000000 0.000000 
#    y 0.000000 3.641700 0.000000 
#    z 0.000000 0.000000 3.679180 
# 
# 
# High freq. dielectric constant tensor:
#      x y z
#    x 1.776560 0.000000 0.000000 
#    y 0.000000 1.776560 0.000000 
#    z 0.000000 0.000000 1.786040 
# 
# From -- ./inp_files/674.got.cif
#   From: 2010.03.12/outbox.cif.g09.slc.cpg/sg173_cif.got.tgz:674.got - 2010.04.02 06:54:12.
