data_PCOD8324351
_publ_section_title
;
Structure prediction by ZEFSAII (Michael W. Deem and Ramdas Pophale) SiO2 
 PCOD8324351
Probable space group: R -3 C 
;
_chemical_formula_sum "Si O2"
_cell_formula_units_Z 126
_cell_length_a 19.821582
_cell_length_b 19.821582
_cell_length_c 17.411403
_cell_angle_alpha 90.000000
_cell_angle_beta 90.000000
_cell_angle_gamma 120.000000
_cell_volume 5924.354343
_symmetry_space_group_name_H-M "R -3 C "
_symmetry_group_IT_number 167
_symmetry_cell_setting 'hexagonal'
loop_
_space_group_symop_operation_xyz
x,y,z
-y,x-y,z
-x+y,-x,z
x-y,-y,1/2-z
-x,-x+y,1/2-z
y,x,1/2-z
-x,-y,-z
y,-x+y,-z
x-y,x,-z
-x+y,y,1/2+z
x,x-y,1/2+z
-y,-x,1/2+z
2/3+x,1/3+y,1/3+z
2/3-y,1/3+x-y,1/3+z
2/3-x+y,1/3-x,1/3+z
2/3+x-y,1/3-y,5/6-z
2/3-x,1/3-x+y,5/6-z
2/3+y,1/3+x,5/6-z
2/3-x,1/3-y,1/3-z
2/3+y,1/3-x+y,1/3-z
2/3+x-y,1/3+x,1/3-z
2/3-x+y,1/3+y,5/6+z
2/3+x,1/3+x-y,5/6+z
2/3-y,1/3-x,5/6+z
1/3+x,2/3+y,2/3+z
1/3-y,2/3+x-y,2/3+z
1/3-x+y,2/3-x,2/3+z
1/3+x-y,2/3-y,1/6-z
1/3-x,2/3-x+y,1/6-z
1/3+y,2/3+x,1/6-z
1/3-x,2/3-y,2/3-z
1/3+y,2/3-x+y,2/3-z
1/3+x-y,2/3+x,2/3-z
1/3-x+y,2/3+y,1/6+z
1/3+x,2/3+x-y,1/6+z
1/3-y,2/3-x,1/6+z
loop_
_atom_site_type_symbol
_atom_site_label
_atom_site_fract_x
_atom_site_fract_y
_atom_site_fract_z
Si Si1 0.964255 0.718672 0.514129
Si Si2 0.771091 0.027756 0.833078
Si Si3 0.778616 0.838827 0.633693
Si Si4 0.000000 0.912009 0.250000
O O1 0.955992 0.778545 0.457350
O O2 0.904113 0.627148 0.503682
O O3 0.958584 0.739495 0.603034
O O4 0.049859 0.732551 0.496318
O O5 0.854076 0.091662 0.860641
O O6 0.780624 0.000000 0.750000
O O7 0.861336 0.863367 0.675357
O O8 0.923546 0.923546 0.250000
#
# Coordination Sequence:
#
# PCOD8324351 Si02
#       4
#    36  36  36  18
#     4  10  21  40  67 100 134 165 216 282 351 396
#     4  11  22  40  65 101 126 167 225 273 337 400
#     4  11  22  43  65  93 134 176 216 278 327 400
#     4  10  24  46  62  94 138 184 238 262 324 414
#
# _framework density 21.268141
#
# number of rings (size 3 to 8) (size 9 to 14) (size 15 to 20)
#    0.286    1.143    2.857    6.000    0.000    1.143 
#   15.429    0.000    0.000    1.714    0.000    0.000 
#    0.000    0.000    0.000    0.000    0.000    0.000 
#
# Total GULP energy -520423.105856 kJ/mol
# GULP energy per Si atom -12391.026330 kJ/mol
# Density = 2.121973 g / cm^3
# Si number density = 21.268141 Si / 1000 Ang^3
#
#
#
# Elastic Constant Matrix: (Units=GPa)
#
#
# Indices 1 2 3 4 5 6 
#
# 1 76.4789 47.4085 62.0810 -17.8004 0.0000 0.0000
# 2 47.4085 76.4789 62.0810 17.8004 0.0000 0.0000
# 3 62.0810 62.0810 220.9609 0.0000 0.0000 0.0000
# 4 -17.8004 17.8004 0.0000 13.1124 0.0000 0.0000
# 5 0.0000 0.0000 0.0000 0.0000 13.1124 -17.8004
# 6 0.0000 0.0000 0.0000 0.0000 -17.8004 14.5352
#
#
#
# Elastic Compliance Matrix: (Units=1/GPa)
#
#
# Indices 1 2 3 4 5 6 
#
# 1 -0.020345 0.031580 -0.003157 -0.070490 0.000000 0.000000
# 2 0.031580 -0.020345 -0.003157 0.070490 0.000000 0.000000
# 3 -0.003157 -0.003157 0.006300 0.000000 0.000000 0.000000
# 4 -0.070490 0.070490 0.000000 -0.115119 0.000000 0.000000
# 5 0.000000 0.000000 0.000000 0.000000 -0.115119 -0.140979
# 6 0.000000 0.000000 0.000000 0.000000 -0.140979 -0.103850
#
#
# Mechanical properties :
#
#
# Convention : Reuss Voigt Hill
#
# Bulk Modulus (GPa) = 61.94357 79.67330 70.80844
# Shear Modulus (GPa) = -12.08807 21.64187 4.77690
#
# Velocity S-wave (km/s) = -2.38663 3.19340 1.50030
# Velocity P-wave (km/s) = 4.64689 7.15121 6.03048
#
# Compressibility (1/GPa) = 0.01614373
#
# Stress axis : x y z
#
# Youngs Moduli (GPa) = -49.15250 -49.15250 158.74221
#
# Poissons Ratio (x) = 1.55226 0.50111
# Poissons Ratio (y) = 1.55226 0.50111
# Poissons Ratio (z) = -0.15516 -0.15516
#
# Static dielectric constant tensor:
#      x y z
#    x 3.944860 0.000000 0.000000 
#    y 0.000000 3.944860 0.000000 
#    z 0.000000 0.000000 4.380510 
# 
# 
# High freq. dielectric constant tensor:
#      x y z
#    x 1.822740 0.000000 0.000000 
#    y 0.000000 1.822740 0.000000 
#    z 0.000000 0.000000 1.845650 
# 
# From -- ./inp_files/3099.got.cif
#   From: 2010.03.12/outbox.cif.g09.slc.cpg/sg167_2_cif.got.tgz:3099.got - 2010.04.02 06:42:56.
