data_PCOD8324016
_publ_section_title
;
Structure prediction by ZEFSAII (Michael W. Deem and Ramdas Pophale) SiO2 
 PCOD8324016
Probable space group: R -3 M
;
_chemical_formula_sum "Si O2"
_cell_formula_units_Z 108
_cell_length_a 24.920088
_cell_length_b 24.920088
_cell_length_c 11.098372
_cell_angle_alpha 90.000000
_cell_angle_beta 90.000000
_cell_angle_gamma 120.000000
_cell_volume 5968.827838
_symmetry_space_group_name_H-M "R -3 M"
_symmetry_group_IT_number 166
_symmetry_cell_setting 'hexagonal'
loop_
_space_group_symop_operation_xyz
x,y,z
-y,x-y,z
-x+y,-x,z
x-y,-y,-z
-x,-x+y,-z
y,x,-z
-x,-y,-z
y,-x+y,-z
x-y,x,-z
-x+y,y,z
x,x-y,z
-y,-x,z
2/3+x,1/3+y,1/3+z
2/3-y,1/3+x-y,1/3+z
2/3-x+y,1/3-x,1/3+z
2/3+x-y,1/3-y,1/3-z
2/3-x,1/3-x+y,1/3-z
2/3+y,1/3+x,1/3-z
2/3-x,1/3-y,1/3-z
2/3+y,1/3-x+y,1/3-z
2/3+x-y,1/3+x,1/3-z
2/3-x+y,1/3+y,1/3+z
2/3+x,1/3+x-y,1/3+z
2/3-y,1/3-x,1/3+z
1/3+x,2/3+y,2/3+z
1/3-y,2/3+x-y,2/3+z
1/3-x+y,2/3-x,2/3+z
1/3+x-y,2/3-y,2/3-z
1/3-x,2/3-x+y,2/3-z
1/3+y,2/3+x,2/3-z
1/3-x,2/3-y,2/3-z
1/3+y,2/3-x+y,2/3-z
1/3+x-y,2/3+x,2/3-z
1/3-x+y,2/3+y,2/3+z
1/3+x,2/3+x-y,2/3+z
1/3-y,2/3-x,2/3+z
loop_
_atom_site_type_symbol
_atom_site_label
_atom_site_fract_x
_atom_site_fract_y
_atom_site_fract_z
Si Si1 0.705052 0.771864 0.000587
Si Si2 0.939695 0.177261 0.241864
Si Si3 0.270283 0.194796 0.728809
O O1 0.756682 0.816365 0.903091
O O2 0.638667 0.759475 0.964617
O O3 0.707933 0.707933 0.000000
O O4 0.720789 0.804413 0.128764
O O5 0.896274 0.103727 0.274473
O O6 0.008723 0.209417 0.298926
O O7 0.256800 0.128400 0.678042
O O8 0.333334 0.249207 0.666667
#
# Coordination Sequence:
#
# PCOD8324016 Si02
#       3
#    36  36  36
#     4   9  17  30  47  68  92 118 148 181 221 270
#     4  10  18  29  47  67  89 119 153 186 220 268
#     4  10  20  32  46  66  93 121 150 189 234 275
#
# _framework density 18.094004000000002
#
# number of rings (size 3 to 8) (size 9 to 14) (size 15 to 20)
#    0.000    2.333    0.000    5.000    0.000    4.000 
#    0.000    0.000    0.000    0.667    0.000    0.000 
#    0.000    8.000    0.000   10.667    0.000    0.000 
#
# Total GULP energy -445970.503682 kJ/mol
# GULP energy per Si atom -12388.069547 kJ/mol
# Density = 1.805282 g / cm^3
# Si number density = 18.094004 Si / 1000 Ang^3
#
#
#
# Elastic Constant Matrix: (Units=GPa)
#
#
# Indices 1 2 3 4 5 6 
#
# 1 111.9592 57.9414 21.7498 2.0736 0.0000 -0.0001
# 2 57.9414 111.9593 21.7496 -2.0738 0.0000 0.0000
# 3 21.7498 21.7496 26.9117 0.0000 0.0029 -0.0002
# 4 2.0736 -2.0738 0.0000 13.6371 -0.0001 -0.0004
# 5 0.0000 0.0000 0.0029 -0.0001 13.6385 2.0739
# 6 -0.0001 0.0000 -0.0002 -0.0004 2.0739 27.0086
#
#
#
# Elastic Compliance Matrix: (Units=1/GPa)
#
#
# Indices 1 2 3 4 5 6 
#
# 1 0.013076 -0.005655 -0.005998 -0.002848 0.000001 0.000000
# 2 -0.005655 0.013076 -0.005998 0.002848 0.000001 0.000000
# 3 -0.005998 -0.005998 0.046853 0.000000 -0.000010 0.000001
# 4 -0.002848 0.002848 0.000000 0.074196 0.000000 0.000001
# 5 0.000001 0.000001 -0.000010 0.000000 0.074188 -0.005697
# 6 0.000000 0.000000 0.000001 0.000001 -0.005697 0.037463
#
#
# Mechanical properties :
#
#
# Convention : Reuss Voigt Hill
#
# Bulk Modulus (GPa) = 26.52193 50.41244 38.46719
# Shear Modulus (GPa) = 16.30141 20.81613 18.55877
#
# Velocity S-wave (km/s) = 3.00480 3.39550 3.20611
# Velocity P-wave (km/s) = 5.16993 6.57985 5.91703
#
# Compressibility (1/GPa) = 0.03770465
#
# Stress axis : x y z
#
# Youngs Moduli (GPa) = 76.47422 76.47456 21.34314
#
# Poissons Ratio (x) = 0.43245 0.12802
# Poissons Ratio (y) = 0.43245 0.12801
# Poissons Ratio (z) = 0.45869 0.45868
#
# Static dielectric constant tensor:
#      x y z
#    x 3.359010 0.000000 0.000000 
#    y 0.000000 3.359010 0.000000 
#    z 0.000000 0.000000 3.415380 
# 
# 
# High freq. dielectric constant tensor:
#      x y z
#    x 1.675580 0.000000 0.000000 
#    y 0.000000 1.675590 0.000000 
#    z 0.000000 0.000000 1.700080 
# 
# From -- ./inp_files/2551.got.cif
#   From: 2010.03.12/outbox.cif.g09.slc.cpg/sg166_2_cif.got.tgz:2551.got - 2010.04.02 06:38:31.
