data_PCOD8324139
_publ_section_title
;
Structure prediction by ZEFSAII (Michael W. Deem and Ramdas Pophale) SiO2 
 PCOD8324139
Probable space group: R -3 M
;
_chemical_formula_sum "Si O2"
_cell_formula_units_Z 108
_cell_length_a 12.953290
_cell_length_b 12.953290
_cell_length_c 45.159488
_cell_angle_alpha 90.000000
_cell_angle_beta 90.000000
_cell_angle_gamma 120.000000
_cell_volume 6562.054280
_symmetry_space_group_name_H-M "R -3 M"
_symmetry_group_IT_number 166
_symmetry_cell_setting 'hexagonal'
loop_
_space_group_symop_operation_xyz
x,y,z
-y,x-y,z
-x+y,-x,z
x-y,-y,-z
-x,-x+y,-z
y,x,-z
-x,-y,-z
y,-x+y,-z
x-y,x,-z
-x+y,y,z
x,x-y,z
-y,-x,z
2/3+x,1/3+y,1/3+z
2/3-y,1/3+x-y,1/3+z
2/3-x+y,1/3-x,1/3+z
2/3+x-y,1/3-y,1/3-z
2/3-x,1/3-x+y,1/3-z
2/3+y,1/3+x,1/3-z
2/3-x,1/3-y,1/3-z
2/3+y,1/3-x+y,1/3-z
2/3+x-y,1/3+x,1/3-z
2/3-x+y,1/3+y,1/3+z
2/3+x,1/3+x-y,1/3+z
2/3-y,1/3-x,1/3+z
1/3+x,2/3+y,2/3+z
1/3-y,2/3+x-y,2/3+z
1/3-x+y,2/3-x,2/3+z
1/3+x-y,2/3-y,2/3-z
1/3-x,2/3-x+y,2/3-z
1/3+y,2/3+x,2/3-z
1/3-x,2/3-y,2/3-z
1/3+y,2/3-x+y,2/3-z
1/3+x-y,2/3+x,2/3-z
1/3-x+y,2/3+y,2/3+z
1/3+x,2/3+x-y,2/3+z
1/3-y,2/3-x,2/3+z
loop_
_atom_site_type_symbol
_atom_site_label
_atom_site_fract_x
_atom_site_fract_y
_atom_site_fract_z
Si Si1 0.332721 0.428601 0.242897
Si Si2 0.333782 0.904195 0.023442
Si Si3 0.241723 0.241390 0.140316
O O1 0.207865 0.415729 0.232517
O O2 0.432355 0.567646 0.240600
O O3 0.324201 0.381942 0.276403
O O4 0.365548 0.347756 0.222701
O O5 0.435354 0.870708 0.017653
O O6 0.209989 0.790012 0.016965
O O7 0.341689 0.000000 0.000000
O O8 0.118031 0.236061 0.147876
O O9 0.333334 0.307740 0.166667
O O10 0.216460 0.108230 0.135513
#
# Coordination Sequence:
#
# PCOD8324139 Si02
#       3
#    36  36  36
#     4   9  17  30  48  69  91 116 148 186 226 264
#     4   9  17  29  46  67  91 119 150 185 223 263
#     4  10  20  33  49  68  91 119 149 182 220 264
#
# _framework density 16.458259999999999
#
# number of rings (size 3 to 8) (size 9 to 14) (size 15 to 20)
#    0.000    2.667    0.000    2.000    0.000    4.000 
#    0.000    0.000    0.000    6.333    0.000    0.000 
#    0.000    0.000    0.000    0.000    0.000    0.000 
#
# Total GULP energy -446407.484196 kJ/mol
# GULP energy per Si atom -12400.207894 kJ/mol
# Density = 1.642080 g / cm^3
# Si number density = 16.458260 Si / 1000 Ang^3
#
#
#
# Elastic Constant Matrix: (Units=GPa)
#
#
# Indices 1 2 3 4 5 6 
#
# 1 105.3469 64.9942 65.1685 0.6831 -0.0006 0.0000
# 2 64.9942 105.3469 65.1685 -0.6831 0.0006 0.0000
# 3 65.1685 65.1685 105.3866 0.0000 0.0000 0.0000
# 4 0.6831 -0.6831 0.0000 28.0518 0.0000 0.0006
# 5 -0.0006 0.0006 0.0000 0.0000 28.0518 0.6831
# 6 0.0000 0.0000 0.0000 0.0006 0.6831 20.1763
#
#
#
# Elastic Compliance Matrix: (Units=1/GPa)
#
#
# Indices 1 2 3 4 5 6 
#
# 1 0.017972 -0.006830 -0.006890 -0.000604 0.000001 0.000000
# 2 -0.006830 0.017972 -0.006890 0.000604 -0.000001 0.000000
# 3 -0.006890 -0.006890 0.018011 0.000000 0.000000 0.000000
# 4 -0.000604 0.000604 0.000000 0.035678 0.000000 -0.000001
# 5 0.000001 -0.000001 0.000000 0.000000 0.035678 -0.001208
# 6 0.000000 0.000000 0.000000 -0.000001 -0.001208 0.049604
#
#
# Mechanical properties :
#
#
# Convention : Reuss Voigt Hill
#
# Bulk Modulus (GPa) = 78.52688 78.52697 78.52692
# Shear Modulus (GPa) = 22.68803 23.30593 22.99698
#
# Velocity S-wave (km/s) = 3.71687 3.76714 3.74209
# Velocity P-wave (km/s) = 8.13858 8.16935 8.15398
#
# Compressibility (1/GPa) = 0.01273449
#
# Stress axis : x y z
#
# Youngs Moduli (GPa) = 55.64095 55.64095 55.52277
#
# Poissons Ratio (x) = 0.38000 0.38258
# Poissons Ratio (y) = 0.38000 0.38258
# Poissons Ratio (z) = 0.38339 0.38339
#
# Static dielectric constant tensor:
#      x y z
#    x 3.036110 0.000000 0.000000 
#    y 0.000000 3.036110 0.000000 
#    z 0.000000 0.000000 3.240990 
# 
# 
# High freq. dielectric constant tensor:
#      x y z
#    x 1.630280 0.000000 0.000000 
#    y 0.000000 1.630280 0.000000 
#    z 0.000000 0.000000 1.641360 
# 
# From -- ./inp_files/10085.got.cif
#   From: 2010.03.12/outbox.cif.g09.slc.cpg/sg166_6_cif.got.tgz:10085.got - 2010.04.02 06:38:31.
