data_PCOD8324532
_publ_section_title
;
Structure prediction by ZEFSAII (Michael W. Deem and Ramdas Pophale) SiO2 
 PCOD8324532
Probable space group: P 61
;
_chemical_formula_sum "Si O2"
_cell_formula_units_Z 42
_cell_length_a 14.179431
_cell_length_b 14.179431
_cell_length_c 10.300315
_cell_angle_alpha 90.000000
_cell_angle_beta 90.000000
_cell_angle_gamma 120.000000
_cell_volume 1793.489115
_symmetry_space_group_name_H-M "P 61"
_symmetry_group_IT_number 169
_symmetry_cell_setting 'hexagonal'
loop_
_space_group_symop_operation_xyz
x,y,z
x-y,x,1/6+z
-y,x-y,1/3+z
-x,-y,1/2+z
-x+y,-x,2/3+z
y,-x+y,5/6+z
loop_
_atom_site_type_symbol
_atom_site_label
_atom_site_fract_x
_atom_site_fract_y
_atom_site_fract_z
Si Si1 0.360949 0.176989 0.987350
Si Si2 0.342669 0.286275 0.234555
Si Si3 0.508120 0.976680 0.019704
Si Si4 0.210401 0.090450 0.410866
Si Si5 0.326471 0.254793 0.728151
Si Si6 0.163402 0.620125 0.686030
Si Si7 0.483649 0.214054 0.579720
O O1 0.298348 0.183982 0.859244
O O2 0.480900 0.203195 0.948430
O O3 0.375550 0.263880 0.094194
O O4 0.290768 0.058310 0.051151
O O5 0.448078 0.402807 0.275302
O O6 0.316461 0.192012 0.340970
O O7 0.514376 0.869510 0.973808
O O8 0.623671 0.050023 0.095389
O O9 0.509019 0.039730 0.889261
O O10 0.135953 0.133676 0.475332
O O11 0.254703 0.036420 0.515036
O O12 0.368332 0.208404 0.609251
O O13 0.247328 0.578288 0.707348
O O14 0.166174 0.654162 0.539494
#
# Coordination Sequence:
#
# PCOD8324532 Si02
#       7
#     6   6   6   6   6   6   6
#     4  10  23  44  71  96 135 181 227 282 347 415
#     4  11  24  45  68  99 142 179 225 285 352 416
#     4  10  23  40  67  99 129 178 214 278 342 395
#     4  12  27  47  68 103 141 183 237 290 344 412
#     4  10  24  45  72 100 134 180 239 285 342 412
#     4   9  22  41  61  99 132 171 230 270 336 413
#     4  10  21  42  65  98 139 172 228 284 333 411
#
# _framework density 23.418040000000001
#
# number of rings (size 3 to 8) (size 9 to 14) (size 15 to 20)
#    0.000    1.714    1.429    0.857   10.000    4.571 
#    0.000    0.000    0.000    0.000    0.000    0.000 
#    0.000    0.000    0.000    0.000    0.000    0.000 
#
# Total GULP energy -520560.918064 kJ/mol
# GULP energy per Si atom -12394.307573 kJ/mol
# Density = 2.336474 g / cm^3
# Si number density = 23.418040 Si / 1000 Ang^3
#
#
#
# Elastic Constant Matrix: (Units=GPa)
#
#
# Indices 1 2 3 4 5 6 
#
# 1 133.0851 47.0138 14.6138 0.0000 0.0000 0.0000
# 2 47.0138 133.0851 14.6138 0.0000 0.0000 0.0000
# 3 14.6138 14.6138 28.7912 0.0000 0.0000 0.0000
# 4 0.0000 0.0000 0.0000 32.2721 0.0000 0.0000
# 5 0.0000 0.0000 0.0000 0.0000 32.2721 0.0000
# 6 0.0000 0.0000 0.0000 0.0000 0.0000 43.0357
#
#
#
# Elastic Compliance Matrix: (Units=1/GPa)
#
#
# Indices 1 2 3 4 5 6 
#
# 1 0.008835 -0.002784 -0.003071 0.000000 0.000000 0.000000
# 2 -0.002784 0.008835 -0.003071 0.000000 0.000000 0.000000
# 3 -0.003071 -0.003071 0.037851 0.000000 0.000000 0.000000
# 4 0.000000 0.000000 0.000000 0.030987 0.000000 0.000000
# 5 0.000000 0.000000 0.000000 0.000000 0.030987 0.000000
# 6 0.000000 0.000000 0.000000 0.000000 0.000000 0.023237
#
#
# Mechanical properties :
#
#
# Convention : Reuss Voigt Hill
#
# Bulk Modulus (GPa) = 26.54826 49.71600 38.13213
# Shear Modulus (GPa) = 29.21622 36.09730 32.65676
#
# Velocity S-wave (km/s) = 3.53596 3.93037 3.73837
# Velocity P-wave (km/s) = 5.29452 6.47093 5.91206
#
# Compressibility (1/GPa) = 0.03766725
#
# Stress axis : x y z
#
# Youngs Moduli (GPa) = 113.19128 113.19128 26.41964
#
# Poissons Ratio (x) = 0.31509 0.08114
# Poissons Ratio (y) = 0.31509 0.08114
# Poissons Ratio (z) = 0.34765 0.34765
#
# Static dielectric constant tensor:
#      x y z
#    x 4.405700 0.000000 0.000000 
#    y 0.000000 4.405700 0.000000 
#    z 0.000000 0.000000 3.951260 
# 
# 
# High freq. dielectric constant tensor:
#      x y z
#    x 1.938390 0.000000 0.000000 
#    y 0.000000 1.938390 0.000000 
#    z 0.000000 0.000000 1.909050 
# 
# From -- ./inp_files/953.got.cif
#   From: 2010.03.12/outbox.cif.g09.slc.cpg/sg169_cif.got.tgz:953.got - 2010.04.02 06:46:06.
