data_PCOD8324576
_publ_section_title
;
Structure prediction by ZEFSAII (Michael W. Deem and Ramdas Pophale) SiO2 
 PCOD8324576
Probable space group: P 61
;
_chemical_formula_sum "Si O2"
_cell_formula_units_Z 24
_cell_length_a 15.079772
_cell_length_b 15.079772
_cell_length_c 4.894081
_cell_angle_alpha 90.000000
_cell_angle_beta 90.000000
_cell_angle_gamma 120.000000
_cell_volume 963.809794
_symmetry_space_group_name_H-M "P 61"
_symmetry_group_IT_number 169
_symmetry_cell_setting 'hexagonal'
loop_
_space_group_symop_operation_xyz
x,y,z
x-y,x,1/6+z
-y,x-y,1/3+z
-x,-y,1/2+z
-x+y,-x,2/3+z
y,-x+y,5/6+z
loop_
_atom_site_type_symbol
_atom_site_label
_atom_site_fract_x
_atom_site_fract_y
_atom_site_fract_z
Si Si1 0.443241 0.500588 0.022380
Si Si2 0.880557 0.241314 0.874329
Si Si3 0.227202 0.074098 0.040127
Si Si4 0.253581 0.564904 0.590397
O O1 0.462437 0.457302 0.304560
O O2 0.423465 0.593538 0.110790
O O3 0.349917 0.408090 0.860681
O O4 0.865841 0.159793 0.107680
O O5 0.771993 0.218024 0.745075
O O6 0.939933 0.232955 0.613015
O O7 0.175832 0.137808 0.139747
O O8 0.252761 0.624059 0.319356
#
# Coordination Sequence:
#
# PCOD8324576 Si02
#       4
#     6   6   6   6
#     4  11  26  44  72 106 153 196 253 308 366 435
#     4  11  27  47  76 112 146 196 249 303 379 445
#     4  12  29  52  79 110 149 194 252 324 393 458
#     4  10  26  45  71 104 156 206 248 301 370 448
#
# _framework density 24.901176
#
# number of rings (size 3 to 8) (size 9 to 14) (size 15 to 20)
#    0.000    1.000    0.000    3.000   24.500    2.000 
#    0.000    0.000    0.000    0.000    0.000    0.000 
#    0.000    0.000    0.000    0.000    0.000    0.000 
#
# Total GULP energy -297350.252598 kJ/mol
# GULP energy per Si atom -12389.593858 kJ/mol
# Density = 2.484450 g / cm^3
# Si number density = 24.901176 Si / 1000 Ang^3
#
#
#
# Elastic Constant Matrix: (Units=GPa)
#
#
# Indices 1 2 3 4 5 6 
#
# 1 94.4664 47.9745 19.0922 0.0000 0.0000 0.0000
# 2 47.9745 94.4664 19.0922 0.0000 0.0000 0.0000
# 3 19.0922 19.0922 105.6856 0.0000 0.0000 0.0000
# 4 0.0000 0.0000 0.0000 35.9484 0.0000 0.0000
# 5 0.0000 0.0000 0.0000 0.0000 35.9484 0.0000
# 6 0.0000 0.0000 0.0000 0.0000 0.0000 23.2460
#
#
#
# Elastic Compliance Matrix: (Units=1/GPa)
#
#
# Indices 1 2 3 4 5 6 
#
# 1 0.014443 -0.007066 -0.001333 0.000000 0.000000 0.000000
# 2 -0.007066 0.014443 -0.001333 0.000000 0.000000 0.000000
# 3 -0.001333 -0.001333 0.009944 0.000000 0.000000 0.000000
# 4 0.000000 0.000000 0.000000 0.027818 0.000000 0.000000
# 5 0.000000 0.000000 0.000000 0.000000 0.027818 0.000000
# 6 0.000000 0.000000 0.000000 0.000000 0.000000 0.043018
#
#
# Mechanical properties :
#
#
# Convention : Reuss Voigt Hill
#
# Bulk Modulus (GPa) = 51.63195 51.88184 51.75689
# Shear Modulus (GPa) = 30.59928 32.92584 31.76256
#
# Velocity S-wave (km/s) = 3.50927 3.64023 3.57535
# Velocity P-wave (km/s) = 6.09916 6.20876 6.15420
#
# Compressibility (1/GPa) = 0.01936785
#
# Stress axis : x y z
#
# Youngs Moduli (GPa) = 69.23564 69.23564 100.56748
#
# Poissons Ratio (x) = 0.48920 0.13404
# Poissons Ratio (y) = 0.48920 0.13404
# Poissons Ratio (z) = 0.09228 0.09228
#
# Static dielectric constant tensor:
#      x y z
#    x 4.638270 0.000000 0.000000 
#    y 0.000000 4.638270 0.000000 
#    z 0.000000 0.000000 4.539560 
# 
# 
# High freq. dielectric constant tensor:
#      x y z
#    x 1.995250 0.000000 0.000000 
#    y 0.000000 1.995250 0.000000 
#    z 0.000000 0.000000 1.991330 
# 
# From -- ./inp_files/54.got.cif
#   From: 2010.03.12/outbox.cif.g09.slc.cpg/sg169_cif.got.tgz:54.got - 2010.04.02 06:46:06.
