data_PCOD8324402
_publ_section_title
;
Structure prediction by ZEFSAII (Michael W. Deem and Ramdas Pophale) SiO2 
 PCOD8324402
Probable space group: R -3 C 
;
_chemical_formula_sum "Si O2"
_cell_formula_units_Z 144
_cell_length_a 21.397925
_cell_length_b 21.397925
_cell_length_c 19.808868
_cell_angle_alpha 90.000000
_cell_angle_beta 90.000000
_cell_angle_gamma 120.000000
_cell_volume 7854.772512
_symmetry_space_group_name_H-M "R -3 C "
_symmetry_group_IT_number 167
_symmetry_cell_setting 'hexagonal'
loop_
_space_group_symop_operation_xyz
x,y,z
-y,x-y,z
-x+y,-x,z
x-y,-y,1/2-z
-x,-x+y,1/2-z
y,x,1/2-z
-x,-y,-z
y,-x+y,-z
x-y,x,-z
-x+y,y,1/2+z
x,x-y,1/2+z
-y,-x,1/2+z
2/3+x,1/3+y,1/3+z
2/3-y,1/3+x-y,1/3+z
2/3-x+y,1/3-x,1/3+z
2/3+x-y,1/3-y,5/6-z
2/3-x,1/3-x+y,5/6-z
2/3+y,1/3+x,5/6-z
2/3-x,1/3-y,1/3-z
2/3+y,1/3-x+y,1/3-z
2/3+x-y,1/3+x,1/3-z
2/3-x+y,1/3+y,5/6+z
2/3+x,1/3+x-y,5/6+z
2/3-y,1/3-x,5/6+z
1/3+x,2/3+y,2/3+z
1/3-y,2/3+x-y,2/3+z
1/3-x+y,2/3-x,2/3+z
1/3+x-y,2/3-y,1/6-z
1/3-x,2/3-x+y,1/6-z
1/3+y,2/3+x,1/6-z
1/3-x,2/3-y,2/3-z
1/3+y,2/3-x+y,2/3-z
1/3+x-y,2/3+x,2/3-z
1/3-x+y,2/3+y,1/6+z
1/3+x,2/3+x-y,1/6+z
1/3-y,2/3-x,1/6+z
loop_
_atom_site_type_symbol
_atom_site_label
_atom_site_fract_x
_atom_site_fract_y
_atom_site_fract_z
Si Si1 0.913959 0.717684 0.857628
Si Si2 0.584794 0.715854 0.476227
Si Si3 0.405614 0.944807 0.059854
Si Si4 0.624584 0.741870 0.264552
O O1 0.862187 0.666667 0.916667
O O2 0.876520 0.758918 0.822917
O O3 0.923994 0.666188 0.803592
O O4 0.990421 0.777848 0.888524
O O5 0.529392 0.666667 0.416667
O O6 0.665579 0.741871 0.449724
O O7 0.570946 0.672059 0.546235
O O8 0.462102 0.918209 0.079601
O O9 0.427881 0.981489 0.987419
#
# Coordination Sequence:
#
# PCOD8324402 Si02
#       4
#    36  36  36  36
#     4  11  21  30  49  77 103 136 175 214 261 315
#     4   9  19  34  50  72 103 135 171 215 262 310
#     4   9  18  32  50  74 100 132 172 208 257 313
#     4   9  18  32  49  69 101 136 164 210 261 305
#
# _framework density 18.332802000000001
#
# number of rings (size 3 to 8) (size 9 to 14) (size 15 to 20)
#    0.000    2.500    0.000    4.500    0.000    8.000 
#    0.000    0.000    0.000    1.000    0.000    7.000 
#    0.000   10.000    0.000    0.000    0.000    0.000 
#
# Total GULP energy -594956.155084 kJ/mol
# GULP energy per Si atom -12394.919898 kJ/mol
# Density = 1.829108 g / cm^3
# Si number density = 18.332802 Si / 1000 Ang^3
#
#
#
# Elastic Constant Matrix: (Units=GPa)
#
#
# Indices 1 2 3 4 5 6 
#
# 1 93.6470 45.7882 27.1276 3.4445 0.0000 0.0000
# 2 45.7882 93.6470 27.1276 -3.4445 0.0000 0.0000
# 3 27.1276 27.1276 64.0003 0.0000 0.0000 0.0000
# 4 3.4445 -3.4445 0.0000 26.4537 0.0000 0.0000
# 5 0.0000 0.0000 0.0000 0.0000 26.4537 3.4445
# 6 0.0000 0.0000 0.0000 0.0000 3.4445 23.9294
#
#
#
# Elastic Compliance Matrix: (Units=1/GPa)
#
#
# Indices 1 2 3 4 5 6 
#
# 1 0.014941 -0.006353 -0.003640 -0.002773 0.000000 0.000000
# 2 -0.006353 0.014941 -0.003640 0.002773 0.000000 0.000000
# 3 -0.003640 -0.003640 0.018711 0.000000 0.000000 0.000000
# 4 -0.002773 0.002773 0.000000 0.038524 0.000000 0.000000
# 5 0.000000 0.000000 0.000000 0.000000 0.038524 -0.005545
# 6 0.000000 0.000000 0.000000 0.000000 -0.005545 0.042588
#
#
# Mechanical properties :
#
#
# Convention : Reuss Voigt Hill
#
# Bulk Modulus (GPa) = 46.89041 50.15344 48.52192
# Shear Modulus (GPa) = 24.67864 25.45076 25.06470
#
# Velocity S-wave (km/s) = 3.67297 3.72998 3.70158
# Velocity P-wave (km/s) = 6.60458 6.77989 6.69281
#
# Compressibility (1/GPa) = 0.02132632
#
# Stress axis : x y z
#
# Youngs Moduli (GPa) = 66.92952 66.92952 53.44480
#
# Poissons Ratio (x) = 0.42519 0.19455
# Poissons Ratio (y) = 0.42519 0.19455
# Poissons Ratio (z) = 0.24364 0.24364
#
# Static dielectric constant tensor:
#      x y z
#    x 3.247750 0.000000 0.000000 
#    y 0.000000 3.247750 0.000000 
#    z 0.000000 0.000000 3.583330 
# 
# 
# High freq. dielectric constant tensor:
#      x y z
#    x 1.681080 0.000000 0.000000 
#    y 0.000000 1.681080 0.000000 
#    z 0.000000 0.000000 1.723820 
# 
# From -- ./inp_files/3325.got.cif
#   From: 2010.03.12/outbox.cif.g09.slc.cpg/sg167_2_cif.got.tgz:3325.got - 2010.04.02 06:42:56.
