data_PCOD8324076
_publ_section_title
;
Structure prediction by ZEFSAII (Michael W. Deem and Ramdas Pophale) SiO2 
 PCOD8324076
Probable space group: R -3 M
;
_chemical_formula_sum "Si O2"
_cell_formula_units_Z 216
_cell_length_a 21.850568
_cell_length_b 21.850568
_cell_length_c 30.701096
_cell_angle_alpha 90.000000
_cell_angle_beta 90.000000
_cell_angle_gamma 120.000000
_cell_volume 12694.335525
_symmetry_space_group_name_H-M "R -3 M"
_symmetry_group_IT_number 166
_symmetry_cell_setting 'hexagonal'
loop_
_space_group_symop_operation_xyz
x,y,z
-y,x-y,z
-x+y,-x,z
x-y,-y,-z
-x,-x+y,-z
y,x,-z
-x,-y,-z
y,-x+y,-z
x-y,x,-z
-x+y,y,z
x,x-y,z
-y,-x,z
2/3+x,1/3+y,1/3+z
2/3-y,1/3+x-y,1/3+z
2/3-x+y,1/3-x,1/3+z
2/3+x-y,1/3-y,1/3-z
2/3-x,1/3-x+y,1/3-z
2/3+y,1/3+x,1/3-z
2/3-x,1/3-y,1/3-z
2/3+y,1/3-x+y,1/3-z
2/3+x-y,1/3+x,1/3-z
2/3-x+y,1/3+y,1/3+z
2/3+x,1/3+x-y,1/3+z
2/3-y,1/3-x,1/3+z
1/3+x,2/3+y,2/3+z
1/3-y,2/3+x-y,2/3+z
1/3-x+y,2/3-x,2/3+z
1/3+x-y,2/3-y,2/3-z
1/3-x,2/3-x+y,2/3-z
1/3+y,2/3+x,2/3-z
1/3-x,2/3-y,2/3-z
1/3+y,2/3-x+y,2/3-z
1/3+x-y,2/3+x,2/3-z
1/3-x+y,2/3+y,2/3+z
1/3+x,2/3+x-y,2/3+z
1/3-y,2/3-x,2/3+z
loop_
_atom_site_type_symbol
_atom_site_label
_atom_site_fract_x
_atom_site_fract_y
_atom_site_fract_z
Si Si1 0.669421 0.664620 0.402245
Si Si2 0.333331 0.528434 0.376062
Si Si3 0.723512 0.583951 0.553792
Si Si4 0.255271 0.197145 0.878285
Si Si5 0.805696 0.472527 0.381350
Si Si6 0.711533 0.926671 0.671297
O O1 0.646623 0.717718 0.422725
O O2 0.700505 0.644020 0.443145
O O3 0.734973 0.700063 0.369433
O O4 0.598979 0.601060 0.379039
O O5 0.260032 0.520064 0.357776
O O6 0.389169 0.610832 0.382335
O O7 0.321853 0.491108 0.422712
O O8 0.363083 0.492347 0.343390
O O9 0.806464 0.612927 0.556874
O O10 0.696981 0.565889 0.504031
O O11 0.285290 0.142645 0.881158
O O12 0.193978 0.174801 0.913475
O O13 0.722401 0.444801 0.378556
O O14 0.817759 0.408880 0.393570
O O15 0.838863 0.505529 0.333334
O O16 0.685638 0.842819 0.664563
#
# Coordination Sequence:
#
# PCOD8324076 Si02
#       6
#    36  36  36  36  36  36
#     4  10  19  32  51  68  91 129 156 189 241 284
#     4   9  17  31  50  71  96 123 152 189 234 282
#     4   9  19  34  49  68  94 122 160 199 230 275
#     4  10  20  32  47  69  95 124 159 199 235 276
#     4   9  18  31  47  67  92 125 163 203 242 279
#     4   9  19  32  47  72  98 119 153 197 233 277
#
# _framework density 17.015463
#
# number of rings (size 3 to 8) (size 9 to 14) (size 15 to 20)
#    0.000    2.667    0.000    1.333    2.333    2.667 
#    0.000    3.333    0.000    7.000    0.000    0.000 
#    0.000    0.000    0.000    0.000    0.000   50.500 
#
# Total GULP energy -892089.854712 kJ/mol
# GULP energy per Si atom -12390.136871 kJ/mol
# Density = 1.697674 g / cm^3
# Si number density = 17.015463 Si / 1000 Ang^3
#
#
#
# Elastic Constant Matrix: (Units=GPa)
#
#
# Indices 1 2 3 4 5 6 
#
# 1 84.2886 42.4326 37.2659 -2.0430 0.0000 0.0000
# 2 42.4326 84.2886 37.2659 2.0430 0.0000 0.0000
# 3 37.2659 37.2659 88.2977 0.0000 0.0000 0.0000
# 4 -2.0430 2.0430 0.0000 22.8068 0.0000 0.0000
# 5 0.0000 0.0000 0.0000 0.0000 22.8068 -2.0430
# 6 0.0000 0.0000 0.0000 0.0000 -2.0430 20.9280
#
#
#
# Elastic Compliance Matrix: (Units=1/GPa)
#
#
# Indices 1 2 3 4 5 6 
#
# 1 0.017300 -0.006803 -0.004430 0.002159 0.000000 0.000000
# 2 -0.006803 0.017300 -0.004430 -0.002159 0.000000 0.000000
# 3 -0.004430 -0.004430 0.015065 0.000000 0.000000 0.000000
# 4 0.002159 -0.002159 0.000000 0.044233 0.000000 0.000000
# 5 0.000000 0.000000 0.000000 0.000000 0.044233 0.004318
# 6 0.000000 0.000000 0.000000 0.000000 0.004318 0.048204
#
#
# Mechanical properties :
#
#
# Convention : Reuss Voigt Hill
#
# Bulk Modulus (GPa) = 54.53181 54.53374 54.53277
# Shear Modulus (GPa) = 22.34397 22.63569 22.48983
#
# Velocity S-wave (km/s) = 3.62768 3.65129 3.63950
# Velocity P-wave (km/s) = 7.04732 7.06364 7.05548
#
# Compressibility (1/GPa) = 0.01833792
#
# Stress axis : x y z
#
# Youngs Moduli (GPa) = 57.80477 57.80477 66.37948
#
# Poissons Ratio (x) = 0.39322 0.29408
# Poissons Ratio (y) = 0.39322 0.29408
# Poissons Ratio (z) = 0.25609 0.25609
#
# Static dielectric constant tensor:
#      x y z
#    x 3.256770 0.000000 0.000000 
#    y 0.000000 3.256770 0.000000 
#    z 0.000000 0.000000 3.221200 
# 
# 
# High freq. dielectric constant tensor:
#      x y z
#    x 1.654400 0.000000 0.000000 
#    y 0.000000 1.654400 0.000000 
#    z 0.000000 0.000000 1.651630 
# 
# From -- ./inp_files/9741.got.cif
#   From: 2010.03.12/outbox.cif.g09.slc.cpg/sg166_5_cif.got.tgz:9741.got - 2010.04.02 06:38:31.
