data_PCOD8324319
_publ_section_title
;
Structure prediction by ZEFSAII (Michael W. Deem and Ramdas Pophale) SiO2 
 PCOD8324319
Probable space group: R -3 C 
;
_chemical_formula_sum "Si O2"
_cell_formula_units_Z 252
_cell_length_a 28.306691
_cell_length_b 28.306691
_cell_length_c 16.134894
_cell_angle_alpha 90.000000
_cell_angle_beta 90.000000
_cell_angle_gamma 120.000000
_cell_volume 11196.311081
_symmetry_space_group_name_H-M "R -3 C "
_symmetry_group_IT_number 167
_symmetry_cell_setting 'hexagonal'
loop_
_space_group_symop_operation_xyz
x,y,z
-y,x-y,z
-x+y,-x,z
x-y,-y,1/2-z
-x,-x+y,1/2-z
y,x,1/2-z
-x,-y,-z
y,-x+y,-z
x-y,x,-z
-x+y,y,1/2+z
x,x-y,1/2+z
-y,-x,1/2+z
2/3+x,1/3+y,1/3+z
2/3-y,1/3+x-y,1/3+z
2/3-x+y,1/3-x,1/3+z
2/3+x-y,1/3-y,5/6-z
2/3-x,1/3-x+y,5/6-z
2/3+y,1/3+x,5/6-z
2/3-x,1/3-y,1/3-z
2/3+y,1/3-x+y,1/3-z
2/3+x-y,1/3+x,1/3-z
2/3-x+y,1/3+y,5/6+z
2/3+x,1/3+x-y,5/6+z
2/3-y,1/3-x,5/6+z
1/3+x,2/3+y,2/3+z
1/3-y,2/3+x-y,2/3+z
1/3-x+y,2/3-x,2/3+z
1/3+x-y,2/3-y,1/6-z
1/3-x,2/3-x+y,1/6-z
1/3+y,2/3+x,1/6-z
1/3-x,2/3-y,2/3-z
1/3+y,2/3-x+y,2/3-z
1/3+x-y,2/3+x,2/3-z
1/3-x+y,2/3+y,1/6+z
1/3+x,2/3+x-y,1/6+z
1/3-y,2/3-x,1/6+z
loop_
_atom_site_type_symbol
_atom_site_label
_atom_site_fract_x
_atom_site_fract_y
_atom_site_fract_z
Si Si1 0.555499 0.869721 0.333189
Si Si2 0.875579 0.590009 0.744125
Si Si3 0.519443 0.105558 0.768470
Si Si4 0.774253 0.251589 0.149326
Si Si5 0.509074 0.600891 0.330571
Si Si6 0.997076 0.392125 0.059200
Si Si7 0.928241 0.049991 0.030235
O O1 0.573102 0.906435 0.416667
O O2 0.502206 0.866874 0.295265
O O3 0.535592 0.809235 0.363714
O O4 0.606306 0.895060 0.268810
O O5 0.866237 0.600150 0.839907
O O6 0.819410 0.574561 0.699193
O O7 0.886428 0.539122 0.730616
O O8 0.923069 0.644824 0.703221
O O9 0.545741 0.073390 0.722306
O O10 0.567455 0.152430 0.822289
O O11 0.752103 0.285834 0.203611
O O12 0.802790 0.277910 0.059932
O O13 0.554274 0.593369 0.380135
O O14 0.989354 0.333334 0.083334
O O15 0.991873 0.085049 0.011417
#
# Coordination Sequence:
#
# PCOD8324319 Si02
#       7
#    36  36  36  36  36  36  36
#     4  12  24  40  63  94 133 175 213 273 340 391
#     4   9  21  38  68  93 124 166 224 271 325 391
#     4  11  21  38  65  95 133 168 220 271 331 390
#     4  10  20  38  61  91 127 169 214 269 318 390
#     4  10  20  41  68  97 124 178 224 267 334 402
#     4   9  22  45  69  92 128 173 219 274 343 400
#     4  11  22  38  64  95 135 176 219 274 327 387
#
# _framework density 22.507413
#
# number of rings (size 3 to 8) (size 9 to 14) (size 15 to 20)
#    0.000    1.714    2.857    3.143    2.000    3.429 
#    0.000    2.143    6.286    0.000    0.000    4.000 
#    0.000    0.000    0.000    0.000    0.000    0.000 
#
# Total GULP energy -1040741.571884 kJ/mol
# GULP energy per Si atom -12389.780618 kJ/mol
# Density = 2.245619 g / cm^3
# Si number density = 22.507413 Si / 1000 Ang^3
#
#
#
# Elastic Constant Matrix: (Units=GPa)
#
#
# Indices 1 2 3 4 5 6 
#
# 1 65.8918 21.2115 19.2097 -3.2858 0.0001 0.0000
# 2 21.2115 65.8918 19.2097 3.2858 -0.0001 0.0000
# 3 19.2097 19.2097 93.3244 0.0000 0.0000 0.0000
# 4 -3.2858 3.2858 0.0000 19.3194 0.0000 -0.0001
# 5 0.0001 -0.0001 0.0000 0.0000 19.3194 -3.2858
# 6 0.0000 0.0000 0.0000 -0.0001 -3.2858 22.3401
#
#
#
# Elastic Compliance Matrix: (Units=1/GPa)
#
#
# Indices 1 2 3 4 5 6 
#
# 1 0.017791 -0.005164 -0.002599 0.003904 0.000000 0.000000
# 2 -0.005164 0.017791 -0.002599 -0.003904 0.000000 0.000000
# 3 -0.002599 -0.002599 0.011785 0.000000 0.000000 0.000000
# 4 0.003904 -0.003904 0.000000 0.053090 0.000000 0.000000
# 5 0.000000 0.000000 0.000000 0.000000 0.053090 0.007809
# 6 0.000000 0.000000 0.000000 0.000000 0.007809 0.045911
#
#
# Mechanical properties :
#
#
# Convention : Reuss Voigt Hill
#
# Bulk Modulus (GPa) = 37.53347 38.26332 37.89839
# Shear Modulus (GPa) = 21.82797 23.22758 22.52777
#
# Velocity S-wave (km/s) = 3.11756 3.21596 3.16714
# Velocity P-wave (km/s) = 5.44712 5.55221 5.49992
#
# Compressibility (1/GPa) = 0.02664289
#
# Stress axis : x y z
#
# Youngs Moduli (GPa) = 56.20734 56.20734 84.85143
#
# Poissons Ratio (x) = 0.29027 0.22054
# Poissons Ratio (y) = 0.29027 0.22054
# Poissons Ratio (z) = 0.14609 0.14609
#
# Static dielectric constant tensor:
#      x y z
#    x 3.854210 0.000000 0.000000 
#    y 0.000000 3.854210 0.000000 
#    z 0.000000 0.000000 4.478460 
# 
# 
# High freq. dielectric constant tensor:
#      x y z
#    x 1.871710 0.000000 0.000000 
#    y 0.000000 1.871710 0.000000 
#    z 0.000000 0.000000 1.894900 
# 
# From -- ./inp_files/3682.got.cif
#   From: 2010.03.12/outbox.cif.g09.slc.cpg/sg167_2_cif.got.tgz:3682.got - 2010.04.02 06:42:56.
