data_PCOD8324864
_publ_section_title
;
Structure prediction by ZEFSAII (Michael W. Deem and Ramdas Pophale) SiO2 
 PCOD8324864
Probable space group: P 63
;
_chemical_formula_sum "Si O2"
_cell_formula_units_Z 30
_cell_length_a 8.425627
_cell_length_b 8.425627
_cell_length_c 23.922265
_cell_angle_alpha 90.000000
_cell_angle_beta 90.000000
_cell_angle_gamma 120.000000
_cell_volume 1470.745021
_symmetry_space_group_name_H-M "P 63"
_symmetry_group_IT_number 173
_symmetry_cell_setting 'hexagonal'
loop_
_space_group_symop_operation_xyz
x,y,z
x-y,x,1/2+z
-y,x-y,z
-x,-y,1/2+z
-x+y,-x,z
y,-x+y,1/2+z
loop_
_atom_site_type_symbol
_atom_site_label
_atom_site_fract_x
_atom_site_fract_y
_atom_site_fract_z
Si Si1 0.187303 0.217752 0.618430
Si Si2 0.298762 0.447862 0.727387
Si Si3 0.328599 0.339585 0.954279
Si Si4 0.969219 0.187383 0.336504
Si Si5 0.323559 0.335408 0.500027
O O1 0.285580 0.330481 0.673484
O O2 0.298970 0.346784 0.566405
O O3 0.192444 0.027048 0.617388
O O4 0.496321 0.635675 0.727646
O O5 0.283273 0.327457 0.780791
O O6 0.300856 0.348838 0.887977
O O7 0.468731 0.537871 0.979369
O O8 0.401966 0.201019 0.967422
O O9 0.133482 0.260170 0.984733
O O10 0.164972 0.192214 0.338548
#
# Coordination Sequence:
#
# PCOD8324864 Si02
#       5
#     6   6   6   6   6
#     4  10  21  42  68  87 130 182 229 267 347 420
#     4  10  24  36  62 102 124 162 226 286 340 398
#     4  12  24  42  65 101 136 181 231 290 350 417
#     4  10  21  42  68  87 130 182 229 267 347 420
#     4  12  24  42  65 101 136 181 231 290 350 417
#
# _framework density 20.397822999999999
#
# number of rings (size 3 to 8) (size 9 to 14) (size 15 to 20)
#    1.200    0.000    4.000    2.400    5.600    0.000 
#    0.000    0.000    0.000    6.400    0.000    0.000 
#    0.000    0.000    0.000    0.000    0.000    0.000 
#
# Total GULP energy -371935.485955 kJ/mol
# GULP energy per Si atom -12397.849532 kJ/mol
# Density = 2.035140 g / cm^3
# Si number density = 20.397823 Si / 1000 Ang^3
#
#
#
# Elastic Constant Matrix: (Units=GPa)
#
#
# Indices 1 2 3 4 5 6 
#
# 1 71.4221 11.6509 48.9035 0.0000 0.0000 0.0000
# 2 11.6509 71.4221 48.9035 0.0000 0.0000 0.0000
# 3 48.9035 48.9035 215.8653 0.0000 0.0000 0.0000
# 4 0.0000 0.0000 0.0000 37.3199 0.0000 0.0000
# 5 0.0000 0.0000 0.0000 0.0000 37.3199 0.0000
# 6 0.0000 0.0000 0.0000 0.0000 0.0000 29.8856
#
#
#
# Elastic Compliance Matrix: (Units=1/GPa)
#
#
# Indices 1 2 3 4 5 6 
#
# 1 0.016573 -0.000157 -0.003719 0.000000 0.000000 0.000000
# 2 -0.000157 0.016573 -0.003719 0.000000 0.000000 0.000000
# 3 -0.003719 -0.003719 0.006318 0.000000 0.000000 0.000000
# 4 0.000000 0.000000 0.000000 0.026795 0.000000 0.000000
# 5 0.000000 0.000000 0.000000 0.000000 0.026795 0.000000
# 6 0.000000 0.000000 0.000000 0.000000 0.000000 0.033461
#
#
# Mechanical properties :
#
#
# Convention : Reuss Voigt Hill
#
# Bulk Modulus (GPa) = 41.19643 64.18057 52.68850
# Shear Modulus (GPa) = 33.37835 37.52184 35.45009
#
# Velocity S-wave (km/s) = 4.04959 4.29359 4.17338
# Velocity P-wave (km/s) = 6.48891 7.49084 7.00780
#
# Compressibility (1/GPa) = 0.02427395
#
# Stress axis : x y z
#
# Youngs Moduli (GPa) = 60.33777 60.33777 158.28823
#
# Poissons Ratio (x) = 0.00948 0.58868
# Poissons Ratio (y) = 0.00948 0.58868
# Poissons Ratio (z) = 0.22440 0.22440
#
# Static dielectric constant tensor:
#      x y z
#    x 3.399680 0.000000 0.000000 
#    y 0.000000 3.399680 0.000000 
#    z 0.000000 0.000000 3.627870 
# 
# 
# High freq. dielectric constant tensor:
#      x y z
#    x 1.779130 0.000000 0.000000 
#    y 0.000000 1.779130 0.000000 
#    z 0.000000 0.000000 1.810060 
# 
# From -- ./inp_files/1424.got.cif
#   From: 2010.03.12/outbox.cif.g09.slc.cpg/sg173_cif.got.tgz:1424.got - 2010.04.02 06:54:12.
