data_PCOD8324649
_publ_section_title
;
Structure prediction by ZEFSAII (Michael W. Deem and Ramdas Pophale) SiO2 
 PCOD8324649
Probable space group: P 65
;
_chemical_formula_sum "Si O2"
_cell_formula_units_Z 42
_cell_length_a 11.984558
_cell_length_b 11.984558
_cell_length_c 17.138130
_cell_angle_alpha 90.000000
_cell_angle_beta 90.000000
_cell_angle_gamma 120.000000
_cell_volume 2131.759012
_symmetry_space_group_name_H-M "P 65"
_symmetry_group_IT_number 170
_symmetry_cell_setting 'hexagonal'
loop_
_space_group_symop_operation_xyz
x,y,z
x-y,x,5/6+z
-y,x-y,2/3+z
-x,-y,1/2+z
-x+y,-x,1/3+z
y,-x+y,1/6+z
loop_
_atom_site_type_symbol
_atom_site_label
_atom_site_fract_x
_atom_site_fract_y
_atom_site_fract_z
Si Si1 0.421742 0.112397 0.119040
Si Si2 0.103420 0.344108 0.270335
Si Si3 0.628598 0.519489 0.695965
Si Si4 0.056782 0.007659 0.451927
Si Si5 0.784470 0.446987 0.888496
Si Si6 0.281385 0.249850 0.090798
Si Si7 0.496466 0.930024 0.032768
O O1 0.553923 0.208569 0.162992
O O2 0.368037 0.186305 0.066442
O O3 0.305980 0.046596 0.179548
O O4 0.432618 0.005331 0.070547
O O5 0.227345 0.444276 0.220130
O O6 0.093641 0.206612 0.276210
O O7 0.120229 0.407807 0.356275
O O8 0.981214 0.337236 0.226766
O O9 0.565904 0.392694 0.641943
O O10 0.630861 0.638348 0.651845
O O11 0.543106 0.490527 0.773404
O O12 0.982235 0.015313 0.372848
O O13 0.022966 0.860243 0.460778
O O14 0.637201 0.416895 0.890624
#
# Coordination Sequence:
#
# PCOD8324649 Si02
#       7
#     6   6   6   6   6   6   6
#     4  10  22  39  59  89 125 157 195 262 308 370
#     4  10  20  37  63  93 119 163 212 270 311 376
#     4  10  20  35  63  91 115 160 214 256 306 378
#     4  12  22  37  66  98 125 165 215 275 322 380
#     4   9  21  36  58  88 123 152 206 257 308 362
#     4  11  21  37  62  93 121 156 214 262 311 372
#     4  10  22  39  61  90 122 163 208 252 316 384
#
# _framework density 19.702038999999999
#
# number of rings (size 3 to 8) (size 9 to 14) (size 15 to 20)
#    0.000    1.714    2.857    1.714    4.000    3.429 
#    0.000    2.857    0.000    0.000    0.000    0.000 
#    0.000    0.000    0.000    0.000    0.000    0.000 
#
# Total GULP energy -520440.662774 kJ/mol
# GULP energy per Si atom -12391.444352 kJ/mol
# Density = 1.965720 g / cm^3
# Si number density = 19.702039 Si / 1000 Ang^3
#
#
#
# Elastic Constant Matrix: (Units=GPa)
#
#
# Indices 1 2 3 4 5 6 
#
# 1 93.3660 41.2783 28.8482 0.0000 0.0000 0.0000
# 2 41.2783 93.3660 28.8482 0.0000 0.0000 0.0000
# 3 28.8482 28.8482 127.5682 0.0000 0.0000 0.0000
# 4 0.0000 0.0000 0.0000 21.7399 0.0000 0.0000
# 5 0.0000 0.0000 0.0000 0.0000 21.7399 0.0000
# 6 0.0000 0.0000 0.0000 0.0000 0.0000 26.0438
#
#
#
# Elastic Compliance Matrix: (Units=1/GPa)
#
#
# Indices 1 2 3 4 5 6 
#
# 1 0.013711 -0.005487 -0.001860 0.000000 0.000000 0.000000
# 2 -0.005487 0.013711 -0.001860 0.000000 0.000000 0.000000
# 3 -0.001860 -0.001860 0.008680 0.000000 0.000000 0.000000
# 4 0.000000 0.000000 0.000000 0.045998 0.000000 0.000000
# 5 0.000000 0.000000 0.000000 0.000000 0.045998 0.000000
# 6 0.000000 0.000000 0.000000 0.000000 0.000000 0.038397
#
#
# Mechanical properties :
#
#
# Convention : Reuss Voigt Hill
#
# Bulk Modulus (GPa) = 56.53273 56.91664 56.72468
# Shear Modulus (GPa) = 26.20467 28.25975 27.23221
#
# Velocity S-wave (km/s) = 3.65094 3.79140 3.72183
# Velocity P-wave (km/s) = 6.82119 6.93669 6.87918
#
# Compressibility (1/GPa) = 0.01768887
#
# Stress axis : x y z
#
# Youngs Moduli (GPa) = 72.93335 72.93335 115.20641
#
# Poissons Ratio (x) = 0.40020 0.21425
# Poissons Ratio (y) = 0.40020 0.21425
# Poissons Ratio (z) = 0.13564 0.13564
#
# Static dielectric constant tensor:
#      x y z
#    x 3.492500 0.000000 0.000000 
#    y 0.000000 3.492500 0.000000 
#    z 0.000000 0.000000 3.958890 
# 
# 
# High freq. dielectric constant tensor:
#      x y z
#    x 1.753200 0.000000 0.000000 
#    y 0.000000 1.753200 0.000000 
#    z 0.000000 0.000000 1.777080 
# 
# From -- ./inp_files/1421.got.cif
#   From: 2010.03.12/outbox.cif.g09.slc.cpg/sg170_cif.got.tgz:1421.got - 2010.04.02 06:47:37.
