data_PCOD8324061
_publ_section_title
;
Structure prediction by ZEFSAII (Michael W. Deem and Ramdas Pophale) SiO2 
 PCOD8324061
Probable space group: R -3 M
;
_chemical_formula_sum "Si O2"
_cell_formula_units_Z 126
_cell_length_a 16.373143
_cell_length_b 16.373143
_cell_length_c 32.921912
_cell_angle_alpha 90.000000
_cell_angle_beta 90.000000
_cell_angle_gamma 120.000000
_cell_volume 7643.280380
_symmetry_space_group_name_H-M "R -3 M"
_symmetry_group_IT_number 166
_symmetry_cell_setting 'hexagonal'
loop_
_space_group_symop_operation_xyz
x,y,z
-y,x-y,z
-x+y,-x,z
x-y,-y,-z
-x,-x+y,-z
y,x,-z
-x,-y,-z
y,-x+y,-z
x-y,x,-z
-x+y,y,z
x,x-y,z
-y,-x,z
2/3+x,1/3+y,1/3+z
2/3-y,1/3+x-y,1/3+z
2/3-x+y,1/3-x,1/3+z
2/3+x-y,1/3-y,1/3-z
2/3-x,1/3-x+y,1/3-z
2/3+y,1/3+x,1/3-z
2/3-x,1/3-y,1/3-z
2/3+y,1/3-x+y,1/3-z
2/3+x-y,1/3+x,1/3-z
2/3-x+y,1/3+y,1/3+z
2/3+x,1/3+x-y,1/3+z
2/3-y,1/3-x,1/3+z
1/3+x,2/3+y,2/3+z
1/3-y,2/3+x-y,2/3+z
1/3-x+y,2/3-x,2/3+z
1/3+x-y,2/3-y,2/3-z
1/3-x,2/3-x+y,2/3-z
1/3+y,2/3+x,2/3-z
1/3-x,2/3-y,2/3-z
1/3+y,2/3-x+y,2/3-z
1/3+x-y,2/3+x,2/3-z
1/3-x+y,2/3+y,2/3+z
1/3+x,2/3+x-y,2/3+z
1/3-y,2/3-x,2/3+z
loop_
_atom_site_type_symbol
_atom_site_label
_atom_site_fract_x
_atom_site_fract_y
_atom_site_fract_z
Si Si1 0.332988 0.475774 0.048800
Si Si2 0.026168 0.605888 0.205898
Si Si3 0.302462 0.302462 0.000000
Si Si4 0.187281 0.000598 0.073081
O O1 0.250834 0.501668 0.048592
O O2 0.431266 0.568735 0.040856
O O3 0.336045 0.430313 0.091796
O O4 0.314468 0.402582 0.012684
O O5 0.049097 0.524549 0.193790
O O6 0.037132 0.666667 0.166667
O O7 0.918628 0.561224 0.220604
O O8 0.228839 0.262564 0.963095
O O9 0.166618 0.083309 0.084910
O O10 0.091214 0.908787 0.058486
#
# Coordination Sequence:
#
# PCOD8324061 Si02
#       4
#    36  36  18  36
#     4  10  19  31  48  69  94 122 153 189 227 268
#     4   9  18  31  47  67  91 119 151 186 224 268
#     4  10  19  32  47  68  94 122 152 186 227 272
#     4  10  19  31  48  69  93 119 150 189 230 272
#
# _framework density 16.485068999999999
#
# number of rings (size 3 to 8) (size 9 to 14) (size 15 to 20)
#    0.000    2.286    0.000    6.143    0.000    0.571 
#    0.000    1.429    0.000    4.571    0.000    0.000 
#    0.000   18.286    0.000    0.000    0.000    0.000 
#
# Total GULP energy -520861.507803 kJ/mol
# GULP energy per Si atom -12401.464471 kJ/mol
# Density = 1.644755 g / cm^3
# Si number density = 16.485069 Si / 1000 Ang^3
#
#
#
# Elastic Constant Matrix: (Units=GPa)
#
#
# Indices 1 2 3 4 5 6 
#
# 1 108.4707 50.6964 48.0649 1.1378 0.0000 0.0000
# 2 50.6964 108.4707 48.0649 -1.1378 0.0000 0.0000
# 3 48.0649 48.0649 91.0894 0.0000 0.0000 0.0000
# 4 1.1378 -1.1378 0.0000 19.1566 0.0000 0.0000
# 5 0.0000 0.0000 0.0000 0.0000 19.1566 1.1378
# 6 0.0000 0.0000 0.0000 0.0000 1.1378 28.8871
#
#
#
# Elastic Compliance Matrix: (Units=1/GPa)
#
#
# Indices 1 2 3 4 5 6 
#
# 1 0.013285 -0.004064 -0.004866 -0.001030 0.000000 0.000000
# 2 -0.004064 0.013285 -0.004866 0.001030 0.000000 0.000000
# 3 -0.004866 -0.004866 0.016113 0.000000 0.000000 0.000000
# 4 -0.001030 0.001030 0.000000 0.052324 0.000000 0.000000
# 5 0.000000 0.000000 0.000000 0.000000 0.052324 -0.002061
# 6 0.000000 0.000000 0.000000 0.000000 -0.002061 0.034699
#
#
# Mechanical properties :
#
#
# Convention : Reuss Voigt Hill
#
# Bulk Modulus (GPa) = 66.25668 66.85367 66.55517
# Shear Modulus (GPa) = 23.29346 24.18704 23.74025
#
# Velocity S-wave (km/s) = 3.76307 3.83457 3.79899
# Velocity P-wave (km/s) = 7.69156 7.76192 7.72682
#
# Compressibility (1/GPa) = 0.01509282
#
# Stress axis : x y z
#
# Youngs Moduli (GPa) = 75.27055 75.27055 62.06039
#
# Poissons Ratio (x) = 0.30590 0.30198
# Poissons Ratio (y) = 0.30590 0.30198
# Poissons Ratio (z) = 0.36626 0.36626
#
# Static dielectric constant tensor:
#      x y z
#    x 3.085320 0.000000 0.000000 
#    y 0.000000 3.085320 0.000000 
#    z 0.000000 0.000000 2.937540 
# 
# 
# High freq. dielectric constant tensor:
#      x y z
#    x 1.637630 0.000000 0.000000 
#    y 0.000000 1.637630 0.000000 
#    z 0.000000 0.000000 1.622820 
# 
# From -- ./inp_files/9184.got.cif
#   From: 2010.03.12/outbox.cif.g09.slc.cpg/sg166_5_cif.got.tgz:9184.got - 2010.04.02 06:38:31.
