data_PCOD8324911
_publ_section_title
;
Structure prediction by ZEFSAII (Michael W. Deem and Ramdas Pophale) SiO2 
 PCOD8324911
Probable space group: P -6
;
_chemical_formula_sum "Si O2"
_cell_formula_units_Z 48
_cell_length_a 22.801862
_cell_length_b 22.801862
_cell_length_c 8.957051
_cell_angle_alpha 90.000000
_cell_angle_beta 90.000000
_cell_angle_gamma 120.000000
_cell_volume 4033.075058
_symmetry_space_group_name_H-M "P -6"
_symmetry_group_IT_number 174
_symmetry_cell_setting 'hexagonal'
loop_
_space_group_symop_operation_xyz
x,y,z
-x+y,-x,-z
-y,x-y,z
x,y,-z
-x+y,-x,z
-y,x-y,-z
loop_
_atom_site_type_symbol
_atom_site_label
_atom_site_fract_x
_atom_site_fract_y
_atom_site_fract_z
Si Si1 0.730699 0.795666 0.831322
Si Si2 0.269704 0.396213 0.335864
Si Si3 0.133290 0.401302 0.332548
Si Si4 0.329938 0.790920 0.821403
Si Si5 0.133978 0.000311 0.323421
Si Si6 0.732939 0.936555 0.833709
Si Si7 0.207719 0.661292 0.321193
Si Si8 0.867275 0.000452 0.675777
O O1 0.665944 0.738032 0.742143
O O2 0.799047 0.806741 0.753431
O O3 0.729500 0.865039 0.827637
O O4 0.728053 0.770684 0.000000
O O5 0.289148 0.383027 0.500000
O O6 0.198257 0.392843 0.342161
O O7 0.265340 0.337078 0.230536
O O8 0.324789 0.471233 0.280249
O O9 0.112427 0.410893 0.500000
O O10 0.149684 0.465296 0.229146
O O11 0.403643 0.812239 0.758859
O O12 0.277790 0.719608 0.746995
O O13 0.326644 0.784235 0.000000
O O14 0.142845 0.999739 0.500000
O O15 0.140459 0.070065 0.266057
O O16 0.060433 0.939860 0.273525
O O17 0.797875 0.991594 0.742487
O O18 0.740567 0.964320 0.000000
O O19 0.216260 0.659122 0.500000
O O20 0.861157 0.001236 0.500000
#
# Coordination Sequence:
#
# PCOD8324911 Si02
#       8
#     6   6   6   6   6   6   6   6
#     4   9  16  25  36  50  65  81 102 131 162 193
#     4   8  15  26  39  50  60  78 104 130 155 185
#     4   9  16  27  40  51  63  82 106 130 156 191
#     4  11  20  28  38  53  70  86 105 132 165 198
#     4   9  16  25  36  49  64  85 109 134 163 198
#     4   9  16  24  35  49  64  80 100 127 160 193
#     4  10  19  30  40  50  66  88 110 131 159 198
#     4   9  16  25  36  48  64  84 108 133 160 196
#
# _framework density 11.901589
#
# number of rings (size 3 to 8) (size 9 to 14) (size 15 to 20)
#    0.000    2.750    0.000    3.875    0.000    8.000 
#    0.000    0.000    0.000    1.500    0.000    0.000 
#    0.000    0.000    0.000    0.000    0.000    0.000 
#
# Total GULP energy -595011.726502 kJ/mol
# GULP energy per Si atom -12396.077635 kJ/mol
# Density = 1.187450 g / cm^3
# Si number density = 11.901589 Si / 1000 Ang^3
#
#
#
# Elastic Constant Matrix: (Units=GPa)
#
#
# Indices 1 2 3 4 5 6 
#
# 1 59.7802 37.3069 31.2630 0.0000 0.0000 0.0000
# 2 37.3069 59.7802 31.2630 0.0000 0.0000 0.0000
# 3 31.2630 31.2630 68.2290 0.0000 0.0000 0.0000
# 4 0.0000 0.0000 0.0000 14.8739 0.0000 0.0000
# 5 0.0000 0.0000 0.0000 0.0000 14.8739 0.0000
# 6 0.0000 0.0000 0.0000 0.0000 0.0000 11.2366
#
#
#
# Elastic Compliance Matrix: (Units=1/GPa)
#
#
# Indices 1 2 3 4 5 6 
#
# 1 0.029555 -0.014943 -0.006695 0.000000 0.000000 0.000000
# 2 -0.014943 0.029555 -0.006695 0.000000 0.000000 0.000000
# 3 -0.006695 -0.006695 0.020792 0.000000 0.000000 0.000000
# 4 0.000000 0.000000 0.000000 0.067232 0.000000 0.000000
# 5 0.000000 0.000000 0.000000 0.000000 0.067232 0.000000
# 6 0.000000 0.000000 0.000000 0.000000 0.000000 0.088995
#
#
# Mechanical properties :
#
#
# Convention : Reuss Voigt Hill
#
# Bulk Modulus (GPa) = 43.03873 43.05058 43.04466
# Shear Modulus (GPa) = 13.59541 14.06065 13.82803
#
# Velocity S-wave (km/s) = 3.38349 3.44089 3.41231
# Velocity P-wave (km/s) = 7.17668 7.21367 7.19519
#
# Compressibility (1/GPa) = 0.02323488
#
# Stress axis : x y z
#
# Youngs Moduli (GPa) = 33.83569 33.83569 48.09504
#
# Poissons Ratio (x) = 0.50560 0.32201
# Poissons Ratio (y) = 0.50560 0.32201
# Poissons Ratio (z) = 0.22654 0.22654
#
# Static dielectric constant tensor:
#      x y z
#    x 2.360360 0.000000 0.000000 
#    y 0.000000 2.360360 0.000000 
#    z 0.000000 0.000000 2.619800 
# 
# 
# High freq. dielectric constant tensor:
#      x y z
#    x 1.417040 0.000000 0.000000 
#    y 0.000000 1.417040 0.000000 
#    z 0.000000 0.000000 1.465960 
# 
# From -- ./inp_files/580.got.cif
#   From: 2010.03.12/outbox.cif.g09.slc.cpg/sg174_cif.got.tgz:580.got - 2010.04.02 06:54:58.
