data_PCOD8324771
_publ_section_title
;
Structure prediction by ZEFSAII (Michael W. Deem and Ramdas Pophale) SiO2 
 PCOD8324771
Probable space group: P 62
;
_chemical_formula_sum "Si O2"
_cell_formula_units_Z 24
_cell_length_a 10.541397
_cell_length_b 10.541397
_cell_length_c 12.222032
_cell_angle_alpha 90.000000
_cell_angle_beta 90.000000
_cell_angle_gamma 120.000000
_cell_volume 1176.170784
_symmetry_space_group_name_H-M "P 62"
_symmetry_group_IT_number 171
_symmetry_cell_setting 'hexagonal'
loop_
_space_group_symop_operation_xyz
x,y,z
x-y,x,1/3+z
-y,x-y,2/3+z
-x,-y,z
-x+y,-x,1/3+z
y,-x+y,2/3+z
loop_
_atom_site_type_symbol
_atom_site_label
_atom_site_fract_x
_atom_site_fract_y
_atom_site_fract_z
Si Si1 0.241241 0.114893 0.758400
Si Si2 0.241786 0.119018 0.268375
Si Si3 0.330166 0.936548 0.127006
Si Si4 0.395135 0.067692 0.566382
O O1 0.125936 0.117058 0.674193
O O2 0.355230 0.084447 0.691085
O O3 0.316676 0.262450 0.828526
O O4 0.145719 0.981760 0.835523
O O5 0.331745 0.264735 0.340429
O O6 0.336721 0.053989 0.214495
O O7 0.229187 0.770415 0.176024
O O8 0.500000 0.000000 0.105168
O O9 0.500000 0.000000 0.571406
#
# Coordination Sequence:
#
# PCOD8324771 Si02
#       4
#     6   6   6   6
#     4  10  22  40  64  93 126 161 215 263 327 385
#     4  10  22  40  64  93 126 161 215 263 327 385
#     4  10  23  43  64  91 130 174 215 269 330 396
#     4  10  23  43  64  91 130 174 215 269 330 396
#
# _framework density 20.405201000000002
#
# number of rings (size 3 to 8) (size 9 to 14) (size 15 to 20)
#    0.000    2.000    0.000    1.500    0.000   29.000 
#   18.000    0.000    0.000    0.000    0.000    0.000 
#    0.000    0.000    0.000    0.000    0.000    0.000 
#
# Total GULP energy -297333.202437 kJ/mol
# GULP energy per Si atom -12388.883435 kJ/mol
# Density = 2.035876 g / cm^3
# Si number density = 20.405201 Si / 1000 Ang^3
#
#
#
# Elastic Constant Matrix: (Units=GPa)
#
#
# Indices 1 2 3 4 5 6 
#
# 1 104.3852 49.5723 27.6624 0.0000 0.0000 0.0000
# 2 49.5723 104.3852 27.6624 0.0000 0.0000 0.0000
# 3 27.6624 27.6624 92.9573 0.0000 0.0000 0.0000
# 4 0.0000 0.0000 0.0000 15.5572 0.0000 0.0000
# 5 0.0000 0.0000 0.0000 0.0000 15.5572 0.0000
# 6 0.0000 0.0000 0.0000 0.0000 0.0000 27.4065
#
#
#
# Elastic Compliance Matrix: (Units=1/GPa)
#
#
# Indices 1 2 3 4 5 6 
#
# 1 0.012758 -0.005485 -0.002164 0.000000 0.000000 0.000000
# 2 -0.005485 0.012758 -0.002164 0.000000 0.000000 0.000000
# 3 -0.002164 -0.002164 0.012046 0.000000 0.000000 0.000000
# 4 0.000000 0.000000 0.000000 0.064279 0.000000 0.000000
# 5 0.000000 0.000000 0.000000 0.000000 0.064279 0.000000
# 6 0.000000 0.000000 0.000000 0.000000 0.000000 0.036488
#
#
# Mechanical properties :
#
#
# Convention : Reuss Voigt Hill
#
# Bulk Modulus (GPa) = 55.75830 56.83576 56.29703
# Shear Modulus (GPa) = 21.90919 24.82621 23.36770
#
# Velocity S-wave (km/s) = 3.28030 3.49185 3.38773
# Velocity P-wave (km/s) = 6.46003 6.64616 6.55376
#
# Compressibility (1/GPa) = 0.01793455
#
# Stress axis : x y z
#
# Youngs Moduli (GPa) = 78.37938 78.37938 83.01679
#
# Poissons Ratio (x) = 0.42994 0.17968
# Poissons Ratio (y) = 0.42994 0.17968
# Poissons Ratio (z) = 0.16964 0.16964
#
# Static dielectric constant tensor:
#      x y z
#    x 3.641210 0.000000 0.000000 
#    y 0.000000 3.641210 0.000000 
#    z 0.000000 0.000000 4.563390 
# 
# 
# High freq. dielectric constant tensor:
#      x y z
#    x 1.785810 0.000000 0.000000 
#    y 0.000000 1.785810 0.000000 
#    z 0.000000 0.000000 1.824970 
# 
# From -- ./inp_files/1820.got.cif
#   From: 2010.03.12/outbox.cif.g09.slc.cpg/sg171_1_cif.got.tgz:1820.got - 2010.04.02 06:49:11.
