data_PCOD8324005
_publ_section_title
;
Structure prediction by ZEFSAII (Michael W. Deem and Ramdas Pophale) SiO2 
 PCOD8324005
Probable space group: R -3 M
;
_chemical_formula_sum "Si O2"
_cell_formula_units_Z 216
_cell_length_a 26.573202
_cell_length_b 26.573202
_cell_length_c 23.582166
_cell_angle_alpha 90.000000
_cell_angle_beta 90.000000
_cell_angle_gamma 120.000000
_cell_volume 14421.223301
_symmetry_space_group_name_H-M "R -3 M"
_symmetry_group_IT_number 166
_symmetry_cell_setting 'hexagonal'
loop_
_space_group_symop_operation_xyz
x,y,z
-y,x-y,z
-x+y,-x,z
x-y,-y,-z
-x,-x+y,-z
y,x,-z
-x,-y,-z
y,-x+y,-z
x-y,x,-z
-x+y,y,z
x,x-y,z
-y,-x,z
2/3+x,1/3+y,1/3+z
2/3-y,1/3+x-y,1/3+z
2/3-x+y,1/3-x,1/3+z
2/3+x-y,1/3-y,1/3-z
2/3-x,1/3-x+y,1/3-z
2/3+y,1/3+x,1/3-z
2/3-x,1/3-y,1/3-z
2/3+y,1/3-x+y,1/3-z
2/3+x-y,1/3+x,1/3-z
2/3-x+y,1/3+y,1/3+z
2/3+x,1/3+x-y,1/3+z
2/3-y,1/3-x,1/3+z
1/3+x,2/3+y,2/3+z
1/3-y,2/3+x-y,2/3+z
1/3-x+y,2/3-x,2/3+z
1/3+x-y,2/3-y,2/3-z
1/3-x,2/3-x+y,2/3-z
1/3+y,2/3+x,2/3-z
1/3-x,2/3-y,2/3-z
1/3+y,2/3-x+y,2/3-z
1/3+x-y,2/3+x,2/3-z
1/3-x+y,2/3+y,2/3+z
1/3+x,2/3+x-y,2/3+z
1/3-y,2/3-x,2/3+z
loop_
_atom_site_type_symbol
_atom_site_label
_atom_site_fract_x
_atom_site_fract_y
_atom_site_fract_z
Si Si1 0.094366 0.489728 0.415536
Si Si2 0.446678 0.779790 0.426594
Si Si3 0.211690 0.307319 0.960083
Si Si4 0.063314 0.243390 0.073055
Si Si5 0.346376 0.406110 0.520102
Si Si6 0.114579 0.999799 0.106702
O O1 0.091533 0.545767 0.437110
O O2 0.159948 0.511543 0.392743
O O3 0.084254 0.449893 0.468858
O O4 0.044339 0.455522 0.367988
O O5 0.379159 0.758317 0.414815
O O6 0.459871 0.729936 0.405326
O O7 0.459962 0.792531 0.493214
O O8 0.146301 0.292601 0.950584
O O9 0.228744 0.284060 0.905851
O O10 0.214531 0.273857 0.015573
O O11 0.127340 0.254679 0.084007
O O12 0.016094 0.174126 0.073088
O O13 0.050562 0.275804 0.124947
O O14 0.349043 0.349043 0.500000
O O15 0.047951 0.952050 0.092779
O O16 0.125923 0.062962 0.086453
#
# Coordination Sequence:
#
# PCOD8324005 Si02
#       6
#    36  36  36  36  36  36
#     4   9  16  26  40  57  77 103 134 168 203 238
#     4   9  15  23  37  58  83 107 133 162 194 232
#     4   9  18  29  40  55  77 104 133 169 208 240
#     4  10  19  30  42  59  82 105 132 165 204 247
#     4  10  18  28  42  58  75  98 132 170 205 239
#     4   9  16  25  39  58  83 112 141 168 193 226
#
# _framework density 14.977925000000001
#
# number of rings (size 3 to 8) (size 9 to 14) (size 15 to 20)
#    0.000    2.667    1.667    1.333    0.000    4.000 
#    0.000    0.833    0.000    0.000    0.000    1.167 
#    0.000   24.000    0.000    0.000    0.000    0.000 
#
# Total GULP energy -892077.007445 kJ/mol
# GULP energy per Si atom -12389.958437 kJ/mol
# Density = 1.494384 g / cm^3
# Si number density = 14.977925 Si / 1000 Ang^3
#
#
#
# Elastic Constant Matrix: (Units=GPa)
#
#
# Indices 1 2 3 4 5 6 
#
# 1 80.3891 31.3409 22.9784 11.1800 0.0000 0.0000
# 2 31.3409 80.3891 22.9784 -11.1800 0.0000 0.0000
# 3 22.9784 22.9784 34.0475 0.0000 0.0000 0.0000
# 4 11.1800 -11.1800 0.0000 23.9530 0.0000 0.0000
# 5 0.0000 0.0000 0.0000 0.0000 23.9530 11.1800
# 6 0.0000 0.0000 0.0000 0.0000 11.1800 24.5241
#
#
#
# Elastic Compliance Matrix: (Units=1/GPa)
#
#
# Indices 1 2 3 4 5 6 
#
# 1 0.019144 -0.006755 -0.008361 -0.012088 0.000000 0.000000
# 2 -0.006755 0.019144 -0.008361 0.012088 0.000000 0.000000
# 3 -0.008361 -0.008361 0.040657 0.000000 0.000000 0.000000
# 4 -0.012088 0.012088 0.000000 0.053033 0.000000 0.000000
# 5 0.000000 0.000000 0.000000 0.000000 0.053033 -0.024177
# 6 0.000000 0.000000 0.000000 0.000000 -0.024177 0.051798
#
#
# Mechanical properties :
#
#
# Convention : Reuss Voigt Hill
#
# Bulk Modulus (GPa) = 31.26001 38.82456 35.04228
# Shear Modulus (GPa) = 16.98212 22.32124 19.65168
#
# Velocity S-wave (km/s) = 3.37086 3.86460 3.62614
# Velocity P-wave (km/s) = 6.00552 6.77428 6.40145
#
# Compressibility (1/GPa) = 0.03198975
#
# Stress axis : x y z
#
# Youngs Moduli (GPa) = 52.23530 52.23530 24.59604
#
# Poissons Ratio (x) = 0.35284 0.20566
# Poissons Ratio (y) = 0.35284 0.20566
# Poissons Ratio (z) = 0.43676 0.43676
#
# Static dielectric constant tensor:
#      x y z
#    x 3.137040 0.000000 0.000000 
#    y 0.000000 3.137040 0.000000 
#    z 0.000000 0.000000 2.643030 
# 
# 
# High freq. dielectric constant tensor:
#      x y z
#    x 1.569760 0.000000 0.000000 
#    y 0.000000 1.569760 0.000000 
#    z 0.000000 0.000000 1.518750 
# 
# From -- ./inp_files/7131.got.cif
#   From: 2010.03.12/outbox.cif.g09.slc.cpg/sg166_4_cif.got.tgz:7131.got - 2010.04.02 06:38:31.
