data_PCOD8324661
_publ_section_title
;
Structure prediction by ZEFSAII (Michael W. Deem and Ramdas Pophale) SiO2 
 PCOD8324661
Probable space group: P 65
;
_chemical_formula_sum "Si O2"
_cell_formula_units_Z 48
_cell_length_a 12.809582
_cell_length_b 12.809582
_cell_length_c 19.028183
_cell_angle_alpha 90.000000
_cell_angle_beta 90.000000
_cell_angle_gamma 120.000000
_cell_volume 2703.945087
_symmetry_space_group_name_H-M "P 65"
_symmetry_group_IT_number 170
_symmetry_cell_setting 'hexagonal'
loop_
_space_group_symop_operation_xyz
x,y,z
x-y,x,5/6+z
-y,x-y,2/3+z
-x,-y,1/2+z
-x+y,-x,1/3+z
y,-x+y,1/6+z
loop_
_atom_site_type_symbol
_atom_site_label
_atom_site_fract_x
_atom_site_fract_y
_atom_site_fract_z
Si Si1 0.458306 0.591499 0.218320
Si Si2 0.793310 0.445491 0.206595
Si Si3 0.216845 0.781794 0.273742
Si Si4 0.216845 0.781794 0.773742
Si Si5 0.963922 0.599331 0.825962
Si Si6 0.347819 0.793310 0.539928
Si Si7 0.400669 0.364591 0.992629
Si Si8 0.133193 0.541693 0.051653
O O1 0.469613 0.602688 0.301936
O O2 0.542827 0.718687 0.181851
O O3 0.322669 0.541971 0.192261
O O4 0.500000 0.500000 0.191828
O O5 0.752529 0.312885 0.236483
O O6 0.874987 0.547351 0.260846
O O7 0.677330 0.458029 0.192261
O O8 0.247471 0.687115 0.236483
O O9 0.266980 0.897694 0.221658
O O10 0.281312 0.824140 0.348518
O O11 0.076436 0.720852 0.294486
O O12 0.266980 0.897694 0.721659
O O13 0.076436 0.720852 0.794486
O O14 0.874987 0.547351 0.760846
O O15 0.000000 0.500000 0.851799
O O16 0.397311 0.866924 0.468603
#
# Coordination Sequence:
#
# PCOD8324661 Si02
#       8
#     6   6   6   6   6   6   6   6
#     4  12  23  34  57  84 116 150 192 230 285 346
#     4  11  21  37  53  83 121 151 181 237 284 342
#     4  11  21  37  57  81 117 151 188 232 291 341
#     4  11  21  37  57  81 117 151 188 232 291 341
#     4  10  21  36  57  80 118 153 187 232 290 339
#     4  11  21  37  53  83 121 151 181 237 284 342
#     4  10  21  36  57  80 118 153 187 232 290 339
#     4  12  23  34  57  84 116 150 192 230 285 346
#
# _framework density 17.751840999999999
#
# number of rings (size 3 to 8) (size 9 to 14) (size 15 to 20)
#    0.000    1.000    5.000    4.500    3.500    0.000 
#    0.000    0.000    0.000    0.000    0.000    5.250 
#    0.000    0.000    0.000    0.000    0.000    0.000 
#
# Total GULP energy -595185.066113 kJ/mol
# GULP energy per Si atom -12399.688877 kJ/mol
# Density = 1.771144 g / cm^3
# Si number density = 17.751841 Si / 1000 Ang^3
#
#
#
# Elastic Constant Matrix: (Units=GPa)
#
#
# Indices 1 2 3 4 5 6 
#
# 1 92.0735 45.2574 25.1039 0.0000 0.0000 0.0000
# 2 45.2574 92.0735 25.1039 0.0000 0.0000 0.0000
# 3 25.1039 25.1039 90.6822 0.0000 0.0000 0.0000
# 4 0.0000 0.0000 0.0000 24.3546 0.0000 0.0000
# 5 0.0000 0.0000 0.0000 0.0000 24.3546 0.0000
# 6 0.0000 0.0000 0.0000 0.0000 0.0000 23.4080
#
#
#
# Elastic Compliance Matrix: (Units=1/GPa)
#
#
# Indices 1 2 3 4 5 6 
#
# 1 0.014731 -0.006629 -0.002243 0.000000 0.000000 0.000000
# 2 -0.006629 0.014731 -0.002243 0.000000 0.000000 0.000000
# 3 -0.002243 -0.002243 0.012269 0.000000 0.000000 0.000000
# 4 0.000000 0.000000 0.000000 0.041060 0.000000 0.000000
# 5 0.000000 0.000000 0.000000 0.000000 0.041060 0.000000
# 6 0.000000 0.000000 0.000000 0.000000 0.000000 0.042720
#
#
# Mechanical properties :
#
#
# Convention : Reuss Voigt Hill
#
# Bulk Modulus (GPa) = 51.27851 51.75107 51.51479
# Shear Modulus (GPa) = 25.60139 26.38102 25.99120
#
# Velocity S-wave (km/s) = 3.80173 3.85918 3.83056
# Velocity P-wave (km/s) = 6.94405 7.00525 6.97472
#
# Compressibility (1/GPa) = 0.01950135
#
# Stress axis : x y z
#
# Youngs Moduli (GPa) = 67.88439 67.88439 81.50429
#
# Poissons Ratio (x) = 0.45002 0.18280
# Poissons Ratio (y) = 0.45002 0.18280
# Poissons Ratio (z) = 0.15225 0.15225
#
# Static dielectric constant tensor:
#      x y z
#    x 3.212220 0.000000 0.000000 
#    y 0.000000 3.212220 0.000000 
#    z 0.000000 0.000000 3.412770 
# 
# 
# High freq. dielectric constant tensor:
#      x y z
#    x 1.665070 0.000000 0.000000 
#    y 0.000000 1.665070 0.000000 
#    z 0.000000 0.000000 1.709390 
# 
# From -- ./inp_files/1611.got.cif
#   From: 2010.03.12/outbox.cif.g09.slc.cpg/sg170_cif.got.tgz:1611.got - 2010.04.02 06:47:37.
