data_PCOD8324631
_publ_section_title
;
Structure prediction by ZEFSAII (Michael W. Deem and Ramdas Pophale) SiO2 
 PCOD8324631
Probable space group: P 65
;
_chemical_formula_sum "Si O2"
_cell_formula_units_Z 48
_cell_length_a 17.001057
_cell_length_b 17.001057
_cell_length_c 8.219936
_cell_angle_alpha 90.000000
_cell_angle_beta 90.000000
_cell_angle_gamma 120.000000
_cell_volume 2057.552450
_symmetry_space_group_name_H-M "P 65"
_symmetry_group_IT_number 170
_symmetry_cell_setting 'hexagonal'
loop_
_space_group_symop_operation_xyz
x,y,z
x-y,x,5/6+z
-y,x-y,2/3+z
-x,-y,1/2+z
-x+y,-x,1/3+z
y,-x+y,1/6+z
loop_
_atom_site_type_symbol
_atom_site_label
_atom_site_fract_x
_atom_site_fract_y
_atom_site_fract_z
Si Si1 0.582264 0.095198 0.767460
Si Si2 0.066445 0.484947 0.578287
Si Si3 0.394484 0.687406 0.657240
Si Si4 0.465096 0.159030 0.344057
Si Si5 0.908202 0.819477 0.939575
Si Si6 0.127894 0.369494 0.375049
Si Si7 0.029848 0.165702 0.948934
Si Si8 0.031698 0.328452 0.053544
O O1 0.592825 0.053043 0.600012
O O2 0.603963 0.197836 0.762263
O O3 0.659460 0.096007 0.880605
O O4 0.481377 0.032102 0.834029
O O5 0.130683 0.593899 0.575614
O O6 0.109976 0.431506 0.496485
O O7 0.332299 0.690008 0.511670
O O8 0.489500 0.783628 0.676906
O O9 0.443473 0.218332 0.468613
O O10 0.367691 0.068638 0.321639
O O11 0.869463 0.712118 0.971670
O O12 0.866897 0.830241 0.770826
O O13 0.018394 0.877035 0.923828
O O14 0.045630 0.314407 0.244571
O O15 0.967872 0.111940 0.793785
O O16 0.067447 0.274000 0.940925
#
# Coordination Sequence:
#
# PCOD8324631 Si02
#       8
#     6   6   6   6   6   6   6   6
#     4  11  26  45  67 100 136 183 229 292 354 427
#     4  11  26  43  70  99 138 184 233 290 362 429
#     4  12  27  46  71 106 144 187 238 298 363 433
#     4  11  22  38  69  98 132 180 234 292 350 423
#     4  10  19  35  67  99 134 180 237 295 350 432
#     4  12  20  41  70 101 137 186 241 295 358 437
#     4  10  18  34  64  97 128 173 228 278 339 420
#     4  11  20  38  68  98 131 177 232 284 352 417
#
# _framework density 23.328689000000001
#
# number of rings (size 3 to 8) (size 9 to 14) (size 15 to 20)
#    0.000    1.000    5.000    3.000    3.500    1.000 
#    0.000    0.000   16.500    0.000    0.000    0.000 
#    0.000    0.000    0.000    0.000    0.000    0.000 
#
# Total GULP energy -594802.281736 kJ/mol
# GULP energy per Si atom -12391.714203 kJ/mol
# Density = 2.327559 g / cm^3
# Si number density = 23.328689 Si / 1000 Ang^3
#
#
#
# Elastic Constant Matrix: (Units=GPa)
#
#
# Indices 1 2 3 4 5 6 
#
# 1 81.6328 22.0692 13.5628 0.0000 0.0000 0.0000
# 2 22.0692 81.6328 13.5628 0.0000 0.0000 0.0000
# 3 13.5628 13.5628 70.0924 0.0000 0.0000 0.0000
# 4 0.0000 0.0000 0.0000 17.4680 0.0000 0.0000
# 5 0.0000 0.0000 0.0000 0.0000 17.4680 0.0000
# 6 0.0000 0.0000 0.0000 0.0000 0.0000 29.7818
#
#
#
# Elastic Compliance Matrix: (Units=1/GPa)
#
#
# Indices 1 2 3 4 5 6 
#
# 1 0.013473 -0.003316 -0.001965 0.000000 0.000000 0.000000
# 2 -0.003316 0.013473 -0.001965 0.000000 0.000000 0.000000
# 3 -0.001965 -0.001965 0.015027 0.000000 0.000000 0.000000
# 4 0.000000 0.000000 0.000000 0.057248 0.000000 0.000000
# 5 0.000000 0.000000 0.000000 0.000000 0.057248 0.000000
# 6 0.000000 0.000000 0.000000 0.000000 0.000000 0.033578
#
#
# Mechanical properties :
#
#
# Convention : Reuss Voigt Hill
#
# Bulk Modulus (GPa) = 36.38992 36.86086 36.62539
# Shear Modulus (GPa) = 23.39736 25.22110 24.30923
#
# Velocity S-wave (km/s) = 3.17036 3.29161 3.23155
# Velocity P-wave (km/s) = 5.38834 5.50283 5.44589
#
# Compressibility (1/GPa) = 0.02748013
#
# Stress axis : x y z
#
# Youngs Moduli (GPa) = 74.22285 74.22285 66.54477
#
# Poissons Ratio (x) = 0.24611 0.13079
# Poissons Ratio (y) = 0.24611 0.13079
# Poissons Ratio (z) = 0.14588 0.14588
#
# Static dielectric constant tensor:
#      x y z
#    x 4.421510 0.000000 0.000000 
#    y 0.000000 4.421510 0.000000 
#    z 0.000000 0.000000 3.819990 
# 
# 
# High freq. dielectric constant tensor:
#      x y z
#    x 1.933770 0.000000 0.000000 
#    y 0.000000 1.933770 0.000000 
#    z 0.000000 0.000000 1.886950 
# 
# From -- ./inp_files/717.got.cif
#   From: 2010.03.12/outbox.cif.g09.slc.cpg/sg170_cif.got.tgz:717.got - 2010.04.02 06:47:37.
