data_PCOD8324572
_publ_section_title
;
Structure prediction by ZEFSAII (Michael W. Deem and Ramdas Pophale) SiO2 
 PCOD8324572
Probable space group: P 61
;
_chemical_formula_sum "Si O2"
_cell_formula_units_Z 36
_cell_length_a 15.846081
_cell_length_b 15.846081
_cell_length_c 7.645419
_cell_angle_alpha 90.000000
_cell_angle_beta 90.000000
_cell_angle_gamma 120.000000
_cell_volume 1662.553641
_symmetry_space_group_name_H-M "P 61"
_symmetry_group_IT_number 169
_symmetry_cell_setting 'hexagonal'
loop_
_space_group_symop_operation_xyz
x,y,z
x-y,x,1/6+z
-y,x-y,1/3+z
-x,-y,1/2+z
-x+y,-x,2/3+z
y,-x+y,5/6+z
loop_
_atom_site_type_symbol
_atom_site_label
_atom_site_fract_x
_atom_site_fract_y
_atom_site_fract_z
Si Si1 0.134114 0.751883 0.963390
Si Si2 0.103676 0.553151 0.093791
Si Si3 0.751882 0.134114 0.803320
Si Si4 0.000000 0.180330 0.550024
Si Si5 0.550525 0.446850 0.339588
Si Si6 0.244507 0.489015 0.966689
O O1 0.050284 0.778542 0.913220
O O2 0.207264 0.785761 0.802715
O O3 0.092346 0.639447 0.009330
O O4 0.187143 0.812857 0.133355
O O5 0.125706 0.562854 0.300023
O O6 0.193570 0.554330 0.991857
O O7 0.000001 0.455331 0.050023
O O8 0.639447 0.092345 0.757379
O O9 0.778542 0.050286 0.853494
O O10 0.785759 0.207266 0.963993
O O11 0.079194 0.158388 0.466691
O O12 0.639239 0.445671 0.441525
#
# Coordination Sequence:
#
# PCOD8324572 Si02
#       6
#     6   6   6   6   6   6
#     4  11  23  45  70 102 145 187 237 298 357 430
#     4  12  25  45  71 104 149 193 242 295 353 431
#     4  11  23  45  70 102 145 187 237 298 357 430
#     4  10  24  48  74 104 140 188 240 308 372 422
#     4  12  25  45  71 104 149 193 242 295 353 431
#     4  12  26  42  74 106 142 200 240 288 358 426
#
# _framework density 21.653437
#
# number of rings (size 3 to 8) (size 9 to 14) (size 15 to 20)
#    0.000    0.667    5.000    3.000    0.000    2.667 
#    6.000    0.000    0.000    0.000    0.000    0.000 
#    0.000    0.000    0.000    0.000    0.000    0.000 
#
# Total GULP energy -446226.083716 kJ/mol
# GULP energy per Si atom -12395.168992 kJ/mol
# Density = 2.160415 g / cm^3
# Si number density = 21.653437 Si / 1000 Ang^3
#
#
#
# Elastic Constant Matrix: (Units=GPa)
#
#
# Indices 1 2 3 4 5 6 
#
# 1 149.8063 76.7979 36.1438 0.0000 0.0000 0.0000
# 2 76.7979 149.8063 36.1438 0.0000 0.0000 0.0000
# 3 36.1438 36.1438 113.9814 0.0000 0.0000 0.0000
# 4 0.0000 0.0000 0.0000 26.2240 0.0000 0.0000
# 5 0.0000 0.0000 0.0000 0.0000 26.2240 0.0000
# 6 0.0000 0.0000 0.0000 0.0000 0.0000 36.5042
#
#
#
# Elastic Compliance Matrix: (Units=1/GPa)
#
#
# Indices 1 2 3 4 5 6 
#
# 1 0.009303 -0.004394 -0.001557 0.000000 0.000000 0.000000
# 2 -0.004394 0.009303 -0.001557 0.000000 0.000000 0.000000
# 3 -0.001557 -0.001557 0.009761 0.000000 0.000000 0.000000
# 4 0.000000 0.000000 0.000000 0.038133 0.000000 0.000000
# 5 0.000000 0.000000 0.000000 0.000000 0.038133 0.000000
# 6 0.000000 0.000000 0.000000 0.000000 0.000000 0.027394
#
#
# Mechanical properties :
#
#
# Convention : Reuss Voigt Hill
#
# Bulk Modulus (GPa) = 74.89206 79.08502 76.98854
# Shear Modulus (GPa) = 33.00477 35.42432 34.21455
#
# Velocity S-wave (km/s) = 3.90837 4.04910 3.97936
# Velocity P-wave (km/s) = 7.41815 7.64609 7.53298
#
# Compressibility (1/GPa) = 0.01335255
#
# Stress axis : x y z
#
# Youngs Moduli (GPa) = 107.48820 107.48820 102.45140
#
# Poissons Ratio (x) = 0.47227 0.15950
# Poissons Ratio (y) = 0.47227 0.15950
# Poissons Ratio (z) = 0.16734 0.16734
#
# Static dielectric constant tensor:
#      x y z
#    x 4.189000 0.000000 0.000000 
#    y 0.000000 4.189000 0.000000 
#    z 0.000000 0.000000 3.859090 
# 
# 
# High freq. dielectric constant tensor:
#      x y z
#    x 1.860360 0.000000 0.000000 
#    y 0.000000 1.860360 0.000000 
#    z 0.000000 0.000000 1.837700 
# 
# From -- ./inp_files/598.got.cif
#   From: 2010.03.12/outbox.cif.g09.slc.cpg/sg169_cif.got.tgz:598.got - 2010.04.02 06:46:06.
