data_PCOD8324210
_publ_section_title
;
Structure prediction by ZEFSAII (Michael W. Deem and Ramdas Pophale) SiO2 
 PCOD8324210
Probable space group: R -3 M
;
_chemical_formula_sum "Si O2"
_cell_formula_units_Z 144
_cell_length_a 20.641119
_cell_length_b 20.641119
_cell_length_c 21.499776
_cell_angle_alpha 90.000000
_cell_angle_beta 90.000000
_cell_angle_gamma 120.000000
_cell_volume 7932.882874
_symmetry_space_group_name_H-M "R -3 M"
_symmetry_group_IT_number 166
_symmetry_cell_setting 'hexagonal'
loop_
_space_group_symop_operation_xyz
x,y,z
-y,x-y,z
-x+y,-x,z
x-y,-y,-z
-x,-x+y,-z
y,x,-z
-x,-y,-z
y,-x+y,-z
x-y,x,-z
-x+y,y,z
x,x-y,z
-y,-x,z
2/3+x,1/3+y,1/3+z
2/3-y,1/3+x-y,1/3+z
2/3-x+y,1/3-x,1/3+z
2/3+x-y,1/3-y,1/3-z
2/3-x,1/3-x+y,1/3-z
2/3+y,1/3+x,1/3-z
2/3-x,1/3-y,1/3-z
2/3+y,1/3-x+y,1/3-z
2/3+x-y,1/3+x,1/3-z
2/3-x+y,1/3+y,1/3+z
2/3+x,1/3+x-y,1/3+z
2/3-y,1/3-x,1/3+z
1/3+x,2/3+y,2/3+z
1/3-y,2/3+x-y,2/3+z
1/3-x+y,2/3-x,2/3+z
1/3+x-y,2/3-y,2/3-z
1/3-x,2/3-x+y,2/3-z
1/3+y,2/3+x,2/3-z
1/3-x,2/3-y,2/3-z
1/3+y,2/3-x+y,2/3-z
1/3+x-y,2/3+x,2/3-z
1/3-x+y,2/3+y,2/3+z
1/3+x,2/3+x-y,2/3+z
1/3-y,2/3-x,2/3+z
loop_
_atom_site_type_symbol
_atom_site_label
_atom_site_fract_x
_atom_site_fract_y
_atom_site_fract_z
Si Si1 0.880008 0.515123 0.266198
Si Si2 0.376958 0.188479 0.067095
Si Si3 0.300690 0.926971 0.030541
Si Si4 0.111002 0.888999 0.861470
Si Si5 0.853959 0.000096 0.573532
O O1 0.885695 0.442847 0.253224
O O2 0.844848 0.511515 0.333334
O O3 0.823799 0.514723 0.214298
O O4 0.964551 0.585431 0.262610
O O5 0.299723 0.149862 0.102920
O O6 0.440944 0.220472 0.119811
O O7 0.382023 0.128159 0.024812
O O8 0.333273 0.887905 0.074700
O O9 0.370275 0.000000 0.000000
O O10 0.853405 0.926703 0.600725
O O11 0.858465 0.000000 0.500000
O O12 0.926024 0.073977 0.600643
#
# Coordination Sequence:
#
# PCOD8324210 Si02
#       5
#    36  18  36  18  36
#     4  11  18  34  55  81 111 145 193 240 278 324
#     4  11  20  36  56  80 115 154 190 229 281 361
#     4  11  20  35  59  85 116 149 186 235 296 344
#     4  11  22  34  55  84 110 156 200 226 277 349
#     4  10  21  38  61  86 111 145 194 241 286 343
#
# _framework density 18.152291999999999
#
# number of rings (size 3 to 8) (size 9 to 14) (size 15 to 20)
#    0.000    1.250    8.750    0.250    0.000    3.500 
#    0.750    1.875    0.000    0.000    0.000    0.000 
#    0.000    0.000    0.000    0.000    0.000    0.000 
#
# Total GULP energy -595135.217176 kJ/mol
# GULP energy per Si atom -12398.650358 kJ/mol
# Density = 1.811098 g / cm^3
# Si number density = 18.152292 Si / 1000 Ang^3
#
#
#
# Elastic Constant Matrix: (Units=GPa)
#
#
# Indices 1 2 3 4 5 6 
#
# 1 104.9959 46.6775 15.9435 -5.1130 0.0001 0.0000
# 2 46.6775 104.9959 15.9435 5.1130 -0.0001 0.0000
# 3 15.9435 15.9435 38.9051 0.0000 0.0000 0.0000
# 4 -5.1130 5.1130 0.0000 28.5294 0.0000 -0.0001
# 5 0.0001 -0.0001 0.0000 0.0000 28.5294 -5.1130
# 6 0.0000 0.0000 0.0000 -0.0001 -5.1130 29.1592
#
#
#
# Elastic Compliance Matrix: (Units=1/GPa)
#
#
# Indices 1 2 3 4 5 6 
#
# 1 0.012459 -0.005244 -0.002957 0.003173 0.000000 0.000000
# 2 -0.005244 0.012459 -0.002957 -0.003173 0.000000 0.000000
# 3 -0.002957 -0.002957 0.028127 0.000000 0.000000 0.000000
# 4 0.003173 -0.003173 0.000000 0.036189 0.000000 0.000000
# 5 0.000000 0.000000 0.000000 0.000000 0.036189 0.006346
# 6 0.000000 0.000000 0.000000 0.000000 0.006346 0.035407
#
#
# Mechanical properties :
#
#
# Convention : Reuss Voigt Hill
#
# Bulk Modulus (GPa) = 32.54173 45.11401 38.82787
# Shear Modulus (GPa) = 25.85469 28.59910 27.22690
#
# Velocity S-wave (km/s) = 3.77811 3.97357 3.87708
# Velocity P-wave (km/s) = 6.08261 6.77934 6.44040
#
# Compressibility (1/GPa) = 0.03072977
#
# Stress axis : x y z
#
# Youngs Moduli (GPa) = 80.26242 80.26242 35.55316
#
# Poissons Ratio (x) = 0.42093 0.10512
# Poissons Ratio (y) = 0.42093 0.10512
# Poissons Ratio (z) = 0.23731 0.23731
#
# Static dielectric constant tensor:
#      x y z
#    x 3.479070 0.000000 0.000000 
#    y 0.000000 3.479070 0.000000 
#    z 0.000000 0.000000 3.403290 
# 
# 
# High freq. dielectric constant tensor:
#      x y z
#    x 1.703790 0.000000 0.000000 
#    y 0.000000 1.703790 0.000000 
#    z 0.000000 0.000000 1.680070 
# 
# From -- ./inp_files/8092.got.cif
#   From: 2010.03.12/outbox.cif.g09.slc.cpg/sg166_5_cif.got.tgz:8092.got - 2010.04.02 06:38:31.
