data_PCOD8324263
_publ_section_title
;
Structure prediction by ZEFSAII (Michael W. Deem and Ramdas Pophale) SiO2 
 PCOD8324263
Probable space group: R -3 C 
;
_chemical_formula_sum "Si O2"
_cell_formula_units_Z 162
_cell_length_a 21.491556
_cell_length_b 21.491556
_cell_length_c 24.653881
_cell_angle_alpha 90.000000
_cell_angle_beta 90.000000
_cell_angle_gamma 120.000000
_cell_volume 9861.696816
_symmetry_space_group_name_H-M "R -3 C "
_symmetry_group_IT_number 167
_symmetry_cell_setting 'hexagonal'
loop_
_space_group_symop_operation_xyz
x,y,z
-y,x-y,z
-x+y,-x,z
x-y,-y,1/2-z
-x,-x+y,1/2-z
y,x,1/2-z
-x,-y,-z
y,-x+y,-z
x-y,x,-z
-x+y,y,1/2+z
x,x-y,1/2+z
-y,-x,1/2+z
2/3+x,1/3+y,1/3+z
2/3-y,1/3+x-y,1/3+z
2/3-x+y,1/3-x,1/3+z
2/3+x-y,1/3-y,5/6-z
2/3-x,1/3-x+y,5/6-z
2/3+y,1/3+x,5/6-z
2/3-x,1/3-y,1/3-z
2/3+y,1/3-x+y,1/3-z
2/3+x-y,1/3+x,1/3-z
2/3-x+y,1/3+y,5/6+z
2/3+x,1/3+x-y,5/6+z
2/3-y,1/3-x,5/6+z
1/3+x,2/3+y,2/3+z
1/3-y,2/3+x-y,2/3+z
1/3-x+y,2/3-x,2/3+z
1/3+x-y,2/3-y,1/6-z
1/3-x,2/3-x+y,1/6-z
1/3+y,2/3+x,1/6-z
1/3-x,2/3-y,2/3-z
1/3+y,2/3-x+y,2/3-z
1/3+x-y,2/3+x,2/3-z
1/3-x+y,2/3+y,1/6+z
1/3+x,2/3+x-y,1/6+z
1/3-y,2/3-x,1/6+z
loop_
_atom_site_type_symbol
_atom_site_label
_atom_site_fract_x
_atom_site_fract_y
_atom_site_fract_z
Si Si1 0.651810 0.535091 0.733074
Si Si2 0.276372 0.347656 0.669564
Si Si3 0.392780 0.857356 0.232040
Si Si4 0.333334 0.063696 0.916667
Si Si5 0.232809 0.784915 0.220072
O O1 0.630357 0.560337 0.677881
O O2 0.629011 0.566402 0.783190
O O3 0.609331 0.447896 0.737669
O O4 0.737221 0.563551 0.734343
O O5 0.348986 0.358609 0.696977
O O6 0.236070 0.374734 0.711251
O O7 0.309802 0.797069 0.240501
O O8 0.404317 0.863750 0.167564
O O9 0.407499 0.932049 0.258364
#
# Coordination Sequence:
#
# PCOD8324263 Si02
#       5
#    36  36  36  18  36
#     4  10  18  31  44  68  94 128 151 187 230 272
#     4   9  19  28  48  65  92 124 153 194 223 272
#     4  10  17  27  45  65  98 121 147 186 223 287
#     4  10  16  30  46  70  88 126 158 178 240 268
#     4  10  16  29  44  71  92 123 155 177 231 285
#
# _framework density 16.427192999999999
#
# number of rings (size 3 to 8) (size 9 to 14) (size 15 to 20)
#    0.000    2.222    6.667    2.667    0.000    0.000 
#    1.333    5.556    0.000    0.000    0.000    0.000 
#    0.000    0.000    0.000    0.000    0.000    0.000 
#
# Total GULP energy -669224.292967 kJ/mol
# GULP energy per Si atom -12393.042462 kJ/mol
# Density = 1.638980 g / cm^3
# Si number density = 16.427193 Si / 1000 Ang^3
#
#
#
# Elastic Constant Matrix: (Units=GPa)
#
#
# Indices 1 2 3 4 5 6 
#
# 1 85.3719 46.1585 22.5967 5.8753 0.0002 0.0000
# 2 46.1585 85.3719 22.5967 -5.8753 -0.0002 0.0000
# 3 22.5967 22.5967 24.4426 0.0000 0.0000 0.0000
# 4 5.8753 -5.8753 0.0000 16.4386 0.0000 -0.0002
# 5 0.0002 -0.0002 0.0000 0.0000 16.4386 5.8753
# 6 0.0000 0.0000 0.0000 -0.0002 5.8753 19.6067
#
#
#
# Elastic Compliance Matrix: (Units=1/GPa)
#
#
# Indices 1 2 3 4 5 6 
#
# 1 0.019851 -0.008709 -0.010301 -0.010208 0.000000 0.000000
# 2 -0.008709 0.019851 -0.010301 0.010208 0.000000 0.000000
# 3 -0.010301 -0.010301 0.059957 0.000000 0.000000 0.000000
# 4 -0.010208 0.010208 0.000000 0.068129 0.000000 0.000001
# 5 0.000000 0.000000 0.000000 0.000000 0.068129 -0.020415
# 6 0.000000 0.000000 0.000000 0.000001 -0.020415 0.057121
#
#
# Mechanical properties :
#
#
# Convention : Reuss Voigt Hill
#
# Bulk Modulus (GPa) = 24.36693 41.98778 33.17736
# Shear Modulus (GPa) = 13.68593 17.41908 15.55250
#
# Velocity S-wave (km/s) = 2.88952 3.25988 3.08027
# Velocity P-wave (km/s) = 5.09882 6.30750 5.73509
#
# Compressibility (1/GPa) = 0.04103923
#
# Stress axis : x y z
#
# Youngs Moduli (GPa) = 50.37492 50.37492 16.67850
#
# Poissons Ratio (x) = 0.43872 0.17180
# Poissons Ratio (y) = 0.43872 0.17180
# Poissons Ratio (z) = 0.51889 0.51889
#
# Static dielectric constant tensor:
#      x y z
#    x 3.248120 0.000000 0.000000 
#    y 0.000000 3.248120 0.000000 
#    z 0.000000 0.000000 2.818850 
# 
# 
# High freq. dielectric constant tensor:
#      x y z
#    x 1.630350 0.000000 0.000000 
#    y 0.000000 1.630350 0.000000 
#    z 0.000000 0.000000 1.577140 
# 
# From -- ./inp_files/5293.got.cif
#   From: 2010.03.12/outbox.cif.g09.slc.cpg/sg167_3_cif.got.tgz:5293.got - 2010.04.02 06:42:56.
