data_PCOD8324392
_publ_section_title
;
Structure prediction by ZEFSAII (Michael W. Deem and Ramdas Pophale) SiO2 
 PCOD8324392
Probable space group: R -3 C 
;
_chemical_formula_sum "Si O2"
_cell_formula_units_Z 108
_cell_length_a 14.845546
_cell_length_b 14.845546
_cell_length_c 25.467878
_cell_angle_alpha 90.000000
_cell_angle_beta 90.000000
_cell_angle_gamma 120.000000
_cell_volume 4860.889432
_symmetry_space_group_name_H-M "R -3 C "
_symmetry_group_IT_number 167
_symmetry_cell_setting 'hexagonal'
loop_
_space_group_symop_operation_xyz
x,y,z
-y,x-y,z
-x+y,-x,z
x-y,-y,1/2-z
-x,-x+y,1/2-z
y,x,1/2-z
-x,-y,-z
y,-x+y,-z
x-y,x,-z
-x+y,y,1/2+z
x,x-y,1/2+z
-y,-x,1/2+z
2/3+x,1/3+y,1/3+z
2/3-y,1/3+x-y,1/3+z
2/3-x+y,1/3-x,1/3+z
2/3+x-y,1/3-y,5/6-z
2/3-x,1/3-x+y,5/6-z
2/3+y,1/3+x,5/6-z
2/3-x,1/3-y,1/3-z
2/3+y,1/3-x+y,1/3-z
2/3+x-y,1/3+x,1/3-z
2/3-x+y,1/3+y,5/6+z
2/3+x,1/3+x-y,5/6+z
2/3-y,1/3-x,5/6+z
1/3+x,2/3+y,2/3+z
1/3-y,2/3+x-y,2/3+z
1/3-x+y,2/3-x,2/3+z
1/3+x-y,2/3-y,1/6-z
1/3-x,2/3-x+y,1/6-z
1/3+y,2/3+x,1/6-z
1/3-x,2/3-y,2/3-z
1/3+y,2/3-x+y,2/3-z
1/3+x-y,2/3+x,2/3-z
1/3-x+y,2/3+y,1/6+z
1/3+x,2/3+x-y,1/6+z
1/3-y,2/3-x,1/6+z
loop_
_atom_site_type_symbol
_atom_site_label
_atom_site_fract_x
_atom_site_fract_y
_atom_site_fract_z
Si Si1 0.593665 0.984316 0.632544
Si Si2 0.423806 0.296228 0.025319
Si Si3 0.788961 0.349498 0.428199
O O1 0.662663 0.984164 0.681036
O O2 0.507622 0.865928 0.618047
O O3 0.666667 0.040061 0.583334
O O4 0.541131 0.049978 0.650139
O O5 0.467253 0.333334 0.083334
O O6 0.517770 0.359973 0.984802
O O7 0.761491 0.442368 0.423418
#
# Coordination Sequence:
#
# PCOD8324392 Si02
#       3
#    36  36  36
#     4  10  25  42  64  95 131 174 219 267 331 395
#     4  11  26  40  68  96 135 175 219 279 332 398
#     4   9  23  42  69  96 131 171 229 266 331 396
#
# _framework density 22.218154999999999
#
# number of rings (size 3 to 8) (size 9 to 14) (size 15 to 20)
#    0.667    1.333    0.000    0.000   14.000    4.000 
#    0.000    1.667    0.000    0.000    0.000    0.000 
#    0.000    0.000    0.000    0.000    0.000    0.000 
#
# Total GULP energy -446392.947330 kJ/mol
# GULP energy per Si atom -12399.804093 kJ/mol
# Density = 2.216759 g / cm^3
# Si number density = 22.218155 Si / 1000 Ang^3
#
#
#
# Elastic Constant Matrix: (Units=GPa)
#
#
# Indices 1 2 3 4 5 6 
#
# 1 57.6953 25.0933 -10.0740 13.4059 -0.0004 0.0000
# 2 25.0933 57.6953 -10.0740 -13.4059 0.0004 0.0000
# 3 -10.0740 -10.0740 34.0054 0.0000 0.0000 0.0000
# 4 13.4059 -13.4059 0.0000 7.1605 0.0000 0.0004
# 5 -0.0004 0.0004 0.0000 0.0000 7.1605 13.4059
# 6 0.0000 0.0000 0.0000 0.0004 13.4059 16.3010
#
#
#
# Elastic Compliance Matrix: (Units=1/GPa)
#
#
# Indices 1 2 3 4 5 6 
#
# 1 -0.021909 0.034926 0.003856 0.106406 -0.000003 0.000000
# 2 0.034926 -0.021909 0.003856 -0.106406 0.000003 0.000000
# 3 0.003856 0.003856 0.031692 0.000000 0.000000 0.000000
# 4 0.106406 -0.106406 0.000000 -0.258769 0.000000 0.000006
# 5 -0.000003 0.000003 0.000000 0.000000 -0.258769 0.212811
# 6 0.000000 0.000000 0.000000 0.000006 0.212811 -0.113670
#
#
# Mechanical properties :
#
#
# Convention : Reuss Voigt Hill
#
# Bulk Modulus (GPa) = 13.67010 17.69852 15.68431
# Shear Modulus (GPa) = -7.09998 15.75446 4.32724
#
# Velocity S-wave (km/s) = -1.78956 2.66574 1.39708
# Velocity P-wave (km/s) = 1.37696 4.17828 3.11079
#
# Compressibility (1/GPa) = 0.07315237
#
# Stress axis : x y z
#
# Youngs Moduli (GPa) = -45.64397 -45.64397 31.55376
#
# Poissons Ratio (x) = 1.59417 -0.12168
# Poissons Ratio (y) = 1.59417 -0.12168
# Poissons Ratio (z) = 0.17602 0.17602
#
# Static dielectric constant tensor:
#      x y z
#    x 4.015510 0.000000 0.000000 
#    y 0.000000 4.015510 0.000000 
#    z 0.000000 0.000000 3.811800 
# 
# 
# High freq. dielectric constant tensor:
#      x y z
#    x 1.876680 0.000000 0.000000 
#    y 0.000000 1.876680 0.000000 
#    z 0.000000 0.000000 1.867430 
# 
# From -- ./inp_files/5919.got.cif
#   From: 2010.03.12/outbox.cif.g09.slc.cpg/sg167_3_cif.got.tgz:5919.got - 2010.04.02 06:42:56.
