data_PCOD8324123
_publ_section_title
;
Structure prediction by ZEFSAII (Michael W. Deem and Ramdas Pophale) SiO2 
 PCOD8324123
Probable space group: R -3 M
;
_chemical_formula_sum "Si O2"
_cell_formula_units_Z 126
_cell_length_a 28.259211
_cell_length_b 28.259211
_cell_length_c 9.970287
_cell_angle_alpha 90.000000
_cell_angle_beta 90.000000
_cell_angle_gamma 120.000000
_cell_volume 6895.382397
_symmetry_space_group_name_H-M "R -3 M"
_symmetry_group_IT_number 166
_symmetry_cell_setting 'hexagonal'
loop_
_space_group_symop_operation_xyz
x,y,z
-y,x-y,z
-x+y,-x,z
x-y,-y,-z
-x,-x+y,-z
y,x,-z
-x,-y,-z
y,-x+y,-z
x-y,x,-z
-x+y,y,z
x,x-y,z
-y,-x,z
2/3+x,1/3+y,1/3+z
2/3-y,1/3+x-y,1/3+z
2/3-x+y,1/3-x,1/3+z
2/3+x-y,1/3-y,1/3-z
2/3-x,1/3-x+y,1/3-z
2/3+y,1/3+x,1/3-z
2/3-x,1/3-y,1/3-z
2/3+y,1/3-x+y,1/3-z
2/3+x-y,1/3+x,1/3-z
2/3-x+y,1/3+y,1/3+z
2/3+x,1/3+x-y,1/3+z
2/3-y,1/3-x,1/3+z
1/3+x,2/3+y,2/3+z
1/3-y,2/3+x-y,2/3+z
1/3-x+y,2/3-x,2/3+z
1/3+x-y,2/3-y,2/3-z
1/3-x,2/3-x+y,2/3-z
1/3+y,2/3+x,2/3-z
1/3-x,2/3-y,2/3-z
1/3+y,2/3-x+y,2/3-z
1/3+x-y,2/3+x,2/3-z
1/3-x+y,2/3+y,2/3+z
1/3+x,2/3+x-y,2/3+z
1/3-y,2/3-x,2/3+z
loop_
_atom_site_type_symbol
_atom_site_label
_atom_site_fract_x
_atom_site_fract_y
_atom_site_fract_z
Si Si1 0.230733 0.290296 0.727530
Si Si2 0.093766 0.362748 0.469496
Si Si3 0.205124 0.602562 0.649806
Si Si4 0.906418 0.453209 0.238640
Si Si5 0.220862 0.441723 0.866833
O O1 0.231402 0.333334 0.833334
O O2 0.252890 0.316709 0.582690
O O3 0.269273 0.269581 0.789167
O O4 0.167674 0.241392 0.715542
O O5 0.093213 0.333334 0.333334
O O6 0.156007 0.404895 0.501321
O O7 0.242659 0.666667 0.666667
O O8 0.159720 0.579860 0.768391
O O9 0.173324 0.586662 0.504775
O O10 0.925572 0.462786 0.393609
#
# Coordination Sequence:
#
# PCOD8324123 Si02
#       5
#    36  36  18  18  18
#     4  12  21  37  56  81 110 152 198 240 285 343
#     4  12  24  37  56  83 118 152 196 246 290 337
#     4  10  19  35  59  91 117 146 185 240 293 345
#     4  10  22  38  55  79 113 155 188 230 291 353
#     4  10  22  36  58  80 109 157 192 228 287 357
#
# _framework density 18.273098999999998
#
# number of rings (size 3 to 8) (size 9 to 14) (size 15 to 20)
#    0.857    0.000    2.857    7.000    0.000    0.000 
#    0.000    0.000    0.000    0.000    0.000    0.000 
#    0.000    0.000    0.000   16.857    0.000    0.286 
#
# Total GULP energy -520689.216986 kJ/mol
# GULP energy per Si atom -12397.362309 kJ/mol
# Density = 1.823151 g / cm^3
# Si number density = 18.273099 Si / 1000 Ang^3
#
#
#
# Elastic Constant Matrix: (Units=GPa)
#
#
# Indices 1 2 3 4 5 6 
#
# 1 -46.2736 262.8126 43.5834 152.6539 12.2629 -14.5291
# 2 262.8126 -46.6262 42.1915 -152.7967 -12.0035 14.2200
# 3 43.5834 42.1915 95.4774 -0.5707 0.0393 -0.1146
# 4 152.6539 -152.7967 -0.5707 -111.4578 -9.7414 11.5221
# 5 12.2629 -12.0035 0.0393 -9.7414 -102.2796 141.5504
# 6 -14.5291 14.2200 -0.1146 11.5221 141.5504 -141.0675
#
#
#
# Elastic Compliance Matrix: (Units=1/GPa)
#
#
# Indices 1 2 3 4 5 6 
#
# 1 0.007383 -0.001763 -0.002516 0.012549 -0.000049 0.000040
# 2 -0.001763 0.007389 -0.002536 -0.012539 0.000046 -0.000050
# 3 -0.002516 -0.002536 0.012743 -0.000036 0.000024 0.000014
# 4 0.012549 -0.012539 -0.000036 0.025361 0.000284 -0.000200
# 5 -0.000049 0.000046 0.000024 0.000284 0.025135 0.025254
# 6 0.000040 -0.000050 0.000014 -0.000200 0.025254 0.018226
#
#
# Mechanical properties :
#
#
# Convention : Reuss Voigt Hill
#
# Bulk Modulus (GPa) = 72.01731 77.75030 74.88380
# Shear Modulus (GPa) = 43.67045 -94.02830 -25.17893
#
# Velocity S-wave (km/s) = 4.89394 -7.18115 -3.71607
# Velocity P-wave (km/s) = 8.45171 5.11050 4.75995
#
# Compressibility (1/GPa) = 0.01388555
#
# Stress axis : x y z
#
# Youngs Moduli (GPa) = 135.44742 135.34138 78.47752
#
# Poissons Ratio (x) = 0.23855 0.19746
# Poissons Ratio (y) = 0.23874 0.19898
# Poissons Ratio (z) = 0.34081 0.34316
#
# Static dielectric constant tensor:
#      x y z
#    x 3.424750 -0.000280 -0.000170 
#    y -0.000280 3.425060 0.000020 
#    z -0.000170 0.000020 3.258900 
# 
# 
# High freq. dielectric constant tensor:
#      x y z
#    x 1.712740 0.000000 -0.000010 
#    y 0.000000 1.712750 0.000000 
#    z -0.000010 0.000000 1.686890 
# 
# From -- ./inp_files/1680.got.cif
#   From: 2010.03.12/outbox.cif.g09.slc.cpg/sg166_1_cif.got.tgz:1680.got - 2010.04.02 06:38:31.
