data_PCOD8324378
_publ_section_title
;
Structure prediction by ZEFSAII (Michael W. Deem and Ramdas Pophale) SiO2 
 PCOD8324378
Probable space group: R -3 C 
;
_chemical_formula_sum "Si O2"
_cell_formula_units_Z 144
_cell_length_a 22.234034
_cell_length_b 22.234034
_cell_length_c 16.700936
_cell_angle_alpha 90.000000
_cell_angle_beta 90.000000
_cell_angle_gamma 120.000000
_cell_volume 7150.031816
_symmetry_space_group_name_H-M "R -3 C "
_symmetry_group_IT_number 167
_symmetry_cell_setting 'hexagonal'
loop_
_space_group_symop_operation_xyz
x,y,z
-y,x-y,z
-x+y,-x,z
x-y,-y,1/2-z
-x,-x+y,1/2-z
y,x,1/2-z
-x,-y,-z
y,-x+y,-z
x-y,x,-z
-x+y,y,1/2+z
x,x-y,1/2+z
-y,-x,1/2+z
2/3+x,1/3+y,1/3+z
2/3-y,1/3+x-y,1/3+z
2/3-x+y,1/3-x,1/3+z
2/3+x-y,1/3-y,5/6-z
2/3-x,1/3-x+y,5/6-z
2/3+y,1/3+x,5/6-z
2/3-x,1/3-y,1/3-z
2/3+y,1/3-x+y,1/3-z
2/3+x-y,1/3+x,1/3-z
2/3-x+y,1/3+y,5/6+z
2/3+x,1/3+x-y,5/6+z
2/3-y,1/3-x,5/6+z
1/3+x,2/3+y,2/3+z
1/3-y,2/3+x-y,2/3+z
1/3-x+y,2/3-x,2/3+z
1/3+x-y,2/3-y,1/6-z
1/3-x,2/3-x+y,1/6-z
1/3+y,2/3+x,1/6-z
1/3-x,2/3-y,2/3-z
1/3+y,2/3-x+y,2/3-z
1/3+x-y,2/3+x,2/3-z
1/3-x+y,2/3+y,1/6+z
1/3+x,2/3+x-y,1/6+z
1/3-y,2/3-x,1/6+z
loop_
_atom_site_type_symbol
_atom_site_label
_atom_site_fract_x
_atom_site_fract_y
_atom_site_fract_z
Si Si1 0.270124 0.100169 0.202337
Si Si2 0.927859 0.549416 0.204854
Si Si3 0.932131 0.875034 0.195465
Si Si4 0.641423 0.207595 0.287025
O O1 0.333334 0.166667 0.166667
O O2 0.276886 0.097969 0.298078
O O3 0.205188 0.111682 0.178325
O O4 0.265315 0.032906 0.159874
O O5 0.870508 0.491601 0.264263
O O6 0.000000 0.597076 0.250000
O O7 0.868387 0.868387 0.250000
O O8 0.931478 0.915437 0.115934
O O9 0.000000 0.915130 0.250000
O O10 0.569693 0.207404 0.304787
#
# Coordination Sequence:
#
# PCOD8324378 Si02
#       4
#    36  36  36  36
#     4  10  22  44  66  90 128 171 216 275 319 383
#     4  10  23  43  64  93 131 170 219 272 323 380
#     4  11  21  40  63  93 133 173 210 256 330 394
#     4  11  23  39  64  99 135 172 211 268 330 394
#
# _framework density 20.139771
#
# number of rings (size 3 to 8) (size 9 to 14) (size 15 to 20)
#    0.000    1.500    5.000    2.000    7.000    1.000 
#    0.000    5.000    0.000    0.000    0.000    0.000 
#    0.000    0.000    0.000    0.000    0.000    0.000 
#
# Total GULP energy -594744.926412 kJ/mol
# GULP energy per Si atom -12390.519300 kJ/mol
# Density = 2.009393 g / cm^3
# Si number density = 20.139771 Si / 1000 Ang^3
#
#
#
# Elastic Constant Matrix: (Units=GPa)
#
#
# Indices 1 2 3 4 5 6 
#
# 1 116.4311 62.6758 58.1976 3.8125 0.0000 0.0000
# 2 62.6758 116.4311 58.1976 -3.8125 0.0000 0.0000
# 3 58.1976 58.1976 109.2000 0.0000 0.0000 0.0000
# 4 3.8125 -3.8125 0.0000 35.0267 0.0000 0.0000
# 5 0.0000 0.0000 0.0000 0.0000 35.0267 3.8125
# 6 0.0000 0.0000 0.0000 0.0000 3.8125 26.8777
#
#
#
# Elastic Compliance Matrix: (Units=1/GPa)
#
#
# Indices 1 2 3 4 5 6 
#
# 1 0.013718 -0.005176 -0.004552 -0.002057 0.000000 0.000000
# 2 -0.005176 0.013718 -0.004552 0.002057 0.000000 0.000000
# 3 -0.004552 -0.004552 0.014010 0.000000 0.000000 0.000000
# 4 -0.002057 0.002057 0.000000 0.028997 0.000000 0.000000
# 5 0.000000 0.000000 0.000000 0.000000 0.028997 -0.004113
# 6 0.000000 0.000000 0.000000 0.000000 -0.004113 0.037789
#
#
# Mechanical properties :
#
#
# Convention : Reuss Voigt Hill
#
# Bulk Modulus (GPa) = 77.61549 77.80047 77.70798
# Shear Modulus (GPa) = 29.39694 30.25230 29.82462
#
# Velocity S-wave (km/s) = 3.82468 3.87992 3.85240
# Velocity P-wave (km/s) = 7.62406 7.66719 7.64566
#
# Compressibility (1/GPa) = 0.01288403
#
# Stress axis : x y z
#
# Youngs Moduli (GPa) = 72.89675 72.89675 71.37939
#
# Poissons Ratio (x) = 0.37735 0.32493
# Poissons Ratio (y) = 0.37735 0.32493
# Poissons Ratio (z) = 0.33184 0.33184
#
# Static dielectric constant tensor:
#      x y z
#    x 3.526570 0.000000 0.000000 
#    y 0.000000 3.526570 0.000000 
#    z 0.000000 0.000000 4.045410 
# 
# 
# High freq. dielectric constant tensor:
#      x y z
#    x 1.777010 0.000000 0.000000 
#    y 0.000000 1.777010 0.000000 
#    z 0.000000 0.000000 1.804810 
# 
# From -- ./inp_files/3341.got.cif
#   From: 2010.03.12/outbox.cif.g09.slc.cpg/sg167_2_cif.got.tgz:3341.got - 2010.04.02 06:42:56.
