data_PCOD8324462
_publ_section_title
;
Structure prediction by ZEFSAII (Michael W. Deem and Ramdas Pophale) SiO2 
 PCOD8324462
Probable space group: P 61
;
_chemical_formula_sum "Si O2"
_cell_formula_units_Z 30
_cell_length_a 13.567338
_cell_length_b 13.567338
_cell_length_c 8.021648
_cell_angle_alpha 90.000000
_cell_angle_beta 90.000000
_cell_angle_gamma 120.000000
_cell_volume 1278.743743
_symmetry_space_group_name_H-M "P 61"
_symmetry_group_IT_number 169
_symmetry_cell_setting 'hexagonal'
loop_
_space_group_symop_operation_xyz
x,y,z
x-y,x,1/6+z
-y,x-y,1/3+z
-x,-y,1/2+z
-x+y,-x,2/3+z
y,-x+y,5/6+z
loop_
_atom_site_type_symbol
_atom_site_label
_atom_site_fract_x
_atom_site_fract_y
_atom_site_fract_z
Si Si1 0.315851 0.710858 0.430010
Si Si2 0.941424 0.372978 0.965832
Si Si3 0.974706 0.181439 0.061568
Si Si4 0.937136 0.778453 0.060764
Si Si5 0.381988 0.949747 0.298314
O O1 0.360641 0.678701 0.600065
O O2 0.191502 0.681520 0.483317
O O3 0.380466 0.843835 0.391396
O O4 0.986229 0.305584 0.082883
O O5 0.962868 0.355896 0.773754
O O6 0.002060 0.507185 0.015539
O O7 0.897820 0.124081 0.899810
O O8 0.099225 0.192807 0.049959
O O9 0.877376 0.806934 0.908295
O O10 0.923346 0.653828 0.026361
#
# Coordination Sequence:
#
# PCOD8324462 Si02
#       5
#     6   6   6   6   6
#     4  10  22  38  58  86 118 162 212 268 330 396
#     4  11  21  37  62  90 123 168 215 268 334 402
#     4  10  18  36  68  91 124 171 219 269 337 417
#     4  10  18  36  68  91 124 171 219 269 337 417
#     4  11  21  37  62  90 123 168 215 268 334 402
#
# _framework density 23.460526000000002
#
# number of rings (size 3 to 8) (size 9 to 14) (size 15 to 20)
#    0.000    1.600    6.000    0.000    2.800    0.000 
#    0.000    0.000   26.400    0.000    0.000    0.000 
#    0.000    0.000    0.000    0.000    0.000    0.000 
#
# Total GULP energy -371797.284067 kJ/mol
# GULP energy per Si atom -12393.242802 kJ/mol
# Density = 2.340713 g / cm^3
# Si number density = 23.460526 Si / 1000 Ang^3
#
#
#
# Elastic Constant Matrix: (Units=GPa)
#
#
# Indices 1 2 3 4 5 6 
#
# 1 109.5811 38.4008 18.3569 0.0000 0.0000 0.0000
# 2 38.4008 109.5811 18.3569 0.0000 0.0000 0.0000
# 3 18.3569 18.3569 77.5324 0.0000 0.0000 0.0000
# 4 0.0000 0.0000 0.0000 20.4277 0.0000 0.0000
# 5 0.0000 0.0000 0.0000 0.0000 20.4277 0.0000
# 6 0.0000 0.0000 0.0000 0.0000 0.0000 35.5901
#
#
#
# Elastic Compliance Matrix: (Units=1/GPa)
#
#
# Indices 1 2 3 4 5 6 
#
# 1 0.010614 -0.003435 -0.001700 0.000000 0.000000 0.000000
# 2 -0.003435 0.010614 -0.001700 0.000000 0.000000 0.000000
# 3 -0.001700 -0.001700 0.013703 0.000000 0.000000 0.000000
# 4 0.000000 0.000000 0.000000 0.048953 0.000000 0.000000
# 5 0.000000 0.000000 0.000000 0.000000 0.048953 0.000000
# 6 0.000000 0.000000 0.000000 0.000000 0.000000 0.028098
#
#
# Mechanical properties :
#
#
# Convention : Reuss Voigt Hill
#
# Bulk Modulus (GPa) = 47.03200 49.65823 48.34512
# Shear Modulus (GPa) = 27.51922 30.06109 28.79015
#
# Velocity S-wave (km/s) = 3.42863 3.58347 3.50691
# Velocity P-wave (km/s) = 5.98037 6.19148 6.08684
#
# Compressibility (1/GPa) = 0.02126212
#
# Stress axis : x y z
#
# Youngs Moduli (GPa) = 94.21462 94.21462 72.97808
#
# Poissons Ratio (x) = 0.32361 0.12405
# Poissons Ratio (y) = 0.32361 0.12405
# Poissons Ratio (z) = 0.16015 0.16015
#
# Static dielectric constant tensor:
#      x y z
#    x 4.548360 0.000000 0.000000 
#    y 0.000000 4.548360 0.000000 
#    z 0.000000 0.000000 4.720580 
# 
# 
# High freq. dielectric constant tensor:
#      x y z
#    x 1.927830 0.000000 0.000000 
#    y 0.000000 1.927830 0.000000 
#    z 0.000000 0.000000 1.898000 
# 
# From -- ./inp_files/529.got.cif
#   From: 2010.03.12/outbox.cif.g09.slc.cpg/sg169_cif.got.tgz:529.got - 2010.04.02 06:46:06.
