data_PCOD8324664
_publ_section_title
;
Structure prediction by ZEFSAII (Michael W. Deem and Ramdas Pophale) SiO2 
 PCOD8324664
Probable space group: P 65
;
_chemical_formula_sum "Si O2"
_cell_formula_units_Z 42
_cell_length_a 18.848473
_cell_length_b 18.848473
_cell_length_c 6.859000
_cell_angle_alpha 90.000000
_cell_angle_beta 90.000000
_cell_angle_gamma 120.000000
_cell_volume 2110.297955
_symmetry_space_group_name_H-M "P 65"
_symmetry_group_IT_number 170
_symmetry_cell_setting 'hexagonal'
loop_
_space_group_symop_operation_xyz
x,y,z
x-y,x,5/6+z
-y,x-y,2/3+z
-x,-y,1/2+z
-x+y,-x,1/3+z
y,-x+y,1/6+z
loop_
_atom_site_type_symbol
_atom_site_label
_atom_site_fract_x
_atom_site_fract_y
_atom_site_fract_z
Si Si1 0.906247 0.445340 0.753430
Si Si2 0.969620 0.384066 0.416687
Si Si3 0.270801 0.603926 0.171588
Si Si4 0.888702 0.185981 0.024079
Si Si5 0.474015 0.156711 0.420685
Si Si6 0.016560 0.254010 0.353749
Si Si7 0.828920 0.954276 0.523122
O O1 0.954934 0.413422 0.623096
O O2 0.825601 0.431787 0.640365
O O3 0.963850 0.541344 0.788160
O O4 0.883332 0.399175 0.958876
O O5 0.884340 0.336853 0.299618
O O6 0.003882 0.322900 0.460374
O O7 0.309790 0.687794 0.293772
O O8 0.283968 0.536679 0.285404
O O9 0.855765 0.248292 0.979704
O O10 0.972965 0.231358 0.144328
O O11 0.822100 0.112385 0.154907
O O12 0.903676 0.156305 0.817641
O O13 0.982012 0.174646 0.489036
O O14 0.866355 0.896513 0.478514
#
# Coordination Sequence:
#
# PCOD8324664 Si02
#       7
#     6   6   6   6   6   6   6
#     4  11  21  39  61  88 124 156 204 246 300 355
#     4  11  22  38  61  89 121 162 196 252 300 357
#     4  10  21  38  61  87 119 157 197 245 292 351
#     4  11  22  41  63  87 120 163 199 253 305 365
#     4  10  22  39  61  88 120 158 205 244 300 359
#     4  11  23  40  63  87 124 159 204 250 308 364
#     4  12  25  41  64  92 122 159 209 256 311 373
#
# _framework density 19.902403
#
# number of rings (size 3 to 8) (size 9 to 14) (size 15 to 20)
#    0.000    1.143    4.286    2.571    0.000    1.143 
#    0.000    0.000    0.000    0.000    0.000    0.000 
#    0.000    0.000    0.000    0.000    0.000    0.000 
#
# Total GULP energy -521109.069813 kJ/mol
# GULP energy per Si atom -12407.358805 kJ/mol
# Density = 1.985710 g / cm^3
# Si number density = 19.902403 Si / 1000 Ang^3
#
#
#
# Elastic Constant Matrix: (Units=GPa)
#
#
# Indices 1 2 3 4 5 6 
#
# 1 83.7062 27.4016 -1.4315 0.0000 0.0000 0.0000
# 2 27.4016 83.7062 -1.4315 0.0000 0.0000 0.0000
# 3 -1.4315 -1.4315 34.6087 0.0000 0.0000 0.0000
# 4 0.0000 0.0000 0.0000 28.4367 0.0000 0.0000
# 5 0.0000 0.0000 0.0000 0.0000 28.4367 0.0000
# 6 0.0000 0.0000 0.0000 0.0000 0.0000 28.1523
#
#
#
# Elastic Compliance Matrix: (Units=1/GPa)
#
#
# Indices 1 2 3 4 5 6 
#
# 1 0.013385 -0.004375 0.000373 0.000000 0.000000 0.000000
# 2 -0.004375 0.013385 0.000373 0.000000 0.000000 0.000000
# 3 0.000373 0.000373 0.028925 0.000000 0.000000 0.000000
# 4 0.000000 0.000000 0.000000 0.035166 0.000000 0.000000
# 5 0.000000 0.000000 0.000000 0.000000 0.035166 0.000000
# 6 0.000000 0.000000 0.000000 0.000000 0.000000 0.035521
#
#
# Mechanical properties :
#
#
# Convention : Reuss Voigt Hill
#
# Bulk Modulus (GPa) = 20.64592 27.89980 24.27286
# Shear Modulus (GPa) = 27.03381 28.83732 27.93557
#
# Velocity S-wave (km/s) = 3.68954 3.81062 3.75057
# Velocity P-wave (km/s) = 5.34288 5.78012 5.56580
#
# Compressibility (1/GPa) = 0.04843572
#
# Stress axis : x y z
#
# Youngs Moduli (GPa) = 74.70943 74.70943 34.57185
#
# Poissons Ratio (x) = 0.32688 -0.01288
# Poissons Ratio (y) = 0.32688 -0.01288
# Poissons Ratio (z) = -0.02784 -0.02784
#
# Static dielectric constant tensor:
#      x y z
#    x 3.715490 0.000000 0.000000 
#    y 0.000000 3.715490 0.000000 
#    z 0.000000 0.000000 3.319150 
# 
# 
# High freq. dielectric constant tensor:
#      x y z
#    x 1.787320 0.000000 0.000000 
#    y 0.000000 1.787320 0.000000 
#    z 0.000000 0.000000 1.765330 
# 
# From -- ./inp_files/711.got.cif
#   From: 2010.03.12/outbox.cif.g09.slc.cpg/sg170_cif.got.tgz:711.got - 2010.04.02 06:47:37.
