data_PCOD8324469
_publ_section_title
;
Structure prediction by ZEFSAII (Michael W. Deem and Ramdas Pophale) SiO2 
 PCOD8324469
Probable space group: P 61
;
_chemical_formula_sum "Si O2"
_cell_formula_units_Z 42
_cell_length_a 11.045438
_cell_length_b 11.045438
_cell_length_c 21.666747
_cell_angle_alpha 90.000000
_cell_angle_beta 90.000000
_cell_angle_gamma 120.000000
_cell_volume 2289.234215
_symmetry_space_group_name_H-M "P 61"
_symmetry_group_IT_number 169
_symmetry_cell_setting 'hexagonal'
loop_
_space_group_symop_operation_xyz
x,y,z
x-y,x,1/6+z
-y,x-y,1/3+z
-x,-y,1/2+z
-x+y,-x,2/3+z
y,-x+y,5/6+z
loop_
_atom_site_type_symbol
_atom_site_label
_atom_site_fract_x
_atom_site_fract_y
_atom_site_fract_z
Si Si1 0.032400 0.373687 0.587020
Si Si2 0.503162 0.999150 0.492921
Si Si3 0.678212 0.574861 0.043318
Si Si4 0.288402 0.523615 0.351610
Si Si5 0.554133 0.886058 0.211367
Si Si6 0.562030 0.663001 0.278641
Si Si7 0.309328 0.679615 0.808062
O O1 0.160674 0.361915 0.561179
O O2 0.063978 0.532194 0.586226
O O3 0.001694 0.323368 0.657846
O O4 0.898809 0.281757 0.543427
O O5 0.419850 0.015832 0.435960
O O6 0.658734 0.131897 0.495230
O O7 0.427424 0.000084 0.556316
O O8 0.499401 0.850671 0.482534
O O9 0.606379 0.417319 0.016034
O O10 0.396252 0.590870 0.294742
O O11 0.345965 0.643286 0.403834
O O12 0.624102 0.823779 0.257424
O O13 0.457866 0.767437 0.163353
O O14 0.668270 0.015512 0.171058
#
# Coordination Sequence:
#
# PCOD8324469 Si02
#       7
#     6   6   6   6   6   6   6
#     4   9  20  35  55  79 113 142 182 229 281 322
#     4  11  20  30  55  80 111 142 181 222 271 330
#     4  10  21  35  53  84 114 143 180 229 278 333
#     4  10  19  34  54  77 118 141 177 233 276 326
#     4   9  17  33  50  78 111 144 178 224 277 324
#     4  10  20  31  53  80 116 144 179 227 280 331
#     4   9  19  34  50  82 113 142 183 220 281 324
#
# _framework density 18.346747000000001
#
# number of rings (size 3 to 8) (size 9 to 14) (size 15 to 20)
#    0.000    2.286    1.429    2.571    6.000    0.000 
#    0.000    0.000    0.000    0.000    0.000   42.000 
#    0.000    0.000    0.000    0.000    0.000    0.000 
#
# Total GULP energy -520631.796156 kJ/mol
# GULP energy per Si atom -12395.995147 kJ/mol
# Density = 1.830499 g / cm^3
# Si number density = 18.346747 Si / 1000 Ang^3
#
#
#
# Elastic Constant Matrix: (Units=GPa)
#
#
# Indices 1 2 3 4 5 6 
#
# 1 84.4423 38.1410 46.7702 0.0000 0.0000 0.0000
# 2 38.1410 84.4423 46.7702 0.0000 0.0000 0.0000
# 3 46.7702 46.7702 114.9400 0.0000 0.0000 0.0000
# 4 0.0000 0.0000 0.0000 29.4320 0.0000 0.0000
# 5 0.0000 0.0000 0.0000 0.0000 29.4320 0.0000
# 6 0.0000 0.0000 0.0000 0.0000 0.0000 23.1506
#
#
#
# Elastic Compliance Matrix: (Units=1/GPa)
#
#
# Indices 1 2 3 4 5 6 
#
# 1 0.016715 -0.004883 -0.004814 0.000000 0.000000 0.000000
# 2 -0.004883 0.016715 -0.004814 0.000000 0.000000 0.000000
# 3 -0.004814 -0.004814 0.012618 0.000000 0.000000 0.000000
# 4 0.000000 0.000000 0.000000 0.033977 0.000000 0.000000
# 5 0.000000 0.000000 0.000000 0.000000 0.033977 0.000000
# 6 0.000000 0.000000 0.000000 0.000000 0.000000 0.043195
#
#
# Mechanical properties :
#
#
# Convention : Reuss Voigt Hill
#
# Bulk Modulus (GPa) = 58.74154 60.79860 59.77007
# Shear Modulus (GPa) = 26.05604 26.54579 26.30092
#
# Velocity S-wave (km/s) = 3.77264 3.80793 3.79033
# Velocity P-wave (km/s) = 7.14591 7.24875 7.19751
#
# Compressibility (1/GPa) = 0.01702373
#
# Stress axis : x y z
#
# Youngs Moduli (GPa) = 59.82813 59.82813 79.25072
#
# Poissons Ratio (x) = 0.29215 0.38154
# Poissons Ratio (y) = 0.29215 0.38154
# Poissons Ratio (z) = 0.28803 0.28803
#
# Static dielectric constant tensor:
#      x y z
#    x 3.369250 0.000000 0.000000 
#    y 0.000000 3.369250 0.000000 
#    z 0.000000 0.000000 3.582010 
# 
# 
# High freq. dielectric constant tensor:
#      x y z
#    x 1.685540 0.000000 0.000000 
#    y 0.000000 1.685540 0.000000 
#    z 0.000000 0.000000 1.732700 
# 
# From -- ./inp_files/1645.got.cif
#   From: 2010.03.12/outbox.cif.g09.slc.cpg/sg169_cif.got.tgz:1645.got - 2010.04.02 06:46:06.
