data_PCOD8324645
_publ_section_title
;
Structure prediction by ZEFSAII (Michael W. Deem and Ramdas Pophale) SiO2 
 PCOD8324645
Probable space group: P 65
;
_chemical_formula_sum "Si O2"
_cell_formula_units_Z 42
_cell_length_a 11.523491
_cell_length_b 11.523491
_cell_length_c 16.547571
_cell_angle_alpha 90.000000
_cell_angle_beta 90.000000
_cell_angle_gamma 120.000000
_cell_volume 1902.974719
_symmetry_space_group_name_H-M "P 65"
_symmetry_group_IT_number 170
_symmetry_cell_setting 'hexagonal'
loop_
_space_group_symop_operation_xyz
x,y,z
x-y,x,5/6+z
-y,x-y,2/3+z
-x,-y,1/2+z
-x+y,-x,1/3+z
y,-x+y,1/6+z
loop_
_atom_site_type_symbol
_atom_site_label
_atom_site_fract_x
_atom_site_fract_y
_atom_site_fract_z
Si Si1 0.991583 0.598312 0.777000
Si Si2 0.367629 0.124701 0.864277
Si Si3 0.760593 0.421904 0.081288
Si Si4 0.326117 0.951434 0.144888
Si Si5 0.255366 0.787387 0.298547
Si Si6 0.443541 0.952394 0.442465
Si Si7 0.858604 0.608682 0.940007
O O1 0.903407 0.538497 0.694607
O O2 0.897862 0.577577 0.853085
O O3 0.078883 0.524040 0.788513
O O4 0.092885 0.755807 0.763783
O O5 0.458525 0.208753 0.790189
O O6 0.310950 0.212351 0.907592
O O7 0.447649 0.096003 0.934935
O O8 0.259441 0.983502 0.824824
O O9 0.617125 0.291965 0.101460
O O10 0.884135 0.403573 0.110998
O O11 0.789126 0.465268 0.986924
O O12 0.256202 0.876687 0.225719
O O13 0.394333 0.106517 0.164632
O O14 0.344903 0.888340 0.368071
#
# Coordination Sequence:
#
# PCOD8324645 Si02
#       7
#     6   6   6   6   6   6   6
#     4  12  24  41  67 106 136 186 230 302 363 431
#     4  10  21  42  68 101 137 184 238 291 356 431
#     4  10  19  44  68 100 140 174 228 296 362 422
#     4  12  24  43  69 107 141 186 243 300 373 434
#     4  11  26  44  70 109 143 188 241 300 377 434
#     4  10  23  43  68 105 144 185 229 304 366 432
#     4  11  23  41  70 100 143 179 249 289 353 436
#
# _framework density 22.070709000000001
#
# number of rings (size 3 to 8) (size 9 to 14) (size 15 to 20)
#    0.000    1.143    4.286    2.571    4.000    1.143 
#    7.714    0.000    0.000    6.857    0.000    0.000 
#    0.000    0.000    0.000    0.000    0.000    0.000 
#
# Total GULP energy -520635.464432 kJ/mol
# GULP energy per Si atom -12396.082486 kJ/mol
# Density = 2.202048 g / cm^3
# Si number density = 22.070709 Si / 1000 Ang^3
#
#
#
# Elastic Constant Matrix: (Units=GPa)
#
#
# Indices 1 2 3 4 5 6 
#
# 1 93.1932 42.7908 37.1396 0.0000 0.0000 0.0000
# 2 42.7908 93.1932 37.1396 0.0000 0.0000 0.0000
# 3 37.1396 37.1396 148.4383 0.0000 0.0000 0.0000
# 4 0.0000 0.0000 0.0000 34.4508 0.0000 0.0000
# 5 0.0000 0.0000 0.0000 0.0000 34.4508 0.0000
# 6 0.0000 0.0000 0.0000 0.0000 0.0000 25.2012
#
#
#
# Elastic Compliance Matrix: (Units=1/GPa)
#
#
# Indices 1 2 3 4 5 6 
#
# 1 0.014179 -0.005661 -0.002131 0.000000 0.000000 0.000000
# 2 -0.005661 0.014179 -0.002131 0.000000 0.000000 0.000000
# 3 -0.002131 -0.002131 0.007803 0.000000 0.000000 0.000000
# 4 0.000000 0.000000 0.000000 0.029027 0.000000 0.000000
# 5 0.000000 0.000000 0.000000 0.000000 0.029027 0.000000
# 6 0.000000 0.000000 0.000000 0.000000 0.000000 0.039681
#
#
# Mechanical properties :
#
#
# Convention : Reuss Voigt Hill
#
# Bulk Modulus (GPa) = 61.29581 63.21831 62.25706
# Shear Modulus (GPa) = 31.41071 33.33752 32.37412
#
# Velocity S-wave (km/s) = 3.77661 3.89071 3.83408
# Velocity P-wave (km/s) = 6.84469 6.99209 6.91878
#
# Compressibility (1/GPa) = 0.01631433
#
# Stress axis : x y z
#
# Youngs Moduli (GPa) = 70.52617 70.52617 128.15130
#
# Poissons Ratio (x) = 0.39926 0.27312
# Poissons Ratio (y) = 0.39926 0.27312
# Poissons Ratio (z) = 0.15031 0.15031
#
# Static dielectric constant tensor:
#      x y z
#    x 3.916700 0.000000 0.000000 
#    y 0.000000 3.916700 0.000000 
#    z 0.000000 0.000000 4.233910 
# 
# 
# High freq. dielectric constant tensor:
#      x y z
#    x 1.847650 0.000000 0.000000 
#    y 0.000000 1.847650 0.000000 
#    z 0.000000 0.000000 1.892530 
# 
# From -- ./inp_files/1419.got.cif
#   From: 2010.03.12/outbox.cif.g09.slc.cpg/sg170_cif.got.tgz:1419.got - 2010.04.02 06:47:37.
