data_PCOD8324396
_publ_section_title
;
Structure prediction by ZEFSAII (Michael W. Deem and Ramdas Pophale) SiO2 
 PCOD8324396
Probable space group: R -3 C 
;
_chemical_formula_sum "Si O2"
_cell_formula_units_Z 102
_cell_length_a 19.973226
_cell_length_b 19.973226
_cell_length_c 13.208279
_cell_angle_alpha 90.000000
_cell_angle_beta 90.000000
_cell_angle_gamma 120.000000
_cell_volume 4563.239866
_symmetry_space_group_name_H-M "R -3 C "
_symmetry_group_IT_number 167
_symmetry_cell_setting 'hexagonal'
loop_
_space_group_symop_operation_xyz
x,y,z
-y,x-y,z
-x+y,-x,z
x-y,-y,1/2-z
-x,-x+y,1/2-z
y,x,1/2-z
-x,-y,-z
y,-x+y,-z
x-y,x,-z
-x+y,y,1/2+z
x,x-y,1/2+z
-y,-x,1/2+z
2/3+x,1/3+y,1/3+z
2/3-y,1/3+x-y,1/3+z
2/3-x+y,1/3-x,1/3+z
2/3+x-y,1/3-y,5/6-z
2/3-x,1/3-x+y,5/6-z
2/3+y,1/3+x,5/6-z
2/3-x,1/3-y,1/3-z
2/3+y,1/3-x+y,1/3-z
2/3+x-y,1/3+x,1/3-z
2/3-x+y,1/3+y,5/6+z
2/3+x,1/3+x-y,5/6+z
2/3-y,1/3-x,5/6+z
1/3+x,2/3+y,2/3+z
1/3-y,2/3+x-y,2/3+z
1/3-x+y,2/3-x,2/3+z
1/3+x-y,2/3-y,1/6-z
1/3-x,2/3-x+y,1/6-z
1/3+y,2/3+x,1/6-z
1/3-x,2/3-y,2/3-z
1/3+y,2/3-x+y,2/3-z
1/3+x-y,2/3+x,2/3-z
1/3-x+y,2/3+y,1/6+z
1/3+x,2/3+x-y,1/6+z
1/3-y,2/3-x,1/6+z
loop_
_atom_site_type_symbol
_atom_site_label
_atom_site_fract_x
_atom_site_fract_y
_atom_site_fract_z
Si Si1 0.117149 0.862843 0.887073
Si Si2 0.262648 0.987915 0.993397
Si Si3 0.000000 0.000000 0.382086
Si Si4 0.666667 0.451272 0.583334
O O1 0.166667 0.833334 0.833334
O O2 0.068559 0.873251 0.797540
O O3 0.177854 0.941552 0.942843
O O4 0.064049 0.799882 0.968303
O O5 0.333334 0.010549 0.916667
O O6 0.271241 0.937908 0.083334
O O7 0.087248 0.033453 0.340236
O O8 0.000000 0.000000 0.500000
#
# Coordination Sequence:
#
# PCOD8324396 Si02
#       4
#    36  36  12  18
#     4  12  26  47  76 106 153 194 249 307 375 457
#     4  12  26  48  76 107 150 201 253 312 384 446
#     4  10  26  49  76 107 142 190 251 316 379 431
#     4  10  26  46  76 108 148 190 252 306 384 440
#
# _framework density 22.352537999999999
#
# number of rings (size 3 to 8) (size 9 to 14) (size 15 to 20)
#    0.000    0.706    3.529    3.176    4.941    8.471 
#    0.000    0.000    0.000    0.000    0.000    0.000 
#    0.000    0.000    0.000    0.000    0.000    0.000 
#
# Total GULP energy -421500.109748 kJ/mol
# GULP energy per Si atom -12397.062051 kJ/mol
# Density = 2.230166 g / cm^3
# Si number density = 22.352538 Si / 1000 Ang^3
#
#
#
# Elastic Constant Matrix: (Units=GPa)
#
#
# Indices 1 2 3 4 5 6 
#
# 1 152.5030 74.7594 81.5242 -4.4451 -0.0001 0.0000
# 2 74.7594 152.5030 81.5242 4.4451 0.0001 0.0000
# 3 81.5242 81.5242 179.7805 0.0000 0.0000 0.0000
# 4 -4.4451 4.4451 0.0000 58.9610 0.0000 0.0001
# 5 -0.0001 0.0001 0.0000 0.0000 58.9610 -4.4451
# 6 0.0000 0.0000 0.0000 0.0001 -4.4451 38.8718
#
#
#
# Elastic Compliance Matrix: (Units=1/GPa)
#
#
# Indices 1 2 3 4 5 6 
#
# 1 0.009748 -0.003226 -0.002958 0.000978 0.000000 0.000000
# 2 -0.003226 0.009748 -0.002958 -0.000978 0.000000 0.000000
# 3 -0.002958 -0.002958 0.008245 0.000000 0.000000 0.000000
# 4 0.000978 -0.000978 0.000000 0.017108 0.000000 0.000000
# 5 0.000000 0.000000 0.000000 0.000000 0.017108 0.001956
# 6 0.000000 0.000000 0.000000 0.000000 0.001956 0.025949
#
#
# Mechanical properties :
#
#
# Convention : Reuss Voigt Hill
#
# Bulk Modulus (GPa) = 105.72359 106.71132 106.21746
# Shear Modulus (GPa) = 45.72811 47.82401 46.77606
#
# Velocity S-wave (km/s) = 4.52792 4.63053 4.57951
# Velocity P-wave (km/s) = 8.64506 8.74259 8.69396
#
# Compressibility (1/GPa) = 0.00945863
#
# Stress axis : x y z
#
# Youngs Moduli (GPa) = 102.58133 102.58133 121.29140
#
# Poissons Ratio (x) = 0.33096 0.35872
# Poissons Ratio (y) = 0.33096 0.35872
# Poissons Ratio (z) = 0.30339 0.30339
#
# Static dielectric constant tensor:
#      x y z
#    x 3.791700 0.000000 0.000000 
#    y 0.000000 3.791700 0.000000 
#    z 0.000000 0.000000 3.969330 
# 
# 
# High freq. dielectric constant tensor:
#      x y z
#    x 1.891820 0.000000 0.000000 
#    y 0.000000 1.891820 0.000000 
#    z 0.000000 0.000000 1.895520 
# 
# From -- ./inp_files/2128.got.cif
#   From: 2010.03.12/outbox.cif.g09.slc.cpg/sg167_2_cif.got.tgz:2128.got - 2010.04.02 06:42:56.
