data_PCOD8324062
_publ_section_title
;
Structure prediction by ZEFSAII (Michael W. Deem and Ramdas Pophale) SiO2 
 PCOD8324062
Probable space group: R -3 M
;
_chemical_formula_sum "Si O2"
_cell_formula_units_Z 216
_cell_length_a 23.885657
_cell_length_b 23.885657
_cell_length_c 25.804107
_cell_angle_alpha 90.000000
_cell_angle_beta 90.000000
_cell_angle_gamma 120.000000
_cell_volume 12749.520418
_symmetry_space_group_name_H-M "R -3 M"
_symmetry_group_IT_number 166
_symmetry_cell_setting 'hexagonal'
loop_
_space_group_symop_operation_xyz
x,y,z
-y,x-y,z
-x+y,-x,z
x-y,-y,-z
-x,-x+y,-z
y,x,-z
-x,-y,-z
y,-x+y,-z
x-y,x,-z
-x+y,y,z
x,x-y,z
-y,-x,z
2/3+x,1/3+y,1/3+z
2/3-y,1/3+x-y,1/3+z
2/3-x+y,1/3-x,1/3+z
2/3+x-y,1/3-y,1/3-z
2/3-x,1/3-x+y,1/3-z
2/3+y,1/3+x,1/3-z
2/3-x,1/3-y,1/3-z
2/3+y,1/3-x+y,1/3-z
2/3+x-y,1/3+x,1/3-z
2/3-x+y,1/3+y,1/3+z
2/3+x,1/3+x-y,1/3+z
2/3-y,1/3-x,1/3+z
1/3+x,2/3+y,2/3+z
1/3-y,2/3+x-y,2/3+z
1/3-x+y,2/3-x,2/3+z
1/3+x-y,2/3-y,2/3-z
1/3-x,2/3-x+y,2/3-z
1/3+y,2/3+x,2/3-z
1/3-x,2/3-y,2/3-z
1/3+y,2/3-x+y,2/3-z
1/3+x-y,2/3+x,2/3-z
1/3-x+y,2/3+y,2/3+z
1/3+x,2/3+x-y,2/3+z
1/3-y,2/3-x,2/3+z
loop_
_atom_site_type_symbol
_atom_site_label
_atom_site_fract_x
_atom_site_fract_y
_atom_site_fract_z
Si Si1 0.241313 0.879356 0.693926
Si Si2 0.862477 0.269345 0.678974
Si Si3 0.186221 0.940408 0.186025
Si Si4 0.491516 0.378715 0.599826
Si Si5 0.364423 0.954620 0.115672
Si Si6 0.247281 0.283979 0.078927
O O1 0.196717 0.803284 0.701042
O O2 0.213327 0.916370 0.727011
O O3 0.242660 0.895288 0.632425
O O4 0.308783 0.893965 0.716984
O O5 0.794936 0.205065 0.672415
O O6 0.921435 0.254768 0.666667
O O7 0.859060 0.322627 0.643309
O O8 0.873952 0.296416 0.737658
O O9 0.112645 0.887356 0.199391
O O10 0.231819 0.915144 0.210024
O O11 0.194572 0.944027 0.123975
O O12 0.201713 0.009188 0.210612
O O13 0.569393 0.430608 0.603956
O O14 0.333334 0.909450 0.166667
O O15 0.316349 0.981224 0.102056
#
# Coordination Sequence:
#
# PCOD8324062 Si02
#       6
#    36  36  36  36  36  36
#     4  10  19  32  50  72 100 138 171 202 260 321
#     4  11  19  33  57  81 106 138 182 231 272 315
#     4  11  21  34  52  76 103 141 184 219 258 308
#     4  11  22  34  50  76 110 145 177 214 266 327
#     4  10  19  31  48  76 111 139 166 216 270 320
#     4  10  19  33  50  72 110 136 168 214 260 313
#
# _framework density 16.941814000000001
#
# number of rings (size 3 to 8) (size 9 to 14) (size 15 to 20)
#    0.000    1.500    5.000    1.500    0.000    0.667 
#    0.000    2.500    0.000    2.667    0.000    0.000 
#    0.000    0.667    0.000    8.500    0.000    0.000 
#
# Total GULP energy -892345.130661 kJ/mol
# GULP energy per Si atom -12393.682370 kJ/mol
# Density = 1.690325 g / cm^3
# Si number density = 16.941814 Si / 1000 Ang^3
#
#
#
# Elastic Constant Matrix: (Units=GPa)
#
#
# Indices 1 2 3 4 5 6 
#
# 1 69.4673 32.6403 27.9428 0.7136 0.0000 0.0000
# 2 32.6403 69.4673 27.9428 -0.7136 0.0000 0.0000
# 3 27.9428 27.9428 90.7290 0.0000 0.0000 0.0000
# 4 0.7136 -0.7136 0.0000 17.6885 0.0000 0.0000
# 5 0.0000 0.0000 0.0000 0.0000 17.6885 0.7136
# 6 0.0000 0.0000 0.0000 0.0000 0.7136 18.4135
#
#
#
# Elastic Compliance Matrix: (Units=1/GPa)
#
#
# Indices 1 2 3 4 5 6 
#
# 1 0.019488 -0.007709 -0.003628 -0.001097 0.000000 0.000000
# 2 -0.007709 0.019488 -0.003628 0.001097 0.000000 0.000000
# 3 -0.003628 -0.003628 0.013256 0.000000 0.000000 0.000000
# 4 -0.001097 0.001097 0.000000 0.056622 0.000000 0.000000
# 5 0.000000 0.000000 0.000000 0.000000 0.056622 -0.002194
# 6 0.000000 0.000000 0.000000 0.000000 -0.002194 0.054393
#
#
# Mechanical properties :
#
#
# Convention : Reuss Voigt Hill
#
# Bulk Modulus (GPa) = 44.83566 45.19057 45.01312
# Shear Modulus (GPa) = 19.43765 20.16729 19.80247
#
# Velocity S-wave (km/s) = 3.39088 3.45394 3.42256
# Velocity P-wave (km/s) = 6.46937 6.52979 6.49965
#
# Compressibility (1/GPa) = 0.02230368
#
# Stress axis : x y z
#
# Youngs Moduli (GPa) = 51.31414 51.31414 75.43542
#
# Poissons Ratio (x) = 0.39556 0.27366
# Poissons Ratio (y) = 0.39556 0.27366
# Poissons Ratio (z) = 0.18615 0.18615
#
# Static dielectric constant tensor:
#      x y z
#    x 3.020240 0.000000 0.000000 
#    y 0.000000 3.020240 0.000000 
#    z 0.000000 0.000000 3.569050 
# 
# 
# High freq. dielectric constant tensor:
#      x y z
#    x 1.624480 0.000000 0.000000 
#    y 0.000000 1.624480 0.000000 
#    z 0.000000 0.000000 1.673760 
# 
# From -- ./inp_files/8446.got.cif
#   From: 2010.03.12/outbox.cif.g09.slc.cpg/sg166_5_cif.got.tgz:8446.got - 2010.04.02 06:38:31.
