data_PCOD8324557
_publ_section_title
;
Structure prediction by ZEFSAII (Michael W. Deem and Ramdas Pophale) SiO2 
 PCOD8324557
Probable space group: P 61
;
_chemical_formula_sum "Si O2"
_cell_formula_units_Z 48
_cell_length_a 14.693270
_cell_length_b 14.693270
_cell_length_c 11.705815
_cell_angle_alpha 90.000000
_cell_angle_beta 90.000000
_cell_angle_gamma 120.000000
_cell_volume 2188.614168
_symmetry_space_group_name_H-M "P 61"
_symmetry_group_IT_number 169
_symmetry_cell_setting 'hexagonal'
loop_
_space_group_symop_operation_xyz
x,y,z
x-y,x,1/6+z
-y,x-y,1/3+z
-x,-y,1/2+z
-x+y,-x,2/3+z
y,-x+y,5/6+z
loop_
_atom_site_type_symbol
_atom_site_label
_atom_site_fract_x
_atom_site_fract_y
_atom_site_fract_z
Si Si1 0.640849 0.997586 0.318470
Si Si2 0.878485 0.155056 0.261281
Si Si3 0.830595 0.884171 0.766860
Si Si4 0.146591 0.982656 0.549199
Si Si5 0.371443 0.530372 0.833924
Si Si6 0.172061 0.496934 0.707918
Si Si7 0.790494 0.658259 0.081606
Si Si8 0.490331 0.047599 0.441827
O O1 0.760657 0.088897 0.304813
O O2 0.578675 0.056443 0.355048
O O3 0.637690 0.916174 0.414713
O O4 0.588448 0.925504 0.206947
O O5 0.959072 0.150545 0.350240
O O6 0.884197 0.114548 0.134890
O O7 0.885137 0.886857 0.886085
O O8 0.710550 0.852872 0.799205
O O9 0.127431 0.067544 0.611233
O O10 0.263414 0.035935 0.496667
O O11 0.273693 0.541521 0.789392
O O12 0.449342 0.548302 0.727914
O O13 0.424662 0.612491 0.936490
O O14 0.146275 0.386043 0.653203
O O15 0.075404 0.478657 0.787874
O O16 0.674055 0.561846 0.053126
#
# Coordination Sequence:
#
# PCOD8324557 Si02
#       8
#     6   6   6   6   6   6   6   6
#     4  11  25  45  70 101 136 190 231 292 360 420
#     4  12  24  42  66  99 144 181 229 282 345 428
#     4  12  25  41  61 100 147 187 227 276 342 427
#     4  12  24  39  64  99 139 189 229 275 334 421
#     4  10  24  44  74  96 135 176 232 295 355 425
#     4  10  22  45  67 100 133 174 237 293 353 424
#     4  11  25  42  70  97 136 186 233 288 352 418
#     4  10  23  46  68 102 130 181 240 289 349 423
#
# _framework density 21.931687
#
# number of rings (size 3 to 8) (size 9 to 14) (size 15 to 20)
#    0.000    1.000    2.500    3.750    5.250    5.000 
#    9.000    0.000    0.000    0.000    0.000    0.000 
#    0.000    0.000    0.000    0.000    0.000    0.000 
#
# Total GULP energy -595000.628441 kJ/mol
# GULP energy per Si atom -12395.846426 kJ/mol
# Density = 2.188177 g / cm^3
# Si number density = 21.931687 Si / 1000 Ang^3
#
#
#
# Elastic Constant Matrix: (Units=GPa)
#
#
# Indices 1 2 3 4 5 6 
#
# 1 106.4546 37.0595 38.2820 0.0000 0.0000 0.0000
# 2 37.0595 106.4546 38.2820 0.0000 0.0000 0.0000
# 3 38.2820 38.2820 86.3801 0.0000 0.0000 0.0000
# 4 0.0000 0.0000 0.0000 38.0086 0.0000 0.0000
# 5 0.0000 0.0000 0.0000 0.0000 38.0086 0.0000
# 6 0.0000 0.0000 0.0000 0.0000 0.0000 34.6976
#
#
#
# Elastic Compliance Matrix: (Units=1/GPa)
#
#
# Indices 1 2 3 4 5 6 
#
# 1 0.011768 -0.002642 -0.004044 0.000000 0.000000 0.000000
# 2 -0.002642 0.011768 -0.004044 0.000000 0.000000 0.000000
# 3 -0.004044 -0.004044 0.015161 0.000000 0.000000 0.000000
# 4 0.000000 0.000000 0.000000 0.026310 0.000000 0.000000
# 5 0.000000 0.000000 0.000000 0.000000 0.026310 0.000000
# 6 0.000000 0.000000 0.000000 0.000000 0.000000 0.028820
#
#
# Mechanical properties :
#
#
# Convention : Reuss Voigt Hill
#
# Bulk Modulus (GPa) = 58.01996 58.50406 58.26201
# Shear Modulus (GPa) = 33.93413 34.52067 34.22740
#
# Velocity S-wave (km/s) = 3.93780 3.97168 3.95478
# Velocity P-wave (km/s) = 6.86930 6.91128 6.89032
#
# Compressibility (1/GPa) = 0.01723545
#
# Stress axis : x y z
#
# Youngs Moduli (GPa) = 84.97698 84.97698 65.95683
#
# Poissons Ratio (x) = 0.22454 0.26675
# Poissons Ratio (y) = 0.22454 0.26675
# Poissons Ratio (z) = 0.34367 0.34367
#
# Static dielectric constant tensor:
#      x y z
#    x 4.005630 0.000000 0.000000 
#    y 0.000000 4.005630 0.000000 
#    z 0.000000 0.000000 4.045210 
# 
# 
# High freq. dielectric constant tensor:
#      x y z
#    x 1.864730 0.000000 0.000000 
#    y 0.000000 1.864730 0.000000 
#    z 0.000000 0.000000 1.863190 
# 
# From -- ./inp_files/1042.got.cif
#   From: 2010.03.12/outbox.cif.g09.slc.cpg/sg169_cif.got.tgz:1042.got - 2010.04.02 06:46:06.
