data_PCOD8324330
_publ_section_title
;
Structure prediction by ZEFSAII (Michael W. Deem and Ramdas Pophale) SiO2 
 PCOD8324330
Probable space group: R -3 C 
;
_chemical_formula_sum "Si O2"
_cell_formula_units_Z 216
_cell_length_a 23.031415
_cell_length_b 23.031415
_cell_length_c 22.455885
_cell_angle_alpha 90.000000
_cell_angle_beta 90.000000
_cell_angle_gamma 120.000000
_cell_volume 10315.779465
_symmetry_space_group_name_H-M "R -3 C "
_symmetry_group_IT_number 167
_symmetry_cell_setting 'hexagonal'
loop_
_space_group_symop_operation_xyz
x,y,z
-y,x-y,z
-x+y,-x,z
x-y,-y,1/2-z
-x,-x+y,1/2-z
y,x,1/2-z
-x,-y,-z
y,-x+y,-z
x-y,x,-z
-x+y,y,1/2+z
x,x-y,1/2+z
-y,-x,1/2+z
2/3+x,1/3+y,1/3+z
2/3-y,1/3+x-y,1/3+z
2/3-x+y,1/3-x,1/3+z
2/3+x-y,1/3-y,5/6-z
2/3-x,1/3-x+y,5/6-z
2/3+y,1/3+x,5/6-z
2/3-x,1/3-y,1/3-z
2/3+y,1/3-x+y,1/3-z
2/3+x-y,1/3+x,1/3-z
2/3-x+y,1/3+y,5/6+z
2/3+x,1/3+x-y,5/6+z
2/3-y,1/3-x,5/6+z
1/3+x,2/3+y,2/3+z
1/3-y,2/3+x-y,2/3+z
1/3-x+y,2/3-x,2/3+z
1/3+x-y,2/3-y,1/6-z
1/3-x,2/3-x+y,1/6-z
1/3+y,2/3+x,1/6-z
1/3-x,2/3-y,2/3-z
1/3+y,2/3-x+y,2/3-z
1/3+x-y,2/3+x,2/3-z
1/3-x+y,2/3+y,1/6+z
1/3+x,2/3+x-y,1/6+z
1/3-y,2/3-x,1/6+z
loop_
_atom_site_type_symbol
_atom_site_label
_atom_site_fract_x
_atom_site_fract_y
_atom_site_fract_z
Si Si1 0.482834 0.225116 0.472924
Si Si2 0.668416 0.666667 0.916667
Si Si3 0.788412 0.467452 0.847399
Si Si4 0.489277 0.926656 0.509679
Si Si5 0.025360 0.278544 0.133477
Si Si6 0.000000 0.841008 0.750000
Si Si7 0.140510 0.459937 0.264264
O O1 0.512027 0.209982 0.414592
O O2 0.409966 0.158151 0.477430
O O3 0.527451 0.229422 0.530965
O O4 0.480496 0.292476 0.469871
O O5 0.617366 0.641469 0.863057
O O6 0.672743 0.602902 0.939858
O O7 0.788320 0.399039 0.852932
O O8 0.848837 0.522474 0.806278
O O9 0.548998 0.930507 0.551230
O O10 0.497675 0.892273 0.448894
O O11 0.418027 0.887009 0.542819
O O12 0.500000 0.000000 0.500000
O O13 0.046935 0.333334 0.083334
#
# Coordination Sequence:
#
# PCOD8324330 Si02
#       7
#    36  18  36  36  36  18  36
#     4  10  23  42  67  98 137 181 227 292 351 416
#     4  12  25  44  62  98 134 182 232 283 352 432
#     4  10  20  40  67  98 130 172 224 283 343 406
#     4  11  23  43  67  95 138 186 226 286 350 422
#     4  11  23  42  66  96 134 180 227 282 353 416
#     4  10  23  44  68  92 138 186 228 281 354 420
#     4  11  25  42  69 101 137 178 239 288 354 421
#
# _framework density 20.938794999999999
#
# number of rings (size 3 to 8) (size 9 to 14) (size 15 to 20)
#    0.000    1.333    1.667    5.167    1.167    3.333 
#    0.000    0.000    0.000   13.333    0.000    0.000 
#    0.000    0.000    0.000    0.000    0.000    0.000 
#
# Total GULP energy -891978.379282 kJ/mol
# GULP energy per Si atom -12388.588601 kJ/mol
# Density = 2.089114 g / cm^3
# Si number density = 20.938795 Si / 1000 Ang^3
#
#
#
# Elastic Constant Matrix: (Units=GPa)
#
#
# Indices 1 2 3 4 5 6 
#
# 1 110.6671 43.3706 46.2317 17.9678 -0.0008 0.0000
# 2 43.3706 110.6671 46.2317 -17.9678 0.0008 0.0000
# 3 46.2317 46.2317 144.4273 0.0000 0.0000 0.0000
# 4 17.9678 -17.9678 0.0000 14.1465 0.0000 0.0008
# 5 -0.0008 0.0008 0.0000 0.0000 14.1465 17.9678
# 6 0.0000 0.0000 0.0000 0.0008 17.9678 33.6483
#
#
#
# Elastic Compliance Matrix: (Units=1/GPa)
#
#
# Indices 1 2 3 4 5 6 
#
# 1 0.027108 -0.019072 -0.002572 -0.058655 0.000003 0.000000
# 2 -0.019072 0.027108 -0.002572 0.058655 -0.000003 0.000000
# 3 -0.002572 -0.002572 0.008571 0.000000 0.000000 0.000000
# 4 -0.058655 0.058655 0.000000 0.219688 0.000000 -0.000005
# 5 0.000003 -0.000003 0.000000 0.000000 0.219688 -0.117311
# 6 0.000000 0.000000 0.000000 -0.000005 -0.117311 0.092362
#
#
# Mechanical properties :
#
#
# Convention : Reuss Voigt Hill
#
# Bulk Modulus (GPa) = 69.67024 70.82553 70.24788
# Shear Modulus (GPa) = 7.71910 27.71675 17.71792
#
# Velocity S-wave (km/s) = 1.92211 3.64222 2.91207
# Velocity P-wave (km/s) = 6.18640 7.18235 6.70290
#
# Compressibility (1/GPa) = 0.01435333
#
# Stress axis : x y z
#
# Youngs Moduli (GPa) = 36.88885 36.88885 116.67599
#
# Poissons Ratio (x) = 0.70356 0.30013
# Poissons Ratio (y) = 0.70356 0.30013
# Poissons Ratio (z) = 0.09489 0.09489
#
# Static dielectric constant tensor:
#      x y z
#    x 4.174620 0.000000 0.000000 
#    y 0.000000 4.174620 0.000000 
#    z 0.000000 0.000000 3.819800 
# 
# 
# High freq. dielectric constant tensor:
#      x y z
#    x 1.821510 0.000000 0.000000 
#    y 0.000000 1.821510 0.000000 
#    z 0.000000 0.000000 1.830680 
# 
# From -- ./inp_files/5574.got.cif
#   From: 2010.03.12/outbox.cif.g09.slc.cpg/sg167_3_cif.got.tgz:5574.got - 2010.04.02 06:42:56.
