data_PCOD8324837
_publ_section_title
;
Structure prediction by ZEFSAII (Michael W. Deem and Ramdas Pophale) SiO2 
 PCOD8324837
Probable space group: P 63
;
_chemical_formula_sum "Si O2"
_cell_formula_units_Z 40
_cell_length_a 16.621150
_cell_length_b 16.621150
_cell_length_c 9.176492
_cell_angle_alpha 90.000000
_cell_angle_beta 90.000000
_cell_angle_gamma 120.000000
_cell_volume 2195.479871
_symmetry_space_group_name_H-M "P 63"
_symmetry_group_IT_number 173
_symmetry_cell_setting 'hexagonal'
loop_
_space_group_symop_operation_xyz
x,y,z
x-y,x,1/2+z
-y,x-y,z
-x,-y,1/2+z
-x+y,-x,z
y,-x+y,1/2+z
loop_
_atom_site_type_symbol
_atom_site_label
_atom_site_fract_x
_atom_site_fract_y
_atom_site_fract_z
Si Si1 0.320526 0.396955 0.601280
Si Si2 0.007827 0.445128 0.871525
Si Si3 0.333334 0.666668 0.133838
Si Si4 0.550792 0.396106 0.139905
Si Si5 0.167739 0.410289 0.452355
Si Si6 0.166337 0.698044 0.198672
Si Si7 0.333334 0.666668 0.797387
Si Si8 0.608366 0.963082 0.932765
O O1 0.378357 0.361985 0.498370
O O2 0.392697 0.505297 0.561519
O O3 0.216428 0.363457 0.546115
O O4 0.313098 0.376260 0.770965
O O5 0.909844 0.384452 0.793757
O O6 0.015317 0.539362 0.937782
O O7 0.084201 0.467933 0.746857
O O8 0.243131 0.668948 0.181794
O O9 0.333334 0.666667 0.964913
O O10 0.628309 0.398417 0.243914
O O11 0.511665 0.313554 0.021171
O O12 0.203291 0.418066 0.285668
O O13 0.056062 0.349694 0.467428
O O14 0.120149 0.706675 0.046386
#
# Coordination Sequence:
#
# PCOD8324837 Si02
#       8
#     6   6   2   6   6   6   2   6
#     4  10  21  34  56  78 101 145 197 223 288 325
#     4  10  19  36  52  73 100 152 182 234 285 331
#     4  12  24  34  47  79 111 136 194 262 273 307
#     4  11  20  33  52  68 109 139 193 241 272 323
#     4  11  22  37  56  75 102 154 184 239 279 324
#     4  11  24  35  55  79 107 147 201 236 286 331
#     4  12  24  31  44  76 102 142 191 250 282 307
#     4  11  20  40  52  78 112 143 190 237 283 344
#
# _framework density 18.219249999999999
#
# number of rings (size 3 to 8) (size 9 to 14) (size 15 to 20)
#    0.000    1.200    4.500    3.600    2.100    1.200 
#    0.000    0.000    0.000    0.000    0.000    0.000 
#    0.000    0.000    0.000    9.000    0.000    1.800 
#
# Total GULP energy -495530.270283 kJ/mol
# GULP energy per Si atom -12388.256757 kJ/mol
# Density = 1.817778 g / cm^3
# Si number density = 18.219250 Si / 1000 Ang^3
#
#
#
# Elastic Constant Matrix: (Units=GPa)
#
#
# Indices 1 2 3 4 5 6 
#
# 1 59.9626 21.2286 32.9033 0.0000 0.0000 0.0007
# 2 21.2286 59.9637 32.9035 0.0000 0.0000 0.0011
# 3 32.9033 32.9035 131.1290 0.0000 0.0000 0.0005
# 4 0.0000 0.0000 0.0000 27.6189 0.0002 0.0000
# 5 0.0000 0.0000 0.0000 0.0002 27.6188 0.0000
# 6 0.0007 0.0011 0.0005 0.0000 0.0000 19.3663
#
#
#
# Elastic Compliance Matrix: (Units=1/GPa)
#
#
# Indices 1 2 3 4 5 6 
#
# 1 0.020639 -0.005178 -0.003880 0.000000 0.000000 0.000000
# 2 -0.005178 0.020639 -0.003879 0.000000 0.000000 -0.000001
# 3 -0.003880 -0.003879 0.009573 0.000000 0.000000 0.000000
# 4 0.000000 0.000000 0.000000 0.036207 0.000000 0.000000
# 5 0.000000 0.000000 0.000000 0.000000 0.036207 0.000000
# 6 0.000000 -0.000001 0.000000 0.000000 0.000000 0.051636
#
#
# Mechanical properties :
#
#
# Convention : Reuss Voigt Hill
#
# Bulk Modulus (GPa) = 40.03718 47.23622 43.63670
# Shear Modulus (GPa) = 23.91194 25.85545 24.88370
#
# Velocity S-wave (km/s) = 3.62671 3.77122 3.69967
# Velocity P-wave (km/s) = 6.28970 6.70415 6.50023
#
# Compressibility (1/GPa) = 0.02497678
#
# Stress axis : x y z
#
# Youngs Moduli (GPa) = 48.45188 48.45289 104.46042
#
# Poissons Ratio (x) = 0.25088 0.40526
# Poissons Ratio (y) = 0.25088 0.40525
# Poissons Ratio (z) = 0.18797 0.18797
#
# Static dielectric constant tensor:
#      x y z
#    x 3.248760 -0.000020 0.000000 
#    y -0.000020 3.248750 0.000000 
#    z 0.000000 0.000000 3.885570 
# 
# 
# High freq. dielectric constant tensor:
#      x y z
#    x 1.671220 0.000000 0.000000 
#    y 0.000000 1.671220 0.000000 
#    z 0.000000 0.000000 1.741670 
# 
# From -- ./inp_files/635.got.cif
#   From: 2010.03.12/outbox.cif.g09.slc.cpg/sg173_cif.got.tgz:635.got - 2010.04.02 06:54:12.
