data_PCOD8324220
_publ_section_title
;
Structure prediction by ZEFSAII (Michael W. Deem and Ramdas Pophale) SiO2 
 PCOD8324220
Probable space group: R -3 M
;
_chemical_formula_sum "Si O2"
_cell_formula_units_Z 126
_cell_length_a 25.802560
_cell_length_b 25.802560
_cell_length_c 11.046968
_cell_angle_alpha 90.000000
_cell_angle_beta 90.000000
_cell_angle_gamma 120.000000
_cell_volume 6369.411694
_symmetry_space_group_name_H-M "R -3 M"
_symmetry_group_IT_number 166
_symmetry_cell_setting 'hexagonal'
loop_
_space_group_symop_operation_xyz
x,y,z
-y,x-y,z
-x+y,-x,z
x-y,-y,-z
-x,-x+y,-z
y,x,-z
-x,-y,-z
y,-x+y,-z
x-y,x,-z
-x+y,y,z
x,x-y,z
-y,-x,z
2/3+x,1/3+y,1/3+z
2/3-y,1/3+x-y,1/3+z
2/3-x+y,1/3-x,1/3+z
2/3+x-y,1/3-y,1/3-z
2/3-x,1/3-x+y,1/3-z
2/3+y,1/3+x,1/3-z
2/3-x,1/3-y,1/3-z
2/3+y,1/3-x+y,1/3-z
2/3+x-y,1/3+x,1/3-z
2/3-x+y,1/3+y,1/3+z
2/3+x,1/3+x-y,1/3+z
2/3-y,1/3-x,1/3+z
1/3+x,2/3+y,2/3+z
1/3-y,2/3+x-y,2/3+z
1/3-x+y,2/3-x,2/3+z
1/3+x-y,2/3-y,2/3-z
1/3-x,2/3-x+y,2/3-z
1/3+y,2/3+x,2/3-z
1/3-x,2/3-y,2/3-z
1/3+y,2/3-x+y,2/3-z
1/3+x-y,2/3+x,2/3-z
1/3-x+y,2/3+y,2/3+z
1/3+x,2/3+x-y,2/3+z
1/3-y,2/3-x,2/3+z
loop_
_atom_site_type_symbol
_atom_site_label
_atom_site_fract_x
_atom_site_fract_y
_atom_site_fract_z
Si Si1 0.621430 0.124011 0.428576
Si Si2 0.910395 0.333334 0.833334
Si Si3 0.558197 0.837216 0.390935
Si Si4 0.781815 0.679993 0.927422
O O1 0.567403 0.134805 0.450091
O O2 0.666667 0.172894 0.333334
O O3 0.654580 0.137643 0.556507
O O4 0.599996 0.058057 0.372602
O O5 0.854830 0.288154 0.749986
O O6 0.920045 0.288730 0.922080
O O7 0.530243 0.765122 0.399787
O O8 0.619854 0.868553 0.465214
O O9 0.826508 0.653015 0.948409
#
# Coordination Sequence:
#
# PCOD8324220 Si02
#       4
#    36  18  36  36
#     4   9  18  35  59  82 106 137 178 233 285 323
#     4  12  22  32  54  80 112 154 184 208 256 324
#     4  10  22  38  54  77 112 148 181 220 269 327
#     4   9  20  37  54  78 110 141 181 231 273 313
#
# _framework density 19.782046999999999
#
# number of rings (size 3 to 8) (size 9 to 14) (size 15 to 20)
#    0.000    2.286    0.000    4.286    0.000   12.571 
#    0.000    2.857    0.000    5.143    0.000    2.000 
#    0.000    0.000    0.000    0.000    0.000    0.000 
#
# Total GULP energy -520431.354154 kJ/mol
# GULP energy per Si atom -12391.222718 kJ/mol
# Density = 1.973702 g / cm^3
# Si number density = 19.782047 Si / 1000 Ang^3
#
#
#
# Elastic Constant Matrix: (Units=GPa)
#
#
# Indices 1 2 3 4 5 6 
#
# 1 116.0194 63.3401 30.2066 7.5448 0.0003 0.0000
# 2 63.3401 116.0176 30.2017 -7.5443 -0.0024 0.0008
# 3 30.2066 30.2017 76.9350 0.0020 -0.0069 0.0021
# 4 7.5448 -7.5443 0.0020 22.1158 0.0008 -0.0008
# 5 0.0003 -0.0024 -0.0069 0.0008 22.1150 7.5457
# 6 0.0000 0.0008 0.0021 -0.0008 7.5457 26.3380
#
#
#
# Elastic Compliance Matrix: (Units=1/GPa)
#
#
# Indices 1 2 3 4 5 6 
#
# 1 0.013732 -0.007307 -0.002523 -0.007177 -0.000002 0.000001
# 2 -0.007307 0.013732 -0.002522 0.007177 0.000001 0.000000
# 3 -0.002523 -0.002522 0.014979 -0.000001 0.000005 -0.000003
# 4 -0.007177 0.007177 -0.000001 0.050113 -0.000001 0.000002
# 5 -0.000002 0.000001 0.000005 -0.000001 0.050117 -0.014358
# 6 0.000001 0.000000 -0.000003 0.000002 -0.014358 0.042082
#
#
# Mechanical properties :
#
#
# Convention : Reuss Voigt Hill
#
# Bulk Modulus (GPa) = 56.37334 61.82987 59.10160
# Shear Modulus (GPa) = 23.21572 26.46200 24.83886
#
# Velocity S-wave (km/s) = 3.42947 3.66139 3.54733
# Velocity P-wave (km/s) = 6.65137 7.01412 6.83515
#
# Compressibility (1/GPa) = 0.01773888
#
# Stress axis : x y z
#
# Youngs Moduli (GPa) = 72.82232 72.82336 66.76221
#
# Poissons Ratio (x) = 0.53212 0.16844
# Poissons Ratio (y) = 0.53211 0.16837
# Poissons Ratio (z) = 0.18372 0.18365
#
# Static dielectric constant tensor:
#      x y z
#    x 3.598980 -0.000010 0.000000 
#    y -0.000010 3.598990 0.000000 
#    z 0.000000 0.000000 3.585260 
# 
# 
# High freq. dielectric constant tensor:
#      x y z
#    x 1.754450 0.000000 0.000000 
#    y 0.000000 1.754450 0.000000 
#    z 0.000000 0.000000 1.774320 
# 
# From -- ./inp_files/2851.got.cif
#   From: 2010.03.12/outbox.cif.g09.slc.cpg/sg166_2_cif.got.tgz:2851.got - 2010.04.02 06:38:31.
