data_PCOD8324593
_publ_section_title
;
Structure prediction by ZEFSAII (Michael W. Deem and Ramdas Pophale) SiO2 
 PCOD8324593
Probable space group: P 61
;
_chemical_formula_sum "Si O2"
_cell_formula_units_Z 36
_cell_length_a 14.988372
_cell_length_b 14.988372
_cell_length_c 8.779052
_cell_angle_alpha 90.000000
_cell_angle_beta 90.000000
_cell_angle_gamma 120.000000
_cell_volume 1707.997301
_symmetry_space_group_name_H-M "P 61"
_symmetry_group_IT_number 169
_symmetry_cell_setting 'hexagonal'
loop_
_space_group_symop_operation_xyz
x,y,z
x-y,x,1/6+z
-y,x-y,1/3+z
-x,-y,1/2+z
-x+y,-x,2/3+z
y,-x+y,5/6+z
loop_
_atom_site_type_symbol
_atom_site_label
_atom_site_fract_x
_atom_site_fract_y
_atom_site_fract_z
Si Si1 0.765652 0.693096 0.683130
Si Si2 0.308847 0.469801 0.919338
Si Si3 0.053673 0.192613 0.984737
Si Si4 0.973220 0.314709 0.831956
Si Si5 0.502688 0.663971 0.037470
Si Si6 0.362261 0.199257 0.294153
O O1 0.726847 0.630168 0.525858
O O2 0.880268 0.784478 0.640765
O O3 0.701938 0.743473 0.754606
O O4 0.772718 0.616764 0.805604
O O5 0.352911 0.443115 0.769228
O O6 0.222451 0.495265 0.855366
O O7 0.391103 0.565708 0.017128
O O8 0.940015 0.099855 0.013292
O O9 0.050876 0.294272 0.933034
O O10 0.899062 0.206692 0.742725
O O11 0.041236 0.410168 0.721002
O O12 0.529422 0.724772 0.876199
#
# Coordination Sequence:
#
# PCOD8324593 Si02
#       6
#     6   6   6   6   6   6
#     4  12  22  41  66 100 137 181 228 280 340 412
#     4  11  26  45  72 100 136 182 229 292 361 409
#     4  12  23  38  63  95 139 185 221 272 335 406
#     4  11  22  46  66  95 144 183 224 285 346 417
#     4  11  25  46  69 102 135 181 231 292 356 417
#     4  11  24  40  68  98 137 180 229 277 338 421
#
# _framework density 21.077314999999999
#
# number of rings (size 3 to 8) (size 9 to 14) (size 15 to 20)
#    0.000    0.667    6.667    1.000    2.333    2.667 
#    0.000    3.333    0.000    0.000    0.000    0.000 
#    0.000    0.000    0.000    0.000    0.000    0.000 
#
# Total GULP energy -446045.891521 kJ/mol
# GULP energy per Si atom -12390.163653 kJ/mol
# Density = 2.102934 g / cm^3
# Si number density = 21.077315 Si / 1000 Ang^3
#
#
#
# Elastic Constant Matrix: (Units=GPa)
#
#
# Indices 1 2 3 4 5 6 
#
# 1 91.0705 42.2168 34.9373 0.0000 0.0000 0.0000
# 2 42.2168 91.0705 34.9373 0.0000 0.0000 0.0000
# 3 34.9373 34.9373 99.0076 0.0000 0.0000 0.0000
# 4 0.0000 0.0000 0.0000 41.2197 0.0000 0.0000
# 5 0.0000 0.0000 0.0000 0.0000 41.2197 0.0000
# 6 0.0000 0.0000 0.0000 0.0000 0.0000 24.4269
#
#
#
# Elastic Compliance Matrix: (Units=1/GPa)
#
#
# Indices 1 2 3 4 5 6 
#
# 1 0.014837 -0.005632 -0.003248 0.000000 0.000000 0.000000
# 2 -0.005632 0.014837 -0.003248 0.000000 0.000000 0.000000
# 3 -0.003248 -0.003248 0.012393 0.000000 0.000000 0.000000
# 4 0.000000 0.000000 0.000000 0.024260 0.000000 0.000000
# 5 0.000000 0.000000 0.000000 0.000000 0.024260 0.000000
# 6 0.000000 0.000000 0.000000 0.000000 0.000000 0.040939
#
#
# Mechanical properties :
#
#
# Convention : Reuss Voigt Hill
#
# Bulk Modulus (GPa) = 56.14741 56.14791 56.14766
# Shear Modulus (GPa) = 30.91751 32.64376 31.78063
#
# Velocity S-wave (km/s) = 3.83412 3.93970 3.88727
# Velocity P-wave (km/s) = 6.80421 6.88417 6.84431
#
# Compressibility (1/GPa) = 0.01781026
#
# Stress axis : x y z
#
# Youngs Moduli (GPa) = 67.39725 67.39725 80.69205
#
# Poissons Ratio (x) = 0.37957 0.26212
# Poissons Ratio (y) = 0.37957 0.26212
# Poissons Ratio (z) = 0.21893 0.21893
#
# Static dielectric constant tensor:
#      x y z
#    x 3.649680 0.000000 0.000000 
#    y 0.000000 3.649680 0.000000 
#    z 0.000000 0.000000 3.973540 
# 
# 
# High freq. dielectric constant tensor:
#      x y z
#    x 1.812170 0.000000 0.000000 
#    y 0.000000 1.812170 0.000000 
#    z 0.000000 0.000000 1.840660 
# 
# From -- ./inp_files/595.got.cif
#   From: 2010.03.12/outbox.cif.g09.slc.cpg/sg169_cif.got.tgz:595.got - 2010.04.02 06:46:06.
