data_PCOD8324732
_publ_section_title
;
Structure prediction by ZEFSAII (Michael W. Deem and Ramdas Pophale) SiO2 
 PCOD8324732
Probable space group: P 62
;
_chemical_formula_sum "Si O2"
_cell_formula_units_Z 36
_cell_length_a 15.480142
_cell_length_b 15.480142
_cell_length_c 9.820850
_cell_angle_alpha 90.000000
_cell_angle_beta 90.000000
_cell_angle_gamma 120.000000
_cell_volume 2038.119245
_symmetry_space_group_name_H-M "P 62"
_symmetry_group_IT_number 171
_symmetry_cell_setting 'hexagonal'
loop_
_space_group_symop_operation_xyz
x,y,z
x-y,x,1/3+z
-y,x-y,2/3+z
-x,-y,z
-x+y,-x,1/3+z
y,-x+y,2/3+z
loop_
_atom_site_type_symbol
_atom_site_label
_atom_site_fract_x
_atom_site_fract_y
_atom_site_fract_z
Si Si1 0.095706 0.301853 0.866100
Si Si2 0.388087 0.430699 0.510478
Si Si3 0.909472 0.134675 0.746377
Si Si4 0.736303 0.934873 0.780905
Si Si5 0.396637 0.982549 0.871617
Si Si6 0.792853 0.201785 0.941564
O O1 0.184423 0.376205 0.766179
O O2 0.026874 0.348340 0.906153
O O3 0.026642 0.193982 0.790127
O O4 0.143775 0.294799 0.005012
O O5 0.500000 0.500000 0.561513
O O6 0.379653 0.423713 0.346717
O O7 0.319745 0.475347 0.571596
O O8 0.891774 0.164586 0.597401
O O9 0.850366 0.161290 0.853291
O O10 0.853527 0.014619 0.752122
O O11 0.660633 0.979295 0.771982
O O12 0.324827 0.863930 0.903985
O O13 0.500000 0.000000 0.804266
#
# Coordination Sequence:
#
# PCOD8324732 Si02
#       6
#     6   6   6   6   6   6
#     4  10  20  34  55  79 110 140 181 232 270 332
#     4   9  17  33  60  78 102 144 191 221 274 337
#     4  10  19  35  50  78 101 144 186 207 274 332
#     4  11  21  33  58  76 109 148 176 231 277 329
#     4   9  17  33  57  81 100 143 188 223 273 338
#     4   9  16  34  55  78 107 134 186 226 265 340
#
# _framework density 17.663342
#
# number of rings (size 3 to 8) (size 9 to 14) (size 15 to 20)
#    0.000    2.333    6.667    0.000    4.667    0.000 
#    0.000    3.333   11.000    0.000    0.000    0.000 
#    0.000    0.000    0.000    0.000    0.000    0.000 
#
# Total GULP energy -445970.166617 kJ/mol
# GULP energy per Si atom -12388.060184 kJ/mol
# Density = 1.762314 g / cm^3
# Si number density = 17.663342 Si / 1000 Ang^3
#
#
#
# Elastic Constant Matrix: (Units=GPa)
#
#
# Indices 1 2 3 4 5 6 
#
# 1 89.4404 35.5588 23.4438 0.0000 0.0000 0.0000
# 2 35.5588 89.4404 23.4438 0.0000 0.0000 0.0000
# 3 23.4438 23.4438 70.0606 0.0000 0.0000 0.0000
# 4 0.0000 0.0000 0.0000 19.9044 0.0000 0.0000
# 5 0.0000 0.0000 0.0000 0.0000 19.9044 0.0000
# 6 0.0000 0.0000 0.0000 0.0000 0.0000 26.9408
#
#
#
# Elastic Compliance Matrix: (Units=1/GPa)
#
#
# Indices 1 2 3 4 5 6 
#
# 1 0.013854 -0.004705 -0.003061 0.000000 0.000000 0.000000
# 2 -0.004705 0.013854 -0.003061 0.000000 0.000000 0.000000
# 3 -0.003061 -0.003061 0.016322 0.000000 0.000000 0.000000
# 4 0.000000 0.000000 0.000000 0.050240 0.000000 0.000000
# 5 0.000000 0.000000 0.000000 0.000000 0.050240 0.000000
# 6 0.000000 0.000000 0.000000 0.000000 0.000000 0.037118
#
#
# Mechanical properties :
#
#
# Convention : Reuss Voigt Hill
#
# Bulk Modulus (GPa) = 44.69510 45.98156 45.33833
# Shear Modulus (GPa) = 23.72567 24.44958 24.08763
#
# Velocity S-wave (km/s) = 3.66897 3.72452 3.69685
# Velocity P-wave (km/s) = 6.58082 6.67718 6.62918
#
# Compressibility (1/GPa) = 0.02237382
#
# Stress axis : x y z
#
# Youngs Moduli (GPa) = 72.18253 72.18253 61.26674
#
# Poissons Ratio (x) = 0.33965 0.18755
# Poissons Ratio (y) = 0.33965 0.18755
# Poissons Ratio (z) = 0.22097 0.22097
#
# Static dielectric constant tensor:
#      x y z
#    x 3.934030 0.000000 0.000000 
#    y 0.000000 3.934030 0.000000 
#    z 0.000000 0.000000 3.120680 
# 
# 
# High freq. dielectric constant tensor:
#      x y z
#    x 1.666630 0.000000 0.000000 
#    y 0.000000 1.666630 0.000000 
#    z 0.000000 0.000000 1.670760 
# 
# From -- ./inp_files/1230.got.cif
#   From: 2010.03.12/outbox.cif.g09.slc.cpg/sg171_1_cif.got.tgz:1230.got - 2010.04.02 06:49:11.
