data_PCOD8324561
_publ_section_title
;
Structure prediction by ZEFSAII (Michael W. Deem and Ramdas Pophale) SiO2 
 PCOD8324561
Probable space group: P 61
;
_chemical_formula_sum "Si O2"
_cell_formula_units_Z 24
_cell_length_a 11.224455
_cell_length_b 11.224455
_cell_length_c 10.092291
_cell_angle_alpha 90.000000
_cell_angle_beta 90.000000
_cell_angle_gamma 120.000000
_cell_volume 1101.161256
_symmetry_space_group_name_H-M "P 61"
_symmetry_group_IT_number 169
_symmetry_cell_setting 'hexagonal'
loop_
_space_group_symop_operation_xyz
x,y,z
x-y,x,1/6+z
-y,x-y,1/3+z
-x,-y,1/2+z
-x+y,-x,2/3+z
y,-x+y,5/6+z
loop_
_atom_site_type_symbol
_atom_site_label
_atom_site_fract_x
_atom_site_fract_y
_atom_site_fract_z
Si Si1 0.541697 0.709398 0.024790
Si Si2 0.809274 0.751461 0.364708
Si Si3 0.519923 0.582418 0.495567
Si Si4 0.542461 0.291377 0.235618
O O1 0.685477 0.827838 0.082979
O O2 0.521073 0.561741 0.066953
O O3 0.420366 0.726284 0.088208
O O4 0.546257 0.722102 0.865648
O O5 0.803577 0.883466 0.314885
O O6 0.661686 0.637772 0.419395
O O7 0.401323 0.556860 0.389023
O O8 0.531558 0.691296 0.606926
#
# Coordination Sequence:
#
# PCOD8324561 Si02
#       4
#     6   6   6   6
#     4  11  22  44  72 102 143 179 229 296 363 419
#     4  12  27  50  70 100 149 192 234 294 359 439
#     4  11  24  43  75 106 140 181 243 302 358 422
#     4  10  23  41  69 110 134 180 236 292 356 426
#
# _framework density 21.795172999999998
#
# number of rings (size 3 to 8) (size 9 to 14) (size 15 to 20)
#    0.000    1.000    2.500    4.500    3.500    2.000 
#    9.000    0.000    0.000    0.000    0.000    0.000 
#    0.000    0.000    0.000    0.000    0.000    0.000 
#
# Total GULP energy -297718.295397 kJ/mol
# GULP energy per Si atom -12404.928975 kJ/mol
# Density = 2.174557 g / cm^3
# Si number density = 21.795173 Si / 1000 Ang^3
#
#
#
# Elastic Constant Matrix: (Units=GPa)
#
#
# Indices 1 2 3 4 5 6 
#
# 1 120.6329 34.3299 42.7075 0.0000 0.0000 0.0000
# 2 34.3299 120.6329 42.7075 0.0000 0.0000 0.0000
# 3 42.7075 42.7075 102.6644 0.0000 0.0000 0.0000
# 4 0.0000 0.0000 0.0000 37.4144 0.0000 0.0000
# 5 0.0000 0.0000 0.0000 0.0000 37.4144 0.0000
# 6 0.0000 0.0000 0.0000 0.0000 0.0000 43.1515
#
#
#
# Elastic Compliance Matrix: (Units=1/GPa)
#
#
# Indices 1 2 3 4 5 6 
#
# 1 0.009980 -0.001607 -0.003483 0.000000 0.000000 0.000000
# 2 -0.001607 0.009980 -0.003483 0.000000 0.000000 0.000000
# 3 -0.003483 -0.003483 0.012638 0.000000 0.000000 0.000000
# 4 0.000000 0.000000 0.000000 0.026728 0.000000 0.000000
# 5 0.000000 0.000000 0.000000 0.000000 0.026728 0.000000
# 6 0.000000 0.000000 0.000000 0.000000 0.000000 0.023174
#
#
# Mechanical properties :
#
#
# Convention : Reuss Voigt Hill
#
# Bulk Modulus (GPa) = 64.71651 64.82440 64.77046
# Shear Modulus (GPa) = 38.01553 38.54174 38.27863
#
# Velocity S-wave (km/s) = 4.18091 4.20975 4.19536
# Velocity P-wave (km/s) = 7.28452 7.31002 7.29728
#
# Compressibility (1/GPa) = 0.01545201
#
# Stress axis : x y z
#
# Youngs Moduli (GPa) = 100.19978 100.19978 79.12416
#
# Poissons Ratio (x) = 0.16102 0.27560
# Poissons Ratio (y) = 0.16102 0.27560
# Poissons Ratio (z) = 0.34901 0.34901
#
# Static dielectric constant tensor:
#      x y z
#    x 3.978740 0.000000 0.000000 
#    y 0.000000 3.978740 0.000000 
#    z 0.000000 0.000000 3.783450 
# 
# 
# High freq. dielectric constant tensor:
#      x y z
#    x 1.857070 0.000000 0.000000 
#    y 0.000000 1.857070 0.000000 
#    z 0.000000 0.000000 1.853790 
# 
# From -- ./inp_files/847.got.cif
#   From: 2010.03.12/outbox.cif.g09.slc.cpg/sg169_cif.got.tgz:847.got - 2010.04.02 06:46:06.
