data_PCOD8324951
_publ_section_title
;
Structure prediction by ZEFSAII (Michael W. Deem and Ramdas Pophale) SiO2 
 PCOD8324951
Probable space group: P -6
;
_chemical_formula_sum "Si O2"
_cell_formula_units_Z 28
_cell_length_a 14.277587
_cell_length_b 14.277587
_cell_length_c 8.846765
_cell_angle_alpha 90.000000
_cell_angle_beta 90.000000
_cell_angle_gamma 120.000000
_cell_volume 1561.797607
_symmetry_space_group_name_H-M "P -6"
_symmetry_group_IT_number 174
_symmetry_cell_setting 'hexagonal'
loop_
_space_group_symop_operation_xyz
x,y,z
-x+y,-x,-z
-y,x-y,z
x,y,-z
-x+y,-x,z
-y,x-y,-z
loop_
_atom_site_type_symbol
_atom_site_label
_atom_site_fract_x
_atom_site_fract_y
_atom_site_fract_z
Si Si1 0.333333 0.666666 0.678539
Si Si2 0.282413 0.324083 0.173556
Si Si3 0.442931 0.561130 0.173849
Si Si4 0.656933 0.744094 0.679158
Si Si5 0.881086 0.121682 0.322139
Si Si6 0.000000 0.000000 0.320755
O O1 0.333334 0.666668 0.500000
O O2 0.222827 0.652909 0.743789
O O3 0.399116 0.433601 0.189086
O O4 0.184743 0.328854 0.257910
O O5 0.308600 0.233894 0.239317
O O6 0.247254 0.300325 0.000000
O O7 0.554718 0.636331 0.258004
O O8 0.455322 0.598434 0.000000
O O9 0.646094 0.748954 0.500000
O O10 0.757057 0.727077 0.724177
O O11 0.860645 0.112900 0.500000
O O12 0.923305 0.043195 0.261608
O O13 0.000000 0.000000 0.500000
#
# Coordination Sequence:
#
# PCOD8324951 Si02
#       6
#     2   6   6   6   6   2
#     4  12  22  32  55  84 112 152 193 228 274 341
#     4  11  23  36  55  82 114 151 186 228 283 337
#     4  11  23  38  54  79 118 153 186 235 284 334
#     4  11  22  36  58  84 111 149 190 232 283 337
#     4  10  20  36  56  80 113 148 185 227 274 332
#     4   9  15  30  52  77 112 147 172 218 274 321
#
# _framework density 17.928059999999999
#
# number of rings (size 3 to 8) (size 9 to 14) (size 15 to 20)
#    0.000    1.286    4.286    2.571    0.000    4.286 
#    0.000    0.000    0.000    0.857    0.000    0.000 
#    0.000    0.000    0.000    0.000    0.000    0.000 
#
# Total GULP energy -347088.159571 kJ/mol
# GULP energy per Si atom -12396.005699 kJ/mol
# Density = 1.788725 g / cm^3
# Si number density = 17.928060 Si / 1000 Ang^3
#
#
#
# Elastic Constant Matrix: (Units=GPa)
#
#
# Indices 1 2 3 4 5 6 
#
# 1 94.9359 37.5387 44.8675 0.0000 0.0000 0.0000
# 2 37.5387 94.9357 44.8675 0.0000 0.0000 0.0001
# 3 44.8675 44.8675 96.9730 0.0000 0.0000 0.0001
# 4 0.0000 0.0000 0.0000 27.4582 0.0000 0.0000
# 5 0.0000 0.0000 0.0000 0.0000 27.4582 0.0000
# 6 0.0000 0.0001 0.0001 0.0000 0.0000 28.6987
#
#
#
# Elastic Compliance Matrix: (Units=1/GPa)
#
#
# Indices 1 2 3 4 5 6 
#
# 1 0.014208 -0.003214 -0.005087 0.000000 0.000000 0.000000
# 2 -0.003214 0.014208 -0.005087 0.000000 0.000000 0.000000
# 3 -0.005087 -0.005087 0.015019 0.000000 0.000000 0.000000
# 4 0.000000 0.000000 0.000000 0.036419 0.000000 0.000000
# 5 0.000000 0.000000 0.000000 0.000000 0.036419 0.000000
# 6 0.000000 0.000000 0.000000 0.000000 0.000000 0.034845
#
#
# Mechanical properties :
#
#
# Convention : Reuss Voigt Hill
#
# Bulk Modulus (GPa) = 60.02200 60.15465 60.08833
# Shear Modulus (GPa) = 27.25567 27.36107 27.30837
#
# Velocity S-wave (km/s) = 3.90331 3.91085 3.90708
# Velocity P-wave (km/s) = 7.33938 7.34977 7.34458
#
# Compressibility (1/GPa) = 0.01666056
#
# Stress axis : x y z
#
# Youngs Moduli (GPa) = 70.38100 70.38075 66.58088
#
# Poissons Ratio (x) = 0.22621 0.33869
# Poissons Ratio (y) = 0.22621 0.33869
# Poissons Ratio (z) = 0.35802 0.35802
#
# Static dielectric constant tensor:
#      x y z
#    x 3.328500 0.000000 0.000000 
#    y 0.000000 3.328500 0.000000 
#    z 0.000000 0.000000 3.353240 
# 
# 
# High freq. dielectric constant tensor:
#      x y z
#    x 1.684610 0.000000 0.000000 
#    y 0.000000 1.684610 0.000000 
#    z 0.000000 0.000000 1.701520 
# 
# From -- ./inp_files/292.got.cif
#   From: 2010.03.12/outbox.cif.g09.slc.cpg/sg174_cif.got.tgz:292.got - 2010.04.02 06:54:58.
