data_PCOD8324247
_publ_section_title
;
Structure prediction by ZEFSAII (Michael W. Deem and Ramdas Pophale) SiO2 
 PCOD8324247
Probable space group: R -3 M
;
_chemical_formula_sum "Si O2"
_cell_formula_units_Z 144
_cell_length_a 28.131096
_cell_length_b 28.131096
_cell_length_c 9.935313
_cell_angle_alpha 90.000000
_cell_angle_beta 90.000000
_cell_angle_gamma 120.000000
_cell_volume 6809.033814
_symmetry_space_group_name_H-M "R -3 M"
_symmetry_group_IT_number 166
_symmetry_cell_setting 'hexagonal'
loop_
_space_group_symop_operation_xyz
x,y,z
-y,x-y,z
-x+y,-x,z
x-y,-y,-z
-x,-x+y,-z
y,x,-z
-x,-y,-z
y,-x+y,-z
x-y,x,-z
-x+y,y,z
x,x-y,z
-y,-x,z
2/3+x,1/3+y,1/3+z
2/3-y,1/3+x-y,1/3+z
2/3-x+y,1/3-x,1/3+z
2/3+x-y,1/3-y,1/3-z
2/3-x,1/3-x+y,1/3-z
2/3+y,1/3+x,1/3-z
2/3-x,1/3-y,1/3-z
2/3+y,1/3-x+y,1/3-z
2/3+x-y,1/3+x,1/3-z
2/3-x+y,1/3+y,1/3+z
2/3+x,1/3+x-y,1/3+z
2/3-y,1/3-x,1/3+z
1/3+x,2/3+y,2/3+z
1/3-y,2/3+x-y,2/3+z
1/3-x+y,2/3-x,2/3+z
1/3+x-y,2/3-y,2/3-z
1/3-x,2/3-x+y,2/3-z
1/3+y,2/3+x,2/3-z
1/3-x,2/3-y,2/3-z
1/3+y,2/3-x+y,2/3-z
1/3+x-y,2/3+x,2/3-z
1/3-x+y,2/3+y,2/3+z
1/3+x,2/3+x-y,2/3+z
1/3-y,2/3-x,2/3+z
loop_
_atom_site_type_symbol
_atom_site_label
_atom_site_fract_x
_atom_site_fract_y
_atom_site_fract_z
Si Si1 0.189065 0.703666 0.787056
Si Si2 0.568224 0.604829 0.629655
Si Si3 0.395173 0.963387 0.129640
Si Si4 0.144264 0.181262 0.379593
O O1 0.250676 0.749325 0.826983
O O2 0.191760 0.666667 0.666667
O O3 0.157123 0.733971 0.732305
O O4 0.158394 0.666669 0.916663
O O5 0.588577 0.588577 0.500000
O O6 0.612307 0.666667 0.666667
O O7 0.564191 0.564187 0.750003
O O8 0.333334 0.945614 0.166667
O O9 0.400653 0.910182 0.100979
O O10 0.411410 0.000000 0.000000
O O11 0.141581 0.141581 0.500000
O O12 0.082649 0.165298 0.339672
#
# Coordination Sequence:
#
# PCOD8324247 Si02
#       4
#    36  36  36  36
#     4  11  24  42  64  89 119 158 201 250 310 366
#     4  11  21  34  56  86 123 165 203 238 280 336
#     4  11  21  34  56  86 123 165 203 238 280 336
#     4  11  24  42  64  89 119 158 201 250 310 366
#
# _framework density 21.148374
#
# number of rings (size 3 to 8) (size 9 to 14) (size 15 to 20)
#    0.000    1.000    0.000   10.500    0.000    2.000 
#    0.000    0.000    0.000   10.000    0.000    0.000 
#    0.000    0.000    0.000    0.000    0.000    0.000 
#
# Total GULP energy -595336.651934 kJ/mol
# GULP energy per Si atom -12402.846915 kJ/mol
# Density = 2.110024 g / cm^3
# Si number density = 21.148374 Si / 1000 Ang^3
#
#
#
# Elastic Constant Matrix: (Units=GPa)
#
#
# Indices 1 2 3 4 5 6 
#
# 1 79.9684 65.6047 43.7347 2.6425 -0.0341 0.0150
# 2 65.6047 80.0077 43.8442 -2.6442 0.0156 -0.0163
# 3 43.7347 43.8442 160.3012 0.0086 -0.0378 -0.0003
# 4 2.6425 -2.6442 0.0086 27.4790 0.0112 -0.0167
# 5 -0.0341 0.0156 -0.0378 0.0112 27.4620 2.6658
# 6 0.0150 -0.0163 -0.0003 -0.0167 2.6658 7.1819
#
#
#
# Elastic Compliance Matrix: (Units=1/GPa)
#
#
# Indices 1 2 3 4 5 6 
#
# 1 0.040140 -0.031927 -0.002218 -0.006932 0.000088 -0.000205
# 2 -0.031927 0.040153 -0.002272 0.006935 -0.000088 0.000207
# 3 -0.002218 -0.002272 0.007465 -0.000008 0.000009 -0.000004
# 4 -0.006932 0.006935 -0.000008 0.037725 -0.000041 0.000133
# 5 0.000088 -0.000088 0.000009 -0.000041 0.037775 -0.014022
# 6 -0.000205 0.000207 -0.000004 0.000133 -0.014022 0.144445
#
#
# Mechanical properties :
#
#
# Convention : Reuss Voigt Hill
#
# Bulk Modulus (GPa) = 67.01422 69.62715 68.32068
# Shear Modulus (GPa) = 12.96973 23.56417 18.26695
#
# Velocity S-wave (km/s) = 2.47912 3.34163 2.94215
# Velocity P-wave (km/s) = 6.32069 6.91978 6.62701
#
# Compressibility (1/GPa) = 0.01492221
#
# Stress axis : x y z
#
# Youngs Moduli (GPa) = 24.91277 24.90475 133.95998
#
# Poissons Ratio (x) = 0.79515 0.29718
# Poissons Ratio (y) = 0.79540 0.30435
# Poissons Ratio (z) = 0.05527 0.05658
#
# Static dielectric constant tensor:
#      x y z
#    x 3.623390 -0.000080 0.000030 
#    y -0.000080 3.623300 -0.000040 
#    z 0.000030 -0.000040 4.057530 
# 
# 
# High freq. dielectric constant tensor:
#      x y z
#    x 1.812470 0.000000 -0.000010 
#    y 0.000000 1.812470 0.000000 
#    z -0.000010 0.000000 1.853230 
# 
# From -- ./inp_files/1774.got.cif
#   From: 2010.03.12/outbox.cif.g09.slc.cpg/sg166_1_cif.got.tgz:1774.got - 2010.04.02 06:38:31.
