data_PCOD8324300
_publ_section_title
;
Structure prediction by ZEFSAII (Michael W. Deem and Ramdas Pophale) SiO2 
 PCOD8324300
Probable space group: R -3 C 
;
_chemical_formula_sum "Si O2"
_cell_formula_units_Z 108
_cell_length_a 21.101160
_cell_length_b 21.101160
_cell_length_c 11.812443
_cell_angle_alpha 90.000000
_cell_angle_beta 90.000000
_cell_angle_gamma 120.000000
_cell_volume 4554.943755
_symmetry_space_group_name_H-M "R -3 C "
_symmetry_group_IT_number 167
_symmetry_cell_setting 'hexagonal'
loop_
_space_group_symop_operation_xyz
x,y,z
-y,x-y,z
-x+y,-x,z
x-y,-y,1/2-z
-x,-x+y,1/2-z
y,x,1/2-z
-x,-y,-z
y,-x+y,-z
x-y,x,-z
-x+y,y,1/2+z
x,x-y,1/2+z
-y,-x,1/2+z
2/3+x,1/3+y,1/3+z
2/3-y,1/3+x-y,1/3+z
2/3-x+y,1/3-x,1/3+z
2/3+x-y,1/3-y,5/6-z
2/3-x,1/3-x+y,5/6-z
2/3+y,1/3+x,5/6-z
2/3-x,1/3-y,1/3-z
2/3+y,1/3-x+y,1/3-z
2/3+x-y,1/3+x,1/3-z
2/3-x+y,1/3+y,5/6+z
2/3+x,1/3+x-y,5/6+z
2/3-y,1/3-x,5/6+z
1/3+x,2/3+y,2/3+z
1/3-y,2/3+x-y,2/3+z
1/3-x+y,2/3-x,2/3+z
1/3+x-y,2/3-y,1/6-z
1/3-x,2/3-x+y,1/6-z
1/3+y,2/3+x,1/6-z
1/3-x,2/3-y,2/3-z
1/3+y,2/3-x+y,2/3-z
1/3+x-y,2/3+x,2/3-z
1/3-x+y,2/3+y,1/6+z
1/3+x,2/3+x-y,1/6+z
1/3-y,2/3-x,1/6+z
loop_
_atom_site_type_symbol
_atom_site_label
_atom_site_fract_x
_atom_site_fract_y
_atom_site_fract_z
Si Si1 0.801924 0.313341 0.344419
Si Si2 0.223500 0.948253 0.842143
Si Si3 0.722197 0.831090 0.179554
O O1 0.722039 0.252276 0.300298
O O2 0.863036 0.327868 0.250228
O O3 0.822699 0.287539 0.460770
O O4 0.152301 0.889860 0.775167
O O5 0.283684 0.000000 0.750000
O O6 0.259984 0.913702 0.922141
O O7 0.666667 0.830444 0.083334
#
# Coordination Sequence:
#
# PCOD8324300 Si02
#       3
#    36  36  36
#     4  11  22  38  63  96 138 178 218 272 336 407
#     4  10  19  39  68  89 126 176 220 283 341 398
#     4   9  20  38  65  89 127 174 225 283 344 389
#
# _framework density 23.710501000000001
#
# number of rings (size 3 to 8) (size 9 to 14) (size 15 to 20)
#    0.000    2.000    3.333    0.333    0.000    1.333 
#    0.000    0.000   22.000    0.000    0.000    0.000 
#    0.000    0.000    0.000    0.000    0.000    0.000 
#
# Total GULP energy -446321.858880 kJ/mol
# GULP energy per Si atom -12397.829413 kJ/mol
# Density = 2.365653 g / cm^3
# Si number density = 23.710501 Si / 1000 Ang^3
#
#
#
# Elastic Constant Matrix: (Units=GPa)
#
#
# Indices 1 2 3 4 5 6 
#
# 1 82.4647 34.7160 28.7469 -3.3353 -0.0002 0.0000
# 2 34.7160 82.4647 28.7469 3.3353 0.0003 0.0000
# 3 28.7469 28.7469 106.1619 0.0000 0.0001 0.0000
# 4 -3.3353 3.3353 0.0000 35.5055 0.0000 0.0002
# 5 -0.0002 0.0003 0.0001 0.0000 35.5055 -3.3353
# 6 0.0000 0.0000 0.0000 0.0002 -3.3353 23.8744
#
#
#
# Elastic Compliance Matrix: (Units=1/GPa)
#
#
# Indices 1 2 3 4 5 6 
#
# 1 0.015531 -0.005690 -0.002665 0.001994 0.000000 0.000000
# 2 -0.005690 0.015531 -0.002665 -0.001994 0.000000 0.000000
# 3 -0.002665 -0.002665 0.010863 0.000000 0.000000 0.000000
# 4 0.001994 -0.001994 0.000000 0.028539 0.000000 0.000000
# 5 0.000000 0.000000 0.000000 0.000000 0.028539 0.003987
# 6 0.000000 0.000000 0.000000 0.000000 0.003987 0.042443
#
#
# Mechanical properties :
#
#
# Convention : Reuss Voigt Hill
#
# Bulk Modulus (GPa) = 50.28674 50.61232 50.44953
# Shear Modulus (GPa) = 29.39187 30.90251 30.14719
#
# Velocity S-wave (km/s) = 3.52463 3.61408 3.56964
# Velocity P-wave (km/s) = 6.14969 6.22958 6.18977
#
# Compressibility (1/GPa) = 0.01988596
#
# Stress axis : x y z
#
# Youngs Moduli (GPa) = 64.38577 64.38577 92.05745
#
# Poissons Ratio (x) = 0.36636 0.24532
# Poissons Ratio (y) = 0.36636 0.24532
# Poissons Ratio (z) = 0.17158 0.17158
#
# Static dielectric constant tensor:
#      x y z
#    x 4.077590 0.000000 0.000000 
#    y 0.000000 4.077590 0.000000 
#    z 0.000000 0.000000 4.601630 
# 
# 
# High freq. dielectric constant tensor:
#      x y z
#    x 1.927170 0.000000 0.000000 
#    y 0.000000 1.927170 0.000000 
#    z 0.000000 0.000000 1.956710 
# 
# From -- ./inp_files/1191.got.cif
#   From: 2010.03.12/outbox.cif.g09.slc.cpg/sg167_1_cif.got.tgz:1191.got - 2010.04.02 06:42:56.
