data_PCOD8324786
_publ_section_title
;
Structure prediction by ZEFSAII (Michael W. Deem and Ramdas Pophale) SiO2 
 PCOD8324786
Probable space group: P 62
;
_chemical_formula_sum "Si O2"
_cell_formula_units_Z 36
_cell_length_a 10.969432
_cell_length_b 10.969432
_cell_length_c 16.566185
_cell_angle_alpha 90.000000
_cell_angle_beta 90.000000
_cell_angle_gamma 120.000000
_cell_volume 1726.320466
_symmetry_space_group_name_H-M "P 62"
_symmetry_group_IT_number 171
_symmetry_cell_setting 'hexagonal'
loop_
_space_group_symop_operation_xyz
x,y,z
x-y,x,1/3+z
-y,x-y,2/3+z
-x,-y,z
-x+y,-x,1/3+z
y,-x+y,2/3+z
loop_
_atom_site_type_symbol
_atom_site_label
_atom_site_fract_x
_atom_site_fract_y
_atom_site_fract_z
Si Si1 0.089025 0.714695 0.935880
Si Si2 0.801473 0.143327 0.778929
Si Si3 0.075579 0.158448 0.717097
Si Si4 0.338135 0.180195 0.801533
Si Si5 0.479957 0.671585 0.649435
Si Si6 0.143435 0.498704 0.288861
O O1 0.175735 0.750819 0.852409
O O2 0.142436 0.634795 0.995520
O O3 0.919963 0.609611 0.926361
O O4 0.121880 0.862632 0.973528
O O5 0.730549 0.178618 0.705480
O O6 0.960120 0.182169 0.760330
O O7 0.702421 0.981926 0.805675
O O8 0.200463 0.190190 0.779698
O O9 0.000000 0.000000 0.683008
O O10 0.460907 0.257611 0.735870
O O11 0.394514 0.254705 0.886913
O O12 0.398102 0.739266 0.604610
O O13 0.000000 0.500000 0.295102
#
# Coordination Sequence:
#
# PCOD8324786 Si02
#       6
#     6   6   6   6   6   6
#     4  10  23  42  68  92 134 170 218 281 333 390
#     4  11  23  42  62 101 130 166 226 278 334 392
#     4   9  21  40  68  97 129 171 227 278 334 387
#     4  10  23  42  67  95 132 175 224 279 327 402
#     4  10  24  45  63  97 132 176 224 271 335 414
#     4  12  26  41  69  96 136 186 221 268 346 410
#
# _framework density 20.853601000000001
#
# number of rings (size 3 to 8) (size 9 to 14) (size 15 to 20)
#    0.000    1.667    1.667    1.000    9.333    2.000 
#    3.000    1.667    0.000    0.000    0.000    0.000 
#    0.000    0.000    0.000    0.000    0.000    0.000 
#
# Total GULP energy -446390.229772 kJ/mol
# GULP energy per Si atom -12399.728605 kJ/mol
# Density = 2.080614 g / cm^3
# Si number density = 20.853601 Si / 1000 Ang^3
#
#
#
# Elastic Constant Matrix: (Units=GPa)
#
#
# Indices 1 2 3 4 5 6 
#
# 1 112.0900 51.7679 51.1401 0.0000 0.0000 0.0000
# 2 51.7679 112.0900 51.1401 0.0000 0.0000 0.0000
# 3 51.1401 51.1401 122.6199 0.0000 0.0000 0.0000
# 4 0.0000 0.0000 0.0000 24.9076 0.0000 0.0000
# 5 0.0000 0.0000 0.0000 0.0000 24.9076 0.0000
# 6 0.0000 0.0000 0.0000 0.0000 0.0000 30.1610
#
#
#
# Elastic Compliance Matrix: (Units=1/GPa)
#
#
# Indices 1 2 3 4 5 6 
#
# 1 0.012414 -0.004163 -0.003441 0.000000 0.000000 0.000000
# 2 -0.004163 0.012414 -0.003441 0.000000 0.000000 0.000000
# 3 -0.003441 -0.003441 0.011026 0.000000 0.000000 0.000000
# 4 0.000000 0.000000 0.000000 0.040148 0.000000 0.000000
# 5 0.000000 0.000000 0.000000 0.000000 0.040148 0.000000
# 6 0.000000 0.000000 0.000000 0.000000 0.000000 0.033155
#
#
# Mechanical properties :
#
#
# Convention : Reuss Voigt Hill
#
# Bulk Modulus (GPa) = 72.65970 72.76623 72.71296
# Shear Modulus (GPa) = 28.41148 28.84534 28.62841
#
# Velocity S-wave (km/s) = 3.69511 3.72322 3.70919
# Velocity P-wave (km/s) = 7.28859 7.31114 7.29987
#
# Compressibility (1/GPa) = 0.01376279
#
# Stress axis : x y z
#
# Youngs Moduli (GPa) = 80.55272 80.55272 90.69822
#
# Poissons Ratio (x) = 0.33538 0.31210
# Poissons Ratio (y) = 0.33538 0.31210
# Poissons Ratio (z) = 0.27719 0.27719
#
# Static dielectric constant tensor:
#      x y z
#    x 4.028260 0.000000 0.000000 
#    y 0.000000 4.028260 0.000000 
#    z 0.000000 0.000000 3.544250 
# 
# 
# High freq. dielectric constant tensor:
#      x y z
#    x 1.826100 0.000000 0.000000 
#    y 0.000000 1.826100 0.000000 
#    z 0.000000 0.000000 1.799930 
# 
# From -- ./inp_files/3619.got.cif
#   From: 2010.03.12/outbox.cif.g09.slc.cpg/sg171_2_cif.got.tgz:3619.got - 2010.04.02 06:49:11.
