data_PCOD8324344
_publ_section_title
;
Structure prediction by ZEFSAII (Michael W. Deem and Ramdas Pophale) SiO2 
 PCOD8324344
Probable space group: R -3 C 
;
_chemical_formula_sum "Si O2"
_cell_formula_units_Z 162
_cell_length_a 22.411584
_cell_length_b 22.411584
_cell_length_c 17.538610
_cell_angle_alpha 90.000000
_cell_angle_beta 90.000000
_cell_angle_gamma 120.000000
_cell_volume 7629.057844
_symmetry_space_group_name_H-M "R -3 C "
_symmetry_group_IT_number 167
_symmetry_cell_setting 'hexagonal'
loop_
_space_group_symop_operation_xyz
x,y,z
-y,x-y,z
-x+y,-x,z
x-y,-y,1/2-z
-x,-x+y,1/2-z
y,x,1/2-z
-x,-y,-z
y,-x+y,-z
x-y,x,-z
-x+y,y,1/2+z
x,x-y,1/2+z
-y,-x,1/2+z
2/3+x,1/3+y,1/3+z
2/3-y,1/3+x-y,1/3+z
2/3-x+y,1/3-x,1/3+z
2/3+x-y,1/3-y,5/6-z
2/3-x,1/3-x+y,5/6-z
2/3+y,1/3+x,5/6-z
2/3-x,1/3-y,1/3-z
2/3+y,1/3-x+y,1/3-z
2/3+x-y,1/3+x,1/3-z
2/3-x+y,1/3+y,5/6+z
2/3+x,1/3+x-y,5/6+z
2/3-y,1/3-x,5/6+z
1/3+x,2/3+y,2/3+z
1/3-y,2/3+x-y,2/3+z
1/3-x+y,2/3-x,2/3+z
1/3+x-y,2/3-y,1/6-z
1/3-x,2/3-x+y,1/6-z
1/3+y,2/3+x,1/6-z
1/3-x,2/3-y,2/3-z
1/3+y,2/3-x+y,2/3-z
1/3+x-y,2/3+x,2/3-z
1/3-x+y,2/3+y,1/6+z
1/3+x,2/3+x-y,1/6+z
1/3-y,2/3-x,1/6+z
loop_
_atom_site_type_symbol
_atom_site_label
_atom_site_fract_x
_atom_site_fract_y
_atom_site_fract_z
Si Si1 0.935434 0.841497 0.990622
Si Si2 0.227513 0.436571 0.302897
Si Si3 0.025768 0.438747 0.418886
Si Si4 0.333334 0.855680 0.916667
Si Si5 0.824495 0.220147 0.469157
O O1 0.910669 0.798234 0.912895
O O2 0.895697 0.880948 0.013166
O O3 0.923440 0.793275 0.062642
O O4 0.158018 0.403502 0.349390
O O5 0.257670 0.386995 0.276392
O O6 0.289488 0.495201 0.355465
O O7 0.044352 0.377685 0.416667
O O8 0.040450 0.478806 0.338360
O O9 0.390749 0.923296 0.869981
O O10 0.879876 0.213210 0.416667
#
# Coordination Sequence:
#
# PCOD8324344 Si02
#       5
#    36  36  36  18  36
#     4  12  24  43  68  96 129 171 227 282 333 403
#     4  10  21  40  62  90 130 172 213 276 325 395
#     4  10  21  39  61  94 132 174 218 264 328 405
#     4  10  22  42  64  90 136 178 212 280 344 392
#     4  11  22  41  69  96 135 183 220 273 345 399
#
# _framework density 21.234601999999999
#
# number of rings (size 3 to 8) (size 9 to 14) (size 15 to 20)
#    0.000    1.333    4.444    1.556    0.000    0.889 
#    2.000    0.000    0.000    0.000    0.000    0.000 
#    0.000    0.000    0.000    0.000    0.000    0.000 
#
# Total GULP energy -669123.331598 kJ/mol
# GULP energy per Si atom -12391.172807 kJ/mol
# Density = 2.118627 g / cm^3
# Si number density = 21.234602 Si / 1000 Ang^3
#
#
#
# Elastic Constant Matrix: (Units=GPa)
#
#
# Indices 1 2 3 4 5 6 
#
# 1 47.6542 6.1879 17.0500 2.2193 -0.0002 0.0000
# 2 6.1879 47.6542 17.0500 -2.2193 0.0002 0.0000
# 3 17.0500 17.0500 111.8966 0.0000 0.0000 0.0000
# 4 2.2193 -2.2193 0.0000 28.8674 0.0000 0.0002
# 5 -0.0002 0.0002 0.0000 0.0000 28.8674 2.2193
# 6 0.0000 0.0000 0.0000 0.0002 2.2193 20.7332
#
#
#
# Elastic Compliance Matrix: (Units=1/GPa)
#
#
# Indices 1 2 3 4 5 6 
#
# 1 0.022436 -0.001880 -0.003132 -0.001869 0.000000 0.000000
# 2 -0.001880 0.022436 -0.003132 0.001869 0.000000 0.000000
# 3 -0.003132 -0.003132 0.009891 0.000000 0.000000 0.000000
# 4 -0.001869 0.001869 0.000000 0.034929 0.000000 0.000000
# 5 0.000000 0.000000 0.000000 0.000000 0.034929 -0.003739
# 6 0.000000 0.000000 0.000000 0.000000 -0.003739 0.048632
#
#
# Mechanical properties :
#
#
# Convention : Reuss Voigt Hill
#
# Bulk Modulus (GPa) = 25.99058 31.97566 28.98312
# Shear Modulus (GPa) = 24.70759 26.82139 25.76449
#
# Velocity S-wave (km/s) = 3.41479 3.55787 3.48706
# Velocity P-wave (km/s) = 5.27390 5.65410 5.46731
#
# Compressibility (1/GPa) = 0.03847548
#
# Stress axis : x y z
#
# Youngs Moduli (GPa) = 44.57058 44.57058 101.09823
#
# Poissons Ratio (x) = 0.08378 0.31667
# Poissons Ratio (y) = 0.08378 0.31667
# Poissons Ratio (z) = 0.13961 0.13961
#
# Static dielectric constant tensor:
#      x y z
#    x 3.675370 0.000000 0.000000 
#    y 0.000000 3.675370 0.000000 
#    z 0.000000 0.000000 -0.695340 
# 
# 
# High freq. dielectric constant tensor:
#      x y z
#    x 1.811870 0.000000 0.000000 
#    y 0.000000 1.811870 0.000000 
#    z 0.000000 0.000000 1.863750 
# 
# From -- ./inp_files/3402.got.cif
#   From: 2010.03.12/outbox.cif.g09.slc.cpg/sg167_2_cif.got.tgz:3402.got - 2010.04.02 06:42:56.
