data_PCOD8324569
_publ_section_title
;
Structure prediction by ZEFSAII (Michael W. Deem and Ramdas Pophale) SiO2 
 PCOD8324569
Probable space group: P 61
;
_chemical_formula_sum "Si O2"
_cell_formula_units_Z 42
_cell_length_a 8.600730
_cell_length_b 8.600730
_cell_length_c 29.082173
_cell_angle_alpha 90.000000
_cell_angle_beta 90.000000
_cell_angle_gamma 120.000000
_cell_volume 1863.065457
_symmetry_space_group_name_H-M "P 61"
_symmetry_group_IT_number 169
_symmetry_cell_setting 'hexagonal'
loop_
_space_group_symop_operation_xyz
x,y,z
x-y,x,1/6+z
-y,x-y,1/3+z
-x,-y,1/2+z
-x+y,-x,2/3+z
y,-x+y,5/6+z
loop_
_atom_site_type_symbol
_atom_site_label
_atom_site_fract_x
_atom_site_fract_y
_atom_site_fract_z
Si Si1 0.421284 0.699998 0.156040
Si Si2 0.549766 0.907194 0.570308
Si Si3 0.065198 0.039251 0.240331
Si Si4 0.767228 0.319309 0.133025
Si Si5 0.833836 0.829658 0.323352
Si Si6 0.358881 0.654480 0.724250
Si Si7 0.590639 0.645911 0.884451
O O1 0.338769 0.526246 0.188263
O O2 0.636267 0.817242 0.156148
O O3 0.349150 0.613326 0.105710
O O4 0.342369 0.825793 0.173643
O O5 0.433220 0.782422 0.612147
O O6 0.750552 0.952381 0.578026
O O7 0.533789 0.085603 0.568912
O O8 0.161568 0.929732 0.223130
O O9 0.990788 0.965342 0.290354
O O10 0.902098 0.009162 0.208051
O O11 0.776399 0.422690 0.180845
O O12 0.893610 0.470027 0.096953
O O13 0.831027 0.176645 0.142738
O O14 0.498553 0.852515 0.707037
#
# Coordination Sequence:
#
# PCOD8324569 Si02
#       7
#     6   6   6   6   6   6   6
#     4  11  24  46  72  98 140 184 228 285 351 415
#     4  10  24  45  67 101 136 178 228 289 344 411
#     4  11  28  42  70 101 140 178 234 287 348 414
#     4  11  24  46  72  98 140 184 228 285 351 415
#     4  12  26  46  68 102 144 186 228 290 354 408
#     4  11  22  42  72  97 132 178 232 279 336 418
#     4  10  24  45  67 101 136 178 228 289 344 411
#
# _framework density 22.543493000000002
#
# number of rings (size 3 to 8) (size 9 to 14) (size 15 to 20)
#    0.000    1.143    2.857    1.714   12.000    0.000 
#    0.000    0.000    0.000    0.000    0.000    0.000 
#    0.000    0.000    0.000    0.000    0.000    0.000 
#
# Total GULP energy -520870.431137 kJ/mol
# GULP energy per Si atom -12401.676932 kJ/mol
# Density = 2.249218 g / cm^3
# Si number density = 22.543493 Si / 1000 Ang^3
#
#
#
# Elastic Constant Matrix: (Units=GPa)
#
#
# Indices 1 2 3 4 5 6 
#
# 1 67.0326 15.4750 12.8262 0.0000 0.0000 0.0000
# 2 15.4750 67.0326 12.8262 0.0000 0.0000 0.0000
# 3 12.8262 12.8262 123.1345 0.0000 0.0000 0.0000
# 4 0.0000 0.0000 0.0000 30.3905 0.0000 0.0000
# 5 0.0000 0.0000 0.0000 0.0000 30.3905 0.0000
# 6 0.0000 0.0000 0.0000 0.0000 0.0000 25.7788
#
#
#
# Elastic Compliance Matrix: (Units=1/GPa)
#
#
# Indices 1 2 3 4 5 6 
#
# 1 0.015961 -0.003435 -0.001305 0.000000 0.000000 0.000000
# 2 -0.003435 0.015961 -0.001305 0.000000 0.000000 0.000000
# 3 -0.001305 -0.001305 0.008393 0.000000 0.000000 0.000000
# 4 0.000000 0.000000 0.000000 0.032905 0.000000 0.000000
# 5 0.000000 0.000000 0.000000 0.000000 0.032905 0.000000
# 6 0.000000 0.000000 0.000000 0.000000 0.000000 0.038792
#
#
# Mechanical properties :
#
#
# Convention : Reuss Voigt Hill
#
# Bulk Modulus (GPa) = 35.42886 37.71717 36.57301
# Shear Modulus (GPa) = 30.04562 31.71679 30.88121
#
# Velocity S-wave (km/s) = 3.65469 3.75496 3.70516
# Velocity P-wave (km/s) = 5.79301 5.96379 5.87902
#
# Compressibility (1/GPa) = 0.02822558
#
# Stress axis : x y z
#
# Youngs Moduli (GPa) = 62.65360 62.65360 119.14673
#
# Poissons Ratio (x) = 0.21522 0.15545
# Poissons Ratio (y) = 0.21522 0.15545
# Poissons Ratio (z) = 0.08175 0.08175
#
# Static dielectric constant tensor:
#      x y z
#    x 4.011440 0.000000 0.000000 
#    y 0.000000 4.011440 0.000000 
#    z 0.000000 0.000000 4.255220 
# 
# 
# High freq. dielectric constant tensor:
#      x y z
#    x 1.883490 0.000000 0.000000 
#    y 0.000000 1.883490 0.000000 
#    z 0.000000 0.000000 1.910620 
# 
# From -- ./inp_files/1848.got.cif
#   From: 2010.03.12/outbox.cif.g09.slc.cpg/sg169_cif.got.tgz:1848.got - 2010.04.02 06:46:06.
