data_PCOD8324033
_publ_section_title
;
Structure prediction by ZEFSAII (Michael W. Deem and Ramdas Pophale) SiO2 
 PCOD8324033
Probable space group: R -3 M
;
_chemical_formula_sum "Si O2"
_cell_formula_units_Z 162
_cell_length_a 20.734604
_cell_length_b 20.734604
_cell_length_c 24.192717
_cell_angle_alpha 90.000000
_cell_angle_beta 90.000000
_cell_angle_gamma 120.000000
_cell_volume 9007.551787
_symmetry_space_group_name_H-M "R -3 M"
_symmetry_group_IT_number 166
_symmetry_cell_setting 'hexagonal'
loop_
_space_group_symop_operation_xyz
x,y,z
-y,x-y,z
-x+y,-x,z
x-y,-y,-z
-x,-x+y,-z
y,x,-z
-x,-y,-z
y,-x+y,-z
x-y,x,-z
-x+y,y,z
x,x-y,z
-y,-x,z
2/3+x,1/3+y,1/3+z
2/3-y,1/3+x-y,1/3+z
2/3-x+y,1/3-x,1/3+z
2/3+x-y,1/3-y,1/3-z
2/3-x,1/3-x+y,1/3-z
2/3+y,1/3+x,1/3-z
2/3-x,1/3-y,1/3-z
2/3+y,1/3-x+y,1/3-z
2/3+x-y,1/3+x,1/3-z
2/3-x+y,1/3+y,1/3+z
2/3+x,1/3+x-y,1/3+z
2/3-y,1/3-x,1/3+z
1/3+x,2/3+y,2/3+z
1/3-y,2/3+x-y,2/3+z
1/3-x+y,2/3-x,2/3+z
1/3+x-y,2/3-y,2/3-z
1/3-x,2/3-x+y,2/3-z
1/3+y,2/3+x,2/3-z
1/3-x,2/3-y,2/3-z
1/3+y,2/3-x+y,2/3-z
1/3+x-y,2/3+x,2/3-z
1/3-x+y,2/3+y,2/3+z
1/3+x,2/3+x-y,2/3+z
1/3-y,2/3-x,2/3+z
loop_
_atom_site_type_symbol
_atom_site_label
_atom_site_fract_x
_atom_site_fract_y
_atom_site_fract_z
Si Si1 0.992485 0.276928 0.613612
Si Si2 0.847419 0.847681 0.677300
Si Si3 0.915232 0.533422 0.112533
Si Si4 0.000000 0.848188 0.000000
Si Si5 0.869285 0.586324 0.432029
O O1 0.985476 0.318809 0.666667
O O2 0.989082 0.199721 0.629034
O O3 0.926036 0.260469 0.571889
O O4 0.070026 0.330269 0.584069
O O5 0.930756 0.861512 0.676719
O O6 0.805809 0.813463 0.735860
O O7 0.850323 0.925162 0.666856
O O8 0.910078 0.455039 0.113961
O O9 0.899049 0.553636 0.173824
O O10 0.006114 0.806222 0.945668
O O11 0.928822 0.857643 0.998008
O O12 0.791498 0.582995 0.432517
#
# Coordination Sequence:
#
# PCOD8324033 Si02
#       5
#    36  36  36  18  36
#     4  10  18  32  53  75 103 135 174 217 269 319
#     4  10  20  34  53  78 108 142 179 219 264 317
#     4   9  19  33  51  75 104 137 176 218 261 312
#     4  10  21  36  54  74 103 142 182 220 262 314
#     4  10  19  33  51  75 104 135 175 221 264 311
#
# _framework density 17.984909999999999
#
# number of rings (size 3 to 8) (size 9 to 14) (size 15 to 20)
#    0.000    2.222    1.111    2.333    0.000    3.556 
#    0.000    0.000    0.000    6.667    0.000    0.000 
#    0.000   10.667    0.000    0.000    0.000    0.000 
#
# Total GULP energy -669434.763660 kJ/mol
# GULP energy per Si atom -12396.940068 kJ/mol
# Density = 1.794398 g / cm^3
# Si number density = 17.984910 Si / 1000 Ang^3
#
#
#
# Elastic Constant Matrix: (Units=GPa)
#
#
# Indices 1 2 3 4 5 6 
#
# 1 65.6133 44.2497 30.4593 -1.1573 -0.0002 0.0000
# 2 44.2497 65.6133 30.4593 1.1573 0.0002 0.0000
# 3 30.4593 30.4593 93.5684 0.0000 0.0000 0.0000
# 4 -1.1573 1.1573 0.0000 22.9415 0.0000 0.0002
# 5 -0.0002 0.0002 0.0000 0.0000 22.9415 -1.1573
# 6 0.0000 0.0000 0.0000 0.0002 -1.1573 10.6818
#
#
#
# Elastic Compliance Matrix: (Units=1/GPa)
#
#
# Indices 1 2 3 4 5 6 
#
# 1 0.029086 -0.017979 -0.003616 0.002374 0.000000 0.000000
# 2 -0.017979 0.029086 -0.003616 -0.002374 0.000000 0.000000
# 3 -0.003616 -0.003616 0.013041 0.000000 0.000000 0.000000
# 4 0.002374 -0.002374 0.000000 0.043829 0.000000 -0.000001
# 5 0.000000 0.000000 0.000000 0.000000 0.043829 0.004749
# 6 0.000000 0.000000 0.000000 -0.000001 0.004749 0.094132
#
#
# Mechanical properties :
#
#
# Convention : Reuss Voigt Hill
#
# Bulk Modulus (GPa) = 48.09340 48.34794 48.22067
# Shear Modulus (GPa) = 16.11054 19.28807 17.69931
#
# Velocity S-wave (km/s) = 2.99621 3.27839 3.14047
# Velocity P-wave (km/s) = 6.22645 6.42428 6.32614
#
# Compressibility (1/GPa) = 0.02079288
#
# Stress axis : x y z
#
# Youngs Moduli (GPa) = 34.38024 34.38024 76.67879
#
# Poissons Ratio (x) = 0.61813 0.27725
# Poissons Ratio (y) = 0.61813 0.27725
# Poissons Ratio (z) = 0.12431 0.12431
#
# Static dielectric constant tensor:
#      x y z
#    x 3.194750 0.000000 0.000000 
#    y 0.000000 3.194750 0.000000 
#    z 0.000000 0.000000 3.877720 
# 
# 
# High freq. dielectric constant tensor:
#      x y z
#    x 1.689350 0.000000 0.000000 
#    y 0.000000 1.689350 0.000000 
#    z 0.000000 0.000000 1.703280 
# 
# From -- ./inp_files/6770.got.cif
#   From: 2010.03.12/outbox.cif.g09.slc.cpg/sg166_4_cif.got.tgz:6770.got - 2010.04.02 06:38:31.
