data_PCOD8324514
_publ_section_title
;
Structure prediction by ZEFSAII (Michael W. Deem and Ramdas Pophale) SiO2 
 PCOD8324514
Probable space group: P 61
;
_chemical_formula_sum "Si O2"
_cell_formula_units_Z 48
_cell_length_a 12.838085
_cell_length_b 12.838085
_cell_length_c 18.402157
_cell_angle_alpha 90.000000
_cell_angle_beta 90.000000
_cell_angle_gamma 120.000000
_cell_volume 2626.635786
_symmetry_space_group_name_H-M "P 61"
_symmetry_group_IT_number 169
_symmetry_cell_setting 'hexagonal'
loop_
_space_group_symop_operation_xyz
x,y,z
x-y,x,1/6+z
-y,x-y,1/3+z
-x,-y,1/2+z
-x+y,-x,2/3+z
y,-x+y,5/6+z
loop_
_atom_site_type_symbol
_atom_site_label
_atom_site_fract_x
_atom_site_fract_y
_atom_site_fract_z
Si Si1 0.893079 0.273673 0.152180
Si Si2 0.240933 0.828133 0.795471
Si Si3 0.151701 0.525146 0.442488
Si Si4 0.614204 0.115200 0.772750
Si Si5 0.884800 0.385796 0.403171
Si Si6 0.273673 0.893079 0.523741
Si Si7 0.373445 0.525146 0.400099
Si Si8 0.412800 0.171867 0.547116
O O1 0.852390 0.209465 0.229513
O O2 0.873847 0.388754 0.153360
O O3 0.819124 0.180876 0.087960
O O4 0.033735 0.317191 0.145395
O O5 0.179969 0.744246 0.865479
O O6 0.351520 0.810584 0.774126
O O7 0.169949 0.555580 0.527786
O O8 0.236549 0.473097 0.421294
O O9 0.189416 0.648480 0.401795
O O10 0.021884 0.422252 0.417091
O O11 0.744246 0.179969 0.810442
O O12 0.577748 0.978116 0.758830
O O13 0.873847 0.485093 0.355894
O O14 0.830051 0.385631 0.481468
O O15 0.209465 0.852390 0.446407
O O16 0.317191 0.033735 0.530526
#
# Coordination Sequence:
#
# PCOD8324514 Si02
#       8
#     6   6   6   6   6   6   6   6
#     4  11  21  39  60  85 119 152 198 245 293 343
#     4  11  23  36  61  89 114 154 196 240 289 357
#     4  10  21  37  58  83 120 152 182 241 295 348
#     4  10  22  37  56  87 117 151 193 234 298 351
#     4  10  22  37  56  87 117 151 193 234 298 351
#     4  11  21  39  60  85 119 152 198 245 293 343
#     4  10  21  37  58  83 120 152 182 241 295 348
#     4  11  23  36  61  89 114 154 196 240 289 357
#
# _framework density 18.274327
#
# number of rings (size 3 to 8) (size 9 to 14) (size 15 to 20)
#    0.000    1.500    2.500    3.000    3.500    0.000 
#    0.000    0.000    0.000    4.500    0.000    0.000 
#    0.000    0.000    0.000    0.000    0.000    0.000 
#
# Total GULP energy -595271.755748 kJ/mol
# GULP energy per Si atom -12401.494911 kJ/mol
# Density = 1.823273 g / cm^3
# Si number density = 18.274327 Si / 1000 Ang^3
#
#
#
# Elastic Constant Matrix: (Units=GPa)
#
#
# Indices 1 2 3 4 5 6 
#
# 1 104.0212 49.9482 43.4467 0.0000 0.0000 0.0000
# 2 49.9482 104.0212 43.4467 0.0000 0.0000 0.0000
# 3 43.4467 43.4467 71.4173 0.0000 0.0000 0.0000
# 4 0.0000 0.0000 0.0000 33.2242 0.0000 0.0000
# 5 0.0000 0.0000 0.0000 0.0000 33.2242 0.0000
# 6 0.0000 0.0000 0.0000 0.0000 0.0000 27.0365
#
#
#
# Elastic Compliance Matrix: (Units=1/GPa)
#
#
# Indices 1 2 3 4 5 6 
#
# 1 0.014192 -0.004302 -0.006017 0.000000 0.000000 0.000000
# 2 -0.004302 0.014192 -0.006017 0.000000 0.000000 0.000000
# 3 -0.006017 -0.006017 0.021323 0.000000 0.000000 0.000000
# 4 0.000000 0.000000 0.000000 0.030099 0.000000 0.000000
# 5 0.000000 0.000000 0.000000 0.000000 0.030099 0.000000
# 6 0.000000 0.000000 0.000000 0.000000 0.000000 0.036987
#
#
# Mechanical properties :
#
#
# Convention : Reuss Voigt Hill
#
# Bulk Modulus (GPa) = 58.69787 61.46031 60.07909
# Shear Modulus (GPa) = 26.99199 28.20487 27.59843
#
# Velocity S-wave (km/s) = 3.84740 3.93289 3.89038
# Velocity P-wave (km/s) = 7.20603 7.37079 7.28888
#
# Compressibility (1/GPa) = 0.01703639
#
# Stress axis : x y z
#
# Youngs Moduli (GPa) = 70.46236 70.46236 46.89798
#
# Poissons Ratio (x) = 0.30310 0.28218
# Poissons Ratio (y) = 0.30310 0.28218
# Poissons Ratio (z) = 0.42396 0.42396
#
# Static dielectric constant tensor:
#      x y z
#    x 3.386380 0.000000 0.000000 
#    y 0.000000 3.386380 0.000000 
#    z 0.000000 0.000000 3.420350 
# 
# 
# High freq. dielectric constant tensor:
#      x y z
#    x 1.702730 0.000000 0.000000 
#    y 0.000000 1.702730 0.000000 
#    z 0.000000 0.000000 1.717980 
# 
# From -- ./inp_files/1433.got.cif
#   From: 2010.03.12/outbox.cif.g09.slc.cpg/sg169_cif.got.tgz:1433.got - 2010.04.02 06:46:06.
