data_PCOD8324597
_publ_section_title
;
Structure prediction by ZEFSAII (Michael W. Deem and Ramdas Pophale) SiO2 
 PCOD8324597
Probable space group: P 61
;
_chemical_formula_sum "Si O2"
_cell_formula_units_Z 36
_cell_length_a 14.048545
_cell_length_b 14.048545
_cell_length_c 9.667115
_cell_angle_alpha 90.000000
_cell_angle_beta 90.000000
_cell_angle_gamma 120.000000
_cell_volume 1652.304975
_symmetry_space_group_name_H-M "P 61"
_symmetry_group_IT_number 169
_symmetry_cell_setting 'hexagonal'
loop_
_space_group_symop_operation_xyz
x,y,z
x-y,x,1/6+z
-y,x-y,1/3+z
-x,-y,1/2+z
-x+y,-x,2/3+z
y,-x+y,5/6+z
loop_
_atom_site_type_symbol
_atom_site_label
_atom_site_fract_x
_atom_site_fract_y
_atom_site_fract_z
Si Si1 0.060907 0.503916 0.985170
Si Si2 0.711664 0.176240 0.918252
Si Si3 0.870215 0.570716 0.743221
Si Si4 0.416177 0.598821 0.816440
Si Si5 0.346378 0.058390 0.111323
Si Si6 0.060580 0.219328 0.671057
O O1 0.086723 0.484862 0.827996
O O2 0.933129 0.422667 0.999595
O O3 0.125275 0.469078 0.090563
O O4 0.088491 0.627822 0.020627
O O5 0.738223 0.286838 0.000620
O O6 0.688183 0.195079 0.761678
O O7 0.805782 0.140598 0.916943
O O8 0.801964 0.461684 0.836260
O O9 0.815754 0.646413 0.727439
O O10 0.988569 0.647975 0.810764
O O11 0.242908 0.994908 0.211482
O O12 0.132610 0.166912 0.609416
#
# Coordination Sequence:
#
# PCOD8324597 Si02
#       6
#     6   6   6   6   6   6
#     4  11  26  41  67 100 145 181 233 289 353 445
#     4  12  26  44  72 103 147 186 236 297 367 438
#     4  11  25  41  70  99 143 184 238 284 366 429
#     4  11  25  43  65 102 137 186 228 285 357 441
#     4  11  23  42  70 102 139 191 234 299 361 433
#     4  12  25  51  78 104 139 200 253 312 372 432
#
# _framework density 21.787745000000001
#
# number of rings (size 3 to 8) (size 9 to 14) (size 15 to 20)
#    0.000    0.667    5.000    3.000   11.667    0.000 
#    0.000    3.333    0.000    0.000    0.000    0.000 
#    0.000    0.000    0.000    0.000    0.000    0.000 
#
# Total GULP energy -446285.042678 kJ/mol
# GULP energy per Si atom -12396.806741 kJ/mol
# Density = 2.173815 g / cm^3
# Si number density = 21.787745 Si / 1000 Ang^3
#
#
#
# Elastic Constant Matrix: (Units=GPa)
#
#
# Indices 1 2 3 4 5 6 
#
# 1 109.6216 37.5374 20.0333 0.0000 0.0000 0.0000
# 2 37.5374 109.6216 20.0333 0.0000 0.0000 0.0000
# 3 20.0333 20.0333 59.3826 0.0000 0.0000 0.0000
# 4 0.0000 0.0000 0.0000 23.1170 0.0000 0.0000
# 5 0.0000 0.0000 0.0000 0.0000 23.1170 0.0000
# 6 0.0000 0.0000 0.0000 0.0000 0.0000 36.0421
#
#
#
# Elastic Compliance Matrix: (Units=1/GPa)
#
#
# Indices 1 2 3 4 5 6 
#
# 1 0.010678 -0.003195 -0.002524 0.000000 0.000000 0.000000
# 2 -0.003195 0.010678 -0.002524 0.000000 0.000000 0.000000
# 3 -0.002524 -0.002524 0.018543 0.000000 0.000000 0.000000
# 4 0.000000 0.000000 0.000000 0.043258 0.000000 0.000000
# 5 0.000000 0.000000 0.000000 0.000000 0.043258 0.000000
# 6 0.000000 0.000000 0.000000 0.000000 0.000000 0.027745
#
#
# Mechanical properties :
#
#
# Convention : Reuss Voigt Hill
#
# Bulk Modulus (GPa) = 42.71475 48.20376 45.45925
# Shear Modulus (GPa) = 28.01882 29.85667 28.93775
#
# Velocity S-wave (km/s) = 3.58996 3.70583 3.64836
# Velocity P-wave (km/s) = 6.06888 6.36264 6.21749
#
# Compressibility (1/GPa) = 0.02341112
#
# Stress axis : x y z
#
# Youngs Moduli (GPa) = 93.65346 93.65346 53.92817
#
# Poissons Ratio (x) = 0.29922 0.13613
# Poissons Ratio (y) = 0.29922 0.13613
# Poissons Ratio (z) = 0.23641 0.23641
#
# Static dielectric constant tensor:
#      x y z
#    x 4.082410 0.000000 0.000000 
#    y 0.000000 4.082410 0.000000 
#    z 0.000000 0.000000 3.848020 
# 
# 
# High freq. dielectric constant tensor:
#      x y z
#    x 1.861130 0.000000 0.000000 
#    y 0.000000 1.861130 0.000000 
#    z 0.000000 0.000000 1.847500 
# 
# From -- ./inp_files/612.got.cif
#   From: 2010.03.12/outbox.cif.g09.slc.cpg/sg169_cif.got.tgz:612.got - 2010.04.02 06:46:06.
