data_PCOD8324399
_publ_section_title
;
Structure prediction by ZEFSAII (Michael W. Deem and Ramdas Pophale) SiO2 
 PCOD8324399
Probable space group: R -3 C 
;
_chemical_formula_sum "Si O2"
_cell_formula_units_Z 162
_cell_length_a 22.053714
_cell_length_b 22.053714
_cell_length_c 21.616703
_cell_angle_alpha 90.000000
_cell_angle_beta 90.000000
_cell_angle_gamma 120.000000
_cell_volume 9105.075760
_symmetry_space_group_name_H-M "R -3 C "
_symmetry_group_IT_number 167
_symmetry_cell_setting 'hexagonal'
loop_
_space_group_symop_operation_xyz
x,y,z
-y,x-y,z
-x+y,-x,z
x-y,-y,1/2-z
-x,-x+y,1/2-z
y,x,1/2-z
-x,-y,-z
y,-x+y,-z
x-y,x,-z
-x+y,y,1/2+z
x,x-y,1/2+z
-y,-x,1/2+z
2/3+x,1/3+y,1/3+z
2/3-y,1/3+x-y,1/3+z
2/3-x+y,1/3-x,1/3+z
2/3+x-y,1/3-y,5/6-z
2/3-x,1/3-x+y,5/6-z
2/3+y,1/3+x,5/6-z
2/3-x,1/3-y,1/3-z
2/3+y,1/3-x+y,1/3-z
2/3+x-y,1/3+x,1/3-z
2/3-x+y,1/3+y,5/6+z
2/3+x,1/3+x-y,5/6+z
2/3-y,1/3-x,5/6+z
1/3+x,2/3+y,2/3+z
1/3-y,2/3+x-y,2/3+z
1/3-x+y,2/3-x,2/3+z
1/3+x-y,2/3-y,1/6-z
1/3-x,2/3-x+y,1/6-z
1/3+y,2/3+x,1/6-z
1/3-x,2/3-y,2/3-z
1/3+y,2/3-x+y,2/3-z
1/3+x-y,2/3+x,2/3-z
1/3-x+y,2/3+y,1/6+z
1/3+x,2/3+x-y,1/6+z
1/3-y,2/3-x,1/6+z
loop_
_atom_site_type_symbol
_atom_site_label
_atom_site_fract_x
_atom_site_fract_y
_atom_site_fract_z
Si Si1 0.865696 0.326351 0.404110
Si Si2 0.509755 0.465071 0.188132
Si Si3 0.678040 0.077444 0.462419
Si Si4 0.425514 0.185131 0.286954
Si Si5 0.322177 0.000000 0.750000
O O1 0.840547 0.282600 0.469600
O O2 0.812595 0.279748 0.349425
O O3 0.873059 0.402612 0.406476
O O4 0.941308 0.337127 0.386842
O O5 0.481751 0.481751 0.250000
O O6 0.591198 0.516916 0.180000
O O7 0.471812 0.479823 0.131182
O O8 0.701573 0.034906 0.416667
O O9 0.629287 0.102309 0.430882
O O10 0.638510 0.034332 0.524099
#
# Coordination Sequence:
#
# PCOD8324399 Si02
#       5
#    36  36  36  36  18
#     4  11  19  33  54  83 109 145 185 226 277 341
#     4   9  17  32  53  74 107 145 183 223 279 326
#     4  11  20  35  54  78 113 151 181 229 281 326
#     4  11  19  33  56  78 110 149 182 230 282 325
#     4  12  20  32  54  82 110 144 188 218 276 354
#
# _framework density 17.792273999999999
#
# number of rings (size 3 to 8) (size 9 to 14) (size 15 to 20)
#    0.000    1.333    7.778    2.667    0.000    0.889 
#    0.000    0.000    0.000    8.000    0.000    0.000 
#    0.000    0.000    0.000    0.000    0.000    0.000 
#
# Total GULP energy -669122.434818 kJ/mol
# GULP energy per Si atom -12391.156200 kJ/mol
# Density = 1.775178 g / cm^3
# Si number density = 17.792274 Si / 1000 Ang^3
#
#
#
# Elastic Constant Matrix: (Units=GPa)
#
#
# Indices 1 2 3 4 5 6 
#
# 1 85.8296 25.9947 8.2040 8.2117 0.0000 0.0000
# 2 25.9947 85.8296 8.2040 -8.2117 0.0000 0.0000
# 3 8.2040 8.2040 40.8174 0.0000 0.0000 0.0000
# 4 8.2117 -8.2117 0.0000 14.7326 0.0000 0.0000
# 5 0.0000 0.0000 0.0000 0.0000 14.7326 8.2117
# 6 0.0000 0.0000 0.0000 0.0000 8.2117 29.9174
#
#
#
# Elastic Compliance Matrix: (Units=1/GPa)
#
#
# Indices 1 2 3 4 5 6 
#
# 1 0.014473 -0.005258 -0.001852 -0.010998 0.000000 0.000000
# 2 -0.005258 0.014473 -0.001852 0.010998 0.000000 0.000000
# 3 -0.001852 -0.001852 0.025244 0.000000 0.000000 0.000000
# 4 -0.010998 0.010998 0.000000 0.080136 0.000000 0.000000
# 5 0.000000 0.000000 0.000000 0.000000 0.080136 -0.021996
# 6 0.000000 0.000000 0.000000 0.000000 -0.021996 0.039463
#
#
# Mechanical properties :
#
#
# Convention : Reuss Voigt Hill
#
# Bulk Modulus (GPa) = 27.57522 33.03135 30.30328
# Shear Modulus (GPa) = 17.60948 23.21480 20.41214
#
# Velocity S-wave (km/s) = 3.14940 3.61608 3.39078
# Velocity P-wave (km/s) = 5.36256 6.00333 5.69197
#
# Compressibility (1/GPa) = 0.03626444
#
# Stress axis : x y z
#
# Youngs Moduli (GPa) = 69.09500 69.09500 39.61363
#
# Poissons Ratio (x) = 0.36333 0.07337
# Poissons Ratio (y) = 0.36333 0.07337
# Poissons Ratio (z) = 0.12797 0.12797
#
# Static dielectric constant tensor:
#      x y z
#    x 3.372700 0.000000 0.000000 
#    y 0.000000 3.372700 0.000000 
#    z 0.000000 0.000000 3.135850 
# 
# 
# High freq. dielectric constant tensor:
#      x y z
#    x 1.672210 0.000000 0.000000 
#    y 0.000000 1.672210 0.000000 
#    z 0.000000 0.000000 1.665210 
# 
# From -- ./inp_files/5288.got.cif
#   From: 2010.03.12/outbox.cif.g09.slc.cpg/sg167_3_cif.got.tgz:5288.got - 2010.04.02 06:42:56.
