data_PCOD8324297
_publ_section_title
;
Structure prediction by ZEFSAII (Michael W. Deem and Ramdas Pophale) SiO2 
 PCOD8324297
Probable space group: R -3 C 
;
_chemical_formula_sum "Si O2"
_cell_formula_units_Z 162
_cell_length_a 21.613527
_cell_length_b 21.613527
_cell_length_c 20.881533
_cell_angle_alpha 90.000000
_cell_angle_beta 90.000000
_cell_angle_gamma 120.000000
_cell_volume 8447.813090
_symmetry_space_group_name_H-M "R -3 C "
_symmetry_group_IT_number 167
_symmetry_cell_setting 'hexagonal'
loop_
_space_group_symop_operation_xyz
x,y,z
-y,x-y,z
-x+y,-x,z
x-y,-y,1/2-z
-x,-x+y,1/2-z
y,x,1/2-z
-x,-y,-z
y,-x+y,-z
x-y,x,-z
-x+y,y,1/2+z
x,x-y,1/2+z
-y,-x,1/2+z
2/3+x,1/3+y,1/3+z
2/3-y,1/3+x-y,1/3+z
2/3-x+y,1/3-x,1/3+z
2/3+x-y,1/3-y,5/6-z
2/3-x,1/3-x+y,5/6-z
2/3+y,1/3+x,5/6-z
2/3-x,1/3-y,1/3-z
2/3+y,1/3-x+y,1/3-z
2/3+x-y,1/3+x,1/3-z
2/3-x+y,1/3+y,5/6+z
2/3+x,1/3+x-y,5/6+z
2/3-y,1/3-x,5/6+z
1/3+x,2/3+y,2/3+z
1/3-y,2/3+x-y,2/3+z
1/3-x+y,2/3-x,2/3+z
1/3+x-y,2/3-y,1/6-z
1/3-x,2/3-x+y,1/6-z
1/3+y,2/3+x,1/6-z
1/3-x,2/3-y,2/3-z
1/3+y,2/3-x+y,2/3-z
1/3+x-y,2/3+x,2/3-z
1/3-x+y,2/3+y,1/6+z
1/3+x,2/3+x-y,1/6+z
1/3-y,2/3-x,1/6+z
loop_
_atom_site_type_symbol
_atom_site_label
_atom_site_fract_x
_atom_site_fract_y
_atom_site_fract_z
Si Si1 0.808105 0.703814 0.855518
Si Si2 0.246379 0.737281 0.087708
Si Si3 0.818198 0.130750 0.098296
Si Si4 0.000000 0.662973 0.750000
Si Si5 0.826688 0.405999 0.399731
O O1 0.824053 0.666667 0.916667
O O2 0.860023 0.788334 0.867569
O O3 0.822869 0.681873 0.787489
O O4 0.723224 0.679682 0.855932
O O5 0.239075 0.659239 0.089526
O O6 0.327045 0.799372 0.072184
O O7 0.226022 0.747182 0.159910
O O8 0.833334 0.166667 0.166667
O O9 0.736382 0.074345 0.079548
O O10 0.866270 0.093830 0.102894
#
# Coordination Sequence:
#
# PCOD8324297 Si02
#       5
#    36  36  36  18  36
#     4  10  21  41  63  87 121 172 204 258 313 379
#     4  10  19  35  63  89 121 157 206 260 316 376
#     4  12  26  41  62  95 129 170 211 265 319 383
#     4  10  24  48  62  96 132 168 226 258 326 392
#     4  10  19  37  59  93 121 155 207 261 317 373
#
# _framework density 19.176561
#
# number of rings (size 3 to 8) (size 9 to 14) (size 15 to 20)
#    0.667    0.889    4.444    0.444    6.222    2.667 
#    0.000    0.000    0.000    0.000    0.000    3.111 
#    0.000    0.000    0.000    0.000    0.000    0.000 
#
# Total GULP energy -669009.508797 kJ/mol
# GULP energy per Si atom -12389.064978 kJ/mol
# Density = 1.913291 g / cm^3
# Si number density = 19.176561 Si / 1000 Ang^3
#
#
#
# Elastic Constant Matrix: (Units=GPa)
#
#
# Indices 1 2 3 4 5 6 
#
# 1 92.9935 30.7386 29.4340 -2.0823 0.0000 0.0000
# 2 30.7386 92.9935 29.4340 2.0823 0.0000 0.0000
# 3 29.4340 29.4340 90.8013 0.0000 0.0000 0.0000
# 4 -2.0823 2.0823 0.0000 20.0884 0.0000 0.0000
# 5 0.0000 0.0000 0.0000 0.0000 20.0884 -2.0823
# 6 0.0000 0.0000 0.0000 0.0000 -2.0823 31.1275
#
#
#
# Elastic Compliance Matrix: (Units=1/GPa)
#
#
# Indices 1 2 3 4 5 6 
#
# 1 0.012865 -0.003310 -0.003098 0.001677 0.000000 0.000000
# 2 -0.003310 0.012865 -0.003098 -0.001677 0.000000 0.000000
# 3 -0.003098 -0.003098 0.013021 0.000000 0.000000 0.000000
# 4 0.001677 -0.001677 0.000000 0.050128 0.000000 0.000000
# 5 0.000000 0.000000 0.000000 0.000000 0.050128 0.003353
# 6 0.000000 0.000000 0.000000 0.000000 0.003353 0.032350
#
#
# Mechanical properties :
#
#
# Convention : Reuss Voigt Hill
#
# Bulk Modulus (GPa) = 50.65235 50.66683 50.65959
# Shear Modulus (GPa) = 25.38738 26.73962 26.06350
#
# Velocity S-wave (km/s) = 3.64246 3.73821 3.69064
# Velocity P-wave (km/s) = 6.64538 6.71646 6.68101
#
# Compressibility (1/GPa) = 0.01974242
#
# Stress axis : x y z
#
# Youngs Moduli (GPa) = 77.72770 77.72770 76.79748
#
# Poissons Ratio (x) = 0.25726 0.23789
# Poissons Ratio (y) = 0.25726 0.23789
# Poissons Ratio (z) = 0.24077 0.24077
#
# Static dielectric constant tensor:
#      x y z
#    x 3.509220 0.000000 0.000000 
#    y 0.000000 3.509220 0.000000 
#    z 0.000000 0.000000 42.687680 
# 
# 
# High freq. dielectric constant tensor:
#      x y z
#    x 1.750970 0.000000 0.000000 
#    y 0.000000 1.750970 0.000000 
#    z 0.000000 0.000000 1.705890 
# 
# From -- ./inp_files/4430.got.cif
#   From: 2010.03.12/outbox.cif.g09.slc.cpg/sg167_3_cif.got.tgz:4430.got - 2010.04.02 06:42:56.
