data_PCOD8324689
_publ_section_title
;
Structure prediction by ZEFSAII (Michael W. Deem and Ramdas Pophale) SiO2 
 PCOD8324689
Probable space group: P 65
;
_chemical_formula_sum "Si O2"
_cell_formula_units_Z 36
_cell_length_a 16.585300
_cell_length_b 16.585300
_cell_length_c 6.686617
_cell_angle_alpha 90.000000
_cell_angle_beta 90.000000
_cell_angle_gamma 120.000000
_cell_volume 1592.882507
_symmetry_space_group_name_H-M "P 65"
_symmetry_group_IT_number 170
_symmetry_cell_setting 'hexagonal'
loop_
_space_group_symop_operation_xyz
x,y,z
x-y,x,5/6+z
-y,x-y,2/3+z
-x,-y,1/2+z
-x+y,-x,1/3+z
y,-x+y,1/6+z
loop_
_atom_site_type_symbol
_atom_site_label
_atom_site_fract_x
_atom_site_fract_y
_atom_site_fract_z
Si Si1 0.525792 0.617602 0.614160
Si Si2 0.095385 0.788171 0.883632
Si Si3 0.900474 0.668249 0.712267
Si Si4 0.920290 0.370436 0.667277
Si Si5 0.100505 0.198254 0.911746
Si Si6 0.297728 0.581058 0.929541
O O1 0.571161 0.680198 0.811936
O O2 0.602438 0.613342 0.470984
O O3 0.457295 0.514161 0.692001
O O4 0.471379 0.663866 0.501761
O O5 0.188415 0.842266 0.748755
O O6 0.008267 0.742636 0.738016
O O7 0.100802 0.712203 0.018067
O O8 0.080093 0.857723 0.023482
O O9 0.866422 0.704696 0.525923
O O10 0.826697 0.335650 0.799479
O O11 0.990977 0.133979 0.885176
O O12 0.373057 0.666214 0.800996
#
# Coordination Sequence:
#
# PCOD8324689 Si02
#       6
#     6   6   6   6   6   6
#     4  11  26  46  72 109 143 190 246 310 366 441
#     4  12  26  45  74 106 144 197 240 303 366 429
#     4  12  26  45  74 106 144 197 240 303 366 429
#     4  11  26  46  72 109 143 190 246 310 366 441
#     4  12  25  44  68 106 152 192 252 294 351 436
#     4  10  25  46  72 102 144 192 236 296 365 440
#
# _framework density 22.600536999999999
#
# number of rings (size 3 to 8) (size 9 to 14) (size 15 to 20)
#    0.000    0.667    3.333    3.000    7.000    6.667 
#    0.000    0.000    0.000    0.000    0.000    0.000 
#    0.000    0.000    0.000    0.000    0.000    0.000 
#
# Total GULP energy -446456.999062 kJ/mol
# GULP energy per Si atom -12401.583307 kJ/mol
# Density = 2.254910 g / cm^3
# Si number density = 22.600537 Si / 1000 Ang^3
#
#
#
# Elastic Constant Matrix: (Units=GPa)
#
#
# Indices 1 2 3 4 5 6 
#
# 1 105.2214 41.0998 34.0413 0.0000 0.0000 0.0000
# 2 41.0998 105.2214 34.0413 0.0000 0.0000 0.0000
# 3 34.0413 34.0413 70.1032 0.0000 0.0000 0.0000
# 4 0.0000 0.0000 0.0000 42.1219 0.0000 0.0000
# 5 0.0000 0.0000 0.0000 0.0000 42.1219 0.0000
# 6 0.0000 0.0000 0.0000 0.0000 0.0000 32.0608
#
#
#
# Elastic Compliance Matrix: (Units=1/GPa)
#
#
# Indices 1 2 3 4 5 6 
#
# 1 0.012212 -0.003383 -0.004287 0.000000 0.000000 0.000000
# 2 -0.003383 0.012212 -0.004287 0.000000 0.000000 0.000000
# 3 -0.004287 -0.004287 0.018428 0.000000 0.000000 0.000000
# 4 0.000000 0.000000 0.000000 0.023741 0.000000 0.000000
# 5 0.000000 0.000000 0.000000 0.000000 0.023741 0.000000
# 6 0.000000 0.000000 0.000000 0.000000 0.000000 0.031191
#
#
# Mechanical properties :
#
#
# Convention : Reuss Voigt Hill
#
# Bulk Modulus (GPa) = 52.80551 55.43453 54.12002
# Shear Modulus (GPa) = 32.94827 34.68515 33.81671
#
# Velocity S-wave (km/s) = 3.82233 3.92178 3.87237
# Velocity P-wave (km/s) = 6.54948 6.71479 6.63265
#
# Compressibility (1/GPa) = 0.01893742
#
# Stress axis : x y z
#
# Youngs Moduli (GPa) = 81.88485 81.88485 54.26392
#
# Poissons Ratio (x) = 0.27703 0.23265
# Poissons Ratio (y) = 0.27703 0.23265
# Poissons Ratio (z) = 0.35107 0.35107
#
# Static dielectric constant tensor:
#      x y z
#    x 4.270700 0.000000 0.000000 
#    y 0.000000 4.270700 0.000000 
#    z 0.000000 0.000000 3.832370 
# 
# 
# High freq. dielectric constant tensor:
#      x y z
#    x 1.905660 0.000000 0.000000 
#    y 0.000000 1.905660 0.000000 
#    z 0.000000 0.000000 1.879470 
# 
# From -- ./inp_files/594.got.cif
#   From: 2010.03.12/outbox.cif.g09.slc.cpg/sg170_cif.got.tgz:594.got - 2010.04.02 06:47:37.
