data_PCOD8324984
_publ_section_title
;
Structure prediction by ZEFSAII (Michael W. Deem and Ramdas Pophale) SiO2 
 PCOD8324984
Probable space group: P -6
;
_chemical_formula_sum "Si O2"
_cell_formula_units_Z 32
_cell_length_a 14.377282
_cell_length_b 14.377282
_cell_length_c 8.940564
_cell_angle_alpha 90.000000
_cell_angle_beta 90.000000
_cell_angle_gamma 120.000000
_cell_volume 1600.475869
_symmetry_space_group_name_H-M "P -6"
_symmetry_group_IT_number 174
_symmetry_cell_setting 'hexagonal'
loop_
_space_group_symop_operation_xyz
x,y,z
-x+y,-x,-z
-y,x-y,z
x,y,-z
-x+y,-x,z
-y,x-y,-z
loop_
_atom_site_type_symbol
_atom_site_label
_atom_site_fract_x
_atom_site_fract_y
_atom_site_fract_z
Si Si1 0.454439 0.545564 0.821807
Si Si2 0.312049 0.156025 0.325352
Si Si3 0.735160 0.264841 0.166567
Si Si4 0.333334 0.666668 0.176674
Si Si5 0.659889 0.936136 0.677943
Si Si6 0.659890 0.723752 0.677943
O O1 0.393463 0.606552 0.762269
O O2 0.387378 0.426010 0.755895
O O3 0.573994 0.612620 0.755897
O O4 0.459691 0.540309 0.000000
O O5 0.302738 0.151371 0.500000
O O6 0.437626 0.218813 0.287936
O O7 0.255711 0.222969 0.268201
O O8 0.255710 0.032743 0.268204
O O9 0.788767 0.394384 0.186188
O O10 0.760569 0.239432 0.000000
O O11 0.333334 0.666668 0.000000
O O12 0.645786 0.935136 0.500000
O O13 0.648453 0.824226 0.734589
O O14 0.645786 0.710649 0.500000
#
# Coordination Sequence:
#
# PCOD8324984 Si02
#       6
#     6   6   6   2   6   6
#     4  11  21  36  60  89 121 152 188 233 288 352
#     4  10  22  38  57  82 113 153 196 238 285 338
#     4   8  18  35  53  78 112 146 185 225 276 336
#     4   9  18  33  52  83 118 147 181 224 283 348
#     4  10  22  40  59  85 118 152 194 241 292 346
#     4  10  22  40  59  85 118 152 194 241 292 346
#
# _framework density 19.994053999999998
#
# number of rings (size 3 to 8) (size 9 to 14) (size 15 to 20)
#    0.375    1.875    1.875    0.562    2.625    2.250 
#    1.125    0.000    0.000    0.000    0.000    0.000 
#    0.000    0.000    0.000    0.000    0.000    0.000 
#
# Total GULP energy -396590.670967 kJ/mol
# GULP energy per Si atom -12393.458468 kJ/mol
# Density = 1.994855 g / cm^3
# Si number density = 19.994054 Si / 1000 Ang^3
#
#
#
# Elastic Constant Matrix: (Units=GPa)
#
#
# Indices 1 2 3 4 5 6 
#
# 1 112.3788 47.9441 29.0126 0.0000 0.0000 -0.0001
# 2 47.9441 112.3796 29.0126 0.0000 0.0000 0.0000
# 3 29.0126 29.0126 24.9828 0.0000 0.0000 0.0000
# 4 0.0000 0.0000 0.0000 17.1008 0.0000 0.0000
# 5 0.0000 0.0000 0.0000 0.0000 17.1006 0.0000
# 6 -0.0001 0.0000 0.0000 0.0000 0.0000 32.2172
#
#
#
# Elastic Compliance Matrix: (Units=1/GPa)
#
#
# Indices 1 2 3 4 5 6 
#
# 1 0.013140 -0.002380 -0.012496 0.000000 0.000000 0.000000
# 2 -0.002380 0.013140 -0.012495 0.000000 0.000000 0.000000
# 3 -0.012496 -0.012495 0.069049 0.000000 0.000000 0.000000
# 4 0.000000 0.000000 0.000000 0.058477 0.000000 0.000000
# 5 0.000000 0.000000 0.000000 0.000000 0.058478 0.000000
# 6 0.000000 0.000000 0.000000 0.000000 0.000000 0.031039
#
#
# Mechanical properties :
#
#
# Convention : Reuss Voigt Hill
#
# Bulk Modulus (GPa) = 24.63818 51.29775 37.96796
# Shear Modulus (GPa) = 16.04659 22.86851 19.45755
#
# Velocity S-wave (km/s) = 2.83604 3.38563 3.12295
# Velocity P-wave (km/s) = 4.80350 6.40277 5.65991
#
# Compressibility (1/GPa) = 0.04058742
#
# Stress axis : x y z
#
# Youngs Moduli (GPa) = 76.10506 76.10599 14.48239
#
# Poissons Ratio (x) = 0.18112 0.18096
# Poissons Ratio (y) = 0.18112 0.18096
# Poissons Ratio (z) = 0.95097 0.95097
#
# Static dielectric constant tensor:
#      x y z
#    x 3.855270 0.000000 0.000000 
#    y 0.000000 3.855260 0.000000 
#    z 0.000000 0.000000 3.310980 
# 
# 
# High freq. dielectric constant tensor:
#      x y z
#    x 1.778560 0.000000 0.000000 
#    y 0.000000 1.778560 0.000000 
#    z 0.000000 0.000000 1.759150 
# 
# From -- ./inp_files/322.got.cif
#   From: 2010.03.12/outbox.cif.g09.slc.cpg/sg174_cif.got.tgz:322.got - 2010.04.02 06:54:58.
