data_PCOD8324949
_publ_section_title
;
Structure prediction by ZEFSAII (Michael W. Deem and Ramdas Pophale) SiO2 
 PCOD8324949
Probable space group: P -6
;
_chemical_formula_sum "Si O2"
_cell_formula_units_Z 32
_cell_length_a 14.564220
_cell_length_b 14.564220
_cell_length_c 8.752716
_cell_angle_alpha 90.000000
_cell_angle_beta 90.000000
_cell_angle_gamma 120.000000
_cell_volume 1607.858885
_symmetry_space_group_name_H-M "P -6"
_symmetry_group_IT_number 174
_symmetry_cell_setting 'hexagonal'
loop_
_space_group_symop_operation_xyz
x,y,z
-x+y,-x,-z
-y,x-y,z
x,y,-z
-x+y,-x,z
-y,x-y,-z
loop_
_atom_site_type_symbol
_atom_site_label
_atom_site_fract_x
_atom_site_fract_y
_atom_site_fract_z
Si Si1 0.141532 0.212712 0.321273
Si Si2 0.419153 0.797855 0.175275
Si Si3 0.443478 0.234293 0.683236
Si Si4 0.666668 0.333335 0.181868
Si Si5 0.021053 0.628384 0.674359
Si Si6 0.927295 0.155333 0.181640
O O1 0.113523 0.188809 0.500000
O O2 0.246191 0.326056 0.296257
O O3 0.159970 0.121358 0.252272
O O4 0.049984 0.218925 0.229236
O O5 0.293055 0.744358 0.212809
O O6 0.488725 0.906587 0.264360
O O7 0.440988 0.829180 0.000000
O O8 0.444685 0.228027 0.500000
O O9 0.551382 0.248657 0.753389
O O10 0.428274 0.331287 0.745260
O O11 0.345614 0.126142 0.747141
O O12 0.666667 0.333334 0.000000
O O13 0.003904 0.598410 0.500000
O O14 0.914369 0.148775 0.000000
#
# Coordination Sequence:
#
# PCOD8324949 Si02
#       6
#     6   6   6   2   6   6
#     4  10  20  35  54  78 115 156 191 231 289 354
#     4   8  17  33  51  75 108 144 174 212 270 331
#     4  10  22  42  63  83 114 154 195 242 302 359
#     4  12  25  44  67  93 115 149 202 255 304 350
#     4   9  19  35  57  83 107 143 189 231 276 335
#     4  11  21  35  56  88 119 152 197 247 295 349
#
# _framework density 19.902244
#
# number of rings (size 3 to 8) (size 9 to 14) (size 15 to 20)
#    0.375    1.875    0.000    4.875    0.000    5.250 
#    3.375    0.000    0.000    0.000    0.000    0.000 
#    0.000    0.000    0.000    0.000    0.000    0.000 
#
# Total GULP energy -396640.242611 kJ/mol
# GULP energy per Si atom -12395.007582 kJ/mol
# Density = 1.985695 g / cm^3
# Si number density = 19.902244 Si / 1000 Ang^3
#
#
#
# Elastic Constant Matrix: (Units=GPa)
#
#
# Indices 1 2 3 4 5 6 
#
# 1 56.0005 18.3255 27.8626 0.0000 0.0000 -0.0011
# 2 18.3255 55.9998 27.8625 0.0000 0.0000 -0.0009
# 3 27.8626 27.8625 85.5340 0.0000 0.0000 -0.0001
# 4 0.0000 0.0000 0.0000 22.9951 -0.0002 0.0000
# 5 0.0000 0.0000 0.0000 -0.0002 22.9950 0.0000
# 6 -0.0011 -0.0009 -0.0001 0.0000 0.0000 18.8365
#
#
#
# Elastic Compliance Matrix: (Units=1/GPa)
#
#
# Indices 1 2 3 4 5 6 
#
# 1 0.022172 -0.004370 -0.005799 0.000000 0.000000 0.000001
# 2 -0.004370 0.022173 -0.005799 0.000000 0.000000 0.000001
# 3 -0.005799 -0.005799 0.015469 0.000000 0.000000 -0.000001
# 4 0.000000 0.000000 0.000000 0.043488 0.000000 0.000000
# 5 0.000000 0.000000 0.000000 0.000000 0.043488 0.000000
# 6 0.000001 0.000001 -0.000001 0.000000 0.000000 0.053088
#
#
# Mechanical properties :
#
#
# Convention : Reuss Voigt Hill
#
# Bulk Modulus (GPa) = 35.87129 38.40394 37.13762
# Shear Modulus (GPa) = 20.73763 21.19755 20.96759
#
# Velocity S-wave (km/s) = 3.23146 3.26710 3.24933
# Velocity P-wave (km/s) = 5.65562 5.79397 5.72521
#
# Compressibility (1/GPa) = 0.02787744
#
# Stress axis : x y z
#
# Youngs Moduli (GPa) = 45.10110 45.10053 64.64420
#
# Poissons Ratio (x) = 0.19711 0.37487
# Poissons Ratio (y) = 0.19711 0.37487
# Poissons Ratio (z) = 0.26154 0.26154
#
# Static dielectric constant tensor:
#      x y z
#    x 3.537930 0.000000 0.000000 
#    y 0.000000 3.537910 0.000000 
#    z 0.000000 0.000000 3.535460 
# 
# 
# High freq. dielectric constant tensor:
#      x y z
#    x 1.766740 0.000000 0.000000 
#    y 0.000000 1.766740 0.000000 
#    z 0.000000 0.000000 1.777950 
# 
# From -- ./inp_files/361.got.cif
#   From: 2010.03.12/outbox.cif.g09.slc.cpg/sg174_cif.got.tgz:361.got - 2010.04.02 06:54:58.
