data_PCOD8324147
_publ_section_title
;
Structure prediction by ZEFSAII (Michael W. Deem and Ramdas Pophale) SiO2 
 PCOD8324147
Probable space group: R -3 M
;
_chemical_formula_sum "Si O2"
_cell_formula_units_Z 216
_cell_length_a 25.006510
_cell_length_b 25.006510
_cell_length_c 22.024015
_cell_angle_alpha 90.000000
_cell_angle_beta 90.000000
_cell_angle_gamma 120.000000
_cell_volume 11927.056988
_symmetry_space_group_name_H-M "R -3 M"
_symmetry_group_IT_number 166
_symmetry_cell_setting 'hexagonal'
loop_
_space_group_symop_operation_xyz
x,y,z
-y,x-y,z
-x+y,-x,z
x-y,-y,-z
-x,-x+y,-z
y,x,-z
-x,-y,-z
y,-x+y,-z
x-y,x,-z
-x+y,y,z
x,x-y,z
-y,-x,z
2/3+x,1/3+y,1/3+z
2/3-y,1/3+x-y,1/3+z
2/3-x+y,1/3-x,1/3+z
2/3+x-y,1/3-y,1/3-z
2/3-x,1/3-x+y,1/3-z
2/3+y,1/3+x,1/3-z
2/3-x,1/3-y,1/3-z
2/3+y,1/3-x+y,1/3-z
2/3+x-y,1/3+x,1/3-z
2/3-x+y,1/3+y,1/3+z
2/3+x,1/3+x-y,1/3+z
2/3-y,1/3-x,1/3+z
1/3+x,2/3+y,2/3+z
1/3-y,2/3+x-y,2/3+z
1/3-x+y,2/3-x,2/3+z
1/3+x-y,2/3-y,2/3-z
1/3-x,2/3-x+y,2/3-z
1/3+y,2/3+x,2/3-z
1/3-x,2/3-y,2/3-z
1/3+y,2/3-x+y,2/3-z
1/3+x-y,2/3+x,2/3-z
1/3-x+y,2/3+y,2/3+z
1/3+x,2/3+x-y,2/3+z
1/3-y,2/3-x,2/3+z
loop_
_atom_site_type_symbol
_atom_site_label
_atom_site_fract_x
_atom_site_fract_y
_atom_site_fract_z
Si Si1 0.899494 0.223480 0.876063
Si Si2 0.586006 0.851976 0.660698
Si Si3 0.146028 0.732263 0.298795
Si Si4 0.651659 0.885266 0.903062
Si Si5 0.290367 0.913238 0.417230
Si Si6 0.371550 0.866102 0.223249
O O1 0.845182 0.154819 0.867190
O O2 0.947316 0.233795 0.822212
O O3 0.874231 0.270762 0.871380
O O4 0.931756 0.230317 0.941261
O O5 0.561821 0.780911 0.643905
O O6 0.526642 0.859975 0.666667
O O7 0.619384 0.868025 0.725188
O O8 0.203006 0.796995 0.273956
O O9 0.145831 0.736163 0.372207
O O10 0.080451 0.718727 0.269732
O O11 0.154566 0.674819 0.280225
O O12 0.619449 0.809725 0.911118
O O13 0.666667 0.902847 0.833334
O O14 0.613947 0.916992 0.928361
O O15 0.427412 0.854823 0.241035
O O16 0.333334 0.823496 0.166667
#
# Coordination Sequence:
#
# PCOD8324147 Si02
#       6
#    36  36  36  36  36  36
#     4  10  20  34  52  79 108 138 183 227 273 331
#     4  10  21  34  52  75 106 142 178 220 263 319
#     4  11  23  37  54  81 110 141 187 240 282 331
#     4  10  22  36  51  78 113 146 182 217 260 332
#     4  11  21  33  56  77 107 145 177 221 275 327
#     4  11  22  36  55  79 109 147 187 236 291 341
#
# _framework density 18.110082999999999
#
# number of rings (size 3 to 8) (size 9 to 14) (size 15 to 20)
#    0.000    1.500    1.667    4.500    7.000    2.000 
#    0.000    0.000    0.000    3.167    0.000    0.000 
#    0.000    0.000    0.000    1.833    0.000    0.000 
#
# Total GULP energy -892172.057603 kJ/mol
# GULP energy per Si atom -12391.278578 kJ/mol
# Density = 1.806886 g / cm^3
# Si number density = 18.110083 Si / 1000 Ang^3
#
#
#
# Elastic Constant Matrix: (Units=GPa)
#
#
# Indices 1 2 3 4 5 6 
#
# 1 99.8823 52.5729 26.7633 0.5378 0.0000 0.0000
# 2 52.5729 99.8823 26.7633 -0.5378 0.0000 0.0000
# 3 26.7633 26.7633 112.0045 0.0000 0.0000 0.0000
# 4 0.5378 -0.5378 0.0000 23.7663 0.0000 0.0000
# 5 0.0000 0.0000 0.0000 0.0000 23.7663 0.5378
# 6 0.0000 0.0000 0.0000 0.0000 0.5378 23.6547
#
#
#
# Elastic Compliance Matrix: (Units=1/GPa)
#
#
# Indices 1 2 3 4 5 6 
#
# 1 0.014154 -0.006994 -0.001711 -0.000479 0.000000 0.000000
# 2 -0.006994 0.014154 -0.001711 0.000479 0.000000 0.000000
# 3 -0.001711 -0.001711 0.009746 0.000000 0.000000 0.000000
# 4 -0.000479 0.000479 0.000000 0.042098 0.000000 0.000000
# 5 0.000000 0.000000 0.000000 0.000000 0.042098 -0.000957
# 6 0.000000 0.000000 0.000000 0.000000 -0.000957 0.042297
#
#
# Mechanical properties :
#
#
# Convention : Reuss Voigt Hill
#
# Bulk Modulus (GPa) = 58.06414 58.21867 58.14141
# Shear Modulus (GPa) = 26.16164 27.94876 27.05520
#
# Velocity S-wave (km/s) = 3.80490 3.93271 3.86933
# Velocity P-wave (km/s) = 7.17178 7.26901 7.22056
#
# Compressibility (1/GPa) = 0.01722233
#
# Stress axis : x y z
#
# Youngs Moduli (GPa) = 70.65062 70.65062 102.60800
#
# Poissons Ratio (x) = 0.49414 0.17555
# Poissons Ratio (y) = 0.49414 0.17555
# Poissons Ratio (z) = 0.12087 0.12087
#
# Static dielectric constant tensor:
#      x y z
#    x 3.306660 0.000000 0.000000 
#    y 0.000000 3.306660 0.000000 
#    z 0.000000 0.000000 3.565660 
# 
# 
# High freq. dielectric constant tensor:
#      x y z
#    x 1.679290 0.000000 0.000000 
#    y 0.000000 1.679290 0.000000 
#    z 0.000000 0.000000 1.719920 
# 
# From -- ./inp_files/8426.got.cif
#   From: 2010.03.12/outbox.cif.g09.slc.cpg/sg166_5_cif.got.tgz:8426.got - 2010.04.02 06:38:31.
