data_PCOD8324381
_publ_section_title
;
Structure prediction by ZEFSAII (Michael W. Deem and Ramdas Pophale) SiO2 
 PCOD8324381
Probable space group: R -3 C 
;
_chemical_formula_sum "Si O2"
_cell_formula_units_Z 144
_cell_length_a 19.001931
_cell_length_b 19.001931
_cell_length_c 23.540705
_cell_angle_alpha 90.000000
_cell_angle_beta 90.000000
_cell_angle_gamma 120.000000
_cell_volume 7361.148350
_symmetry_space_group_name_H-M "R -3 C "
_symmetry_group_IT_number 167
_symmetry_cell_setting 'hexagonal'
loop_
_space_group_symop_operation_xyz
x,y,z
-y,x-y,z
-x+y,-x,z
x-y,-y,1/2-z
-x,-x+y,1/2-z
y,x,1/2-z
-x,-y,-z
y,-x+y,-z
x-y,x,-z
-x+y,y,1/2+z
x,x-y,1/2+z
-y,-x,1/2+z
2/3+x,1/3+y,1/3+z
2/3-y,1/3+x-y,1/3+z
2/3-x+y,1/3-x,1/3+z
2/3+x-y,1/3-y,5/6-z
2/3-x,1/3-x+y,5/6-z
2/3+y,1/3+x,5/6-z
2/3-x,1/3-y,1/3-z
2/3+y,1/3-x+y,1/3-z
2/3+x-y,1/3+x,1/3-z
2/3-x+y,1/3+y,5/6+z
2/3+x,1/3+x-y,5/6+z
2/3-y,1/3-x,5/6+z
1/3+x,2/3+y,2/3+z
1/3-y,2/3+x-y,2/3+z
1/3-x+y,2/3-x,2/3+z
1/3+x-y,2/3-y,1/6-z
1/3-x,2/3-x+y,1/6-z
1/3+y,2/3+x,1/6-z
1/3-x,2/3-y,2/3-z
1/3+y,2/3-x+y,2/3-z
1/3+x-y,2/3+x,2/3-z
1/3-x+y,2/3+y,1/6+z
1/3+x,2/3+x-y,1/6+z
1/3-y,2/3-x,1/6+z
loop_
_atom_site_type_symbol
_atom_site_label
_atom_site_fract_x
_atom_site_fract_y
_atom_site_fract_z
Si Si1 0.080050 0.762409 0.409553
Si Si2 0.490550 0.791811 0.698060
Si Si3 0.252381 0.176816 0.213184
Si Si4 0.768382 0.378871 0.985916
O O1 0.045172 0.666667 0.416667
O O2 0.041260 0.795435 0.457037
O O3 0.063676 0.774512 0.344616
O O4 0.177286 0.817303 0.416682
O O5 0.489334 0.728649 0.651036
O O6 0.467833 0.740733 0.755629
O O7 0.238480 0.238480 0.250000
O O8 0.170758 0.093076 0.199464
O O9 0.718364 0.426287 0.994555
#
# Coordination Sequence:
#
# PCOD8324381 Si02
#       4
#    36  36  36  36
#     4  10  25  42  60  91 130 162 206 253 313 375
#     4  11  19  37  67  94 123 158 199 266 317 362
#     4  10  23  41  61  83 125 166 205 251 302 367
#     4   9  18  32  57  95 116 146 207 255 308 355
#
# _framework density 19.562165
#
# number of rings (size 3 to 8) (size 9 to 14) (size 15 to 20)
#    0.500    1.500    2.500    0.250    7.000    0.000 
#    0.000    0.000    0.000    0.000    0.000    0.000 
#    0.000    0.000    0.000    0.000    0.000    0.000 
#
# Total GULP energy -594778.202504 kJ/mol
# GULP energy per Si atom -12391.212552 kJ/mol
# Density = 1.951764 g / cm^3
# Si number density = 19.562165 Si / 1000 Ang^3
#
#
#
# Elastic Constant Matrix: (Units=GPa)
#
#
# Indices 1 2 3 4 5 6 
#
# 1 97.4288 34.5464 33.5741 11.3035 0.0001 0.0000
# 2 34.5464 97.4288 33.5741 -11.3035 -0.0001 0.0000
# 3 33.5741 33.5741 43.8975 0.0000 0.0000 0.0000
# 4 11.3035 -11.3035 0.0000 21.0046 0.0000 -0.0001
# 5 0.0001 -0.0001 0.0000 0.0000 21.0046 11.3035
# 6 0.0000 0.0000 0.0000 -0.0001 11.3035 31.4412
#
#
#
# Elastic Compliance Matrix: (Units=1/GPa)
#
#
# Indices 1 2 3 4 5 6 
#
# 1 0.016061 -0.003657 -0.009487 -0.010611 0.000000 0.000000
# 2 -0.003657 0.016061 -0.009487 0.010611 0.000000 0.000000
# 3 -0.009487 -0.009487 0.037292 0.000000 0.000000 0.000000
# 4 -0.010611 0.010611 0.000000 0.059029 0.000000 0.000000
# 5 0.000000 0.000000 0.000000 0.000000 0.059029 -0.021221
# 6 0.000000 0.000000 0.000000 0.000000 -0.021221 0.039435
#
#
# Mechanical properties :
#
#
# Convention : Reuss Voigt Hill
#
# Bulk Modulus (GPa) = 41.40381 49.12718 45.26549
# Shear Modulus (GPa) = 17.84323 23.82746 20.83534
#
# Velocity S-wave (km/s) = 3.02342 3.49383 3.26710
# Velocity P-wave (km/s) = 5.77921 6.43767 6.11731
#
# Compressibility (1/GPa) = 0.02415237
#
# Stress axis : x y z
#
# Youngs Moduli (GPa) = 62.26354 62.26354 26.81514
#
# Poissons Ratio (x) = 0.22767 0.25440
# Poissons Ratio (y) = 0.22767 0.25440
# Poissons Ratio (z) = 0.59070 0.59070
#
# Static dielectric constant tensor:
#      x y z
#    x 3.596480 0.000000 0.000000 
#    y 0.000000 3.596480 0.000000 
#    z 0.000000 0.000000 3.485670 
# 
# 
# High freq. dielectric constant tensor:
#      x y z
#    x 1.757290 0.000000 0.000000 
#    y 0.000000 1.757290 0.000000 
#    z 0.000000 0.000000 1.758040 
# 
# From -- ./inp_files/4298.got.cif
#   From: 2010.03.12/outbox.cif.g09.slc.cpg/sg167_3_cif.got.tgz:4298.got - 2010.04.02 06:42:56.
