data_PCOD8324269
_publ_section_title
;
Structure prediction by ZEFSAII (Michael W. Deem and Ramdas Pophale) SiO2 
 PCOD8324269
Probable space group: R -3 C 
;
_chemical_formula_sum "Si O2"
_cell_formula_units_Z 216
_cell_length_a 25.376270
_cell_length_b 25.376270
_cell_length_c 24.083135
_cell_angle_alpha 90.000000
_cell_angle_beta 90.000000
_cell_angle_gamma 120.000000
_cell_volume 13430.717826
_symmetry_space_group_name_H-M "R -3 C "
_symmetry_group_IT_number 167
_symmetry_cell_setting 'hexagonal'
loop_
_space_group_symop_operation_xyz
x,y,z
-y,x-y,z
-x+y,-x,z
x-y,-y,1/2-z
-x,-x+y,1/2-z
y,x,1/2-z
-x,-y,-z
y,-x+y,-z
x-y,x,-z
-x+y,y,1/2+z
x,x-y,1/2+z
-y,-x,1/2+z
2/3+x,1/3+y,1/3+z
2/3-y,1/3+x-y,1/3+z
2/3-x+y,1/3-x,1/3+z
2/3+x-y,1/3-y,5/6-z
2/3-x,1/3-x+y,5/6-z
2/3+y,1/3+x,5/6-z
2/3-x,1/3-y,1/3-z
2/3+y,1/3-x+y,1/3-z
2/3+x-y,1/3+x,1/3-z
2/3-x+y,1/3+y,5/6+z
2/3+x,1/3+x-y,5/6+z
2/3-y,1/3-x,5/6+z
1/3+x,2/3+y,2/3+z
1/3-y,2/3+x-y,2/3+z
1/3-x+y,2/3-x,2/3+z
1/3+x-y,2/3-y,1/6-z
1/3-x,2/3-x+y,1/6-z
1/3+y,2/3+x,1/6-z
1/3-x,2/3-y,2/3-z
1/3+y,2/3-x+y,2/3-z
1/3+x-y,2/3+x,2/3-z
1/3-x+y,2/3+y,1/6+z
1/3+x,2/3+x-y,1/6+z
1/3-y,2/3-x,1/6+z
loop_
_atom_site_type_symbol
_atom_site_label
_atom_site_fract_x
_atom_site_fract_y
_atom_site_fract_z
Si Si1 0.963163 0.707223 0.366090
Si Si2 0.516751 0.920230 0.903935
Si Si3 0.601827 0.649475 0.703605
Si Si4 0.909373 0.510211 0.063420
Si Si5 0.613111 0.755151 0.771596
Si Si6 0.711847 0.791306 0.930841
O O1 0.920509 0.666667 0.416667
O O2 0.923873 0.727045 0.327642
O O3 0.982775 0.666371 0.329145
O O4 0.023004 0.766616 0.388376
O O5 0.542316 0.875649 0.916667
O O6 0.445091 0.886448 0.916068
O O7 0.548716 0.980318 0.943208
O O8 0.606776 0.606776 0.750000
O O9 0.585607 0.697777 0.730451
O O10 0.547627 0.609196 0.661113
O O11 0.858255 0.524922 0.083334
O O12 0.972757 0.555903 0.092422
O O13 0.915631 0.515605 0.997508
O O14 0.597117 0.804900 0.748132
#
# Coordination Sequence:
#
# PCOD8324269 Si02
#       6
#    36  36  36  36  36  36
#     4   9  16  27  44  65  90 121 154 185 223 271
#     4  10  18  30  47  66  89 121 155 187 223 270
#     4  10  18  29  44  63  92 122 153 188 223 262
#     4  11  20  31  47  69  92 119 153 189 227 269
#     4  10  19  31  46  67  93 123 154 183 221 270
#     4  10  18  30  47  66  92 126 153 184 224 268
#
# _framework density 16.082536000000001
#
# number of rings (size 3 to 8) (size 9 to 14) (size 15 to 20)
#    0.000    2.000    0.000    9.500    0.000    0.000 
#    0.000   19.167    0.000    0.333    0.000    0.000 
#    0.000    0.000    0.000    4.167    0.000    0.000 
#
# Total GULP energy -892836.458337 kJ/mol
# GULP energy per Si atom -12400.506366 kJ/mol
# Density = 1.604593 g / cm^3
# Si number density = 16.082536 Si / 1000 Ang^3
#
#
#
# Elastic Constant Matrix: (Units=GPa)
#
#
# Indices 1 2 3 4 5 6 
#
# 1 81.7982 45.6080 55.7508 -0.7771 0.0001 0.0000
# 2 45.6080 81.7982 55.7508 0.7771 -0.0001 0.0000
# 3 55.7508 55.7508 127.2466 0.0000 0.0000 0.0000
# 4 -0.7771 0.7771 0.0000 24.6041 0.0000 -0.0001
# 5 0.0001 -0.0001 0.0000 0.0000 24.6041 -0.7771
# 6 0.0000 0.0000 0.0000 -0.0001 -0.7771 18.0951
#
#
#
# Elastic Compliance Matrix: (Units=1/GPa)
#
#
# Indices 1 2 3 4 5 6 
#
# 1 0.020200 -0.007470 -0.005577 0.000874 0.000000 0.000000
# 2 -0.007470 0.020200 -0.005577 -0.000874 0.000000 0.000000
# 3 -0.005577 -0.005577 0.012746 0.000000 0.000000 0.000000
# 4 0.000874 -0.000874 0.000000 0.040699 0.000000 0.000000
# 5 0.000000 0.000000 0.000000 0.000000 0.040699 0.001748
# 6 0.000000 0.000000 0.000000 0.000000 0.001748 0.055339
#
#
# Mechanical properties :
#
#
# Convention : Reuss Voigt Hill
#
# Bulk Modulus (GPa) = 62.90709 67.22911 65.06810
# Shear Modulus (GPa) = 21.51187 22.37622 21.94405
#
# Velocity S-wave (km/s) = 3.66128 3.73411 3.69787
# Velocity P-wave (km/s) = 7.55469 7.77719 7.66675
#
# Compressibility (1/GPa) = 0.01589646
#
# Stress axis : x y z
#
# Youngs Moduli (GPa) = 49.50560 49.50560 78.45531
#
# Poissons Ratio (x) = 0.36979 0.43758
# Poissons Ratio (y) = 0.36979 0.43758
# Poissons Ratio (z) = 0.27612 0.27612
#
# Static dielectric constant tensor:
#      x y z
#    x 2.886520 0.000000 0.000000 
#    y 0.000000 2.886520 0.000000 
#    z 0.000000 0.000000 3.315910 
# 
# 
# High freq. dielectric constant tensor:
#      x y z
#    x 1.585100 0.000000 0.000000 
#    y 0.000000 1.585100 0.000000 
#    z 0.000000 0.000000 1.640130 
# 
# From -- ./inp_files/5549.got.cif
#   From: 2010.03.12/outbox.cif.g09.slc.cpg/sg167_3_cif.got.tgz:5549.got - 2010.04.02 06:42:56.
