data_PCOD8324788
_publ_section_title
;
Structure prediction by ZEFSAII (Michael W. Deem and Ramdas Pophale) SiO2 
 PCOD8324788
Probable space group: P 62
;
_chemical_formula_sum "Si O2"
_cell_formula_units_Z 39
_cell_length_a 12.763040
_cell_length_b 12.763040
_cell_length_c 13.266329
_cell_angle_alpha 90.000000
_cell_angle_beta 90.000000
_cell_angle_gamma 120.000000
_cell_volume 1871.499243
_symmetry_space_group_name_H-M "P 62"
_symmetry_group_IT_number 171
_symmetry_cell_setting 'hexagonal'
loop_
_space_group_symop_operation_xyz
x,y,z
x-y,x,1/3+z
-y,x-y,2/3+z
-x,-y,z
-x+y,-x,1/3+z
y,-x+y,2/3+z
loop_
_atom_site_type_symbol
_atom_site_label
_atom_site_fract_x
_atom_site_fract_y
_atom_site_fract_z
Si Si1 0.000000 0.000000 0.750000
Si Si2 0.305624 0.941050 0.517657
Si Si3 0.500000 0.000000 0.155297
Si Si4 0.879413 0.540742 0.640529
Si Si5 0.000000 0.500000 0.341437
Si Si6 0.189814 0.100053 0.580778
Si Si7 0.124522 0.660012 0.521755
Si Si8 0.691383 0.630597 0.644062
O O1 0.117296 0.040256 0.682705
O O2 0.013180 0.107759 0.820433
O O3 0.385186 0.929082 0.603837
O O4 0.201770 0.802659 0.504742
O O5 0.257111 0.027882 0.553846
O O6 0.381809 0.003215 0.415830
O O7 0.530976 0.919944 0.228935
O O8 0.387221 0.908854 0.087557
O O9 0.815493 0.408659 0.583729
O O10 0.804445 0.609299 0.654834
O O11 0.001045 0.630111 0.579172
O O12 0.901255 0.391717 0.408993
O O13 0.277398 0.240032 0.600776
#
# Coordination Sequence:
#
# PCOD8324788 Si02
#       8
#     3   6   3   6   3   6   6   6
#     4  10  24  38  60 112 132 178 212 246 362 424
#     4  12  24  43  66 101 135 178 219 289 343 401
#     4  10  24  44  64  94 132 178 232 278 328 392
#     4   9  23  45  68  96 127 182 233 270 333 404
#     4  10  24  44  64  94 132 178 232 278 328 392
#     4  11  24  40  68 102 142 174 215 280 352 422
#     4   9  23  45  68  96 127 182 233 270 333 404
#     4  12  24  43  66 101 135 178 219 289 343 401
#
# _framework density 20.838908
#
# number of rings (size 3 to 8) (size 9 to 14) (size 15 to 20)
#    0.000    1.846    1.538    2.308    4.308    7.385 
#   13.846    0.000    0.000    0.000    0.000    0.000 
#    0.000    0.000    0.000    0.000    0.000    0.000 
#
# Total GULP energy -483391.911175 kJ/mol
# GULP energy per Si atom -12394.664389 kJ/mol
# Density = 2.079148 g / cm^3
# Si number density = 20.838908 Si / 1000 Ang^3
#
#
#
# Elastic Constant Matrix: (Units=GPa)
#
#
# Indices 1 2 3 4 5 6 
#
# 1 97.3910 40.5911 48.1380 0.0000 0.0000 0.0000
# 2 40.5911 97.3910 48.1380 0.0000 0.0000 0.0000
# 3 48.1380 48.1380 165.8650 0.0000 0.0000 0.0000
# 4 0.0000 0.0000 0.0000 24.4554 0.0000 0.0000
# 5 0.0000 0.0000 0.0000 0.0000 24.4554 0.0000
# 6 0.0000 0.0000 0.0000 0.0000 0.0000 28.3999
#
#
#
# Elastic Compliance Matrix: (Units=1/GPa)
#
#
# Indices 1 2 3 4 5 6 
#
# 1 0.013347 -0.004259 -0.002637 0.000000 0.000000 0.000000
# 2 -0.004259 0.013347 -0.002637 0.000000 0.000000 0.000000
# 3 -0.002637 -0.002637 0.007560 0.000000 0.000000 0.000000
# 4 0.000000 0.000000 0.000000 0.040891 0.000000 0.000000
# 5 0.000000 0.000000 0.000000 0.000000 0.040891 0.000000
# 6 0.000000 0.000000 0.000000 0.000000 0.000000 0.035211
#
#
# Mechanical properties :
#
#
# Convention : Reuss Voigt Hill
#
# Bulk Modulus (GPa) = 65.85315 70.48680 68.16997
# Shear Modulus (GPa) = 28.51022 30.38079 29.44551
#
# Velocity S-wave (km/s) = 3.70283 3.82237 3.76308
# Velocity P-wave (km/s) = 7.06760 7.30608 7.18783
#
# Compressibility (1/GPa) = 0.01518530
#
# Stress axis : x y z
#
# Youngs Moduli (GPa) = 74.92534 74.92534 132.27702
#
# Poissons Ratio (x) = 0.31911 0.34887
# Poissons Ratio (y) = 0.31911 0.34887
# Poissons Ratio (z) = 0.19761 0.19761
#
# Static dielectric constant tensor:
#      x y z
#    x 3.619090 0.000000 0.000000 
#    y 0.000000 3.619090 0.000000 
#    z 0.000000 0.000000 4.489350 
# 
# 
# High freq. dielectric constant tensor:
#      x y z
#    x 1.807540 0.000000 0.000000 
#    y 0.000000 1.807540 0.000000 
#    z 0.000000 0.000000 1.843180 
# 
# From -- ./inp_files/2042.got.cif
#   From: 2010.03.12/outbox.cif.g09.slc.cpg/sg171_2_cif.got.tgz:2042.got - 2010.04.02 06:49:11.
