data_PCOD8324316
_publ_section_title
;
Structure prediction by ZEFSAII (Michael W. Deem and Ramdas Pophale) SiO2 
 PCOD8324316
Probable space group: R -3 C 
;
_chemical_formula_sum "Si O2"
_cell_formula_units_Z 72
_cell_length_a 14.074660
_cell_length_b 14.074660
_cell_length_c 13.687510
_cell_angle_alpha 90.000000
_cell_angle_beta 90.000000
_cell_angle_gamma 120.000000
_cell_volume 2348.177412
_symmetry_space_group_name_H-M "R -3 C "
_symmetry_group_IT_number 167
_symmetry_cell_setting 'hexagonal'
loop_
_space_group_symop_operation_xyz
x,y,z
-y,x-y,z
-x+y,-x,z
x-y,-y,1/2-z
-x,-x+y,1/2-z
y,x,1/2-z
-x,-y,-z
y,-x+y,-z
x-y,x,-z
-x+y,y,1/2+z
x,x-y,1/2+z
-y,-x,1/2+z
2/3+x,1/3+y,1/3+z
2/3-y,1/3+x-y,1/3+z
2/3-x+y,1/3-x,1/3+z
2/3+x-y,1/3-y,5/6-z
2/3-x,1/3-x+y,5/6-z
2/3+y,1/3+x,5/6-z
2/3-x,1/3-y,1/3-z
2/3+y,1/3-x+y,1/3-z
2/3+x-y,1/3+x,1/3-z
2/3-x+y,1/3+y,5/6+z
2/3+x,1/3+x-y,5/6+z
2/3-y,1/3-x,5/6+z
1/3+x,2/3+y,2/3+z
1/3-y,2/3+x-y,2/3+z
1/3-x+y,2/3-x,2/3+z
1/3+x-y,2/3-y,1/6-z
1/3-x,2/3-x+y,1/6-z
1/3+y,2/3+x,1/6-z
1/3-x,2/3-y,2/3-z
1/3+y,2/3-x+y,2/3-z
1/3+x-y,2/3+x,2/3-z
1/3-x+y,2/3+y,1/6+z
1/3+x,2/3+x-y,1/6+z
1/3-y,2/3-x,1/6+z
loop_
_atom_site_type_symbol
_atom_site_label
_atom_site_fract_x
_atom_site_fract_y
_atom_site_fract_z
Si Si1 0.755356 0.574940 0.244220
Si Si2 0.449707 0.264474 0.985768
O O1 0.833334 0.666667 0.166667
O O2 0.764425 0.649832 0.339127
O O3 0.636930 0.506462 0.197003
O O4 0.817041 0.504667 0.268007
O O5 0.513053 0.333334 0.083334
#
# Coordination Sequence:
#
# PCOD8324316 Si02
#       2
#    36  36
#     4  10  20  37  61  90 116 155 200 241 286 353
#     4  10  20  37  61  90 118 155 199 241 289 353
#
# _framework density 30.662077
#
# number of rings (size 3 to 8) (size 9 to 14) (size 15 to 20)
#    0.000    2.000    0.000    7.000    0.000    4.000 
#    0.000   35.000    0.000    0.000    0.000   94.500 
#    0.000    0.000    0.000    0.000    0.000    0.000 
#
# Total GULP energy -297544.832315 kJ/mol
# GULP energy per Si atom -12397.701346 kJ/mol
# Density = 3.059229 g / cm^3
# Si number density = 30.662077 Si / 1000 Ang^3
#
#
#
# Elastic Constant Matrix: (Units=GPa)
#
#
# Indices 1 2 3 4 5 6 
#
# 1 254.7162 102.3594 50.6477 9.2840 0.0000 0.0000
# 2 102.3594 254.7162 50.6477 -9.2840 0.0000 0.0000
# 3 50.6477 50.6477 140.2468 0.0000 0.0000 0.0000
# 4 9.2840 -9.2840 0.0000 39.4636 0.0000 0.0000
# 5 0.0000 0.0000 0.0000 0.0000 39.4636 9.2840
# 6 0.0000 0.0000 0.0000 0.0000 9.2840 76.1784
#
#
#
# Elastic Compliance Matrix: (Units=1/GPa)
#
#
# Indices 1 2 3 4 5 6 
#
# 1 0.004939 -0.001819 -0.001127 -0.001590 0.000000 0.000000
# 2 -0.001819 0.004939 -0.001127 0.001590 0.000000 0.000000
# 3 -0.001127 -0.001127 0.007944 0.000000 0.000000 0.000000
# 4 -0.001590 0.001590 0.000000 0.026088 0.000000 0.000000
# 5 0.000000 0.000000 0.000000 0.000000 0.026088 -0.003179
# 6 0.000000 0.000000 0.000000 0.000000 -0.003179 0.013515
#
#
# Mechanical properties :
#
#
# Convention : Reuss Voigt Hill
#
# Bulk Modulus (GPa) = 103.33461 117.44318 110.38889
# Shear Modulus (GPa) = 52.69721 60.75609 56.72665
#
# Velocity S-wave (km/s) = 4.15015 4.45620 4.30590
# Velocity P-wave (km/s) = 7.53255 8.05373 7.79749
#
# Compressibility (1/GPa) = 0.00967730
#
# Stress axis : x y z
#
# Youngs Moduli (GPa) = 202.48131 202.48131 125.87901
#
# Poissons Ratio (x) = 0.36822 0.14184
# Poissons Ratio (y) = 0.36822 0.14184
# Poissons Ratio (z) = 0.22816 0.22816
#
# Static dielectric constant tensor:
#      x y z
#    x 8.125580 0.000000 0.000000 
#    y 0.000000 8.125580 0.000000 
#    z 0.000000 0.000000 10.477550 
# 
# 
# High freq. dielectric constant tensor:
#      x y z
#    x 2.279170 0.000000 0.000000 
#    y 0.000000 2.279170 0.000000 
#    z 0.000000 0.000000 2.338040 
# 
# From -- ./inp_files/2734.got.cif
#   From: 2010.03.12/outbox.cif.g09.slc.cpg/sg167_2_cif.got.tgz:2734.got - 2010.04.02 06:42:56.
