data_PCOD8324124
_publ_section_title
;
Structure prediction by ZEFSAII (Michael W. Deem and Ramdas Pophale) SiO2 
 PCOD8324124
Probable space group: R -3 M
;
_chemical_formula_sum "Si O2"
_cell_formula_units_Z 216
_cell_length_a 21.541851
_cell_length_b 21.541851
_cell_length_c 27.063751
_cell_angle_alpha 90.000000
_cell_angle_beta 90.000000
_cell_angle_gamma 120.000000
_cell_volume 10876.387099
_symmetry_space_group_name_H-M "R -3 M"
_symmetry_group_IT_number 166
_symmetry_cell_setting 'hexagonal'
loop_
_space_group_symop_operation_xyz
x,y,z
-y,x-y,z
-x+y,-x,z
x-y,-y,-z
-x,-x+y,-z
y,x,-z
-x,-y,-z
y,-x+y,-z
x-y,x,-z
-x+y,y,z
x,x-y,z
-y,-x,z
2/3+x,1/3+y,1/3+z
2/3-y,1/3+x-y,1/3+z
2/3-x+y,1/3-x,1/3+z
2/3+x-y,1/3-y,1/3-z
2/3-x,1/3-x+y,1/3-z
2/3+y,1/3+x,1/3-z
2/3-x,1/3-y,1/3-z
2/3+y,1/3-x+y,1/3-z
2/3+x-y,1/3+x,1/3-z
2/3-x+y,1/3+y,1/3+z
2/3+x,1/3+x-y,1/3+z
2/3-y,1/3-x,1/3+z
1/3+x,2/3+y,2/3+z
1/3-y,2/3+x-y,2/3+z
1/3-x+y,2/3-x,2/3+z
1/3+x-y,2/3-y,2/3-z
1/3-x,2/3-x+y,2/3-z
1/3+y,2/3+x,2/3-z
1/3-x,2/3-y,2/3-z
1/3+y,2/3-x+y,2/3-z
1/3+x-y,2/3+x,2/3-z
1/3-x+y,2/3+y,2/3+z
1/3+x,2/3+x-y,2/3+z
1/3-y,2/3-x,2/3+z
loop_
_atom_site_type_symbol
_atom_site_label
_atom_site_fract_x
_atom_site_fract_y
_atom_site_fract_z
Si Si1 0.436435 0.149091 0.132555
Si Si2 0.748067 0.803390 0.111065
Si Si3 0.802461 0.055746 0.456157
Si Si4 0.892424 0.251435 0.270427
Si Si5 0.334007 0.529694 0.372579
Si Si6 0.075109 0.662248 0.318367
O O1 0.422042 0.211021 0.151246
O O2 0.466872 0.128768 0.178928
O O3 0.361611 0.088762 0.107643
O O4 0.501136 0.177785 0.094560
O O5 0.770762 0.885381 0.094682
O O6 0.670018 0.767128 0.135505
O O7 0.758709 0.759203 0.065528
O O8 0.888281 0.111720 0.449639
O O9 0.763228 0.014223 0.406170
O O10 0.790613 0.000000 0.500000
O O11 0.808181 0.191820 0.266417
O O12 0.920636 0.236844 0.322231
O O13 0.279496 0.558991 0.372061
O O14 0.409206 0.590795 0.350624
O O15 0.305935 0.460734 0.338525
O O16 0.055083 0.721749 0.333334
#
# Coordination Sequence:
#
# PCOD8324124 Si02
#       6
#    36  36  36  36  36  36
#     4   9  18  33  55  84 116 152 197 249 303 364
#     4  11  21  32  51  82 121 159 203 246 299 367
#     4  11  24  41  61  88 124 160 199 247 308 375
#     4  10  19  35  60  84 111 152 204 258 312 368
#     4  10  21  37  59  87 122 162 204 248 304 373
#     4  11  22  40  62  89 121 155 205 262 311 359
#
# _framework density 19.859535999999999
#
# number of rings (size 3 to 8) (size 9 to 14) (size 15 to 20)
#    0.000    1.667    1.667    5.167    2.333    2.333 
#    0.000    0.000    0.000    3.833    0.000    0.000 
#    0.000    0.667    0.000    0.000    0.000    0.000 
#
# Total GULP energy -892202.706615 kJ/mol
# GULP energy per Si atom -12391.704259 kJ/mol
# Density = 1.981434 g / cm^3
# Si number density = 19.859536 Si / 1000 Ang^3
#
#
#
# Elastic Constant Matrix: (Units=GPa)
#
#
# Indices 1 2 3 4 5 6 
#
# 1 87.4545 34.1319 23.4518 2.0342 0.0001 0.0000
# 2 34.1319 87.4545 23.4518 -2.0342 -0.0001 0.0000
# 3 23.4518 23.4518 87.9425 0.0000 0.0000 0.0000
# 4 2.0342 -2.0342 0.0000 23.6001 0.0000 -0.0001
# 5 0.0001 -0.0001 0.0000 0.0000 23.6001 2.0342
# 6 0.0000 0.0000 0.0000 -0.0001 2.0342 26.6613
#
#
#
# Elastic Compliance Matrix: (Units=1/GPa)
#
#
# Indices 1 2 3 4 5 6 
#
# 1 0.014023 -0.004855 -0.002445 -0.001627 0.000000 0.000000
# 2 -0.004855 0.014023 -0.002445 0.001627 0.000000 0.000000
# 3 -0.002445 -0.002445 0.012675 0.000000 0.000000 0.000000
# 4 -0.001627 0.001627 0.000000 0.042653 0.000000 0.000000
# 5 0.000000 0.000000 0.000000 0.000000 0.042653 -0.003254
# 6 0.000000 0.000000 0.000000 0.000000 -0.003254 0.037756
#
#
# Mechanical properties :
#
#
# Convention : Reuss Voigt Hill
#
# Bulk Modulus (GPa) = 47.10030 47.21364 47.15697
# Shear Modulus (GPa) = 26.26748 26.89335 26.58041
#
# Velocity S-wave (km/s) = 3.64079 3.68391 3.66241
# Velocity P-wave (km/s) = 6.43755 6.47459 6.45609
#
# Compressibility (1/GPa) = 0.02123129
#
# Stress axis : x y z
#
# Youngs Moduli (GPa) = 71.31232 71.31232 78.89561
#
# Poissons Ratio (x) = 0.34623 0.19288
# Poissons Ratio (y) = 0.34623 0.19288
# Poissons Ratio (z) = 0.17434 0.17434
#
# Static dielectric constant tensor:
#      x y z
#    x 3.820910 0.000000 0.000000 
#    y 0.000000 3.820910 0.000000 
#    z 0.000000 0.000000 3.537400 
# 
# 
# High freq. dielectric constant tensor:
#      x y z
#    x 1.767750 0.000000 0.000000 
#    y 0.000000 1.767750 0.000000 
#    z 0.000000 0.000000 1.768730 
# 
# From -- ./inp_files/9738.got.cif
#   From: 2010.03.12/outbox.cif.g09.slc.cpg/sg166_5_cif.got.tgz:9738.got - 2010.04.02 06:38:31.
