data_PCOD8324444
_publ_section_title
;
Structure prediction by ZEFSAII (Michael W. Deem and Ramdas Pophale) SiO2 
 PCOD8324444
Probable space group: P 6
;
_chemical_formula_sum "Si O2"
_cell_formula_units_Z 42
_cell_length_a 20.676524
_cell_length_b 20.676524
_cell_length_c 5.041190
_cell_angle_alpha 90.000000
_cell_angle_beta 90.000000
_cell_angle_gamma 120.000000
_cell_volume 1866.460303
_symmetry_space_group_name_H-M "P 6"
_symmetry_group_IT_number 168
_symmetry_cell_setting 'hexagonal'
loop_
_space_group_symop_operation_xyz
x,y,z
x-y,x,z
-y,x-y,z
-x,-y,z
-x+y,-x,z
y,-x+y,z
loop_
_atom_site_type_symbol
_atom_site_label
_atom_site_fract_x
_atom_site_fract_y
_atom_site_fract_z
Si Si1 0.092814 0.610737 0.110190
Si Si2 0.925330 0.543826 0.197009
Si Si3 0.297316 0.429484 0.620195
Si Si4 0.263953 0.158219 0.268547
Si Si5 0.913790 0.826151 0.757379
Si Si6 0.675610 0.700804 0.557431
Si Si7 0.844698 0.610354 0.920514
O O1 0.101498 0.543146 0.227235
O O2 0.135269 0.677869 0.321197
O O3 0.006484 0.586246 0.057128
O O4 0.130673 0.641266 0.825268
O O5 0.939843 0.587712 0.475852
O O6 0.859780 0.546204 0.032309
O O7 0.287799 0.347458 0.652325
O O8 0.219105 0.423898 0.696666
O O9 0.242875 0.115753 0.550332
O O10 0.275788 0.242245 0.318499
O O11 0.200382 0.107455 0.059885
O O12 0.345365 0.173875 0.157868
O O13 0.876264 0.875531 0.698579
O O14 0.675451 0.752434 0.796471
#
# Coordination Sequence:
#
# PCOD8324444 Si02
#       7
#     6   6   6   6   6   6   6
#     4  10  22  41  63 100 127 170 218 267 315 394
#     4   9  21  39  68  92 132 169 216 264 324 380
#     4  11  25  37  64  98 137 165 219 267 329 388
#     4  11  25  41  65  93 124 171 214 272 353 406
#     4  12  27  46  65  88 119 173 237 292 348 406
#     4  10  22  42  62  99 131 175 211 270 329 405
#     4  11  23  41  66  99 138 172 213 273 334 400
#
# _framework density 22.502486999999999
#
# number of rings (size 3 to 8) (size 9 to 14) (size 15 to 20)
#    0.000    1.429    2.857    1.000    8.000    3.429 
#    0.000    1.429    0.000    0.571    3.714    0.000 
#    0.000    0.000    0.000    0.000    0.000    0.000 
#
# Total GULP energy -520507.594815 kJ/mol
# GULP energy per Si atom -12393.037972 kJ/mol
# Density = 2.245127 g / cm^3
# Si number density = 22.502487 Si / 1000 Ang^3
#
#
#
# Elastic Constant Matrix: (Units=GPa)
#
#
# Indices 1 2 3 4 5 6 
#
# 1 76.5850 22.0600 13.8384 0.0000 0.0000 0.0000
# 2 22.0600 76.5850 13.8384 0.0000 0.0000 0.0000
# 3 13.8384 13.8384 87.3651 0.0000 0.0000 0.0000
# 4 0.0000 0.0000 0.0000 24.9131 0.0000 0.0000
# 5 0.0000 0.0000 0.0000 0.0000 24.9131 0.0000
# 6 0.0000 0.0000 0.0000 0.0000 0.0000 27.2625
#
#
#
# Elastic Compliance Matrix: (Units=1/GPa)
#
#
# Indices 1 2 3 4 5 6 
#
# 1 0.014475 -0.003866 -0.001680 0.000000 0.000000 0.000000
# 2 -0.003866 0.014475 -0.001680 0.000000 0.000000 0.000000
# 3 -0.001680 -0.001680 0.011979 0.000000 0.000000 0.000000
# 4 0.000000 0.000000 0.000000 0.040140 0.000000 0.000000
# 5 0.000000 0.000000 0.000000 0.000000 0.040140 0.000000
# 6 0.000000 0.000000 0.000000 0.000000 0.000000 0.036680
#
#
# Mechanical properties :
#
#
# Convention : Reuss Voigt Hill
#
# Bulk Modulus (GPa) = 37.77208 37.77876 37.77542
# Shear Modulus (GPa) = 27.59918 28.13764 27.86841
#
# Velocity S-wave (km/s) = 3.50593 3.53997 3.52299
# Velocity P-wave (km/s) = 5.76289 5.79083 5.77688
#
# Compressibility (1/GPa) = 0.02647458
#
# Stress axis : x y z
#
# Youngs Moduli (GPa) = 69.08698 69.08698 83.48244
#
# Poissons Ratio (x) = 0.26707 0.14029
# Poissons Ratio (y) = 0.26707 0.14029
# Poissons Ratio (z) = 0.11609 0.11609
#
# Static dielectric constant tensor:
#      x y z
#    x 3.883610 0.000000 0.000000 
#    y 0.000000 3.883610 0.000000 
#    z 0.000000 0.000000 4.161510 
# 
# 
# High freq. dielectric constant tensor:
#      x y z
#    x 1.864890 0.000000 0.000000 
#    y 0.000000 1.864890 0.000000 
#    z 0.000000 0.000000 1.901760 
# 
# From -- ./inp_files/153.got.cif
#   From: 2010.03.12/outbox.cif.g09.slc.cpg/sg168_cif.got.tgz:153.got - 2010.04.02 06:45:48.
