data_PCOD8324779
_publ_section_title
;
Structure prediction by ZEFSAII (Michael W. Deem and Ramdas Pophale) SiO2 
 PCOD8324779
Probable space group: P 62
;
_chemical_formula_sum "Si O2"
_cell_formula_units_Z 27
_cell_length_a 9.069933
_cell_length_b 9.069933
_cell_length_c 17.726846
_cell_angle_alpha 90.000000
_cell_angle_beta 90.000000
_cell_angle_gamma 120.000000
_cell_volume 1262.903775
_symmetry_space_group_name_H-M "P 62"
_symmetry_group_IT_number 171
_symmetry_cell_setting 'hexagonal'
loop_
_space_group_symop_operation_xyz
x,y,z
x-y,x,1/3+z
-y,x-y,2/3+z
-x,-y,z
-x+y,-x,1/3+z
y,-x+y,2/3+z
loop_
_atom_site_type_symbol
_atom_site_label
_atom_site_fract_x
_atom_site_fract_y
_atom_site_fract_z
Si Si1 0.745178 0.229935 0.849040
Si Si2 0.500000 0.500000 0.629371
Si Si3 0.372840 0.144648 0.874848
Si Si4 0.755629 0.783414 0.735097
Si Si5 0.285078 0.111514 0.041817
O O1 0.845217 0.375042 0.909865
O O2 0.558146 0.203828 0.841515
O O3 0.833846 0.274338 0.766891
O O4 0.745746 0.059258 0.872660
O O5 0.597659 0.662789 0.682871
O O6 0.294178 0.239734 0.824669
O O7 0.378560 0.184691 0.962610
O O8 0.908221 0.746510 0.717412
O O9 0.799229 0.973287 0.718841
#
# Coordination Sequence:
#
# PCOD8324779 Si02
#       5
#     6   3   6   6   6
#     4  10  24  40  67  96 135 177 221 273 348 396
#     4  12  24  42  62 108 132 172 230 292 332 410
#     4  10  22  45  64  94 136 178 222 273 337 410
#     4  10  24  40  69  99 131 176 234 270 335 409
#     4  10  22  44  70  92 133 185 221 276 332 414
#
# _framework density 21.379303
#
# number of rings (size 3 to 8) (size 9 to 14) (size 15 to 20)
#    0.000    1.778    2.222    0.000    6.222    5.333 
#    0.000    0.000    0.000    0.000    0.000    0.000 
#    0.000    0.000    0.000    0.000    0.000    0.000 
#
# Total GULP energy -334717.649787 kJ/mol
# GULP energy per Si atom -12396.949992 kJ/mol
# Density = 2.133064 g / cm^3
# Si number density = 21.379303 Si / 1000 Ang^3
#
#
#
# Elastic Constant Matrix: (Units=GPa)
#
#
# Indices 1 2 3 4 5 6 
#
# 1 80.4422 42.3341 57.1421 0.0000 0.0000 0.0000
# 2 42.3341 80.4422 57.1421 0.0000 0.0000 0.0000
# 3 57.1421 57.1421 195.6469 0.0000 0.0000 0.0000
# 4 0.0000 0.0000 0.0000 38.2082 0.0000 0.0000
# 5 0.0000 0.0000 0.0000 0.0000 38.2082 0.0000
# 6 0.0000 0.0000 0.0000 0.0000 0.0000 19.0540
#
#
#
# Elastic Compliance Matrix: (Units=1/GPa)
#
#
# Indices 1 2 3 4 5 6 
#
# 1 0.018714 -0.007528 -0.003267 0.000000 0.000000 0.000000
# 2 -0.007528 0.018714 -0.003267 0.000000 0.000000 0.000000
# 3 -0.003267 -0.003267 0.007020 0.000000 0.000000 0.000000
# 4 0.000000 0.000000 0.000000 0.026172 0.000000 0.000000
# 5 0.000000 0.000000 0.000000 0.000000 0.026172 0.000000
# 6 0.000000 0.000000 0.000000 0.000000 0.000000 0.052482
#
#
# Mechanical properties :
#
#
# Convention : Reuss Voigt Hill
#
# Bulk Modulus (GPa) = 61.26186 74.41864 67.84025
# Shear Modulus (GPa) = 27.34655 32.42163 29.88409
#
# Velocity S-wave (km/s) = 3.58035 3.89845 3.74278
# Velocity P-wave (km/s) = 6.76822 7.42618 7.10482
#
# Compressibility (1/GPa) = 0.01632337
#
# Stress axis : x y z
#
# Youngs Moduli (GPa) = 53.43715 53.43715 142.45718
#
# Poissons Ratio (x) = 0.40225 0.46542
# Poissons Ratio (y) = 0.40225 0.46542
# Poissons Ratio (z) = 0.17458 0.17458
#
# Static dielectric constant tensor:
#      x y z
#    x 3.765750 0.000000 0.000000 
#    y 0.000000 3.765750 0.000000 
#    z 0.000000 0.000000 4.190660 
# 
# 
# High freq. dielectric constant tensor:
#      x y z
#    x 1.830480 0.000000 0.000000 
#    y 0.000000 1.830480 0.000000 
#    z 0.000000 0.000000 1.856040 
# 
# From -- ./inp_files/3807.got.cif
#   From: 2010.03.12/outbox.cif.g09.slc.cpg/sg171_2_cif.got.tgz:3807.got - 2010.04.02 06:49:11.
