data_PCOD8324267
_publ_section_title
;
Structure prediction by ZEFSAII (Michael W. Deem and Ramdas Pophale) SiO2 
 PCOD8324267
Probable space group: R -3 C 
;
_chemical_formula_sum "Si O2"
_cell_formula_units_Z 138
_cell_length_a 18.653609
_cell_length_b 18.653609
_cell_length_c 29.574414
_cell_angle_alpha 90.000000
_cell_angle_beta 90.000000
_cell_angle_gamma 120.000000
_cell_volume 8911.945424
_symmetry_space_group_name_H-M "R -3 C "
_symmetry_group_IT_number 167
_symmetry_cell_setting 'hexagonal'
loop_
_space_group_symop_operation_xyz
x,y,z
-y,x-y,z
-x+y,-x,z
x-y,-y,1/2-z
-x,-x+y,1/2-z
y,x,1/2-z
-x,-y,-z
y,-x+y,-z
x-y,x,-z
-x+y,y,1/2+z
x,x-y,1/2+z
-y,-x,1/2+z
2/3+x,1/3+y,1/3+z
2/3-y,1/3+x-y,1/3+z
2/3-x+y,1/3-x,1/3+z
2/3+x-y,1/3-y,5/6-z
2/3-x,1/3-x+y,5/6-z
2/3+y,1/3+x,5/6-z
2/3-x,1/3-y,1/3-z
2/3+y,1/3-x+y,1/3-z
2/3+x-y,1/3+x,1/3-z
2/3-x+y,1/3+y,5/6+z
2/3+x,1/3+x-y,5/6+z
2/3-y,1/3-x,5/6+z
1/3+x,2/3+y,2/3+z
1/3-y,2/3+x-y,2/3+z
1/3-x+y,2/3-x,2/3+z
1/3+x-y,2/3-y,1/6-z
1/3-x,2/3-x+y,1/6-z
1/3+y,2/3+x,1/6-z
1/3-x,2/3-y,2/3-z
1/3+y,2/3-x+y,2/3-z
1/3+x-y,2/3+x,2/3-z
1/3-x+y,2/3+y,1/6+z
1/3+x,2/3+x-y,1/6+z
1/3-y,2/3-x,1/6+z
loop_
_atom_site_type_symbol
_atom_site_label
_atom_site_fract_x
_atom_site_fract_y
_atom_site_fract_z
Si Si1 0.867168 0.050827 0.562052
Si Si2 0.666668 0.333334 0.886448
Si Si3 0.075939 0.631198 0.147497
Si Si4 0.780388 0.666667 0.916667
Si Si5 0.446233 0.385501 0.213432
O O1 0.899183 0.145988 0.549930
O O2 0.944125 0.037133 0.570469
O O3 0.806701 0.989721 0.522732
O O4 0.817694 0.027541 0.610314
O O5 0.666668 0.333335 0.833334
O O6 0.091310 0.708970 0.118887
O O7 0.979991 0.587458 0.164208
O O8 0.863350 0.730950 0.889289
O O9 0.378428 0.378428 0.250000
#
# Coordination Sequence:
#
# PCOD8324267 Si02
#       5
#    36  12  36  18  36
#     4  11  17  29  44  69  94 124 148 197 240 289
#     4  12  18  21  45  75  96 106 146 199 255 282
#     4  11  17  30  46  66  96 120 161 186 233 288
#     4  10  18  28  46  70  90 128 154 192 242 284
#     4   8  18  28  43  64  94 124 150 185 239 285
#
# _framework density 15.484833999999999
#
# number of rings (size 3 to 8) (size 9 to 14) (size 15 to 20)
#    0.783    1.043    5.217    1.565    0.000    0.000 
#    0.000    1.304    0.000    0.000    0.000    0.000 
#    0.000    0.000    0.000    1.043    0.000    0.000 
#
# Total GULP energy -569854.768777 kJ/mol
# GULP energy per Si atom -12388.147147 kJ/mol
# Density = 1.544959 g / cm^3
# Si number density = 15.484834 Si / 1000 Ang^3
#
#
#
# Elastic Constant Matrix: (Units=GPa)
#
#
# Indices 1 2 3 4 5 6 
#
# 1 58.4528 14.5281 27.3926 0.7462 0.0000 0.0000
# 2 14.5281 58.4513 27.3924 -0.7464 0.0000 0.0000
# 3 27.3926 27.3924 38.9334 0.0000 0.0000 0.0000
# 4 0.7462 -0.7464 0.0000 23.7680 0.0000 0.0000
# 5 0.0000 0.0000 0.0000 0.0000 23.7683 0.7463
# 6 0.0000 0.0000 0.0000 0.0000 0.7463 21.9622
#
#
#
# Elastic Compliance Matrix: (Units=1/GPa)
#
#
# Indices 1 2 3 4 5 6 
#
# 1 0.025915 0.003125 -0.020432 -0.000716 0.000000 0.000000
# 2 0.003125 0.025916 -0.020432 0.000716 0.000000 0.000000
# 3 -0.020432 -0.020432 0.054436 0.000000 0.000000 0.000000
# 4 -0.000716 0.000716 0.000000 0.042118 0.000000 0.000000
# 5 0.000000 0.000000 0.000000 0.000000 0.042118 -0.001431
# 6 0.000000 0.000000 0.000000 0.000000 -0.001431 0.045582
#
#
# Mechanical properties :
#
#
# Convention : Reuss Voigt Hill
#
# Bulk Modulus (GPa) = 32.47979 32.71818 32.59898
# Shear Modulus (GPa) = 15.53637 19.66800 17.60218
#
# Velocity S-wave (km/s) = 3.17097 3.56778 3.37521
# Velocity P-wave (km/s) = 5.86750 6.17633 6.02389
#
# Compressibility (1/GPa) = 0.03078837
#
# Stress axis : x y z
#
# Youngs Moduli (GPa) = 38.58736 38.58619 18.37034
#
# Poissons Ratio (x) = -0.12057 0.37534
# Poissons Ratio (y) = -0.12057 0.37535
# Poissons Ratio (z) = 0.78841 0.78840
#
# Static dielectric constant tensor:
#      x y z
#    x 3.312090 0.000000 0.000000 
#    y 0.000000 3.312370 0.000010 
#    z 0.000000 0.000010 2.818560 
# 
# 
# High freq. dielectric constant tensor:
#      x y z
#    x 1.583510 0.000000 0.000000 
#    y 0.000000 1.583510 0.000000 
#    z 0.000000 0.000000 1.549160 
# 
# From -- ./inp_files/7034.got.cif
#   From: 2010.03.12/outbox.cif.g09.slc.cpg/sg167_4_cif.got.tgz:7034.got - 2010.04.02 06:42:56.
