data_PCOD8324953
_publ_section_title
;
Structure prediction by ZEFSAII (Michael W. Deem and Ramdas Pophale) SiO2 
 PCOD8324953
Probable space group: P -6
;
_chemical_formula_sum "Si O2"
_cell_formula_units_Z 29
_cell_length_a 14.309250
_cell_length_b 14.309250
_cell_length_c 7.627160
_cell_angle_alpha 90.000000
_cell_angle_beta 90.000000
_cell_angle_gamma 120.000000
_cell_volume 1352.468726
_symmetry_space_group_name_H-M "P -6"
_symmetry_group_IT_number 174
_symmetry_cell_setting 'hexagonal'
loop_
_space_group_symop_operation_xyz
x,y,z
-x+y,-x,-z
-y,x-y,z
x,y,-z
-x+y,-x,z
-y,x-y,-z
loop_
_atom_site_type_symbol
_atom_site_label
_atom_site_fract_x
_atom_site_fract_y
_atom_site_fract_z
Si Si1 0.666668 0.333335 0.791913
Si Si2 0.172605 0.859444 0.197552
Si Si3 0.593255 0.589981 0.292363
Si Si4 0.373864 0.387467 0.290549
Si Si5 0.079998 0.941566 0.500000
Si Si6 0.780510 0.211722 0.300965
O O1 0.554739 0.313402 0.714192
O O2 0.666667 0.333334 0.000000
O O3 0.117813 0.731065 0.218838
O O4 0.122979 0.911836 0.327193
O O5 0.297311 0.901311 0.238583
O O6 0.157637 0.889306 0.000000
O O7 0.594075 0.578140 0.500000
O O8 0.480911 0.492919 0.216974
O O9 0.696987 0.587028 0.207271
O O10 0.374441 0.388752 0.500000
O O11 0.367031 0.276163 0.220716
O O12 0.948240 0.877430 0.500000
O O13 0.810640 0.205670 0.500000
#
# Coordination Sequence:
#
# PCOD8324953 Si02
#       6
#     2   6   6   6   3   6
#     4  12  22  32  49  90 139 164 193 252 304 377
#     4  12  26  44  70 100 136 179 231 286 352 412
#     4  10  21  40  69  97 130 177 223 277 336 402
#     4  10  21  40  69  97 130 177 223 277 336 402
#     4  10  26  48  72  94 138 178 228 290 332 412
#     4  10  20  37  65  92 125 167 211 252 319 394
#
# _framework density 21.442271000000002
#
# number of rings (size 3 to 8) (size 9 to 14) (size 15 to 20)
#    0.207    1.241    4.138    0.621    2.897    3.310 
#    1.241    0.000    0.000    0.000    0.000    0.000 
#    0.000    0.000    0.000    0.000    0.000    0.000 
#
# Total GULP energy -359467.349821 kJ/mol
# GULP energy per Si atom -12395.425856 kJ/mol
# Density = 2.139347 g / cm^3
# Si number density = 21.442271 Si / 1000 Ang^3
#
#
#
# Elastic Constant Matrix: (Units=GPa)
#
#
# Indices 1 2 3 4 5 6 
#
# 1 130.4951 69.7056 24.7949 0.0000 0.0000 -0.0057
# 2 69.7056 130.4966 24.7965 0.0000 0.0000 0.0041
# 3 24.7949 24.7965 73.5160 0.0000 0.0000 0.0005
# 4 0.0000 0.0000 0.0000 -7.7886 -0.0003 0.0000
# 5 0.0000 0.0000 0.0000 -0.0003 -7.7880 0.0000
# 6 -0.0057 0.0041 0.0005 0.0000 0.0000 30.4130
#
#
#
# Elastic Compliance Matrix: (Units=1/GPa)
#
#
# Indices 1 2 3 4 5 6 
#
# 1 0.010950 -0.005500 -0.001838 0.000000 0.000000 0.000003
# 2 -0.005500 0.010950 -0.001838 0.000000 0.000000 -0.000002
# 3 -0.001838 -0.001838 0.014843 0.000000 0.000000 0.000000
# 4 0.000000 0.000000 0.000000 -0.128392 0.000005 0.000000
# 5 0.000000 0.000000 0.000000 0.000005 -0.128403 0.000000
# 6 0.000003 -0.000002 0.000000 0.000000 0.000000 0.032881
#
#
# Mechanical properties :
#
#
# Convention : Reuss Voigt Hill
#
# Bulk Modulus (GPa) = 54.37744 63.67797 59.02771
# Shear Modulus (GPa) = -30.73356 17.31466 -6.70945
#
# Velocity S-wave (km/s) = -3.79002 2.84474 -1.77084
# Velocity P-wave (km/s) = 2.50252 6.36804 4.83811
#
# Compressibility (1/GPa) = 0.01838998
#
# Stress axis : x y z
#
# Youngs Moduli (GPa) = 91.32264 91.32295 67.37393
#
# Poissons Ratio (x) = 0.50226 0.12384
# Poissons Ratio (y) = 0.50226 0.12387
# Poissons Ratio (z) = 0.16786 0.16790
#
# Static dielectric constant tensor:
#      x y z
#    x 4.041380 -0.000070 0.000000 
#    y -0.000070 4.041330 0.000000 
#    z 0.000000 0.000000 3.605200 
# 
# 
# High freq. dielectric constant tensor:
#      x y z
#    x 1.842440 0.000000 0.000000 
#    y 0.000000 1.842440 0.000000 
#    z 0.000000 0.000000 1.821750 
# 
# From -- ./inp_files/271.got.cif
#   From: 2010.03.12/outbox.cif.g09.slc.cpg/sg174_cif.got.tgz:271.got - 2010.04.02 06:54:58.
