data_PCOD8324681
_publ_section_title
;
Structure prediction by ZEFSAII (Michael W. Deem and Ramdas Pophale) SiO2 
 PCOD8324681
Probable space group: P 65
;
_chemical_formula_sum "Si O2"
_cell_formula_units_Z 42
_cell_length_a 13.295986
_cell_length_b 13.295986
_cell_length_c 12.138631
_cell_angle_alpha 90.000000
_cell_angle_beta 90.000000
_cell_angle_gamma 120.000000
_cell_volume 1858.409597
_symmetry_space_group_name_H-M "P 65"
_symmetry_group_IT_number 170
_symmetry_cell_setting 'hexagonal'
loop_
_space_group_symop_operation_xyz
x,y,z
x-y,x,5/6+z
-y,x-y,2/3+z
-x,-y,1/2+z
-x+y,-x,1/3+z
y,-x+y,1/6+z
loop_
_atom_site_type_symbol
_atom_site_label
_atom_site_fract_x
_atom_site_fract_y
_atom_site_fract_z
Si Si1 0.563743 0.824339 0.222510
Si Si2 0.815200 0.389096 0.987604
Si Si3 0.633110 0.030847 0.708359
Si Si4 0.018823 0.160286 0.879630
Si Si5 0.505512 0.939900 0.038599
Si Si6 0.607357 0.162645 0.892566
Si Si7 0.101481 0.924376 0.909357
O O1 0.500414 0.701403 0.159959
O O2 0.580942 0.923652 0.134354
O O3 0.497396 0.830811 0.331728
O O4 0.687103 0.844773 0.260743
O O5 0.919330 0.410800 0.906219
O O6 0.693609 0.284378 0.947569
O O7 0.845717 0.365607 0.110309
O O8 0.730135 0.995737 0.695327
O O9 0.615113 0.082041 0.594104
O O10 0.674853 0.130140 0.801555
O O11 0.131998 0.176346 0.812423
O O12 0.901025 0.044623 0.839775
O O13 0.566125 0.069027 0.989837
O O14 0.109252 0.966606 0.782997
#
# Coordination Sequence:
#
# PCOD8324681 Si02
#       7
#     6   6   6   6   6   6   6
#     4  11  25  44  70 107 143 199 234 304 370 438
#     4  11  24  44  68 107 146 185 243 293 369 434
#     4  10  23  44  71 106 139 190 240 294 362 444
#     4  10  22  43  69 101 134 180 242 296 360 424
#     4  10  25  41  70 100 145 189 243 292 359 438
#     4  10  24  44  67 106 145 192 238 299 358 435
#     4  10  25  44  71 105 138 185 244 302 360 431
#
# _framework density 22.599969999999999
#
# number of rings (size 3 to 8) (size 9 to 14) (size 15 to 20)
#    0.000    1.714    0.000    1.714   14.000    1.143 
#    0.000   20.000    0.000    0.000    0.000    0.000 
#    0.000    0.000    0.000    0.000    0.000    0.000 
#
# Total GULP energy -520613.067500 kJ/mol
# GULP energy per Si atom -12395.549226 kJ/mol
# Density = 2.254853 g / cm^3
# Si number density = 22.599970 Si / 1000 Ang^3
#
#
#
# Elastic Constant Matrix: (Units=GPa)
#
#
# Indices 1 2 3 4 5 6 
#
# 1 113.0717 47.2589 39.5454 0.0000 0.0000 0.0000
# 2 47.2589 113.0717 39.5454 0.0000 0.0000 0.0000
# 3 39.5454 39.5454 93.6074 0.0000 0.0000 0.0000
# 4 0.0000 0.0000 0.0000 31.6207 0.0000 0.0000
# 5 0.0000 0.0000 0.0000 0.0000 31.6207 0.0000
# 6 0.0000 0.0000 0.0000 0.0000 0.0000 32.9064
#
#
#
# Elastic Compliance Matrix: (Units=1/GPa)
#
#
# Indices 1 2 3 4 5 6 
#
# 1 0.011537 -0.003658 -0.003329 0.000000 0.000000 0.000000
# 2 -0.003658 0.011537 -0.003329 0.000000 0.000000 0.000000
# 3 -0.003329 -0.003329 0.013495 0.000000 0.000000 0.000000
# 4 0.000000 0.000000 0.000000 0.031625 0.000000 0.000000
# 5 0.000000 0.000000 0.000000 0.000000 0.031625 0.000000
# 6 0.000000 0.000000 0.000000 0.000000 0.000000 0.030389
#
#
# Mechanical properties :
#
#
# Convention : Reuss Voigt Hill
#
# Bulk Modulus (GPa) = 62.73878 63.60558 63.17218
# Shear Modulus (GPa) = 32.02031 32.12298 32.07165
#
# Velocity S-wave (km/s) = 3.76816 3.77420 3.77118
# Velocity P-wave (km/s) = 6.83761 6.87008 6.85386
#
# Compressibility (1/GPa) = 0.01593910
#
# Stress axis : x y z
#
# Youngs Moduli (GPa) = 86.67876 86.67876 74.09968
#
# Poissons Ratio (x) = 0.31705 0.24665
# Poissons Ratio (y) = 0.31705 0.24665
# Poissons Ratio (z) = 0.28852 0.28852
#
# Static dielectric constant tensor:
#      x y z
#    x 4.035520 0.000000 0.000000 
#    y 0.000000 4.035520 0.000000 
#    z 0.000000 0.000000 4.489400 
# 
# 
# High freq. dielectric constant tensor:
#      x y z
#    x 1.885020 0.000000 0.000000 
#    y 0.000000 1.885020 0.000000 
#    z 0.000000 0.000000 1.900770 
# 
# From -- ./inp_files/956.got.cif
#   From: 2010.03.12/outbox.cif.g09.slc.cpg/sg170_cif.got.tgz:956.got - 2010.04.02 06:47:37.
