data_PCOD8324276
_publ_section_title
;
Structure prediction by ZEFSAII (Michael W. Deem and Ramdas Pophale) SiO2 
 PCOD8324276
Probable space group: R -3 C 
;
_chemical_formula_sum "Si O2"
_cell_formula_units_Z 210
_cell_length_a 29.512942
_cell_length_b 29.512942
_cell_length_c 16.142787
_cell_angle_alpha 90.000000
_cell_angle_beta 90.000000
_cell_angle_gamma 120.000000
_cell_volume 12176.827585
_symmetry_space_group_name_H-M "R -3 C "
_symmetry_group_IT_number 167
_symmetry_cell_setting 'hexagonal'
loop_
_space_group_symop_operation_xyz
x,y,z
-y,x-y,z
-x+y,-x,z
x-y,-y,1/2-z
-x,-x+y,1/2-z
y,x,1/2-z
-x,-y,-z
y,-x+y,-z
x-y,x,-z
-x+y,y,1/2+z
x,x-y,1/2+z
-y,-x,1/2+z
2/3+x,1/3+y,1/3+z
2/3-y,1/3+x-y,1/3+z
2/3-x+y,1/3-x,1/3+z
2/3+x-y,1/3-y,5/6-z
2/3-x,1/3-x+y,5/6-z
2/3+y,1/3+x,5/6-z
2/3-x,1/3-y,1/3-z
2/3+y,1/3-x+y,1/3-z
2/3+x-y,1/3+x,1/3-z
2/3-x+y,1/3+y,5/6+z
2/3+x,1/3+x-y,5/6+z
2/3-y,1/3-x,5/6+z
1/3+x,2/3+y,2/3+z
1/3-y,2/3+x-y,2/3+z
1/3-x+y,2/3-x,2/3+z
1/3+x-y,2/3-y,1/6-z
1/3-x,2/3-x+y,1/6-z
1/3+y,2/3+x,1/6-z
1/3-x,2/3-y,2/3-z
1/3+y,2/3-x+y,2/3-z
1/3+x-y,2/3+x,2/3-z
1/3-x+y,2/3+y,1/6+z
1/3+x,2/3+x-y,1/6+z
1/3-y,2/3-x,1/6+z
loop_
_atom_site_type_symbol
_atom_site_label
_atom_site_fract_x
_atom_site_fract_y
_atom_site_fract_z
Si Si1 0.083316 0.793260 0.725341
Si Si2 0.068398 0.443412 0.076449
Si Si3 0.700323 0.432035 0.385584
Si Si4 0.666667 0.960967 0.583334
Si Si5 0.000000 0.000000 0.845585
Si Si6 0.210422 0.154844 0.905842
Si Si7 0.368386 0.186612 0.336529
O O1 0.055732 0.778053 0.813350
O O2 0.059633 0.745186 0.660695
O O3 0.075094 0.839163 0.685418
O O4 0.144599 0.811814 0.733605
O O5 0.033439 0.383280 0.107914
O O6 0.129631 0.464640 0.089952
O O7 0.054740 0.478301 0.133402
O O8 0.749309 0.430882 0.343243
O O9 0.678786 0.390027 0.458580
O O10 0.720650 0.488884 0.424019
O O11 0.000000 0.000000 0.750000
O O12 0.248944 0.153689 0.975440
O O13 0.333334 0.178708 0.416667
#
# Coordination Sequence:
#
# PCOD8324276 Si02
#       7
#    36  36  36  18  12  36  36
#     4  10  19  36  53  75 108 134 175 221 255 316
#     4  11  21  32  57  79  99 143 176 213 267 315
#     4   9  18  33  52  75 103 137 177 212 257 321
#     4  10  18  36  52  78 106 134 180 224 254 314
#     4   9  19  32  49  75 109 137 169 228 271 293
#     4  10  18  34  54  77 103 138 174 219 258 316
#     4  10  20  36  53  76 110 137 172 221 268 310
#
# _framework density 17.245871999999999
#
# number of rings (size 3 to 8) (size 9 to 14) (size 15 to 20)
#    0.000    2.057    4.286    4.286    0.000    2.743 
#    0.000    0.000    0.000    0.000    0.000    0.000 
#    0.000    0.000    0.000    0.000    0.000    0.000 
#
# Total GULP energy -867689.422612 kJ/mol
# GULP energy per Si atom -12395.563180 kJ/mol
# Density = 1.720662 g / cm^3
# Si number density = 17.245872 Si / 1000 Ang^3
#
#
#
# Elastic Constant Matrix: (Units=GPa)
#
#
# Indices 1 2 3 4 5 6 
#
# 1 113.3395 26.6915 36.2968 8.4881 0.0002 0.0000
# 2 26.6915 113.3395 36.2968 -8.4881 -0.0002 0.0000
# 3 36.2968 36.2968 84.9799 0.0000 0.0000 0.0001
# 4 8.4881 -8.4881 0.0000 23.1244 0.0000 -0.0001
# 5 0.0002 -0.0002 0.0000 0.0000 23.1244 8.4881
# 6 0.0000 0.0000 0.0001 -0.0001 8.4881 43.3240
#
#
#
# Elastic Compliance Matrix: (Units=1/GPa)
#
#
# Indices 1 2 3 4 5 6 
#
# 1 0.010804 -0.001631 -0.003918 -0.004564 0.000000 0.000000
# 2 -0.001631 0.010804 -0.003918 0.004564 0.000000 0.000000
# 3 -0.003918 -0.003918 0.015114 0.000000 0.000000 0.000000
# 4 -0.004564 0.004564 0.000000 0.046595 0.000000 0.000000
# 5 0.000000 0.000000 0.000000 0.000000 0.046595 -0.009129
# 6 0.000000 0.000000 0.000000 0.000000 -0.009129 0.024870
#
#
# Mechanical properties :
#
#
# Convention : Reuss Voigt Hill
#
# Bulk Modulus (GPa) = 56.21786 56.69212 56.45499
# Shear Modulus (GPa) = 27.83260 32.07283 29.95271
#
# Velocity S-wave (km/s) = 4.02166 4.31715 4.17202
# Velocity P-wave (km/s) = 7.36435 7.60227 7.48426
#
# Compressibility (1/GPa) = 0.01778794
#
# Stress axis : x y z
#
# Youngs Moduli (GPa) = 92.56062 92.56060 66.16328
#
# Poissons Ratio (x) = 0.15101 0.25921
# Poissons Ratio (y) = 0.15101 0.25921
# Poissons Ratio (z) = 0.36262 0.36262
#
# Static dielectric constant tensor:
#      x y z
#    x 3.342080 0.000000 0.000000 
#    y 0.000000 3.342080 0.000000 
#    z 0.000000 0.000000 3.050980 
# 
# 
# High freq. dielectric constant tensor:
#      x y z
#    x 1.670790 0.000000 0.000000 
#    y 0.000000 1.670790 0.000000 
#    z 0.000000 0.000000 1.649380 
# 
# From -- ./inp_files/2469.got.cif
#   From: 2010.03.12/outbox.cif.g09.slc.cpg/sg167_2_cif.got.tgz:2469.got - 2010.04.02 06:42:56.
