data_PCOD8324884
_publ_section_title
;
Structure prediction by ZEFSAII (Michael W. Deem and Ramdas Pophale) SiO2 
 PCOD8324884
Probable space group: P 63
;
_chemical_formula_sum "Si O2"
_cell_formula_units_Z 34
_cell_length_a 13.810184
_cell_length_b 13.810184
_cell_length_c 9.025530
_cell_angle_alpha 90.000000
_cell_angle_beta 90.000000
_cell_angle_gamma 120.000000
_cell_volume 1490.741273
_symmetry_space_group_name_H-M "P 63"
_symmetry_group_IT_number 173
_symmetry_cell_setting 'hexagonal'
loop_
_space_group_symop_operation_xyz
x,y,z
x-y,x,1/2+z
-y,x-y,z
-x,-y,1/2+z
-x+y,-x,z
y,-x+y,1/2+z
loop_
_atom_site_type_symbol
_atom_site_label
_atom_site_fract_x
_atom_site_fract_y
_atom_site_fract_z
Si Si1 0.597322 0.124207 0.294980
Si Si2 0.333334 0.666667 0.264126
Si Si3 0.133750 0.216258 0.737695
Si Si4 0.231071 0.091436 0.889521
Si Si5 0.666667 0.333334 0.108038
Si Si6 0.113720 0.682055 0.225609
Si Si7 0.752024 0.576290 0.416310
O O1 0.637048 0.209740 0.157717
O O2 0.484950 0.109246 0.365047
O O3 0.689171 0.186167 0.426174
O O4 0.570478 0.003180 0.237940
O O5 0.333334 0.666667 0.436505
O O6 0.218085 0.660460 0.213747
O O7 0.220527 0.195464 0.833231
O O8 0.141215 0.204065 0.562204
O O9 0.171595 0.341466 0.785624
O O10 0.007144 0.141712 0.791681
O O11 0.357482 0.117711 0.861045
O O12 0.121462 0.751188 0.075447
#
# Coordination Sequence:
#
# PCOD8324884 Si02
#       7
#     6   2   6   6   2   6   6
#     4  10  24  45  75  98 144 186 242 292 373 422
#     4  12  30  43  68 109 153 181 251 301 363 433
#     4  12  26  47  73 107 142 188 239 296 360 429
#     4  12  27  46  74 105 146 186 239 298 360 433
#     4   9  24  46  71 109 138 193 236 313 357 451
#     4  12  27  45  72 107 146 189 242 299 369 434
#     4  11  24  46  73 101 141 187 239 295 358 430
#
# _framework density 22.807447
#
# number of rings (size 3 to 8) (size 9 to 14) (size 15 to 20)
#    0.000    0.706    1.765    4.941    9.882    0.000 
#    0.000    0.000    0.000    0.000    0.000    0.000 
#    0.000    0.000    0.000    0.000    0.000    0.000 
#
# Total GULP energy -421467.387839 kJ/mol
# GULP energy per Si atom -12396.099642 kJ/mol
# Density = 2.275554 g / cm^3
# Si number density = 22.807447 Si / 1000 Ang^3
#
#
#
# Elastic Constant Matrix: (Units=GPa)
#
#
# Indices 1 2 3 4 5 6 
#
# 1 100.8376 24.8359 26.7752 0.0000 0.0000 -0.0005
# 2 24.8359 100.8376 26.7755 0.0000 0.0000 0.0001
# 3 26.7752 26.7755 146.0016 0.0000 0.0000 0.0000
# 4 0.0000 0.0000 0.0000 7.8731 -0.0004 0.0000
# 5 0.0000 0.0000 0.0000 -0.0004 7.8719 0.0000
# 6 -0.0005 0.0001 0.0000 0.0000 0.0000 38.0009
#
#
#
# Elastic Compliance Matrix: (Units=1/GPa)
#
#
# Indices 1 2 3 4 5 6 
#
# 1 0.010895 -0.002263 -0.001583 0.000000 0.000000 0.000000
# 2 -0.002263 0.010895 -0.001583 0.000000 0.000000 0.000000
# 3 -0.001583 -0.001583 0.007430 0.000000 0.000000 0.000000
# 4 0.000000 0.000000 0.000000 0.127015 0.000007 0.000000
# 5 0.000000 0.000000 0.000000 0.000007 0.127035 0.000000
# 6 0.000000 0.000000 0.000000 0.000000 0.000000 0.026315
#
#
# Mechanical properties :
#
#
# Convention : Reuss Voigt Hill
#
# Bulk Modulus (GPa) = 54.46245 56.05000 55.25622
# Shear Modulus (GPa) = 15.31103 28.70185 22.00644
#
# Velocity S-wave (km/s) = 2.59379 3.55130 3.10962
# Velocity P-wave (km/s) = 5.73597 6.43773 6.09695
#
# Compressibility (1/GPa) = 0.01836127
#
# Stress axis : x y z
#
# Youngs Moduli (GPa) = 91.78847 91.78835 134.59240
#
# Poissons Ratio (x) = 0.20772 0.21305
# Poissons Ratio (y) = 0.20772 0.21306
# Poissons Ratio (z) = 0.14530 0.14530
#
# Static dielectric constant tensor:
#      x y z
#    x 4.853050 0.000030 0.000000 
#    y 0.000030 4.853100 0.000000 
#    z 0.000000 0.000000 4.034880 
# 
# 
# High freq. dielectric constant tensor:
#      x y z
#    x 1.910290 0.000000 0.000000 
#    y 0.000000 1.910290 0.000000 
#    z 0.000000 0.000000 1.901490 
# 
# From -- ./inp_files/574.got.cif
#   From: 2010.03.12/outbox.cif.g09.slc.cpg/sg173_cif.got.tgz:574.got - 2010.04.02 06:54:12.
