data_PCOD8324118
_publ_section_title
;
Structure prediction by ZEFSAII (Michael W. Deem and Ramdas Pophale) SiO2 
 PCOD8324118
Probable space group: R -3 M
;
_chemical_formula_sum "Si O2"
_cell_formula_units_Z 198
_cell_length_a 28.953924
_cell_length_b 28.953924
_cell_length_c 14.295011
_cell_angle_alpha 90.000000
_cell_angle_beta 90.000000
_cell_angle_gamma 120.000000
_cell_volume 10378.389980
_symmetry_space_group_name_H-M "R -3 M"
_symmetry_group_IT_number 166
_symmetry_cell_setting 'hexagonal'
loop_
_space_group_symop_operation_xyz
x,y,z
-y,x-y,z
-x+y,-x,z
x-y,-y,-z
-x,-x+y,-z
y,x,-z
-x,-y,-z
y,-x+y,-z
x-y,x,-z
-x+y,y,z
x,x-y,z
-y,-x,z
2/3+x,1/3+y,1/3+z
2/3-y,1/3+x-y,1/3+z
2/3-x+y,1/3-x,1/3+z
2/3+x-y,1/3-y,1/3-z
2/3-x,1/3-x+y,1/3-z
2/3+y,1/3+x,1/3-z
2/3-x,1/3-y,1/3-z
2/3+y,1/3-x+y,1/3-z
2/3+x-y,1/3+x,1/3-z
2/3-x+y,1/3+y,1/3+z
2/3+x,1/3+x-y,1/3+z
2/3-y,1/3-x,1/3+z
1/3+x,2/3+y,2/3+z
1/3-y,2/3+x-y,2/3+z
1/3-x+y,2/3-x,2/3+z
1/3+x-y,2/3-y,2/3-z
1/3-x,2/3-x+y,2/3-z
1/3+y,2/3+x,2/3-z
1/3-x,2/3-y,2/3-z
1/3+y,2/3-x+y,2/3-z
1/3+x-y,2/3+x,2/3-z
1/3-x+y,2/3+y,2/3+z
1/3+x,2/3+x-y,2/3+z
1/3-y,2/3-x,2/3+z
loop_
_atom_site_type_symbol
_atom_site_label
_atom_site_fract_x
_atom_site_fract_y
_atom_site_fract_z
Si Si1 0.884216 0.550882 0.333334
Si Si2 0.492680 0.608825 0.031612
Si Si3 0.822764 0.075003 0.844691
Si Si4 0.237828 0.298943 0.506296
Si Si5 0.394115 0.145567 0.191185
Si Si6 0.832536 0.558509 0.993681
O O1 0.874536 0.507191 0.253207
O O2 0.889570 0.600912 0.274222
O O3 0.431864 0.568137 0.065495
O O4 0.532151 0.593008 0.084011
O O5 0.510257 0.670734 0.049266
O O6 0.495546 0.603154 0.921880
O O7 0.864894 0.135107 0.875738
O O8 0.763871 0.067849 0.840810
O O9 0.285335 0.285335 0.500000
O O10 0.203385 0.277701 0.600663
O O11 0.412729 0.206365 0.223114
O O12 0.333334 0.117069 0.166667
O O13 0.429082 0.148125 0.101099
O O14 0.771075 0.542149 0.982940
#
# Coordination Sequence:
#
# PCOD8324118 Si02
#       6
#    18  36  36  36  36  36
#     4  12  22  36  54  78 104 140 200 234 272 328
#     4  10  20  36  56  81 109 140 183 224 274 334
#     4  11  22  37  54  78 113 150 187 234 287 328
#     4  10  21  36  57  82 109 146 181 227 276 335
#     4  10  21  37  55  76 108 147 185 230 285 338
#     4  10  19  35  55  79 106 137 179 219 271 328
#
# _framework density 19.078104
#
# number of rings (size 3 to 8) (size 9 to 14) (size 15 to 20)
#    0.000    1.636    1.818    3.818    0.000    3.636 
#    6.545    0.000    0.000    0.364    0.000    0.000 
#    0.000    4.364    0.000   12.364    0.000    0.000 
#
# Total GULP energy -817686.271779 kJ/mol
# GULP energy per Si atom -12389.185936 kJ/mol
# Density = 1.903468 g / cm^3
# Si number density = 19.078104 Si / 1000 Ang^3
#
#
#
# Elastic Constant Matrix: (Units=GPa)
#
#
# Indices 1 2 3 4 5 6 
#
# 1 67.7557 24.6392 8.5870 -1.6177 0.0004 0.0000
# 2 24.6392 67.7557 8.5874 1.6178 -0.0004 0.0000
# 3 8.5870 8.5874 92.9188 -0.0003 -0.0011 -0.0001
# 4 -1.6177 1.6178 -0.0003 20.8766 -0.0001 -0.0005
# 5 0.0004 -0.0004 -0.0011 -0.0001 20.8762 -1.6178
# 6 0.0000 0.0000 -0.0001 -0.0005 -1.6178 21.5583
#
#
#
# Elastic Compliance Matrix: (Units=1/GPa)
#
#
# Indices 1 2 3 4 5 6 
#
# 1 0.017170 -0.006158 -0.001018 0.001808 0.000000 0.000000
# 2 -0.006158 0.017170 -0.001018 -0.001808 0.000000 0.000000
# 3 -0.001018 -0.001018 0.010950 0.000000 0.000001 0.000000
# 4 0.001808 -0.001808 0.000000 0.048181 0.000000 0.000001
# 5 0.000000 0.000000 0.000001 0.000000 0.048182 0.003616
# 6 0.000000 0.000000 0.000000 0.000001 0.003616 0.046657
#
#
# Mechanical properties :
#
#
# Convention : Reuss Voigt Hill
#
# Bulk Modulus (GPa) = 34.59740 34.67304 34.63522
# Shear Modulus (GPa) = 23.32823 25.10331 24.21577
#
# Velocity S-wave (km/s) = 3.50061 3.63136 3.56658
# Velocity P-wave (km/s) = 5.87478 5.98298 5.92913
#
# Compressibility (1/GPa) = 0.02890391
#
# Stress axis : x y z
#
# Youngs Moduli (GPa) = 58.23963 58.23953 91.32261
#
# Poissons Ratio (x) = 0.35865 0.09294
# Poissons Ratio (y) = 0.35865 0.09295
# Poissons Ratio (z) = 0.05927 0.05927
#
# Static dielectric constant tensor:
#      x y z
#    x 3.536650 0.000000 0.000000 
#    y 0.000000 3.536650 0.000000 
#    z 0.000000 0.000000 3.899750 
# 
# 
# High freq. dielectric constant tensor:
#      x y z
#    x 1.717220 0.000000 0.000000 
#    y 0.000000 1.717220 0.000000 
#    z 0.000000 0.000000 1.770550 
# 
# From -- ./inp_files/4317.got.cif
#   From: 2010.03.12/outbox.cif.g09.slc.cpg/sg166_3_cif.got.tgz:4317.got - 2010.04.02 06:38:31.
