data_PCOD8324081
_publ_section_title
;
Structure prediction by ZEFSAII (Michael W. Deem and Ramdas Pophale) SiO2 
 PCOD8324081
Probable space group: R -3 M
;
_chemical_formula_sum "Si O2"
_cell_formula_units_Z 162
_cell_length_a 20.770632
_cell_length_b 20.770632
_cell_length_c 22.707033
_cell_angle_alpha 90.000000
_cell_angle_beta 90.000000
_cell_angle_gamma 120.000000
_cell_volume 8483.800461
_symmetry_space_group_name_H-M "R -3 M"
_symmetry_group_IT_number 166
_symmetry_cell_setting 'hexagonal'
loop_
_space_group_symop_operation_xyz
x,y,z
-y,x-y,z
-x+y,-x,z
x-y,-y,-z
-x,-x+y,-z
y,x,-z
-x,-y,-z
y,-x+y,-z
x-y,x,-z
-x+y,y,z
x,x-y,z
-y,-x,z
2/3+x,1/3+y,1/3+z
2/3-y,1/3+x-y,1/3+z
2/3-x+y,1/3-x,1/3+z
2/3+x-y,1/3-y,1/3-z
2/3-x,1/3-x+y,1/3-z
2/3+y,1/3+x,1/3-z
2/3-x,1/3-y,1/3-z
2/3+y,1/3-x+y,1/3-z
2/3+x-y,1/3+x,1/3-z
2/3-x+y,1/3+y,1/3+z
2/3+x,1/3+x-y,1/3+z
2/3-y,1/3-x,1/3+z
1/3+x,2/3+y,2/3+z
1/3-y,2/3+x-y,2/3+z
1/3-x+y,2/3-x,2/3+z
1/3+x-y,2/3-y,2/3-z
1/3-x,2/3-x+y,2/3-z
1/3+y,2/3+x,2/3-z
1/3-x,2/3-y,2/3-z
1/3+y,2/3-x+y,2/3-z
1/3+x-y,2/3+x,2/3-z
1/3-x+y,2/3+y,2/3+z
1/3+x,2/3+x-y,2/3+z
1/3-y,2/3-x,2/3+z
loop_
_atom_site_type_symbol
_atom_site_label
_atom_site_fract_x
_atom_site_fract_y
_atom_site_fract_z
Si Si1 0.910044 0.529199 0.127829
Si Si2 0.126876 0.733025 0.782505
Si Si3 0.541628 0.934343 0.363993
Si Si4 0.143866 0.000000 0.500000
Si Si5 0.060708 0.794585 0.402764
O O1 0.888833 0.444417 0.126346
O O2 0.897640 0.547276 0.195545
O O3 0.856226 0.540888 0.083050
O O4 0.994427 0.585384 0.107555
O O5 0.216395 0.783606 0.774858
O O6 0.101581 0.768248 0.833334
O O7 0.087712 0.736422 0.721814
O O8 0.463261 0.926521 0.342427
O O9 0.587157 0.918945 0.314122
O O10 0.132899 0.066450 0.477415
O O11 0.196698 0.022012 0.555209
O O12 0.136108 0.863893 0.375178
#
# Coordination Sequence:
#
# PCOD8324081 Si02
#       5
#    36  36  36  18  36
#     4  10  19  32  52  76 106 138 167 211 265 311
#     4   8  16  31  53  75  96 132 173 209 259 311
#     4  10  19  33  54  74  98 137 177 216 261 305
#     4  10  21  36  52  72 103 144 186 220 252 298
#     4  10  21  34  52  77 105 139 176 215 261 307
#
# _framework density 19.095216000000001
#
# number of rings (size 3 to 8) (size 9 to 14) (size 15 to 20)
#    0.000    2.444    0.000    4.111    4.667    1.778 
#    0.000    0.000    0.000   10.667    0.000    0.000 
#    0.000    0.000    0.000    0.000    0.000  337.778 
#
# Total GULP energy -669113.689491 kJ/mol
# GULP energy per Si atom -12390.994250 kJ/mol
# Density = 1.905175 g / cm^3
# Si number density = 19.095216 Si / 1000 Ang^3
#
#
#
# Elastic Constant Matrix: (Units=GPa)
#
#
# Indices 1 2 3 4 5 6 
#
# 1 93.6782 43.5452 44.3901 8.5635 -0.0001 0.0000
# 2 43.5452 93.6782 44.3901 -8.5635 0.0001 0.0000
# 3 44.3901 44.3901 75.2343 0.0000 0.0000 0.0000
# 4 8.5635 -8.5635 0.0000 28.2660 0.0000 0.0001
# 5 -0.0001 0.0001 0.0000 0.0000 28.2660 8.5635
# 6 0.0000 0.0000 0.0000 0.0001 8.5635 25.0665
#
#
#
# Elastic Compliance Matrix: (Units=1/GPa)
#
#
# Indices 1 2 3 4 5 6 
#
# 1 0.017018 -0.005232 -0.006954 -0.006741 0.000000 0.000000
# 2 -0.005232 0.017018 -0.006954 0.006741 0.000000 0.000000
# 3 -0.006954 -0.006954 0.021498 0.000000 0.000000 0.000000
# 4 -0.006741 0.006741 0.000000 0.039463 0.000000 0.000000
# 5 0.000000 0.000000 0.000000 0.000000 0.039463 -0.013482
# 6 0.000000 0.000000 0.000000 0.000000 -0.013482 0.044500
#
#
# Mechanical properties :
#
#
# Convention : Reuss Voigt Hill
#
# Bulk Modulus (GPa) = 57.95744 58.58240 58.26992
# Shear Modulus (GPa) = 22.42233 25.00405 23.71319
#
# Velocity S-wave (km/s) = 3.43043 3.62255 3.52780
# Velocity P-wave (km/s) = 6.79030 6.94570 6.86844
#
# Compressibility (1/GPa) = 0.01725404
#
# Stress axis : x y z
#
# Youngs Moduli (GPa) = 58.76039 58.76039 46.51502
#
# Poissons Ratio (x) = 0.30741 0.32349
# Poissons Ratio (y) = 0.30741 0.32349
# Poissons Ratio (z) = 0.40865 0.40865
#
# Static dielectric constant tensor:
#      x y z
#    x 3.710070 0.000000 0.000000 
#    y 0.000000 3.710070 0.000000 
#    z 0.000000 0.000000 3.532720 
# 
# 
# High freq. dielectric constant tensor:
#      x y z
#    x 1.733570 0.000000 0.000000 
#    y 0.000000 1.733570 0.000000 
#    z 0.000000 0.000000 1.728620 
# 
# From -- ./inp_files/8174.got.cif
#   From: 2010.03.12/outbox.cif.g09.slc.cpg/sg166_5_cif.got.tgz:8174.got - 2010.04.02 06:38:31.
