data_PCOD8324640
_publ_section_title
;
Structure prediction by ZEFSAII (Michael W. Deem and Ramdas Pophale) SiO2 
 PCOD8324640
Probable space group: P 65
;
_chemical_formula_sum "Si O2"
_cell_formula_units_Z 36
_cell_length_a 12.444233
_cell_length_b 12.444233
_cell_length_c 11.451758
_cell_angle_alpha 90.000000
_cell_angle_beta 90.000000
_cell_angle_gamma 120.000000
_cell_volume 1535.815554
_symmetry_space_group_name_H-M "P 65"
_symmetry_group_IT_number 170
_symmetry_cell_setting 'hexagonal'
loop_
_space_group_symop_operation_xyz
x,y,z
x-y,x,5/6+z
-y,x-y,2/3+z
-x,-y,1/2+z
-x+y,-x,1/3+z
y,-x+y,1/6+z
loop_
_atom_site_type_symbol
_atom_site_label
_atom_site_fract_x
_atom_site_fract_y
_atom_site_fract_z
Si Si1 0.103235 0.393239 0.331440
Si Si2 0.133521 0.614102 0.164135
Si Si3 0.462241 0.288129 0.152636
Si Si4 0.614102 0.133521 0.519006
Si Si5 0.393239 0.103235 0.351702
Si Si6 0.825887 0.288129 0.363840
O O1 0.126447 0.507803 0.249637
O O2 0.160405 0.320811 0.258238
O O3 0.175965 0.447982 0.450519
O O4 0.960289 0.298518 0.364173
O O5 0.155502 0.575802 0.032371
O O6 0.243723 0.753074 0.194903
O O7 0.000000 0.606416 0.174904
O O8 0.447982 0.175966 0.232623
O O9 0.338229 0.298518 0.152302
O O10 0.507803 0.126447 0.433505
O O11 0.753074 0.243723 0.488239
O O12 0.575802 0.155502 0.650770
#
# Coordination Sequence:
#
# PCOD8324640 Si02
#       6
#     6   6   6   6   6   6
#     4   9  18  35  58  82 114 159 201 238 289 362
#     4   9  19  36  57  85 118 152 191 238 299 361
#     4  10  19  37  60  85 119 155 198 246 295 357
#     4   9  19  36  57  85 118 152 191 238 299 361
#     4   9  18  35  58  82 114 159 201 238 289 362
#     4  10  19  37  60  85 119 155 198 246 295 357
#
# _framework density 23.440313
#
# number of rings (size 3 to 8) (size 9 to 14) (size 15 to 20)
#    0.000    2.667    0.000    4.000    0.000    0.000 
#    0.000   48.333    0.000    8.000    0.000    0.000 
#    0.000    0.000    0.000    0.000    0.000    0.000 
#
# Total GULP energy -446137.043624 kJ/mol
# GULP energy per Si atom -12392.695656 kJ/mol
# Density = 2.338696 g / cm^3
# Si number density = 23.440313 Si / 1000 Ang^3
#
#
#
# Elastic Constant Matrix: (Units=GPa)
#
#
# Indices 1 2 3 4 5 6 
#
# 1 140.6160 71.4409 30.5739 0.0000 0.0000 0.0000
# 2 71.4409 140.6160 30.5739 0.0000 0.0000 0.0000
# 3 30.5739 30.5739 83.9385 0.0000 0.0000 0.0000
# 4 0.0000 0.0000 0.0000 30.0179 0.0000 0.0000
# 5 0.0000 0.0000 0.0000 0.0000 30.0179 0.0000
# 6 0.0000 0.0000 0.0000 0.0000 0.0000 34.5876
#
#
#
# Elastic Compliance Matrix: (Units=1/GPa)
#
#
# Indices 1 2 3 4 5 6 
#
# 1 0.009863 -0.004593 -0.001919 0.000000 0.000000 0.000000
# 2 -0.004593 0.009863 -0.001919 0.000000 0.000000 0.000000
# 3 -0.001919 -0.001919 0.013312 0.000000 0.000000 0.000000
# 4 0.000000 0.000000 0.000000 0.033313 0.000000 0.000000
# 5 0.000000 0.000000 0.000000 0.000000 0.033313 0.000000
# 6 0.000000 0.000000 0.000000 0.000000 0.000000 0.028912
#
#
# Mechanical properties :
#
#
# Convention : Reuss Voigt Hill
#
# Bulk Modulus (GPa) = 61.83171 70.03866 65.93519
# Shear Modulus (GPa) = 33.14974 34.43012 33.78993
#
# Velocity S-wave (km/s) = 3.76469 3.83671 3.80087
# Velocity P-wave (km/s) = 6.73297 7.04070 6.88855
#
# Compressibility (1/GPa) = 0.01617293
#
# Stress axis : x y z
#
# Youngs Moduli (GPa) = 101.39312 101.39312 75.12234
#
# Poissons Ratio (x) = 0.46575 0.14418
# Poissons Ratio (y) = 0.46575 0.14418
# Poissons Ratio (z) = 0.19460 0.19460
#
# Static dielectric constant tensor:
#      x y z
#    x 4.254170 0.000000 0.000000 
#    y 0.000000 4.254170 0.000000 
#    z 0.000000 0.000000 4.913890 
# 
# 
# High freq. dielectric constant tensor:
#      x y z
#    x 1.908930 0.000000 0.000000 
#    y 0.000000 1.908930 0.000000 
#    z 0.000000 0.000000 1.975580 
# 
# From -- ./inp_files/1201.got.cif
#   From: 2010.03.12/outbox.cif.g09.slc.cpg/sg170_cif.got.tgz:1201.got - 2010.04.02 06:47:37.
