data_PCOD8324064
_publ_section_title
;
Structure prediction by ZEFSAII (Michael W. Deem and Ramdas Pophale) SiO2 
 PCOD8324064
Probable space group: R -3 M
;
_chemical_formula_sum "Si O2"
_cell_formula_units_Z 144
_cell_length_a 29.478502
_cell_length_b 29.478502
_cell_length_c 10.102745
_cell_angle_alpha 90.000000
_cell_angle_beta 90.000000
_cell_angle_gamma 120.000000
_cell_volume 7602.927403
_symmetry_space_group_name_H-M "R -3 M"
_symmetry_group_IT_number 166
_symmetry_cell_setting 'hexagonal'
loop_
_space_group_symop_operation_xyz
x,y,z
-y,x-y,z
-x+y,-x,z
x-y,-y,-z
-x,-x+y,-z
y,x,-z
-x,-y,-z
y,-x+y,-z
x-y,x,-z
-x+y,y,z
x,x-y,z
-y,-x,z
2/3+x,1/3+y,1/3+z
2/3-y,1/3+x-y,1/3+z
2/3-x+y,1/3-x,1/3+z
2/3+x-y,1/3-y,1/3-z
2/3-x,1/3-x+y,1/3-z
2/3+y,1/3+x,1/3-z
2/3-x,1/3-y,1/3-z
2/3+y,1/3-x+y,1/3-z
2/3+x-y,1/3+x,1/3-z
2/3-x+y,1/3+y,1/3+z
2/3+x,1/3+x-y,1/3+z
2/3-y,1/3-x,1/3+z
1/3+x,2/3+y,2/3+z
1/3-y,2/3+x-y,2/3+z
1/3-x+y,2/3-x,2/3+z
1/3+x-y,2/3-y,2/3-z
1/3-x,2/3-x+y,2/3-z
1/3+y,2/3+x,2/3-z
1/3-x,2/3-y,2/3-z
1/3+y,2/3-x+y,2/3-z
1/3+x-y,2/3+x,2/3-z
1/3-x+y,2/3+y,2/3+z
1/3+x,2/3+x-y,2/3+z
1/3-y,2/3-x,2/3+z
loop_
_atom_site_type_symbol
_atom_site_label
_atom_site_fract_x
_atom_site_fract_y
_atom_site_fract_z
Si Si1 0.842432 0.474132 0.203784
Si Si2 0.757904 0.034563 0.872602
Si Si3 0.389997 0.091236 0.960716
Si Si4 0.824219 0.859197 0.629525
O O1 0.834492 0.417246 0.224698
O O2 0.823792 0.490459 0.333334
O O3 0.903834 0.514740 0.168792
O O4 0.806548 0.473230 0.083328
O O5 0.748529 0.081858 0.916651
O O6 0.720576 0.999994 0.750000
O O7 0.746786 0.000000 0.000000
O O8 0.413448 0.080115 0.833334
O O9 0.429483 0.151926 0.997859
O O10 0.842853 0.842853 0.500000
O O11 0.832158 0.916079 0.608540
#
# Coordination Sequence:
#
# PCOD8324064 Si02
#       4
#    36  36  36  36
#     4  10  21  37  57  79 104 137 173 214 266 316
#     4  10  19  31  50  77 109 144 178 210 247 294
#     4  10  19  31  50  77 109 144 178 210 247 294
#     4  10  21  37  57  79 104 137 173 214 266 316
#
# _framework density 18.940073999999999
#
# number of rings (size 3 to 8) (size 9 to 14) (size 15 to 20)
#    0.000    2.000    0.000    4.500    0.000    1.000 
#    0.000    0.000    0.000   28.000    0.000    0.000 
#    0.000    0.000    0.000    0.000    0.000    0.000 
#
# Total GULP energy -594981.676365 kJ/mol
# GULP energy per Si atom -12395.451591 kJ/mol
# Density = 1.889697 g / cm^3
# Si number density = 18.940074 Si / 1000 Ang^3
#
#
#
# Elastic Constant Matrix: (Units=GPa)
#
#
# Indices 1 2 3 4 5 6 
#
# 1 113.3934 56.1885 29.5394 -0.4433 0.0222 0.0091
# 2 56.1885 113.3540 29.4139 0.4538 -0.0349 -0.0278
# 3 29.5394 29.4139 125.1880 0.0562 -0.0160 -0.0565
# 4 -0.4433 0.4538 0.0562 30.8139 0.0167 0.0185
# 5 0.0222 -0.0349 -0.0160 0.0167 30.8050 -0.4694
# 6 0.0091 -0.0278 -0.0565 0.0185 -0.4694 28.6111
#
#
#
# Elastic Compliance Matrix: (Units=1/GPa)
#
#
# Indices 1 2 3 4 5 6 
#
# 1 0.011958 -0.005534 -0.001522 0.000256 -0.000016 -0.000013
# 2 -0.005534 0.011956 -0.001503 -0.000253 0.000017 0.000011
# 3 -0.001522 -0.001503 0.008700 -0.000016 0.000004 0.000016
# 4 0.000256 -0.000253 -0.000016 0.032460 -0.000018 -0.000022
# 5 -0.000016 0.000017 0.000004 -0.000018 0.032470 0.000533
# 6 -0.000013 0.000011 0.000016 -0.000022 0.000533 0.034960
#
#
# Mechanical properties :
#
#
# Convention : Reuss Voigt Hill
#
# Bulk Modulus (GPa) = 64.52763 64.69100 64.60931
# Shear Modulus (GPa) = 32.30205 33.83225 33.06715
#
# Velocity S-wave (km/s) = 4.13423 4.23102 4.18291
# Velocity P-wave (km/s) = 7.54536 7.62224 7.58390
#
# Compressibility (1/GPa) = 0.01549724
#
# Stress axis : x y z
#
# Youngs Moduli (GPa) = 83.62350 83.63935 114.93920
#
# Poissons Ratio (x) = 0.46285 0.17489
# Poissons Ratio (y) = 0.46276 0.17279
# Poissons Ratio (z) = 0.12724 0.12573
#
# Static dielectric constant tensor:
#      x y z
#    x 3.311510 0.000320 0.000150 
#    y 0.000320 3.310280 -0.000020 
#    z 0.000150 -0.000020 3.636900 
# 
# 
# High freq. dielectric constant tensor:
#      x y z
#    x 1.715750 0.000000 -0.000010 
#    y 0.000000 1.715750 0.000000 
#    z -0.000010 0.000000 1.762230 
# 
# From -- ./inp_files/1757.got.cif
#   From: 2010.03.12/outbox.cif.g09.slc.cpg/sg166_1_cif.got.tgz:1757.got - 2010.04.02 06:38:31.
