data_PCOD8324905
_publ_section_title
;
Structure prediction by ZEFSAII (Michael W. Deem and Ramdas Pophale) SiO2 
 PCOD8324905
Probable space group: P -6
;
_chemical_formula_sum "Si O2"
_cell_formula_units_Z 38
_cell_length_a 16.113728
_cell_length_b 16.113728
_cell_length_c 9.962212
_cell_angle_alpha 90.000000
_cell_angle_beta 90.000000
_cell_angle_gamma 120.000000
_cell_volume 2240.157059
_symmetry_space_group_name_H-M "P -6"
_symmetry_group_IT_number 174
_symmetry_cell_setting 'hexagonal'
loop_
_space_group_symop_operation_xyz
x,y,z
-x+y,-x,-z
-y,x-y,z
x,y,-z
-x+y,-x,z
-y,x-y,-z
loop_
_atom_site_type_symbol
_atom_site_label
_atom_site_fract_x
_atom_site_fract_y
_atom_site_fract_z
Si Si1 0.244848 0.300628 0.349113
Si Si2 0.000000 0.000000 0.843419
Si Si3 0.897765 0.109409 0.264476
Si Si4 0.607735 0.578951 0.840808
Si Si5 0.408296 0.202083 0.148434
Si Si6 0.057277 0.307756 0.649805
Si Si7 0.968480 0.582353 0.840665
O O1 0.277884 0.340380 0.500000
O O2 0.220710 0.190781 0.349683
O O3 0.150533 0.303291 0.306438
O O4 0.325591 0.369551 0.243075
O O5 0.932775 0.892851 0.795193
O O6 0.000000 0.000000 0.000000
O O7 0.855077 0.147063 0.147633
O O8 0.966463 0.200588 0.355279
O O9 0.688654 0.553679 0.786615
O O10 0.622126 0.670442 0.757226
O O11 0.503788 0.491107 0.808561
O O12 0.621228 0.603535 0.000000
O O13 0.445887 0.307247 0.213339
O O14 0.449094 0.222277 0.000000
O O15 0.068605 0.350734 0.500000
O O16 0.978971 0.606749 0.000000
#
# Coordination Sequence:
#
# PCOD8324905 Si02
#       7
#     6   2   6   6   6   6   6
#     4  10  20  33  50  73 100 134 170 204 246 293
#     4  12  21  27  43  74 109 144 181 212 244 285
#     4  10  18  32  44  70 101 140 173 206 235 288
#     4   9  18  33  52  74  99 128 163 204 251 298
#     4   8  15  29  47  68  99 128 159 200 242 289
#     4  10  20  33  50  73 100 134 170 204 246 293
#     4   9  18  33  52  74  99 128 163 204 251 298
#
# _framework density 16.963096
#
# number of rings (size 3 to 8) (size 9 to 14) (size 15 to 20)
#    0.000    2.526    1.579    0.947    0.000    2.526 
#    0.947    0.000    0.000    0.632    0.000    0.000 
#    0.000    0.000    0.000    0.000    0.000    0.000 
#
# Total GULP energy -470797.669904 kJ/mol
# GULP energy per Si atom -12389.412366 kJ/mol
# Density = 1.692449 g / cm^3
# Si number density = 16.963096 Si / 1000 Ang^3
#
#
#
# Elastic Constant Matrix: (Units=GPa)
#
#
# Indices 1 2 3 4 5 6 
#
# 1 106.2472 46.7929 42.6681 0.0000 0.0000 0.0000
# 2 46.7929 106.2472 42.6681 0.0000 0.0000 0.0000
# 3 42.6681 42.6681 73.2919 0.0000 0.0000 0.0000
# 4 0.0000 0.0000 0.0000 21.7468 0.0000 0.0000
# 5 0.0000 0.0000 0.0000 0.0000 21.7468 0.0000
# 6 0.0000 0.0000 0.0000 0.0000 0.0000 29.7272
#
#
#
# Elastic Compliance Matrix: (Units=1/GPa)
#
#
# Indices 1 2 3 4 5 6 
#
# 1 0.013247 -0.003572 -0.005632 0.000000 0.000000 0.000000
# 2 -0.003572 0.013247 -0.005632 0.000000 0.000000 0.000000
# 3 -0.005632 -0.005632 0.020202 0.000000 0.000000 0.000000
# 4 0.000000 0.000000 0.000000 0.045984 0.000000 0.000000
# 5 0.000000 0.000000 0.000000 0.000000 0.045984 0.000000
# 6 0.000000 0.000000 0.000000 0.000000 0.000000 0.033639
#
#
# Mechanical properties :
#
#
# Convention : Reuss Voigt Hill
#
# Bulk Modulus (GPa) = 58.74663 61.11606 59.93134
# Shear Modulus (GPa) = 24.07873 24.88794 24.48333
#
# Velocity S-wave (km/s) = 3.77168 3.83454 3.80324
# Velocity P-wave (km/s) = 7.32630 7.46404 7.39549
#
# Compressibility (1/GPa) = 0.01702225
#
# Stress axis : x y z
#
# Youngs Moduli (GPa) = 75.48722 75.48722 49.49979
#
# Poissons Ratio (x) = 0.26967 0.27880
# Poissons Ratio (y) = 0.26967 0.27880
# Poissons Ratio (z) = 0.42518 0.42518
#
# Static dielectric constant tensor:
#      x y z
#    x 3.118340 0.000000 0.000000 
#    y 0.000000 3.118340 0.000000 
#    z 0.000000 0.000000 3.041610 
# 
# 
# High freq. dielectric constant tensor:
#      x y z
#    x 1.643990 0.000000 0.000000 
#    y 0.000000 1.643990 0.000000 
#    z 0.000000 0.000000 1.641950 
# 
# From -- ./inp_files/728.got.cif
#   From: 2010.03.12/outbox.cif.g09.slc.cpg/sg174_cif.got.tgz:728.got - 2010.04.02 06:54:58.
