data_PCOD8324024
_publ_section_title
;
Structure prediction by ZEFSAII (Michael W. Deem and Ramdas Pophale) SiO2 
 PCOD8324024
Probable space group: R -3 M
;
_chemical_formula_sum "Si O2"
_cell_formula_units_Z 198
_cell_length_a 30.899415
_cell_length_b 30.899415
_cell_length_c 13.694456
_cell_angle_alpha 90.000000
_cell_angle_beta 90.000000
_cell_angle_gamma 120.000000
_cell_volume 11323.376068
_symmetry_space_group_name_H-M "R -3 M"
_symmetry_group_IT_number 166
_symmetry_cell_setting 'hexagonal'
loop_
_space_group_symop_operation_xyz
x,y,z
-y,x-y,z
-x+y,-x,z
x-y,-y,-z
-x,-x+y,-z
y,x,-z
-x,-y,-z
y,-x+y,-z
x-y,x,-z
-x+y,y,z
x,x-y,z
-y,-x,z
2/3+x,1/3+y,1/3+z
2/3-y,1/3+x-y,1/3+z
2/3-x+y,1/3-x,1/3+z
2/3+x-y,1/3-y,1/3-z
2/3-x,1/3-x+y,1/3-z
2/3+y,1/3+x,1/3-z
2/3-x,1/3-y,1/3-z
2/3+y,1/3-x+y,1/3-z
2/3+x-y,1/3+x,1/3-z
2/3-x+y,1/3+y,1/3+z
2/3+x,1/3+x-y,1/3+z
2/3-y,1/3-x,1/3+z
1/3+x,2/3+y,2/3+z
1/3-y,2/3+x-y,2/3+z
1/3-x+y,2/3-x,2/3+z
1/3+x-y,2/3-y,2/3-z
1/3-x,2/3-x+y,2/3-z
1/3+y,2/3+x,2/3-z
1/3-x,2/3-y,2/3-z
1/3+y,2/3-x+y,2/3-z
1/3+x-y,2/3+x,2/3-z
1/3-x+y,2/3+y,2/3+z
1/3+x,2/3+x-y,2/3+z
1/3-y,2/3-x,2/3+z
loop_
_atom_site_type_symbol
_atom_site_label
_atom_site_fract_x
_atom_site_fract_y
_atom_site_fract_z
Si Si1 0.285429 0.814922 0.978994
Si Si2 0.333334 0.877788 0.166667
Si Si3 0.856719 0.243218 0.710629
Si Si4 0.849278 0.795276 0.999606
Si Si5 0.243923 0.387970 0.828581
Si Si6 0.863595 0.479079 0.116039
O O1 0.242836 0.757165 0.988190
O O2 0.263208 0.848184 0.933160
O O3 0.327658 0.819569 0.902489
O O4 0.310266 0.835307 0.083748
O O5 0.286265 0.882785 0.205962
O O6 0.807149 0.192852 0.750176
O O7 0.896874 0.230207 0.666667
O O8 0.843075 0.268384 0.624484
O O9 0.904675 0.809349 0.034660
O O10 0.838651 0.776311 0.888197
O O11 0.845438 0.845438 0.000000
O O12 0.807518 0.753924 0.072246
O O13 0.190194 0.380387 0.801762
O O14 0.239288 0.333334 0.833334
O O15 0.839220 0.419610 0.100637
#
# Coordination Sequence:
#
# PCOD8324024 Si02
#       6
#    36  18  36  36  36  36
#     4  10  19  33  54  78 105 135 170 217 265 307
#     4  10  20  32  52  76 103 128 175 218 256 302
#     4   9  18  33  52  71  96 132 171 210 254 305
#     4  10  18  30  50  76 104 134 169 212 259 310
#     4   9  18  31  49  75 102 129 168 213 259 307
#     4   9  18  31  51  78 103 131 171 213 254 308
#
# _framework density 17.485952000000001
#
# number of rings (size 3 to 8) (size 9 to 14) (size 15 to 20)
#    0.000    2.545    1.818    0.545    0.000    2.182 
#    0.000    5.455    8.000    1.636    0.000    0.636 
#    0.000    0.000    0.000    0.000    0.000    0.000 
#
# Total GULP energy -817724.772365 kJ/mol
# GULP energy per Si atom -12389.769278 kJ/mol
# Density = 1.744615 g / cm^3
# Si number density = 17.485952 Si / 1000 Ang^3
#
#
#
# Elastic Constant Matrix: (Units=GPa)
#
#
# Indices 1 2 3 4 5 6 
#
# 1 96.2211 57.9080 35.8424 0.7160 -0.0061 0.0028
# 2 57.9080 96.2222 35.8467 -0.7164 -0.0043 0.0017
# 3 35.8424 35.8467 94.6205 -0.0014 -0.0238 0.0104
# 4 0.7160 -0.7164 -0.0014 22.6485 -0.0018 0.0000
# 5 -0.0061 -0.0043 -0.0238 -0.0018 22.6277 0.7265
# 6 0.0028 0.0017 0.0104 0.0000 0.7265 19.1515
#
#
#
# Elastic Compliance Matrix: (Units=1/GPa)
#
#
# Indices 1 2 3 4 5 6 
#
# 1 0.017003 -0.009128 -0.002983 -0.000826 0.000000 0.000000
# 2 -0.009128 0.017004 -0.002984 0.000826 -0.000002 0.000002
# 3 -0.002983 -0.002984 0.012829 0.000001 0.000012 -0.000007
# 4 -0.000826 0.000826 0.000001 0.044205 0.000003 0.000000
# 5 0.000000 -0.000002 0.000012 0.000003 0.044248 -0.001679
# 6 0.000000 0.000002 -0.000007 0.000000 -0.001679 0.052279
#
#
# Mechanical properties :
#
#
# Convention : Reuss Voigt Hill
#
# Bulk Modulus (GPa) = 60.07307 60.69534 60.38421
# Shear Modulus (GPa) = 22.39077 23.38331 22.88704
#
# Velocity S-wave (km/s) = 3.58229 3.66083 3.62177
# Velocity P-wave (km/s) = 7.17914 7.25639 7.21787
#
# Compressibility (1/GPa) = 0.01664639
#
# Stress axis : x y z
#
# Youngs Moduli (GPa) = 58.81221 58.81067 77.94838
#
# Poissons Ratio (x) = 0.53681 0.23251
# Poissons Ratio (y) = 0.53682 0.23261
# Poissons Ratio (z) = 0.17543 0.17550
#
# Static dielectric constant tensor:
#      x y z
#    x 3.329970 0.000000 0.000000 
#    y 0.000000 3.329970 0.000000 
#    z 0.000000 0.000000 3.486260 
# 
# 
# High freq. dielectric constant tensor:
#      x y z
#    x 1.655450 0.000000 0.000000 
#    y 0.000000 1.655450 0.000000 
#    z 0.000000 0.000000 1.691480 
# 
# From -- ./inp_files/4319.got.cif
#   From: 2010.03.12/outbox.cif.g09.slc.cpg/sg166_3_cif.got.tgz:4319.got - 2010.04.02 06:38:31.
