data_PCOD8324258
_publ_section_title
;
Structure prediction by ZEFSAII (Michael W. Deem and Ramdas Pophale) SiO2 
 PCOD8324258
Probable space group: R -3 M
;
_chemical_formula_sum "Si O2"
_cell_formula_units_Z 180
_cell_length_a 20.719032
_cell_length_b 20.719032
_cell_length_c 33.177192
_cell_angle_alpha 90.000000
_cell_angle_beta 90.000000
_cell_angle_gamma 120.000000
_cell_volume 12334.148705
_symmetry_space_group_name_H-M "R -3 M"
_symmetry_group_IT_number 166
_symmetry_cell_setting 'hexagonal'
loop_
_space_group_symop_operation_xyz
x,y,z
-y,x-y,z
-x+y,-x,z
x-y,-y,-z
-x,-x+y,-z
y,x,-z
-x,-y,-z
y,-x+y,-z
x-y,x,-z
-x+y,y,z
x,x-y,z
-y,-x,z
2/3+x,1/3+y,1/3+z
2/3-y,1/3+x-y,1/3+z
2/3-x+y,1/3-x,1/3+z
2/3+x-y,1/3-y,1/3-z
2/3-x,1/3-x+y,1/3-z
2/3+y,1/3+x,1/3-z
2/3-x,1/3-y,1/3-z
2/3+y,1/3-x+y,1/3-z
2/3+x-y,1/3+x,1/3-z
2/3-x+y,1/3+y,1/3+z
2/3+x,1/3+x-y,1/3+z
2/3-y,1/3-x,1/3+z
1/3+x,2/3+y,2/3+z
1/3-y,2/3+x-y,2/3+z
1/3-x+y,2/3-x,2/3+z
1/3+x-y,2/3-y,2/3-z
1/3-x,2/3-x+y,2/3-z
1/3+y,2/3+x,2/3-z
1/3-x,2/3-y,2/3-z
1/3+y,2/3-x+y,2/3-z
1/3+x-y,2/3+x,2/3-z
1/3-x+y,2/3+y,2/3+z
1/3+x,2/3+x-y,2/3+z
1/3-y,2/3-x,2/3+z
loop_
_atom_site_type_symbol
_atom_site_label
_atom_site_fract_x
_atom_site_fract_y
_atom_site_fract_z
Si Si1 0.439648 0.560353 0.474116
Si Si2 0.045429 0.327460 0.937723
Si Si3 0.285434 0.142717 0.111177
Si Si4 0.225338 0.921520 0.640194
Si Si5 0.857052 0.000385 0.664829
Si Si6 0.174751 0.200934 0.246407
O O1 0.481962 0.518039 0.459945
O O2 0.442681 0.557320 0.522654
O O3 0.354872 0.518386 0.457561
O O4 0.072741 0.277963 0.913724
O O5 0.065111 0.406355 0.916901
O O6 0.956190 0.279533 0.940366
O O7 0.080450 0.337149 0.981506
O O8 0.161430 0.838571 0.629205
O O9 0.195081 0.979372 0.638645
O O10 0.885483 0.942742 0.655942
O O11 0.843474 0.997832 0.712601
O O12 0.918188 0.081813 0.650068
O O13 0.114413 0.228825 0.239414
#
# Coordination Sequence:
#
# PCOD8324258 Si02
#       6
#    18  36  18  36  36  36
#     4   9  16  28  42  60  78 105 140 171 199 238
#     4   9  16  27  42  59  79 104 134 170 208 245
#     4   9  16  28  46  58  76 102 137 174 209 244
#     4   9  16  26  40  59  83 104 134 174 206 239
#     4   9  15  23  36  56  84 115 142 163 187 233
#     4   9  16  26  39  58  83 109 136 164 197 242
#
# _framework density 14.593631
#
# number of rings (size 3 to 8) (size 9 to 14) (size 15 to 20)
#    0.000    3.000    2.000    0.200    0.000    0.800 
#    0.600    5.000    0.000    0.000    0.000    0.000 
#    1.000    1.800    0.000    0.000    0.000    0.000 
#
# Total GULP energy -743463.822330 kJ/mol
# GULP energy per Si atom -12391.063705 kJ/mol
# Density = 1.456041 g / cm^3
# Si number density = 14.593631 Si / 1000 Ang^3
#
#
#
# Elastic Constant Matrix: (Units=GPa)
#
#
# Indices 1 2 3 4 5 6 
#
# 1 93.3430 64.8597 34.9903 -2.4215 0.0000 0.0000
# 2 64.8597 93.3430 34.9903 2.4215 0.0000 0.0000
# 3 34.9903 34.9903 43.9337 0.0000 0.0000 0.0000
# 4 -2.4215 2.4215 0.0000 16.0144 0.0000 0.0000
# 5 0.0000 0.0000 0.0000 0.0000 16.0144 -2.4215
# 6 0.0000 0.0000 0.0000 0.0000 -2.4215 14.2417
#
#
#
# Elastic Compliance Matrix: (Units=1/GPa)
#
#
# Indices 1 2 3 4 5 6 
#
# 1 0.022897 -0.013138 -0.007773 0.005449 0.000000 0.000000
# 2 -0.013138 0.022897 -0.007773 -0.005449 0.000000 0.000000
# 3 -0.007773 -0.007773 0.035142 0.000000 0.000000 0.000000
# 4 0.005449 -0.005449 0.000000 0.064091 0.000000 0.000000
# 5 0.000000 0.000000 0.000000 0.000000 0.064091 0.010897
# 6 0.000000 0.000000 0.000000 0.000000 0.010897 0.072069
#
#
# Mechanical properties :
#
#
# Convention : Reuss Voigt Hill
#
# Bulk Modulus (GPa) = 42.42607 55.58891 49.00749
# Shear Modulus (GPa) = 14.43372 15.63939 15.03655
#
# Velocity S-wave (km/s) = 3.14832 3.27717 3.21339
# Velocity P-wave (km/s) = 6.50773 7.24525 6.88637
#
# Compressibility (1/GPa) = 0.02357041
#
# Stress axis : x y z
#
# Youngs Moduli (GPa) = 43.67396 43.67396 28.45578
#
# Poissons Ratio (x) = 0.57378 0.22117
# Poissons Ratio (y) = 0.57378 0.22117
# Poissons Ratio (z) = 0.33946 0.33946
#
# Static dielectric constant tensor:
#      x y z
#    x 2.862860 0.000000 0.000000 
#    y 0.000000 2.862860 0.000000 
#    z 0.000000 0.000000 2.666340 
# 
# 
# High freq. dielectric constant tensor:
#      x y z
#    x 1.551460 0.000000 0.000000 
#    y 0.000000 1.551460 0.000000 
#    z 0.000000 0.000000 1.516540 
# 
# From -- ./inp_files/10579.got.cif
#   From: 2010.03.12/outbox.cif.g09.slc.cpg/sg166_6_cif.got.tgz:10579.got - 2010.04.02 06:38:31.
