data_PCOD8324714
_publ_section_title
;
Structure prediction by ZEFSAII (Michael W. Deem and Ramdas Pophale) SiO2 
 PCOD8324714
Probable space group: P 65
;
_chemical_formula_sum "Si O2"
_cell_formula_units_Z 30
_cell_length_a 17.156065
_cell_length_b 17.156065
_cell_length_c 5.083633
_cell_angle_alpha 90.000000
_cell_angle_beta 90.000000
_cell_angle_gamma 120.000000
_cell_volume 1295.806601
_symmetry_space_group_name_H-M "P 65"
_symmetry_group_IT_number 170
_symmetry_cell_setting 'hexagonal'
loop_
_space_group_symop_operation_xyz
x,y,z
x-y,x,5/6+z
-y,x-y,2/3+z
-x,-y,1/2+z
-x+y,-x,1/3+z
y,-x+y,1/6+z
loop_
_atom_site_type_symbol
_atom_site_label
_atom_site_fract_x
_atom_site_fract_y
_atom_site_fract_z
Si Si1 0.761639 0.151866 0.519330
Si Si2 0.461736 0.057659 0.414158
Si Si3 0.394217 0.865803 0.306635
Si Si4 0.742882 0.419820 0.926773
Si Si5 0.695554 0.644071 0.243947
O O1 0.705032 0.146323 0.779258
O O2 0.737909 0.210794 0.315735
O O3 0.867835 0.199948 0.590157
O O4 0.730095 0.048888 0.434503
O O5 0.564207 0.129083 0.508560
O O6 0.394440 0.061544 0.621415
O O7 0.457855 0.961855 0.442340
O O8 0.433739 0.074419 0.126550
O O9 0.389430 0.790676 0.507314
O O10 0.638303 0.381169 0.846228
#
# Coordination Sequence:
#
# PCOD8324714 Si02
#       5
#     6   6   6   6   6
#     4  11  27  46  69 100 140 186 240 294 359 413
#     4  11  25  42  68  98 135 182 233 291 341 417
#     4  11  25  43  64  98 138 184 243 282 348 399
#     4  12  28  43  61  98 145 195 237 294 337 412
#     4  11  27  46  72 102 138 183 237 299 355 421
#
# _framework density 23.151602
#
# number of rings (size 3 to 8) (size 9 to 14) (size 15 to 20)
#    0.000    0.800    2.000    3.600   14.000    0.000 
#    0.000    0.000    0.000    0.000    0.000    5.600 
#    0.000    0.000    0.000    0.000    0.000    0.000 
#
# Total GULP energy -371683.779751 kJ/mol
# GULP energy per Si atom -12389.459325 kJ/mol
# Density = 2.309891 g / cm^3
# Si number density = 23.151602 Si / 1000 Ang^3
#
#
#
# Elastic Constant Matrix: (Units=GPa)
#
#
# Indices 1 2 3 4 5 6 
#
# 1 137.5651 86.3939 24.1560 0.0000 0.0000 0.0000
# 2 86.3939 137.5651 24.1560 0.0000 0.0000 0.0000
# 3 24.1560 24.1560 87.8011 0.0000 0.0000 0.0000
# 4 0.0000 0.0000 0.0000 23.8968 0.0000 0.0000
# 5 0.0000 0.0000 0.0000 0.0000 23.8968 0.0000
# 6 0.0000 0.0000 0.0000 0.0000 0.0000 25.5856
#
#
#
# Elastic Compliance Matrix: (Units=1/GPa)
#
#
# Indices 1 2 3 4 5 6 
#
# 1 0.012145 -0.007398 -0.001306 0.000000 0.000000 0.000000
# 2 -0.007398 0.012145 -0.001306 0.000000 0.000000 0.000000
# 3 -0.001306 -0.001306 0.012108 0.000000 0.000000 0.000000
# 4 0.000000 0.000000 0.000000 0.041847 0.000000 0.000000
# 5 0.000000 0.000000 0.000000 0.000000 0.041847 0.000000
# 6 0.000000 0.000000 0.000000 0.000000 0.000000 0.039084
#
#
# Mechanical properties :
#
#
# Convention : Reuss Voigt Hill
#
# Bulk Modulus (GPa) = 61.05831 70.26038 65.65934
# Shear Modulus (GPa) = 27.07776 29.89085 28.48431
#
# Velocity S-wave (km/s) = 3.42363 3.59708 3.51142
# Velocity P-wave (km/s) = 6.48528 6.90404 6.69793
#
# Compressibility (1/GPa) = 0.01637779
#
# Stress axis : x y z
#
# Youngs Moduli (GPa) = 82.34161 82.34161 82.59025
#
# Poissons Ratio (x) = 0.60914 0.10786
# Poissons Ratio (y) = 0.60914 0.10786
# Poissons Ratio (z) = 0.10753 0.10753
#
# Static dielectric constant tensor:
#      x y z
#    x 4.308390 0.000000 0.000000 
#    y 0.000000 4.308390 0.000000 
#    z 0.000000 0.000000 4.318140 
# 
# 
# High freq. dielectric constant tensor:
#      x y z
#    x 1.898590 0.000000 0.000000 
#    y 0.000000 1.898590 0.000000 
#    z 0.000000 0.000000 1.939940 
# 
# From -- ./inp_files/155.got.cif
#   From: 2010.03.12/outbox.cif.g09.slc.cpg/sg170_cif.got.tgz:155.got - 2010.04.02 06:47:37.
