data_PCOD8324795
_publ_section_title
;
Structure prediction by ZEFSAII (Michael W. Deem and Ramdas Pophale) SiO2 
 PCOD8324795
Probable space group: P 62
;
_chemical_formula_sum "Si O2"
_cell_formula_units_Z 42
_cell_length_a 13.532284
_cell_length_b 13.532284
_cell_length_c 11.782403
_cell_angle_alpha 90.000000
_cell_angle_beta 90.000000
_cell_angle_gamma 120.000000
_cell_volume 1868.558556
_symmetry_space_group_name_H-M "P 62"
_symmetry_group_IT_number 171
_symmetry_cell_setting 'hexagonal'
loop_
_space_group_symop_operation_xyz
x,y,z
x-y,x,1/3+z
-y,x-y,2/3+z
-x,-y,z
-x+y,-x,1/3+z
y,-x+y,2/3+z
loop_
_atom_site_type_symbol
_atom_site_label
_atom_site_fract_x
_atom_site_fract_y
_atom_site_fract_z
Si Si1 0.102651 0.902836 0.045500
Si Si2 0.701172 0.727210 0.027094
Si Si3 0.685623 0.400978 0.232872
Si Si4 0.818305 0.911728 0.860581
Si Si5 0.974840 0.684368 0.888381
Si Si6 0.736732 0.529799 0.458774
Si Si7 0.264242 0.475948 0.998559
O O1 0.028938 0.912574 0.147186
O O2 0.217307 0.924103 0.106940
O O3 0.034648 0.783760 0.981020
O O4 0.128587 0.003977 0.963196
O O5 0.820995 0.778787 0.090484
O O6 0.614341 0.741428 0.108861
O O7 0.712626 0.794870 0.910649
O O8 0.674115 0.600576 0.995710
O O9 0.678348 0.471179 0.339864
O O10 0.560466 0.293439 0.215093
O O11 0.768920 0.351060 0.256205
O O12 0.736732 0.484723 0.126594
O O13 0.078478 0.666471 0.843559
O O14 0.865493 0.580046 0.949658
#
# Coordination Sequence:
#
# PCOD8324795 Si02
#       7
#     6   6   6   6   6   6   6
#     4  12  24  41  62 114 156 192 224 289 346 472
#     4  12  24  44  74 106 148 186 240 278 378 432
#     4  10  27  51  79  96 142 186 273 288 370 402
#     4  12  23  41  63 110 159 188 227 281 350 464
#     4  12  26  42  76 108 152 182 246 286 382 422
#     4  11  25  52  73 111 137 196 231 319 347 454
#     4  11  25  52  73 111 137 196 231 319 347 454
#
# _framework density 22.477219999999999
#
# number of rings (size 3 to 8) (size 9 to 14) (size 15 to 20)
#    0.000    0.571    5.714    0.857    0.000   10.857 
#    0.000    8.571    0.000    0.000    0.000    0.000 
#    0.000    0.000    0.000    0.000    0.000    0.000 
#
# Total GULP energy -520619.695687 kJ/mol
# GULP energy per Si atom -12395.707040 kJ/mol
# Density = 2.242606 g / cm^3
# Si number density = 22.477220 Si / 1000 Ang^3
#
#
#
# Elastic Constant Matrix: (Units=GPa)
#
#
# Indices 1 2 3 4 5 6 
#
# 1 38.9870 -15.7150 12.1375 0.0000 0.0000 0.0000
# 2 -15.7150 38.9870 12.1375 0.0000 0.0000 0.0000
# 3 12.1375 12.1375 94.3717 0.0000 0.0000 0.0000
# 4 0.0000 0.0000 0.0000 23.7026 0.0000 0.0000
# 5 0.0000 0.0000 0.0000 0.0000 23.7026 0.0000
# 6 0.0000 0.0000 0.0000 0.0000 0.0000 27.3510
#
#
#
# Elastic Compliance Matrix: (Units=1/GPa)
#
#
# Indices 1 2 3 4 5 6 
#
# 1 0.033954 0.015674 -0.006383 0.000000 0.000000 0.000000
# 2 0.015674 0.033954 -0.006383 0.000000 0.000000 0.000000
# 3 -0.006383 -0.006383 0.012238 0.000000 0.000000 0.000000
# 4 0.000000 0.000000 0.000000 0.042189 0.000000 0.000000
# 5 0.000000 0.000000 0.000000 0.000000 0.042189 0.000000
# 6 0.000000 0.000000 0.000000 0.000000 0.000000 0.036562
#
#
# Mechanical properties :
#
#
# Convention : Reuss Voigt Hill
#
# Bulk Modulus (GPa) = 11.63294 21.05175 16.34234
# Shear Modulus (GPa) = 22.32878 25.87029 24.09954
#
# Velocity S-wave (km/s) = 3.15524 3.39625 3.27796
# Velocity P-wave (km/s) = 4.29659 4.97650 4.64899
#
# Compressibility (1/GPa) = 0.08596279
#
# Stress axis : x y z
#
# Youngs Moduli (GPa) = 29.45125 29.45125 81.71110
#
# Poissons Ratio (x) = -0.46161 0.52155
# Poissons Ratio (y) = -0.46161 0.52155
# Poissons Ratio (z) = 0.18798 0.18798
#
# Static dielectric constant tensor:
#      x y z
#    x 4.450420 0.000000 0.000000 
#    y 0.000000 4.450420 0.000000 
#    z 0.000000 0.000000 4.468610 
# 
# 
# High freq. dielectric constant tensor:
#      x y z
#    x 1.883090 0.000000 0.000000 
#    y 0.000000 1.883090 0.000000 
#    z 0.000000 0.000000 1.906370 
# 
# From -- ./inp_files/1682.got.cif
#   From: 2010.03.12/outbox.cif.g09.slc.cpg/sg171_1_cif.got.tgz:1682.got - 2010.04.02 06:49:11.
