data_PCOD8324517
_publ_section_title
;
Structure prediction by ZEFSAII (Michael W. Deem and Ramdas Pophale) SiO2 
 PCOD8324517
Probable space group: P 61
;
_chemical_formula_sum "Si O2"
_cell_formula_units_Z 36
_cell_length_a 14.264389
_cell_length_b 14.264389
_cell_length_c 9.955821
_cell_angle_alpha 90.000000
_cell_angle_beta 90.000000
_cell_angle_gamma 120.000000
_cell_volume 1754.341185
_symmetry_space_group_name_H-M "P 61"
_symmetry_group_IT_number 169
_symmetry_cell_setting 'hexagonal'
loop_
_space_group_symop_operation_xyz
x,y,z
x-y,x,1/6+z
-y,x-y,1/3+z
-x,-y,1/2+z
-x+y,-x,2/3+z
y,-x+y,5/6+z
loop_
_atom_site_type_symbol
_atom_site_label
_atom_site_fract_x
_atom_site_fract_y
_atom_site_fract_z
Si Si1 0.433593 0.867185 0.309990
Si Si2 0.072385 0.871771 0.769800
Si Si3 0.186499 0.776862 0.330412
Si Si4 0.223139 0.813501 0.622901
Si Si5 0.451315 0.451315 0.726656
Si Si6 0.128229 0.927616 0.183513
O O1 0.304556 0.788462 0.317294
O O2 0.483906 0.788461 0.302687
O O3 0.459588 0.941705 0.176676
O O4 0.482118 0.941706 0.443303
O O5 0.153596 0.828609 0.736941
O O6 0.997982 0.859968 0.642685
O O7 0.000000 0.799257 0.893323
O O8 0.178526 0.821473 0.476657
O O9 0.090248 0.654410 0.314864
O O10 0.171392 0.846405 0.216373
O O11 0.345590 0.909753 0.638448
O O12 0.002019 0.861986 0.143961
#
# Coordination Sequence:
#
# PCOD8324517 Si02
#       6
#     6   6   6   6   6   6
#     4  10  22  40  66  96 126 164 224 262 318 398
#     4  10  21  38  55  89 127 165 210 261 311 372
#     4  10  21  42  66  87 126 172 210 259 327 395
#     4  10  21  42  66  87 126 172 210 259 327 395
#     4  10  22  44  64  94 126 172 208 266 332 376
#     4  10  21  38  55  89 127 165 210 261 311 372
#
# _framework density 20.520524999999999
#
# number of rings (size 3 to 8) (size 9 to 14) (size 15 to 20)
#    0.000    2.000    0.000    4.000    2.333    0.000 
#   42.000    0.000    0.000    0.000    0.000    0.000 
#    0.000    0.000    0.000    0.000    0.000    0.000 
#
# Total GULP energy -446363.700511 kJ/mol
# GULP energy per Si atom -12398.991681 kJ/mol
# Density = 2.047382 g / cm^3
# Si number density = 20.520525 Si / 1000 Ang^3
#
#
#
# Elastic Constant Matrix: (Units=GPa)
#
#
# Indices 1 2 3 4 5 6 
#
# 1 108.4021 57.6397 44.5569 0.0000 0.0000 0.0000
# 2 57.6397 108.4021 44.5569 0.0000 0.0000 0.0000
# 3 44.5569 44.5569 74.9220 0.0000 0.0000 0.0000
# 4 0.0000 0.0000 0.0000 38.4854 0.0000 0.0000
# 5 0.0000 0.0000 0.0000 0.0000 38.4854 0.0000
# 6 0.0000 0.0000 0.0000 0.0000 0.0000 25.3812
#
#
#
# Elastic Compliance Matrix: (Units=1/GPa)
#
#
# Indices 1 2 3 4 5 6 
#
# 1 0.014273 -0.005427 -0.005261 0.000000 0.000000 0.000000
# 2 -0.005427 0.014273 -0.005261 0.000000 0.000000 0.000000
# 3 -0.005261 -0.005261 0.019605 0.000000 0.000000 0.000000
# 4 0.000000 0.000000 0.000000 0.025984 0.000000 0.000000
# 5 0.000000 0.000000 0.000000 0.000000 0.025984 0.000000
# 6 0.000000 0.000000 0.000000 0.000000 0.000000 0.039399
#
#
# Mechanical properties :
#
#
# Convention : Reuss Voigt Hill
#
# Bulk Modulus (GPa) = 61.52593 65.02592 63.27592
# Shear Modulus (GPa) = 28.27546 30.13527 29.20536
#
# Velocity S-wave (km/s) = 3.71605 3.83631 3.77666
# Velocity P-wave (km/s) = 6.96130 7.16799 7.06540
#
# Compressibility (1/GPa) = 0.01625331
#
# Stress axis : x y z
#
# Youngs Moduli (GPa) = 70.06323 70.06323 51.00848
#
# Poissons Ratio (x) = 0.38022 0.26835
# Poissons Ratio (y) = 0.38022 0.26835
# Poissons Ratio (z) = 0.36859 0.36859
#
# Static dielectric constant tensor:
#      x y z
#    x 3.613640 0.000000 0.000000 
#    y 0.000000 3.613640 0.000000 
#    z 0.000000 0.000000 3.832650 
# 
# 
# High freq. dielectric constant tensor:
#      x y z
#    x 1.796880 0.000000 0.000000 
#    y 0.000000 1.796880 0.000000 
#    z 0.000000 0.000000 1.806870 
# 
# From -- ./inp_files/617.got.cif
#   From: 2010.03.12/outbox.cif.g09.slc.cpg/sg169_cif.got.tgz:617.got - 2010.04.02 06:46:06.
