data_PCOD8324872
_publ_section_title
;
Structure prediction by ZEFSAII (Michael W. Deem and Ramdas Pophale) SiO2 
 PCOD8324872
Probable space group: P 63
;
_chemical_formula_sum "Si O2"
_cell_formula_units_Z 36
_cell_length_a 8.455836
_cell_length_b 8.455836
_cell_length_c 29.151275
_cell_angle_alpha 90.000000
_cell_angle_beta 90.000000
_cell_angle_gamma 120.000000
_cell_volume 1805.100093
_symmetry_space_group_name_H-M "P 63"
_symmetry_group_IT_number 173
_symmetry_cell_setting 'hexagonal'
loop_
_space_group_symop_operation_xyz
x,y,z
x-y,x,1/2+z
-y,x-y,z
-x,-y,1/2+z
-x+y,-x,z
y,-x+y,1/2+z
loop_
_atom_site_type_symbol
_atom_site_label
_atom_site_fract_x
_atom_site_fract_y
_atom_site_fract_z
Si Si1 0.992343 0.334998 0.267480
Si Si2 0.461045 0.132998 0.988767
Si Si3 0.668133 0.992428 0.304899
Si Si4 0.475125 0.353488 0.672899
Si Si5 0.647336 0.121152 0.571228
Si Si6 0.011868 0.802416 0.404613
O O1 0.129626 0.263874 0.281237
O O2 0.982936 0.349290 0.212266
O O3 0.792302 0.196509 0.285870
O O4 0.070285 0.531525 0.291647
O O5 0.662272 0.151448 0.987099
O O6 0.333958 0.016752 0.946714
O O7 0.362581 0.026856 0.035251
O O8 0.682142 0.984275 0.359470
O O9 0.479425 0.163780 0.678272
O O10 0.400845 0.360959 0.622240
O O11 0.835913 0.315975 0.565279
O O12 0.826041 0.815243 0.405992
#
# Coordination Sequence:
#
# PCOD8324872 Si02
#       6
#     6   6   6   6   6   6
#     4  12  22  41  64  92 130 165 210 260 312 384
#     4  10  24  37  58  92 119 151 208 262 315 360
#     4  12  24  41  63  93 127 166 208 264 318 377
#     4   8  15  36  63  92 114 167 204 241 312 368
#     4   8  18  37  66  83 120 159 205 248 305 373
#     4  10  23  42  62  82 118 162 201 247 312 380
#
# _framework density 19.943491999999999
#
# number of rings (size 3 to 8) (size 9 to 14) (size 15 to 20)
#    1.333    0.667    3.333    1.000    4.667    0.000 
#    3.000    0.000    0.000    0.000    0.000    0.000 
#    0.000    0.000    0.000    0.000    0.000    0.000 
#
# Total GULP energy -446091.377622 kJ/mol
# GULP energy per Si atom -12391.427156 kJ/mol
# Density = 1.989810 g / cm^3
# Si number density = 19.943492 Si / 1000 Ang^3
#
#
#
# Elastic Constant Matrix: (Units=GPa)
#
#
# Indices 1 2 3 4 5 6 
#
# 1 55.1764 17.4927 49.1816 0.0000 0.0000 0.0000
# 2 17.4927 55.1764 49.1816 0.0000 0.0000 0.0000
# 3 49.1816 49.1816 212.4805 0.0000 0.0000 0.0000
# 4 0.0000 0.0000 0.0000 29.6494 0.0000 0.0000
# 5 0.0000 0.0000 0.0000 0.0000 29.6494 0.0000
# 6 0.0000 0.0000 0.0000 0.0000 0.0000 18.8418
#
#
#
# Elastic Compliance Matrix: (Units=1/GPa)
#
#
# Indices 1 2 3 4 5 6 
#
# 1 0.023288 -0.003249 -0.004638 0.000000 0.000000 0.000000
# 2 -0.003249 0.023288 -0.004638 0.000000 0.000000 0.000000
# 3 -0.004638 -0.004638 0.006854 0.000000 0.000000 0.000000
# 4 0.000000 0.000000 0.000000 0.033727 0.000000 0.000000
# 5 0.000000 0.000000 0.000000 0.000000 0.033727 0.000000
# 6 0.000000 0.000000 0.000000 0.000000 0.000000 0.053073
#
#
# Mechanical properties :
#
#
# Convention : Reuss Voigt Hill
#
# Bulk Modulus (GPa) = 35.23752 61.61611 48.42682
# Shear Modulus (GPa) = 23.98444 29.42663 26.70554
#
# Velocity S-wave (km/s) = 3.47164 3.84539 3.66329
# Velocity P-wave (km/s) = 5.81178 7.11888 6.49828
#
# Compressibility (1/GPa) = 0.02837884
#
# Stress axis : x y z
#
# Youngs Moduli (GPa) = 42.94044 42.94044 145.90947
#
# Poissons Ratio (x) = 0.13950 0.67679
# Poissons Ratio (y) = 0.13950 0.67679
# Poissons Ratio (z) = 0.19918 0.19918
#
# Static dielectric constant tensor:
#      x y z
#    x 3.238270 0.000000 0.000000 
#    y 0.000000 3.238270 0.000000 
#    z 0.000000 0.000000 3.553630 
# 
# 
# High freq. dielectric constant tensor:
#      x y z
#    x 1.749660 0.000000 0.000000 
#    y 0.000000 1.749660 0.000000 
#    z 0.000000 0.000000 1.789910 
# 
# From -- ./inp_files/1503.got.cif
#   From: 2010.03.12/outbox.cif.g09.slc.cpg/sg173_cif.got.tgz:1503.got - 2010.04.02 06:54:12.
