data_PCOD8324450
_publ_section_title
;
Structure prediction by ZEFSAII (Michael W. Deem and Ramdas Pophale) SiO2 
 PCOD8324450
Probable space group: P 61
;
_chemical_formula_sum "Si O2"
_cell_formula_units_Z 48
_cell_length_a 16.252305
_cell_length_b 16.252305
_cell_length_c 11.986647
_cell_angle_alpha 90.000000
_cell_angle_beta 90.000000
_cell_angle_gamma 120.000000
_cell_volume 2741.942072
_symmetry_space_group_name_H-M "P 61"
_symmetry_group_IT_number 169
_symmetry_cell_setting 'hexagonal'
loop_
_space_group_symop_operation_xyz
x,y,z
x-y,x,1/6+z
-y,x-y,1/3+z
-x,-y,1/2+z
-x+y,-x,2/3+z
y,-x+y,5/6+z
loop_
_atom_site_type_symbol
_atom_site_label
_atom_site_fract_x
_atom_site_fract_y
_atom_site_fract_z
Si Si1 0.971941 0.120440 0.740350
Si Si2 0.755886 0.503282 0.224185
Si Si3 0.620885 0.823715 0.654037
Si Si4 0.873450 0.346326 0.688010
Si Si5 0.738227 0.776239 0.801851
Si Si6 0.676652 0.396981 0.441486
Si Si7 0.313096 0.773286 0.832591
Si Si8 0.333651 0.284509 0.538539
O O1 0.065197 0.121703 0.691178
O O2 0.995042 0.228746 0.761122
O O3 0.886469 0.065657 0.650512
O O4 0.705593 0.537470 0.137775
O O5 0.687730 0.459195 0.332077
O O6 0.778720 0.428463 0.161041
O O7 0.854139 0.592755 0.267746
O O8 0.553204 0.828984 0.748886
O O9 0.671700 0.767320 0.699360
O O10 0.561999 0.762573 0.548252
O O11 0.702787 0.927459 0.614354
O O12 0.858933 0.436923 0.674302
O O13 0.984196 0.382255 0.700049
O O14 0.675953 0.752652 0.913038
O O15 0.697238 0.314318 0.404559
O O16 0.751089 0.461494 0.535685
#
# Coordination Sequence:
#
# PCOD8324450 Si02
#       8
#     6   6   6   6   6   6   6   6
#     4  10  17  31  57  82 106 138 182 229 287 331
#     4  10  19  34  56  76 109 143 191 221 276 334
#     4  11  19  34  56  84 110 137 188 237 289 323
#     4  10  18  31  53  81 104 141 175 234 275 330
#     4  10  18  31  57  84 104 136 178 241 280 327
#     4   9  20  35  55  72  99 160 187 221 263 339
#     4  10  19  35  53  73 109 146 190 222 275 325
#     4  10  18  31  53  86 111 131 183 237 281 317
#
# _framework density 17.505841
#
# number of rings (size 3 to 8) (size 9 to 14) (size 15 to 20)
#    0.000    2.000    6.250    0.750    1.750    0.000 
#    4.500    1.250    2.750    0.000    0.000    0.000 
#    0.000    0.000    0.000    0.000    0.000    0.000 
#
# Total GULP energy -594921.344312 kJ/mol
# GULP energy per Si atom -12394.194673 kJ/mol
# Density = 1.746600 g / cm^3
# Si number density = 17.505841 Si / 1000 Ang^3
#
#
#
# Elastic Constant Matrix: (Units=GPa)
#
#
# Indices 1 2 3 4 5 6 
#
# 1 77.7453 29.9734 24.0415 0.0000 0.0000 0.0000
# 2 29.9734 77.7453 24.0415 0.0000 0.0000 0.0000
# 3 24.0415 24.0415 66.5181 0.0000 0.0000 0.0000
# 4 0.0000 0.0000 0.0000 24.7913 0.0000 0.0000
# 5 0.0000 0.0000 0.0000 0.0000 24.7913 0.0000
# 6 0.0000 0.0000 0.0000 0.0000 0.0000 23.8859
#
#
#
# Elastic Compliance Matrix: (Units=1/GPa)
#
#
# Indices 1 2 3 4 5 6 
#
# 1 0.016001 -0.004932 -0.004001 0.000000 0.000000 0.000000
# 2 -0.004932 0.016001 -0.004001 0.000000 0.000000 0.000000
# 3 -0.004001 -0.004001 0.017925 0.000000 0.000000 0.000000
# 4 0.000000 0.000000 0.000000 0.040337 0.000000 0.000000
# 5 0.000000 0.000000 0.000000 0.000000 0.040337 0.000000
# 6 0.000000 0.000000 0.000000 0.000000 0.000000 0.041866
#
#
# Mechanical properties :
#
#
# Convention : Reuss Voigt Hill
#
# Bulk Modulus (GPa) = 41.56095 42.01348 41.78721
# Shear Modulus (GPa) = 24.23025 24.29051 24.26038
#
# Velocity S-wave (km/s) = 3.72442 3.72905 3.72673
# Velocity P-wave (km/s) = 6.50291 6.52632 6.51462
#
# Compressibility (1/GPa) = 0.02406105
#
# Stress axis : x y z
#
# Youngs Moduli (GPa) = 62.49593 62.49593 55.78654
#
# Poissons Ratio (x) = 0.30822 0.22319
# Poissons Ratio (y) = 0.30822 0.22319
# Poissons Ratio (z) = 0.25003 0.25003
#
# Static dielectric constant tensor:
#      x y z
#    x 3.203510 0.000000 0.000000 
#    y 0.000000 3.203510 0.000000 
#    z 0.000000 0.000000 3.121220 
# 
# 
# High freq. dielectric constant tensor:
#      x y z
#    x 1.667420 0.000000 0.000000 
#    y 0.000000 1.667420 0.000000 
#    z 0.000000 0.000000 1.655240 
# 
# From -- ./inp_files/1079.got.cif
#   From: 2010.03.12/outbox.cif.g09.slc.cpg/sg169_cif.got.tgz:1079.got - 2010.04.02 06:46:06.
