data_PCOD8324929
_publ_section_title
;
Structure prediction by ZEFSAII (Michael W. Deem and Ramdas Pophale) SiO2 
 PCOD8324929
Probable space group: P -6
;
_chemical_formula_sum "Si O2"
_cell_formula_units_Z 32
_cell_length_a 14.549175
_cell_length_b 14.549175
_cell_length_c 8.451379
_cell_angle_alpha 90.000000
_cell_angle_beta 90.000000
_cell_angle_gamma 120.000000
_cell_volume 1549.297946
_symmetry_space_group_name_H-M "P -6"
_symmetry_group_IT_number 174
_symmetry_cell_setting 'hexagonal'
loop_
_space_group_symop_operation_xyz
x,y,z
-x+y,-x,-z
-y,x-y,z
x,y,-z
-x+y,-x,z
-y,x-y,-z
loop_
_atom_site_type_symbol
_atom_site_label
_atom_site_fract_x
_atom_site_fract_y
_atom_site_fract_z
Si Si1 0.536747 0.880619 0.312294
Si Si2 0.448587 0.195540 0.818185
Si Si3 0.068428 0.832493 0.688143
Si Si4 0.835371 0.768907 0.311891
Si Si5 0.333335 0.666667 0.310902
Si Si6 0.584037 0.107675 0.316842
O O1 0.538802 0.873976 0.500000
O O2 0.645837 0.891451 0.244240
O O3 0.434489 0.774729 0.245423
O O4 0.531057 0.984932 0.262574
O O5 0.340697 0.090754 0.768461
O O6 0.456865 0.289842 0.708780
O O7 0.542438 0.170441 0.788585
O O8 0.449698 0.226068 0.000000
O O9 0.066797 0.828938 0.500000
O O10 0.951437 0.798341 0.750622
O O11 0.144946 0.950871 0.750049
O O12 0.826481 0.758658 0.500000
O O13 0.333334 0.666668 0.500000
O O14 0.559212 0.114473 0.500000
#
# Coordination Sequence:
#
# PCOD8324929 Si02
#       6
#     6   6   6   6   2   6
#     4   9  18  32  54  86 119 148 190 246 300 343
#     4  12  25  40  58  87 124 158 193 240 304 374
#     4   9  17  31  55  88 118 149 194 252 300 343
#     4  10  19  35  60  89 120 154 200 252 303 354
#     4   9  18  30  48  84 124 152 184 240 301 335
#     4  11  22  40  64  88 115 153 201 250 300 359
#
# _framework density 20.654515
#
# number of rings (size 3 to 8) (size 9 to 14) (size 15 to 20)
#    0.000    1.875    1.875    3.000    2.625    1.500 
#    0.000    0.938    0.000    0.000    0.000    0.000 
#    0.000    0.000    0.000    0.000    0.000    0.000 
#
# Total GULP energy -396857.593724 kJ/mol
# GULP energy per Si atom -12401.799804 kJ/mol
# Density = 2.060750 g / cm^3
# Si number density = 20.654515 Si / 1000 Ang^3
#
#
#
# Elastic Constant Matrix: (Units=GPa)
#
#
# Indices 1 2 3 4 5 6 
#
# 1 133.3431 49.6284 18.0985 0.0000 0.0000 -0.0003
# 2 49.6284 133.3445 18.0985 0.0000 0.0000 0.0000
# 3 18.0985 18.0985 31.4704 0.0000 0.0000 0.0001
# 4 0.0000 0.0000 0.0000 7.7560 0.0000 0.0000
# 5 0.0000 0.0000 0.0000 0.0000 7.7560 0.0000
# 6 -0.0003 0.0000 0.0001 0.0000 0.0000 41.8580
#
#
#
# Elastic Compliance Matrix: (Units=1/GPa)
#
#
# Indices 1 2 3 4 5 6 
#
# 1 0.009056 -0.002889 -0.003547 0.000000 0.000000 0.000000
# 2 -0.002889 0.009056 -0.003547 0.000000 0.000000 0.000000
# 3 -0.003547 -0.003547 0.035855 0.000000 0.000000 0.000000
# 4 0.000000 0.000000 0.000000 0.128932 -0.000001 0.000000
# 5 0.000000 0.000000 0.000000 -0.000001 0.128932 0.000000
# 6 0.000000 0.000000 0.000000 0.000000 0.000000 0.023890
#
#
# Mechanical properties :
#
#
# Convention : Reuss Voigt Hill
#
# Bulk Modulus (GPa) = 29.40945 52.20099 40.80522
# Shear Modulus (GPa) = 13.62323 25.62953 19.62638
#
# Velocity S-wave (km/s) = 2.57101 3.52642 3.08591
# Velocity P-wave (km/s) = 4.80449 6.47372 5.70053
#
# Compressibility (1/GPa) = 0.03400268
#
# Stress axis : x y z
#
# Youngs Moduli (GPa) = 110.42249 110.42365 27.89002
#
# Poissons Ratio (x) = 0.31903 0.09891
# Poissons Ratio (y) = 0.31903 0.09891
# Poissons Ratio (z) = 0.39162 0.39162
#
# Static dielectric constant tensor:
#      x y z
#    x 3.884870 0.000000 0.000000 
#    y 0.000000 3.884860 0.000000 
#    z 0.000000 0.000000 3.086980 
# 
# 
# High freq. dielectric constant tensor:
#      x y z
#    x 1.819410 0.000000 0.000000 
#    y 0.000000 1.819400 0.000000 
#    z 0.000000 0.000000 1.752730 
# 
# From -- ./inp_files/314.got.cif
#   From: 2010.03.12/outbox.cif.g09.slc.cpg/sg174_cif.got.tgz:314.got - 2010.04.02 06:54:58.
