data_PCOD8324234
_publ_section_title
;
Structure prediction by ZEFSAII (Michael W. Deem and Ramdas Pophale) SiO2 
 PCOD8324234
Probable space group: R -3 M
;
_chemical_formula_sum "Si O2"
_cell_formula_units_Z 144
_cell_length_a 28.126289
_cell_length_b 28.126289
_cell_length_c 9.772400
_cell_angle_alpha 90.000000
_cell_angle_beta 90.000000
_cell_angle_gamma 120.000000
_cell_volume 6695.094887
_symmetry_space_group_name_H-M "R -3 M"
_symmetry_group_IT_number 166
_symmetry_cell_setting 'hexagonal'
loop_
_space_group_symop_operation_xyz
x,y,z
-y,x-y,z
-x+y,-x,z
x-y,-y,-z
-x,-x+y,-z
y,x,-z
-x,-y,-z
y,-x+y,-z
x-y,x,-z
-x+y,y,z
x,x-y,z
-y,-x,z
2/3+x,1/3+y,1/3+z
2/3-y,1/3+x-y,1/3+z
2/3-x+y,1/3-x,1/3+z
2/3+x-y,1/3-y,1/3-z
2/3-x,1/3-x+y,1/3-z
2/3+y,1/3+x,1/3-z
2/3-x,1/3-y,1/3-z
2/3+y,1/3-x+y,1/3-z
2/3+x-y,1/3+x,1/3-z
2/3-x+y,1/3+y,1/3+z
2/3+x,1/3+x-y,1/3+z
2/3-y,1/3-x,1/3+z
1/3+x,2/3+y,2/3+z
1/3-y,2/3+x-y,2/3+z
1/3-x+y,2/3-x,2/3+z
1/3+x-y,2/3-y,2/3-z
1/3-x,2/3-x+y,2/3-z
1/3+y,2/3+x,2/3-z
1/3-x,2/3-y,2/3-z
1/3+y,2/3-x+y,2/3-z
1/3+x-y,2/3+x,2/3-z
1/3-x+y,2/3+y,2/3+z
1/3+x,2/3+x-y,2/3+z
1/3-y,2/3-x,2/3+z
loop_
_atom_site_type_symbol
_atom_site_label
_atom_site_fract_x
_atom_site_fract_y
_atom_site_fract_z
Si Si1 0.061257 0.715225 0.984797
Si Si2 0.558654 0.224656 0.488803
Si Si3 0.333850 0.473821 0.321411
Si Si4 0.426376 0.466947 0.880622
O O1 0.062628 0.760768 0.086611
O O2 0.072682 0.739349 0.833334
O O3 0.109377 0.702216 0.017346
O O4 0.000000 0.661680 0.000000
O O5 0.623542 0.247084 0.499405
O O6 0.547831 0.273916 0.533821
O O7 0.538860 0.205527 0.333334
O O8 0.527898 0.170770 0.585340
O O9 0.274846 0.434309 0.389299
O O10 0.333334 0.493007 0.166667
O O11 0.484686 0.515315 0.828707
O O12 0.431754 0.431754 0.000000
#
# Coordination Sequence:
#
# PCOD8324234 Si02
#       4
#    36  36  36  36
#     4  12  24  41  69  95 133 183 233 276 326 399
#     4  10  24  47  74 101 133 175 225 284 352 421
#     4  12  24  41  66 100 137 174 223 280 335 404
#     4  11  24  42  62  91 131 176 222 275 335 395
#
# _framework density 21.508285000000001
#
# number of rings (size 3 to 8) (size 9 to 14) (size 15 to 20)
#    0.000    0.750    5.000    2.500    3.500    4.500 
#    0.000    0.000    0.000    1.500    0.000    0.000 
#    0.000    0.000    0.000    0.000    0.000    0.000 
#
# Total GULP energy -595174.488077 kJ/mol
# GULP energy per Si atom -12399.468502 kJ/mol
# Density = 2.145933 g / cm^3
# Si number density = 21.508285 Si / 1000 Ang^3
#
#
#
# Elastic Constant Matrix: (Units=GPa)
#
#
# Indices 1 2 3 4 5 6 
#
# 1 91.7532 25.7687 50.1968 -1.4626 -0.0046 -0.0118
# 2 25.7687 91.7468 50.1994 1.4602 -0.0029 -0.0133
# 3 50.1968 50.1994 153.0336 0.0140 -0.0617 -0.0242
# 4 -1.4626 1.4602 0.0140 25.3520 -0.0084 -0.0094
# 5 -0.0046 -0.0029 -0.0617 -0.0084 25.3251 -1.4921
# 6 -0.0118 -0.0133 -0.0242 -0.0094 -1.4921 32.9944
#
#
#
# Elastic Compliance Matrix: (Units=1/GPa)
#
#
# Indices 1 2 3 4 5 6 
#
# 1 0.013508 -0.001686 -0.003878 0.000879 -0.000007 0.000001
# 2 -0.001686 0.013509 -0.003878 -0.000873 -0.000008 0.000001
# 3 -0.003878 -0.003878 0.009079 -0.000005 0.000021 0.000005
# 4 0.000879 -0.000873 -0.000005 0.039546 0.000014 0.000012
# 5 -0.000007 -0.000008 0.000021 0.000014 0.039592 0.001791
# 6 0.000001 0.000001 0.000005 0.000012 0.001791 0.030389
#
#
# Mechanical properties :
#
#
# Convention : Reuss Voigt Hill
#
# Bulk Modulus (GPa) = 58.10137 65.42927 61.76532
# Shear Modulus (GPa) = 29.36972 30.75888 30.06430
#
# Velocity S-wave (km/s) = 3.69929 3.78576 3.74277
# Velocity P-wave (km/s) = 6.73190 7.04243 6.88891
#
# Compressibility (1/GPa) = 0.01721130
#
# Stress axis : x y z
#
# Youngs Moduli (GPa) = 74.03136 74.02467 110.14911
#
# Poissons Ratio (x) = 0.12482 0.42712
# Poissons Ratio (y) = 0.12483 0.42718
# Poissons Ratio (z) = 0.28707 0.28708
#
# Static dielectric constant tensor:
#      x y z
#    x 3.813830 -0.000370 -0.000590 
#    y -0.000370 3.814300 -0.000200 
#    z -0.000590 -0.000200 4.222320 
# 
# 
# High freq. dielectric constant tensor:
#      x y z
#    x 1.837760 0.000000 -0.000010 
#    y 0.000000 1.837770 0.000000 
#    z -0.000010 0.000000 1.855870 
# 
# From -- ./inp_files/1797.got.cif
#   From: 2010.03.12/outbox.cif.g09.slc.cpg/sg166_1_cif.got.tgz:1797.got - 2010.04.02 06:38:31.
