data_PCOD8324937
_publ_section_title
;
Structure prediction by ZEFSAII (Michael W. Deem and Ramdas Pophale) SiO2 
 PCOD8324937
Probable space group: P -6
;
_chemical_formula_sum "Si O2"
_cell_formula_units_Z 40
_cell_length_a 19.008727
_cell_length_b 19.008727
_cell_length_c 8.637467
_cell_angle_alpha 90.000000
_cell_angle_beta 90.000000
_cell_angle_gamma 120.000000
_cell_volume 2702.857191
_symmetry_space_group_name_H-M "P -6"
_symmetry_group_IT_number 174
_symmetry_cell_setting 'hexagonal'
loop_
_space_group_symop_operation_xyz
x,y,z
-x+y,-x,-z
-y,x-y,z
x,y,-z
-x+y,-x,z
-y,x-y,-z
loop_
_atom_site_type_symbol
_atom_site_label
_atom_site_fract_x
_atom_site_fract_y
_atom_site_fract_z
Si Si1 0.531010 0.621037 0.819016
Si Si2 0.911025 0.539386 0.318000
Si Si3 0.753579 0.515959 0.183143
Si Si4 0.544978 0.916910 0.182302
Si Si5 0.666667 0.333333 0.816475
Si Si6 0.247862 0.490267 0.682618
Si Si7 0.333333 0.666667 0.183223
Si Si8 0.463331 0.081113 0.682013
O O1 0.442076 0.546666 0.775522
O O2 0.547962 0.702188 0.730024
O O3 0.599865 0.600931 0.767138
O O4 0.537904 0.639170 0.000000
O O5 0.902982 0.545204 0.500000
O O6 0.847104 0.559031 0.234411
O O7 0.895504 0.450334 0.268469
O O8 0.999211 0.608071 0.262500
O O9 0.711346 0.424334 0.247474
O O10 0.706867 0.557184 0.263361
O O11 0.746854 0.520882 0.000000
O O12 0.563157 0.848758 0.251064
O O13 0.559583 0.925229 0.000000
O O14 0.666667 0.333334 0.000000
O O15 0.256605 0.496471 0.500000
O O16 0.301653 0.577263 0.757952
O O17 0.333334 0.666668 0.000000
O O18 0.451175 0.067076 0.500000
#
# Coordination Sequence:
#
# PCOD8324937 Si02
#       8
#     6   6   6   6   2   6   2   6
#     4  10  20  33  48  64  87 117 150 186 226 271
#     4  10  20  32  45  64  89 115 148 189 232 270
#     4  11  19  31  47  64  86 117 154 190 230 272
#     4  10  20  33  48  64  87 117 150 186 226 271
#     4   9  18  27  40  62  85 111 151 191 220 261
#     4  12  22  32  48  67  89 116 149 191 232 269
#     4  12  22  32  43  63  88 116 154 192 226 266
#     4  10  20  32  45  64  89 115 148 189 232 270
#
# _framework density 14.799155000000001
#
# number of rings (size 3 to 8) (size 9 to 14) (size 15 to 20)
#    0.000    1.500    3.000    4.050    0.000    2.400 
#    0.000    0.000    0.000    0.000    0.000    0.000 
#    0.000    0.000    0.000    0.900    0.000   12.600 
#
# Total GULP energy -496135.035817 kJ/mol
# GULP energy per Si atom -12403.375895 kJ/mol
# Density = 1.476547 g / cm^3
# Si number density = 14.799155 Si / 1000 Ang^3
#
#
#
# Elastic Constant Matrix: (Units=GPa)
#
#
# Indices 1 2 3 4 5 6 
#
# 1 69.3225 23.7149 6.7349 0.0000 0.0000 0.0000
# 2 23.7149 69.3226 6.7350 0.0000 0.0000 0.0000
# 3 6.7349 6.7350 44.1130 0.0000 0.0000 0.0000
# 4 0.0000 0.0000 0.0000 24.6464 0.0000 0.0000
# 5 0.0000 0.0000 0.0000 0.0000 24.6464 0.0000
# 6 0.0000 0.0000 0.0000 0.0000 0.0000 22.8038
#
#
#
# Elastic Compliance Matrix: (Units=1/GPa)
#
#
# Indices 1 2 3 4 5 6 
#
# 1 0.016459 -0.005467 -0.001678 0.000000 0.000000 0.000000
# 2 -0.005467 0.016459 -0.001678 0.000000 0.000000 0.000000
# 3 -0.001678 -0.001678 0.023181 0.000000 0.000000 0.000000
# 4 0.000000 0.000000 0.000000 0.040574 0.000000 0.000000
# 5 0.000000 0.000000 0.000000 0.000000 0.040574 0.000000
# 6 0.000000 0.000000 0.000000 0.000000 0.000000 0.043852
#
#
# Mechanical properties :
#
#
# Convention : Reuss Voigt Hill
#
# Bulk Modulus (GPa) = 26.00668 28.56976 27.28822
# Shear Modulus (GPa) = 23.63358 24.12421 23.87889
#
# Velocity S-wave (km/s) = 4.00053 4.04184 4.02124
# Velocity P-wave (km/s) = 6.24101 6.41318 6.32768
#
# Compressibility (1/GPa) = 0.03845166
#
# Stress axis : x y z
#
# Youngs Moduli (GPa) = 60.75799 60.75805 43.13792
#
# Poissons Ratio (x) = 0.33219 0.07239
# Poissons Ratio (y) = 0.33219 0.07239
# Poissons Ratio (z) = 0.10196 0.10196
#
# Static dielectric constant tensor:
#      x y z
#    x 2.759870 0.000000 0.000000 
#    y 0.000000 2.759870 0.000000 
#    z 0.000000 0.000000 2.919500 
# 
# 
# High freq. dielectric constant tensor:
#      x y z
#    x 1.540350 0.000000 0.000000 
#    y 0.000000 1.540350 0.000000 
#    z 0.000000 0.000000 1.585070 
# 
# From -- ./inp_files/491.got.cif
#   From: 2010.03.12/outbox.cif.g09.slc.cpg/sg174_cif.got.tgz:491.got - 2010.04.02 06:54:58.
