data_PCOD8324012
_publ_section_title
;
Structure prediction by ZEFSAII (Michael W. Deem and Ramdas Pophale) SiO2 
 PCOD8324012
Probable space group: R -3 M
;
_chemical_formula_sum "Si O2"
_cell_formula_units_Z 198
_cell_length_a 29.085028
_cell_length_b 29.085028
_cell_length_c 16.304335
_cell_angle_alpha 90.000000
_cell_angle_beta 90.000000
_cell_angle_gamma 120.000000
_cell_volume 11944.629800
_symmetry_space_group_name_H-M "R -3 M"
_symmetry_group_IT_number 166
_symmetry_cell_setting 'hexagonal'
loop_
_space_group_symop_operation_xyz
x,y,z
-y,x-y,z
-x+y,-x,z
x-y,-y,-z
-x,-x+y,-z
y,x,-z
-x,-y,-z
y,-x+y,-z
x-y,x,-z
-x+y,y,z
x,x-y,z
-y,-x,z
2/3+x,1/3+y,1/3+z
2/3-y,1/3+x-y,1/3+z
2/3-x+y,1/3-x,1/3+z
2/3+x-y,1/3-y,1/3-z
2/3-x,1/3-x+y,1/3-z
2/3+y,1/3+x,1/3-z
2/3-x,1/3-y,1/3-z
2/3+y,1/3-x+y,1/3-z
2/3+x-y,1/3+x,1/3-z
2/3-x+y,1/3+y,1/3+z
2/3+x,1/3+x-y,1/3+z
2/3-y,1/3-x,1/3+z
1/3+x,2/3+y,2/3+z
1/3-y,2/3+x-y,2/3+z
1/3-x+y,2/3-x,2/3+z
1/3+x-y,2/3-y,2/3-z
1/3-x,2/3-x+y,2/3-z
1/3+y,2/3+x,2/3-z
1/3-x,2/3-y,2/3-z
1/3+y,2/3-x+y,2/3-z
1/3+x-y,2/3+x,2/3-z
1/3-x+y,2/3+y,2/3+z
1/3+x,2/3+x-y,2/3+z
1/3-y,2/3-x,2/3+z
loop_
_atom_site_type_symbol
_atom_site_label
_atom_site_fract_x
_atom_site_fract_y
_atom_site_fract_z
Si Si1 0.350008 0.226198 0.841600
Si Si2 0.916216 0.727781 0.142587
Si Si3 0.749383 0.082717 0.666667
Si Si4 0.133968 0.621379 0.225556
Si Si5 0.977984 0.754687 0.296306
Si Si6 0.725628 0.640455 0.345818
O O1 0.342565 0.171283 0.875112
O O2 0.340677 0.222294 0.744941
O O3 0.410313 0.272774 0.854159
O O4 0.305614 0.234537 0.890462
O O5 0.873806 0.747612 0.152238
O O6 0.891434 0.666667 0.166667
O O7 0.967584 0.763304 0.200928
O O8 0.935558 0.734635 0.047264
O O9 0.693898 0.079452 0.647032
O O10 0.144940 0.572470 0.231026
O O11 0.178391 0.666667 0.166667
O O12 0.135260 0.645414 0.316216
O O13 0.926830 0.699098 0.321560
O O14 0.666667 0.631465 0.333334
#
# Coordination Sequence:
#
# PCOD8324012 Si02
#       6
#    36  36  18  36  36  36
#     4  10  21  32  45  64  93 127 156 190 234 281
#     4   9  17  29  43  60  83 113 152 194 241 283
#     4  12  19  30  46  64  98 120 162 192 230 284
#     4  10  19  34  50  68  92 119 155 192 238 287
#     4  10  19  29  45  68  88 118 149 197 236 275
#     4  10  18  29  44  63  87 116 155 197 237 275
#
# _framework density 16.576485999999999
#
# number of rings (size 3 to 8) (size 9 to 14) (size 15 to 20)
#    0.000    2.000    2.727    2.455    0.000    4.364 
#    0.000    0.000    0.000    0.182    0.000    0.000 
#    0.000    0.000    0.000    0.000    0.000    0.000 
#
# Total GULP energy -817683.979223 kJ/mol
# GULP energy per Si atom -12389.151200 kJ/mol
# Density = 1.653876 g / cm^3
# Si number density = 16.576486 Si / 1000 Ang^3
#
#
#
# Elastic Constant Matrix: (Units=GPa)
#
#
# Indices 1 2 3 4 5 6 
#
# 1 52.3762 22.4694 17.4540 6.3723 0.0000 0.0000
# 2 22.4694 52.3762 17.4539 -6.3723 0.0000 0.0000
# 3 17.4540 17.4539 89.6918 0.0000 0.0000 0.0000
# 4 6.3723 -6.3723 0.0000 20.7176 0.0000 0.0000
# 5 0.0000 0.0000 0.0000 0.0000 20.7176 6.3723
# 6 0.0000 0.0000 0.0000 0.0000 6.3723 14.9534
#
#
#
# Elastic Compliance Matrix: (Units=1/GPa)
#
#
# Indices 1 2 3 4 5 6 
#
# 1 0.026588 -0.011893 -0.002860 -0.011836 0.000000 0.000000
# 2 -0.011893 0.026588 -0.002860 0.011836 0.000000 0.000000
# 3 -0.002860 -0.002860 0.012262 0.000000 0.000000 0.000000
# 4 -0.011836 0.011836 0.000000 0.055549 0.000000 0.000000
# 5 0.000000 0.000000 0.000000 0.000000 0.055549 -0.023672
# 6 0.000000 0.000000 0.000000 0.000000 -0.023672 0.076962
#
#
# Mechanical properties :
#
#
# Convention : Reuss Voigt Hill
#
# Bulk Modulus (GPa) = 33.09822 34.35542 33.72682
# Shear Modulus (GPa) = 16.73393 20.41552 18.57473
#
# Velocity S-wave (km/s) = 3.18071 3.51322 3.35109
# Velocity P-wave (km/s) = 5.78788 6.10142 5.94671
#
# Compressibility (1/GPa) = 0.03021310
#
# Stress axis : x y z
#
# Youngs Moduli (GPa) = 37.61123 37.61123 81.55126
#
# Poissons Ratio (x) = 0.44732 0.23320
# Poissons Ratio (y) = 0.44732 0.23320
# Poissons Ratio (z) = 0.10755 0.10755
#
# Static dielectric constant tensor:
#      x y z
#    x 2.756350 0.000000 0.000000 
#    y 0.000000 2.756350 0.000000 
#    z 0.000000 0.000000 3.497920 
# 
# 
# High freq. dielectric constant tensor:
#      x y z
#    x 1.596450 0.000000 0.000000 
#    y 0.000000 1.596450 0.000000 
#    z 0.000000 0.000000 1.659040 
# 
# From -- ./inp_files/4304.got.cif
#   From: 2010.03.12/outbox.cif.g09.slc.cpg/sg166_3_cif.got.tgz:4304.got - 2010.04.02 06:38:31.
