data_PCOD8324014
_publ_section_title
;
Structure prediction by ZEFSAII (Michael W. Deem and Ramdas Pophale) SiO2 
 PCOD8324014
Probable space group: R -3 M
;
_chemical_formula_sum "Si O2"
_cell_formula_units_Z 216
_cell_length_a 24.169151
_cell_length_b 24.169151
_cell_length_c 26.072605
_cell_angle_alpha 90.000000
_cell_angle_beta 90.000000
_cell_angle_gamma 120.000000
_cell_volume 13189.788963
_symmetry_space_group_name_H-M "R -3 M"
_symmetry_group_IT_number 166
_symmetry_cell_setting 'hexagonal'
loop_
_space_group_symop_operation_xyz
x,y,z
-y,x-y,z
-x+y,-x,z
x-y,-y,-z
-x,-x+y,-z
y,x,-z
-x,-y,-z
y,-x+y,-z
x-y,x,-z
-x+y,y,z
x,x-y,z
-y,-x,z
2/3+x,1/3+y,1/3+z
2/3-y,1/3+x-y,1/3+z
2/3-x+y,1/3-x,1/3+z
2/3+x-y,1/3-y,1/3-z
2/3-x,1/3-x+y,1/3-z
2/3+y,1/3+x,1/3-z
2/3-x,1/3-y,1/3-z
2/3+y,1/3-x+y,1/3-z
2/3+x-y,1/3+x,1/3-z
2/3-x+y,1/3+y,1/3+z
2/3+x,1/3+x-y,1/3+z
2/3-y,1/3-x,1/3+z
1/3+x,2/3+y,2/3+z
1/3-y,2/3+x-y,2/3+z
1/3-x+y,2/3-x,2/3+z
1/3+x-y,2/3-y,2/3-z
1/3-x,2/3-x+y,2/3-z
1/3+y,2/3+x,2/3-z
1/3-x,2/3-y,2/3-z
1/3+y,2/3-x+y,2/3-z
1/3+x-y,2/3+x,2/3-z
1/3-x+y,2/3+y,2/3+z
1/3+x,2/3+x-y,2/3+z
1/3-y,2/3-x,2/3+z
loop_
_atom_site_type_symbol
_atom_site_label
_atom_site_fract_x
_atom_site_fract_y
_atom_site_fract_z
Si Si1 0.259159 0.864897 0.555851
Si Si2 0.729093 0.639859 0.088086
Si Si3 0.957909 0.693580 0.612829
Si Si4 0.574698 0.545179 0.691854
Si Si5 0.800099 0.072841 0.510980
Si Si6 0.570875 0.847740 0.817412
O O1 0.204152 0.795849 0.539619
O O2 0.255783 0.881526 0.615791
O O3 0.250017 0.917025 0.523071
O O4 0.322302 0.861012 0.543821
O O5 0.668209 0.647781 0.076115
O O6 0.710097 0.576445 0.121883
O O7 0.781130 0.695189 0.122793
O O8 0.763690 0.641575 0.035704
O O9 0.919682 0.666667 0.666667
O O10 0.916680 0.705210 0.570685
O O11 0.019748 0.762798 0.623847
O O12 0.528084 0.471917 0.711007
O O13 0.874137 0.125864 0.498345
O O14 0.784691 0.000000 0.500000
O O15 0.542759 0.771380 0.811686
#
# Coordination Sequence:
#
# PCOD8324014 Si02
#       6
#    36  36  36  36  36  36
#     4  10  20  32  48  67  94 126 161 197 234 284
#     4  10  18  30  42  69  97 122 156 190 236 279
#     4  10  19  30  48  67  98 130 153 196 235 282
#     4  10  18  29  45  65  92 127 161 190 226 275
#     4  11  20  34  52  72  97 127 162 198 239 294
#     4  11  19  29  46  66  93 124 156 194 241 285
#
# _framework density 16.376304000000001
#
# number of rings (size 3 to 8) (size 9 to 14) (size 15 to 20)
#    0.000    1.667    5.000    2.000    0.000    0.333 
#    0.000    0.000    0.000    0.500    0.000    0.000 
#    0.000    0.000    0.000   10.333    0.000    0.000 
#
# Total GULP energy -891953.092942 kJ/mol
# GULP energy per Si atom -12388.237402 kJ/mol
# Density = 1.633903 g / cm^3
# Si number density = 16.376304 Si / 1000 Ang^3
#
#
#
# Elastic Constant Matrix: (Units=GPa)
#
#
# Indices 1 2 3 4 5 6 
#
# 1 43.1573 11.4656 1.0546 -3.2417 0.0000 0.0000
# 2 11.4656 43.1573 1.0546 3.2417 0.0000 0.0000
# 3 1.0546 1.0546 88.7849 0.0000 0.0000 0.0000
# 4 -3.2417 3.2417 0.0000 15.1428 0.0000 0.0000
# 5 0.0000 0.0000 0.0000 0.0000 15.1428 -3.2417
# 6 0.0000 0.0000 0.0000 0.0000 -3.2417 15.8458
#
#
#
# Elastic Compliance Matrix: (Units=1/GPa)
#
#
# Indices 1 2 3 4 5 6 
#
# 1 0.025658 -0.007342 -0.000218 0.007064 0.000000 0.000000
# 2 -0.007342 0.025658 -0.000218 -0.007064 0.000000 0.000000
# 3 -0.000218 -0.000218 0.011268 0.000000 0.000000 0.000000
# 4 0.007064 -0.007064 0.000000 0.069062 0.000000 0.000000
# 5 0.000000 0.000000 0.000000 0.000000 0.069062 0.014129
# 6 0.000000 0.000000 0.000000 0.000000 0.014129 0.065999
#
#
# Mechanical properties :
#
#
# Convention : Reuss Voigt Hill
#
# Bulk Modulus (GPa) = 21.26321 22.47213 21.86767
# Shear Modulus (GPa) = 16.78207 19.99461 18.38834
#
# Velocity S-wave (km/s) = 3.20469 3.49800 3.35455
# Velocity P-wave (km/s) = 5.16775 5.48332 5.32787
#
# Compressibility (1/GPa) = 0.04702959
#
# Stress axis : x y z
#
# Youngs Moduli (GPa) = 38.97495 38.97495 88.74420
#
# Poissons Ratio (x) = 0.28615 0.01931
# Poissons Ratio (y) = 0.28615 0.01931
# Poissons Ratio (z) = 0.00848 0.00848
#
# Static dielectric constant tensor:
#      x y z
#    x 2.868410 0.000000 0.000000 
#    y 0.000000 2.868410 0.000000 
#    z 0.000000 0.000000 3.557440 
# 
# 
# High freq. dielectric constant tensor:
#      x y z
#    x 1.593770 0.000000 0.000000 
#    y 0.000000 1.593770 0.000000 
#    z 0.000000 0.000000 1.656690 
# 
# From -- ./inp_files/9737.got.cif
#   From: 2010.03.12/outbox.cif.g09.slc.cpg/sg166_5_cif.got.tgz:9737.got - 2010.04.02 06:38:31.
