data_PCOD8324803
_publ_section_title
;
Structure prediction by ZEFSAII (Michael W. Deem and Ramdas Pophale) SiO2 
 PCOD8324803
Probable space group: P 62
;
_chemical_formula_sum "Si O2"
_cell_formula_units_Z 36
_cell_length_a 11.478825
_cell_length_b 11.478825
_cell_length_c 13.690591
_cell_angle_alpha 90.000000
_cell_angle_beta 90.000000
_cell_angle_gamma 120.000000
_cell_volume 1562.239800
_symmetry_space_group_name_H-M "P 62"
_symmetry_group_IT_number 171
_symmetry_cell_setting 'hexagonal'
loop_
_space_group_symop_operation_xyz
x,y,z
x-y,x,1/3+z
-y,x-y,2/3+z
-x,-y,z
-x+y,-x,1/3+z
y,-x+y,2/3+z
loop_
_atom_site_type_symbol
_atom_site_label
_atom_site_fract_x
_atom_site_fract_y
_atom_site_fract_z
Si Si1 0.000000 0.500000 0.287980
Si Si2 0.102156 0.897844 0.287766
Si Si3 0.276060 0.383642 0.102843
Si Si4 0.000000 0.500000 0.954219
Si Si5 0.276060 0.892418 0.139357
Si Si6 0.607087 0.214175 0.454433
Si Si7 0.205210 0.000001 0.954433
O O1 0.994574 0.384937 0.358702
O O2 0.869743 0.443762 0.220476
O O3 0.166418 0.870584 0.384581
O O4 0.129416 0.833583 0.190951
O O5 0.943290 0.820318 0.308073
O O6 0.179681 0.056710 0.267460
O O7 0.304434 0.535058 0.121812
O O8 0.279266 0.306722 0.199064
O O9 0.994574 0.609637 0.883497
O O10 0.869743 0.425981 0.021724
O O11 0.304434 0.769376 0.120387
O O12 0.279267 0.972546 0.043136
#
# Coordination Sequence:
#
# PCOD8324803 Si02
#       7
#     3   6   6   3   6   6   6
#     4  11  24  45  70  98 136 191 242 289 352 442
#     4  11  22  46  70 106 140 183 232 300 372 437
#     4  12  24  47  68 107 139 189 240 296 364 437
#     4  11  24  45  70  98 136 191 242 289 352 442
#     4  12  24  47  68 107 139 189 240 296 364 437
#     4  11  24  46  74  96 140 194 241 290 356 461
#     4  11  26  41  74 106 146 175 234 309 368 428
#
# _framework density 23.043835999999999
#
# number of rings (size 3 to 8) (size 9 to 14) (size 15 to 20)
#    0.000    0.667    3.333    4.000    4.667    3.333 
#   18.000    0.000    0.000    0.000    0.000    0.000 
#    0.000    0.000    0.000    0.000    0.000    0.000 
#
# Total GULP energy -446299.713745 kJ/mol
# GULP energy per Si atom -12397.214271 kJ/mol
# Density = 2.299139 g / cm^3
# Si number density = 23.043836 Si / 1000 Ang^3
#
#
#
# Elastic Constant Matrix: (Units=GPa)
#
#
# Indices 1 2 3 4 5 6 
#
# 1 96.3645 42.2984 61.3268 0.0000 0.0000 0.0000
# 2 42.2984 96.3645 61.3268 0.0000 0.0000 0.0000
# 3 61.3268 61.3268 190.8910 0.0000 0.0000 0.0000
# 4 0.0000 0.0000 0.0000 41.3295 0.0000 0.0000
# 5 0.0000 0.0000 0.0000 0.0000 41.3295 0.0000
# 6 0.0000 0.0000 0.0000 0.0000 0.0000 27.0331
#
#
#
# Elastic Compliance Matrix: (Units=1/GPa)
#
#
# Indices 1 2 3 4 5 6 
#
# 1 0.014285 -0.004211 -0.003237 0.000000 0.000000 0.000000
# 2 -0.004211 0.014285 -0.003237 0.000000 0.000000 0.000000
# 3 -0.003237 -0.003237 0.007318 0.000000 0.000000 0.000000
# 4 0.000000 0.000000 0.000000 0.024196 0.000000 0.000000
# 5 0.000000 0.000000 0.000000 0.000000 0.024196 0.000000
# 6 0.000000 0.000000 0.000000 0.000000 0.000000 0.036992
#
#
# Mechanical properties :
#
#
# Convention : Reuss Voigt Hill
#
# Bulk Modulus (GPa) = 68.86567 79.28042 74.07304
# Shear Modulus (GPa) = 33.90284 36.51629 35.20956
#
# Velocity S-wave (km/s) = 3.83983 3.98508 3.91313
# Velocity P-wave (km/s) = 7.04333 7.46012 7.25472
#
# Compressibility (1/GPa) = 0.01452102
#
# Stress axis : x y z
#
# Youngs Moduli (GPa) = 70.00209 70.00209 136.64470
#
# Poissons Ratio (x) = 0.29475 0.44227
# Poissons Ratio (y) = 0.29475 0.44227
# Poissons Ratio (z) = 0.22657 0.22657
#
# Static dielectric constant tensor:
#      x y z
#    x 4.110160 0.000000 0.000000 
#    y 0.000000 4.110160 0.000000 
#    z 0.000000 0.000000 4.266930 
# 
# 
# High freq. dielectric constant tensor:
#      x y z
#    x 1.901780 0.000000 0.000000 
#    y 0.000000 1.901780 0.000000 
#    z 0.000000 0.000000 1.926050 
# 
# From -- ./inp_files/1970.got.cif
#   From: 2010.03.12/outbox.cif.g09.slc.cpg/sg171_1_cif.got.tgz:1970.got - 2010.04.02 06:49:11.
