data_PCOD8324917
_publ_section_title
;
Structure prediction by ZEFSAII (Michael W. Deem and Ramdas Pophale) SiO2 
 PCOD8324917
Probable space group: P -6
;
_chemical_formula_sum "Si O2"
_cell_formula_units_Z 38
_cell_length_a 14.428247
_cell_length_b 14.428247
_cell_length_c 12.406622
_cell_angle_alpha 90.000000
_cell_angle_beta 90.000000
_cell_angle_gamma 120.000000
_cell_volume 2236.718445
_symmetry_space_group_name_H-M "P -6"
_symmetry_group_IT_number 174
_symmetry_cell_setting 'hexagonal'
loop_
_space_group_symop_operation_xyz
x,y,z
-x+y,-x,-z
-y,x-y,z
x,y,-z
-x+y,-x,z
-y,x-y,-z
loop_
_atom_site_type_symbol
_atom_site_label
_atom_site_fract_x
_atom_site_fract_y
_atom_site_fract_z
Si Si1 0.160223 0.924495 0.000000
Si Si2 0.333335 0.666668 0.627564
Si Si3 0.843087 0.077693 0.000000
Si Si4 0.079039 0.246886 0.233678
Si Si5 0.556175 0.688671 0.628079
Si Si6 0.834860 0.566209 0.372003
Si Si7 0.839521 0.080065 0.233330
Si Si8 0.902020 0.399254 0.627389
O O1 0.216531 0.923186 0.886805
O O2 0.148121 0.030124 0.000000
O O3 0.047752 0.819430 0.000000
O O4 0.333334 0.666668 0.500000
O O5 0.444159 0.676453 0.668716
O O6 0.818059 0.116059 0.114154
O O7 0.137094 0.345939 0.315558
O O8 0.140258 0.179575 0.229275
O O9 0.959376 0.163483 0.273303
O O10 0.569641 0.706173 0.500000
O O11 0.560428 0.583460 0.664973
O O12 0.844379 0.577486 0.500000
O O13 0.920747 0.677585 0.319536
O O14 0.862877 0.478334 0.328532
O O15 0.718462 0.538347 0.328322
O O16 0.895409 0.396119 0.500000
#
# Coordination Sequence:
#
# PCOD8324917 Si02
#       8
#     3   2   3   6   6   6   6   6
#     4   8  15  28  48  71  95 131 167 200 236 288
#     4   9  21  36  51  70  95 136 180 210 244 290
#     4   8  15  28  46  69  97 129 165 198 232 288
#     4  10  19  32  51  75 105 132 164 200 247 301
#     4  10  20  35  52  72  99 131 170 214 250 293
#     4  10  19  32  51  75  99 128 163 203 252 298
#     4  10  19  31  50  75 103 132 161 198 246 301
#     4   9  18  32  50  72 100 128 161 201 244 298
#
# _framework density 16.989173999999998
#
# number of rings (size 3 to 8) (size 9 to 14) (size 15 to 20)
#    0.000    2.526    1.579    0.789    2.211    4.421 
#    0.000    0.000    0.000    4.737    0.000    0.000 
#    0.000    0.000    0.000    0.000    0.000    0.000 
#
# Total GULP energy -470833.816533 kJ/mol
# GULP energy per Si atom -12390.363593 kJ/mol
# Density = 1.695051 g / cm^3
# Si number density = 16.989174 Si / 1000 Ang^3
#
#
#
# Elastic Constant Matrix: (Units=GPa)
#
#
# Indices 1 2 3 4 5 6 
#
# 1 91.3137 31.3371 30.5469 0.0000 0.0000 0.0001
# 2 31.3371 91.3126 30.5471 0.0000 0.0000 -0.0002
# 3 30.5469 30.5471 55.0094 0.0000 0.0000 -0.0001
# 4 0.0000 0.0000 0.0000 15.1107 0.0000 0.0000
# 5 0.0000 0.0000 0.0000 0.0000 15.1105 0.0000
# 6 0.0001 -0.0002 -0.0001 0.0000 0.0000 29.9879
#
#
#
# Elastic Compliance Matrix: (Units=1/GPa)
#
#
# Indices 1 2 3 4 5 6 
#
# 1 0.013972 -0.002701 -0.006259 0.000000 0.000000 0.000000
# 2 -0.002701 0.013972 -0.006259 0.000000 0.000000 0.000000
# 3 -0.006259 -0.006259 0.025130 0.000000 0.000000 0.000000
# 4 0.000000 0.000000 0.000000 0.066178 0.000000 0.000000
# 5 0.000000 0.000000 0.000000 0.000000 0.066179 0.000000
# 6 0.000000 0.000000 0.000000 0.000000 0.000000 0.033347
#
#
# Mechanical properties :
#
#
# Convention : Reuss Voigt Hill
#
# Bulk Modulus (GPa) = 44.17663 46.94422 45.56043
# Shear Modulus (GPa) = 19.47335 21.72213 20.59774
#
# Velocity S-wave (km/s) = 3.38926 3.57961 3.48574
# Velocity P-wave (km/s) = 6.43237 6.69154 6.56323
#
# Compressibility (1/GPa) = 0.02263640
#
# Stress axis : x y z
#
# Youngs Moduli (GPa) = 71.57196 71.57068 39.79349
#
# Poissons Ratio (x) = 0.19333 0.24905
# Poissons Ratio (y) = 0.19333 0.24906
# Poissons Ratio (z) = 0.44795 0.44795
#
# Static dielectric constant tensor:
#      x y z
#    x 3.130460 0.000000 0.000000 
#    y 0.000000 3.130470 0.000000 
#    z 0.000000 0.000000 3.216510 
# 
# 
# High freq. dielectric constant tensor:
#      x y z
#    x 1.646270 0.000000 0.000000 
#    y 0.000000 1.646270 0.000000 
#    z 0.000000 0.000000 1.636440 
# 
# From -- ./inp_files/750.got.cif
#   From: 2010.03.12/outbox.cif.g09.slc.cpg/sg174_cif.got.tgz:750.got - 2010.04.02 06:54:58.
