data_PCOD8324292
_publ_section_title
;
Structure prediction by ZEFSAII (Michael W. Deem and Ramdas Pophale) SiO2 
 PCOD8324292
Probable space group: R -3 C 
;
_chemical_formula_sum "Si O2"
_cell_formula_units_Z 252
_cell_length_a 27.271797
_cell_length_b 27.271797
_cell_length_c 17.840593
_cell_angle_alpha 90.000000
_cell_angle_beta 90.000000
_cell_angle_gamma 120.000000
_cell_volume 11491.254110
_symmetry_space_group_name_H-M "R -3 C "
_symmetry_group_IT_number 167
_symmetry_cell_setting 'hexagonal'
loop_
_space_group_symop_operation_xyz
x,y,z
-y,x-y,z
-x+y,-x,z
x-y,-y,1/2-z
-x,-x+y,1/2-z
y,x,1/2-z
-x,-y,-z
y,-x+y,-z
x-y,x,-z
-x+y,y,1/2+z
x,x-y,1/2+z
-y,-x,1/2+z
2/3+x,1/3+y,1/3+z
2/3-y,1/3+x-y,1/3+z
2/3-x+y,1/3-x,1/3+z
2/3+x-y,1/3-y,5/6-z
2/3-x,1/3-x+y,5/6-z
2/3+y,1/3+x,5/6-z
2/3-x,1/3-y,1/3-z
2/3+y,1/3-x+y,1/3-z
2/3+x-y,1/3+x,1/3-z
2/3-x+y,1/3+y,5/6+z
2/3+x,1/3+x-y,5/6+z
2/3-y,1/3-x,5/6+z
1/3+x,2/3+y,2/3+z
1/3-y,2/3+x-y,2/3+z
1/3-x+y,2/3-x,2/3+z
1/3+x-y,2/3-y,1/6-z
1/3-x,2/3-x+y,1/6-z
1/3+y,2/3+x,1/6-z
1/3-x,2/3-y,2/3-z
1/3+y,2/3-x+y,2/3-z
1/3+x-y,2/3+x,2/3-z
1/3-x+y,2/3+y,1/6+z
1/3+x,2/3+x-y,1/6+z
1/3-y,2/3-x,1/6+z
loop_
_atom_site_type_symbol
_atom_site_label
_atom_site_fract_x
_atom_site_fract_y
_atom_site_fract_z
Si Si1 0.876997 0.315112 0.849036
Si Si2 0.566528 0.413160 0.188938
Si Si3 0.109602 0.106330 0.526929
Si Si4 0.673868 0.148946 0.664919
Si Si5 0.723864 0.901291 0.539186
Si Si6 0.814162 0.693665 0.075930
Si Si7 0.422635 0.206989 0.620802
O O1 0.816513 0.312279 0.839847
O O2 0.891048 0.325857 0.937646
O O3 0.923708 0.366372 0.799501
O O4 0.881375 0.261691 0.819952
O O5 0.560877 0.354653 0.221177
O O6 0.631720 0.457145 0.170482
O O7 0.545609 0.440519 0.252975
O O8 0.530253 0.405850 0.112212
O O9 0.104252 0.044697 0.525240
O O10 0.666667 0.120053 0.583334
O O11 0.737840 0.201834 0.670231
O O12 0.666667 0.868155 0.583334
O O13 0.714474 0.877259 0.454855
O O14 0.781541 0.625970 0.084994
O O15 0.820196 0.725486 0.155814
#
# Coordination Sequence:
#
# PCOD8324292 Si02
#       7
#    36  36  36  36  36  36  36
#     4  11  21  38  64  91 123 172 216 270 329 401
#     4  10  20  37  61  90 120 167 214 265 334 395
#     4  11  22  38  64  97 130 172 230 280 334 407
#     4  10  19  34  59  91 121 153 209 266 319 389
#     4  11  20  35  60  87 120 162 212 258 316 397
#     4  11  21  38  65  90 126 166 222 270 330 406
#     4  10  22  37  62  96 122 164 215 279 330 397
#
# _framework density 21.929721000000001
#
# number of rings (size 3 to 8) (size 9 to 14) (size 15 to 20)
#    0.000    1.429    5.714    1.000    0.000    0.000 
#    0.000    5.000    0.000    0.000    0.000    2.000 
#    0.000    0.000    0.000    0.000    0.000    0.000 
#
# Total GULP energy -1040733.407324 kJ/mol
# GULP energy per Si atom -12389.683421 kJ/mol
# Density = 2.187981 g / cm^3
# Si number density = 21.929721 Si / 1000 Ang^3
#
#
#
# Elastic Constant Matrix: (Units=GPa)
#
#
# Indices 1 2 3 4 5 6 
#
# 1 58.4481 16.7593 17.3152 2.3496 -0.0001 0.0000
# 2 16.7593 58.4481 17.3152 -2.3496 0.0001 0.0000
# 3 17.3152 17.3152 132.8012 0.0000 0.0000 0.0000
# 4 2.3496 -2.3496 0.0000 31.2479 0.0000 0.0001
# 5 -0.0001 0.0001 0.0000 0.0000 31.2479 2.3496
# 6 0.0000 0.0000 0.0000 0.0001 2.3496 20.8444
#
#
#
# Elastic Compliance Matrix: (Units=1/GPa)
#
#
# Indices 1 2 3 4 5 6 
#
# 1 0.019169 -0.005023 -0.001844 -0.001819 0.000000 0.000000
# 2 -0.005023 0.019169 -0.001844 0.001819 0.000000 0.000000
# 3 -0.001844 -0.001844 0.008011 0.000000 0.000000 0.000000
# 4 -0.001819 0.001819 0.000000 0.032276 0.000000 0.000000
# 5 0.000000 0.000000 0.000000 0.000000 0.032276 -0.003638
# 6 0.000000 0.000000 0.000000 0.000000 -0.003638 0.048385
#
#
# Mechanical properties :
#
#
# Convention : Reuss Voigt Hill
#
# Bulk Modulus (GPa) = 34.57203 39.16409 36.86806
# Shear Modulus (GPa) = 26.83109 29.88856 28.35983
#
# Velocity S-wave (km/s) = 3.50166 3.69579 3.60003
# Velocity P-wave (km/s) = 5.66992 6.00911 5.84198
#
# Compressibility (1/GPa) = 0.02892512
#
# Stress axis : x y z
#
# Youngs Moduli (GPa) = 52.16733 52.16733 124.82816
#
# Poissons Ratio (x) = 0.26205 0.23023
# Poissons Ratio (y) = 0.26205 0.23023
# Poissons Ratio (z) = 0.09622 0.09622
#
# Static dielectric constant tensor:
#      x y z
#    x 3.749500 0.000000 0.000000 
#    y 0.000000 3.749500 0.000000 
#    z 0.000000 0.000000 4.369360 
# 
# 
# High freq. dielectric constant tensor:
#      x y z
#    x 1.834500 0.000000 0.000000 
#    y 0.000000 1.834500 0.000000 
#    z 0.000000 0.000000 1.878720 
# 
# From -- ./inp_files/3691.got.cif
#   From: 2010.03.12/outbox.cif.g09.slc.cpg/sg167_2_cif.got.tgz:3691.got - 2010.04.02 06:42:56.
