data_PCOD8324896
_publ_section_title
;
Structure prediction by ZEFSAII (Michael W. Deem and Ramdas Pophale) SiO2 
 PCOD8324896
Probable space group: P -6
;
_chemical_formula_sum "Si O2"
_cell_formula_units_Z 40
_cell_length_a 15.658716
_cell_length_b 15.658716
_cell_length_c 13.539605
_cell_angle_alpha 90.000000
_cell_angle_beta 90.000000
_cell_angle_gamma 120.000000
_cell_volume 2875.073298
_symmetry_space_group_name_H-M "P -6"
_symmetry_group_IT_number 174
_symmetry_cell_setting 'hexagonal'
loop_
_space_group_symop_operation_xyz
x,y,z
-x+y,-x,-z
-y,x-y,z
x,y,-z
-x+y,-x,z
-y,x-y,-z
loop_
_atom_site_type_symbol
_atom_site_label
_atom_site_fract_x
_atom_site_fract_y
_atom_site_fract_z
Si Si1 0.014958 0.854298 0.736851
Si Si2 0.260737 0.385413 0.735637
Si Si3 0.000000 0.000000 0.120335
Si Si4 0.333334 0.666668 0.383836
Si Si5 0.974928 0.160116 0.615204
Si Si6 0.087148 0.380416 0.613300
Si Si7 0.242795 0.695175 0.113260
Si Si8 0.468424 0.889271 0.615365
O O1 0.910340 0.790748 0.681426
O O2 0.051421 0.778611 0.766521
O O3 0.007406 0.907117 0.836825
O O4 0.084669 0.933343 0.655597
O O5 0.181330 0.396570 0.672262
O O6 0.281460 0.448077 0.833741
O O7 0.363360 0.427834 0.673658
O O8 0.000000 0.000000 0.000000
O O9 0.333334 0.666668 0.500000
O O10 0.370594 0.594166 0.344984
O O11 0.958716 0.130193 0.500000
O O12 0.994788 0.271233 0.630302
O O13 0.122298 0.397064 0.500000
O O14 0.056819 0.462460 0.641845
O O15 0.226579 0.585457 0.137286
O O16 0.221278 0.702174 0.000000
O O17 0.491656 0.896123 0.500000
#
# Coordination Sequence:
#
# PCOD8324896 Si02
#       8
#     6   6   2   2   6   6   6   6
#     4   9  19  28  41  65  75  94 142 171 201 258
#     4  11  17  24  40  58  81 104 131 174 206 223
#     4   9  18  36  49  53  73 102 129 171 220 254
#     4   9  15  21  30  48  82 116 139 156 174 216
#     4   9  16  28  41  53  80 109 130 167 208 240
#     4   9  17  25  35  55  80 111 139 157 192 243
#     4   8  17  29  38  52  77 113 146 158 179 236
#     4  10  17  23  33  56  86 113 139 160 185 232
#
# _framework density 13.912687999999999
#
# number of rings (size 3 to 8) (size 9 to 14) (size 15 to 20)
#    0.300    2.400    1.500    2.100    0.000    2.400 
#    0.000    0.000    0.000    0.000    0.000    0.000 
#    1.500    0.000    0.900    0.000    0.000    0.000 
#
# Total GULP energy -495629.283317 kJ/mol
# GULP energy per Si atom -12390.732083 kJ/mol
# Density = 1.388102 g / cm^3
# Si number density = 13.912688 Si / 1000 Ang^3
#
#
#
# Elastic Constant Matrix: (Units=GPa)
#
#
# Indices 1 2 3 4 5 6 
#
# 1 75.8037 42.3457 40.2407 0.0000 0.0000 0.0001
# 2 42.3457 75.8043 40.2408 0.0000 0.0000 0.0001
# 3 40.2407 40.2408 79.8936 0.0000 0.0000 0.0002
# 4 0.0000 0.0000 0.0000 16.1899 0.0000 0.0000
# 5 0.0000 0.0000 0.0000 0.0000 16.1897 0.0000
# 6 0.0001 0.0001 0.0002 0.0000 0.0000 16.7291
#
#
#
# Elastic Compliance Matrix: (Units=1/GPa)
#
#
# Indices 1 2 3 4 5 6 
#
# 1 0.021386 -0.008502 -0.006490 0.000000 0.000000 0.000000
# 2 -0.008502 0.021386 -0.006490 0.000000 0.000000 0.000000
# 3 -0.006490 -0.006490 0.019054 0.000000 0.000000 0.000000
# 4 0.000000 0.000000 0.000000 0.061767 0.000000 0.000000
# 5 0.000000 0.000000 0.000000 0.000000 0.061768 0.000000
# 6 0.000000 0.000000 0.000000 0.000000 0.000000 0.059776
#
#
# Mechanical properties :
#
#
# Convention : Reuss Voigt Hill
#
# Bulk Modulus (GPa) = 53.00985 53.01733 53.01359
# Shear Modulus (GPa) = 16.98442 17.06670 17.02556
#
# Velocity S-wave (km/s) = 3.49777 3.50623 3.50200
# Velocity P-wave (km/s) = 7.38221 7.38792 7.38507
#
# Compressibility (1/GPa) = 0.01886442
#
# Stress axis : x y z
#
# Youngs Moduli (GPa) = 46.75890 46.75928 52.48231
#
# Poissons Ratio (x) = 0.39754 0.34059
# Poissons Ratio (y) = 0.39753 0.34059
# Poissons Ratio (z) = 0.30345 0.30345
#
# Static dielectric constant tensor:
#      x y z
#    x 2.708680 0.000000 0.000000 
#    y 0.000000 2.708670 0.000000 
#    z 0.000000 0.000000 2.650240 
# 
# 
# High freq. dielectric constant tensor:
#      x y z
#    x 1.504740 0.000000 0.000000 
#    y 0.000000 1.504740 0.000000 
#    z 0.000000 0.000000 1.530010 
# 
# From -- ./inp_files/938.got.cif
#   From: 2010.03.12/outbox.cif.g09.slc.cpg/sg174_cif.got.tgz:938.got - 2010.04.02 06:54:58.
