data_PCOD8324697
_publ_section_title
;
Structure prediction by ZEFSAII (Michael W. Deem and Ramdas Pophale) SiO2 
 PCOD8324697
Probable space group: P 65
;
_chemical_formula_sum "Si O2"
_cell_formula_units_Z 48
_cell_length_a 17.297255
_cell_length_b 17.297255
_cell_length_c 8.797670
_cell_angle_alpha 90.000000
_cell_angle_beta 90.000000
_cell_angle_gamma 120.000000
_cell_volume 2279.568647
_symmetry_space_group_name_H-M "P 65"
_symmetry_group_IT_number 170
_symmetry_cell_setting 'hexagonal'
loop_
_space_group_symop_operation_xyz
x,y,z
x-y,x,5/6+z
-y,x-y,2/3+z
-x,-y,1/2+z
-x+y,-x,1/3+z
y,-x+y,1/6+z
loop_
_atom_site_type_symbol
_atom_site_label
_atom_site_fract_x
_atom_site_fract_y
_atom_site_fract_z
Si Si1 0.869967 0.573259 0.375000
Si Si2 0.424273 0.007879 0.963001
Si Si3 0.376495 0.621467 0.564029
Si Si4 0.374826 0.154747 0.500034
Si Si5 0.228176 0.657434 0.569821
Si Si6 0.289111 0.944573 0.517481
Si Si7 0.427009 0.906602 0.694328
Si Si8 0.428385 0.166844 0.832015
O O1 0.928008 0.574925 0.231277
O O2 0.805939 0.477573 0.457884
O O3 0.930507 0.638824 0.505049
O O4 0.807979 0.608300 0.303457
O O5 0.469307 0.974373 0.837456
O O6 0.386472 0.061293 0.864835
O O7 0.499768 0.078297 0.072082
O O8 0.334105 0.687994 0.549535
O O9 0.386260 0.582795 0.401943
O O10 0.314577 0.537041 0.671700
O O11 0.464999 0.195596 0.393289
O O12 0.312852 0.190286 0.421642
O O13 0.399745 0.189971 0.671818
O O14 0.319340 0.048193 0.521204
O O15 0.189430 0.583555 0.435654
O O16 0.349394 0.917324 0.617979
#
# Coordination Sequence:
#
# PCOD8324697 Si02
#       8
#     6   6   6   6   6   6   6   6
#     4  12  26  41  63  97 129 181 234 289 345 406
#     4  12  23  40  64  89 132 180 237 293 338 414
#     4  11  21  40  57  86 126 182 234 288 327 388
#     4  11  26  48  68  99 131 184 223 290 357 428
#     4  11  23  38  62  87 133 176 240 282 334 400
#     4  12  27  45  71  97 136 174 232 290 360 424
#     4  12  22  41  63  93 132 187 231 288 339 406
#     4  11  24  41  64  90 129 174 233 282 346 406
#
# _framework density 21.056616000000002
#
# number of rings (size 3 to 8) (size 9 to 14) (size 15 to 20)
#    0.000    0.500    3.750    6.000    5.250    1.000 
#    0.000    0.000    0.000    0.000    0.000    1.750 
#    0.000    0.000    0.000    0.000    0.000    0.000 
#
# Total GULP energy -594801.185025 kJ/mol
# GULP energy per Si atom -12391.691355 kJ/mol
# Density = 2.100869 g / cm^3
# Si number density = 21.056616 Si / 1000 Ang^3
#
#
#
# Elastic Constant Matrix: (Units=GPa)
#
#
# Indices 1 2 3 4 5 6 
#
# 1 80.0362 39.0081 21.2260 0.0000 0.0000 0.0000
# 2 39.0081 80.0362 21.2260 0.0000 0.0000 0.0000
# 3 21.2260 21.2260 104.1681 0.0000 0.0000 0.0000
# 4 0.0000 0.0000 0.0000 32.7132 0.0000 0.0000
# 5 0.0000 0.0000 0.0000 0.0000 32.7132 0.0000
# 6 0.0000 0.0000 0.0000 0.0000 0.0000 20.5140
#
#
#
# Elastic Compliance Matrix: (Units=1/GPa)
#
#
# Indices 1 2 3 4 5 6 
#
# 1 0.016716 -0.007658 -0.001846 0.000000 0.000000 0.000000
# 2 -0.007658 0.016716 -0.001846 0.000000 0.000000 0.000000
# 3 -0.001846 -0.001846 0.010352 0.000000 0.000000 0.000000
# 4 0.000000 0.000000 0.000000 0.030569 0.000000 0.000000
# 5 0.000000 0.000000 0.000000 0.000000 0.030569 0.000000
# 6 0.000000 0.000000 0.000000 0.000000 0.000000 0.048747
#
#
# Mechanical properties :
#
#
# Convention : Reuss Voigt Hill
#
# Bulk Modulus (GPa) = 47.42534 47.46229 47.44382
# Shear Modulus (GPa) = 27.26349 29.37346 28.31848
#
# Velocity S-wave (km/s) = 3.60220 3.73899 3.67123
# Velocity P-wave (km/s) = 6.31449 6.42101 6.36797
#
# Compressibility (1/GPa) = 0.02108577
#
# Stress axis : x y z
#
# Youngs Moduli (GPa) = 59.82290 59.82290 96.59876
#
# Poissons Ratio (x) = 0.45810 0.17830
# Poissons Ratio (y) = 0.45810 0.17830
# Poissons Ratio (z) = 0.11042 0.11042
#
# Static dielectric constant tensor:
#      x y z
#    x 3.667370 0.000000 0.000000 
#    y 0.000000 3.667370 0.000000 
#    z 0.000000 0.000000 4.164690 
# 
# 
# High freq. dielectric constant tensor:
#      x y z
#    x 1.790490 0.000000 0.000000 
#    y 0.000000 1.790490 0.000000 
#    z 0.000000 0.000000 1.862160 
# 
# From -- ./inp_files/771.got.cif
#   From: 2010.03.12/outbox.cif.g09.slc.cpg/sg170_cif.got.tgz:771.got - 2010.04.02 06:47:37.
