data_PCOD8324071
_publ_section_title
;
Structure prediction by ZEFSAII (Michael W. Deem and Ramdas Pophale) SiO2 
 PCOD8324071
Probable space group: R -3 M
;
_chemical_formula_sum "Si O2"
_cell_formula_units_Z 234
_cell_length_a 26.160628
_cell_length_b 26.160628
_cell_length_c 22.274361
_cell_angle_alpha 90.000000
_cell_angle_beta 90.000000
_cell_angle_gamma 120.000000
_cell_volume 13201.771640
_symmetry_space_group_name_H-M "R -3 M"
_symmetry_group_IT_number 166
_symmetry_cell_setting 'hexagonal'
loop_
_space_group_symop_operation_xyz
x,y,z
-y,x-y,z
-x+y,-x,z
x-y,-y,-z
-x,-x+y,-z
y,x,-z
-x,-y,-z
y,-x+y,-z
x-y,x,-z
-x+y,y,z
x,x-y,z
-y,-x,z
2/3+x,1/3+y,1/3+z
2/3-y,1/3+x-y,1/3+z
2/3-x+y,1/3-x,1/3+z
2/3+x-y,1/3-y,1/3-z
2/3-x,1/3-x+y,1/3-z
2/3+y,1/3+x,1/3-z
2/3-x,1/3-y,1/3-z
2/3+y,1/3-x+y,1/3-z
2/3+x-y,1/3+x,1/3-z
2/3-x+y,1/3+y,1/3+z
2/3+x,1/3+x-y,1/3+z
2/3-y,1/3-x,1/3+z
1/3+x,2/3+y,2/3+z
1/3-y,2/3+x-y,2/3+z
1/3-x+y,2/3-x,2/3+z
1/3+x-y,2/3-y,2/3-z
1/3-x,2/3-x+y,2/3-z
1/3+y,2/3+x,2/3-z
1/3-x,2/3-y,2/3-z
1/3+y,2/3-x+y,2/3-z
1/3+x-y,2/3+x,2/3-z
1/3-x+y,2/3+y,2/3+z
1/3+x,2/3+x-y,2/3+z
1/3-y,2/3-x,2/3+z
loop_
_atom_site_type_symbol
_atom_site_label
_atom_site_fract_x
_atom_site_fract_y
_atom_site_fract_z
Si Si1 0.749997 0.092874 0.443175
Si Si2 0.666667 0.219425 0.833334
Si Si3 0.081406 0.598269 0.662738
Si Si4 0.932873 0.179741 0.643822
Si Si5 0.663516 0.718007 0.767705
Si Si6 0.453748 0.282320 0.932714
Si Si7 0.736721 0.097193 0.577006
O O1 0.756431 0.140214 0.393686
O O2 0.685331 0.037696 0.440879
O O3 0.796335 0.071367 0.432567
O O4 0.758308 0.121046 0.509673
O O5 0.614683 0.229366 0.859365
O O6 0.692326 0.196346 0.883773
O O7 0.104190 0.552095 0.645301
O O8 0.135289 0.666667 0.666667
O O9 0.032360 0.592306 0.614371
O O10 0.885450 0.114551 0.618738
O O11 0.937925 0.230482 0.598700
O O12 0.910205 0.182309 0.710440
O O13 0.999571 0.192446 0.648465
O O14 0.666667 0.747157 0.833334
O O15 0.727237 0.728746 0.748176
O O16 0.450282 0.225141 0.964721
#
# Coordination Sequence:
#
# PCOD8324071 Si02
#       7
#    36  18  36  36  36  36  36
#     4  10  19  32  51  76 102 131 164 204 252 306
#     4  10  21  34  48  66  92 128 173 224 272 310
#     4  10  21  35  54  78 106 139 171 208 250 300
#     4  11  22  33  47  69 100 135 172 218 260 301
#     4   9  18  32  52  76 106 139 165 199 244 304
#     4  11  21  32  49  70  94 130 174 220 262 309
#     4  10  19  32  50  73 102 135 166 201 253 311
#
# _framework density 17.724893999999999
#
# number of rings (size 3 to 8) (size 9 to 14) (size 15 to 20)
#    0.000    1.846    1.538    3.769    5.385    4.000 
#    0.000    0.000    0.000    4.154    0.000    0.000 
#    0.000    0.000    0.000    5.231    0.000    0.000 
#
# Total GULP energy -966384.283740 kJ/mol
# GULP energy per Si atom -12389.542099 kJ/mol
# Density = 1.768455 g / cm^3
# Si number density = 17.724894 Si / 1000 Ang^3
#
#
#
# Elastic Constant Matrix: (Units=GPa)
#
#
# Indices 1 2 3 4 5 6 
#
# 1 49.1879 94.6957 36.9157 0.7870 -0.0003 0.0000
# 2 94.6957 49.1879 36.9157 -0.7870 0.0003 0.0000
# 3 36.9157 36.9157 103.0645 0.0000 0.0000 0.0000
# 4 0.7870 -0.7870 0.0000 12.0266 0.0000 0.0003
# 5 -0.0003 0.0003 0.0000 0.0000 12.0266 0.7870
# 6 0.0000 0.0000 0.0000 0.0003 0.7870 -22.7539
#
#
#
# Elastic Compliance Matrix: (Units=1/GPa)
#
#
# Indices 1 2 3 4 5 6 
#
# 1 -0.006705 0.015220 -0.003050 0.001435 -0.000001 0.000000
# 2 0.015220 -0.006705 -0.003050 -0.001435 0.000001 0.000000
# 3 -0.003050 -0.003050 0.011888 0.000000 0.000000 0.000000
# 4 0.001435 -0.001435 0.000000 0.082961 0.000000 0.000001
# 5 -0.000001 0.000001 0.000000 0.000000 0.082961 0.002870
# 6 0.000000 0.000000 0.000000 0.000001 0.002870 -0.043849
#
#
# Mechanical properties :
#
#
# Convention : Reuss Voigt Hill
#
# Bulk Modulus (GPa) = 59.81600 59.83274 59.82437
# Shear Modulus (GPa) = 46.34602 2.45406 24.40004
#
# Velocity S-wave (km/s) = 5.11900 1.17794 3.71428
# Velocity P-wave (km/s) = 8.29211 5.97325 7.22630
#
# Compressibility (1/GPa) = 0.01671793
#
# Stress axis : x y z
#
# Youngs Moduli (GPa) = -149.14741 -149.14741 84.12179
#
# Poissons Ratio (x) = 2.27000 0.25657
# Poissons Ratio (y) = 2.27000 0.25657
# Poissons Ratio (z) = -0.45489 -0.45489
#
# Static dielectric constant tensor:
#      x y z
#    x 3.366030 0.000000 0.000000 
#    y 0.000000 3.366030 0.000000 
#    z 0.000000 0.000000 3.831040 
# 
# 
# High freq. dielectric constant tensor:
#      x y z
#    x 1.672130 0.000000 0.000000 
#    y 0.000000 1.672130 0.000000 
#    z 0.000000 0.000000 1.679980 
# 
# From -- ./inp_files/7221.got.cif
#   From: 2010.03.12/outbox.cif.g09.slc.cpg/sg166_4_cif.got.tgz:7221.got - 2010.04.02 06:38:31.
