data_PCOD8324443
_publ_section_title
;
Structure prediction by ZEFSAII (Michael W. Deem and Ramdas Pophale) SiO2 
 PCOD8324443
Probable space group: P 6
;
_chemical_formula_sum "Si O2"
_cell_formula_units_Z 31
_cell_length_a 14.646215
_cell_length_b 14.646215
_cell_length_c 8.510503
_cell_angle_alpha 90.000000
_cell_angle_beta 90.000000
_cell_angle_gamma 120.000000
_cell_volume 1581.017478
_symmetry_space_group_name_H-M "P 6"
_symmetry_group_IT_number 168
_symmetry_cell_setting 'hexagonal'
loop_
_space_group_symop_operation_xyz
x,y,z
x-y,x,z
-y,x-y,z
-x,-y,z
-x+y,-x,z
y,-x+y,z
loop_
_atom_site_type_symbol
_atom_site_label
_atom_site_fract_x
_atom_site_fract_y
_atom_site_fract_z
Si Si1 0.096765 0.233878 0.620780
Si Si2 0.552683 0.716777 0.783530
Si Si3 0.164096 0.716779 0.089604
Si Si4 0.666668 0.333334 0.747597
Si Si5 0.903236 0.137114 0.252353
Si Si6 0.500000 0.000000 0.936568
Si Si7 0.333334 0.666668 0.125544
O O1 0.166287 0.186965 0.692979
O O2 0.131487 0.352797 0.663794
O O3 0.113304 0.226606 0.436567
O O4 0.450716 0.702905 0.689614
O O5 0.530588 0.600508 0.826756
O O6 0.577642 0.788821 0.936566
O O7 0.131485 0.778689 0.209339
O O8 0.252196 0.702915 0.183525
O O9 0.069926 0.600506 0.046381
O O10 0.666668 0.333334 0.936571
O O11 0.020679 0.186965 0.180155
#
# Coordination Sequence:
#
# PCOD8324443 Si02
#       7
#     6   6   6   2   6   3   2
#     4  10  22  40  61  85 119 158 200 244 298 357
#     4  11  20  37  60  89 116 156 196 243 291 359
#     4  11  20  37  60  89 116 156 196 243 291 359
#     4   9  18  36  55  77 118 153 187 224 289 348
#     4  10  22  40  61  85 119 158 200 244 298 357
#     4  12  20  32  64  90 118 160 200 246 302 356
#     4   9  18  36  55  77 118 153 187 224 289 348
#
# _framework density 19.607626
#
# number of rings (size 3 to 8) (size 9 to 14) (size 15 to 20)
#    0.000    1.548    5.806    2.710    0.000    1.548 
#    0.000    1.935    0.000    2.323    0.000    0.000 
#    0.000    0.000    0.000    0.000    0.000    0.000 
#
# Total GULP energy -384192.687753 kJ/mol
# GULP energy per Si atom -12393.312508 kJ/mol
# Density = 1.956300 g / cm^3
# Si number density = 19.607626 Si / 1000 Ang^3
#
#
#
# Elastic Constant Matrix: (Units=GPa)
#
#
# Indices 1 2 3 4 5 6 
#
# 1 168.1820 81.9771 21.6204 0.0000 0.0000 -0.0003
# 2 81.9771 168.1821 21.6203 0.0000 0.0000 0.0000
# 3 21.6204 21.6203 15.6062 0.0000 0.0000 0.0000
# 4 0.0000 0.0000 0.0000 31.7479 0.0000 0.0000
# 5 0.0000 0.0000 0.0000 0.0000 31.7479 0.0000
# 6 -0.0003 0.0000 0.0000 0.0000 0.0000 43.1026
#
#
#
# Elastic Compliance Matrix: (Units=1/GPa)
#
#
# Indices 1 2 3 4 5 6 
#
# 1 0.008428 -0.003172 -0.007282 0.000000 0.000000 0.000000
# 2 -0.003172 0.008428 -0.007282 0.000000 0.000000 0.000000
# 3 -0.007282 -0.007282 0.084253 0.000000 0.000000 0.000000
# 4 0.000000 0.000000 0.000000 0.031498 0.000000 0.000000
# 5 0.000000 0.000000 0.000000 0.000000 0.031498 0.000000
# 6 0.000000 0.000000 0.000000 0.000000 0.000000 0.023200
#
#
# Mechanical properties :
#
#
# Convention : Reuss Voigt Hill
#
# Bulk Modulus (GPa) = 15.23500 66.93397 41.08448
# Shear Modulus (GPa) = 20.43685 36.43651 28.43668
#
# Velocity S-wave (km/s) = 3.23196 4.31546 3.81239
# Velocity P-wave (km/s) = 4.65985 7.68386 6.35436
#
# Compressibility (1/GPa) = 0.06563835
#
# Stress axis : x y z
#
# Youngs Moduli (GPa) = 118.64940 118.64961 11.86905
#
# Poissons Ratio (x) = 0.37637 0.08643
# Poissons Ratio (y) = 0.37636 0.08643
# Poissons Ratio (z) = 0.86397 0.86396
#
# Static dielectric constant tensor:
#      x y z
#    x 3.997100 -0.000010 0.000000 
#    y -0.000010 3.997100 0.000000 
#    z 0.000000 0.000000 2.998690 
# 
# 
# High freq. dielectric constant tensor:
#      x y z
#    x 1.789300 0.000000 0.000000 
#    y 0.000000 1.789300 0.000000 
#    z 0.000000 0.000000 1.708500 
# 
# From -- ./inp_files/277.got.cif
#   From: 2010.03.12/outbox.cif.g09.slc.cpg/sg168_cif.got.tgz:277.got - 2010.04.02 06:45:48.
