data_PCOD8324408
_publ_section_title
;
Structure prediction by ZEFSAII (Michael W. Deem and Ramdas Pophale) SiO2 
 PCOD8324408
Probable space group: R -3 C 
;
_chemical_formula_sum "Si O2"
_cell_formula_units_Z 144
_cell_length_a 19.938738
_cell_length_b 19.938738
_cell_length_c 18.644007
_cell_angle_alpha 90.000000
_cell_angle_beta 90.000000
_cell_angle_gamma 120.000000
_cell_volume 6418.968173
_symmetry_space_group_name_H-M "R -3 C "
_symmetry_group_IT_number 167
_symmetry_cell_setting 'hexagonal'
loop_
_space_group_symop_operation_xyz
x,y,z
-y,x-y,z
-x+y,-x,z
x-y,-y,1/2-z
-x,-x+y,1/2-z
y,x,1/2-z
-x,-y,-z
y,-x+y,-z
x-y,x,-z
-x+y,y,1/2+z
x,x-y,1/2+z
-y,-x,1/2+z
2/3+x,1/3+y,1/3+z
2/3-y,1/3+x-y,1/3+z
2/3-x+y,1/3-x,1/3+z
2/3+x-y,1/3-y,5/6-z
2/3-x,1/3-x+y,5/6-z
2/3+y,1/3+x,5/6-z
2/3-x,1/3-y,1/3-z
2/3+y,1/3-x+y,1/3-z
2/3+x-y,1/3+x,1/3-z
2/3-x+y,1/3+y,5/6+z
2/3+x,1/3+x-y,5/6+z
2/3-y,1/3-x,5/6+z
1/3+x,2/3+y,2/3+z
1/3-y,2/3+x-y,2/3+z
1/3-x+y,2/3-x,2/3+z
1/3+x-y,2/3-y,1/6-z
1/3-x,2/3-x+y,1/6-z
1/3+y,2/3+x,1/6-z
1/3-x,2/3-y,2/3-z
1/3+y,2/3-x+y,2/3-z
1/3+x-y,2/3+x,2/3-z
1/3-x+y,2/3+y,1/6+z
1/3+x,2/3+x-y,1/6+z
1/3-y,2/3-x,1/6+z
loop_
_atom_site_type_symbol
_atom_site_label
_atom_site_fract_x
_atom_site_fract_y
_atom_site_fract_z
Si Si1 0.368733 0.953860 0.637104
Si Si2 0.040557 0.883402 0.531644
Si Si3 0.502959 0.122049 0.652174
Si Si4 0.041485 0.270014 0.676677
O O1 0.411630 0.913360 0.674608
O O2 0.283738 0.920448 0.674006
O O3 0.355587 0.928065 0.553884
O O4 0.417736 0.046058 0.650792
O O5 0.010334 0.857106 0.613183
O O6 0.972428 0.867578 0.475997
O O7 0.507765 0.174432 0.583334
O O8 0.562414 0.090498 0.659527
O O9 0.000000 0.235294 0.750000
#
# Coordination Sequence:
#
# PCOD8324408 Si02
#       4
#    36  36  36  36
#     4  11  24  45  69 104 138 182 236 291 365 428
#     4  12  26  46  70  99 141 193 239 288 356 426
#     4  12  26  43  73 105 140 188 240 294 355 431
#     4  11  24  44  67 105 146 183 232 301 364 419
#
# _framework density 22.433510999999999
#
# number of rings (size 3 to 8) (size 9 to 14) (size 15 to 20)
#    0.000    0.500    5.000    4.000    7.000    1.000 
#    0.000    0.000    0.000    0.500    0.000    0.000 
#    0.000    0.000    0.000    0.000    0.000    0.000 
#
# Total GULP energy -594688.003137 kJ/mol
# GULP energy per Si atom -12389.333399 kJ/mol
# Density = 2.238245 g / cm^3
# Si number density = 22.433511 Si / 1000 Ang^3
#
#
#
# Elastic Constant Matrix: (Units=GPa)
#
#
# Indices 1 2 3 4 5 6 
#
# 1 61.8910 23.2037 58.3506 26.9236 -0.0008 0.0000
# 2 23.2037 61.8910 58.3506 -26.9236 0.0008 0.0000
# 3 58.3506 58.3506 113.0824 0.0000 0.0000 0.0000
# 4 26.9236 -26.9236 0.0000 -77.4805 0.0000 0.0008
# 5 -0.0008 0.0008 0.0000 0.0000 -77.4805 26.9236
# 6 0.0000 0.0000 0.0000 0.0008 26.9236 19.3436
#
#
#
# Elastic Compliance Matrix: (Units=1/GPa)
#
#
# Indices 1 2 3 4 5 6 
#
# 1 0.028810 0.011388 -0.020742 0.006054 0.000000 0.000000
# 2 0.011388 0.028810 -0.020742 -0.006054 0.000000 0.000000
# 3 -0.020742 -0.020742 0.030249 0.000000 0.000000 0.000000
# 4 0.006054 -0.006054 0.000000 -0.008699 0.000000 0.000000
# 5 0.000000 0.000000 0.000000 0.000000 -0.008699 0.012108
# 6 0.000000 0.000000 0.000000 0.000000 0.012108 0.034844
#
#
# Mechanical properties :
#
#
# Convention : Reuss Voigt Hill
#
# Bulk Modulus (GPa) = 36.13206 57.40824 46.77015
# Shear Modulus (GPa) = 28.61516 -20.65951 3.97782
#
# Velocity S-wave (km/s) = 3.57536 -3.03796 1.33305
# Velocity P-wave (km/s) = 5.76069 3.65244 4.82317
#
# Compressibility (1/GPa) = 0.02767625
#
# Stress axis : x y z
#
# Youngs Moduli (GPa) = 34.71027 34.71027 33.05901
#
# Poissons Ratio (x) = -0.39528 0.68571
# Poissons Ratio (y) = -0.39528 0.68571
# Poissons Ratio (z) = 0.71996 0.71996
#
# Static dielectric constant tensor:
#      x y z
#    x 2.609660 0.000000 0.000000 
#    y 0.000000 2.609660 0.000000 
#    z 0.000000 0.000000 4.332390 
# 
# 
# High freq. dielectric constant tensor:
#      x y z
#    x 1.876130 0.000000 0.000000 
#    y 0.000000 1.876130 0.000000 
#    z 0.000000 0.000000 1.896540 
# 
# From -- ./inp_files/4294.got.cif
#   From: 2010.03.12/outbox.cif.g09.slc.cpg/sg167_3_cif.got.tgz:4294.got - 2010.04.02 06:42:56.
