data_PCOD8324591
_publ_section_title
;
Structure prediction by ZEFSAII (Michael W. Deem and Ramdas Pophale) SiO2 
 PCOD8324591
Probable space group: P 61
;
_chemical_formula_sum "Si O2"
_cell_formula_units_Z 36
_cell_length_a 11.173716
_cell_length_b 11.173716
_cell_length_c 14.666970
_cell_angle_alpha 90.000000
_cell_angle_beta 90.000000
_cell_angle_gamma 120.000000
_cell_volume 1585.865287
_symmetry_space_group_name_H-M "P 61"
_symmetry_group_IT_number 169
_symmetry_cell_setting 'hexagonal'
loop_
_space_group_symop_operation_xyz
x,y,z
x-y,x,1/6+z
-y,x-y,1/3+z
-x,-y,1/2+z
-x+y,-x,2/3+z
y,-x+y,5/6+z
loop_
_atom_site_type_symbol
_atom_site_label
_atom_site_fract_x
_atom_site_fract_y
_atom_site_fract_z
Si Si1 0.280564 0.955383 0.688760
Si Si2 0.576751 0.555451 0.820991
Si Si3 0.178833 0.489638 0.657331
Si Si4 0.900961 0.092996 0.884690
Si Si5 0.069067 0.673448 0.702532
Si Si6 0.170959 0.491298 0.321403
O O1 0.394348 0.927769 0.642077
O O2 0.165816 0.823105 0.747005
O O3 0.199044 0.982452 0.609447
O O4 0.364240 0.076722 0.761506
O O5 0.540512 0.636598 0.896410
O O6 0.582353 0.631291 0.728041
O O7 0.717690 0.555408 0.843128
O O8 0.120090 0.346479 0.711011
O O9 0.141685 0.582575 0.721458
O O10 0.344834 0.572439 0.644187
O O11 0.956128 0.093701 0.780669
O O12 0.908564 0.586207 0.729651
#
# Coordination Sequence:
#
# PCOD8324591 Si02
#       6
#     6   6   6   6   6   6
#     4  11  22  44  70 103 140 183 243 296 358 440
#     4  11  27  44  69 111 144 187 246 306 365 441
#     4  11  26  45  74 105 142 186 248 309 369 435
#     4  12  26  49  74 105 142 197 250 297 373 454
#     4  11  24  42  72 103 141 184 240 305 366 432
#     4  12  25  46  75 105 149 193 239 309 379 432
#
# _framework density 22.700541000000001
#
# number of rings (size 3 to 8) (size 9 to 14) (size 15 to 20)
#    0.000    0.667    5.000    2.000    7.000    1.333 
#    3.000    0.000    0.000    0.000    0.000    0.000 
#    0.000    0.000    0.000    0.000    0.000    0.000 
#
# Total GULP energy -446028.441360 kJ/mol
# GULP energy per Si atom -12389.678927 kJ/mol
# Density = 2.264887 g / cm^3
# Si number density = 22.700541 Si / 1000 Ang^3
#
#
#
# Elastic Constant Matrix: (Units=GPa)
#
#
# Indices 1 2 3 4 5 6 
#
# 1 110.6525 35.1375 18.3393 0.0000 0.0000 0.0000
# 2 35.1375 110.6525 18.3393 0.0000 0.0000 0.0000
# 3 18.3393 18.3393 58.7407 0.0000 0.0000 0.0000
# 4 0.0000 0.0000 0.0000 37.3431 0.0000 0.0000
# 5 0.0000 0.0000 0.0000 0.0000 37.3431 0.0000
# 6 0.0000 0.0000 0.0000 0.0000 0.0000 37.7575
#
#
#
# Elastic Compliance Matrix: (Units=1/GPa)
#
#
# Indices 1 2 3 4 5 6 
#
# 1 0.010343 -0.002899 -0.002324 0.000000 0.000000 0.000000
# 2 -0.002899 0.010343 -0.002324 0.000000 0.000000 0.000000
# 3 -0.002324 -0.002324 0.018475 0.000000 0.000000 0.000000
# 4 0.000000 0.000000 0.000000 0.026779 0.000000 0.000000
# 5 0.000000 0.000000 0.000000 0.000000 0.026779 0.000000
# 6 0.000000 0.000000 0.000000 0.000000 0.000000 0.026485
#
#
# Mechanical properties :
#
#
# Convention : Reuss Voigt Hill
#
# Bulk Modulus (GPa) = 41.55111 47.07534 44.31322
# Shear Modulus (GPa) = 35.13194 36.37069 35.75131
#
# Velocity S-wave (km/s) = 3.93826 4.00709 3.97282
# Velocity P-wave (km/s) = 6.24688 6.49550 6.37241
#
# Compressibility (1/GPa) = 0.02406674
#
# Stress axis : x y z
#
# Youngs Moduli (GPa) = 96.68243 96.68243 54.12676
#
# Poissons Ratio (x) = 0.28031 0.12579
# Poissons Ratio (y) = 0.28031 0.12579
# Poissons Ratio (z) = 0.22469 0.22469
#
# Static dielectric constant tensor:
#      x y z
#    x 4.149540 0.000000 0.000000 
#    y 0.000000 4.149540 0.000000 
#    z 0.000000 0.000000 4.041620 
# 
# 
# High freq. dielectric constant tensor:
#      x y z
#    x 1.903910 0.000000 0.000000 
#    y 0.000000 1.903910 0.000000 
#    z 0.000000 0.000000 1.889810 
# 
# From -- ./inp_files/1150.got.cif
#   From: 2010.03.12/outbox.cif.g09.slc.cpg/sg169_cif.got.tgz:1150.got - 2010.04.02 06:46:06.
