data_PCOD8324238
_publ_section_title
;
Structure prediction by ZEFSAII (Michael W. Deem and Ramdas Pophale) SiO2 
 PCOD8324238
Probable space group: R -3 M
;
_chemical_formula_sum "Si O2"
_cell_formula_units_Z 108
_cell_length_a 28.529514
_cell_length_b 28.529514
_cell_length_c 10.035977
_cell_angle_alpha 90.000000
_cell_angle_beta 90.000000
_cell_angle_gamma 120.000000
_cell_volume 7074.227726
_symmetry_space_group_name_H-M "R -3 M"
_symmetry_group_IT_number 166
_symmetry_cell_setting 'hexagonal'
loop_
_space_group_symop_operation_xyz
x,y,z
-y,x-y,z
-x+y,-x,z
x-y,-y,-z
-x,-x+y,-z
y,x,-z
-x,-y,-z
y,-x+y,-z
x-y,x,-z
-x+y,y,z
x,x-y,z
-y,-x,z
2/3+x,1/3+y,1/3+z
2/3-y,1/3+x-y,1/3+z
2/3-x+y,1/3-x,1/3+z
2/3+x-y,1/3-y,1/3-z
2/3-x,1/3-x+y,1/3-z
2/3+y,1/3+x,1/3-z
2/3-x,1/3-y,1/3-z
2/3+y,1/3-x+y,1/3-z
2/3+x-y,1/3+x,1/3-z
2/3-x+y,1/3+y,1/3+z
2/3+x,1/3+x-y,1/3+z
2/3-y,1/3-x,1/3+z
1/3+x,2/3+y,2/3+z
1/3-y,2/3+x-y,2/3+z
1/3-x+y,2/3-x,2/3+z
1/3+x-y,2/3-y,2/3-z
1/3-x,2/3-x+y,2/3-z
1/3+y,2/3+x,2/3-z
1/3-x,2/3-y,2/3-z
1/3+y,2/3-x+y,2/3-z
1/3+x-y,2/3+x,2/3-z
1/3-x+y,2/3+y,2/3+z
1/3+x,2/3+x-y,2/3+z
1/3-y,2/3-x,2/3+z
loop_
_atom_site_type_symbol
_atom_site_label
_atom_site_fract_x
_atom_site_fract_y
_atom_site_fract_z
Si Si1 0.697250 0.103038 0.458540
Si Si2 0.465484 0.534517 0.895759
Si Si3 0.719076 0.760155 0.616834
Si Si4 0.805885 0.194116 0.855254
O O1 0.666667 0.110291 0.333334
O O2 0.739442 0.164555 0.500022
O O3 0.723792 0.068231 0.408441
O O4 0.656129 0.069188 0.576509
O O5 0.497201 0.502800 0.867503
O O6 0.456014 0.543987 0.050072
O O7 0.751537 0.751537 0.500000
O O8 0.735077 0.822927 0.613538
#
# Coordination Sequence:
#
# PCOD8324238 Si02
#       4
#    36  18  36  18
#     4  11  21  31  47  69  93 123 159 199 231 269
#     4   9  18  33  45  63  93 123 153 193 241 274
#     4  11  19  31  48  67  91 123 162 195 227 269
#     4   9  18  31  47  65  89 123 157 193 236 274
#
# _framework density 15.266684
#
# number of rings (size 3 to 8) (size 9 to 14) (size 15 to 20)
#    0.000    1.667    3.333    4.000    0.000    1.333 
#    0.000    5.000    0.000    0.000    0.000    0.000 
#    0.000    0.000    0.000   20.000    0.000    0.000 
#
# Total GULP energy -446208.007581 kJ/mol
# GULP energy per Si atom -12394.666877 kJ/mol
# Density = 1.523194 g / cm^3
# Si number density = 15.266684 Si / 1000 Ang^3
#
#
#
# Elastic Constant Matrix: (Units=GPa)
#
#
# Indices 1 2 3 4 5 6 
#
# 1 77.6659 42.4395 45.7180 6.1001 -0.0145 0.0055
# 2 42.4395 77.6638 45.7061 -6.0784 0.0004 0.0112
# 3 45.7180 45.7061 125.4654 0.0489 -0.0268 0.0243
# 4 6.1001 -6.0784 0.0489 16.8898 -0.0012 -0.0127
# 5 -0.0145 0.0004 -0.0268 -0.0012 16.9328 6.1215
# 6 0.0055 0.0112 0.0243 -0.0127 6.1215 17.6245
#
#
#
# Elastic Compliance Matrix: (Units=1/GPa)
#
#
# Indices 1 2 3 4 5 6 
#
# 1 0.021976 -0.010455 -0.004194 -0.011687 0.000014 -0.000008
# 2 -0.010455 0.021977 -0.004201 0.011697 -0.000019 0.000010
# 3 -0.004194 -0.004201 0.011029 -0.000029 0.000021 -0.000018
# 4 -0.011687 0.011697 -0.000029 0.067638 -0.000025 0.000054
# 5 0.000014 -0.000019 0.000021 -0.000025 0.067537 -0.023458
# 6 -0.000008 0.000010 -0.000018 0.000054 -0.023458 0.064887
#
#
# Mechanical properties :
#
#
# Convention : Reuss Voigt Hill
#
# Bulk Modulus (GPa) = 57.86667 60.94694 59.40681
# Shear Modulus (GPa) = 16.75015 20.08486 18.41751
#
# Velocity S-wave (km/s) = 3.31595 3.63106 3.47707
# Velocity P-wave (km/s) = 7.25582 7.58865 7.42410
#
# Compressibility (1/GPa) = 0.01728110
#
# Stress axis : x y z
#
# Youngs Moduli (GPa) = 45.50511 45.50236 90.66899
#
# Poissons Ratio (x) = 0.47572 0.38031
# Poissons Ratio (y) = 0.47575 0.38090
# Poissons Ratio (z) = 0.19087 0.19115
#
# Static dielectric constant tensor:
#      x y z
#    x 2.950480 -0.000080 -0.004400 
#    y -0.000080 2.950050 0.001650 
#    z -0.004400 0.001650 1.610880 
# 
# 
# High freq. dielectric constant tensor:
#      x y z
#    x 1.558710 0.000000 0.000000 
#    y 0.000000 1.558710 0.000000 
#    z 0.000000 0.000000 1.600570 
# 
# From -- ./inp_files/1505.got.cif
#   From: 2010.03.12/outbox.cif.g09.slc.cpg/sg166_1_cif.got.tgz:1505.got - 2010.04.02 06:38:31.
