data_PCOD8324431
_publ_section_title
;
Structure prediction by ZEFSAII (Michael W. Deem and Ramdas Pophale) SiO2 
 PCOD8324431
Probable space group: P 6
;
_chemical_formula_sum "Si O2"
_cell_formula_units_Z 48
_cell_length_a 18.635722
_cell_length_b 18.635722
_cell_length_c 9.809318
_cell_angle_alpha 90.000000
_cell_angle_beta 90.000000
_cell_angle_gamma 120.000000
_cell_volume 2950.270875
_symmetry_space_group_name_H-M "P 6"
_symmetry_group_IT_number 168
_symmetry_cell_setting 'hexagonal'
loop_
_space_group_symop_operation_xyz
x,y,z
x-y,x,z
-y,x-y,z
-x,-y,z
-x+y,-x,z
y,-x+y,z
loop_
_atom_site_type_symbol
_atom_site_label
_atom_site_fract_x
_atom_site_fract_y
_atom_site_fract_z
Si Si1 0.371208 0.904180 0.632010
Si Si2 0.254684 0.347375 0.159130
Si Si3 0.467029 0.095820 0.632010
Si Si4 0.169264 0.667860 0.344448
Si Si5 0.906883 0.654342 0.845295
Si Si6 0.347375 0.254684 0.159130
Si Si7 0.501404 0.332140 0.344448
Si Si8 0.654342 0.906884 0.845295
O O1 0.441438 0.882875 0.678614
O O2 0.307553 0.880290 0.756097
O O3 0.323111 0.851581 0.500127
O O4 0.411872 1.000000 0.592035
O O5 0.317429 0.426888 0.245824
O O6 0.272165 0.272165 0.191336
O O7 0.158937 0.317875 0.196008
O O8 0.273414 0.373659 0.001577
O O9 0.471530 0.148419 0.500127
O O10 0.427264 0.119710 0.756097
O O11 0.154094 0.577047 0.313121
O O12 0.264619 0.735381 0.316484
O O13 0.844530 0.689060 0.814386
O O14 1.000000 0.727078 0.809961
O O15 0.899755 0.626341 0.001577
O O16 0.426888 0.317429 0.245824
#
# Coordination Sequence:
#
# PCOD8324431 Si02
#       8
#     6   6   6   6   6   6   6   6
#     4   9  17  28  43  64  88 114 146 183 217 250
#     4   9  18  31  47  66  87 113 144 179 218 260
#     4   9  17  28  43  64  88 114 146 183 217 250
#     4  10  19  30  44  63  89 119 150 182 216 253
#     4   9  17  30  47  66  88 114 145 179 216 258
#     4   9  18  31  47  66  87 113 144 179 218 260
#     4  10  19  30  44  63  89 119 150 182 216 253
#     4   9  17  30  47  66  88 114 145 179 216 258
#
# _framework density 16.269691999999999
#
# number of rings (size 3 to 8) (size 9 to 14) (size 15 to 20)
#    0.000    2.750    0.000    1.750    0.000    2.500 
#    0.000    2.500    0.000    1.000    0.000    3.500 
#    0.000    0.000    0.000    8.000    0.000   11.000 
#
# Total GULP energy -595127.095114 kJ/mol
# GULP energy per Si atom -12398.481148 kJ/mol
# Density = 1.623266 g / cm^3
# Si number density = 16.269692 Si / 1000 Ang^3
#
#
#
# Elastic Constant Matrix: (Units=GPa)
#
#
# Indices 1 2 3 4 5 6 
#
# 1 101.4839 63.5802 50.4892 0.0000 0.0000 0.0000
# 2 63.5802 101.4839 50.4892 0.0000 0.0000 0.0000
# 3 50.4892 50.4892 65.1943 0.0000 0.0000 0.0000
# 4 0.0000 0.0000 0.0000 24.5690 0.0000 0.0000
# 5 0.0000 0.0000 0.0000 0.0000 24.5690 0.0000
# 6 0.0000 0.0000 0.0000 0.0000 0.0000 18.9519
#
#
#
# Elastic Compliance Matrix: (Units=1/GPa)
#
#
# Indices 1 2 3 4 5 6 
#
# 1 0.018948 -0.007435 -0.008916 0.000000 0.000000 0.000000
# 2 -0.007435 0.018948 -0.008916 0.000000 0.000000 0.000000
# 3 -0.008916 -0.008916 0.029148 0.000000 0.000000 0.000000
# 4 0.000000 0.000000 0.000000 0.040702 0.000000 0.000000
# 5 0.000000 0.000000 0.000000 0.000000 0.040702 0.000000
# 6 0.000000 0.000000 0.000000 0.000000 0.000000 0.052765
#
#
# Mechanical properties :
#
#
# Convention : Reuss Voigt Hill
#
# Bulk Modulus (GPa) = 60.56864 66.36436 63.46650
# Shear Modulus (GPa) = 19.43647 20.52489 19.98068
#
# Velocity S-wave (km/s) = 3.46011 3.55567 3.50822
# Velocity P-wave (km/s) = 7.29876 7.59841 7.45009
#
# Compressibility (1/GPa) = 0.01651019
#
# Stress axis : x y z
#
# Youngs Moduli (GPa) = 52.77725 52.77725 34.30746
#
# Poissons Ratio (x) = 0.39240 0.30588
# Poissons Ratio (y) = 0.39240 0.30588
# Poissons Ratio (z) = 0.47055 0.47055
#
# Static dielectric constant tensor:
#      x y z
#    x 3.088070 0.000000 0.000000 
#    y 0.000000 3.088070 0.000000 
#    z 0.000000 0.000000 3.089340 
# 
# 
# High freq. dielectric constant tensor:
#      x y z
#    x 1.618560 0.000000 0.000000 
#    y 0.000000 1.618560 0.000000 
#    z 0.000000 0.000000 1.628190 
# 
# From -- ./inp_files/338.got.cif
#   From: 2010.03.12/outbox.cif.g09.slc.cpg/sg168_cif.got.tgz:338.got - 2010.04.02 06:45:48.
