data_PCOD8324741
_publ_section_title
;
Structure prediction by ZEFSAII (Michael W. Deem and Ramdas Pophale) SiO2 
 PCOD8324741
Probable space group: P 62
;
_chemical_formula_sum "Si O2"
_cell_formula_units_Z 36
_cell_length_a 20.574611
_cell_length_b 20.574611
_cell_length_c 4.829486
_cell_angle_alpha 90.000000
_cell_angle_beta 90.000000
_cell_angle_gamma 120.000000
_cell_volume 1770.495425
_symmetry_space_group_name_H-M "P 62"
_symmetry_group_IT_number 171
_symmetry_cell_setting 'hexagonal'
loop_
_space_group_symop_operation_xyz
x,y,z
x-y,x,1/3+z
-y,x-y,2/3+z
-x,-y,z
-x+y,-x,1/3+z
y,-x+y,2/3+z
loop_
_atom_site_type_symbol
_atom_site_label
_atom_site_fract_x
_atom_site_fract_y
_atom_site_fract_z
Si Si1 0.653799 0.445304 0.367200
Si Si2 0.244095 0.198296 0.900034
Si Si3 0.437827 0.638947 0.868373
Si Si4 0.837165 0.241993 0.950780
Si Si5 0.404661 0.252669 0.794764
Si Si6 0.053589 0.806774 0.756849
O O1 0.727201 0.440393 0.310565
O O2 0.606662 0.381008 0.585063
O O3 0.678625 0.526228 0.506867
O O4 0.601800 0.428398 0.093118
O O5 0.325124 0.247832 0.744955
O O6 0.228455 0.117346 0.996977
O O7 0.184532 0.186863 0.658865
O O8 0.238049 0.243807 0.157699
O O9 0.524083 0.662332 0.788826
O O10 0.774283 0.173192 0.776303
O O11 0.914808 0.242493 0.906760
O O12 0.805731 0.222040 0.265946
#
# Coordination Sequence:
#
# PCOD8324741 Si02
#       6
#     6   6   6   6   6   6
#     4  11  20  30  48  75 111 151 195 245 297 342
#     4  11  22  39  64  91 116 144 184 232 282 342
#     4  11  20  30  48  75 111 151 195 245 297 342
#     4  10  20  35  54  80 112 149 193 240 283 330
#     4  10  20  35  54  80 112 149 193 240 283 330
#     4  11  22  39  64  91 116 144 184 232 282 342
#
# _framework density 20.333293000000001
#
# number of rings (size 3 to 8) (size 9 to 14) (size 15 to 20)
#    0.000    1.333    0.000   11.000    0.000    0.000 
#    0.000    0.000    0.000   11.000    0.000    0.000 
#    0.000    0.000    0.000    0.000    0.000    0.000 
#
# Total GULP energy -446157.211781 kJ/mol
# GULP energy per Si atom -12393.255883 kJ/mol
# Density = 2.028701 g / cm^3
# Si number density = 20.333293 Si / 1000 Ang^3
#
#
#
# Elastic Constant Matrix: (Units=GPa)
#
#
# Indices 1 2 3 4 5 6 
#
# 1 80.3502 46.8624 26.0876 0.0000 0.0000 0.0000
# 2 46.8624 80.3502 26.0876 0.0000 0.0000 0.0000
# 3 26.0876 26.0876 95.2618 0.0000 0.0000 0.0000
# 4 0.0000 0.0000 0.0000 33.2586 0.0000 0.0000
# 5 0.0000 0.0000 0.0000 0.0000 33.2586 0.0000
# 6 0.0000 0.0000 0.0000 0.0000 0.0000 16.7439
#
#
#
# Elastic Compliance Matrix: (Units=1/GPa)
#
#
# Indices 1 2 3 4 5 6 
#
# 1 0.019359 -0.010503 -0.002425 0.000000 0.000000 0.000000
# 2 -0.010503 0.019359 -0.002425 0.000000 0.000000 0.000000
# 3 -0.002425 -0.002425 0.011826 0.000000 0.000000 0.000000
# 4 0.000000 0.000000 0.000000 0.030067 0.000000 0.000000
# 5 0.000000 0.000000 0.000000 0.000000 0.030067 0.000000
# 6 0.000000 0.000000 0.000000 0.000000 0.000000 0.059723
#
#
# Mechanical properties :
#
#
# Convention : Reuss Voigt Hill
#
# Bulk Modulus (GPa) = 50.41279 50.44859 50.43069
# Shear Modulus (GPa) = 24.07096 27.11387 25.59241
#
# Velocity S-wave (km/s) = 3.44440 3.65563 3.55159
# Velocity P-wave (km/s) = 6.37696 6.53322 6.45556
#
# Compressibility (1/GPa) = 0.01983623
#
# Stress axis : x y z
#
# Youngs Moduli (GPa) = 51.65680 51.65680 84.56224
#
# Poissons Ratio (x) = 0.54255 0.20507
# Poissons Ratio (y) = 0.54255 0.20507
# Poissons Ratio (z) = 0.12527 0.12527
#
# Static dielectric constant tensor:
#      x y z
#    x 3.803740 0.000000 0.000000 
#    y 0.000000 3.803740 0.000000 
#    z 0.000000 0.000000 3.933980 
# 
# 
# High freq. dielectric constant tensor:
#      x y z
#    x 1.767540 0.000000 0.000000 
#    y 0.000000 1.767540 0.000000 
#    z 0.000000 0.000000 1.823430 
# 
# From -- ./inp_files/420.got.cif
#   From: 2010.03.12/outbox.cif.g09.slc.cpg/sg171_1_cif.got.tgz:420.got - 2010.04.02 06:49:11.
