data_PCOD8324998
_publ_section_title
;
Structure prediction by ZEFSAII (Michael W. Deem and Ramdas Pophale) SiO2 
 PCOD8324998
Probable space group: P 6/M
;
_chemical_formula_sum "Si O2"
_cell_formula_units_Z 76
_cell_length_a 17.443957
_cell_length_b 17.443957
_cell_length_c 15.545713
_cell_angle_alpha 90.000000
_cell_angle_beta 90.000000
_cell_angle_gamma 120.000000
_cell_volume 4096.672931
_symmetry_space_group_name_H-M "P 6/M"
_symmetry_group_IT_number 175
_symmetry_cell_setting 'hexagonal'
loop_
_space_group_symop_operation_xyz
x,y,z
x-y,x,z
-y,x-y,z
-x,-y,z
-x+y,-x,z
y,-x+y,z
-x,-y,-z
-x+y,-x,-z
y,-x+y,-z
x,y,-z
x-y,x,-z
-y,x-y,-z
loop_
_atom_site_type_symbol
_atom_site_label
_atom_site_fract_x
_atom_site_fract_y
_atom_site_fract_z
Si Si1 0.129495 0.212591 0.000000
Si Si2 0.666668 0.333335 0.899956
Si Si3 0.476451 0.800940 0.211185
Si Si4 0.348521 0.772082 0.500000
Si Si5 0.065845 0.321346 0.267363
Si Si6 0.105862 0.780682 0.832343
Si Si7 0.835479 0.482185 0.687707
Si Si8 0.984303 0.817997 0.599818
O O1 0.021814 0.161164 0.000000
O O2 0.167383 0.279070 0.080679
O O3 0.591663 0.237864 0.867408
O O4 0.666667 0.333334 0.000000
O O5 0.569825 0.856517 0.163067
O O6 0.466649 0.723479 0.274341
O O7 0.448028 0.859506 0.270342
O O8 0.253634 0.679989 0.500000
O O9 0.356359 0.829079 0.584361
O O10 0.150374 0.312572 0.242333
O O11 0.087457 0.420511 0.285878
O O12 0.023170 0.267152 0.354115
O O13 0.996695 0.278592 0.190328
O O14 0.904977 0.832851 0.628901
O O15 0.983265 0.799440 0.500000
#
# Coordination Sequence:
#
# PCOD8324998 Si02
#       8
#     6   4  12   6  12  12  12  12
#     4  12  25  44  68  97 125 149 197 253 313 371
#     4   9  18  33  57  91 119 145 201 243 276 339
#     4   9  19  37  57  82 120 160 197 240 288 348
#     4  10  16  30  60  87 119 149 203 256 296 343
#     4  11  22  37  59  83 115 159 194 237 299 362
#     4  11  23  40  62  84 117 157 190 241 304 364
#     4  10  19  34  57  88 118 158 204 245 291 348
#     4  10  20  35  55  81 112 149 199 247 290 352
#
# _framework density 18.551639999999999
#
# number of rings (size 3 to 8) (size 9 to 14) (size 15 to 20)
#    0.158    1.579    4.737    0.553    2.211    1.263 
#    0.000    0.000    1.737    1.895    0.000    0.000 
#    0.000    0.000    0.000    0.000    0.000    0.000 
#
# Total GULP energy -942066.629575 kJ/mol
# GULP energy per Si atom -12395.613547 kJ/mol
# Density = 1.850942 g / cm^3
# Si number density = 18.551640 Si / 1000 Ang^3
#
#
#
# Elastic Constant Matrix: (Units=GPa)
#
#
# Indices 1 2 3 4 5 6 
#
# 1 84.2908 30.9483 34.7013 0.0000 0.0000 0.0000
# 2 30.9483 84.2905 34.7010 0.0000 0.0000 0.0001
# 3 34.7013 34.7010 103.7206 0.0000 0.0000 0.0000
# 4 0.0000 0.0000 0.0000 27.0397 0.0000 0.0000
# 5 0.0000 0.0000 0.0000 0.0000 27.0399 0.0000
# 6 0.0000 0.0001 0.0000 0.0000 0.0000 26.6710
#
#
#
# Elastic Compliance Matrix: (Units=1/GPa)
#
#
# Indices 1 2 3 4 5 6 
#
# 1 0.014807 -0.003940 -0.003636 0.000000 0.000000 0.000000
# 2 -0.003940 0.014807 -0.003636 0.000000 0.000000 0.000000
# 3 -0.003636 -0.003636 0.012074 0.000000 0.000000 0.000000
# 4 0.000000 0.000000 0.000000 0.036983 0.000000 0.000000
# 5 0.000000 0.000000 0.000000 0.000000 0.036982 0.000000
# 6 0.000000 0.000000 0.000000 0.000000 0.000000 0.037494
#
#
# Mechanical properties :
#
#
# Convention : Reuss Voigt Hill
#
# Bulk Modulus (GPa) = 51.90637 52.55590 52.23114
# Shear Modulus (GPa) = 27.47378 27.61354 27.54366
#
# Velocity S-wave (km/s) = 3.85247 3.86225 3.85736
# Velocity P-wave (km/s) = 6.91584 6.94841 6.93214
#
# Compressibility (1/GPa) = 0.01926546
#
# Stress axis : x y z
#
# Youngs Moduli (GPa) = 67.53541 67.53529 82.82190
#
# Poissons Ratio (x) = 0.26607 0.30113
# Poissons Ratio (y) = 0.26608 0.30112
# Poissons Ratio (z) = 0.24555 0.24554
#
# Static dielectric constant tensor:
#      x y z
#    x 3.403830 0.000000 0.000000 
#    y 0.000000 3.403830 0.000000 
#    z 0.000000 0.000000 3.262770 
# 
# 
# High freq. dielectric constant tensor:
#      x y z
#    x 1.714760 0.000000 0.000000 
#    y 0.000000 1.714760 0.000000 
#    z 0.000000 0.000000 1.717170 
# 
# From -- ./inp_files/2578.got.cif
#   From: 2010.03.12/outbox.cif.g09.slc.cpg/sg175_2_cif.got.tgz:2578.got - 2010.04.02 06:55:29.
