data_PCOD8324945
_publ_section_title
;
Structure prediction by ZEFSAII (Michael W. Deem and Ramdas Pophale) SiO2 
 PCOD8324945
Probable space group: P -6
;
_chemical_formula_sum "Si O2"
_cell_formula_units_Z 44
_cell_length_a 11.723579
_cell_length_b 11.723579
_cell_length_c 19.195928
_cell_angle_alpha 90.000000
_cell_angle_beta 90.000000
_cell_angle_gamma 120.000000
_cell_volume 2284.863040
_symmetry_space_group_name_H-M "P -6"
_symmetry_group_IT_number 174
_symmetry_cell_setting 'hexagonal'
loop_
_space_group_symop_operation_xyz
x,y,z
-x+y,-x,-z
-y,x-y,z
x,y,-z
-x+y,-x,z
-y,x-y,-z
loop_
_atom_site_type_symbol
_atom_site_label
_atom_site_fract_x
_atom_site_fract_y
_atom_site_fract_z
Si Si1 0.735785 0.000138 0.850261
Si Si2 0.666668 0.333334 0.917276
Si Si3 0.265734 0.263876 0.577081
Si Si4 0.962933 0.481468 0.082602
Si Si5 0.409684 0.334115 0.712834
Si Si6 0.924430 0.334115 0.712834
Si Si7 0.265734 0.001859 0.577081
Si Si8 0.999858 0.264213 0.149738
O O1 0.602238 0.971209 0.890009
O O2 0.714887 0.005110 0.767492
O O3 0.862876 0.137121 0.875908
O O4 0.762227 0.881112 0.866527
O O5 0.592976 0.185935 0.888087
O O6 0.666667 0.333334 0.000000
O O7 0.329270 0.311620 0.500000
O O8 0.366234 0.355435 0.636404
O O9 0.135984 0.271969 0.583823
O O10 0.227059 0.113530 0.590379
O O11 0.028784 0.397758 0.109991
O O12 0.971124 0.485563 0.000000
O O13 0.528049 0.471951 0.739623
O O14 0.460789 0.230395 0.708122
O O15 0.989200 0.355435 0.636404
O O16 0.994888 0.285112 0.767492
O O17 0.329270 0.017651 0.500000
#
# Coordination Sequence:
#
# PCOD8324945 Si02
#       8
#     6   2   6   6   6   6   6   6
#     4  11  23  40  63  91 122 156 196 245 298 351
#     4   9  18  36  66  96 114 144 196 248 280 333
#     4   9  17  30  50  76 106 141 182 230 283 339
#     4  11  22  40  66  92 119 154 198 242 289 349
#     4  10  20  34  54  80 110 146 190 237 287 343
#     4  10  20  34  54  80 110 146 190 237 287 343
#     4   9  17  30  50  76 106 141 182 230 283 339
#     4  11  23  40  63  91 122 156 196 245 298 351
#
# _framework density 19.257169999999999
#
# number of rings (size 3 to 8) (size 9 to 14) (size 15 to 20)
#    0.000    1.909    2.727    1.636    0.000    2.182 
#    0.818    2.727    0.000    3.818    0.000    0.000 
#    0.000    0.000    0.000    0.000    0.000    0.000 
#
# Total GULP energy -545567.830216 kJ/mol
# GULP energy per Si atom -12399.268869 kJ/mol
# Density = 1.921334 g / cm^3
# Si number density = 19.257170 Si / 1000 Ang^3
#
#
#
# Elastic Constant Matrix: (Units=GPa)
#
#
# Indices 1 2 3 4 5 6 
#
# 1 87.9545 33.1544 28.6371 0.0000 0.0000 0.0001
# 2 33.1544 87.9542 28.6372 0.0000 0.0000 0.0000
# 3 28.6371 28.6372 92.6764 0.0000 0.0000 0.0000
# 4 0.0000 0.0000 0.0000 25.9557 0.0000 0.0000
# 5 0.0000 0.0000 0.0000 0.0000 25.9558 0.0000
# 6 0.0001 0.0000 0.0000 0.0000 0.0000 27.4001
#
#
#
# Elastic Compliance Matrix: (Units=1/GPa)
#
#
# Indices 1 2 3 4 5 6 
#
# 1 0.013959 -0.004289 -0.002988 0.000000 0.000000 0.000000
# 2 -0.004289 0.013959 -0.002988 0.000000 0.000000 0.000000
# 3 -0.002988 -0.002988 0.012637 0.000000 0.000000 0.000000
# 4 0.000000 0.000000 0.000000 0.038527 0.000000 0.000000
# 5 0.000000 0.000000 0.000000 0.000000 0.038527 0.000000
# 6 0.000000 0.000000 0.000000 0.000000 0.000000 0.036496
#
#
# Mechanical properties :
#
#
# Convention : Reuss Voigt Hill
#
# Bulk Modulus (GPa) = 49.93798 49.93803 49.93801
# Shear Modulus (GPa) = 27.57691 27.73940 27.65816
#
# Velocity S-wave (km/s) = 3.78833 3.79947 3.79390
# Velocity P-wave (km/s) = 6.71742 6.72580 6.72161
#
# Compressibility (1/GPa) = 0.02002484
#
# Stress axis : x y z
#
# Youngs Moduli (GPa) = 71.63765 71.63730 79.13346
#
# Poissons Ratio (x) = 0.30725 0.23646
# Poissons Ratio (y) = 0.30725 0.23646
# Poissons Ratio (z) = 0.21406 0.21406
#
# Static dielectric constant tensor:
#      x y z
#    x 3.308100 0.000000 0.000000 
#    y 0.000000 3.308110 0.000000 
#    z 0.000000 0.000000 3.673400 
# 
# 
# High freq. dielectric constant tensor:
#      x y z
#    x 1.731740 0.000000 0.000000 
#    y 0.000000 1.731740 0.000000 
#    z 0.000000 0.000000 1.762090 
# 
# From -- ./inp_files/1026.got.cif
#   From: 2010.03.12/outbox.cif.g09.slc.cpg/sg174_cif.got.tgz:1026.got - 2010.04.02 06:54:58.
