data_PCOD8324497
_publ_section_title
;
Structure prediction by ZEFSAII (Michael W. Deem and Ramdas Pophale) SiO2 
 PCOD8324497
Probable space group: P 61
;
_chemical_formula_sum "Si O2"
_cell_formula_units_Z 42
_cell_length_a 11.107823
_cell_length_b 11.107823
_cell_length_c 20.973160
_cell_angle_alpha 90.000000
_cell_angle_beta 90.000000
_cell_angle_gamma 120.000000
_cell_volume 2241.054423
_symmetry_space_group_name_H-M "P 61"
_symmetry_group_IT_number 169
_symmetry_cell_setting 'hexagonal'
loop_
_space_group_symop_operation_xyz
x,y,z
x-y,x,1/6+z
-y,x-y,1/3+z
-x,-y,1/2+z
-x+y,-x,2/3+z
y,-x+y,5/6+z
loop_
_atom_site_type_symbol
_atom_site_label
_atom_site_fract_x
_atom_site_fract_y
_atom_site_fract_z
Si Si1 0.649597 0.631666 0.902080
Si Si2 0.350402 0.982069 0.738650
Si Si3 0.877263 0.315409 0.199853
Si Si4 0.471443 0.254597 0.500694
Si Si5 0.216846 0.745404 0.473370
Si Si6 0.438146 0.315409 0.274211
Si Si7 0.492507 0.999999 0.987032
O O1 0.521916 0.478083 0.903698
O O2 0.634293 0.728031 0.955177
O O3 0.660688 0.694109 0.832022
O O4 0.785757 0.624841 0.915957
O O5 0.214242 0.839083 0.724774
O O6 0.339312 0.033422 0.808708
O O7 0.365704 0.093738 0.685554
O O8 0.785643 0.384054 0.175657
O O9 0.978770 0.403182 0.257234
O O10 0.401872 0.200936 0.570365
O O11 0.499263 0.137796 0.470763
O O12 0.214357 0.598411 0.465074
O O13 0.361467 0.862205 0.503301
O O14 0.424412 0.403181 0.216830
#
# Coordination Sequence:
#
# PCOD8324497 Si02
#       7
#     6   6   6   6   6   6   6
#     4  10  21  36  59  86 123 146 195 251 295 353
#     4  10  21  36  59  86 123 146 195 251 295 353
#     4  10  22  38  58  93 117 154 197 250 305 350
#     4   9  20  36  57  87 118 151 199 237 306 349
#     4   9  20  36  57  87 118 151 199 237 306 349
#     4  10  22  38  58  93 117 154 197 250 305 350
#     4  10  20  38  60  86 118 160 202 236 296 372
#
# _framework density 18.741177
#
# number of rings (size 3 to 8) (size 9 to 14) (size 15 to 20)
#    0.000    2.286    0.000    2.571   12.000    1.143 
#   10.286    0.000    0.000    5.143    0.000    0.000 
#    0.000    0.000    0.000    0.000    0.000    0.000 
#
# Total GULP energy -520755.080429 kJ/mol
# GULP energy per Si atom -12398.930486 kJ/mol
# Density = 1.869852 g / cm^3
# Si number density = 18.741177 Si / 1000 Ang^3
#
#
#
# Elastic Constant Matrix: (Units=GPa)
#
#
# Indices 1 2 3 4 5 6 
#
# 1 112.0787 57.8672 79.9385 0.0000 0.0000 0.0000
# 2 57.8672 112.0787 79.9385 0.0000 0.0000 0.0000
# 3 79.9385 79.9385 164.1688 0.0000 0.0000 0.0000
# 4 0.0000 0.0000 0.0000 33.0412 0.0000 0.0000
# 5 0.0000 0.0000 0.0000 0.0000 33.0412 0.0000
# 6 0.0000 0.0000 0.0000 0.0000 0.0000 27.1058
#
#
#
# Elastic Compliance Matrix: (Units=1/GPa)
#
#
# Indices 1 2 3 4 5 6 
#
# 1 0.014652 -0.003794 -0.005287 0.000000 0.000000 0.000000
# 2 -0.003794 0.014652 -0.005287 0.000000 0.000000 0.000000
# 3 -0.005287 -0.005287 0.011240 0.000000 0.000000 0.000000
# 4 0.000000 0.000000 0.000000 0.030265 0.000000 0.000000
# 5 0.000000 0.000000 0.000000 0.000000 0.030265 0.000000
# 6 0.000000 0.000000 0.000000 0.000000 0.000000 0.036893
#
#
# Mechanical properties :
#
#
# Convention : Reuss Voigt Hill
#
# Bulk Modulus (GPa) = 84.68901 91.53495 88.11198
# Shear Modulus (GPa) = 29.30141 30.00976 29.65558
#
# Velocity S-wave (km/s) = 3.95837 4.00593 3.98222
# Velocity P-wave (km/s) = 8.13501 8.38715 8.26205
#
# Compressibility (1/GPa) = 0.01180791
#
# Stress axis : x y z
#
# Youngs Moduli (GPa) = 68.24921 68.24921 88.96640
#
# Poissons Ratio (x) = 0.25894 0.47038
# Poissons Ratio (y) = 0.25894 0.47038
# Poissons Ratio (z) = 0.36084 0.36084
#
# Static dielectric constant tensor:
#      x y z
#    x 3.299180 0.000000 0.000000 
#    y 0.000000 3.299180 0.000000 
#    z 0.000000 0.000000 3.806180 
# 
# 
# High freq. dielectric constant tensor:
#      x y z
#    x 1.707160 0.000000 0.000000 
#    y 0.000000 1.707160 0.000000 
#    z 0.000000 0.000000 1.751270 
# 
# From -- ./inp_files/1519.got.cif
#   From: 2010.03.12/outbox.cif.g09.slc.cpg/sg169_cif.got.tgz:1519.got - 2010.04.02 06:46:06.
