data_PCOD8324665
_publ_section_title
;
Structure prediction by ZEFSAII (Michael W. Deem and Ramdas Pophale) SiO2 
 PCOD8324665
Probable space group: P 65
;
_chemical_formula_sum "Si O2"
_cell_formula_units_Z 42
_cell_length_a 9.100733
_cell_length_b 9.100733
_cell_length_c 29.571146
_cell_angle_alpha 90.000000
_cell_angle_beta 90.000000
_cell_angle_gamma 120.000000
_cell_volume 2121.053062
_symmetry_space_group_name_H-M "P 65"
_symmetry_group_IT_number 170
_symmetry_cell_setting 'hexagonal'
loop_
_space_group_symop_operation_xyz
x,y,z
x-y,x,5/6+z
-y,x-y,2/3+z
-x,-y,1/2+z
-x+y,-x,1/3+z
y,-x+y,1/6+z
loop_
_atom_site_type_symbol
_atom_site_label
_atom_site_fract_x
_atom_site_fract_y
_atom_site_fract_z
Si Si1 0.423328 0.684575 0.794320
Si Si2 0.567304 0.637916 0.078876
Si Si3 0.989824 0.137929 0.223825
Si Si4 0.522447 0.428680 0.383946
Si Si5 0.607397 0.321791 0.869845
Si Si6 0.806966 0.929343 0.795070
Si Si7 0.805883 0.495349 0.450096
O O1 0.361033 0.824535 0.791045
O O2 0.373221 0.596769 0.843184
O O3 0.345206 0.559487 0.750537
O O4 0.624427 0.764064 0.790060
O O5 0.757394 0.795912 0.075342
O O6 0.463494 0.654581 0.036547
O O7 0.556400 0.456076 0.078425
O O8 0.073837 0.340755 0.229179
O O9 0.085718 0.061122 0.251641
O O10 0.007642 0.096546 0.171924
O O11 0.506585 0.589424 0.368216
O O12 0.629051 0.462523 0.429676
O O13 0.585671 0.211025 0.825740
O O14 0.784877 0.093685 0.798515
#
# Coordination Sequence:
#
# PCOD8324665 Si02
#       7
#     6   6   6   6   6   6   6
#     4   8  18  38  57  88 118 150 208 251 298 362
#     4   8  20  39  58  86 120 157 200 247 312 357
#     4  10  21  39  63  88 118 161 211 252 305 377
#     4  10  22  36  64  91 116 163 209 250 306 365
#     4   9  20  41  58  88 121 161 201 251 302 379
#     4  10  21  38  63  91 118 165 206 252 308 368
#     4  11  22  39  63  90 125 165 199 263 315 358
#
# _framework density 19.801485
#
# number of rings (size 3 to 8) (size 9 to 14) (size 15 to 20)
#    0.857    1.714    0.000    0.857    6.000    2.286 
#    2.571    0.000    0.000    0.000    0.000    0.000 
#    0.000    0.000    0.000    0.000    0.000    0.000 
#
# Total GULP energy -520332.723401 kJ/mol
# GULP energy per Si atom -12388.874367 kJ/mol
# Density = 1.975642 g / cm^3
# Si number density = 19.801485 Si / 1000 Ang^3
#
#
#
# Elastic Constant Matrix: (Units=GPa)
#
#
# Indices 1 2 3 4 5 6 
#
# 1 69.2382 19.7322 26.9145 0.0000 0.0000 0.0000
# 2 19.7322 69.2382 26.9145 0.0000 0.0000 0.0000
# 3 26.9145 26.9145 87.5076 0.0000 0.0000 0.0000
# 4 0.0000 0.0000 0.0000 27.1231 0.0000 0.0000
# 5 0.0000 0.0000 0.0000 0.0000 27.1231 0.0000
# 6 0.0000 0.0000 0.0000 0.0000 0.0000 24.7530
#
#
#
# Elastic Compliance Matrix: (Units=1/GPa)
#
#
# Indices 1 2 3 4 5 6 
#
# 1 0.017004 -0.003195 -0.004247 0.000000 0.000000 0.000000
# 2 -0.003195 0.017004 -0.004247 0.000000 0.000000 0.000000
# 3 -0.004247 -0.004247 0.014040 0.000000 0.000000 0.000000
# 4 0.000000 0.000000 0.000000 0.036869 0.000000 0.000000
# 5 0.000000 0.000000 0.000000 0.000000 0.036869 0.000000
# 6 0.000000 0.000000 0.000000 0.000000 0.000000 0.040399
#
#
# Mechanical properties :
#
#
# Convention : Reuss Voigt Hill
#
# Bulk Modulus (GPa) = 40.53542 41.45625 40.99584
# Shear Modulus (GPa) = 25.80124 25.96134 25.88129
#
# Velocity S-wave (km/s) = 3.61362 3.62481 3.61922
# Velocity P-wave (km/s) = 6.15843 6.20487 6.18170
#
# Compressibility (1/GPa) = 0.02466978
#
# Stress axis : x y z
#
# Youngs Moduli (GPa) = 58.80797 58.80797 71.22377
#
# Poissons Ratio (x) = 0.18790 0.30251
# Poissons Ratio (y) = 0.18790 0.30251
# Poissons Ratio (z) = 0.24978 0.24978
#
# Static dielectric constant tensor:
#      x y z
#    x 3.395580 0.000000 0.000000 
#    y 0.000000 3.395580 0.000000 
#    z 0.000000 0.000000 3.560860 
# 
# 
# High freq. dielectric constant tensor:
#      x y z
#    x 1.754260 0.000000 0.000000 
#    y 0.000000 1.754260 0.000000 
#    z 0.000000 0.000000 1.767430 
# 
# From -- ./inp_files/1929.got.cif
#   From: 2010.03.12/outbox.cif.g09.slc.cpg/sg170_cif.got.tgz:1929.got - 2010.04.02 06:47:37.
