data_PCOD8324054
_publ_section_title
;
Structure prediction by ZEFSAII (Michael W. Deem and Ramdas Pophale) SiO2 
 PCOD8324054
Probable space group: R -3 M
;
_chemical_formula_sum "Si O2"
_cell_formula_units_Z 144
_cell_length_a 21.404251
_cell_length_b 21.404251
_cell_length_c 20.007918
_cell_angle_alpha 90.000000
_cell_angle_beta 90.000000
_cell_angle_gamma 120.000000
_cell_volume 7938.393099
_symmetry_space_group_name_H-M "R -3 M"
_symmetry_group_IT_number 166
_symmetry_cell_setting 'hexagonal'
loop_
_space_group_symop_operation_xyz
x,y,z
-y,x-y,z
-x+y,-x,z
x-y,-y,-z
-x,-x+y,-z
y,x,-z
-x,-y,-z
y,-x+y,-z
x-y,x,-z
-x+y,y,z
x,x-y,z
-y,-x,z
2/3+x,1/3+y,1/3+z
2/3-y,1/3+x-y,1/3+z
2/3-x+y,1/3-x,1/3+z
2/3+x-y,1/3-y,1/3-z
2/3-x,1/3-x+y,1/3-z
2/3+y,1/3+x,1/3-z
2/3-x,1/3-y,1/3-z
2/3+y,1/3-x+y,1/3-z
2/3+x-y,1/3+x,1/3-z
2/3-x+y,1/3+y,1/3+z
2/3+x,1/3+x-y,1/3+z
2/3-y,1/3-x,1/3+z
1/3+x,2/3+y,2/3+z
1/3-y,2/3+x-y,2/3+z
1/3-x+y,2/3-x,2/3+z
1/3+x-y,2/3-y,2/3-z
1/3-x,2/3-x+y,2/3-z
1/3+y,2/3+x,2/3-z
1/3-x,2/3-y,2/3-z
1/3+y,2/3-x+y,2/3-z
1/3+x-y,2/3+x,2/3-z
1/3-x+y,2/3+y,2/3+z
1/3+x,2/3+x-y,2/3+z
1/3-y,2/3-x,2/3+z
loop_
_atom_site_type_symbol
_atom_site_label
_atom_site_fract_x
_atom_site_fract_y
_atom_site_fract_z
Si Si1 0.412370 0.073453 0.145721
Si Si2 0.397525 0.126867 0.013827
Si Si3 0.073396 0.788713 0.398616
Si Si4 0.765281 0.954482 0.942141
O O1 0.439474 0.126051 0.081174
O O2 0.456874 0.114038 0.212028
O O3 0.333334 0.057631 0.166667
O O4 0.414149 0.000320 0.129794
O O5 0.412098 0.206049 0.999364
O O6 0.313435 0.069066 0.025872
O O7 0.430363 0.107304 0.948878
O O8 0.125021 0.874980 0.410731
O O9 0.099417 0.766084 0.333334
O O10 0.770117 0.885059 0.920582
O O11 0.822549 0.000000 0.000000
#
# Coordination Sequence:
#
# PCOD8324054 Si02
#       4
#    36  36  36  36
#     4   9  16  28  44  66  93 122 157 198 243 289
#     4   9  16  28  47  69  96 127 158 198 247 298
#     4   9  17  29  46  69  97 126 156 195 245 296
#     4  10  19  30  46  69  96 127 164 202 241 286
#
# _framework density 18.139692
#
# number of rings (size 3 to 8) (size 9 to 14) (size 15 to 20)
#    0.000    2.750    0.000    4.500    0.000    4.000 
#    0.000    1.250    0.000    2.250    0.000    0.000 
#    0.000    3.000    0.000    0.000    0.000    0.000 
#
# Total GULP energy -594679.070158 kJ/mol
# GULP energy per Si atom -12389.147295 kJ/mol
# Density = 1.809841 g / cm^3
# Si number density = 18.139692 Si / 1000 Ang^3
#
#
#
# Elastic Constant Matrix: (Units=GPa)
#
#
# Indices 1 2 3 4 5 6 
#
# 1 79.8726 40.1871 39.9605 3.9775 0.0000 0.0000
# 2 40.1871 79.8726 39.9605 -3.9775 0.0000 0.0000
# 3 39.9605 39.9605 102.8313 0.0000 0.0000 0.0000
# 4 3.9775 -3.9775 0.0000 18.6238 0.0000 0.0000
# 5 0.0000 0.0000 0.0000 0.0000 18.6238 3.9775
# 6 0.0000 0.0000 0.0000 0.0000 3.9775 19.8427
#
#
#
# Elastic Compliance Matrix: (Units=1/GPa)
#
#
# Indices 1 2 3 4 5 6 
#
# 1 0.018780 -0.007545 -0.004366 -0.005622 0.000000 0.000000
# 2 -0.007545 0.018780 -0.004366 0.005622 0.000000 0.000000
# 3 -0.004366 -0.004366 0.013118 0.000000 0.000000 0.000000
# 4 -0.005622 0.005622 0.000000 0.056096 0.000000 0.000000
# 5 0.000000 0.000000 0.000000 0.000000 0.056096 -0.011245
# 6 0.000000 0.000000 0.000000 0.000000 -0.011245 0.052650
#
#
# Mechanical properties :
#
#
# Convention : Reuss Voigt Hill
#
# Bulk Modulus (GPa) = 55.17363 55.86589 55.51976
# Shear Modulus (GPa) = 19.67593 20.91597 20.29595
#
# Velocity S-wave (km/s) = 3.29704 3.39934 3.34858
# Velocity P-wave (km/s) = 6.70641 6.80234 6.75454
#
# Compressibility (1/GPa) = 0.01812460
#
# Stress axis : x y z
#
# Youngs Moduli (GPa) = 53.24698 53.24698 76.23043
#
# Poissons Ratio (x) = 0.40173 0.33284
# Poissons Ratio (y) = 0.40173 0.33284
# Poissons Ratio (z) = 0.23249 0.23249
#
# Static dielectric constant tensor:
#      x y z
#    x 3.165510 0.000000 0.000000 
#    y 0.000000 3.165510 0.000000 
#    z 0.000000 0.000000 3.597890 
# 
# 
# High freq. dielectric constant tensor:
#      x y z
#    x 1.660860 0.000000 0.000000 
#    y 0.000000 1.660860 0.000000 
#    z 0.000000 0.000000 1.712030 
# 
# From -- ./inp_files/5234.got.cif
#   From: 2010.03.12/outbox.cif.g09.slc.cpg/sg166_3_cif.got.tgz:5234.got - 2010.04.02 06:38:31.
