data_PCOD8324293
_publ_section_title
;
Structure prediction by ZEFSAII (Michael W. Deem and Ramdas Pophale) SiO2 
 PCOD8324293
Probable space group: R -3 C 
;
_chemical_formula_sum "Si O2"
_cell_formula_units_Z 144
_cell_length_a 20.986641
_cell_length_b 20.986641
_cell_length_c 20.002749
_cell_angle_alpha 90.000000
_cell_angle_beta 90.000000
_cell_angle_gamma 120.000000
_cell_volume 7629.677551
_symmetry_space_group_name_H-M "R -3 C "
_symmetry_group_IT_number 167
_symmetry_cell_setting 'hexagonal'
loop_
_space_group_symop_operation_xyz
x,y,z
-y,x-y,z
-x+y,-x,z
x-y,-y,1/2-z
-x,-x+y,1/2-z
y,x,1/2-z
-x,-y,-z
y,-x+y,-z
x-y,x,-z
-x+y,y,1/2+z
x,x-y,1/2+z
-y,-x,1/2+z
2/3+x,1/3+y,1/3+z
2/3-y,1/3+x-y,1/3+z
2/3-x+y,1/3-x,1/3+z
2/3+x-y,1/3-y,5/6-z
2/3-x,1/3-x+y,5/6-z
2/3+y,1/3+x,5/6-z
2/3-x,1/3-y,1/3-z
2/3+y,1/3-x+y,1/3-z
2/3+x-y,1/3+x,1/3-z
2/3-x+y,1/3+y,5/6+z
2/3+x,1/3+x-y,5/6+z
2/3-y,1/3-x,5/6+z
1/3+x,2/3+y,2/3+z
1/3-y,2/3+x-y,2/3+z
1/3-x+y,2/3-x,2/3+z
1/3+x-y,2/3-y,1/6-z
1/3-x,2/3-x+y,1/6-z
1/3+y,2/3+x,1/6-z
1/3-x,2/3-y,2/3-z
1/3+y,2/3-x+y,2/3-z
1/3+x-y,2/3+x,2/3-z
1/3-x+y,2/3+y,1/6+z
1/3+x,2/3+x-y,1/6+z
1/3-y,2/3-x,1/6+z
loop_
_atom_site_type_symbol
_atom_site_label
_atom_site_fract_x
_atom_site_fract_y
_atom_site_fract_z
Si Si1 0.465586 0.083313 0.767244
Si Si2 0.749107 0.609624 0.100236
Si Si3 0.583192 0.046952 0.810407
Si Si4 0.713978 0.125715 0.146973
O O1 0.543915 0.091304 0.783111
O O2 0.439278 0.108240 0.832667
O O3 0.470648 0.133046 0.703353
O O4 0.404423 0.000000 0.750000
O O5 0.666667 0.547002 0.083334
O O6 0.792241 0.569143 0.126382
O O7 0.746425 0.662301 0.157506
O O8 0.791888 0.659174 0.036222
O O9 0.589631 0.000000 0.750000
O O10 0.666667 0.081772 0.083334
#
# Coordination Sequence:
#
# PCOD8324293 Si02
#       4
#    36  36  36  36
#     4  10  21  34  52  81 109 141 178 217 275 324
#     4  10  22  34  52  82 109 145 183 218 277 328
#     4  10  20  33  52  78 108 140 177 220 268 323
#     4  10  19  35  54  76 113 145 178 227 268 322
#
# _framework density 18.873667999999999
#
# number of rings (size 3 to 8) (size 9 to 14) (size 15 to 20)
#    0.000    2.000    0.000    6.000    0.000   12.000 
#    0.000    0.000    0.000    1.000    0.000    7.000 
#    0.000    0.000    0.000    0.000    0.000    0.000 
#
# Total GULP energy -595281.091090 kJ/mol
# GULP energy per Si atom -12401.689398 kJ/mol
# Density = 1.883071 g / cm^3
# Si number density = 18.873668 Si / 1000 Ang^3
#
#
#
# Elastic Constant Matrix: (Units=GPa)
#
#
# Indices 1 2 3 4 5 6 
#
# 1 89.7994 41.2488 39.7359 2.7380 -0.0004 0.0000
# 2 41.2488 89.7994 39.7359 -2.7380 0.0004 0.0000
# 3 39.7359 39.7359 119.5151 0.0000 0.0000 0.0000
# 4 2.7380 -2.7380 0.0000 36.0282 0.0000 0.0004
# 5 -0.0004 0.0004 0.0000 0.0000 36.0282 2.7380
# 6 0.0000 0.0000 0.0000 0.0004 2.7380 24.2753
#
#
#
# Elastic Compliance Matrix: (Units=1/GPa)
#
#
# Indices 1 2 3 4 5 6 
#
# 1 0.015167 -0.005609 -0.003178 -0.001579 0.000000 0.000000
# 2 -0.005609 0.015167 -0.003178 0.001579 0.000000 0.000000
# 3 -0.003178 -0.003178 0.010480 0.000000 0.000000 0.000000
# 4 -0.001579 0.001579 0.000000 0.027996 0.000000 0.000000
# 5 0.000000 0.000000 0.000000 0.000000 0.027996 -0.003158
# 6 0.000000 0.000000 0.000000 0.000000 -0.003158 0.041550
#
#
# Mechanical properties :
#
#
# Convention : Reuss Voigt Hill
#
# Bulk Modulus (GPa) = 59.22450 60.06168 59.64309
# Shear Modulus (GPa) = 29.77750 31.15924 30.46837
#
# Velocity S-wave (km/s) = 3.97637 4.06758 4.02223
# Velocity P-wave (km/s) = 7.24773 7.34523 7.29664
#
# Compressibility (1/GPa) = 0.01688490
#
# Stress axis : x y z
#
# Youngs Moduli (GPa) = 65.93476 65.93476 95.41793
#
# Poissons Ratio (x) = 0.36980 0.30322
# Poissons Ratio (y) = 0.36980 0.30322
# Poissons Ratio (z) = 0.20953 0.20953
#
# Static dielectric constant tensor:
#      x y z
#    x 3.253980 0.000000 0.000000 
#    y 0.000000 3.253980 0.000000 
#    z 0.000000 0.000000 3.860210 
# 
# 
# High freq. dielectric constant tensor:
#      x y z
#    x 1.707750 0.000000 0.000000 
#    y 0.000000 1.707750 0.000000 
#    z 0.000000 0.000000 1.760350 
# 
# From -- ./inp_files/4302.got.cif
#   From: 2010.03.12/outbox.cif.g09.slc.cpg/sg167_3_cif.got.tgz:4302.got - 2010.04.02 06:42:56.
