data_PCOD8324762
_publ_section_title
;
Structure prediction by ZEFSAII (Michael W. Deem and Ramdas Pophale) SiO2 
 PCOD8324762
Probable space group: P 62
;
_chemical_formula_sum "Si O2"
_cell_formula_units_Z 36
_cell_length_a 8.479547
_cell_length_b 8.479547
_cell_length_c 27.412274
_cell_angle_alpha 90.000000
_cell_angle_beta 90.000000
_cell_angle_gamma 120.000000
_cell_volume 1706.950783
_symmetry_space_group_name_H-M "P 62"
_symmetry_group_IT_number 171
_symmetry_cell_setting 'hexagonal'
loop_
_space_group_symop_operation_xyz
x,y,z
x-y,x,1/3+z
-y,x-y,2/3+z
-x,-y,z
-x+y,-x,1/3+z
y,-x+y,2/3+z
loop_
_atom_site_type_symbol
_atom_site_label
_atom_site_fract_x
_atom_site_fract_y
_atom_site_fract_z
Si Si1 0.553671 0.685180 0.928650
Si Si2 0.691417 0.503905 0.569974
Si Si3 0.680030 0.674105 0.825622
Si Si4 0.022763 0.327194 0.759624
Si Si5 0.959281 0.663177 0.651500
Si Si6 0.951740 0.653180 0.478069
O O1 0.500000 0.500000 0.959219
O O2 0.372746 0.680330 0.906709
O O3 0.674748 0.674132 0.884326
O O4 0.687102 0.858273 0.961290
O O5 0.500000 0.500000 0.561774
O O6 0.832876 0.615227 0.527062
O O7 0.781585 0.614859 0.619621
O O8 0.500000 0.500000 0.804016
O O9 0.848436 0.660966 0.803976
O O10 0.703203 0.863118 0.809749
O O11 0.000000 0.500000 0.762577
O O12 0.086492 0.299905 0.706060
O O13 0.822494 0.157154 0.765717
O O14 0.000000 0.500000 0.652545
O O15 0.000000 0.500000 0.467736
#
# Coordination Sequence:
#
# PCOD8324762 Si02
#       6
#     6   6   6   6   6   6
#     4  10  21  40  67  95 129 167 220 273 320 386
#     4  11  22  40  69  98 127 169 222 267 332 388
#     4  11  23  41  65  95 131 170 219 275 319 385
#     4  11  25  41  67  98 136 174 218 263 331 396
#     4   9  20  45  66  92 131 174 212 268 330 393
#     4  12  22  41  66  95 133 172 218 271 318 383
#
# _framework density 21.090240000000001
#
# number of rings (size 3 to 8) (size 9 to 14) (size 15 to 20)
#    0.000    1.333    3.333    2.500    7.000    1.333 
#    0.000    7.500    0.000    0.000    0.000    0.000 
#    0.000    0.000    0.000    0.000    0.000    0.000 
#
# Total GULP energy -446117.242713 kJ/mol
# GULP energy per Si atom -12392.145631 kJ/mol
# Density = 2.104224 g / cm^3
# Si number density = 21.090240 Si / 1000 Ang^3
#
#
#
# Elastic Constant Matrix: (Units=GPa)
#
#
# Indices 1 2 3 4 5 6 
#
# 1 121.9801 39.8356 48.7152 0.0000 0.0000 0.0000
# 2 39.8356 121.9801 48.7152 0.0000 0.0000 0.0000
# 3 48.7152 48.7152 92.4918 0.0000 0.0000 0.0000
# 4 0.0000 0.0000 0.0000 26.2867 0.0000 0.0000
# 5 0.0000 0.0000 0.0000 0.0000 26.2867 0.0000
# 6 0.0000 0.0000 0.0000 0.0000 0.0000 41.0723
#
#
#
# Elastic Compliance Matrix: (Units=1/GPa)
#
#
# Indices 1 2 3 4 5 6 
#
# 1 0.010612 -0.001562 -0.004767 0.000000 0.000000 0.000000
# 2 -0.001562 0.010612 -0.004767 0.000000 0.000000 0.000000
# 3 -0.004767 -0.004767 0.015833 0.000000 0.000000 0.000000
# 4 0.000000 0.000000 0.000000 0.038042 0.000000 0.000000
# 5 0.000000 0.000000 0.000000 0.000000 0.038042 0.000000
# 6 0.000000 0.000000 0.000000 0.000000 0.000000 0.024347
#
#
# Mechanical properties :
#
#
# Convention : Reuss Voigt Hill
#
# Bulk Modulus (GPa) = 67.26593 67.88711 67.57652
# Shear Modulus (GPa) = 30.37055 32.00819 31.18937
#
# Velocity S-wave (km/s) = 3.79889 3.89997 3.84976
# Velocity P-wave (km/s) = 7.15581 7.24834 7.20222
#
# Compressibility (1/GPa) = 0.01486637
#
# Stress axis : x y z
#
# Youngs Moduli (GPa) = 94.23519 94.23519 63.16000
#
# Poissons Ratio (x) = 0.14719 0.30105
# Poissons Ratio (y) = 0.14719 0.30105
# Poissons Ratio (z) = 0.44917 0.44917
#
# Static dielectric constant tensor:
#      x y z
#    x 4.156810 0.000000 0.000000 
#    y 0.000000 4.156810 0.000000 
#    z 0.000000 0.000000 3.990440 
# 
# 
# High freq. dielectric constant tensor:
#      x y z
#    x 1.833250 0.000000 0.000000 
#    y 0.000000 1.833250 0.000000 
#    z 0.000000 0.000000 1.812260 
# 
# From -- ./inp_files/5756.got.cif
#   From: 2010.03.12/outbox.cif.g09.slc.cpg/sg171_3_cif.got.tgz:5756.got - 2010.04.02 06:49:11.
