data_PCOD8324712
_publ_section_title
;
Structure prediction by ZEFSAII (Michael W. Deem and Ramdas Pophale) SiO2 
 PCOD8324712
Probable space group: P 65
;
_chemical_formula_sum "Si O2"
_cell_formula_units_Z 48
_cell_length_a 14.270187
_cell_length_b 14.270187
_cell_length_c 12.246979
_cell_angle_alpha 90.000000
_cell_angle_beta 90.000000
_cell_angle_gamma 120.000000
_cell_volume 2159.826838
_symmetry_space_group_name_H-M "P 65"
_symmetry_group_IT_number 170
_symmetry_cell_setting 'hexagonal'
loop_
_space_group_symop_operation_xyz
x,y,z
x-y,x,5/6+z
-y,x-y,2/3+z
-x,-y,1/2+z
-x+y,-x,1/3+z
y,-x+y,1/6+z
loop_
_atom_site_type_symbol
_atom_site_label
_atom_site_fract_x
_atom_site_fract_y
_atom_site_fract_z
Si Si1 0.270479 0.907923 0.528800
Si Si2 0.278387 0.531413 0.632898
Si Si3 0.168934 0.053586 0.045130
Si Si4 0.388627 0.408132 0.568122
Si Si5 0.965725 0.642092 0.139565
Si Si6 0.620961 0.536307 0.494059
Si Si7 0.252957 0.614750 0.193340
Si Si8 0.279209 0.033625 0.326581
O O1 0.296874 0.811336 0.519694
O O2 0.141186 0.859846 0.537883
O O3 0.324160 0.981061 0.635048
O O4 0.317554 0.983463 0.422215
O O5 0.345774 0.492406 0.559193
O O6 0.162329 0.427488 0.654916
O O7 0.333631 0.576830 0.748533
O O8 0.274655 0.623779 0.559605
O O9 0.218951 0.160966 0.120432
O O10 0.069865 0.953273 0.104197
O O11 0.256967 0.019490 0.019102
O O12 0.347757 0.343957 0.680492
O O13 0.517726 0.475417 0.571463
O O14 0.016311 0.584750 0.213828
O O15 0.659197 0.451418 0.458121
O O16 0.712400 0.639165 0.557420
#
# Coordination Sequence:
#
# PCOD8324712 Si02
#       8
#     6   6   6   6   6   6   6   6
#     4  11  27  45  74 109 155 195 251 320 382 454
#     4  12  26  45  72 103 153 197 249 308 379 451
#     4  12  26  52  75 111 142 194 260 317 381 460
#     4  11  27  45  66 113 151 200 246 310 390 448
#     4  12  26  46  75 106 147 197 250 316 380 456
#     4  11  24  45  77 104 147 193 258 306 373 458
#     4  11  26  45  72 112 145 199 252 305 376 460
#     4  12  24  47  79 104 146 195 252 314 375 447
#
# _framework density 22.224003
#
# number of rings (size 3 to 8) (size 9 to 14) (size 15 to 20)
#    0.000    0.500    3.750    3.000    8.750    2.000 
#    4.500    0.000    0.000    0.000    0.000    0.000 
#    0.000    0.000    0.000    0.000    0.000    0.000 
#
# Total GULP energy -595344.827098 kJ/mol
# GULP energy per Si atom -12403.017231 kJ/mol
# Density = 2.217342 g / cm^3
# Si number density = 22.224003 Si / 1000 Ang^3
#
#
#
# Elastic Constant Matrix: (Units=GPa)
#
#
# Indices 1 2 3 4 5 6 
#
# 1 115.3806 45.7186 50.5953 0.0000 0.0000 0.0000
# 2 45.7186 115.3806 50.5953 0.0000 0.0000 0.0000
# 3 50.5953 50.5953 123.0250 0.0000 0.0000 0.0000
# 4 0.0000 0.0000 0.0000 40.5605 0.0000 0.0000
# 5 0.0000 0.0000 0.0000 0.0000 40.5605 0.0000
# 6 0.0000 0.0000 0.0000 0.0000 0.0000 34.8310
#
#
#
# Elastic Compliance Matrix: (Units=1/GPa)
#
#
# Indices 1 2 3 4 5 6 
#
# 1 0.011362 -0.002993 -0.003442 0.000000 0.000000 0.000000
# 2 -0.002993 0.011362 -0.003442 0.000000 0.000000 0.000000
# 3 -0.003442 -0.003442 0.010960 0.000000 0.000000 0.000000
# 4 0.000000 0.000000 0.000000 0.024655 0.000000 0.000000
# 5 0.000000 0.000000 0.000000 0.000000 0.024655 0.000000
# 6 0.000000 0.000000 0.000000 0.000000 0.000000 0.028710
#
#
# Mechanical properties :
#
#
# Convention : Reuss Voigt Hill
#
# Bulk Modulus (GPa) = 71.78593 71.95607 71.87100
# Shear Modulus (GPa) = 36.73768 36.98221 36.85994
#
# Velocity S-wave (km/s) = 4.07020 4.08372 4.07697
# Velocity P-wave (km/s) = 7.37969 7.39484 7.38727
#
# Compressibility (1/GPa) = 0.01393031
#
# Stress axis : x y z
#
# Youngs Moduli (GPa) = 88.01121 88.01121 91.24479
#
# Poissons Ratio (x) = 0.26340 0.31406
# Poissons Ratio (y) = 0.26340 0.31406
# Poissons Ratio (z) = 0.30293 0.30293
#
# Static dielectric constant tensor:
#      x y z
#    x 4.122120 0.000000 0.000000 
#    y 0.000000 4.122120 0.000000 
#    z 0.000000 0.000000 4.129580 
# 
# 
# High freq. dielectric constant tensor:
#      x y z
#    x 1.878420 0.000000 0.000000 
#    y 0.000000 1.878420 0.000000 
#    z 0.000000 0.000000 1.891330 
# 
# From -- ./inp_files/1062.got.cif
#   From: 2010.03.12/outbox.cif.g09.slc.cpg/sg170_cif.got.tgz:1062.got - 2010.04.02 06:47:37.
