data_PCOD8324684
_publ_section_title
;
Structure prediction by ZEFSAII (Michael W. Deem and Ramdas Pophale) SiO2 
 PCOD8324684
Probable space group: P 65
;
_chemical_formula_sum "Si O2"
_cell_formula_units_Z 48
_cell_length_a 15.701240
_cell_length_b 15.701240
_cell_length_c 11.175216
_cell_angle_alpha 90.000000
_cell_angle_beta 90.000000
_cell_angle_gamma 120.000000
_cell_volume 2385.912222
_symmetry_space_group_name_H-M "P 65"
_symmetry_group_IT_number 170
_symmetry_cell_setting 'hexagonal'
loop_
_space_group_symop_operation_xyz
x,y,z
x-y,x,5/6+z
-y,x-y,2/3+z
-x,-y,1/2+z
-x+y,-x,1/3+z
y,-x+y,1/6+z
loop_
_atom_site_type_symbol
_atom_site_label
_atom_site_fract_x
_atom_site_fract_y
_atom_site_fract_z
Si Si1 0.662634 0.664485 0.401780
Si Si2 0.148577 0.792465 0.040344
Si Si3 0.557815 0.889021 0.785159
Si Si4 0.442117 0.532123 0.366776
Si Si5 0.056926 0.715167 0.802329
Si Si6 0.380736 0.774756 0.608186
Si Si7 0.780067 0.163536 0.112175
Si Si8 0.710732 0.427298 0.210087
O O1 0.685533 0.776494 0.389463
O O2 0.748208 0.655474 0.332355
O O3 0.657393 0.639440 0.543729
O O4 0.558754 0.578260 0.350251
O O5 0.213619 0.747376 0.988326
O O6 0.068958 0.761918 0.934681
O O7 0.514444 0.911241 0.903821
O O8 0.469291 0.821850 0.699017
O O9 0.612804 0.829898 0.822199
O O10 0.390641 0.443539 0.463191
O O11 0.424143 0.616746 0.421798
O O12 0.142522 0.795722 0.720186
O O13 0.950440 0.693625 0.758968
O O14 0.308032 0.814684 0.641221
O O15 0.332983 0.656846 0.611470
O O16 0.415663 0.788342 0.471637
#
# Coordination Sequence:
#
# PCOD8324684 Si02
#       8
#     6   6   6   6   6   6   6   6
#     4  11  25  42  63  98 127 178 212 275 332 382
#     4  11  25  41  64  94 129 169 220 271 325 392
#     4  11  23  41  62  92 133 170 218 265 318 390
#     4  10  23  39  61  93 131 176 218 256 307 388
#     4  11  23  43  63  93 122 173 216 273 323 387
#     4  12  20  36  58  91 137 175 215 251 308 387
#     4  11  25  40  65  91 125 172 219 271 324 387
#     4  11  20  36  58  90 132 175 214 246 315 369
#
# _framework density 20.118091
#
# number of rings (size 3 to 8) (size 9 to 14) (size 15 to 20)
#    0.000    1.000    5.000    2.250    7.000    2.000 
#    0.000    0.000    0.000    0.000   16.250    0.000 
#    0.000    0.000    0.000    0.000    0.000    0.000 
#
# Total GULP energy -594747.995370 kJ/mol
# GULP energy per Si atom -12390.583237 kJ/mol
# Density = 2.007230 g / cm^3
# Si number density = 20.118091 Si / 1000 Ang^3
#
#
#
# Elastic Constant Matrix: (Units=GPa)
#
#
# Indices 1 2 3 4 5 6 
#
# 1 86.9426 55.7303 31.0114 0.0000 0.0000 0.0000
# 2 55.7303 86.9426 31.0114 0.0000 0.0000 0.0000
# 3 31.0114 31.0114 84.4858 0.0000 0.0000 0.0000
# 4 0.0000 0.0000 0.0000 31.2360 0.0000 0.0000
# 5 0.0000 0.0000 0.0000 0.0000 31.2360 0.0000
# 6 0.0000 0.0000 0.0000 0.0000 0.0000 15.6062
#
#
#
# Elastic Compliance Matrix: (Units=1/GPa)
#
#
# Indices 1 2 3 4 5 6 
#
# 1 0.020189 -0.011849 -0.003061 0.000000 0.000000 0.000000
# 2 -0.011849 0.020189 -0.003061 0.000000 0.000000 0.000000
# 3 -0.003061 -0.003061 0.014084 0.000000 0.000000 0.000000
# 4 0.000000 0.000000 0.000000 0.032014 0.000000 0.000000
# 5 0.000000 0.000000 0.000000 0.000000 0.032014 0.000000
# 6 0.000000 0.000000 0.000000 0.000000 0.000000 0.064077
#
#
# Mechanical properties :
#
#
# Convention : Reuss Voigt Hill
#
# Bulk Modulus (GPa) = 54.00042 54.87524 54.43783
# Shear Modulus (GPa) = 22.25344 24.99017 23.62180
#
# Velocity S-wave (km/s) = 3.32948 3.52827 3.43032
# Velocity P-wave (km/s) = 6.45605 6.62828 6.54273
#
# Compressibility (1/GPa) = 0.01851838
#
# Stress axis : x y z
#
# Youngs Moduli (GPa) = 49.53143 49.53143 71.00447
#
# Poissons Ratio (x) = 0.58692 0.21736
# Poissons Ratio (y) = 0.58692 0.21736
# Poissons Ratio (z) = 0.15163 0.15163
#
# Static dielectric constant tensor:
#      x y z
#    x 3.711430 0.000000 0.000000 
#    y 0.000000 3.711430 0.000000 
#    z 0.000000 0.000000 3.684150 
# 
# 
# High freq. dielectric constant tensor:
#      x y z
#    x 1.775270 0.000000 0.000000 
#    y 0.000000 1.775270 0.000000 
#    z 0.000000 0.000000 1.782940 
# 
# From -- ./inp_files/1073.got.cif
#   From: 2010.03.12/outbox.cif.g09.slc.cpg/sg170_cif.got.tgz:1073.got - 2010.04.02 06:47:37.
