data_PCOD8324899
_publ_section_title
;
Structure prediction by ZEFSAII (Michael W. Deem and Ramdas Pophale) SiO2 
 PCOD8324899
Probable space group: P -6
;
_chemical_formula_sum "Si O2"
_cell_formula_units_Z 48
_cell_length_a 22.899363
_cell_length_b 22.899363
_cell_length_c 9.100994
_cell_angle_alpha 90.000000
_cell_angle_beta 90.000000
_cell_angle_gamma 120.000000
_cell_volume 4133.008162
_symmetry_space_group_name_H-M "P -6"
_symmetry_group_IT_number 174
_symmetry_cell_setting 'hexagonal'
loop_
_space_group_symop_operation_xyz
x,y,z
-x+y,-x,-z
-y,x-y,z
x,y,-z
-x+y,-x,z
-y,x-y,-z
loop_
_atom_site_type_symbol
_atom_site_label
_atom_site_fract_x
_atom_site_fract_y
_atom_site_fract_z
Si Si1 0.059091 0.258955 0.662321
Si Si2 0.997949 0.130308 0.827265
Si Si3 0.133078 0.134026 0.825703
Si Si4 0.733474 0.935477 0.334206
Si Si5 0.145423 0.401210 0.667384
Si Si6 0.332146 0.544087 0.827852
Si Si7 0.450639 0.661532 0.330031
Si Si8 0.259173 0.394460 0.168196
O O1 0.029411 0.234786 0.500000
O O2 0.006866 0.201372 0.771232
O O3 0.133038 0.267935 0.677119
O O4 0.071254 0.334532 0.695650
O O5 0.060266 0.121647 0.773539
O O6 0.928877 0.068269 0.766480
O O7 0.995278 0.131066 0.000000
O O8 0.193191 0.201569 0.753808
O O9 0.140047 0.141365 0.000000
O O10 0.738359 0.960759 0.500000
O O11 0.663928 0.925564 0.263587
O O12 0.168438 0.395173 0.500000
O O13 0.147579 0.472490 0.682043
O O14 0.195064 0.401093 0.789391
O O15 0.278405 0.554777 0.736184
O O16 0.405518 0.595055 0.764339
O O17 0.322789 0.469371 0.805911
O O18 0.326600 0.557938 0.000000
O O19 0.427292 0.651792 0.500000
O O20 0.252585 0.371860 0.000000
#
# Coordination Sequence:
#
# PCOD8324899 Si02
#       8
#     6   6   6   6   6   6   6   6
#     4   8  14  24  35  46  60  76  95 122 152 180
#     4   9  16  24  34  47  62  81 102 124 151 185
#     4   9  16  25  35  47  64  83 103 126 154 188
#     4   9  16  25  36  48  61  77  99 126 153 182
#     4   8  15  26  37  48  61  77  99 126 152 180
#     4  10  19  28  36  48  66  83 100 125 157 191
#     4  10  18  27  38  49  62  82 105 126 153 190
#     4   9  16  25  37  49  60  77  99 123 152 184
#
# _framework density 11.613816999999999
#
# number of rings (size 3 to 8) (size 9 to 14) (size 15 to 20)
#    0.000    3.000    0.000    2.750    0.000    6.500 
#    0.000    0.000    0.000    1.500    0.000    0.000 
#    0.000    0.000    0.000    0.000    0.000    0.000 
#
# Total GULP energy -594709.182875 kJ/mol
# GULP energy per Si atom -12389.774643 kJ/mol
# Density = 1.158738 g / cm^3
# Si number density = 11.613817 Si / 1000 Ang^3
#
#
#
# Elastic Constant Matrix: (Units=GPa)
#
#
# Indices 1 2 3 4 5 6 
#
# 1 56.5468 35.5179 25.2983 0.0000 0.0000 0.0000
# 2 35.5179 56.5468 25.2983 0.0000 0.0000 0.0000
# 3 25.2983 25.2983 47.1397 0.0000 0.0000 0.0000
# 4 0.0000 0.0000 0.0000 15.1507 0.0000 0.0000
# 5 0.0000 0.0000 0.0000 0.0000 15.1507 0.0000
# 6 0.0000 0.0000 0.0000 0.0000 0.0000 10.5144
#
#
#
# Elastic Compliance Matrix: (Units=1/GPa)
#
#
# Indices 1 2 3 4 5 6 
#
# 1 0.031480 -0.016074 -0.008268 0.000000 0.000000 0.000000
# 2 -0.016074 0.031480 -0.008268 0.000000 0.000000 0.000000
# 3 -0.008268 -0.008268 0.030088 0.000000 0.000000 0.000000
# 4 0.000000 0.000000 0.000000 0.066004 0.000000 0.000000
# 5 0.000000 0.000000 0.000000 0.000000 0.066004 0.000000
# 6 0.000000 0.000000 0.000000 0.000000 0.000000 0.095107
#
#
# Mechanical properties :
#
#
# Convention : Reuss Voigt Hill
#
# Bulk Modulus (GPa) = 35.93498 36.94026 36.43762
# Shear Modulus (GPa) = 12.66925 13.10441 12.88683
#
# Velocity S-wave (km/s) = 3.30643 3.36273 3.33470
# Velocity P-wave (km/s) = 6.75169 6.85226 6.80216
#
# Compressibility (1/GPa) = 0.02782804
#
# Stress axis : x y z
#
# Youngs Moduli (GPa) = 31.76651 31.76651 33.23638
#
# Poissons Ratio (x) = 0.51062 0.27479
# Poissons Ratio (y) = 0.51062 0.27479
# Poissons Ratio (z) = 0.26264 0.26264
#
# Static dielectric constant tensor:
#      x y z
#    x 2.420360 0.000000 0.000000 
#    y 0.000000 2.420360 0.000000 
#    z 0.000000 0.000000 2.529690 
# 
# 
# High freq. dielectric constant tensor:
#      x y z
#    x 1.406720 0.000000 0.000000 
#    y 0.000000 1.406720 0.000000 
#    z 0.000000 0.000000 1.453730 
# 
# From -- ./inp_files/587.got.cif
#   From: 2010.03.12/outbox.cif.g09.slc.cpg/sg174_cif.got.tgz:587.got - 2010.04.02 06:54:58.
