data_PCOD8324571
_publ_section_title
;
Structure prediction by ZEFSAII (Michael W. Deem and Ramdas Pophale) SiO2 
 PCOD8324571
Probable space group: P 61
;
_chemical_formula_sum "Si O2"
_cell_formula_units_Z 48
_cell_length_a 12.005030
_cell_length_b 12.005030
_cell_length_c 16.727845
_cell_angle_alpha 90.000000
_cell_angle_beta 90.000000
_cell_angle_gamma 120.000000
_cell_volume 2087.839581
_symmetry_space_group_name_H-M "P 61"
_symmetry_group_IT_number 169
_symmetry_cell_setting 'hexagonal'
loop_
_space_group_symop_operation_xyz
x,y,z
x-y,x,1/6+z
-y,x-y,1/3+z
-x,-y,1/2+z
-x+y,-x,2/3+z
y,-x+y,5/6+z
loop_
_atom_site_type_symbol
_atom_site_label
_atom_site_fract_x
_atom_site_fract_y
_atom_site_fract_z
Si Si1 0.633729 0.547933 0.938330
Si Si2 0.098703 0.364292 0.379576
Si Si3 0.038266 0.731795 0.406377
Si Si4 0.826705 0.162988 0.377980
Si Si5 0.114734 0.022194 0.796111
Si Si6 0.319436 0.603504 0.132331
Si Si7 0.589483 0.674818 0.079391
Si Si8 0.552411 0.118693 0.660284
O O1 0.777872 0.643191 0.908943
O O2 0.593249 0.399339 0.921991
O O3 0.539064 0.583389 0.893138
O O4 0.622647 0.579815 0.030299
O O5 0.086111 0.356465 0.283131
O O6 0.110606 0.497268 0.408890
O O7 0.971711 0.240194 0.412950
O O8 0.178583 0.847345 0.378630
O O9 0.060056 0.658223 0.479801
O O10 0.948334 0.781164 0.443324
O O11 0.961040 0.633983 0.335938
O O12 0.798254 0.273111 0.348446
O O13 0.816683 0.064011 0.308657
O O14 0.050898 0.019724 0.884283
O O15 0.435698 0.622680 0.074237
O O16 0.379471 0.731859 0.188051
#
# Coordination Sequence:
#
# PCOD8324571 Si02
#       8
#     6   6   6   6   6   6   6   6
#     4  11  26  45  76 108 141 194 252 307 372 456
#     4  11  24  45  67 107 141 190 238 305 370 436
#     4  11  25  48  70 106 146 197 241 310 371 443
#     4  12  25  44  75 104 151 191 245 306 377 454
#     4  12  27  49  72 110 152 198 253 309 380 461
#     4  10  27  45  70 111 139 198 242 305 373 455
#     4  11  26  47  76 103 148 193 247 308 377 453
#     4  10  24  47  72 103 150 187 248 306 370 438
#
# _framework density 22.990271
#
# number of rings (size 3 to 8) (size 9 to 14) (size 15 to 20)
#    0.000    1.000    3.750    0.750    8.750    3.000 
#    2.250    0.000    0.000    0.000    0.000    0.000 
#    0.000    0.000    0.000    0.000    0.000    0.000 
#
# Total GULP energy -594940.101520 kJ/mol
# GULP energy per Si atom -12394.585448 kJ/mol
# Density = 2.293794 g / cm^3
# Si number density = 22.990271 Si / 1000 Ang^3
#
#
#
# Elastic Constant Matrix: (Units=GPa)
#
#
# Indices 1 2 3 4 5 6 
#
# 1 132.2718 54.9043 39.9367 0.0000 0.0000 0.0000
# 2 54.9043 132.2718 39.9367 0.0000 0.0000 0.0000
# 3 39.9367 39.9367 102.2008 0.0000 0.0000 0.0000
# 4 0.0000 0.0000 0.0000 23.9651 0.0000 0.0000
# 5 0.0000 0.0000 0.0000 0.0000 23.9651 0.0000
# 6 0.0000 0.0000 0.0000 0.0000 0.0000 38.6838
#
#
#
# Elastic Compliance Matrix: (Units=1/GPa)
#
#
# Indices 1 2 3 4 5 6 
#
# 1 0.009669 -0.003257 -0.002505 0.000000 0.000000 0.000000
# 2 -0.003257 0.009669 -0.002505 0.000000 0.000000 0.000000
# 3 -0.002505 -0.002505 0.011743 0.000000 0.000000 0.000000
# 4 0.000000 0.000000 0.000000 0.041727 0.000000 0.000000
# 5 0.000000 0.000000 0.000000 0.000000 0.041727 0.000000
# 6 0.000000 0.000000 0.000000 0.000000 0.000000 0.025851
#
#
# Mechanical properties :
#
#
# Convention : Reuss Voigt Hill
#
# Bulk Modulus (GPa) = 68.75559 70.69999 69.72779
# Shear Modulus (GPa) = 30.90829 32.78723 31.84776
#
# Velocity S-wave (km/s) = 3.67059 3.78052 3.72596
# Velocity P-wave (km/s) = 6.92356 7.06225 6.99325
#
# Compressibility (1/GPa) = 0.01454427
#
# Stress axis : x y z
#
# Youngs Moduli (GPa) = 103.42842 103.42842 85.15860
#
# Poissons Ratio (x) = 0.33684 0.21336
# Poissons Ratio (y) = 0.33684 0.21336
# Poissons Ratio (z) = 0.25914 0.25914
#
# Static dielectric constant tensor:
#      x y z
#    x 4.301380 0.000000 0.000000 
#    y 0.000000 4.301380 0.000000 
#    z 0.000000 0.000000 3.928540 
# 
# 
# High freq. dielectric constant tensor:
#      x y z
#    x 1.919120 0.000000 0.000000 
#    y 0.000000 1.919120 0.000000 
#    z 0.000000 0.000000 1.882880 
# 
# From -- ./inp_files/1431.got.cif
#   From: 2010.03.12/outbox.cif.g09.slc.cpg/sg169_cif.got.tgz:1431.got - 2010.04.02 06:46:06.
