data_PCOD8324180
_publ_section_title
;
Structure prediction by ZEFSAII (Michael W. Deem and Ramdas Pophale) SiO2 
 PCOD8324180
Probable space group: R -3 M
;
_chemical_formula_sum "Si O2"
_cell_formula_units_Z 216
_cell_length_a 22.334390
_cell_length_b 22.334390
_cell_length_c 24.642673
_cell_angle_alpha 90.000000
_cell_angle_beta 90.000000
_cell_angle_gamma 120.000000
_cell_volume 10645.514032
_symmetry_space_group_name_H-M "R -3 M"
_symmetry_group_IT_number 166
_symmetry_cell_setting 'hexagonal'
loop_
_space_group_symop_operation_xyz
x,y,z
-y,x-y,z
-x+y,-x,z
x-y,-y,-z
-x,-x+y,-z
y,x,-z
-x,-y,-z
y,-x+y,-z
x-y,x,-z
-x+y,y,z
x,x-y,z
-y,-x,z
2/3+x,1/3+y,1/3+z
2/3-y,1/3+x-y,1/3+z
2/3-x+y,1/3-x,1/3+z
2/3+x-y,1/3-y,1/3-z
2/3-x,1/3-x+y,1/3-z
2/3+y,1/3+x,1/3-z
2/3-x,1/3-y,1/3-z
2/3+y,1/3-x+y,1/3-z
2/3+x-y,1/3+x,1/3-z
2/3-x+y,1/3+y,1/3+z
2/3+x,1/3+x-y,1/3+z
2/3-y,1/3-x,1/3+z
1/3+x,2/3+y,2/3+z
1/3-y,2/3+x-y,2/3+z
1/3-x+y,2/3-x,2/3+z
1/3+x-y,2/3-y,2/3-z
1/3-x,2/3-x+y,2/3-z
1/3+y,2/3+x,2/3-z
1/3-x,2/3-y,2/3-z
1/3+y,2/3-x+y,2/3-z
1/3+x-y,2/3+x,2/3-z
1/3-x+y,2/3+y,2/3+z
1/3+x,2/3+x-y,2/3+z
1/3-y,2/3-x,2/3+z
loop_
_atom_site_type_symbol
_atom_site_label
_atom_site_fract_x
_atom_site_fract_y
_atom_site_fract_z
Si Si1 0.797676 0.465839 0.973940
Si Si2 0.367151 0.339851 0.557776
Si Si3 0.490745 0.644481 0.911473
Si Si4 0.000826 0.869512 0.871307
Si Si5 0.136301 0.416402 0.715312
Si Si6 0.855482 0.283662 0.785138
O O1 0.738704 0.477408 0.947106
O O2 0.768552 0.384276 0.979047
O O3 0.865091 0.501254 0.937736
O O4 0.812013 0.498982 0.034024
O O5 0.376522 0.376522 0.500000
O O6 0.420858 0.314685 0.562954
O O7 0.381753 0.396108 0.605361
O O8 0.295463 0.267949 0.560054
O O9 0.435557 0.564444 0.922328
O O10 0.469243 0.674219 0.860451
O O11 0.923516 0.847031 0.890137
O O12 0.022261 0.817609 0.897517
O O13 0.053012 0.946989 0.892140
O O14 0.200917 0.401833 0.703710
O O15 0.124914 0.458247 0.666667
O O16 0.798050 0.201951 0.798122
O O17 0.855997 0.333334 0.833334
#
# Coordination Sequence:
#
# PCOD8324180 Si02
#       6
#    36  36  36  36  36  36
#     4  10  21  37  59  88 121 158 202 254 307 364
#     4  11  23  42  62  90 121 161 206 251 310 361
#     4  10  21  37  58  86 121 159 201 250 306 365
#     4  10  20  37  61  88 120 157 201 250 308 371
#     4  11  25  43  63  91 126 163 208 258 310 372
#     4  10  22  40  63  91 125 164 208 254 309 375
#
# _framework density 20.290236
#
# number of rings (size 3 to 8) (size 9 to 14) (size 15 to 20)
#    0.000    1.667    1.667    2.333    2.333    1.667 
#    0.000    5.833    0.000    5.333    0.000    0.000 
#    0.000    0.000    0.000    0.000    0.000    0.000 
#
# Total GULP energy -892089.963313 kJ/mol
# GULP energy per Si atom -12390.138379 kJ/mol
# Density = 2.024405 g / cm^3
# Si number density = 20.290236 Si / 1000 Ang^3
#
#
#
# Elastic Constant Matrix: (Units=GPa)
#
#
# Indices 1 2 3 4 5 6 
#
# 1 69.8561 65.4467 31.8086 -13.2081 0.0006 0.0000
# 2 65.4467 69.8561 31.8086 13.2081 -0.0006 0.0000
# 3 31.8086 31.8086 76.1777 0.0000 0.0000 0.0000
# 4 -13.2081 13.2081 0.0000 26.7442 0.0000 -0.0006
# 5 0.0006 -0.0006 0.0000 0.0000 26.7442 -13.2081
# 6 0.0000 0.0000 0.0000 -0.0006 -13.2081 2.2047
#
#
#
# Elastic Compliance Matrix: (Units=1/GPa)
#
#
# Indices 1 2 3 4 5 6 
#
# 1 -0.053294 0.062491 -0.003840 -0.057182 0.000003 0.000000
# 2 0.062491 -0.053294 -0.003840 0.057182 -0.000003 0.000000
# 3 -0.003840 -0.003840 0.016334 0.000000 0.000000 0.000000
# 4 -0.057182 0.057182 0.000000 -0.019090 0.000000 -0.000005
# 5 0.000003 -0.000003 0.000000 0.000000 -0.019090 -0.114365
# 6 0.000000 0.000000 0.000000 -0.000005 -0.114365 -0.231570
#
#
# Mechanical properties :
#
#
# Convention : Reuss Voigt Hill
#
# Bulk Modulus (GPa) = 51.63501 52.66864 52.15182
# Shear Modulus (GPa) = -10.79516 16.92702 3.06593
#
# Velocity S-wave (km/s) = -2.30910 2.89146 1.23058
# Velocity P-wave (km/s) = 4.28885 6.09601 5.27047
#
# Compressibility (1/GPa) = 0.01936671
#
# Stress axis : x y z
#
# Youngs Moduli (GPa) = -18.76369 -18.76369 61.22176
#
# Poissons Ratio (x) = 1.17256 0.23509
# Poissons Ratio (y) = 1.17256 0.23509
# Poissons Ratio (z) = -0.07205 -0.07205
#
# Static dielectric constant tensor:
#      x y z
#    x 4.074440 0.000000 0.000000 
#    y 0.000000 4.074440 0.000000 
#    z 0.000000 0.000000 3.908010 
# 
# 
# High freq. dielectric constant tensor:
#      x y z
#    x 1.794230 0.000000 0.000000 
#    y 0.000000 1.794230 0.000000 
#    z 0.000000 0.000000 1.793170 
# 
# From -- ./inp_files/8421.got.cif
#   From: 2010.03.12/outbox.cif.g09.slc.cpg/sg166_5_cif.got.tgz:8421.got - 2010.04.02 06:38:31.
