data_PCOD8324186
_publ_section_title
;
Structure prediction by ZEFSAII (Michael W. Deem and Ramdas Pophale) SiO2 
 PCOD8324186
Probable space group: R -3 M
;
_chemical_formula_sum "Si O2"
_cell_formula_units_Z 162
_cell_length_a 21.523659
_cell_length_b 21.523659
_cell_length_c 20.143310
_cell_angle_alpha 90.000000
_cell_angle_beta 90.000000
_cell_angle_gamma 120.000000
_cell_volume 8081.531572
_symmetry_space_group_name_H-M "R -3 M"
_symmetry_group_IT_number 166
_symmetry_cell_setting 'hexagonal'
loop_
_space_group_symop_operation_xyz
x,y,z
-y,x-y,z
-x+y,-x,z
x-y,-y,-z
-x,-x+y,-z
y,x,-z
-x,-y,-z
y,-x+y,-z
x-y,x,-z
-x+y,y,z
x,x-y,z
-y,-x,z
2/3+x,1/3+y,1/3+z
2/3-y,1/3+x-y,1/3+z
2/3-x+y,1/3-x,1/3+z
2/3+x-y,1/3-y,1/3-z
2/3-x,1/3-x+y,1/3-z
2/3+y,1/3+x,1/3-z
2/3-x,1/3-y,1/3-z
2/3+y,1/3-x+y,1/3-z
2/3+x-y,1/3+x,1/3-z
2/3-x+y,1/3+y,1/3+z
2/3+x,1/3+x-y,1/3+z
2/3-y,1/3-x,1/3+z
1/3+x,2/3+y,2/3+z
1/3-y,2/3+x-y,2/3+z
1/3-x+y,2/3-x,2/3+z
1/3+x-y,2/3-y,2/3-z
1/3-x,2/3-x+y,2/3-z
1/3+y,2/3+x,2/3-z
1/3-x,2/3-y,2/3-z
1/3+y,2/3-x+y,2/3-z
1/3+x-y,2/3+x,2/3-z
1/3-x+y,2/3+y,2/3+z
1/3+x,2/3+x-y,2/3+z
1/3-y,2/3-x,2/3+z
loop_
_atom_site_type_symbol
_atom_site_label
_atom_site_fract_x
_atom_site_fract_y
_atom_site_fract_z
Si Si1 0.896511 0.103490 0.178182
Si Si2 0.412730 0.825460 0.634042
Si Si3 0.187941 0.164475 0.571920
Si Si4 0.761949 0.523898 0.010598
Si Si5 0.000000 0.407580 0.500000
Si Si6 0.626604 0.641487 0.267779
Si Si7 0.174337 0.348674 0.646093
O O1 0.923388 0.076613 0.113534
O O2 0.920449 0.079552 0.247144
O O3 0.928363 0.187731 0.179911
O O4 0.333334 0.788340 0.666667
O O5 0.455677 0.911353 0.645554
O O6 0.148595 0.148595 0.500000
O O7 0.208360 0.104180 0.586972
O O8 0.141336 0.165359 0.634003
O O9 0.260444 0.240702 0.567585
O O10 0.805089 0.610177 0.024617
O O11 0.020136 0.378837 0.562838
O O12 0.666667 0.682796 0.333334
O O13 0.567456 0.556976 0.269197
#
# Coordination Sequence:
#
# PCOD8324186 Si02
#       7
#    18  18  36  18  18  36  18
#     4  11  22  39  66  94 128 163 214 275 320 378
#     4  12  25  45  68  95 128 171 216 261 332 407
#     4  11  22  41  64  89 128 173 217 270 330 395
#     4  10  22  41  65  97 125 165 222 277 324 380
#     4  11  20  36  62  98 126 167 212 266 328 377
#     4  11  22  36  60  95 131 167 215 269 330 397
#     4  10  20  38  66  94 129 168 216 271 317 390
#
# _framework density 20.045705000000002
#
# number of rings (size 3 to 8) (size 9 to 14) (size 15 to 20)
#    0.000    1.111    2.222    7.444    0.000    0.444 
#    2.667    0.556    0.000    0.000    0.000    0.000 
#    0.000    0.000    0.000    0.000    0.000    0.000 
#
# Total GULP energy -669024.008837 kJ/mol
# GULP energy per Si atom -12389.333497 kJ/mol
# Density = 2.000008 g / cm^3
# Si number density = 20.045705 Si / 1000 Ang^3
#
#
#
# Elastic Constant Matrix: (Units=GPa)
#
#
# Indices 1 2 3 4 5 6 
#
# 1 68.9312 84.5091 47.3889 9.4050 -0.0049 0.0000
# 2 84.5091 68.9312 47.3889 -9.4050 0.0049 0.0000
# 3 47.3889 47.3889 168.4962 0.0000 0.0000 0.0000
# 4 9.4050 -9.4050 0.0000 29.5155 0.0000 0.0049
# 5 -0.0049 0.0049 0.0000 0.0000 29.5155 9.4050
# 6 0.0000 0.0000 0.0000 0.0049 9.4050 -7.7890
#
#
#
# Elastic Compliance Matrix: (Units=1/GPa)
#
#
# Indices 1 2 3 4 5 6 
#
# 1 -0.019235 0.027122 -0.002218 0.014772 -0.000008 0.000000
# 2 0.027122 -0.019235 -0.002218 -0.014772 0.000008 0.000000
# 3 -0.002218 -0.002218 0.007183 0.000000 0.000000 0.000000
# 4 0.014772 -0.014772 0.000000 0.024467 0.000000 0.000016
# 5 -0.000008 0.000008 0.000000 0.000000 0.024467 0.029543
# 6 0.000000 0.000000 0.000000 0.000016 0.029543 -0.092714
#
#
# Mechanical properties :
#
#
# Convention : Reuss Voigt Hill
#
# Bulk Modulus (GPa) = 71.00140 73.88139 72.44139
# Shear Modulus (GPa) = -43.19858 18.71984 -12.23937
#
# Velocity S-wave (km/s) = -4.64724 3.05922 -2.47366
# Velocity P-wave (km/s) = 2.58861 7.02958 5.29697
#
# Compressibility (1/GPa) = 0.01408423
#
# Stress axis : x y z
#
# Youngs Moduli (GPa) = -51.98891 -51.98891 139.22469
#
# Poissons Ratio (x) = 1.41006 0.30884
# Poissons Ratio (y) = 1.41006 0.30884
# Poissons Ratio (z) = -0.11533 -0.11533
#
# Static dielectric constant tensor:
#      x y z
#    x 3.708790 0.000000 0.000000 
#    y 0.000000 3.708790 0.000000 
#    z 0.000000 0.000000 3.723380 
# 
# 
# High freq. dielectric constant tensor:
#      x y z
#    x 1.775010 0.000000 0.000000 
#    y 0.000000 1.775010 0.000000 
#    z 0.000000 0.000000 1.797000 
# 
# From -- ./inp_files/6844.got.cif
#   From: 2010.03.12/outbox.cif.g09.slc.cpg/sg166_4_cif.got.tgz:6844.got - 2010.04.02 06:38:31.
