data_PCOD8324793
_publ_section_title
;
Structure prediction by ZEFSAII (Michael W. Deem and Ramdas Pophale) SiO2 
 PCOD8324793
Probable space group: P 62
;
_chemical_formula_sum "Si O2"
_cell_formula_units_Z 39
_cell_length_a 12.627479
_cell_length_b 12.627479
_cell_length_c 13.171557
_cell_angle_alpha 90.000000
_cell_angle_beta 90.000000
_cell_angle_gamma 120.000000
_cell_volume 1818.867476
_symmetry_space_group_name_H-M "P 62"
_symmetry_group_IT_number 171
_symmetry_cell_setting 'hexagonal'
loop_
_space_group_symop_operation_xyz
x,y,z
x-y,x,1/3+z
-y,x-y,2/3+z
-x,-y,z
-x+y,-x,1/3+z
y,-x+y,2/3+z
loop_
_atom_site_type_symbol
_atom_site_label
_atom_site_fract_x
_atom_site_fract_y
_atom_site_fract_z
Si Si1 0.239611 0.570199 0.155080
Si Si2 0.500000 0.000000 0.162629
Si Si3 0.000000 0.000000 0.562598
Si Si4 0.626356 0.935877 0.788118
Si Si5 0.043107 0.365279 0.660115
Si Si6 0.462300 0.769522 0.282272
Si Si7 0.000000 0.500000 0.284005
Si Si8 0.187354 0.094467 0.066755
O O1 0.230304 0.441943 0.122971
O O2 0.365717 0.653965 0.215559
O O3 0.120063 0.540280 0.218217
O O4 0.240783 0.642598 0.056574
O O5 0.500695 0.898250 0.232489
O O6 0.386225 0.933139 0.087766
O O7 0.900754 0.894065 0.490654
O O8 0.084596 0.968696 0.630917
O O9 0.590109 0.980874 0.688617
O O10 0.593635 0.977255 0.894818
O O11 0.772340 0.005812 0.780459
O O12 0.181641 0.406612 0.625935
O O13 0.949766 0.230737 0.702362
#
# Coordination Sequence:
#
# PCOD8324793 Si02
#       8
#     6   3   3   6   6   6   3   6
#     4  12  26  49  72 109 149 194 248 308 376 450
#     4  12  26  44  74 106 150 198 242 306 376 442
#     4  10  24  46  68 104 144 182 244 304 372 444
#     4  12  25  45  75 107 145 194 251 305 370 456
#     4  12  25  45  75 107 145 194 251 305 370 456
#     4  12  26  49  72 109 149 194 248 308 376 450
#     4  12  26  44  74 106 150 198 242 306 376 442
#     4  11  24  46  72 106 140 192 242 311 374 443
#
# _framework density 21.441915000000002
#
# number of rings (size 3 to 8) (size 9 to 14) (size 15 to 20)
#    0.000    0.308    4.615    4.615    0.000    2.462 
#    5.538    0.000    0.000    0.000    0.000    0.000 
#    0.000    0.000    0.000    0.000    0.000    0.000 
#
# Total GULP energy -483377.542513 kJ/mol
# GULP energy per Si atom -12394.295962 kJ/mol
# Density = 2.139311 g / cm^3
# Si number density = 21.441915 Si / 1000 Ang^3
#
#
#
# Elastic Constant Matrix: (Units=GPa)
#
#
# Indices 1 2 3 4 5 6 
#
# 1 85.9808 20.6319 23.2264 0.0000 0.0000 0.0000
# 2 20.6319 85.9808 23.2264 0.0000 0.0000 0.0000
# 3 23.2264 23.2264 127.8778 0.0000 0.0000 0.0000
# 4 0.0000 0.0000 0.0000 90.3751 0.0000 0.0000
# 5 0.0000 0.0000 0.0000 0.0000 90.3751 0.0000
# 6 0.0000 0.0000 0.0000 0.0000 0.0000 32.6745
#
#
#
# Elastic Compliance Matrix: (Units=1/GPa)
#
#
# Indices 1 2 3 4 5 6 
#
# 1 0.012744 -0.002558 -0.001850 0.000000 0.000000 0.000000
# 2 -0.002558 0.012744 -0.001850 0.000000 0.000000 0.000000
# 3 -0.001850 -0.001850 0.008492 0.000000 0.000000 0.000000
# 4 0.000000 0.000000 0.000000 0.011065 0.000000 0.000000
# 5 0.000000 0.000000 0.000000 0.000000 0.011065 0.000000
# 6 0.000000 0.000000 0.000000 0.000000 0.000000 0.030605
#
#
# Mechanical properties :
#
#
# Convention : Reuss Voigt Hill
#
# Bulk Modulus (GPa) = 46.59075 48.22321 47.40698
# Shear Modulus (GPa) = 46.99839 58.20190 52.60014
#
# Velocity S-wave (km/s) = 4.68685 5.21564 4.95830
# Velocity P-wave (km/s) = 7.14596 7.66874 7.41196
#
# Compressibility (1/GPa) = 0.02146349
#
# Stress axis : x y z
#
# Youngs Moduli (GPa) = 78.46734 78.46734 117.75765
#
# Poissons Ratio (x) = 0.20074 0.21786
# Poissons Ratio (y) = 0.20074 0.21786
# Poissons Ratio (z) = 0.14517 0.14517
#
# Static dielectric constant tensor:
#      x y z
#    x 3.717980 0.000000 0.000000 
#    y 0.000000 3.717980 0.000000 
#    z 0.000000 0.000000 4.301720 
# 
# 
# High freq. dielectric constant tensor:
#      x y z
#    x 1.842320 0.000000 0.000000 
#    y 0.000000 1.842320 0.000000 
#    z 0.000000 0.000000 1.873630 
# 
# From -- ./inp_files/2040.got.cif
#   From: 2010.03.12/outbox.cif.g09.slc.cpg/sg171_2_cif.got.tgz:2040.got - 2010.04.02 06:49:11.
