data_PCOD8324927
_publ_section_title
;
Structure prediction by ZEFSAII (Michael W. Deem and Ramdas Pophale) SiO2 
 PCOD8324927
Probable space group: P -6
;
_chemical_formula_sum "Si O2"
_cell_formula_units_Z 28
_cell_length_a 14.378467
_cell_length_b 14.378467
_cell_length_c 8.765620
_cell_angle_alpha 90.000000
_cell_angle_beta 90.000000
_cell_angle_gamma 120.000000
_cell_volume 1569.417320
_symmetry_space_group_name_H-M "P -6"
_symmetry_group_IT_number 174
_symmetry_cell_setting 'hexagonal'
loop_
_space_group_symop_operation_xyz
x,y,z
-x+y,-x,-z
-y,x-y,z
x,y,-z
-x+y,-x,z
-y,x-y,-z
loop_
_atom_site_type_symbol
_atom_site_label
_atom_site_fract_x
_atom_site_fract_y
_atom_site_fract_z
Si Si1 0.333333 0.666666 0.680097
Si Si2 0.294116 0.333335 0.179369
Si Si3 0.448947 0.545675 0.319771
Si Si4 0.666670 0.753674 0.680525
Si Si5 0.879004 0.115608 0.319771
Si Si6 0.000000 0.000000 0.319903
O O1 0.333334 0.666668 0.500000
O O2 0.216283 0.636850 0.736139
O O3 0.408037 0.433887 0.232982
O O4 0.190059 0.333336 0.248849
O O5 0.307484 0.232782 0.232981
O O6 0.283920 0.333336 0.000000
O O7 0.446857 0.526242 0.500000
O O8 0.565370 0.640725 0.267605
O O9 0.666670 0.770370 0.500000
O O10 0.767973 0.742032 0.732398
O O11 0.859573 0.113522 0.500000
O O12 0.912756 0.029804 0.263865
O O13 0.000000 0.000000 0.500000
#
# Coordination Sequence:
#
# PCOD8324927 Si02
#       6
#     2   6   6   6   6   2
#     4   9  15  27  55  83 106 135 175 227 268 312
#     4  12  24  34  50  81 118 151 178 215 276 340
#     4  10  19  35  56  80 108 143 187 228 269 318
#     4  10  20  36  60  83 104 141 190 235 274 314
#     4  10  19  35  56  80 108 143 187 228 269 318
#     4   9  15  27  55  83 106 135 175 227 268 312
#
# _framework density 17.841014999999999
#
# number of rings (size 3 to 8) (size 9 to 14) (size 15 to 20)
#    0.000    1.714    4.286    1.929    0.000    1.714 
#    0.000    0.000    0.000    0.857    0.000    3.000 
#    0.000    0.000    0.000    0.000    0.000    0.000 
#
# Total GULP energy -346999.131584 kJ/mol
# GULP energy per Si atom -12392.826128 kJ/mol
# Density = 1.780041 g / cm^3
# Si number density = 17.841015 Si / 1000 Ang^3
#
#
#
# Elastic Constant Matrix: (Units=GPa)
#
#
# Indices 1 2 3 4 5 6 
#
# 1 87.5592 39.3205 33.5911 0.0000 0.0000 0.0005
# 2 39.3205 87.5607 33.5908 0.0000 0.0000 -0.0003
# 3 33.5911 33.5908 60.9194 0.0000 0.0000 0.0002
# 4 0.0000 0.0000 0.0000 12.0032 0.0000 0.0000
# 5 0.0000 0.0000 0.0000 0.0000 12.0033 0.0000
# 6 0.0005 -0.0003 0.0002 0.0000 0.0000 24.1195
#
#
#
# Elastic Compliance Matrix: (Units=1/GPa)
#
#
# Indices 1 2 3 4 5 6 
#
# 1 0.015931 -0.004799 -0.006138 0.000000 0.000000 0.000000
# 2 -0.004799 0.015930 -0.006138 0.000000 0.000000 0.000000
# 3 -0.006138 -0.006138 0.023184 0.000000 0.000000 0.000000
# 4 0.000000 0.000000 0.000000 0.083311 0.000000 0.000000
# 5 0.000000 0.000000 0.000000 0.000000 0.083311 0.000000
# 6 0.000000 0.000000 0.000000 0.000000 0.000000 0.041460
#
#
# Mechanical properties :
#
#
# Convention : Reuss Voigt Hill
#
# Bulk Modulus (GPa) = 47.85759 49.89379 48.87569
# Shear Modulus (GPa) = 16.43429 18.26099 17.34764
#
# Velocity S-wave (km/s) = 3.03834 3.20275 3.12163
# Velocity P-wave (km/s) = 6.26030 6.45781 6.35982
#
# Compressibility (1/GPa) = 0.02089532
#
# Stress axis : x y z
#
# Youngs Moduli (GPa) = 62.77128 62.77299 43.13328
#
# Poissons Ratio (x) = 0.30126 0.26475
# Poissons Ratio (y) = 0.30126 0.26474
# Poissons Ratio (z) = 0.38529 0.38528
#
# Static dielectric constant tensor:
#      x y z
#    x 3.698830 0.000000 0.000000 
#    y 0.000000 3.698830 0.000000 
#    z 0.000000 0.000000 3.007150 
# 
# 
# High freq. dielectric constant tensor:
#      x y z
#    x 1.685650 0.000000 0.000000 
#    y 0.000000 1.685650 0.000000 
#    z 0.000000 0.000000 1.662680 
# 
# From -- ./inp_files/295.got.cif
#   From: 2010.03.12/outbox.cif.g09.slc.cpg/sg174_cif.got.tgz:295.got - 2010.04.02 06:54:58.
