data_PCOD8324149
_publ_section_title
;
Structure prediction by ZEFSAII (Michael W. Deem and Ramdas Pophale) SiO2 
 PCOD8324149
Probable space group: R -3 M
;
_chemical_formula_sum "Si O2"
_cell_formula_units_Z 216
_cell_length_a 24.863642
_cell_length_b 24.863642
_cell_length_c 22.617444
_cell_angle_alpha 90.000000
_cell_angle_beta 90.000000
_cell_angle_gamma 120.000000
_cell_volume 12108.870743
_symmetry_space_group_name_H-M "R -3 M"
_symmetry_group_IT_number 166
_symmetry_cell_setting 'hexagonal'
loop_
_space_group_symop_operation_xyz
x,y,z
-y,x-y,z
-x+y,-x,z
x-y,-y,-z
-x,-x+y,-z
y,x,-z
-x,-y,-z
y,-x+y,-z
x-y,x,-z
-x+y,y,z
x,x-y,z
-y,-x,z
2/3+x,1/3+y,1/3+z
2/3-y,1/3+x-y,1/3+z
2/3-x+y,1/3-x,1/3+z
2/3+x-y,1/3-y,1/3-z
2/3-x,1/3-x+y,1/3-z
2/3+y,1/3+x,1/3-z
2/3-x,1/3-y,1/3-z
2/3+y,1/3-x+y,1/3-z
2/3+x-y,1/3+x,1/3-z
2/3-x+y,1/3+y,1/3+z
2/3+x,1/3+x-y,1/3+z
2/3-y,1/3-x,1/3+z
1/3+x,2/3+y,2/3+z
1/3-y,2/3+x-y,2/3+z
1/3-x+y,2/3-x,2/3+z
1/3+x-y,2/3-y,2/3-z
1/3-x,2/3-x+y,2/3-z
1/3+y,2/3+x,2/3-z
1/3-x,2/3-y,2/3-z
1/3+y,2/3-x+y,2/3-z
1/3+x-y,2/3+x,2/3-z
1/3-x+y,2/3+y,2/3+z
1/3+x,2/3+x-y,2/3+z
1/3-y,2/3-x,2/3+z
loop_
_atom_site_type_symbol
_atom_site_label
_atom_site_fract_x
_atom_site_fract_y
_atom_site_fract_z
Si Si1 0.341177 0.402090 0.308561
Si Si2 0.454146 0.093061 0.465641
Si Si3 0.879396 0.999334 0.933004
Si Si4 0.366604 0.121973 0.081862
Si Si5 0.720571 0.157092 0.791181
Si Si6 0.342104 0.232763 0.454203
O O1 0.296010 0.333334 0.333334
O O2 0.373446 0.446633 0.364270
O O3 0.303051 0.428316 0.272644
O O4 0.395905 0.406999 0.267303
O O5 0.514445 0.151433 0.439654
O O6 0.473613 0.073932 0.525807
O O7 0.405301 0.115904 0.478590
O O8 0.425866 0.033404 0.422111
O O9 0.908277 0.954139 0.928428
O O10 0.931887 0.068114 0.912345
O O11 0.858022 0.000000 0.000000
O O12 0.354196 0.177098 0.064316
O O13 0.771154 0.228847 0.780806
O O14 0.666667 0.154542 0.833334
O O15 0.749033 0.120459 0.824789
O O16 0.351308 0.175654 0.433417
#
# Coordination Sequence:
#
# PCOD8324149 Si02
#       6
#    36  36  36  36  36  36
#     4  11  20  34  54  79 110 146 180 221 270 324
#     4  11  21  36  52  75 105 145 185 223 270 323
#     4  10  21  36  54  75 100 133 178 234 284 321
#     4  11  23  36  52  75 109 148 183 222 270 332
#     4   9  20  37  59  84 113 146 181 224 275 327
#     4  10  20  34  53  79 110 143 184 224 266 321
#
# _framework density 17.838162000000001
#
# number of rings (size 3 to 8) (size 9 to 14) (size 15 to 20)
#    0.000    1.667    1.667    4.167    7.000    1.667 
#    0.000    1.667    0.000    0.167    0.000    0.000 
#    0.000    0.000    0.000    0.000    0.000    0.000 
#
# Total GULP energy -892818.096596 kJ/mol
# GULP energy per Si atom -12400.251342 kJ/mol
# Density = 1.779756 g / cm^3
# Si number density = 17.838162 Si / 1000 Ang^3
#
#
#
# Elastic Constant Matrix: (Units=GPa)
#
#
# Indices 1 2 3 4 5 6 
#
# 1 98.9545 52.2760 43.2333 6.0336 0.0002 0.0000
# 2 52.2760 98.9545 43.2333 -6.0336 -0.0002 0.0000
# 3 43.2333 43.2333 91.5764 0.0000 0.0000 0.0000
# 4 6.0336 -6.0336 0.0000 21.1777 0.0000 -0.0002
# 5 0.0002 -0.0002 0.0000 0.0000 21.1777 6.0336
# 6 0.0000 0.0000 0.0000 -0.0002 6.0336 23.3393
#
#
#
# Elastic Compliance Matrix: (Units=1/GPa)
#
#
# Indices 1 2 3 4 5 6 
#
# 1 0.016092 -0.007035 -0.004276 -0.006589 0.000000 0.000000
# 2 -0.007035 0.016092 -0.004276 0.006589 0.000000 0.000000
# 3 -0.004276 -0.004276 0.014957 0.000000 0.000000 0.000000
# 4 -0.006589 0.006589 0.000000 0.050974 0.000000 0.000000
# 5 0.000000 0.000000 0.000000 0.000000 0.050974 -0.013178
# 6 0.000000 0.000000 0.000000 0.000000 -0.013178 0.046253
#
#
# Mechanical properties :
#
#
# Convention : Reuss Voigt Hill
#
# Bulk Modulus (GPa) = 62.62561 62.99675 62.81118
# Shear Modulus (GPa) = 21.56691 23.18846 22.37769
#
# Velocity S-wave (km/s) = 3.48089 3.60937 3.54571
# Velocity P-wave (km/s) = 7.16514 7.26378 7.21463
#
# Compressibility (1/GPa) = 0.01596791
#
# Stress axis : x y z
#
# Youngs Moduli (GPa) = 62.14343 62.14343 66.85761
#
# Poissons Ratio (x) = 0.43715 0.28588
# Poissons Ratio (y) = 0.43715 0.28588
# Poissons Ratio (z) = 0.26572 0.26572
#
# Static dielectric constant tensor:
#      x y z
#    x 3.272990 0.000000 0.000000 
#    y 0.000000 3.272990 0.000000 
#    z 0.000000 0.000000 3.267530 
# 
# 
# High freq. dielectric constant tensor:
#      x y z
#    x 1.684920 0.000000 0.000000 
#    y 0.000000 1.684920 0.000000 
#    z 0.000000 0.000000 1.685400 
# 
# From -- ./inp_files/8437.got.cif
#   From: 2010.03.12/outbox.cif.g09.slc.cpg/sg166_5_cif.got.tgz:8437.got - 2010.04.02 06:38:31.
