data_PCOD8324544
_publ_section_title
;
Structure prediction by ZEFSAII (Michael W. Deem and Ramdas Pophale) SiO2 
 PCOD8324544
Probable space group: P 61
;
_chemical_formula_sum "Si O2"
_cell_formula_units_Z 30
_cell_length_a 11.787142
_cell_length_b 11.787142
_cell_length_c 11.566151
_cell_angle_alpha 90.000000
_cell_angle_beta 90.000000
_cell_angle_gamma 120.000000
_cell_volume 1391.670818
_symmetry_space_group_name_H-M "P 61"
_symmetry_group_IT_number 169
_symmetry_cell_setting 'hexagonal'
loop_
_space_group_symop_operation_xyz
x,y,z
x-y,x,1/6+z
-y,x-y,1/3+z
-x,-y,1/2+z
-x+y,-x,2/3+z
y,-x+y,5/6+z
loop_
_atom_site_type_symbol
_atom_site_label
_atom_site_fract_x
_atom_site_fract_y
_atom_site_fract_z
Si Si1 0.125092 0.681905 0.488050
Si Si2 0.503746 0.285183 0.211860
Si Si3 0.902114 0.117228 0.610393
Si Si4 0.692494 0.036685 0.943534
Si Si5 0.432900 0.916282 0.814424
O O1 0.185074 0.587930 0.466833
O O2 0.240054 0.828457 0.518113
O O3 0.079721 0.711398 0.367543
O O4 0.007311 0.620975 0.581787
O O5 0.358587 0.220872 0.261550
O O6 0.505301 0.330345 0.079784
O O7 0.553269 0.179510 0.221271
O O8 0.970439 0.124305 0.489115
O O9 0.013727 0.223981 0.695248
O O10 0.571921 0.023436 0.867519
#
# Coordination Sequence:
#
# PCOD8324544 Si02
#       5
#     6   6   6   6   6
#     4  11  23  41  68  98 130 172 222 274 336 402
#     4  10  23  43  68  97 132 176 217 280 336 398
#     4  11  22  46  67  89 129 181 225 263 333 403
#     4  10  22  41  67  92 128 175 218 265 332 404
#     4  10  24  41  66 100 133 170 222 278 339 395
#
# _framework density 21.556820999999999
#
# number of rings (size 3 to 8) (size 9 to 14) (size 15 to 20)
#    0.000    1.600    2.000    2.400    8.400    0.000 
#   10.800    0.000    0.000    0.000    0.000    0.000 
#    0.000    0.000    0.000    0.000    0.000    0.000 
#
# Total GULP energy -371918.415106 kJ/mol
# GULP energy per Si atom -12397.280504 kJ/mol
# Density = 2.150776 g / cm^3
# Si number density = 21.556821 Si / 1000 Ang^3
#
#
#
# Elastic Constant Matrix: (Units=GPa)
#
#
# Indices 1 2 3 4 5 6 
#
# 1 100.5594 47.5960 22.6928 0.0000 0.0000 0.0000
# 2 47.5960 100.5594 22.6928 0.0000 0.0000 0.0000
# 3 22.6928 22.6928 56.6572 0.0000 0.0000 0.0000
# 4 0.0000 0.0000 0.0000 32.5454 0.0000 0.0000
# 5 0.0000 0.0000 0.0000 0.0000 32.5454 0.0000
# 6 0.0000 0.0000 0.0000 0.0000 0.0000 26.4817
#
#
#
# Elastic Compliance Matrix: (Units=1/GPa)
#
#
# Indices 1 2 3 4 5 6 
#
# 1 0.013287 -0.005594 -0.003082 0.000000 0.000000 0.000000
# 2 -0.005594 0.013287 -0.003082 0.000000 0.000000 0.000000
# 3 -0.003082 -0.003082 0.020118 0.000000 0.000000 0.000000
# 4 0.000000 0.000000 0.000000 0.030726 0.000000 0.000000
# 5 0.000000 0.000000 0.000000 0.000000 0.030726 0.000000
# 6 0.000000 0.000000 0.000000 0.000000 0.000000 0.037762
#
#
# Mechanical properties :
#
#
# Convention : Reuss Voigt Hill
#
# Bulk Modulus (GPa) = 43.14122 49.30436 46.22279
# Shear Modulus (GPa) = 28.22505 29.30080 28.76292
#
# Velocity S-wave (km/s) = 3.62240 3.69078 3.65675
# Velocity P-wave (km/s) = 6.12796 6.40968 6.27040
#
# Compressibility (1/GPa) = 0.02317969
#
# Stress axis : x y z
#
# Youngs Moduli (GPa) = 75.25971 75.25971 49.70555
#
# Poissons Ratio (x) = 0.42098 0.15317
# Poissons Ratio (y) = 0.42098 0.15317
# Poissons Ratio (z) = 0.23191 0.23191
#
# Static dielectric constant tensor:
#      x y z
#    x 3.800210 0.000000 0.000000 
#    y 0.000000 3.800210 0.000000 
#    z 0.000000 0.000000 3.772980 
# 
# 
# High freq. dielectric constant tensor:
#      x y z
#    x 1.842410 0.000000 0.000000 
#    y 0.000000 1.842410 0.000000 
#    z 0.000000 0.000000 1.838380 
# 
# From -- ./inp_files/876.got.cif
#   From: 2010.03.12/outbox.cif.g09.slc.cpg/sg169_cif.got.tgz:876.got - 2010.04.02 06:46:06.
