data_PCOD8324688
_publ_section_title
;
Structure prediction by ZEFSAII (Michael W. Deem and Ramdas Pophale) SiO2 
 PCOD8324688
Probable space group: P 65
;
_chemical_formula_sum "Si O2"
_cell_formula_units_Z 48
_cell_length_a 14.593451
_cell_length_b 14.593451
_cell_length_c 9.745862
_cell_angle_alpha 90.000000
_cell_angle_beta 90.000000
_cell_angle_gamma 120.000000
_cell_volume 1797.491717
_symmetry_space_group_name_H-M "P 65"
_symmetry_group_IT_number 170
_symmetry_cell_setting 'hexagonal'
loop_
_space_group_symop_operation_xyz
x,y,z
x-y,x,5/6+z
-y,x-y,2/3+z
-x,-y,1/2+z
-x+y,-x,1/3+z
y,-x+y,1/6+z
loop_
_atom_site_type_symbol
_atom_site_label
_atom_site_fract_x
_atom_site_fract_y
_atom_site_fract_z
Si Si1 0.356077 0.493648 0.736530
Si Si2 0.669936 0.513299 0.522695
Si Si3 0.185721 0.548013 0.708543
Si Si4 0.823513 0.018440 0.894688
Si Si5 0.717406 0.226263 0.109343
Si Si6 0.892960 0.091679 0.320964
Si Si7 0.065864 0.385152 0.486574
Si Si8 0.426359 0.361520 0.146102
O O1 0.295212 0.550151 0.674977
O O2 0.344976 0.403337 0.629231
O O3 0.481954 0.583665 0.764065
O O4 0.299110 0.425406 0.876793
O O5 0.766182 0.524854 0.617478
O O6 0.612599 0.395525 0.459283
O O7 0.599291 0.546614 0.609297
O O8 0.203786 0.666252 0.693687
O O9 0.107220 0.485229 0.585052
O O10 0.141761 0.491958 0.853491
O O11 0.747548 0.065445 0.848897
O O12 0.827169 0.941845 0.772731
O O13 0.770413 0.945239 0.028460
O O14 0.713497 0.123294 0.172607
O O15 0.791054 0.089739 0.386232
O O16 0.974046 0.115776 0.441498
#
# Coordination Sequence:
#
# PCOD8324688 Si02
#       8
#     6   6   6   6   6   6   6   6
#     4  12  28  48  72 118 165 215 276 349 419 517
#     4  12  27  47  79 117 161 220 287 343 422 513
#     4  12  27  47  74 116 158 215 275 341 419 513
#     4  10  25  51  82 122 158 212 284 352 435 522
#     4  12  25  49  77 116 157 230 274 340 422 514
#     4  10  23  47  78 109 145 204 268 338 421 508
#     4  12  24  49  75 112 163 210 276 340 427 501
#     4  12  27  50  79 118 171 220 282 353 433 524
#
# _framework density 26.703878
#
# number of rings (size 3 to 8) (size 9 to 14) (size 15 to 20)
#    0.000    0.500    3.750    3.000    5.250    2.000 
#    2.250   13.750    0.000    0.000    0.000    0.000 
#    0.000    0.000    0.000    0.000    0.000    0.000 
#
# Total GULP energy -594751.577344 kJ/mol
# GULP energy per Si atom -12390.657861 kJ/mol
# Density = 2.664310 g / cm^3
# Si number density = 26.703878 Si / 1000 Ang^3
#
#
#
# Elastic Constant Matrix: (Units=GPa)
#
#
# Indices 1 2 3 4 5 6 
#
# 1 136.9097 43.0190 42.6847 0.0000 0.0000 0.0000
# 2 43.0190 136.9097 42.6847 0.0000 0.0000 0.0000
# 3 42.6847 42.6847 106.8892 0.0000 0.0000 0.0000
# 4 0.0000 0.0000 0.0000 34.9227 0.0000 0.0000
# 5 0.0000 0.0000 0.0000 0.0000 34.9227 0.0000
# 6 0.0000 0.0000 0.0000 0.0000 0.0000 46.9454
#
#
#
# Elastic Compliance Matrix: (Units=1/GPa)
#
#
# Indices 1 2 3 4 5 6 
#
# 1 0.008754 -0.001897 -0.002738 0.000000 0.000000 0.000000
# 2 -0.001897 0.008754 -0.002738 0.000000 0.000000 0.000000
# 3 -0.002738 -0.002738 0.011542 0.000000 0.000000 0.000000
# 4 0.000000 0.000000 0.000000 0.028635 0.000000 0.000000
# 5 0.000000 0.000000 0.000000 0.000000 0.028635 0.000000
# 6 0.000000 0.000000 0.000000 0.000000 0.000000 0.021301
#
#
# Mechanical properties :
#
#
# Convention : Reuss Voigt Hill
#
# Bulk Modulus (GPa) = 69.91339 70.83172 70.37255
# Shear Modulus (GPa) = 39.32823 40.17951 39.75387
#
# Velocity S-wave (km/s) = 3.84181 3.88317 3.86254
# Velocity P-wave (km/s) = 6.77622 6.83285 6.80459
#
# Compressibility (1/GPa) = 0.01430341
#
# Stress axis : x y z
#
# Youngs Moduli (GPa) = 114.23592 114.23592 86.63691
#
# Poissons Ratio (x) = 0.21669 0.23723
# Poissons Ratio (y) = 0.21669 0.23723
# Poissons Ratio (z) = 0.31280 0.31280
#
# Static dielectric constant tensor:
#      x y z
#    x 5.060330 0.000000 0.000000 
#    y 0.000000 5.060330 0.000000 
#    z 0.000000 0.000000 4.987830 
# 
# 
# High freq. dielectric constant tensor:
#      x y z
#    x 2.084320 0.000000 0.000000 
#    y 0.000000 2.084320 0.000000 
#    z 0.000000 0.000000 2.064800 
# 
# From -- ./inp_files/1080.got.cif
#   From: 2010.03.12/outbox.cif.g09.slc.cpg/sg170_cif.got.tgz:1080.got - 2010.04.02 06:47:37.
