data_PCOD8324801
_publ_section_title
;
Structure prediction by ZEFSAII (Michael W. Deem and Ramdas Pophale) SiO2 
 PCOD8324801
Probable space group: P 62
;
_chemical_formula_sum "Si O2"
_cell_formula_units_Z 33
_cell_length_a 19.044305
_cell_length_b 19.044305
_cell_length_c 5.462063
_cell_angle_alpha 90.000000
_cell_angle_beta 90.000000
_cell_angle_gamma 120.000000
_cell_volume 1715.606145
_symmetry_space_group_name_H-M "P 62"
_symmetry_group_IT_number 171
_symmetry_cell_setting 'hexagonal'
loop_
_space_group_symop_operation_xyz
x,y,z
x-y,x,1/3+z
-y,x-y,2/3+z
-x,-y,z
-x+y,-x,1/3+z
y,-x+y,2/3+z
loop_
_atom_site_type_symbol
_atom_site_label
_atom_site_fract_x
_atom_site_fract_y
_atom_site_fract_z
Si Si1 0.883589 0.282228 0.232110
Si Si2 0.360805 0.949960 0.717563
Si Si3 0.408273 0.195106 0.066044
Si Si4 0.500000 0.500000 0.398808
Si Si5 0.285698 0.585257 0.280542
Si Si6 0.135573 0.573686 0.099867
O O1 0.851069 0.223402 0.472834
O O2 0.847926 0.343913 0.237308
O O3 0.981237 0.333466 0.237585
O O4 0.859080 0.230936 0.977582
O O5 0.270346 0.877425 0.763983
O O6 0.418360 0.924159 0.582301
O O7 0.416607 0.989340 0.953388
O O8 0.503968 0.226701 0.057767
O O9 0.438690 0.524912 0.521039
O O10 0.264816 0.624817 0.510647
O O11 0.220397 0.573626 0.067068
#
# Coordination Sequence:
#
# PCOD8324801 Si02
#       6
#     6   6   6   3   6   6
#     4  12  22  44  59  84 114 158 196 258 313 355
#     4  11  25  40  59  88 115 159 210 256 302 378
#     4  11  28  38  62  87 116 151 212 253 306 368
#     4  12  20  38  62  78 112 160 204 258 300 358
#     4  11  23  37  51  77 118 157 197 269 319 359
#     4  11  22  34  57  81 110 156 208 249 303 363
#
# _framework density 19.235182999999999
#
# number of rings (size 3 to 8) (size 9 to 14) (size 15 to 20)
#    0.000    0.727    5.455    2.182    5.091    1.455 
#    0.000    0.000    0.000    0.000    0.000    0.000 
#    0.000    0.000    0.000    8.182    0.000    0.364 
#
# Total GULP energy -408877.132854 kJ/mol
# GULP energy per Si atom -12390.216147 kJ/mol
# Density = 1.919140 g / cm^3
# Si number density = 19.235183 Si / 1000 Ang^3
#
#
#
# Elastic Constant Matrix: (Units=GPa)
#
#
# Indices 1 2 3 4 5 6 
#
# 1 47.8688 21.8279 28.2067 0.0000 0.0000 0.0000
# 2 21.8279 47.8688 28.2067 0.0000 0.0000 0.0000
# 3 28.2067 28.2067 113.6355 0.0000 0.0000 0.0000
# 4 0.0000 0.0000 0.0000 25.2257 0.0000 0.0000
# 5 0.0000 0.0000 0.0000 0.0000 25.2257 0.0000
# 6 0.0000 0.0000 0.0000 0.0000 0.0000 13.0204
#
#
#
# Elastic Compliance Matrix: (Units=1/GPa)
#
#
# Indices 1 2 3 4 5 6 
#
# 1 0.028178 -0.010223 -0.004457 0.000000 0.000000 0.000000
# 2 -0.010223 0.028178 -0.004457 0.000000 0.000000 0.000000
# 3 -0.004457 -0.004457 0.011013 0.000000 0.000000 0.000000
# 4 0.000000 0.000000 0.000000 0.039642 0.000000 0.000000
# 5 0.000000 0.000000 0.000000 0.000000 0.039642 0.000000
# 6 0.000000 0.000000 0.000000 0.000000 0.000000 0.076802
#
#
# Mechanical properties :
#
#
# Convention : Reuss Voigt Hill
#
# Bulk Modulus (GPa) = 34.36926 40.65064 37.50995
# Shear Modulus (GPa) = 18.42109 21.43647 19.92878
#
# Velocity S-wave (km/s) = 3.09799 3.34195 3.22228
# Velocity P-wave (km/s) = 5.54107 6.00590 5.77816
#
# Compressibility (1/GPa) = 0.02909577
#
# Stress axis : x y z
#
# Youngs Moduli (GPa) = 35.48833 35.48833 90.80465
#
# Poissons Ratio (x) = 0.36280 0.40471
# Poissons Ratio (y) = 0.36280 0.40471
# Poissons Ratio (z) = 0.15817 0.15817
#
# Static dielectric constant tensor:
#      x y z
#    x 3.453440 0.000000 0.000000 
#    y 0.000000 3.453440 0.000000 
#    z 0.000000 0.000000 3.677180 
# 
# 
# High freq. dielectric constant tensor:
#      x y z
#    x 1.719550 0.000000 0.000000 
#    y 0.000000 1.719550 0.000000 
#    z 0.000000 0.000000 1.760500 
# 
# From -- ./inp_files/365.got.cif
#   From: 2010.03.12/outbox.cif.g09.slc.cpg/sg171_1_cif.got.tgz:365.got - 2010.04.02 06:49:11.
