data_PCOD8324523
_publ_section_title
;
Structure prediction by ZEFSAII (Michael W. Deem and Ramdas Pophale) SiO2 
 PCOD8324523
Probable space group: P 61
;
_chemical_formula_sum "Si O2"
_cell_formula_units_Z 48
_cell_length_a 11.343869
_cell_length_b 11.343869
_cell_length_c 19.704259
_cell_angle_alpha 90.000000
_cell_angle_beta 90.000000
_cell_angle_gamma 120.000000
_cell_volume 2195.902961
_symmetry_space_group_name_H-M "P 61"
_symmetry_group_IT_number 169
_symmetry_cell_setting 'hexagonal'
loop_
_space_group_symop_operation_xyz
x,y,z
x-y,x,1/6+z
-y,x-y,1/3+z
-x,-y,1/2+z
-x+y,-x,2/3+z
y,-x+y,5/6+z
loop_
_atom_site_type_symbol
_atom_site_label
_atom_site_fract_x
_atom_site_fract_y
_atom_site_fract_z
Si Si1 0.044681 0.226044 0.247210
Si Si2 0.588783 0.493395 0.362221
Si Si3 0.522229 0.980532 0.563404
Si Si4 0.356009 0.291578 0.463382
Si Si5 0.291590 0.601622 0.183360
Si Si6 0.266219 0.907807 0.779891
Si Si7 0.172122 0.899596 0.058837
Si Si8 0.076806 0.644371 0.264242
O O1 0.057231 0.337885 0.193241
O O2 0.116367 0.141354 0.223069
O O3 0.134647 0.306254 0.312955
O O4 0.884094 0.131663 0.257351
O O5 0.549309 0.549245 0.295687
O O6 0.466338 0.394615 0.410837
O O7 0.677635 0.426241 0.336373
O O8 0.674503 0.631956 0.405002
O O9 0.681018 0.071258 0.583591
O O10 0.473592 0.014053 0.493128
O O11 0.491121 0.827313 0.558164
O O12 0.213790 0.276300 0.440468
O O13 0.347335 0.145496 0.460320
O O14 0.384474 0.345668 0.541120
O O15 0.215575 0.518772 0.113192
O O16 0.193372 0.627092 0.230022
#
# Coordination Sequence:
#
# PCOD8324523 Si02
#       8
#     6   6   6   6   6   6   6   6
#     4  10  21  39  68 105 123 176 222 294 333 398
#     4  11  27  42  66 101 138 183 227 289 357 423
#     4  12  26  41  70 101 139 183 238 291 347 423
#     4  11  24  47  72 103 144 180 237 292 359 426
#     4  11  24  45  68 103 134 185 232 287 355 411
#     4  11  23  43  68  98 140 173 230 283 352 409
#     4  11  21  41  73 100 131 168 246 278 340 403
#     4  11  26  46  71 105 143 190 232 296 363 421
#
# _framework density 21.858889999999999
#
# number of rings (size 3 to 8) (size 9 to 14) (size 15 to 20)
#    0.000    1.000    3.750    3.750    5.250    0.000 
#    0.000    3.750    0.000    0.000    0.000    0.000 
#    0.000    0.000    0.000    0.000    0.000    0.000 
#
# Total GULP energy -594836.996053 kJ/mol
# GULP energy per Si atom -12392.437418 kJ/mol
# Density = 2.180914 g / cm^3
# Si number density = 21.858890 Si / 1000 Ang^3
#
#
#
# Elastic Constant Matrix: (Units=GPa)
#
#
# Indices 1 2 3 4 5 6 
#
# 1 89.4481 36.3078 28.0249 0.0000 0.0000 0.0000
# 2 36.3078 89.4481 28.0249 0.0000 0.0000 0.0000
# 3 28.0249 28.0249 101.5688 0.0000 0.0000 0.0000
# 4 0.0000 0.0000 0.0000 26.4556 0.0000 0.0000
# 5 0.0000 0.0000 0.0000 0.0000 26.4556 0.0000
# 6 0.0000 0.0000 0.0000 0.0000 0.0000 26.5702
#
#
#
# Elastic Compliance Matrix: (Units=1/GPa)
#
#
# Indices 1 2 3 4 5 6 
#
# 1 0.013943 -0.004876 -0.002502 0.000000 0.000000 0.000000
# 2 -0.004876 0.013943 -0.002502 0.000000 0.000000 0.000000
# 3 -0.002502 -0.002502 0.011226 0.000000 0.000000 0.000000
# 4 0.000000 0.000000 0.000000 0.037799 0.000000 0.000000
# 5 0.000000 0.000000 0.000000 0.000000 0.037799 0.000000
# 6 0.000000 0.000000 0.000000 0.000000 0.000000 0.037636
#
#
# Mechanical properties :
#
#
# Convention : Reuss Voigt Hill
#
# Bulk Modulus (GPa) = 51.67160 51.68670 51.67915
# Shear Modulus (GPa) = 28.00258 28.43675 28.21967
#
# Velocity S-wave (km/s) = 3.58307 3.61075 3.59694
# Velocity P-wave (km/s) = 6.38811 6.40939 6.39876
#
# Compressibility (1/GPa) = 0.01935299
#
# Stress axis : x y z
#
# Youngs Moduli (GPa) = 71.72298 71.72298 89.07800
#
# Poissons Ratio (x) = 0.34969 0.22285
# Poissons Ratio (y) = 0.34969 0.22285
# Poissons Ratio (z) = 0.17943 0.17943
#
# Static dielectric constant tensor:
#      x y z
#    x 4.031630 0.000000 0.000000 
#    y 0.000000 4.031630 0.000000 
#    z 0.000000 0.000000 4.162030 
# 
# 
# High freq. dielectric constant tensor:
#      x y z
#    x 1.856270 0.000000 0.000000 
#    y 0.000000 1.856270 0.000000 
#    z 0.000000 0.000000 1.864010 
# 
# From -- ./inp_files/1549.got.cif
#   From: 2010.03.12/outbox.cif.g09.slc.cpg/sg169_cif.got.tgz:1549.got - 2010.04.02 06:46:06.
