data_PCOD8324804
_publ_section_title
;
Structure prediction by ZEFSAII (Michael W. Deem and Ramdas Pophale) SiO2 
 PCOD8324804
Probable space group: P 62
;
_chemical_formula_sum "Si O2"
_cell_formula_units_Z 42
_cell_length_a 15.073743
_cell_length_b 15.073743
_cell_length_c 10.511010
_cell_angle_alpha 90.000000
_cell_angle_beta 90.000000
_cell_angle_gamma 120.000000
_cell_volume 2068.317916
_symmetry_space_group_name_H-M "P 62"
_symmetry_group_IT_number 171
_symmetry_cell_setting 'hexagonal'
loop_
_space_group_symop_operation_xyz
x,y,z
x-y,x,1/3+z
-y,x-y,2/3+z
-x,-y,z
-x+y,-x,1/3+z
y,-x+y,2/3+z
loop_
_atom_site_type_symbol
_atom_site_label
_atom_site_fract_x
_atom_site_fract_y
_atom_site_fract_z
Si Si1 0.772162 0.258051 0.342780
Si Si2 0.000000 0.500000 0.606411
Si Si3 0.359144 0.833092 0.566843
Si Si4 0.647483 0.803363 0.063884
Si Si5 0.058986 0.719429 0.500967
Si Si6 0.500000 0.000000 0.391218
Si Si7 0.183195 0.530912 0.771476
Si Si8 0.688154 0.515339 0.583074
O O1 0.714194 0.258919 0.472012
O O2 0.818562 0.367871 0.279645
O O3 0.861917 0.235073 0.383198
O O4 0.697456 0.171046 0.240916
O O5 0.046934 0.605851 0.525854
O O6 0.078713 0.483807 0.693120
O O7 0.298231 0.843914 0.684503
O O8 0.402910 0.935357 0.482050
O O9 0.722343 0.763469 0.117406
O O10 0.621561 0.847515 0.189614
O O11 0.690000 0.892054 0.955190
O O12 0.529378 0.932868 0.301140
O O13 0.217267 0.648409 0.802989
O O14 0.271543 0.526875 0.694219
#
# Coordination Sequence:
#
# PCOD8324804 Si02
#       8
#     6   3   6   6   6   3   6   6
#     4  11  23  36  56  85 129 174 226 271 321 391
#     4  12  23  39  66  92 136 177 233 274 338 406
#     4  11  24  35  57  84 125 174 223 269 329 380
#     4  11  25  40  62  87 126 170 222 273 342 401
#     4  11  24  42  62  92 128 179 221 282 334 412
#     4  12  23  39  56  90 126 173 225 282 316 398
#     4  12  24  38  57  92 129 182 228 271 331 393
#     4  12  26  37  61  87 133 181 231 272 332 392
#
# _framework density 20.306356999999998
#
# number of rings (size 3 to 8) (size 9 to 14) (size 15 to 20)
#    0.000    0.571    5.714    2.143    4.000    0.000 
#    0.000    0.000    0.000    0.000    0.000    0.000 
#    0.000   42.286    0.000    0.000    0.000    0.000 
#
# Total GULP energy -520515.156989 kJ/mol
# GULP energy per Si atom -12393.218024 kJ/mol
# Density = 2.026014 g / cm^3
# Si number density = 20.306357 Si / 1000 Ang^3
#
#
#
# Elastic Constant Matrix: (Units=GPa)
#
#
# Indices 1 2 3 4 5 6 
#
# 1 86.6624 35.4222 31.0530 0.0000 0.0000 0.0000
# 2 35.4222 86.6624 31.0530 0.0000 0.0000 0.0000
# 3 31.0530 31.0530 78.0865 0.0000 0.0000 0.0000
# 4 0.0000 0.0000 0.0000 32.2336 0.0000 0.0000
# 5 0.0000 0.0000 0.0000 0.0000 32.2336 0.0000
# 6 0.0000 0.0000 0.0000 0.0000 0.0000 25.6201
#
#
#
# Elastic Compliance Matrix: (Units=1/GPa)
#
#
# Indices 1 2 3 4 5 6 
#
# 1 0.014892 -0.004624 -0.004083 0.000000 0.000000 0.000000
# 2 -0.004624 0.014892 -0.004083 0.000000 0.000000 0.000000
# 3 -0.004083 -0.004083 0.016054 0.000000 0.000000 0.000000
# 4 0.000000 0.000000 0.000000 0.031024 0.000000 0.000000
# 5 0.000000 0.000000 0.000000 0.000000 0.031024 0.000000
# 6 0.000000 0.000000 0.000000 0.000000 0.000000 0.039032
#
#
# Mechanical properties :
#
#
# Convention : Reuss Voigt Hill
#
# Bulk Modulus (GPa) = 49.36577 49.60751 49.48664
# Shear Modulus (GPa) = 27.89384 28.27633 28.08509
#
# Velocity S-wave (km/s) = 3.71030 3.73565 3.72300
# Velocity P-wave (km/s) = 6.53593 6.56425 6.55011
#
# Compressibility (1/GPa) = 0.02025695
#
# Stress axis : x y z
#
# Youngs Moduli (GPa) = 67.14952 67.14952 62.28946
#
# Poissons Ratio (x) = 0.31049 0.25436
# Poissons Ratio (y) = 0.31049 0.25436
# Poissons Ratio (z) = 0.27420 0.27420
#
# Static dielectric constant tensor:
#      x y z
#    x 3.609450 0.000000 0.000000 
#    y 0.000000 3.609450 0.000000 
#    z 0.000000 0.000000 4.142460 
# 
# 
# High freq. dielectric constant tensor:
#      x y z
#    x 1.765660 0.000000 0.000000 
#    y 0.000000 1.765660 0.000000 
#    z 0.000000 0.000000 1.823040 
# 
# From -- ./inp_files/1686.got.cif
#   From: 2010.03.12/outbox.cif.g09.slc.cpg/sg171_1_cif.got.tgz:1686.got - 2010.04.02 06:49:11.
