data_PCOD8324053
_publ_section_title
;
Structure prediction by ZEFSAII (Michael W. Deem and Ramdas Pophale) SiO2 
 PCOD8324053
Probable space group: R -3 M
;
_chemical_formula_sum "Si O2"
_cell_formula_units_Z 234
_cell_length_a 26.548657
_cell_length_b 26.548657
_cell_length_c 23.820805
_cell_angle_alpha 90.000000
_cell_angle_beta 90.000000
_cell_angle_gamma 120.000000
_cell_volume 14540.260216
_symmetry_space_group_name_H-M "R -3 M"
_symmetry_group_IT_number 166
_symmetry_cell_setting 'hexagonal'
loop_
_space_group_symop_operation_xyz
x,y,z
-y,x-y,z
-x+y,-x,z
x-y,-y,-z
-x,-x+y,-z
y,x,-z
-x,-y,-z
y,-x+y,-z
x-y,x,-z
-x+y,y,z
x,x-y,z
-y,-x,z
2/3+x,1/3+y,1/3+z
2/3-y,1/3+x-y,1/3+z
2/3-x+y,1/3-x,1/3+z
2/3+x-y,1/3-y,1/3-z
2/3-x,1/3-x+y,1/3-z
2/3+y,1/3+x,1/3-z
2/3-x,1/3-y,1/3-z
2/3+y,1/3-x+y,1/3-z
2/3+x-y,1/3+x,1/3-z
2/3-x+y,1/3+y,1/3+z
2/3+x,1/3+x-y,1/3+z
2/3-y,1/3-x,1/3+z
1/3+x,2/3+y,2/3+z
1/3-y,2/3+x-y,2/3+z
1/3-x+y,2/3-x,2/3+z
1/3+x-y,2/3-y,2/3-z
1/3-x,2/3-x+y,2/3-z
1/3+y,2/3+x,2/3-z
1/3-x,2/3-y,2/3-z
1/3+y,2/3-x+y,2/3-z
1/3+x-y,2/3+x,2/3-z
1/3-x+y,2/3+y,2/3+z
1/3+x,2/3+x-y,2/3+z
1/3-y,2/3-x,2/3+z
loop_
_atom_site_type_symbol
_atom_site_label
_atom_site_fract_x
_atom_site_fract_y
_atom_site_fract_z
Si Si1 0.862752 0.373369 0.437601
Si Si2 0.000000 0.882145 0.000000
Si Si3 0.320152 0.929499 0.255480
Si Si4 0.560946 0.555012 0.437806
Si Si5 0.027330 0.456099 0.177447
Si Si6 0.563270 0.724212 0.477011
Si Si7 0.258210 0.260008 0.285186
O O1 0.853547 0.426774 0.455462
O O2 0.821425 0.336505 0.387233
O O3 0.846612 0.331851 0.490839
O O4 0.928564 0.397412 0.416417
O O5 0.944776 0.889552 0.993107
O O6 0.383553 0.953332 0.228576
O O7 0.271024 0.881524 0.214489
O O8 0.305542 0.980532 0.265701
O O9 0.319514 0.903921 0.316884
O O10 0.582800 0.582800 0.500000
O O11 0.494705 0.505296 0.442150
O O12 0.559094 0.600120 0.394404
O O13 0.047919 0.523960 0.187730
O O14 0.957751 0.418400 0.175933
O O15 0.542274 0.771137 0.471080
O O16 0.569155 0.704127 0.415096
#
# Coordination Sequence:
#
# PCOD8324053 Si02
#       7
#    36  18  36  36  36  36  36
#     4  10  20  33  49  69  94 123 159 200 241 283
#     4  10  21  36  52  70  94 126 163 204 244 282
#     4   9  19  31  46  69  93 124 156 187 229 275
#     4  10  19  30  46  68  95 127 157 191 237 284
#     4   9  18  32  49  67  93 125 156 191 228 273
#     4  10  19  31  49  69  91 121 157 196 234 277
#     4  10  19  31  47  68  96 124 156 192 232 283
#
# _framework density 16.093247000000002
#
# number of rings (size 3 to 8) (size 9 to 14) (size 15 to 20)
#    0.000    2.308    1.538    1.462    2.154    3.692 
#    0.000    6.154    0.000    0.308    0.000    0.000 
#    0.000    0.000    0.000   14.769    0.000    0.000 
#
# Total GULP energy -967074.740657 kJ/mol
# GULP energy per Si atom -12398.394111 kJ/mol
# Density = 1.605662 g / cm^3
# Si number density = 16.093247 Si / 1000 Ang^3
#
#
#
# Elastic Constant Matrix: (Units=GPa)
#
#
# Indices 1 2 3 4 5 6 
#
# 1 66.5195 25.9376 36.1183 0.3531 0.0000 0.0000
# 2 25.9376 66.5195 36.1183 -0.3531 0.0000 0.0000
# 3 36.1183 36.1183 103.1156 0.0000 0.0000 0.0000
# 4 0.3531 -0.3531 0.0000 21.7203 0.0000 0.0000
# 5 0.0000 0.0000 0.0000 0.0000 21.7203 0.3531
# 6 0.0000 0.0000 0.0000 0.0000 0.3531 20.2910
#
#
#
# Elastic Compliance Matrix: (Units=1/GPa)
#
#
# Indices 1 2 3 4 5 6 
#
# 1 0.019770 -0.004879 -0.005216 -0.000401 0.000000 0.000000
# 2 -0.004879 0.019770 -0.005216 0.000401 0.000000 0.000000
# 3 -0.005216 -0.005216 0.013352 0.000000 0.000000 0.000000
# 4 -0.000401 0.000401 0.000000 0.046053 0.000000 0.000000
# 5 0.000000 0.000000 0.000000 0.000000 0.046053 -0.000801
# 6 0.000000 0.000000 0.000000 0.000000 -0.000801 0.049297
#
#
# Mechanical properties :
#
#
# Convention : Reuss Voigt Hill
#
# Bulk Modulus (GPa) = 44.90290 48.05588 46.47939
# Shear Modulus (GPa) = 21.52036 21.94503 21.73269
#
# Velocity S-wave (km/s) = 3.66078 3.69673 3.67880
# Velocity P-wave (km/s) = 6.76984 6.93879 6.85483
#
# Compressibility (1/GPa) = 0.02227027
#
# Stress axis : x y z
#
# Youngs Moduli (GPa) = 50.58240 50.58240 74.89641
#
# Poissons Ratio (x) = 0.24678 0.39065
# Poissons Ratio (y) = 0.24678 0.39065
# Poissons Ratio (z) = 0.26383 0.26383
#
# Static dielectric constant tensor:
#      x y z
#    x 3.002180 0.000000 0.000000 
#    y 0.000000 3.002180 0.000000 
#    z 0.000000 0.000000 3.071820 
# 
# 
# High freq. dielectric constant tensor:
#      x y z
#    x 1.608980 0.000000 0.000000 
#    y 0.000000 1.608980 0.000000 
#    z 0.000000 0.000000 1.617360 
# 
# From -- ./inp_files/7246.got.cif
#   From: 2010.03.12/outbox.cif.g09.slc.cpg/sg166_4_cif.got.tgz:7246.got - 2010.04.02 06:38:31.
