data_PCOD8324751
_publ_section_title
;
Structure prediction by ZEFSAII (Michael W. Deem and Ramdas Pophale) SiO2 
 PCOD8324751
Probable space group: P 62
;
_chemical_formula_sum "Si O2"
_cell_formula_units_Z 39
_cell_length_a 13.719296
_cell_length_b 13.719296
_cell_length_c 11.033648
_cell_angle_alpha 90.000000
_cell_angle_beta 90.000000
_cell_angle_gamma 120.000000
_cell_volume 1798.512287
_symmetry_space_group_name_H-M "P 62"
_symmetry_group_IT_number 171
_symmetry_cell_setting 'hexagonal'
loop_
_space_group_symop_operation_xyz
x,y,z
x-y,x,1/3+z
-y,x-y,2/3+z
-x,-y,z
-x+y,-x,1/3+z
y,-x+y,2/3+z
loop_
_atom_site_type_symbol
_atom_site_label
_atom_site_fract_x
_atom_site_fract_y
_atom_site_fract_z
Si Si1 0.313832 0.839553 0.702380
Si Si2 0.900637 0.732263 0.876166
Si Si3 0.500000 0.500000 0.858069
Si Si4 0.367338 0.734484 0.907334
Si Si5 0.193094 0.108886 0.804013
Si Si6 0.249483 0.115943 0.069882
Si Si7 0.786754 0.290200 0.115857
O O1 0.389404 0.937037 0.608299
O O2 0.393591 0.819510 0.795546
O O3 0.232063 0.716871 0.640254
O O4 0.234727 0.876661 0.772812
O O5 0.876847 0.829511 0.831478
O O6 0.812327 0.609691 0.832370
O O7 0.019634 0.764121 0.814035
O O8 0.901100 0.726600 0.022785
O O9 0.600632 0.512132 0.773024
O O10 0.314942 0.603771 0.873626
O O11 0.273544 0.742557 0.986690
O O12 0.111651 0.979015 0.767940
O O13 0.260306 0.107409 0.923882
#
# Coordination Sequence:
#
# PCOD8324751 Si02
#       7
#     6   6   3   6   6   6   6
#     4  10  22  41  64  93 120 167 206 261 314 376
#     4  11  23  39  63  92 128 167 213 259 318 382
#     4  10  20  40  68  86 114 164 218 248 302 382
#     4   9  22  43  60  86 137 154 199 270 322 354
#     4  10  23  40  58  92 132 166 206 267 312 376
#     4  11  23  39  63  92 128 167 213 259 318 382
#     4  10  22  41  64  93 120 167 206 261 314 376
#
# _framework density 21.684588000000002
#
# number of rings (size 3 to 8) (size 9 to 14) (size 15 to 20)
#    0.000    1.846    0.000    3.231    4.308    9.846 
#    0.000    1.538    0.000    0.000    0.000    0.000 
#    0.000    0.000    0.000    0.000    0.000    0.000 
#
# Total GULP energy -483477.415846 kJ/mol
# GULP energy per Si atom -12396.856817 kJ/mol
# Density = 2.163523 g / cm^3
# Si number density = 21.684588 Si / 1000 Ang^3
#
#
#
# Elastic Constant Matrix: (Units=GPa)
#
#
# Indices 1 2 3 4 5 6 
#
# 1 69.8756 12.7935 7.3364 0.0000 0.0000 0.0000
# 2 12.7935 69.8756 7.3364 0.0000 0.0000 0.0000
# 3 7.3364 7.3364 90.0035 0.0000 0.0000 0.0000
# 4 0.0000 0.0000 0.0000 24.2772 0.0000 0.0000
# 5 0.0000 0.0000 0.0000 0.0000 24.2772 0.0000
# 6 0.0000 0.0000 0.0000 0.0000 0.0000 28.5410
#
#
#
# Elastic Compliance Matrix: (Units=1/GPa)
#
#
# Indices 1 2 3 4 5 6 
#
# 1 0.014896 -0.002622 -0.001000 0.000000 0.000000 0.000000
# 2 -0.002622 0.014896 -0.001000 0.000000 0.000000 0.000000
# 3 -0.001000 -0.001000 0.011274 0.000000 0.000000 0.000000
# 4 0.000000 0.000000 0.000000 0.041191 0.000000 0.000000
# 5 0.000000 0.000000 0.000000 0.000000 0.041191 0.000000
# 6 0.000000 0.000000 0.000000 0.000000 0.000000 0.035037
#
#
# Mechanical properties :
#
#
# Convention : Reuss Voigt Hill
#
# Bulk Modulus (GPa) = 31.42693 31.63191 31.52942
# Shear Modulus (GPa) = 28.03652 28.90496 28.47074
#
# Velocity S-wave (km/s) = 3.59963 3.65495 3.62739
# Velocity P-wave (km/s) = 5.63920 5.69478 5.66706
#
# Compressibility (1/GPa) = 0.03181985
#
# Stress axis : x y z
#
# Youngs Moduli (GPa) = 67.13071 67.13071 88.70140
#
# Poissons Ratio (x) = 0.17604 0.08874
# Poissons Ratio (y) = 0.17604 0.08874
# Poissons Ratio (z) = 0.06716 0.06716
#
# Static dielectric constant tensor:
#      x y z
#    x 3.764980 0.000000 0.000000 
#    y 0.000000 3.764980 0.000000 
#    z 0.000000 0.000000 4.146790 
# 
# 
# High freq. dielectric constant tensor:
#      x y z
#    x 1.844810 0.000000 0.000000 
#    y 0.000000 1.844810 0.000000 
#    z 0.000000 0.000000 1.856950 
# 
# From -- ./inp_files/1986.got.cif
#   From: 2010.03.12/outbox.cif.g09.slc.cpg/sg171_1_cif.got.tgz:1986.got - 2010.04.02 06:49:11.
