data_PCOD8324704
_publ_section_title
;
Structure prediction by ZEFSAII (Michael W. Deem and Ramdas Pophale) SiO2 
 PCOD8324704
Probable space group: P 65
;
_chemical_formula_sum "Si O2"
_cell_formula_units_Z 30
_cell_length_a 16.242820
_cell_length_b 16.242820
_cell_length_c 6.508161
_cell_angle_alpha 90.000000
_cell_angle_beta 90.000000
_cell_angle_gamma 120.000000
_cell_volume 1487.002788
_symmetry_space_group_name_H-M "P 65"
_symmetry_group_IT_number 170
_symmetry_cell_setting 'hexagonal'
loop_
_space_group_symop_operation_xyz
x,y,z
x-y,x,5/6+z
-y,x-y,2/3+z
-x,-y,1/2+z
-x+y,-x,1/3+z
y,-x+y,1/6+z
loop_
_atom_site_type_symbol
_atom_site_label
_atom_site_fract_x
_atom_site_fract_y
_atom_site_fract_z
Si Si1 0.078001 0.450869 0.605160
Si Si2 0.614875 0.797140 0.565209
Si Si3 0.202981 0.058266 0.823472
Si Si4 0.982023 0.683950 0.720485
Si Si5 0.910521 0.375861 0.913449
O O1 0.156215 0.440649 0.732228
O O2 0.125565 0.555995 0.507358
O O3 0.038881 0.370816 0.433625
O O4 0.993630 0.438560 0.753148
O O5 0.705881 0.888533 0.470962
O O6 0.649089 0.762896 0.760853
O O7 0.536031 0.823995 0.632544
O O8 0.158928 0.124804 0.776376
O O9 0.233578 0.028959 0.611017
O O10 0.056592 0.669088 0.591521
#
# Coordination Sequence:
#
# PCOD8324704 Si02
#       5
#     6   6   6   6   6
#     4  11  22  41  69  98 127 175 226 276 336 408
#     4  11  24  42  66 100 135 175 224 278 353 400
#     4  12  24  41  63  96 138 181 229 276 330 403
#     4  11  22  42  69  95 130 180 220 279 333 399
#     4  11  22  40  73  97 128 171 231 275 332 416
#
# _framework density 20.174809
#
# number of rings (size 3 to 8) (size 9 to 14) (size 15 to 20)
#    0.000    0.800    6.000    2.400    0.000    1.600 
#    0.000    0.000    4.400    0.000    0.000    0.000 
#    0.000    0.000    0.000    0.000    0.000    0.000 
#
# Total GULP energy -372143.591542 kJ/mol
# GULP energy per Si atom -12404.786385 kJ/mol
# Density = 2.012889 g / cm^3
# Si number density = 20.174809 Si / 1000 Ang^3
#
#
#
# Elastic Constant Matrix: (Units=GPa)
#
#
# Indices 1 2 3 4 5 6 
#
# 1 114.8538 53.9363 42.6235 0.0000 0.0000 0.0000
# 2 53.9363 114.8538 42.6235 0.0000 0.0000 0.0000
# 3 42.6235 42.6235 101.5947 0.0000 0.0000 0.0000
# 4 0.0000 0.0000 0.0000 20.3542 0.0000 0.0000
# 5 0.0000 0.0000 0.0000 0.0000 20.3542 0.0000
# 6 0.0000 0.0000 0.0000 0.0000 0.0000 30.4587
#
#
#
# Elastic Compliance Matrix: (Units=1/GPa)
#
#
# Indices 1 2 3 4 5 6 
#
# 1 0.011967 -0.004449 -0.003154 0.000000 0.000000 0.000000
# 2 -0.004449 0.011967 -0.003154 0.000000 0.000000 0.000000
# 3 -0.003154 -0.003154 0.012489 0.000000 0.000000 0.000000
# 4 0.000000 0.000000 0.000000 0.049130 0.000000 0.000000
# 5 0.000000 0.000000 0.000000 0.000000 0.049130 0.000000
# 6 0.000000 0.000000 0.000000 0.000000 0.000000 0.032831
#
#
# Mechanical properties :
#
#
# Convention : Reuss Voigt Hill
#
# Bulk Modulus (GPa) = 67.07506 67.74098 67.40802
# Shear Modulus (GPa) = 25.77362 27.04137 26.40749
#
# Velocity S-wave (km/s) = 3.57811 3.66506 3.62184
# Velocity P-wave (km/s) = 7.09856 7.18053 7.13967
#
# Compressibility (1/GPa) = 0.01490867
#
# Stress axis : x y z
#
# Youngs Moduli (GPa) = 83.56654 83.56654 80.06788
#
# Poissons Ratio (x) = 0.37180 0.25252
# Poissons Ratio (y) = 0.37180 0.25252
# Poissons Ratio (z) = 0.26356 0.26356
#
# Static dielectric constant tensor:
#      x y z
#    x 3.678450 0.000000 0.000000 
#    y 0.000000 3.678450 0.000000 
#    z 0.000000 0.000000 4.015260 
# 
# 
# High freq. dielectric constant tensor:
#      x y z
#    x 1.782730 0.000000 0.000000 
#    y 0.000000 1.782730 0.000000 
#    z 0.000000 0.000000 1.807560 
# 
# From -- ./inp_files/163.got.cif
#   From: 2010.03.12/outbox.cif.g09.slc.cpg/sg170_cif.got.tgz:163.got - 2010.04.02 06:47:37.
