data_PCOD8324986
_publ_section_title
;
Structure prediction by ZEFSAII (Michael W. Deem and Ramdas Pophale) SiO2 
 PCOD8324986
Probable space group: P -6
;
_chemical_formula_sum "Si O2"
_cell_formula_units_Z 35
_cell_length_a 10.997018
_cell_length_b 10.997018
_cell_length_c 15.357322
_cell_angle_alpha 90.000000
_cell_angle_beta 90.000000
_cell_angle_gamma 120.000000
_cell_volume 1608.407145
_symmetry_space_group_name_H-M "P -6"
_symmetry_group_IT_number 174
_symmetry_cell_setting 'hexagonal'
loop_
_space_group_symop_operation_xyz
x,y,z
-x+y,-x,-z
-y,x-y,z
x,y,-z
-x+y,-x,z
-y,x-y,-z
loop_
_atom_site_type_symbol
_atom_site_label
_atom_site_fract_x
_atom_site_fract_y
_atom_site_fract_z
Si Si1 0.666668 0.333335 0.397380
Si Si2 0.279341 0.272207 0.281271
Si Si3 0.611192 0.677299 0.874770
Si Si4 0.009077 0.280934 0.308092
Si Si5 0.501136 0.484505 0.399313
Si Si6 0.605247 0.948738 0.904537
Si Si7 0.979539 0.146080 0.000000
O O1 0.666667 0.333334 0.500000
O O2 0.585617 0.410265 0.363530
O O3 0.116673 0.223812 0.297155
O O4 0.364005 0.415547 0.337802
O O5 0.322279 0.294773 0.178639
O O6 0.298933 0.147720 0.319821
O O7 0.625854 0.649089 0.775129
O O8 0.553372 0.784063 0.892212
O O9 0.499099 0.527224 0.911485
O O10 0.767349 0.743242 0.916466
O O11 0.045378 0.393326 0.386613
O O12 0.454933 0.454727 0.500000
O O13 0.680381 0.002997 0.000000
O O14 0.854663 0.983591 0.000000
#
# Coordination Sequence:
#
# PCOD8324986 Si02
#       7
#     2   6   6   6   6   6   3
#     4   9  18  36  72  99 118 161 220 270 324 402
#     4  11  25  43  66  99 138 177 225 270 336 403
#     4  11  22  38  62  91 129 175 221 278 324 381
#     4  11  25  42  64  99 137 177 217 277 331 402
#     4  11  22  43  71  98 127 167 222 279 338 403
#     4  11  21  38  61  94 128 174 227 275 326 379
#     4  10  24  36  58  96 134 176 224 266 318 396
#
# _framework density 21.760657999999999
#
# number of rings (size 3 to 8) (size 9 to 14) (size 15 to 20)
#    0.171    1.029    5.143    0.686    4.800    0.686 
#    1.029    0.000    0.000    2.057    0.000    0.000 
#    0.000    0.000    0.000    0.000    0.000    0.000 
#
# Total GULP energy -433697.932201 kJ/mol
# GULP energy per Si atom -12391.369491 kJ/mol
# Density = 2.171113 g / cm^3
# Si number density = 21.760658 Si / 1000 Ang^3
#
#
#
# Elastic Constant Matrix: (Units=GPa)
#
#
# Indices 1 2 3 4 5 6 
#
# 1 74.0140 17.9332 27.5666 0.0000 0.0000 0.0002
# 2 17.9332 74.0135 27.5667 0.0000 0.0000 0.0001
# 3 27.5666 27.5667 117.7098 0.0000 0.0000 0.0000
# 4 0.0000 0.0000 0.0000 29.3179 0.0001 0.0000
# 5 0.0000 0.0000 0.0000 0.0001 29.3179 0.0000
# 6 0.0002 0.0001 0.0000 0.0000 0.0000 28.0404
#
#
#
# Elastic Compliance Matrix: (Units=1/GPa)
#
#
# Indices 1 2 3 4 5 6 
#
# 1 0.015242 -0.002589 -0.002963 0.000000 0.000000 0.000000
# 2 -0.002589 0.015242 -0.002963 0.000000 0.000000 0.000000
# 3 -0.002963 -0.002963 0.009883 0.000000 0.000000 0.000000
# 4 0.000000 0.000000 0.000000 0.034109 0.000000 0.000000
# 5 0.000000 0.000000 0.000000 0.000000 0.034109 0.000000
# 6 0.000000 0.000000 0.000000 0.000000 0.000000 0.035663
#
#
# Mechanical properties :
#
#
# Convention : Reuss Voigt Hill
#
# Bulk Modulus (GPa) = 42.85222 45.76336 44.30779
# Shear Modulus (GPa) = 29.57565 30.17997 29.87781
#
# Velocity S-wave (km/s) = 3.69064 3.72816 3.70945
# Velocity P-wave (km/s) = 6.15600 6.29350 6.22513
#
# Compressibility (1/GPa) = 0.02333602
#
# Stress axis : x y z
#
# Youngs Moduli (GPa) = 65.60827 65.60772 101.18022
#
# Poissons Ratio (x) = 0.16989 0.29981
# Poissons Ratio (y) = 0.16989 0.29981
# Poissons Ratio (z) = 0.19440 0.19441
#
# Static dielectric constant tensor:
#      x y z
#    x 3.765240 0.000000 0.000000 
#    y 0.000000 3.765240 0.000000 
#    z 0.000000 0.000000 3.898620 
# 
# 
# High freq. dielectric constant tensor:
#      x y z
#    x 1.849120 0.000000 0.000000 
#    y 0.000000 1.849120 0.000000 
#    z 0.000000 0.000000 1.854510 
# 
# From -- ./inp_files/904.got.cif
#   From: 2010.03.12/outbox.cif.g09.slc.cpg/sg174_cif.got.tgz:904.got - 2010.04.02 06:54:58.
