data_PCOD8324464
_publ_section_title
;
Structure prediction by ZEFSAII (Michael W. Deem and Ramdas Pophale) SiO2 
 PCOD8324464
Probable space group: P 61
;
_chemical_formula_sum "Si O2"
_cell_formula_units_Z 24
_cell_length_a 9.514900
_cell_length_b 9.514900
_cell_length_c 15.543954
_cell_angle_alpha 90.000000
_cell_angle_beta 90.000000
_cell_angle_gamma 120.000000
_cell_volume 1218.710606
_symmetry_space_group_name_H-M "P 61"
_symmetry_group_IT_number 169
_symmetry_cell_setting 'hexagonal'
loop_
_space_group_symop_operation_xyz
x,y,z
x-y,x,1/6+z
-y,x-y,1/3+z
-x,-y,1/2+z
-x+y,-x,2/3+z
y,-x+y,5/6+z
loop_
_atom_site_type_symbol
_atom_site_label
_atom_site_fract_x
_atom_site_fract_y
_atom_site_fract_z
Si Si1 0.159332 0.593808 0.470770
Si Si2 0.410645 0.378567 0.643467
Si Si3 0.067472 0.620997 0.126212
Si Si4 0.135945 0.092161 0.463007
O O1 0.238114 0.783609 0.492530
O O2 0.319035 0.577568 0.454576
O O3 0.042538 0.533334 0.386904
O O4 0.042930 0.496011 0.550275
O O5 0.472865 0.465136 0.550260
O O6 0.217550 0.293334 0.640736
O O7 0.078451 0.795552 0.121369
O O8 0.024762 0.024414 0.548012
#
# Coordination Sequence:
#
# PCOD8324464 Si02
#       4
#     6   6   6   6
#     4  12  24  41  71  94 130 172 222 268 324 391
#     4  11  23  42  64  93 129 172 209 262 328 388
#     4  11  23  42  64  93 129 172 209 262 328 388
#     4  10  18  41  65  88 122 170 206 248 326 379
#
# _framework density 19.692943
#
# number of rings (size 3 to 8) (size 9 to 14) (size 15 to 20)
#    0.000    1.000   10.000    0.000    7.000    0.000 
#    0.000    5.000    0.000    0.000    0.000    0.000 
#    0.000    0.000    0.000    0.000    0.000    0.000 
#
# Total GULP energy -297406.720557 kJ/mol
# GULP energy per Si atom -12391.946690 kJ/mol
# Density = 1.964812 g / cm^3
# Si number density = 19.692943 Si / 1000 Ang^3
#
#
#
# Elastic Constant Matrix: (Units=GPa)
#
#
# Indices 1 2 3 4 5 6 
#
# 1 55.0237 14.4098 43.8289 0.0000 0.0000 0.0000
# 2 14.4098 55.0237 43.8289 0.0000 0.0000 0.0000
# 3 43.8289 43.8289 220.7759 0.0000 0.0000 0.0000
# 4 0.0000 0.0000 0.0000 36.6504 0.0000 0.0000
# 5 0.0000 0.0000 0.0000 0.0000 36.6504 0.0000
# 6 0.0000 0.0000 0.0000 0.0000 0.0000 20.3070
#
#
#
# Elastic Compliance Matrix: (Units=1/GPa)
#
#
# Indices 1 2 3 4 5 6 
#
# 1 0.021921 -0.002701 -0.003815 0.000000 0.000000 0.000000
# 2 -0.002701 0.021921 -0.003815 0.000000 0.000000 0.000000
# 3 -0.003815 -0.003815 0.006044 0.000000 0.000000 0.000000
# 4 0.000000 0.000000 0.000000 0.027285 0.000000 0.000000
# 5 0.000000 0.000000 0.000000 0.000000 0.027285 0.000000
# 6 0.000000 0.000000 0.000000 0.000000 0.000000 0.049244
#
#
# Mechanical properties :
#
#
# Convention : Reuss Voigt Hill
#
# Bulk Modulus (GPa) = 34.22199 59.43983 46.83091
# Shear Modulus (GPa) = 27.15848 33.97192 30.56520
#
# Velocity S-wave (km/s) = 3.71765 4.15791 3.94393
# Velocity P-wave (km/s) = 5.98694 7.30067 6.67620
#
# Compressibility (1/GPa) = 0.02922098
#
# Stress axis : x y z
#
# Youngs Moduli (GPa) = 45.61911 45.61911 165.44307
#
# Poissons Ratio (x) = 0.12324 0.63124
# Poissons Ratio (y) = 0.12324 0.63124
# Poissons Ratio (z) = 0.17406 0.17406
#
# Static dielectric constant tensor:
#      x y z
#    x 3.394990 0.000000 0.000000 
#    y 0.000000 3.394990 0.000000 
#    z 0.000000 0.000000 4.256720 
# 
# 
# High freq. dielectric constant tensor:
#      x y z
#    x 1.750250 0.000000 0.000000 
#    y 0.000000 1.750250 0.000000 
#    z 0.000000 0.000000 1.793510 
# 
# From -- ./inp_files/1274.got.cif
#   From: 2010.03.12/outbox.cif.g09.slc.cpg/sg169_cif.got.tgz:1274.got - 2010.04.02 06:46:06.
