data_PCOD8324973
_publ_section_title
;
Structure prediction by ZEFSAII (Michael W. Deem and Ramdas Pophale) SiO2 
 PCOD8324973
Probable space group: P -6
;
_chemical_formula_sum "Si O2"
_cell_formula_units_Z 28
_cell_length_a 13.760112
_cell_length_b 13.760112
_cell_length_c 8.910656
_cell_angle_alpha 90.000000
_cell_angle_beta 90.000000
_cell_angle_gamma 120.000000
_cell_volume 1461.114488
_symmetry_space_group_name_H-M "P -6"
_symmetry_group_IT_number 174
_symmetry_cell_setting 'hexagonal'
loop_
_space_group_symop_operation_xyz
x,y,z
-x+y,-x,-z
-y,x-y,z
x,y,-z
-x+y,-x,z
-y,x-y,-z
loop_
_atom_site_type_symbol
_atom_site_label
_atom_site_fract_x
_atom_site_fract_y
_atom_site_fract_z
Si Si1 0.793436 0.206549 0.826240
Si Si2 0.924852 0.463775 0.174648
Si Si3 0.333335 0.666668 0.821489
Si Si4 0.533812 0.660768 0.322249
Si Si5 0.000000 0.000000 0.678446
Si Si6 0.787347 0.782464 0.322995
O O1 0.666530 0.128037 0.771082
O O2 0.830886 0.335555 0.794777
O O3 0.870789 0.171328 0.735962
O O4 0.804946 0.186931 0.000000
O O5 0.035587 0.500439 0.272829
O O6 0.959293 0.483122 0.000000
O O7 0.243959 0.543979 0.760468
O O8 0.333334 0.666668 0.000000
O O9 0.519051 0.664072 0.500000
O O10 0.661696 0.746080 0.268054
O O11 0.876838 0.906441 0.736919
O O12 0.000000 0.000000 0.500000
O O13 0.787755 0.776254 0.500000
#
# Coordination Sequence:
#
# PCOD8324973 Si02
#       6
#     6   6   2   6   2   6
#     4   9  17  30  50  76 108 143 181 222 264 311
#     4   9  17  31  51  77 109 147 185 223 269 318
#     4  12  25  41  61  81 103 137 175 213 265 329
#     4  10  21  37  55  79 109 139 175 221 267 316
#     4   9  18  36  58  77 100 135 172 206 253 312
#     4   9  19  35  55  78 105 137 174 215 262 314
#
# _framework density 19.163453000000001
#
# number of rings (size 3 to 8) (size 9 to 14) (size 15 to 20)
#    0.000    2.571    0.000    1.714    0.000    5.143 
#    0.000    3.214    0.000    2.571    0.000    0.000 
#    0.000    0.000    0.000    0.000    0.000    0.000 
#
# Total GULP energy -347202.167549 kJ/mol
# GULP energy per Si atom -12400.077412 kJ/mol
# Density = 1.911984 g / cm^3
# Si number density = 19.163453 Si / 1000 Ang^3
#
#
#
# Elastic Constant Matrix: (Units=GPa)
#
#
# Indices 1 2 3 4 5 6 
#
# 1 118.1034 69.7366 32.8577 0.0000 0.0000 0.0001
# 2 69.7366 118.1016 32.8570 0.0000 0.0000 -0.0002
# 3 32.8577 32.8570 48.8846 0.0000 0.0000 0.0000
# 4 0.0000 0.0000 0.0000 29.1278 0.0000 0.0000
# 5 0.0000 0.0000 0.0000 0.0000 29.1281 0.0000
# 6 0.0001 -0.0002 0.0000 0.0000 0.0000 24.1825
#
#
#
# Elastic Compliance Matrix: (Units=1/GPa)
#
#
# Indices 1 2 3 4 5 6 
#
# 1 0.013818 -0.006858 -0.004678 0.000000 0.000000 0.000000
# 2 -0.006858 0.013818 -0.004678 0.000000 0.000000 0.000000
# 3 -0.004678 -0.004678 0.026745 0.000000 0.000000 0.000000
# 4 0.000000 0.000000 0.000000 0.034331 0.000000 0.000000
# 5 0.000000 0.000000 0.000000 0.000000 0.034331 0.000000
# 6 0.000000 0.000000 0.000000 0.000000 0.000000 0.041352
#
#
# Mechanical properties :
#
#
# Convention : Reuss Voigt Hill
#
# Bulk Modulus (GPa) = 45.55246 61.77691 53.66469
# Shear Modulus (GPa) = 24.49266 26.46356 25.47811
#
# Velocity S-wave (km/s) = 3.57892 3.72013 3.65021
# Velocity P-wave (km/s) = 6.39534 7.12456 6.76977
#
# Compressibility (1/GPa) = 0.02195271
#
# Stress axis : x y z
#
# Youngs Moduli (GPa) = 72.36941 72.36876 37.38960
#
# Poissons Ratio (x) = 0.49628 0.17493
# Poissons Ratio (y) = 0.49628 0.17492
# Poissons Ratio (z) = 0.33858 0.33856
#
# Static dielectric constant tensor:
#      x y z
#    x 3.644660 0.000010 0.000000 
#    y 0.000010 3.644680 0.000000 
#    z 0.000000 0.000000 3.337420 
# 
# 
# High freq. dielectric constant tensor:
#      x y z
#    x 1.745560 0.000000 0.000000 
#    y 0.000000 1.745560 0.000000 
#    z 0.000000 0.000000 1.731340 
# 
# From -- ./inp_files/298.got.cif
#   From: 2010.03.12/outbox.cif.g09.slc.cpg/sg174_cif.got.tgz:298.got - 2010.04.02 06:54:58.
