data_PCOD8324845
_publ_section_title
;
Structure prediction by ZEFSAII (Michael W. Deem and Ramdas Pophale) SiO2 
 PCOD8324845
Probable space group: P 63
;
_chemical_formula_sum "Si O2"
_cell_formula_units_Z 48
_cell_length_a 17.431718
_cell_length_b 17.431718
_cell_length_c 8.249680
_cell_angle_alpha 90.000000
_cell_angle_beta 90.000000
_cell_angle_gamma 120.000000
_cell_volume 2170.941484
_symmetry_space_group_name_H-M "P 63"
_symmetry_group_IT_number 173
_symmetry_cell_setting 'hexagonal'
loop_
_space_group_symop_operation_xyz
x,y,z
x-y,x,1/2+z
-y,x-y,z
-x,-y,1/2+z
-x+y,-x,z
y,-x+y,1/2+z
loop_
_atom_site_type_symbol
_atom_site_label
_atom_site_fract_x
_atom_site_fract_y
_atom_site_fract_z
Si Si1 0.098791 0.569130 0.252470
Si Si2 0.241254 0.361693 0.708454
Si Si3 0.684168 0.103227 0.154317
Si Si4 0.822199 0.956950 0.867206
Si Si5 0.138402 0.183558 0.237218
Si Si6 0.305605 0.346436 0.378475
Si Si7 0.361587 0.774626 0.504867
Si Si8 0.044811 0.597580 0.925842
O O1 0.180059 0.559827 0.325446
O O2 0.106740 0.659173 0.325417
O O3 0.005442 0.485038 0.305282
O O4 0.099385 0.574137 0.057492
O O5 0.179033 0.393828 0.621089
O O6 0.178204 0.279165 0.818391
O O7 0.290299 0.336200 0.570705
O O8 0.317359 0.433724 0.825171
O O9 0.677834 0.059634 0.329700
O O10 0.625401 0.152407 0.140196
O O11 0.644736 0.024550 0.019409
O O12 0.865158 0.894810 0.845161
O O13 0.866944 0.043891 0.755856
O O14 0.832163 0.987551 0.052568
O O15 0.214143 0.280805 0.289253
O O16 0.261227 0.691927 0.523489
#
# Coordination Sequence:
#
# PCOD8324845 Si02
#       8
#     6   6   6   6   6   6   6   6
#     4  10  20  42  66  96 131 170 225 282 345 427
#     4  12  24  41  65  99 135 184 225 291 347 412
#     4  10  22  43  66 100 138 175 235 284 343 431
#     4  12  25  42  65  89 138 174 237 280 349 396
#     4  12  25  44  63  97 131 185 230 287 339 407
#     4  11  23  39  65  95 134 173 225 279 337 410
#     4   9  20  40  70 103 132 179 217 277 359 428
#     4  10  23  41  68  97 133 178 228 286 353 413
#
# _framework density 22.110223000000001
#
# number of rings (size 3 to 8) (size 9 to 14) (size 15 to 20)
#    0.250    1.000    1.250    5.500    1.750    2.000 
#    0.000    2.500    0.000    0.000    0.000    0.000 
#    0.000    0.000    0.000    0.000    0.000    0.000 
#
# Total GULP energy -594955.943177 kJ/mol
# GULP energy per Si atom -12394.915483 kJ/mol
# Density = 2.205990 g / cm^3
# Si number density = 22.110223 Si / 1000 Ang^3
#
#
#
# Elastic Constant Matrix: (Units=GPa)
#
#
# Indices 1 2 3 4 5 6 
#
# 1 86.8538 24.5890 20.4420 0.0000 0.0000 0.0000
# 2 24.5890 86.8538 20.4420 0.0000 0.0000 0.0000
# 3 20.4420 20.4420 111.9079 0.0000 0.0000 0.0000
# 4 0.0000 0.0000 0.0000 34.5192 0.0000 0.0000
# 5 0.0000 0.0000 0.0000 0.0000 34.5192 0.0000
# 6 0.0000 0.0000 0.0000 0.0000 0.0000 31.1324
#
#
#
# Elastic Compliance Matrix: (Units=1/GPa)
#
#
# Indices 1 2 3 4 5 6 
#
# 1 0.012839 -0.003221 -0.001757 0.000000 0.000000 0.000000
# 2 -0.003221 0.012839 -0.001757 0.000000 0.000000 0.000000
# 3 -0.001757 -0.001757 0.009578 0.000000 0.000000 0.000000
# 4 0.000000 0.000000 0.000000 0.028969 0.000000 0.000000
# 5 0.000000 0.000000 0.000000 0.000000 0.028969 0.000000
# 6 0.000000 0.000000 0.000000 0.000000 0.000000 0.032121
#
#
# Mechanical properties :
#
#
# Convention : Reuss Voigt Hill
#
# Bulk Modulus (GPa) = 45.90141 46.28460 46.09300
# Shear Modulus (GPa) = 34.23541 34.71034 34.47288
#
# Velocity S-wave (km/s) = 3.93924 3.96647 3.95288
# Velocity P-wave (km/s) = 6.44170 6.47736 6.45955
#
# Compressibility (1/GPa) = 0.02178583
#
# Stress axis : x y z
#
# Youngs Moduli (GPa) = 77.88716 77.88716 104.40859
#
# Poissons Ratio (x) = 0.25090 0.18343
# Poissons Ratio (y) = 0.25090 0.18343
# Poissons Ratio (z) = 0.13684 0.13684
#
# Static dielectric constant tensor:
#      x y z
#    x 3.986890 0.000000 0.000000 
#    y 0.000000 3.986890 0.000000 
#    z 0.000000 0.000000 3.847160 
# 
# 
# High freq. dielectric constant tensor:
#      x y z
#    x 1.869980 0.000000 0.000000 
#    y 0.000000 1.869980 0.000000 
#    z 0.000000 0.000000 1.858260 
# 
# From -- ./inp_files/664.got.cif
#   From: 2010.03.12/outbox.cif.g09.slc.cpg/sg173_cif.got.tgz:664.got - 2010.04.02 06:54:12.
