data_PCOD8324063
_publ_section_title
;
Structure prediction by ZEFSAII (Michael W. Deem and Ramdas Pophale) SiO2 
 PCOD8324063
Probable space group: R -3 M
;
_chemical_formula_sum "Si O2"
_cell_formula_units_Z 144
_cell_length_a 20.982461
_cell_length_b 20.982461
_cell_length_c 20.143650
_cell_angle_alpha 90.000000
_cell_angle_beta 90.000000
_cell_angle_gamma 120.000000
_cell_volume 7680.361248
_symmetry_space_group_name_H-M "R -3 M"
_symmetry_group_IT_number 166
_symmetry_cell_setting 'hexagonal'
loop_
_space_group_symop_operation_xyz
x,y,z
-y,x-y,z
-x+y,-x,z
x-y,-y,-z
-x,-x+y,-z
y,x,-z
-x,-y,-z
y,-x+y,-z
x-y,x,-z
-x+y,y,z
x,x-y,z
-y,-x,z
2/3+x,1/3+y,1/3+z
2/3-y,1/3+x-y,1/3+z
2/3-x+y,1/3-x,1/3+z
2/3+x-y,1/3-y,1/3-z
2/3-x,1/3-x+y,1/3-z
2/3+y,1/3+x,1/3-z
2/3-x,1/3-y,1/3-z
2/3+y,1/3-x+y,1/3-z
2/3+x-y,1/3+x,1/3-z
2/3-x+y,1/3+y,1/3+z
2/3+x,1/3+x-y,1/3+z
2/3-y,1/3-x,1/3+z
1/3+x,2/3+y,2/3+z
1/3-y,2/3+x-y,2/3+z
1/3-x+y,2/3-x,2/3+z
1/3+x-y,2/3-y,2/3-z
1/3-x,2/3-x+y,2/3-z
1/3+y,2/3+x,2/3-z
1/3-x,2/3-y,2/3-z
1/3+y,2/3-x+y,2/3-z
1/3+x-y,2/3+x,2/3-z
1/3-x+y,2/3+y,2/3+z
1/3+x,2/3+x-y,2/3+z
1/3-y,2/3-x,2/3+z
loop_
_atom_site_type_symbol
_atom_site_label
_atom_site_fract_x
_atom_site_fract_y
_atom_site_fract_z
Si Si1 0.685690 0.070244 0.725527
Si Si2 0.798902 0.746070 0.796089
Si Si3 0.334294 0.517414 0.989451
Si Si4 0.076427 0.612134 0.723062
O O1 0.738210 0.071543 0.666667
O O2 0.725676 0.061216 0.790686
O O3 0.682708 0.145919 0.720160
O O4 0.603619 0.004817 0.716279
O O5 0.866631 0.733261 0.784762
O O6 0.804164 0.806577 0.743284
O O7 0.798898 0.775604 0.870283
O O8 0.257234 0.514468 0.997682
O O9 0.398010 0.601991 0.983891
O O10 0.070606 0.535303 0.709443
O O11 0.129524 0.666667 0.666667
#
# Coordination Sequence:
#
# PCOD8324063 Si02
#       4
#    36  36  36  36
#     4   9  17  31  50  71  96 126 162 205 251 296
#     4   9  18  32  50  72  98 132 171 205 242 292
#     4  10  19  31  49  74 104 135 166 201 242 292
#     4  10  20  33  50  73 100 130 166 208 251 293
#
# _framework density 18.749117999999999
#
# number of rings (size 3 to 8) (size 9 to 14) (size 15 to 20)
#    0.000    2.500    0.000    2.500    0.000    4.000 
#    0.000    0.000    0.000    9.250    0.000    0.000 
#    0.000   12.000    0.000    0.000    0.000    0.000 
#
# Total GULP energy -594928.434109 kJ/mol
# GULP energy per Si atom -12394.342377 kJ/mol
# Density = 1.870644 g / cm^3
# Si number density = 18.749118 Si / 1000 Ang^3
#
#
#
# Elastic Constant Matrix: (Units=GPa)
#
#
# Indices 1 2 3 4 5 6 
#
# 1 96.6507 40.6110 27.7881 1.4595 -0.0001 0.0000
# 2 40.6110 96.6507 27.7881 -1.4595 0.0001 0.0000
# 3 27.7881 27.7881 62.0262 0.0000 0.0000 0.0000
# 4 1.4595 -1.4595 0.0000 25.1461 0.0000 0.0001
# 5 -0.0001 0.0001 0.0000 0.0000 25.1461 1.4595
# 6 0.0000 0.0000 0.0000 0.0001 1.4595 28.0198
#
#
#
# Elastic Compliance Matrix: (Units=1/GPa)
#
#
# Indices 1 2 3 4 5 6 
#
# 1 0.013399 -0.004499 -0.003987 -0.001039 0.000000 0.000000
# 2 -0.004499 0.013399 -0.003987 0.001039 0.000000 0.000000
# 3 -0.003987 -0.003987 0.019695 0.000000 0.000000 0.000000
# 4 -0.001039 0.001039 0.000000 0.039888 0.000000 0.000000
# 5 0.000000 0.000000 0.000000 0.000000 0.039888 -0.002078
# 6 0.000000 0.000000 0.000000 0.000000 -0.002078 0.035797
#
#
# Mechanical properties :
#
#
# Convention : Reuss Voigt Hill
#
# Bulk Modulus (GPa) = 46.41302 49.74463 48.07882
# Shear Modulus (GPa) = 25.74717 26.27175 26.00946
#
# Velocity S-wave (km/s) = 3.70976 3.74736 3.72860
# Velocity P-wave (km/s) = 6.56949 6.73148 6.65098
#
# Compressibility (1/GPa) = 0.02154568
#
# Stress axis : x y z
#
# Youngs Moduli (GPa) = 74.63154 74.63154 50.77500
#
# Poissons Ratio (x) = 0.33580 0.20245
# Poissons Ratio (y) = 0.33580 0.20245
# Poissons Ratio (z) = 0.29756 0.29756
#
# Static dielectric constant tensor:
#      x y z
#    x 3.328130 0.000000 0.000000 
#    y 0.000000 3.328130 0.000000 
#    z 0.000000 0.000000 3.646680 
# 
# 
# High freq. dielectric constant tensor:
#      x y z
#    x 1.718570 0.000000 0.000000 
#    y 0.000000 1.718570 0.000000 
#    z 0.000000 0.000000 1.723430 
# 
# From -- ./inp_files/6578.got.cif
#   From: 2010.03.12/outbox.cif.g09.slc.cpg/sg166_4_cif.got.tgz:6578.got - 2010.04.02 06:38:31.
