data_PCOD8324552
_publ_section_title
;
Structure prediction by ZEFSAII (Michael W. Deem and Ramdas Pophale) SiO2 
 PCOD8324552
Probable space group: P 61
;
_chemical_formula_sum "Si O2"
_cell_formula_units_Z 48
_cell_length_a 14.493895
_cell_length_b 14.493895
_cell_length_c 12.076660
_cell_angle_alpha 90.000000
_cell_angle_beta 90.000000
_cell_angle_gamma 120.000000
_cell_volume 2197.089218
_symmetry_space_group_name_H-M "P 61"
_symmetry_group_IT_number 169
_symmetry_cell_setting 'hexagonal'
loop_
_space_group_symop_operation_xyz
x,y,z
x-y,x,1/6+z
-y,x-y,1/3+z
-x,-y,1/2+z
-x+y,-x,2/3+z
y,-x+y,5/6+z
loop_
_atom_site_type_symbol
_atom_site_label
_atom_site_fract_x
_atom_site_fract_y
_atom_site_fract_z
Si Si1 0.874573 0.060438 0.215350
Si Si2 0.068480 0.620584 0.718023
Si Si3 0.158755 0.404796 0.967037
Si Si4 0.908802 0.441396 0.569374
Si Si5 0.264649 0.553444 0.523383
Si Si6 0.009522 0.164339 0.412258
Si Si7 0.541554 0.321618 0.609006
Si Si8 0.951156 0.612712 0.923115
O O1 0.766309 0.057996 0.173546
O O2 0.950045 0.094700 0.104827
O O3 0.923375 0.145364 0.316221
O O4 0.136733 0.737892 0.668867
O O5 0.143295 0.590562 0.788065
O O6 0.016936 0.533645 0.621993
O O7 0.972698 0.612492 0.792438
O O8 0.164947 0.424955 0.834695
O O9 0.155335 0.505901 0.016043
O O10 0.829058 0.354464 0.655779
O O11 0.947856 0.382108 0.485093
O O12 0.242039 0.522179 0.651127
O O13 0.298672 0.675738 0.510220
O O14 0.160077 0.490195 0.449238
O O15 0.092670 0.134846 0.355159
O O16 0.061286 0.285536 0.452471
#
# Coordination Sequence:
#
# PCOD8324552 Si02
#       8
#     6   6   6   6   6   6   6   6
#     4  10  22  43  72 100 130 173 232 295 356 423
#     4  12  24  41  65 102 139 183 236 282 353 432
#     4  12  23  41  71 101 138 180 236 288 357 436
#     4  12  25  40  67 100 143 190 234 293 362 431
#     4  12  25  43  67  98 142 189 235 292 364 429
#     4  10  22  42  73 100 134 177 236 297 355 421
#     4  12  23  44  65  98 141 182 229 287 353 432
#     4  12  24  42  68 103 139 184 242 298 356 434
#
# _framework density 21.847086999999998
#
# number of rings (size 3 to 8) (size 9 to 14) (size 15 to 20)
#    0.000    0.500    6.250    2.250    1.750    1.000 
#    2.250    0.000   16.500    0.000    0.000    0.000 
#    0.000    0.000    0.000    0.000    0.000    0.000 
#
# Total GULP energy -595091.096192 kJ/mol
# GULP energy per Si atom -12397.731171 kJ/mol
# Density = 2.179736 g / cm^3
# Si number density = 21.847087 Si / 1000 Ang^3
#
#
#
# Elastic Constant Matrix: (Units=GPa)
#
#
# Indices 1 2 3 4 5 6 
#
# 1 87.3083 20.3871 31.6541 0.0000 0.0000 0.0000
# 2 20.3871 87.3083 31.6541 0.0000 0.0000 0.0000
# 3 31.6541 31.6541 96.3273 0.0000 0.0000 0.0000
# 4 0.0000 0.0000 0.0000 32.7050 0.0000 0.0000
# 5 0.0000 0.0000 0.0000 0.0000 32.7050 0.0000
# 6 0.0000 0.0000 0.0000 0.0000 0.0000 33.4606
#
#
#
# Elastic Compliance Matrix: (Units=1/GPa)
#
#
# Indices 1 2 3 4 5 6 
#
# 1 0.013226 -0.001717 -0.003782 0.000000 0.000000 0.000000
# 2 -0.001717 0.013226 -0.003782 0.000000 0.000000 0.000000
# 3 -0.003782 -0.003782 0.012867 0.000000 0.000000 0.000000
# 4 0.000000 0.000000 0.000000 0.030576 0.000000 0.000000
# 5 0.000000 0.000000 0.000000 0.000000 0.030576 0.000000
# 6 0.000000 0.000000 0.000000 0.000000 0.000000 0.029886
#
#
# Mechanical properties :
#
#
# Convention : Reuss Voigt Hill
#
# Bulk Modulus (GPa) = 48.17745 48.70382 48.44063
# Shear Modulus (GPa) = 32.08469 32.25735 32.17102
#
# Velocity S-wave (km/s) = 3.83639 3.84670 3.84155
# Velocity P-wave (km/s) = 6.45940 6.48621 6.47282
#
# Compressibility (1/GPa) = 0.02075660
#
# Stress axis : x y z
#
# Youngs Moduli (GPa) = 75.61002 75.61002 77.71956
#
# Poissons Ratio (x) = 0.12984 0.29392
# Poissons Ratio (y) = 0.12984 0.29392
# Poissons Ratio (z) = 0.28594 0.28594
#
# Static dielectric constant tensor:
#      x y z
#    x 3.889680 0.000000 0.000000 
#    y 0.000000 3.889680 0.000000 
#    z 0.000000 0.000000 3.919100 
# 
# 
# High freq. dielectric constant tensor:
#      x y z
#    x 1.857440 0.000000 0.000000 
#    y 0.000000 1.857440 0.000000 
#    z 0.000000 0.000000 1.857060 
# 
# From -- ./inp_files/1034.got.cif
#   From: 2010.03.12/outbox.cif.g09.slc.cpg/sg169_cif.got.tgz:1034.got - 2010.04.02 06:46:06.
