data_PCOD8324274
_publ_section_title
;
Structure prediction by ZEFSAII (Michael W. Deem and Ramdas Pophale) SiO2 
 PCOD8324274
Probable space group: R -3 C 
;
_chemical_formula_sum "Si O2"
_cell_formula_units_Z 234
_cell_length_a 25.480110
_cell_length_b 25.480110
_cell_length_c 21.722344
_cell_angle_alpha 90.000000
_cell_angle_beta 90.000000
_cell_angle_gamma 120.000000
_cell_volume 12213.493787
_symmetry_space_group_name_H-M "R -3 C "
_symmetry_group_IT_number 167
_symmetry_cell_setting 'hexagonal'
loop_
_space_group_symop_operation_xyz
x,y,z
-y,x-y,z
-x+y,-x,z
x-y,-y,1/2-z
-x,-x+y,1/2-z
y,x,1/2-z
-x,-y,-z
y,-x+y,-z
x-y,x,-z
-x+y,y,1/2+z
x,x-y,1/2+z
-y,-x,1/2+z
2/3+x,1/3+y,1/3+z
2/3-y,1/3+x-y,1/3+z
2/3-x+y,1/3-x,1/3+z
2/3+x-y,1/3-y,5/6-z
2/3-x,1/3-x+y,5/6-z
2/3+y,1/3+x,5/6-z
2/3-x,1/3-y,1/3-z
2/3+y,1/3-x+y,1/3-z
2/3+x-y,1/3+x,1/3-z
2/3-x+y,1/3+y,5/6+z
2/3+x,1/3+x-y,5/6+z
2/3-y,1/3-x,5/6+z
1/3+x,2/3+y,2/3+z
1/3-y,2/3+x-y,2/3+z
1/3-x+y,2/3-x,2/3+z
1/3+x-y,2/3-y,1/6-z
1/3-x,2/3-x+y,1/6-z
1/3+y,2/3+x,1/6-z
1/3-x,2/3-y,2/3-z
1/3+y,2/3-x+y,2/3-z
1/3+x-y,2/3+x,2/3-z
1/3-x+y,2/3+y,1/6+z
1/3+x,2/3+x-y,1/6+z
1/3-y,2/3-x,1/6+z
loop_
_atom_site_type_symbol
_atom_site_label
_atom_site_fract_x
_atom_site_fract_y
_atom_site_fract_z
Si Si1 0.241853 0.225801 0.984784
Si Si2 0.999702 0.654794 0.484726
Si Si3 0.119919 0.466674 0.543165
Si Si4 0.671699 0.549310 0.690592
Si Si5 0.445700 0.540153 0.838728
Si Si6 0.000000 0.471349 0.750000
Si Si7 0.131179 0.264062 0.810330
O O1 0.191794 0.206743 0.930054
O O2 0.289783 0.206171 0.961989
O O3 0.276133 0.297893 0.996599
O O4 0.210617 0.195349 0.049412
O O5 0.027414 0.666667 0.416667
O O6 0.056800 0.667778 0.527414
O O7 0.940099 0.589317 0.487466
O O8 0.181817 0.471874 0.516980
O O9 0.114574 0.522970 0.519166
O O10 0.613069 0.488825 0.665236
O O11 0.727304 0.566223 0.646250
O O12 0.471116 0.508727 0.793264
O O13 0.444654 0.515832 0.906921
O O14 0.166667 0.333334 0.833334
#
# Coordination Sequence:
#
# PCOD8324274 Si02
#       7
#    36  36  36  36  36  18  36
#     4  10  20  36  56  83 120 153 198 234 290 357
#     4  10  18  33  51  82 116 153 192 237 287 344
#     4  11  25  36  56  87 121 154 195 251 292 351
#     4  11  22  38  62  79 115 161 195 243 298 356
#     4  11  24  40  55  84 120 155 197 242 295 359
#     4  10  20  36  58  80 114 160 194 234 296 352
#     4  12  24  38  60  86 116 152 203 248 300 358
#
# _framework density 19.159137999999999
#
# number of rings (size 3 to 8) (size 9 to 14) (size 15 to 20)
#    0.000    1.231    4.615    2.769    5.385    3.692 
#    0.000    0.000    0.000    0.615    0.000    2.154 
#    0.000    6.154    0.000    0.000    0.000    0.000 
#
# Total GULP energy -966572.195578 kJ/mol
# GULP energy per Si atom -12391.951225 kJ/mol
# Density = 1.911553 g / cm^3
# Si number density = 19.159138 Si / 1000 Ang^3
#
#
#
# Elastic Constant Matrix: (Units=GPa)
#
#
# Indices 1 2 3 4 5 6 
#
# 1 70.9609 23.6202 21.3204 -1.3036 0.0000 0.0000
# 2 23.6202 70.9609 21.3204 1.3036 0.0000 0.0000
# 3 21.3204 21.3204 137.3006 0.0000 0.0000 0.0000
# 4 -1.3036 1.3036 0.0000 21.5837 0.0000 0.0000
# 5 0.0000 0.0000 0.0000 0.0000 21.5837 -1.3036
# 6 0.0000 0.0000 0.0000 0.0000 -1.3036 23.6704
#
#
#
# Elastic Compliance Matrix: (Units=1/GPa)
#
#
# Indices 1 2 3 4 5 6 
#
# 1 0.016281 -0.004913 -0.001765 0.001280 0.000000 0.000000
# 2 -0.004913 0.016281 -0.001765 -0.001280 0.000000 0.000000
# 3 -0.001765 -0.001765 0.007832 0.000000 0.000000 0.000000
# 4 0.001280 -0.001280 0.000000 0.046486 0.000000 0.000000
# 5 0.000000 0.000000 0.000000 0.000000 0.046486 0.002560
# 6 0.000000 0.000000 0.000000 0.000000 0.002560 0.042388
#
#
# Mechanical properties :
#
#
# Convention : Reuss Voigt Hill
#
# Bulk Modulus (GPa) = 42.53929 45.74941 44.14435
# Shear Modulus (GPa) = 24.94055 27.56497 26.25276
#
# Velocity S-wave (km/s) = 3.61190 3.79718 3.70570
# Velocity P-wave (km/s) = 6.29649 6.56927 6.43432
#
# Compressibility (1/GPa) = 0.02350768
#
# Stress axis : x y z
#
# Youngs Moduli (GPa) = 61.41978 61.41978 127.68852
#
# Poissons Ratio (x) = 0.30173 0.22542
# Poissons Ratio (y) = 0.30173 0.22542
# Poissons Ratio (z) = 0.10843 0.10843
#
# Static dielectric constant tensor:
#      x y z
#    x 3.274560 0.000000 0.000000 
#    y 0.000000 3.274560 0.000000 
#    z 0.000000 0.000000 3.789520 
# 
# 
# High freq. dielectric constant tensor:
#      x y z
#    x 1.713660 0.000000 0.000000 
#    y 0.000000 1.713660 0.000000 
#    z 0.000000 0.000000 1.774520 
# 
# From -- ./inp_files/4711.got.cif
#   From: 2010.03.12/outbox.cif.g09.slc.cpg/sg167_3_cif.got.tgz:4711.got - 2010.04.02 06:42:56.
