data_PCOD8324583
_publ_section_title
;
Structure prediction by ZEFSAII (Michael W. Deem and Ramdas Pophale) SiO2 
 PCOD8324583
Probable space group: P 61
;
_chemical_formula_sum "Si O2"
_cell_formula_units_Z 48
_cell_length_a 12.235215
_cell_length_b 12.235215
_cell_length_c 18.696937
_cell_angle_alpha 90.000000
_cell_angle_beta 90.000000
_cell_angle_gamma 120.000000
_cell_volume 2423.953626
_symmetry_space_group_name_H-M "P 61"
_symmetry_group_IT_number 169
_symmetry_cell_setting 'hexagonal'
loop_
_space_group_symop_operation_xyz
x,y,z
x-y,x,1/6+z
-y,x-y,1/3+z
-x,-y,1/2+z
-x+y,-x,2/3+z
y,-x+y,5/6+z
loop_
_atom_site_type_symbol
_atom_site_label
_atom_site_fract_x
_atom_site_fract_y
_atom_site_fract_z
Si Si1 0.084318 0.511621 0.981680
Si Si2 0.312846 0.937862 0.883356
Si Si3 0.432124 0.407982 0.536066
Si Si4 0.784982 0.569933 0.585265
Si Si5 0.575516 0.422204 0.391498
Si Si6 0.454371 0.628682 0.167429
Si Si7 0.811781 0.162088 0.656418
Si Si8 0.222804 0.342131 0.337336
O O1 0.068791 0.508501 0.895756
O O2 0.106771 0.642205 0.013628
O O3 0.192199 0.485007 0.012152
O O4 0.952432 0.409243 0.015692
O O5 0.273281 0.909640 0.800645
O O6 0.197475 0.839622 0.932368
O O7 0.445557 0.938113 0.895891
O O8 0.328862 0.073505 0.898301
O O9 0.523850 0.411564 0.472478
O O10 0.443021 0.328191 0.602965
O O11 0.283902 0.338234 0.514236
O O12 0.681630 0.458978 0.634062
O O13 0.715424 0.446025 0.384288
O O14 0.484769 0.293006 0.351051
O O15 0.800212 0.143455 0.571264
O O16 0.782769 0.021585 0.679043
#
# Coordination Sequence:
#
# PCOD8324583 Si02
#       8
#     6   6   6   6   6   6   6   6
#     4  11  22  38  57  93 123 161 206 263 315 389
#     4  11  21  38  62  94 124 163 211 266 319 386
#     4  11  23  41  61  97 131 166 212 270 333 385
#     4  11  22  39  61  91 129 157 212 263 320 382
#     4  11  23  40  63  91 130 167 204 266 331 382
#     4  11  23  37  61  92 123 169 203 258 330 393
#     4  11  22  41  62  94 127 169 214 267 320 384
#     4  11  22  38  65  90 127 166 218 263 318 379
#
# _framework density 19.802357000000001
#
# number of rings (size 3 to 8) (size 9 to 14) (size 15 to 20)
#    0.000    1.000    5.000    3.750    5.250    1.000 
#    0.000    0.000    0.000    4.500    0.000    0.000 
#    0.000    0.000    0.000    0.000    0.000    0.000 
#
# Total GULP energy -594718.632818 kJ/mol
# GULP energy per Si atom -12389.971517 kJ/mol
# Density = 1.975729 g / cm^3
# Si number density = 19.802357 Si / 1000 Ang^3
#
#
#
# Elastic Constant Matrix: (Units=GPa)
#
#
# Indices 1 2 3 4 5 6 
#
# 1 75.4952 24.8424 29.5650 0.0000 0.0000 0.0000
# 2 24.8424 75.4952 29.5650 0.0000 0.0000 0.0000
# 3 29.5650 29.5650 131.2173 0.0000 0.0000 0.0000
# 4 0.0000 0.0000 0.0000 32.5050 0.0000 0.0000
# 5 0.0000 0.0000 0.0000 0.0000 32.5050 0.0000
# 6 0.0000 0.0000 0.0000 0.0000 0.0000 25.3264
#
#
#
# Elastic Compliance Matrix: (Units=1/GPa)
#
#
# Indices 1 2 3 4 5 6 
#
# 1 0.015617 -0.004125 -0.002589 0.000000 0.000000 0.000000
# 2 -0.004125 0.015617 -0.002589 0.000000 0.000000 0.000000
# 3 -0.002589 -0.002589 0.008788 0.000000 0.000000 0.000000
# 4 0.000000 0.000000 0.000000 0.030764 0.000000 0.000000
# 5 0.000000 0.000000 0.000000 0.000000 0.030764 0.000000
# 6 0.000000 0.000000 0.000000 0.000000 0.000000 0.039484
#
#
# Mechanical properties :
#
#
# Convention : Reuss Voigt Hill
#
# Bulk Modulus (GPa) = 46.69644 50.01695 48.35669
# Shear Modulus (GPa) = 29.97936 31.28299 30.63118
#
# Velocity S-wave (km/s) = 3.89515 3.97893 3.93726
# Velocity P-wave (km/s) = 6.62284 6.81338 6.71878
#
# Compressibility (1/GPa) = 0.02141491
#
# Stress axis : x y z
#
# Youngs Moduli (GPa) = 64.03171 64.03171 113.79428
#
# Poissons Ratio (x) = 0.26413 0.29466
# Poissons Ratio (y) = 0.26413 0.29466
# Poissons Ratio (z) = 0.16580 0.16580
#
# Static dielectric constant tensor:
#      x y z
#    x 3.604100 0.000000 0.000000 
#    y 0.000000 3.604100 0.000000 
#    z 0.000000 0.000000 3.790830 
# 
# 
# High freq. dielectric constant tensor:
#      x y z
#    x 1.754800 0.000000 0.000000 
#    y 0.000000 1.754800 0.000000 
#    z 0.000000 0.000000 1.795170 
# 
# From -- ./inp_files/1421.got.cif
#   From: 2010.03.12/outbox.cif.g09.slc.cpg/sg169_cif.got.tgz:1421.got - 2010.04.02 06:46:06.
