data_PCOD8324168
_publ_section_title
;
Structure prediction by ZEFSAII (Michael W. Deem and Ramdas Pophale) SiO2 
 PCOD8324168
Probable space group: R -3 M
;
_chemical_formula_sum "Si O2"
_cell_formula_units_Z 162
_cell_length_a 21.319483
_cell_length_b 21.319483
_cell_length_c 22.296298
_cell_angle_alpha 90.000000
_cell_angle_beta 90.000000
_cell_angle_gamma 120.000000
_cell_volume 8776.406483
_symmetry_space_group_name_H-M "R -3 M"
_symmetry_group_IT_number 166
_symmetry_cell_setting 'hexagonal'
loop_
_space_group_symop_operation_xyz
x,y,z
-y,x-y,z
-x+y,-x,z
x-y,-y,-z
-x,-x+y,-z
y,x,-z
-x,-y,-z
y,-x+y,-z
x-y,x,-z
-x+y,y,z
x,x-y,z
-y,-x,z
2/3+x,1/3+y,1/3+z
2/3-y,1/3+x-y,1/3+z
2/3-x+y,1/3-x,1/3+z
2/3+x-y,1/3-y,1/3-z
2/3-x,1/3-x+y,1/3-z
2/3+y,1/3+x,1/3-z
2/3-x,1/3-y,1/3-z
2/3+y,1/3-x+y,1/3-z
2/3+x-y,1/3+x,1/3-z
2/3-x+y,1/3+y,1/3+z
2/3+x,1/3+x-y,1/3+z
2/3-y,1/3-x,1/3+z
1/3+x,2/3+y,2/3+z
1/3-y,2/3+x-y,2/3+z
1/3-x+y,2/3-x,2/3+z
1/3+x-y,2/3-y,2/3-z
1/3-x,2/3-x+y,2/3-z
1/3+y,2/3+x,2/3-z
1/3-x,2/3-y,2/3-z
1/3+y,2/3-x+y,2/3-z
1/3+x-y,2/3+x,2/3-z
1/3-x+y,2/3+y,2/3+z
1/3+x,2/3+x-y,2/3+z
1/3-y,2/3-x,2/3+z
loop_
_atom_site_type_symbol
_atom_site_label
_atom_site_fract_x
_atom_site_fract_y
_atom_site_fract_z
Si Si1 0.614049 0.534046 0.230807
Si Si2 0.922214 0.387132 0.096889
Si Si3 0.668127 0.594677 0.903815
Si Si4 0.814501 0.481168 0.333334
Si Si5 0.333520 0.518004 0.326304
O O1 0.539440 0.460561 0.230593
O O2 0.647633 0.552350 0.163684
O O3 0.598028 0.595141 0.255451
O O4 0.669845 0.526757 0.274557
O O5 0.929192 0.464596 0.097551
O O6 0.999070 0.399728 0.074255
O O7 0.858615 0.333576 0.052601
O O8 0.666667 0.580002 0.833334
O O9 0.669303 0.527980 0.935317
O O10 0.735958 0.471915 0.332524
O O11 0.263393 0.526786 0.322703
O O12 0.403214 0.596787 0.328478
#
# Coordination Sequence:
#
# PCOD8324168 Si02
#       5
#    36  36  36  18  36
#     4   9  19  35  54  80 111 141 179 228 274 324
#     4   9  19  36  56  78 107 143 185 228 271 323
#     4  10  20  36  58  82 109 142 181 228 282 334
#     4  10  21  36  56  80 111 148 186 224 270 328
#     4  11  23  37  55  80 112 149 189 230 275 329
#
# _framework density 18.458580000000001
#
# number of rings (size 3 to 8) (size 9 to 14) (size 15 to 20)
#    0.000    2.222    0.000    2.333    3.111    5.333 
#    0.000    0.000    0.000    8.000    0.000    0.000 
#    0.000    0.000    0.000    0.000    0.000    0.000 
#
# Total GULP energy -669664.621014 kJ/mol
# GULP energy per Si atom -12401.196685 kJ/mol
# Density = 1.841657 g / cm^3
# Si number density = 18.458580 Si / 1000 Ang^3
#
#
#
# Elastic Constant Matrix: (Units=GPa)
#
#
# Indices 1 2 3 4 5 6 
#
# 1 93.0644 39.6821 54.1138 -4.9746 -0.0009 0.0000
# 2 39.6821 93.0644 54.1138 4.9746 0.0009 0.0000
# 3 54.1138 54.1138 97.8281 0.0000 0.0000 0.0000
# 4 -4.9746 4.9746 0.0000 30.3863 0.0000 0.0009
# 5 -0.0009 0.0009 0.0000 0.0000 30.3863 -4.9746
# 6 0.0000 0.0000 0.0000 0.0009 -4.9746 26.6911
#
#
#
# Elastic Compliance Matrix: (Units=1/GPa)
#
#
# Indices 1 2 3 4 5 6 
#
# 1 0.016522 -0.002801 -0.007590 0.003163 0.000001 0.000000
# 2 -0.002801 0.016522 -0.007590 -0.003163 -0.000001 0.000000
# 3 -0.007590 -0.007590 0.018619 0.000000 0.000000 0.000000
# 4 0.003163 -0.003163 0.000000 0.033945 0.000000 -0.000001
# 5 0.000001 -0.000001 0.000000 0.000000 0.033945 0.006327
# 6 0.000000 0.000000 0.000000 -0.000001 0.006327 0.038645
#
#
# Mechanical properties :
#
#
# Convention : Reuss Voigt Hill
#
# Bulk Modulus (GPa) = 63.68815 64.41957 64.05386
# Shear Modulus (GPa) = 25.07622 26.56256 25.81939
#
# Velocity S-wave (km/s) = 3.68980 3.79758 3.74408
# Velocity P-wave (km/s) = 7.26161 7.36234 7.31215
#
# Compressibility (1/GPa) = 0.01570151
#
# Stress axis : x y z
#
# Youngs Moduli (GPa) = 60.52626 60.52626 53.70936
#
# Poissons Ratio (x) = 0.16951 0.40765
# Poissons Ratio (y) = 0.16951 0.40765
# Poissons Ratio (z) = 0.45939 0.45939
#
# Static dielectric constant tensor:
#      x y z
#    x 3.365080 0.000000 0.000000 
#    y 0.000000 3.365080 0.000000 
#    z 0.000000 0.000000 3.806280 
# 
# 
# High freq. dielectric constant tensor:
#      x y z
#    x 1.714010 0.000000 0.000000 
#    y 0.000000 1.714010 0.000000 
#    z 0.000000 0.000000 1.726820 
# 
# From -- ./inp_files/6760.got.cif
#   From: 2010.03.12/outbox.cif.g09.slc.cpg/sg166_4_cif.got.tgz:6760.got - 2010.04.02 06:38:31.
