data_PCOD8324881
_publ_section_title
;
Structure prediction by ZEFSAII (Michael W. Deem and Ramdas Pophale) SiO2 
 PCOD8324881
Probable space group: P 63
;
_chemical_formula_sum "Si O2"
_cell_formula_units_Z 42
_cell_length_a 11.584404
_cell_length_b 11.584404
_cell_length_c 17.264495
_cell_angle_alpha 90.000000
_cell_angle_beta 90.000000
_cell_angle_gamma 120.000000
_cell_volume 2006.466444
_symmetry_space_group_name_H-M "P 63"
_symmetry_group_IT_number 173
_symmetry_cell_setting 'hexagonal'
loop_
_space_group_symop_operation_xyz
x,y,z
x-y,x,1/2+z
-y,x-y,z
-x,-y,1/2+z
-x+y,-x,z
y,-x+y,1/2+z
loop_
_atom_site_type_symbol
_atom_site_label
_atom_site_fract_x
_atom_site_fract_y
_atom_site_fract_z
Si Si1 0.688862 0.104983 0.326410
Si Si2 0.766313 0.055310 0.707859
Si Si3 0.051960 0.275798 0.674981
Si Si4 0.968720 0.728653 0.004001
Si Si5 0.491511 0.685066 0.082062
Si Si6 0.355490 0.411087 0.856917
Si Si7 0.732562 0.766216 0.971222
O O1 0.696014 0.092155 0.234292
O O2 0.784241 0.259450 0.350458
O O3 0.534082 0.033391 0.345522
O O4 0.746952 0.028850 0.378235
O O5 0.696850 0.124613 0.660566
O O6 0.924695 0.149971 0.712942
O O7 0.747453 0.924356 0.664217
O O8 0.704641 0.021263 0.793652
O O9 0.015260 0.311873 0.591463
O O10 0.819611 0.702372 0.998295
O O11 0.996681 0.643488 0.941421
O O12 0.076851 0.884880 0.992043
O O13 0.454990 0.805195 0.079379
O O14 0.584445 0.695196 0.009684
#
# Coordination Sequence:
#
# PCOD8324881 Si02
#       7
#     6   6   6   6   6   6   6
#     4  10  24  39  60  88 127 171 214 270 330 404
#     4  11  22  41  64  97 131 173 216 282 335 393
#     4  11  21  39  64  95 127 165 219 274 335 384
#     4  11  21  39  64  97 125 165 217 276 337 382
#     4  10  24  37  63 104 129 171 222 273 327 396
#     4  10  24  41  63  91 129 175 221 271 337 402
#     4  11  22  40  66  96 132 170 217 284 333 397
#
# _framework density 20.932320000000001
#
# number of rings (size 3 to 8) (size 9 to 14) (size 15 to 20)
#    0.286    1.143    2.857    1.714    6.000    0.000 
#    0.000    2.857    0.000    0.571    0.000    0.000 
#    0.000    0.000    0.000    0.000    0.000    0.000 
#
# Total GULP energy -520510.335608 kJ/mol
# GULP energy per Si atom -12393.103229 kJ/mol
# Density = 2.088468 g / cm^3
# Si number density = 20.932320 Si / 1000 Ang^3
#
#
#
# Elastic Constant Matrix: (Units=GPa)
#
#
# Indices 1 2 3 4 5 6 
#
# 1 99.0942 44.0583 48.8777 0.0000 0.0000 0.0000
# 2 44.0583 99.0942 48.8777 0.0000 0.0000 0.0000
# 3 48.8777 48.8777 148.4405 0.0000 0.0000 0.0000
# 4 0.0000 0.0000 0.0000 23.5259 0.0000 0.0000
# 5 0.0000 0.0000 0.0000 0.0000 23.5259 0.0000
# 6 0.0000 0.0000 0.0000 0.0000 0.0000 27.5180
#
#
#
# Elastic Compliance Matrix: (Units=1/GPa)
#
#
# Indices 1 2 3 4 5 6 
#
# 1 0.013591 -0.004579 -0.002967 0.000000 0.000000 0.000000
# 2 -0.004579 0.013591 -0.002967 0.000000 0.000000 0.000000
# 3 -0.002967 -0.002967 0.008691 0.000000 0.000000 0.000000
# 4 0.000000 0.000000 0.000000 0.042506 0.000000 0.000000
# 5 0.000000 0.000000 0.000000 0.000000 0.042506 0.000000
# 6 0.000000 0.000000 0.000000 0.000000 0.000000 0.036340
#
#
# Mechanical properties :
#
#
# Convention : Reuss Voigt Hill
#
# Bulk Modulus (GPa) = 67.36215 70.02849 68.69532
# Shear Modulus (GPa) = 27.29240 28.56832 27.93036
#
# Velocity S-wave (km/s) = 3.61479 3.69832 3.65679
# Velocity P-wave (km/s) = 7.04791 7.19473 7.12170
#
# Compressibility (1/GPa) = 0.01484513
#
# Stress axis : x y z
#
# Youngs Moduli (GPa) = 73.57845 73.57845 115.06309
#
# Poissons Ratio (x) = 0.33692 0.34144
# Poissons Ratio (y) = 0.33692 0.34144
# Poissons Ratio (z) = 0.21834 0.21834
#
# Static dielectric constant tensor:
#      x y z
#    x 3.595850 0.000000 0.000000 
#    y 0.000000 3.595850 0.000000 
#    z 0.000000 0.000000 3.945930 
# 
# 
# High freq. dielectric constant tensor:
#      x y z
#    x 1.805110 0.000000 0.000000 
#    y 0.000000 1.805110 0.000000 
#    z 0.000000 0.000000 1.839580 
# 
# From -- ./inp_files/1288.got.cif
#   From: 2010.03.12/outbox.cif.g09.slc.cpg/sg173_cif.got.tgz:1288.got - 2010.04.02 06:54:12.
