data_PCOD8324224
_publ_section_title
;
Structure prediction by ZEFSAII (Michael W. Deem and Ramdas Pophale) SiO2 
 PCOD8324224
Probable space group: R -3 M
;
_chemical_formula_sum "Si O2"
_cell_formula_units_Z 90
_cell_length_a 15.487024
_cell_length_b 15.487024
_cell_length_c 23.513683
_cell_angle_alpha 90.000000
_cell_angle_beta 90.000000
_cell_angle_gamma 120.000000
_cell_volume 4884.130207
_symmetry_space_group_name_H-M "R -3 M"
_symmetry_group_IT_number 166
_symmetry_cell_setting 'hexagonal'
loop_
_space_group_symop_operation_xyz
x,y,z
-y,x-y,z
-x+y,-x,z
x-y,-y,-z
-x,-x+y,-z
y,x,-z
-x,-y,-z
y,-x+y,-z
x-y,x,-z
-x+y,y,z
x,x-y,z
-y,-x,z
2/3+x,1/3+y,1/3+z
2/3-y,1/3+x-y,1/3+z
2/3-x+y,1/3-x,1/3+z
2/3+x-y,1/3-y,1/3-z
2/3-x,1/3-x+y,1/3-z
2/3+y,1/3+x,1/3-z
2/3-x,1/3-y,1/3-z
2/3+y,1/3-x+y,1/3-z
2/3+x-y,1/3+x,1/3-z
2/3-x+y,1/3+y,1/3+z
2/3+x,1/3+x-y,1/3+z
2/3-y,1/3-x,1/3+z
1/3+x,2/3+y,2/3+z
1/3-y,2/3+x-y,2/3+z
1/3-x+y,2/3-x,2/3+z
1/3+x-y,2/3-y,2/3-z
1/3-x,2/3-x+y,2/3-z
1/3+y,2/3+x,2/3-z
1/3-x,2/3-y,2/3-z
1/3+y,2/3-x+y,2/3-z
1/3+x-y,2/3+x,2/3-z
1/3-x+y,2/3+y,2/3+z
1/3+x,2/3+x-y,2/3+z
1/3-y,2/3-x,2/3+z
loop_
_atom_site_type_symbol
_atom_site_label
_atom_site_fract_x
_atom_site_fract_y
_atom_site_fract_z
Si Si1 0.872752 0.936376 0.650114
Si Si2 0.184238 0.815763 0.100145
Si Si3 0.682391 0.015724 0.166667
Si Si4 0.470166 0.940332 0.423680
Si Si5 0.447725 0.895450 0.661099
O O1 0.815454 0.907727 0.589530
O O2 0.807057 0.903529 0.707142
O O3 0.942974 0.885948 0.651372
O O4 0.084978 0.742655 0.134295
O O5 0.155263 0.844738 0.042073
O O6 0.710930 0.112127 0.126836
O O7 0.526232 0.052464 0.399959
O O8 0.333334 0.825660 0.666667
#
# Coordination Sequence:
#
# PCOD8324224 Si02
#       5
#    18  18  18  18  18
#     4   9  23  42  61  87 120 164 206 244 290 369
#     4  11  24  38  63  89 123 161 200 253 312 347
#     4  11  24  40  63  92 124 158 201 260 308 357
#     4  10  22  42  63  87 124 159 209 251 296 368
#     4  11  20  40  59  88 121 159 197 246 309 374
#
# _framework density 18.427026999999999
#
# number of rings (size 3 to 8) (size 9 to 14) (size 15 to 20)
#    0.400    1.200    4.000    0.200    5.600    0.000 
#    0.000    3.000    4.400    0.000    0.000    0.000 
#    0.000    0.000    0.000    0.000    0.000    0.000 
#
# Total GULP energy -371750.650018 kJ/mol
# GULP energy per Si atom -12391.688334 kJ/mol
# Density = 1.838509 g / cm^3
# Si number density = 18.427027 Si / 1000 Ang^3
#
#
#
# Elastic Constant Matrix: (Units=GPa)
#
#
# Indices 1 2 3 4 5 6 
#
# 1 121.2222 52.4547 55.8898 -3.3317 -0.0007 0.0000
# 2 52.4547 121.2222 55.8898 3.3317 0.0007 0.0000
# 3 55.8898 55.8898 107.8918 0.0000 0.0000 0.0000
# 4 -3.3317 3.3317 0.0000 40.6375 0.0000 0.0007
# 5 -0.0007 0.0007 0.0000 0.0000 40.6375 -3.3317
# 6 0.0000 0.0000 0.0000 0.0007 -3.3317 34.3838
#
#
#
# Elastic Compliance Matrix: (Units=1/GPa)
#
#
# Indices 1 2 3 4 5 6 
#
# 1 0.011648 -0.003010 -0.004474 0.001202 0.000000 0.000000
# 2 -0.003010 0.011648 -0.004474 -0.001202 0.000000 0.000000
# 3 -0.004474 -0.004474 0.013904 0.000000 0.000000 0.000000
# 4 0.001202 -0.001202 0.000000 0.024805 0.000000 0.000000
# 5 0.000000 0.000000 0.000000 0.000000 0.024805 0.002404
# 6 0.000000 0.000000 0.000000 0.000000 0.002404 0.029316
#
#
# Mechanical properties :
#
#
# Convention : Reuss Voigt Hill
#
# Bulk Modulus (GPa) = 75.29157 75.42273 75.35715
# Shear Modulus (GPa) = 34.60889 35.53855 35.07372
#
# Velocity S-wave (km/s) = 4.33847 4.39636 4.36751
# Velocity P-wave (km/s) = 8.12678 8.17251 8.14968
#
# Compressibility (1/GPa) = 0.01328170
#
# Stress axis : x y z
#
# Youngs Moduli (GPa) = 85.85250 85.85250 71.92077
#
# Poissons Ratio (x) = 0.25844 0.32180
# Poissons Ratio (y) = 0.25844 0.32180
# Poissons Ratio (z) = 0.38414 0.38414
#
# Static dielectric constant tensor:
#      x y z
#    x 3.400950 0.000000 0.000000 
#    y 0.000000 3.400950 0.000000 
#    z 0.000000 0.000000 3.620840 
# 
# 
# High freq. dielectric constant tensor:
#      x y z
#    x 1.718670 0.000000 0.000000 
#    y 0.000000 1.718670 0.000000 
#    z 0.000000 0.000000 1.728650 
# 
# From -- ./inp_files/7668.got.cif
#   From: 2010.03.12/outbox.cif.g09.slc.cpg/sg166_4_cif.got.tgz:7668.got - 2010.04.02 06:38:31.
