data_PCOD8324207
_publ_section_title
;
Structure prediction by ZEFSAII (Michael W. Deem and Ramdas Pophale) SiO2 
 PCOD8324207
Probable space group: R -3 M
;
_chemical_formula_sum "Si O2"
_cell_formula_units_Z 72
_cell_length_a 25.047170
_cell_length_b 25.047170
_cell_length_c 7.117595
_cell_angle_alpha 90.000000
_cell_angle_beta 90.000000
_cell_angle_gamma 120.000000
_cell_volume 3867.062854
_symmetry_space_group_name_H-M "R -3 M"
_symmetry_group_IT_number 166
_symmetry_cell_setting 'hexagonal'
loop_
_space_group_symop_operation_xyz
x,y,z
-y,x-y,z
-x+y,-x,z
x-y,-y,-z
-x,-x+y,-z
y,x,-z
-x,-y,-z
y,-x+y,-z
x-y,x,-z
-x+y,y,z
x,x-y,z
-y,-x,z
2/3+x,1/3+y,1/3+z
2/3-y,1/3+x-y,1/3+z
2/3-x+y,1/3-x,1/3+z
2/3+x-y,1/3-y,1/3-z
2/3-x,1/3-x+y,1/3-z
2/3+y,1/3+x,1/3-z
2/3-x,1/3-y,1/3-z
2/3+y,1/3-x+y,1/3-z
2/3+x-y,1/3+x,1/3-z
2/3-x+y,1/3+y,1/3+z
2/3+x,1/3+x-y,1/3+z
2/3-y,1/3-x,1/3+z
1/3+x,2/3+y,2/3+z
1/3-y,2/3+x-y,2/3+z
1/3-x+y,2/3-x,2/3+z
1/3+x-y,2/3-y,2/3-z
1/3-x,2/3-x+y,2/3-z
1/3+y,2/3+x,2/3-z
1/3-x,2/3-y,2/3-z
1/3+y,2/3-x+y,2/3-z
1/3+x-y,2/3+x,2/3-z
1/3-x+y,2/3+y,2/3+z
1/3+x,2/3+x-y,2/3+z
1/3-y,2/3-x,2/3+z
loop_
_atom_site_type_symbol
_atom_site_label
_atom_site_fract_x
_atom_site_fract_y
_atom_site_fract_z
Si Si1 0.715792 0.666667 0.166667
Si Si2 0.952472 0.169577 0.332021
Si Si3 0.211884 0.666667 0.666667
O O1 0.666667 0.640468 0.333334
O O2 0.780608 0.718167 0.246942
O O3 0.888822 0.111179 0.403842
O O4 0.000000 0.199864 0.500000
O O5 0.983975 0.149320 0.176305
O O6 0.220813 0.610407 0.728844
#
# Coordination Sequence:
#
# PCOD8324207 Si02
#       3
#    18  36  18
#     4  12  23  42  62  88 122 158 199 248 296 356
#     4  11  23  40  62  91 121 156 200 247 297 353
#     4  10  21  38  60  86 120 158 199 246 298 354
#
# _framework density 18.618783000000001
#
# number of rings (size 3 to 8) (size 9 to 14) (size 15 to 20)
#    0.000    1.000    5.000    2.500    0.000    0.000 
#    0.000    2.500    0.000    8.000    0.000    0.000 
#    0.000    0.000    0.000    0.000    0.000    0.000 
#
# Total GULP energy -297682.453933 kJ/mol
# GULP energy per Si atom -12403.435581 kJ/mol
# Density = 1.857641 g / cm^3
# Si number density = 18.618783 Si / 1000 Ang^3
#
#
#
# Elastic Constant Matrix: (Units=GPa)
#
#
# Indices 1 2 3 4 5 6 
#
# 1 145.2450 97.0843 62.7042 -4.9022 0.5013 -0.0804
# 2 97.0843 144.6877 62.4036 4.9065 0.2287 -0.1104
# 3 62.7042 62.4036 98.4871 0.5204 0.9168 0.0390
# 4 -4.9022 4.9065 0.5204 15.3873 0.4031 0.1438
# 5 0.5013 0.2287 0.9168 0.4031 15.3721 -4.6041
# 6 -0.0804 -0.1104 0.0390 0.1438 -4.6041 23.6670
#
#
#
# Elastic Compliance Matrix: (Units=1/GPa)
#
#
# Indices 1 2 3 4 5 6 
#
# 1 0.014266 -0.008099 -0.003986 0.007272 -0.000325 -0.000090
# 2 -0.008099 0.014235 -0.003831 -0.007005 0.000521 0.000189
# 3 -0.003986 -0.003831 0.015129 -0.000538 -0.000761 -0.000201
# 4 0.007272 -0.007005 -0.000538 0.069622 -0.002182 -0.000855
# 5 -0.000325 0.000521 -0.000761 -0.002182 0.069195 0.013477
# 6 -0.000090 0.000189 -0.000201 -0.000855 0.013477 0.044881
#
#
# Mechanical properties :
#
#
# Convention : Reuss Voigt Hill
#
# Bulk Modulus (GPa) = 84.76716 92.53379 88.65048
# Shear Modulus (GPa) = 19.00461 21.96712 20.48586
#
# Velocity S-wave (km/s) = 3.19834 3.43860 3.32064
# Velocity P-wave (km/s) = 7.69843 8.09768 7.90057
#
# Compressibility (1/GPa) = 0.01179702
#
# Stress axis : x y z
#
# Youngs Moduli (GPa) = 70.09642 70.24848 66.09797
#
# Poissons Ratio (x) = 0.56896 0.26349
# Poissons Ratio (y) = 0.56773 0.25322
# Poissons Ratio (z) = 0.27943 0.26913
#
# Static dielectric constant tensor:
#      x y z
#    x 3.652760 0.000020 0.002290 
#    y 0.000020 3.654090 -0.000810 
#    z 0.002290 -0.000810 3.464490 
# 
# 
# High freq. dielectric constant tensor:
#      x y z
#    x 1.741330 0.000000 -0.000070 
#    y 0.000000 1.741370 0.000000 
#    z -0.000070 0.000000 1.729510 
# 
# From -- ./inp_files/282.got.cif
#   From: 2010.03.12/outbox.cif.g09.slc.cpg/sg166_1_cif.got.tgz:282.got - 2010.04.02 06:38:31.
