data_PCOD8324830
_publ_section_title
;
Structure prediction by ZEFSAII (Michael W. Deem and Ramdas Pophale) SiO2 
 PCOD8324830
Probable space group: P 63
;
_chemical_formula_sum "Si O2"
_cell_formula_units_Z 40
_cell_length_a 19.004580
_cell_length_b 19.004580
_cell_length_c 9.217232
_cell_angle_alpha 90.000000
_cell_angle_beta 90.000000
_cell_angle_gamma 120.000000
_cell_volume 2883.020317
_symmetry_space_group_name_H-M "P 63"
_symmetry_group_IT_number 173
_symmetry_cell_setting 'hexagonal'
loop_
_space_group_symop_operation_xyz
x,y,z
x-y,x,1/2+z
-y,x-y,z
-x,-y,1/2+z
-x+y,-x,z
y,-x+y,1/2+z
loop_
_atom_site_type_symbol
_atom_site_label
_atom_site_fract_x
_atom_site_fract_y
_atom_site_fract_z
Si Si1 0.909352 0.523218 0.935350
Si Si2 0.666668 0.333335 0.274243
Si Si3 0.750163 0.516804 0.271820
Si Si4 0.249840 0.483198 0.433732
Si Si5 0.471229 0.093097 0.433628
Si Si6 0.333334 0.666668 0.431327
Si Si7 0.090646 0.476783 0.770192
Si Si8 0.621868 0.528770 0.771917
O O1 0.846343 0.555123 0.900857
O O2 0.887888 0.444510 0.840518
O O3 0.999660 0.596544 0.902884
O O4 0.899601 0.494691 0.102771
O O5 0.706249 0.424786 0.330654
O O6 0.666668 0.333334 0.102784
O O7 0.710478 0.561336 0.361324
O O8 0.846347 0.555125 0.304689
O O9 0.734490 0.522986 0.102777
O O10 0.293758 0.575218 0.374909
O O11 0.289524 0.438666 0.344227
O O12 0.556619 0.112111 0.365021
O O13 0.484862 0.112037 0.602772
O O14 0.000340 0.403458 0.802661
#
# Coordination Sequence:
#
# PCOD8324830 Si02
#       8
#     6   2   6   6   6   2   6   6
#     4   9  18  31  43  55  77 109 136 158 197 251
#     4   9  15  24  40  56  70  99 142 167 181 231
#     4  10  17  29  44  55  73 107 140 162 194 244
#     4  10  17  29  44  55  73 107 140 162 194 244
#     4  10  19  28  40  61  82  98 128 175 209 226
#     4   9  15  24  40  56  70  99 142 167 181 231
#     4   9  18  31  43  55  77 109 136 158 197 251
#     4  10  19  28  40  61  82  98 128 175 209 226
#
# _framework density 13.874338
#
# number of rings (size 3 to 8) (size 9 to 14) (size 15 to 20)
#    0.000    2.400    3.000    0.900    0.000    2.400 
#    0.000    0.000    0.000    0.000    0.000    0.000 
#    0.000    0.000    0.000    0.900    0.000   10.800 
#
# Total GULP energy -495846.409795 kJ/mol
# GULP energy per Si atom -12396.160245 kJ/mol
# Density = 1.384276 g / cm^3
# Si number density = 13.874338 Si / 1000 Ang^3
#
#
#
# Elastic Constant Matrix: (Units=GPa)
#
#
# Indices 1 2 3 4 5 6 
#
# 1 86.6856 42.4040 41.5381 0.0000 0.0000 0.0000
# 2 42.4040 86.6858 41.5380 0.0000 0.0000 0.0000
# 3 41.5381 41.5380 65.1256 0.0000 0.0000 0.0001
# 4 0.0000 0.0000 0.0000 20.4265 0.0000 0.0000
# 5 0.0000 0.0000 0.0000 0.0000 20.4265 0.0000
# 6 0.0000 0.0000 0.0001 0.0000 0.0000 22.1409
#
#
#
# Elastic Compliance Matrix: (Units=1/GPa)
#
#
# Indices 1 2 3 4 5 6 
#
# 1 0.017861 -0.004721 -0.008381 0.000000 0.000000 0.000000
# 2 -0.004721 0.017861 -0.008381 0.000000 0.000000 0.000000
# 3 -0.008381 -0.008381 0.026046 0.000000 0.000000 0.000000
# 4 0.000000 0.000000 0.000000 0.048956 0.000000 0.000000
# 5 0.000000 0.000000 0.000000 0.000000 0.048956 0.000000
# 6 0.000000 0.000000 0.000000 0.000000 0.000000 0.045165
#
#
# Mechanical properties :
#
#
# Convention : Reuss Voigt Hill
#
# Bulk Modulus (GPa) = 53.18483 54.38413 53.78448
# Shear Modulus (GPa) = 19.67884 20.13323 19.90603
#
# Velocity S-wave (km/s) = 3.77020 3.81348 3.79190
# Velocity P-wave (km/s) = 7.57423 7.65982 7.61715
#
# Compressibility (1/GPa) = 0.01880235
#
# Stress axis : x y z
#
# Youngs Moduli (GPa) = 55.98644 55.98675 38.39370
#
# Poissons Ratio (x) = 0.26433 0.32178
# Poissons Ratio (y) = 0.26433 0.32177
# Poissons Ratio (z) = 0.46922 0.46922
#
# Static dielectric constant tensor:
#      x y z
#    x 2.733190 0.000000 0.000000 
#    y 0.000000 2.733190 0.000000 
#    z 0.000000 0.000000 2.713840 
# 
# 
# High freq. dielectric constant tensor:
#      x y z
#    x 1.504830 0.000000 0.000000 
#    y 0.000000 1.504830 0.000000 
#    z 0.000000 0.000000 1.529340 
# 
# From -- ./inp_files/640.got.cif
#   From: 2010.03.12/outbox.cif.g09.slc.cpg/sg173_cif.got.tgz:640.got - 2010.04.02 06:54:12.
