data_PCOD8324634
_publ_section_title
;
Structure prediction by ZEFSAII (Michael W. Deem and Ramdas Pophale) SiO2 
 PCOD8324634
Probable space group: P 65
;
_chemical_formula_sum "Si O2"
_cell_formula_units_Z 36
_cell_length_a 24.668967
_cell_length_b 24.668967
_cell_length_c 5.292176
_cell_angle_alpha 90.000000
_cell_angle_beta 90.000000
_cell_angle_gamma 120.000000
_cell_volume 2789.117680
_symmetry_space_group_name_H-M "P 65"
_symmetry_group_IT_number 170
_symmetry_cell_setting 'hexagonal'
loop_
_space_group_symop_operation_xyz
x,y,z
x-y,x,5/6+z
-y,x-y,2/3+z
-x,-y,1/2+z
-x+y,-x,1/3+z
y,-x+y,1/6+z
loop_
_atom_site_type_symbol
_atom_site_label
_atom_site_fract_x
_atom_site_fract_y
_atom_site_fract_z
Si Si1 0.041562 0.459684 0.946980
Si Si2 0.620932 0.351171 0.735522
Si Si3 0.832130 0.335538 0.456687
Si Si4 0.543683 0.361930 0.118230
Si Si5 0.711863 0.475938 0.605462
Si Si6 0.419052 0.446096 0.614086
O O1 0.033123 0.519573 0.943169
O O2 0.010306 0.418581 0.696806
O O3 0.114992 0.480807 0.946376
O O4 0.010059 0.418502 0.196881
O O5 0.617154 0.288217 0.637980
O O6 0.651411 0.407458 0.534464
O O7 0.554617 0.338294 0.844196
O O8 0.826958 0.397308 0.506546
O O9 0.803965 0.300185 0.192181
O O10 0.905323 0.356974 0.449561
O O11 0.800834 0.286039 0.689490
O O12 0.533466 0.306065 0.312917
#
# Coordination Sequence:
#
# PCOD8324634 Si02
#       6
#     6   6   6   6   6   6
#     4   9  18  28  44  56  68  85 109 151 173 195
#     4  11  19  29  37  50  73 105 118 132 156 212
#     4  10  21  31  43  54  71  97 117 139 162 208
#     4  10  19  29  39  58  74  91 114 140 174 206
#     4  11  20  29  40  56  74  92 114 137 165 207
#     4   9  17  32  43  54  66  86 118 141 172 194
#
# _framework density 12.907308
#
# number of rings (size 3 to 8) (size 9 to 14) (size 15 to 20)
#    0.000    2.000    1.667    4.000    0.000   12.000 
#    0.000    0.000    0.000    0.000    0.000    0.000 
#    0.000    0.000    0.000    0.000    0.000    0.000 
#
# Total GULP energy -446016.509848 kJ/mol
# GULP energy per Si atom -12389.347496 kJ/mol
# Density = 1.287793 g / cm^3
# Si number density = 12.907308 Si / 1000 Ang^3
#
#
#
# Elastic Constant Matrix: (Units=GPa)
#
#
# Indices 1 2 3 4 5 6 
#
# 1 36.8685 19.0918 22.7638 0.0000 0.0000 0.0000
# 2 19.0918 36.8685 22.7638 0.0000 0.0000 0.0000
# 3 22.7638 22.7638 94.6635 0.0000 0.0000 0.0000
# 4 0.0000 0.0000 0.0000 15.4436 0.0000 0.0000
# 5 0.0000 0.0000 0.0000 0.0000 15.4436 0.0000
# 6 0.0000 0.0000 0.0000 0.0000 0.0000 8.8884
#
#
#
# Elastic Compliance Matrix: (Units=1/GPa)
#
#
# Indices 1 2 3 4 5 6 
#
# 1 0.039235 -0.017019 -0.005342 0.000000 0.000000 0.000000
# 2 -0.017019 0.039235 -0.005342 0.000000 0.000000 0.000000
# 3 -0.005342 -0.005342 0.013133 0.000000 0.000000 0.000000
# 4 0.000000 0.000000 0.000000 0.064752 0.000000 0.000000
# 5 0.000000 0.000000 0.000000 0.000000 0.064752 0.000000
# 6 0.000000 0.000000 0.000000 0.000000 0.000000 0.112507
#
#
# Mechanical properties :
#
#
# Convention : Reuss Voigt Hill
#
# Bulk Modulus (GPa) = 27.62730 33.07102 30.34916
# Shear Modulus (GPa) = 12.46620 14.87386 13.67003
#
# Velocity S-wave (km/s) = 3.11114 3.39833 3.25790
# Velocity P-wave (km/s) = 5.86144 6.40903 6.14134
#
# Compressibility (1/GPa) = 0.03619608
#
# Stress axis : x y z
#
# Youngs Moduli (GPa) = 25.48760 25.48760 76.14356
#
# Poissons Ratio (x) = 0.43376 0.40678
# Poissons Ratio (y) = 0.43376 0.40678
# Poissons Ratio (z) = 0.13616 0.13616
#
# Static dielectric constant tensor:
#      x y z
#    x 2.430510 0.000000 0.000000 
#    y 0.000000 2.430510 0.000000 
#    z 0.000000 0.000000 2.827700 
# 
# 
# High freq. dielectric constant tensor:
#      x y z
#    x 1.440640 0.000000 0.000000 
#    y 0.000000 1.440640 0.000000 
#    z 0.000000 0.000000 1.518320 
# 
# From -- ./inp_files/313.got.cif
#   From: 2010.03.12/outbox.cif.g09.slc.cpg/sg170_cif.got.tgz:313.got - 2010.04.02 06:47:37.
