data_PCOD8324190
_publ_section_title
;
Structure prediction by ZEFSAII (Michael W. Deem and Ramdas Pophale) SiO2 
 PCOD8324190
Probable space group: R -3 M
;
_chemical_formula_sum "Si O2"
_cell_formula_units_Z 144
_cell_length_a 29.146957
_cell_length_b 29.146957
_cell_length_c 9.153379
_cell_angle_alpha 90.000000
_cell_angle_beta 90.000000
_cell_angle_gamma 120.000000
_cell_volume 6734.393932
_symmetry_space_group_name_H-M "R -3 M"
_symmetry_group_IT_number 166
_symmetry_cell_setting 'hexagonal'
loop_
_space_group_symop_operation_xyz
x,y,z
-y,x-y,z
-x+y,-x,z
x-y,-y,-z
-x,-x+y,-z
y,x,-z
-x,-y,-z
y,-x+y,-z
x-y,x,-z
-x+y,y,z
x,x-y,z
-y,-x,z
2/3+x,1/3+y,1/3+z
2/3-y,1/3+x-y,1/3+z
2/3-x+y,1/3-x,1/3+z
2/3+x-y,1/3-y,1/3-z
2/3-x,1/3-x+y,1/3-z
2/3+y,1/3+x,1/3-z
2/3-x,1/3-y,1/3-z
2/3+y,1/3-x+y,1/3-z
2/3+x-y,1/3+x,1/3-z
2/3-x+y,1/3+y,1/3+z
2/3+x,1/3+x-y,1/3+z
2/3-y,1/3-x,1/3+z
1/3+x,2/3+y,2/3+z
1/3-y,2/3+x-y,2/3+z
1/3-x+y,2/3-x,2/3+z
1/3+x-y,2/3-y,2/3-z
1/3-x,2/3-x+y,2/3-z
1/3+y,2/3+x,2/3-z
1/3-x,2/3-y,2/3-z
1/3+y,2/3-x+y,2/3-z
1/3+x-y,2/3+x,2/3-z
1/3-x+y,2/3+y,2/3+z
1/3+x,2/3+x-y,2/3+z
1/3-y,2/3-x,2/3+z
loop_
_atom_site_type_symbol
_atom_site_label
_atom_site_fract_x
_atom_site_fract_y
_atom_site_fract_z
Si Si1 0.562816 0.020822 0.849537
Si Si2 0.552090 0.828922 0.989695
Si Si3 0.942946 0.714191 0.067316
Si Si4 0.435074 0.666733 0.335268
O O1 0.516698 0.033395 0.886286
O O2 0.612119 0.075333 0.781929
O O3 0.541467 0.974543 0.729109
O O4 0.576877 0.000000 0.000000
O O5 0.543237 0.771619 0.029448
O O6 0.578596 0.845781 0.830801
O O7 0.493201 0.821821 0.982595
O O8 0.938163 0.666667 0.166667
O O9 0.000000 0.742795 0.000000
O O10 0.445133 0.722567 0.404939
O O11 0.383301 0.616700 0.409939
O O12 0.422452 0.666667 0.166667
#
# Coordination Sequence:
#
# PCOD8324190 Si02
#       4
#    36  36  36  36
#     4   9  18  34  57  82 107 138 179 228 282 339
#     4   9  18  34  55  79 109 144 182 229 284 339
#     4  10  21  36  53  75 106 142 177 216 269 331
#     4   9  17  30  50  78 113 152 193 238 288 339
#
# _framework density 21.382770000000001
#
# number of rings (size 3 to 8) (size 9 to 14) (size 15 to 20)
#    0.000    2.750    0.000    1.000    0.000    7.000 
#    0.000   10.000    0.000    0.000    0.000    1.750 
#    0.000   14.000    0.000    7.250    0.000    0.000 
#
# Total GULP energy -594634.879962 kJ/mol
# GULP energy per Si atom -12388.226666 kJ/mol
# Density = 2.133410 g / cm^3
# Si number density = 21.382770 Si / 1000 Ang^3
#
#
#
# Elastic Constant Matrix: (Units=GPa)
#
#
# Indices 1 2 3 4 5 6 
#
# 1 106.8994 47.0125 37.4149 -5.3343 -0.0390 -0.0041
# 2 47.0125 106.9698 37.4832 5.3327 -0.0165 0.0072
# 3 37.4149 37.4832 109.7850 0.0064 -0.1277 -0.0209
# 4 -5.3343 5.3327 0.0064 12.3907 -0.0054 -0.0338
# 5 -0.0390 -0.0165 -0.1277 -0.0054 12.2282 -5.3739
# 6 -0.0041 0.0072 -0.0209 -0.0338 -5.3739 29.9865
#
#
#
# Elastic Compliance Matrix: (Units=1/GPa)
#
#
# Indices 1 2 3 4 5 6 
#
# 1 0.012933 -0.005142 -0.002652 0.007782 0.000016 0.000013
# 2 -0.005142 0.012929 -0.002661 -0.007777 -0.000040 -0.000022
# 3 -0.002652 -0.002661 0.010921 -0.000002 0.000114 0.000028
# 4 0.007782 -0.007777 -0.000002 0.087404 0.000106 0.000120
# 5 0.000016 -0.000040 0.000114 0.000106 0.088771 0.015909
# 6 0.000013 -0.000022 0.000028 0.000120 0.015909 0.036200
#
#
# Mechanical properties :
#
#
# Convention : Reuss Voigt Hill
#
# Bulk Modulus (GPa) = 63.00769 63.05283 63.03026
# Shear Modulus (GPa) = 18.15813 24.37065 21.26439
#
# Velocity S-wave (km/s) = 2.91726 3.37966 3.15693
# Velocity P-wave (km/s) = 6.39357 6.69187 6.54442
#
# Compressibility (1/GPa) = 0.01587108
#
# Stress axis : x y z
#
# Youngs Moduli (GPa) = 77.32281 77.34714 91.56411
#
# Poissons Ratio (x) = 0.39776 0.24285
# Poissons Ratio (y) = 0.39763 0.24367
# Poissons Ratio (z) = 0.20507 0.20584
#
# Static dielectric constant tensor:
#      x y z
#    x 4.108180 -0.002360 0.003370 
#    y -0.002360 4.107770 0.005890 
#    z 0.003370 0.005890 4.076930 
# 
# 
# High freq. dielectric constant tensor:
#      x y z
#    x 1.830100 0.000000 -0.000020 
#    y 0.000000 1.830110 0.000000 
#    z -0.000020 0.000000 1.813090 
# 
# From -- ./inp_files/1781.got.cif
#   From: 2010.03.12/outbox.cif.g09.slc.cpg/sg166_1_cif.got.tgz:1781.got - 2010.04.02 06:38:31.
