data_PCOD8324069
_publ_section_title
;
Structure prediction by ZEFSAII (Michael W. Deem and Ramdas Pophale) SiO2 
 PCOD8324069
Probable space group: R -3 M
;
_chemical_formula_sum "Si O2"
_cell_formula_units_Z 216
_cell_length_a 22.222153
_cell_length_b 22.222153
_cell_length_c 27.818099
_cell_angle_alpha 90.000000
_cell_angle_beta 90.000000
_cell_angle_gamma 120.000000
_cell_volume 11896.805102
_symmetry_space_group_name_H-M "R -3 M"
_symmetry_group_IT_number 166
_symmetry_cell_setting 'hexagonal'
loop_
_space_group_symop_operation_xyz
x,y,z
-y,x-y,z
-x+y,-x,z
x-y,-y,-z
-x,-x+y,-z
y,x,-z
-x,-y,-z
y,-x+y,-z
x-y,x,-z
-x+y,y,z
x,x-y,z
-y,-x,z
2/3+x,1/3+y,1/3+z
2/3-y,1/3+x-y,1/3+z
2/3-x+y,1/3-x,1/3+z
2/3+x-y,1/3-y,1/3-z
2/3-x,1/3-x+y,1/3-z
2/3+y,1/3+x,1/3-z
2/3-x,1/3-y,1/3-z
2/3+y,1/3-x+y,1/3-z
2/3+x-y,1/3+x,1/3-z
2/3-x+y,1/3+y,1/3+z
2/3+x,1/3+x-y,1/3+z
2/3-y,1/3-x,1/3+z
1/3+x,2/3+y,2/3+z
1/3-y,2/3+x-y,2/3+z
1/3-x+y,2/3-x,2/3+z
1/3+x-y,2/3-y,2/3-z
1/3-x,2/3-x+y,2/3-z
1/3+y,2/3+x,2/3-z
1/3-x,2/3-y,2/3-z
1/3+y,2/3-x+y,2/3-z
1/3+x-y,2/3+x,2/3-z
1/3-x+y,2/3+y,2/3+z
1/3+x,2/3+x-y,2/3+z
1/3-y,2/3-x,2/3+z
loop_
_atom_site_type_symbol
_atom_site_label
_atom_site_fract_x
_atom_site_fract_y
_atom_site_fract_z
Si Si1 0.375570 0.892202 0.210677
Si Si2 0.391925 0.919528 0.489901
Si Si3 0.121641 0.377957 0.546062
Si Si4 0.195840 0.946280 0.714526
Si Si5 0.809513 0.476019 0.969305
Si Si6 0.949300 0.541277 0.325492
O O1 0.448877 0.897753 0.217087
O O2 0.333334 0.842141 0.166667
O O3 0.332886 0.858075 0.259454
O O4 0.390272 0.969724 0.197278
O O5 0.443628 0.887255 0.495870
O O6 0.328482 0.885791 0.527548
O O7 0.360465 0.908516 0.435949
O O8 0.436760 0.000000 0.500000
O O9 0.195269 0.390537 0.525829
O O10 0.119549 0.368969 0.602913
O O11 0.128621 0.871379 0.713959
O O12 0.255193 0.936095 0.688284
O O13 0.180830 0.999946 0.685362
O O14 0.732202 0.464404 0.965745
O O15 0.804066 0.402033 0.967312
O O16 0.932013 0.466007 0.344986
O O17 0.881769 0.548435 0.333334
#
# Coordination Sequence:
#
# PCOD8324069 Si02
#       6
#    36  36  36  36  36  36
#     4  10  19  32  50  72 102 141 181 219 261 307
#     4  10  20  34  55  82 105 131 172 221 266 307
#     4  10  20  34  52  75 105 140 173 207 259 325
#     4   9  18  34  53  75 105 136 170 215 264 308
#     4  10  19  33  53  77 105 141 183 223 263 306
#     4  10  19  33  54  78 101 132 171 211 256 309
#
# _framework density 18.156134999999999
#
# number of rings (size 3 to 8) (size 9 to 14) (size 15 to 20)
#    0.000    2.167    1.667    2.167    0.000    2.667 
#    0.000    0.000    0.000    3.667    0.000    0.000 
#    0.000    0.000    0.000    0.000    0.000    0.000 
#
# Total GULP energy -892322.850367 kJ/mol
# GULP energy per Si atom -12393.372922 kJ/mol
# Density = 1.811481 g / cm^3
# Si number density = 18.156135 Si / 1000 Ang^3
#
#
#
# Elastic Constant Matrix: (Units=GPa)
#
#
# Indices 1 2 3 4 5 6 
#
# 1 75.3221 41.2746 15.7712 -2.8416 -0.0001 0.0000
# 2 41.2746 75.3221 15.7712 2.8416 0.0001 0.0000
# 3 15.7712 15.7712 63.6972 0.0000 0.0000 0.0000
# 4 -2.8416 2.8416 0.0000 28.4350 0.0000 0.0001
# 5 -0.0001 0.0001 0.0000 0.0000 28.4350 -2.8416
# 6 0.0000 0.0000 0.0000 0.0001 -2.8416 17.0238
#
#
#
# Elastic Compliance Matrix: (Units=1/GPa)
#
#
# Indices 1 2 3 4 5 6 
#
# 1 0.019531 -0.010338 -0.002276 0.002985 0.000000 0.000000
# 2 -0.010338 0.019531 -0.002276 -0.002985 0.000000 0.000000
# 3 -0.002276 -0.002276 0.016826 0.000000 0.000000 0.000000
# 4 0.002985 -0.002985 0.000000 0.035764 0.000000 0.000000
# 5 0.000000 0.000000 0.000000 0.000000 0.035764 0.005970
# 6 0.000000 0.000000 0.000000 0.000000 0.005970 0.059738
#
#
# Mechanical properties :
#
#
# Convention : Reuss Voigt Hill
#
# Bulk Modulus (GPa) = 38.30394 39.99727 39.15060
# Shear Modulus (GPa) = 22.15945 24.21372 23.18659
#
# Velocity S-wave (km/s) = 3.49735 3.65586 3.57748
# Velocity P-wave (km/s) = 6.11975 6.31648 6.21889
#
# Compressibility (1/GPa) = 0.02610698
#
# Stress axis : x y z
#
# Youngs Moduli (GPa) = 51.20164 51.20164 59.43071
#
# Poissons Ratio (x) = 0.52934 0.13526
# Poissons Ratio (y) = 0.52934 0.13526
# Poissons Ratio (z) = 0.11653 0.11653
#
# Static dielectric constant tensor:
#      x y z
#    x 3.346890 0.000000 0.000000 
#    y 0.000000 3.346890 0.000000 
#    z 0.000000 0.000000 3.955200 
# 
# 
# High freq. dielectric constant tensor:
#      x y z
#    x 1.686510 0.000000 0.000000 
#    y 0.000000 1.686510 0.000000 
#    z 0.000000 0.000000 1.713840 
# 
# From -- ./inp_files/9729.got.cif
#   From: 2010.03.12/outbox.cif.g09.slc.cpg/sg166_5_cif.got.tgz:9729.got - 2010.04.02 06:38:31.
