data_PCOD8324663
_publ_section_title
;
Structure prediction by ZEFSAII (Michael W. Deem and Ramdas Pophale) SiO2 
 PCOD8324663
Probable space group: P 65
;
_chemical_formula_sum "Si O2"
_cell_formula_units_Z 42
_cell_length_a 16.157875
_cell_length_b 16.157875
_cell_length_c 8.638920
_cell_angle_alpha 90.000000
_cell_angle_beta 90.000000
_cell_angle_gamma 120.000000
_cell_volume 1953.253324
_symmetry_space_group_name_H-M "P 65"
_symmetry_group_IT_number 170
_symmetry_cell_setting 'hexagonal'
loop_
_space_group_symop_operation_xyz
x,y,z
x-y,x,5/6+z
-y,x-y,2/3+z
-x,-y,1/2+z
-x+y,-x,1/3+z
y,-x+y,1/6+z
loop_
_atom_site_type_symbol
_atom_site_label
_atom_site_fract_x
_atom_site_fract_y
_atom_site_fract_z
Si Si1 0.004532 0.723498 0.376290
Si Si2 0.788874 0.619587 0.954021
Si Si3 0.372033 0.882397 0.937118
Si Si4 0.543989 0.738504 0.554568
Si Si5 0.885386 0.809687 0.777862
Si Si6 0.622546 0.933535 0.410181
Si Si7 0.168193 0.687427 0.495224
O O1 0.894297 0.650288 0.417614
O O2 0.030545 0.822207 0.457280
O O3 0.021126 0.737396 0.190378
O O4 0.070963 0.681281 0.435876
O O5 0.861716 0.709952 0.853643
O O6 0.719683 0.534864 0.839649
O O7 0.849993 0.584287 0.047641
O O8 0.727019 0.648808 0.067154
O O9 0.425950 0.843696 0.830138
O O10 0.424883 0.998213 0.924561
O O11 0.357979 0.843396 0.116684
O O12 0.545494 0.827555 0.466781
O O13 0.498649 0.739404 0.722583
O O14 0.867470 0.871886 0.901905
#
# Coordination Sequence:
#
# PCOD8324663 Si02
#       7
#     6   6   6   6   6   6   6
#     4   9  18  37  65  88 119 160 203 250 316 381
#     4  10  21  38  59  86 122 159 205 259 314 365
#     4  10  21  39  59  87 118 160 212 255 315 380
#     4   9  19  38  58  88 123 156 200 262 318 376
#     4  11  22  39  60  88 124 162 207 250 304 371
#     4   9  18  33  59  88 116 152 199 252 303 373
#     4  10  21  38  60  89 116 161 212 254 316 380
#
# _framework density 21.502589
#
# number of rings (size 3 to 8) (size 9 to 14) (size 15 to 20)
#    0.000    2.286    0.000    3.429    0.000    4.571 
#    2.571   10.000    0.000    0.000    0.000    0.000 
#    0.000    0.000    0.000    0.000    0.000    0.000 
#
# Total GULP energy -520505.998086 kJ/mol
# GULP energy per Si atom -12392.999954 kJ/mol
# Density = 2.145365 g / cm^3
# Si number density = 21.502589 Si / 1000 Ang^3
#
#
#
# Elastic Constant Matrix: (Units=GPa)
#
#
# Indices 1 2 3 4 5 6 
#
# 1 74.9106 23.7692 23.8027 0.0000 0.0000 0.0000
# 2 23.7692 74.9106 23.8027 0.0000 0.0000 0.0000
# 3 23.8027 23.8027 118.5549 0.0000 0.0000 0.0000
# 4 0.0000 0.0000 0.0000 31.6451 0.0000 0.0000
# 5 0.0000 0.0000 0.0000 0.0000 31.6451 0.0000
# 6 0.0000 0.0000 0.0000 0.0000 0.0000 25.5707
#
#
#
# Elastic Compliance Matrix: (Units=1/GPa)
#
#
# Indices 1 2 3 4 5 6 
#
# 1 0.015387 -0.004167 -0.002253 0.000000 0.000000 0.000000
# 2 -0.004167 0.015387 -0.002253 0.000000 0.000000 0.000000
# 3 -0.002253 -0.002253 0.009340 0.000000 0.000000 0.000000
# 4 0.000000 0.000000 0.000000 0.031600 0.000000 0.000000
# 5 0.000000 0.000000 0.000000 0.000000 0.031600 0.000000
# 6 0.000000 0.000000 0.000000 0.000000 0.000000 0.039107
#
#
# Mechanical properties :
#
#
# Convention : Reuss Voigt Hill
#
# Bulk Modulus (GPa) = 43.91839 45.68058 44.79948
# Shear Modulus (GPa) = 29.87642 30.90561 30.39102
#
# Velocity S-wave (km/s) = 3.73155 3.79528 3.76355
# Velocity P-wave (km/s) = 6.24780 6.36364 6.30599
#
# Compressibility (1/GPa) = 0.02276951
#
# Stress axis : x y z
#
# Youngs Moduli (GPa) = 64.98944 64.98944 107.07197
#
# Poissons Ratio (x) = 0.27078 0.24121
# Poissons Ratio (y) = 0.27078 0.24121
# Poissons Ratio (z) = 0.14641 0.14641
#
# Static dielectric constant tensor:
#      x y z
#    x 3.648610 0.000000 0.000000 
#    y 0.000000 3.648610 0.000000 
#    z 0.000000 0.000000 4.344270 
# 
# 
# High freq. dielectric constant tensor:
#      x y z
#    x 1.821500 0.000000 0.000000 
#    y 0.000000 1.821500 0.000000 
#    z 0.000000 0.000000 1.859130 
# 
# From -- ./inp_files/699.got.cif
#   From: 2010.03.12/outbox.cif.g09.slc.cpg/sg170_cif.got.tgz:699.got - 2010.04.02 06:47:37.
