data_PCOD8324268
_publ_section_title
;
Structure prediction by ZEFSAII (Michael W. Deem and Ramdas Pophale) SiO2 
 PCOD8324268
Probable space group: R -3 C 
;
_chemical_formula_sum "Si O2"
_cell_formula_units_Z 216
_cell_length_a 27.265198
_cell_length_b 27.265198
_cell_length_c 23.307259
_cell_angle_alpha 90.000000
_cell_angle_beta 90.000000
_cell_angle_gamma 120.000000
_cell_volume 15005.108694
_symmetry_space_group_name_H-M "R -3 C "
_symmetry_group_IT_number 167
_symmetry_cell_setting 'hexagonal'
loop_
_space_group_symop_operation_xyz
x,y,z
-y,x-y,z
-x+y,-x,z
x-y,-y,1/2-z
-x,-x+y,1/2-z
y,x,1/2-z
-x,-y,-z
y,-x+y,-z
x-y,x,-z
-x+y,y,1/2+z
x,x-y,1/2+z
-y,-x,1/2+z
2/3+x,1/3+y,1/3+z
2/3-y,1/3+x-y,1/3+z
2/3-x+y,1/3-x,1/3+z
2/3+x-y,1/3-y,5/6-z
2/3-x,1/3-x+y,5/6-z
2/3+y,1/3+x,5/6-z
2/3-x,1/3-y,1/3-z
2/3+y,1/3-x+y,1/3-z
2/3+x-y,1/3+x,1/3-z
2/3-x+y,1/3+y,5/6+z
2/3+x,1/3+x-y,5/6+z
2/3-y,1/3-x,5/6+z
1/3+x,2/3+y,2/3+z
1/3-y,2/3+x-y,2/3+z
1/3-x+y,2/3-x,2/3+z
1/3+x-y,2/3-y,1/6-z
1/3-x,2/3-x+y,1/6-z
1/3+y,2/3+x,1/6-z
1/3-x,2/3-y,2/3-z
1/3+y,2/3-x+y,2/3-z
1/3+x-y,2/3+x,2/3-z
1/3-x+y,2/3+y,1/6+z
1/3+x,2/3+x-y,1/6+z
1/3-y,2/3-x,1/6+z
loop_
_atom_site_type_symbol
_atom_site_label
_atom_site_fract_x
_atom_site_fract_y
_atom_site_fract_z
Si Si1 0.173679 0.880698 0.451449
Si Si2 0.938657 0.395115 0.927287
Si Si3 0.064864 0.798483 0.067527
Si Si4 0.791601 0.621740 0.466032
Si Si5 0.414373 0.365467 0.137142
Si Si6 0.680269 0.731912 0.792011
O O1 0.111466 0.853713 0.421446
O O2 0.182852 0.925280 0.501207
O O3 0.180182 0.830284 0.478400
O O4 0.222556 0.914299 0.405642
O O5 0.887554 0.332873 0.913608
O O6 0.989884 0.403370 0.887658
O O7 0.949512 0.396459 0.995197
O O8 0.085987 0.752654 0.083334
O O9 0.102099 0.855493 0.105449
O O10 0.798864 0.666667 0.416667
O O11 0.726751 0.590047 0.488569
O O12 0.423669 0.333334 0.083334
O O13 0.359664 0.325920 0.174646
O O14 0.721068 0.721068 0.750000
#
# Coordination Sequence:
#
# PCOD8324268 Si02
#       6
#    36  36  36  36  36  36
#     4   9  18  27  39  58  79 102 137 178 205 229
#     4  10  18  29  39  56  81 106 139 176 203 235
#     4   9  16  28  42  55  75 108 143 170 203 252
#     4   8  15  27  39  54  76 105 137 171 206 245
#     4   9  17  26  39  56  77 103 138 177 205 235
#     4  11  18  25  40  59  80 110 141 168 201 244
#
# _framework density 14.395098000000001
#
# number of rings (size 3 to 8) (size 9 to 14) (size 15 to 20)
#    0.000    3.000    0.000    5.500    0.000    2.667 
#    0.000    0.000    0.000    0.000    0.000    0.000 
#    0.000    0.000    0.000    9.000    0.000   30.000 
#
# Total GULP energy -891954.152732 kJ/mol
# GULP energy per Si atom -12388.252121 kJ/mol
# Density = 1.436233 g / cm^3
# Si number density = 14.395098 Si / 1000 Ang^3
#
#
#
# Elastic Constant Matrix: (Units=GPa)
#
#
# Indices 1 2 3 4 5 6 
#
# 1 57.9932 23.7864 31.6598 -3.2035 -0.0001 0.0000
# 2 23.7864 57.9932 31.6598 3.2035 0.0001 0.0000
# 3 31.6598 31.6598 88.4339 0.0000 0.0000 0.0000
# 4 -3.2035 3.2035 0.0000 18.1791 0.0000 0.0001
# 5 -0.0001 0.0001 0.0000 0.0000 18.1791 -3.2035
# 6 0.0000 0.0000 0.0000 0.0001 -3.2035 17.1034
#
#
#
# Elastic Compliance Matrix: (Units=1/GPa)
#
#
# Indices 1 2 3 4 5 6 
#
# 1 0.023575 -0.006657 -0.006056 0.005327 0.000000 0.000000
# 2 -0.006657 0.023575 -0.006056 -0.005327 0.000000 0.000000
# 3 -0.006056 -0.006056 0.015644 0.000000 0.000000 0.000000
# 4 0.005327 -0.005327 0.000000 0.056886 0.000000 0.000000
# 5 0.000000 0.000000 0.000000 0.000000 0.056886 0.010655
# 6 0.000000 0.000000 0.000000 0.000000 0.010655 0.060464
#
#
# Mechanical properties :
#
#
# Convention : Reuss Voigt Hill
#
# Bulk Modulus (GPa) = 39.59908 42.07025 40.83467
# Shear Modulus (GPa) = 17.66867 18.51328 18.09097
#
# Velocity S-wave (km/s) = 3.50724 3.59009 3.54891
# Velocity P-wave (km/s) = 6.63094 6.81717 6.72470
#
# Compressibility (1/GPa) = 0.02525311
#
# Stress axis : x y z
#
# Youngs Moduli (GPa) = 42.41857 42.41857 63.92066
#
# Poissons Ratio (x) = 0.28239 0.38714
# Poissons Ratio (y) = 0.28239 0.38714
# Poissons Ratio (z) = 0.25691 0.25691
#
# Static dielectric constant tensor:
#      x y z
#    x 2.703690 0.000000 0.000000 
#    y 0.000000 2.703690 0.000000 
#    z 0.000000 0.000000 3.164230 
# 
# 
# High freq. dielectric constant tensor:
#      x y z
#    x 1.511820 0.000000 0.000000 
#    y 0.000000 1.511820 0.000000 
#    z 0.000000 0.000000 1.576550 
# 
# From -- ./inp_files/5649.got.cif
#   From: 2010.03.12/outbox.cif.g09.slc.cpg/sg167_3_cif.got.tgz:5649.got - 2010.04.02 06:42:56.
