data_PCOD8324603
_publ_section_title
;
Structure prediction by ZEFSAII (Michael W. Deem and Ramdas Pophale) SiO2 
 PCOD8324603
Probable space group: P 61
;
_chemical_formula_sum "Si O2"
_cell_formula_units_Z 48
_cell_length_a 12.399647
_cell_length_b 12.399647
_cell_length_c 16.326861
_cell_angle_alpha 90.000000
_cell_angle_beta 90.000000
_cell_angle_gamma 120.000000
_cell_volume 2173.962109
_symmetry_space_group_name_H-M "P 61"
_symmetry_group_IT_number 169
_symmetry_cell_setting 'hexagonal'
loop_
_space_group_symop_operation_xyz
x,y,z
x-y,x,1/6+z
-y,x-y,1/3+z
-x,-y,1/2+z
-x+y,-x,2/3+z
y,-x+y,5/6+z
loop_
_atom_site_type_symbol
_atom_site_label
_atom_site_fract_x
_atom_site_fract_y
_atom_site_fract_z
Si Si1 0.477575 0.424083 0.444400
Si Si2 0.682970 0.252960 0.922065
Si Si3 0.522356 0.694760 0.677041
Si Si4 0.881818 0.697173 0.543895
Si Si5 0.981426 0.302824 0.474597
Si Si6 0.864882 0.260882 0.046807
Si Si7 0.654820 0.169929 0.329301
Si Si8 0.963114 0.898335 0.766644
O O1 0.526046 0.381761 0.521943
O O2 0.372211 0.309651 0.389943
O O3 0.593177 0.503979 0.384176
O O4 0.417933 0.511190 0.466402
O O5 0.762119 0.383439 0.877596
O O6 0.591017 0.272953 0.982143
O O7 0.758228 0.206207 0.978204
O O8 0.607754 0.657637 0.730902
O O9 0.515419 0.639994 0.588390
O O10 0.570259 0.841451 0.661887
O O11 0.799213 0.613569 0.469249
O O12 0.880977 0.615951 0.619166
O O13 0.835807 0.787628 0.582098
O O14 0.027934 0.769631 0.517566
O O15 0.982153 0.179373 0.450305
O O16 0.980859 0.975571 0.682795
#
# Coordination Sequence:
#
# PCOD8324603 Si02
#       8
#     6   6   6   6   6   6   6   6
#     4  11  25  47  68 106 150 187 245 307 377 463
#     4  12  25  46  72 102 151 201 234 304 390 463
#     4  12  27  43  71 105 143 191 247 307 384 454
#     4  11  24  45  71 106 138 190 248 314 360 448
#     4  12  26  46  71 109 146 187 244 326 370 457
#     4  11  24  44  73 102 148 187 248 308 378 459
#     4  11  26  42  75 105 140 190 251 303 369 461
#     4  12  25  47  77 105 142 191 257 313 380 451
#
# _framework density 22.079499999999999
#
# number of rings (size 3 to 8) (size 9 to 14) (size 15 to 20)
#    0.000    0.500    6.250    1.500    3.500    1.000 
#    2.250    0.000    0.000    0.000    0.000    0.000 
#    0.000    0.000    0.000    0.000    0.000    0.000 
#
# Total GULP energy -594731.824836 kJ/mol
# GULP energy per Si atom -12390.246351 kJ/mol
# Density = 2.202925 g / cm^3
# Si number density = 22.079500 Si / 1000 Ang^3
#
#
#
# Elastic Constant Matrix: (Units=GPa)
#
#
# Indices 1 2 3 4 5 6 
#
# 1 70.6656 16.5286 44.5319 0.0000 0.0000 0.0000
# 2 16.5286 70.6656 44.5319 0.0000 0.0000 0.0000
# 3 44.5319 44.5319 166.0428 0.0000 0.0000 0.0000
# 4 0.0000 0.0000 0.0000 35.7008 0.0000 0.0000
# 5 0.0000 0.0000 0.0000 0.0000 35.7008 0.0000
# 6 0.0000 0.0000 0.0000 0.0000 0.0000 27.0685
#
#
#
# Elastic Compliance Matrix: (Units=1/GPa)
#
#
# Indices 1 2 3 4 5 6 
#
# 1 0.017134 -0.001338 -0.004236 0.000000 0.000000 0.000000
# 2 -0.001338 0.017134 -0.004236 0.000000 0.000000 0.000000
# 3 -0.004236 -0.004236 0.008295 0.000000 0.000000 0.000000
# 4 0.000000 0.000000 0.000000 0.028011 0.000000 0.000000
# 5 0.000000 0.000000 0.000000 0.000000 0.028011 0.000000
# 6 0.000000 0.000000 0.000000 0.000000 0.000000 0.036943
#
#
# Mechanical properties :
#
#
# Convention : Reuss Voigt Hill
#
# Bulk Modulus (GPa) = 43.58983 57.61765 50.60374
# Shear Modulus (GPa) = 30.71345 33.14615 31.92980
#
# Velocity S-wave (km/s) = 3.73371 3.87876 3.80693
# Velocity P-wave (km/s) = 6.19456 6.79793 6.50325
#
# Compressibility (1/GPa) = 0.02294113
#
# Stress axis : x y z
#
# Youngs Moduli (GPa) = 58.36431 58.36431 120.55602
#
# Poissons Ratio (x) = 0.07808 0.51072
# Poissons Ratio (y) = 0.07808 0.51072
# Poissons Ratio (z) = 0.24725 0.24725
#
# Static dielectric constant tensor:
#      x y z
#    x 4.183430 0.000000 0.000000 
#    y 0.000000 4.183430 0.000000 
#    z 0.000000 0.000000 4.261120 
# 
# 
# High freq. dielectric constant tensor:
#      x y z
#    x 1.861250 0.000000 0.000000 
#    y 0.000000 1.861250 0.000000 
#    z 0.000000 0.000000 1.886420 
# 
# From -- ./inp_files/1404.got.cif
#   From: 2010.03.12/outbox.cif.g09.slc.cpg/sg169_cif.got.tgz:1404.got - 2010.04.02 06:46:06.
