data_PCOD8324265
_publ_section_title
;
Structure prediction by ZEFSAII (Michael W. Deem and Ramdas Pophale) SiO2 
 PCOD8324265
Probable space group: R -3 C 
;
_chemical_formula_sum "Si O2"
_cell_formula_units_Z 270
_cell_length_a 26.104892
_cell_length_b 26.104892
_cell_length_c 22.318702
_cell_angle_alpha 90.000000
_cell_angle_beta 90.000000
_cell_angle_gamma 120.000000
_cell_volume 13171.746592
_symmetry_space_group_name_H-M "R -3 C "
_symmetry_group_IT_number 167
_symmetry_cell_setting 'hexagonal'
loop_
_space_group_symop_operation_xyz
x,y,z
-y,x-y,z
-x+y,-x,z
x-y,-y,1/2-z
-x,-x+y,1/2-z
y,x,1/2-z
-x,-y,-z
y,-x+y,-z
x-y,x,-z
-x+y,y,1/2+z
x,x-y,1/2+z
-y,-x,1/2+z
2/3+x,1/3+y,1/3+z
2/3-y,1/3+x-y,1/3+z
2/3-x+y,1/3-x,1/3+z
2/3+x-y,1/3-y,5/6-z
2/3-x,1/3-x+y,5/6-z
2/3+y,1/3+x,5/6-z
2/3-x,1/3-y,1/3-z
2/3+y,1/3-x+y,1/3-z
2/3+x-y,1/3+x,1/3-z
2/3-x+y,1/3+y,5/6+z
2/3+x,1/3+x-y,5/6+z
2/3-y,1/3-x,5/6+z
1/3+x,2/3+y,2/3+z
1/3-y,2/3+x-y,2/3+z
1/3-x+y,2/3-x,2/3+z
1/3+x-y,2/3-y,1/6-z
1/3-x,2/3-x+y,1/6-z
1/3+y,2/3+x,1/6-z
1/3-x,2/3-y,2/3-z
1/3+y,2/3-x+y,2/3-z
1/3+x-y,2/3+x,2/3-z
1/3-x+y,2/3+y,1/6+z
1/3+x,2/3+x-y,1/6+z
1/3-y,2/3-x,1/6+z
loop_
_atom_site_type_symbol
_atom_site_label
_atom_site_fract_x
_atom_site_fract_y
_atom_site_fract_z
Si Si1 0.716152 0.049486 0.916667
Si Si2 0.420662 0.916761 0.428891
Si Si3 0.407934 0.172702 0.372984
Si Si4 0.683786 0.881550 0.416085
Si Si5 0.515457 0.604241 0.295517
Si Si6 0.281934 0.977873 0.836021
Si Si7 0.855324 0.390840 0.960989
Si Si8 0.415215 0.798313 0.150452
O O1 0.721261 0.113854 0.910449
O O2 0.687706 0.009784 0.857789
O O3 0.414894 0.898498 0.359886
O O4 0.380160 0.944413 0.450899
O O5 0.398766 0.854942 0.466917
O O6 0.487982 0.964203 0.442140
O O7 0.357997 0.146837 0.320927
O O8 0.398812 0.218470 0.413785
O O9 0.474534 0.202967 0.348674
O O10 0.671222 0.933425 0.393161
O O11 0.744398 0.892375 0.386929
O O12 0.584757 0.625735 0.305768
O O13 0.509982 0.659887 0.272823
O O14 0.810648 0.402003 0.920341
O O15 0.437503 0.751612 0.152030
#
# Coordination Sequence:
#
# PCOD8324265 Si02
#       8
#    18  36  36  36  36  36  36  36
#     4  12  24  40  58  98 134 172 230 274 334 388
#     4  10  17  33  62  95 115 167 212 254 313 389
#     4  11  24  39  58  95 138 173 214 278 329 403
#     4   9  20  35  57  89 128 167 211 258 325 389
#     4  10  18  38  61  84 124 170 214 257 323 389
#     4  10  20  40  60  87 125 172 218 271 315 399
#     4   9  18  35  60  88 120 156 211 255 313 395
#     4  11  23  43  67  95 127 165 217 279 348 406
#
# _framework density 20.498421
#
# number of rings (size 3 to 8) (size 9 to 14) (size 15 to 20)
#    0.000    2.133    2.667    3.733    0.000    3.733 
#    2.400    2.667    0.000    2.400    0.000    0.000 
#    0.000    0.000    0.000    0.000    0.000    0.000 
#
# Total GULP energy -1115050.013158 kJ/mol
# GULP energy per Si atom -12389.444591 kJ/mol
# Density = 2.045177 g / cm^3
# Si number density = 20.498421 Si / 1000 Ang^3
#
#
#
# Elastic Constant Matrix: (Units=GPa)
#
#
# Indices 1 2 3 4 5 6 
#
# 1 94.9296 40.7709 48.6999 -2.2625 0.0001 0.0000
# 2 40.7709 94.9296 48.6999 2.2625 -0.0001 0.0000
# 3 48.6999 48.6999 125.4926 0.0000 0.0000 0.0000
# 4 -2.2625 2.2625 0.0000 33.6667 0.0000 -0.0001
# 5 0.0001 -0.0001 0.0000 0.0000 33.6667 -2.2625
# 6 0.0000 0.0000 0.0000 -0.0001 -2.2625 27.0794
#
#
#
# Elastic Compliance Matrix: (Units=1/GPa)
#
#
# Indices 1 2 3 4 5 6 
#
# 1 0.014391 -0.004177 -0.003964 0.001248 0.000000 0.000000
# 2 -0.004177 0.014391 -0.003964 -0.001248 0.000000 0.000000
# 3 -0.003964 -0.003964 0.011045 0.000000 0.000000 0.000000
# 4 0.001248 -0.001248 0.000000 0.029871 0.000000 0.000000
# 5 0.000000 0.000000 0.000000 0.000000 0.029871 0.002496
# 6 0.000000 0.000000 0.000000 0.000000 0.002496 0.037137
#
#
# Mechanical properties :
#
#
# Convention : Reuss Voigt Hill
#
# Bulk Modulus (GPa) = 64.02782 65.74369 64.88576
# Shear Modulus (GPa) = 30.09839 30.69463 30.39651
#
# Velocity S-wave (km/s) = 3.83603 3.87384 3.85498
# Velocity P-wave (km/s) = 7.13607 7.22157 7.17895
#
# Compressibility (1/GPa) = 0.01561821
#
# Stress axis : x y z
#
# Youngs Moduli (GPa) = 69.48611 69.48611 90.53803
#
# Poissons Ratio (x) = 0.29025 0.35888
# Poissons Ratio (y) = 0.29025 0.35888
# Poissons Ratio (z) = 0.27543 0.27543
#
# Static dielectric constant tensor:
#      x y z
#    x 3.543360 0.000000 0.000000 
#    y 0.000000 3.543360 0.000000 
#    z 0.000000 0.000000 4.256130 
# 
# 
# High freq. dielectric constant tensor:
#      x y z
#    x 1.776930 0.000000 0.000000 
#    y 0.000000 1.776930 0.000000 
#    z 0.000000 0.000000 1.821220 
# 
# From -- ./inp_files/5681.got.cif
#   From: 2010.03.12/outbox.cif.g09.slc.cpg/sg167_3_cif.got.tgz:5681.got - 2010.04.02 06:42:56.
