data_PCOD8324895
_publ_section_title
;
Structure prediction by ZEFSAII (Michael W. Deem and Ramdas Pophale) SiO2 
 PCOD8324895
Probable space group: P 63
;
_chemical_formula_sum "Si O2"
_cell_formula_units_Z 48
_cell_length_a 15.088835
_cell_length_b 15.088835
_cell_length_c 14.017002
_cell_angle_alpha 90.000000
_cell_angle_beta 90.000000
_cell_angle_gamma 120.000000
_cell_volume 2763.740011
_symmetry_space_group_name_H-M "P 63"
_symmetry_group_IT_number 173
_symmetry_cell_setting 'hexagonal'
loop_
_space_group_symop_operation_xyz
x,y,z
x-y,x,1/2+z
-y,x-y,z
-x,-y,1/2+z
-x+y,-x,z
y,-x+y,1/2+z
loop_
_atom_site_type_symbol
_atom_site_label
_atom_site_fract_x
_atom_site_fract_y
_atom_site_fract_z
Si Si1 0.614160 0.769333 0.560230
Si Si2 0.068828 0.661749 0.874648
Si Si3 0.208876 0.185351 0.400694
Si Si4 0.791124 0.814649 0.433154
Si Si5 0.541938 0.997508 0.274827
Si Si6 0.844827 0.614160 0.273618
Si Si7 0.931172 0.338251 0.959200
Si Si8 0.455571 0.458062 0.059021
O O1 0.731765 0.806258 0.531467
O O2 0.617673 0.808614 0.666924
O O3 0.562743 0.817518 0.492516
O O4 0.542350 0.647478 0.552729
O O5 0.017292 0.566866 0.802506
O O6 0.182482 0.745225 0.841332
O O7 0.998142 0.714393 0.869801
O O8 0.079266 0.627568 0.982167
O O9 0.103471 0.184669 0.378150
O O10 0.268235 0.193742 0.302381
O O11 0.285607 0.283749 0.464047
O O12 0.184669 0.081198 0.455698
O O13 0.647478 0.105128 0.281119
O O14 0.525093 0.952374 0.166924
O O15 0.548302 0.920734 0.351680
O O16 0.982708 0.433134 0.031341
#
# Coordination Sequence:
#
# PCOD8324895 Si02
#       8
#     6   6   6   6   6   6   6   6
#     4   9  17  30  47  69  99 128 161 205 248 295
#     4   9  17  30  49  70  98 131 166 201 254 298
#     4   9  17  30  48  69  98 132 167 200 246 293
#     4   9  17  30  48  69  98 132 167 200 246 293
#     4   9  17  30  49  72  98 129 167 206 249 299
#     4   9  17  30  47  69  99 128 161 205 248 295
#     4   9  17  30  49  70  98 131 166 201 254 298
#     4   9  17  30  49  72  98 129 167 206 249 299
#
# _framework density 17.367768999999999
#
# number of rings (size 3 to 8) (size 9 to 14) (size 15 to 20)
#    0.000    3.000    0.000    1.000    0.000    0.000 
#    1.500    6.250    0.000   42.000    0.000    0.000 
#    0.000    0.000    0.000    0.000    0.000    0.000 
#
# Total GULP energy -594853.310827 kJ/mol
# GULP energy per Si atom -12392.777309 kJ/mol
# Density = 1.732824 g / cm^3
# Si number density = 17.367769 Si / 1000 Ang^3
#
#
#
# Elastic Constant Matrix: (Units=GPa)
#
#
# Indices 1 2 3 4 5 6 
#
# 1 93.8528 46.2889 42.8686 0.0000 0.0000 0.0000
# 2 46.2889 93.8528 42.8686 0.0000 0.0000 0.0000
# 3 42.8686 42.8686 125.9481 0.0000 0.0000 0.0000
# 4 0.0000 0.0000 0.0000 20.4094 0.0000 0.0000
# 5 0.0000 0.0000 0.0000 0.0000 20.4094 0.0000
# 6 0.0000 0.0000 0.0000 0.0000 0.0000 23.7820
#
#
#
# Elastic Compliance Matrix: (Units=1/GPa)
#
#
# Indices 1 2 3 4 5 6 
#
# 1 0.015018 -0.006006 -0.003067 0.000000 0.000000 0.000000
# 2 -0.006006 0.015018 -0.003067 0.000000 0.000000 0.000000
# 3 -0.003067 -0.003067 0.010028 0.000000 0.000000 0.000000
# 4 0.000000 0.000000 0.000000 0.048997 0.000000 0.000000
# 5 0.000000 0.000000 0.000000 0.000000 0.048997 0.000000
# 6 0.000000 0.000000 0.000000 0.000000 0.000000 0.042049
#
#
# Mechanical properties :
#
#
# Convention : Reuss Voigt Hill
#
# Bulk Modulus (GPa) = 63.36109 64.18953 63.77531
# Shear Modulus (GPa) = 23.84926 25.02866 24.43896
#
# Velocity S-wave (km/s) = 3.70968 3.80030 3.75526
# Velocity P-wave (km/s) = 7.41014 7.50304 7.45673
#
# Compressibility (1/GPa) = 0.01578256
#
# Stress axis : x y z
#
# Youngs Moduli (GPa) = 66.58537 66.58537 99.72150
#
# Poissons Ratio (x) = 0.39991 0.30589
# Poissons Ratio (y) = 0.39991 0.30589
# Poissons Ratio (z) = 0.20425 0.20425
#
# Static dielectric constant tensor:
#      x y z
#    x 3.256150 0.000000 0.000000 
#    y 0.000000 3.256150 0.000000 
#    z 0.000000 0.000000 3.290930 
# 
# 
# High freq. dielectric constant tensor:
#      x y z
#    x 1.662580 0.000000 0.000000 
#    y 0.000000 1.662580 0.000000 
#    z 0.000000 0.000000 1.660320 
# 
# From -- ./inp_files/1157.got.cif
#   From: 2010.03.12/outbox.cif.g09.slc.cpg/sg173_cif.got.tgz:1157.got - 2010.04.02 06:54:12.
