data_PCOD8324243
_publ_section_title
;
Structure prediction by ZEFSAII (Michael W. Deem and Ramdas Pophale) SiO2 
 PCOD8324243
Probable space group: R -3 M
;
_chemical_formula_sum "Si O2"
_cell_formula_units_Z 216
_cell_length_a 23.259882
_cell_length_b 23.259882
_cell_length_c 23.918384
_cell_angle_alpha 90.000000
_cell_angle_beta 90.000000
_cell_angle_gamma 120.000000
_cell_volume 11206.693134
_symmetry_space_group_name_H-M "R -3 M"
_symmetry_group_IT_number 166
_symmetry_cell_setting 'hexagonal'
loop_
_space_group_symop_operation_xyz
x,y,z
-y,x-y,z
-x+y,-x,z
x-y,-y,-z
-x,-x+y,-z
y,x,-z
-x,-y,-z
y,-x+y,-z
x-y,x,-z
-x+y,y,z
x,x-y,z
-y,-x,z
2/3+x,1/3+y,1/3+z
2/3-y,1/3+x-y,1/3+z
2/3-x+y,1/3-x,1/3+z
2/3+x-y,1/3-y,1/3-z
2/3-x,1/3-x+y,1/3-z
2/3+y,1/3+x,1/3-z
2/3-x,1/3-y,1/3-z
2/3+y,1/3-x+y,1/3-z
2/3+x-y,1/3+x,1/3-z
2/3-x+y,1/3+y,1/3+z
2/3+x,1/3+x-y,1/3+z
2/3-y,1/3-x,1/3+z
1/3+x,2/3+y,2/3+z
1/3-y,2/3+x-y,2/3+z
1/3-x+y,2/3-x,2/3+z
1/3+x-y,2/3-y,2/3-z
1/3-x,2/3-x+y,2/3-z
1/3+y,2/3+x,2/3-z
1/3-x,2/3-y,2/3-z
1/3+y,2/3-x+y,2/3-z
1/3+x-y,2/3+x,2/3-z
1/3-x+y,2/3+y,2/3+z
1/3+x,2/3+x-y,2/3+z
1/3-y,2/3-x,2/3+z
loop_
_atom_site_type_symbol
_atom_site_label
_atom_site_fract_x
_atom_site_fract_y
_atom_site_fract_z
Si Si1 0.697013 0.058484 0.276137
Si Si2 0.146943 0.853058 0.919804
Si Si3 0.550742 0.449259 0.526985
Si Si4 0.548420 0.893513 0.902304
Si Si5 0.783086 0.824778 0.551778
Si Si6 0.121722 0.753587 0.534858
Si Si7 0.139142 0.408564 0.315364
O O1 0.666667 0.019172 0.333334
O O2 0.754748 0.132873 0.292025
O O3 0.727217 0.021882 0.240669
O O4 0.644476 0.066910 0.239496
O O5 0.181627 0.818374 0.888149
O O6 0.118071 0.881930 0.873392
O O7 0.513220 0.372884 0.546438
O O8 0.527124 0.932095 0.859484
O O9 0.511047 0.882644 0.961062
O O10 0.831484 0.831484 0.500000
O O11 0.798918 0.899459 0.570276
O O12 0.709864 0.783058 0.526716
O O13 0.785401 0.780360 0.603426
O O14 0.190538 0.809463 0.562700
O O15 0.204237 0.408474 0.292421
O O16 0.082319 0.333334 0.333334
#
# Coordination Sequence:
#
# PCOD8324243 Si02
#       7
#    36  18  18  36  36  36  36
#     4  11  21  33  53  77 114 147 179 221 272 334
#     4   9  18  34  50  76 106 142 181 211 264 333
#     4   9  18  32  54  78 104 141 181 218 265 335
#     4  11  20  35  56  80 110 147 182 224 278 334
#     4  11  23  39  60  86 117 156 197 239 291 348
#     4  11  22  34  53  82 114 147 186 230 279 337
#     4  11  23  39  60  87 117 151 194 242 294 347
#
# _framework density 19.274197000000001
#
# number of rings (size 3 to 8) (size 9 to 14) (size 15 to 20)
#    0.000    1.333    1.667    6.000    2.333    2.667 
#    0.000    0.000    0.000    3.000    0.000    0.000 
#    9.167    0.667    0.000    0.000    0.000    0.000 
#
# Total GULP energy -892365.087661 kJ/mol
# GULP energy per Si atom -12393.959551 kJ/mol
# Density = 1.923033 g / cm^3
# Si number density = 19.274197 Si / 1000 Ang^3
#
#
#
# Elastic Constant Matrix: (Units=GPa)
#
#
# Indices 1 2 3 4 5 6 
#
# 1 90.0232 47.9284 21.1373 -1.1243 -0.0001 0.0000
# 2 47.9284 90.0232 21.1373 1.1243 0.0001 0.0000
# 3 21.1373 21.1373 70.8910 0.0000 0.0000 0.0000
# 4 -1.1243 1.1243 0.0000 25.4406 0.0000 0.0001
# 5 -0.0001 0.0001 0.0000 0.0000 25.4406 -1.1243
# 6 0.0000 0.0000 0.0000 0.0001 -1.1243 21.0474
#
#
#
# Elastic Compliance Matrix: (Units=1/GPa)
#
#
# Indices 1 2 3 4 5 6 
#
# 1 0.015895 -0.007917 -0.002379 0.001052 0.000000 0.000000
# 2 -0.007917 0.015895 -0.002379 -0.001052 0.000000 0.000000
# 3 -0.002379 -0.002379 0.015525 0.000000 0.000000 0.000000
# 4 0.001052 -0.001052 0.000000 0.039400 0.000000 0.000000
# 5 0.000000 0.000000 0.000000 0.000000 0.039400 0.002105
# 6 0.000000 0.000000 0.000000 0.000000 0.002105 0.047624
#
#
# Mechanical properties :
#
#
# Convention : Reuss Voigt Hill
#
# Bulk Modulus (GPa) = 45.52597 47.92705 46.72651
# Shear Modulus (GPa) = 24.22359 25.10134 24.66247
#
# Velocity S-wave (km/s) = 3.54897 3.61269 3.58097
# Velocity P-wave (km/s) = 6.36121 6.50553 6.43378
#
# Compressibility (1/GPa) = 0.02196549
#
# Stress axis : x y z
#
# Youngs Moduli (GPa) = 62.91291 62.91291 64.41354
#
# Poissons Ratio (x) = 0.49809 0.15322
# Poissons Ratio (y) = 0.49809 0.15322
# Poissons Ratio (z) = 0.14965 0.14965
#
# Static dielectric constant tensor:
#      x y z
#    x 3.612960 0.000000 0.000000 
#    y 0.000000 3.612960 0.000000 
#    z 0.000000 0.000000 3.539240 
# 
# 
# High freq. dielectric constant tensor:
#      x y z
#    x 1.733980 0.000000 0.000000 
#    y 0.000000 1.733980 0.000000 
#    z 0.000000 0.000000 1.751290 
# 
# From -- ./inp_files/8514.got.cif
#   From: 2010.03.12/outbox.cif.g09.slc.cpg/sg166_5_cif.got.tgz:8514.got - 2010.04.02 06:38:31.
