data_PCOD8324339
_publ_section_title
;
Structure prediction by ZEFSAII (Michael W. Deem and Ramdas Pophale) SiO2 
 PCOD8324339
Probable space group: R -3 C 
;
_chemical_formula_sum "Si O2"
_cell_formula_units_Z 144
_cell_length_a 21.623150
_cell_length_b 21.623150
_cell_length_c 19.668001
_cell_angle_alpha 90.000000
_cell_angle_beta 90.000000
_cell_angle_gamma 120.000000
_cell_volume 7963.954598
_symmetry_space_group_name_H-M "R -3 C "
_symmetry_group_IT_number 167
_symmetry_cell_setting 'hexagonal'
loop_
_space_group_symop_operation_xyz
x,y,z
-y,x-y,z
-x+y,-x,z
x-y,-y,1/2-z
-x,-x+y,1/2-z
y,x,1/2-z
-x,-y,-z
y,-x+y,-z
x-y,x,-z
-x+y,y,1/2+z
x,x-y,1/2+z
-y,-x,1/2+z
2/3+x,1/3+y,1/3+z
2/3-y,1/3+x-y,1/3+z
2/3-x+y,1/3-x,1/3+z
2/3+x-y,1/3-y,5/6-z
2/3-x,1/3-x+y,5/6-z
2/3+y,1/3+x,5/6-z
2/3-x,1/3-y,1/3-z
2/3+y,1/3-x+y,1/3-z
2/3+x-y,1/3+x,1/3-z
2/3-x+y,1/3+y,5/6+z
2/3+x,1/3+x-y,5/6+z
2/3-y,1/3-x,5/6+z
1/3+x,2/3+y,2/3+z
1/3-y,2/3+x-y,2/3+z
1/3-x+y,2/3-x,2/3+z
1/3+x-y,2/3-y,1/6-z
1/3-x,2/3-x+y,1/6-z
1/3+y,2/3+x,1/6-z
1/3-x,2/3-y,2/3-z
1/3+y,2/3-x+y,2/3-z
1/3+x-y,2/3+x,2/3-z
1/3-x+y,2/3+y,1/6+z
1/3+x,2/3+x-y,1/6+z
1/3-y,2/3-x,1/6+z
loop_
_atom_site_type_symbol
_atom_site_label
_atom_site_fract_x
_atom_site_fract_y
_atom_site_fract_z
Si Si1 0.190081 0.528681 0.244867
Si Si2 0.994721 0.138776 0.075656
Si Si3 0.256176 0.203384 0.187938
Si Si4 0.392290 0.472355 0.474720
O O1 0.163870 0.502920 0.168064
O O2 0.272989 0.551648 0.250707
O O3 0.181263 0.595377 0.265279
O O4 0.141377 0.465704 0.295428
O O5 0.973534 0.185560 0.121988
O O6 0.242816 0.242816 0.250000
O O7 0.332805 0.254560 0.154973
O O8 0.248834 0.128854 0.213429
O O9 0.333334 0.448433 0.416667
#
# Coordination Sequence:
#
# PCOD8324339 Si02
#       4
#    36  36  36  36
#     4   9  17  31  53  80 106 130 159 200 252 306
#     4   9  17  31  53  80 106 130 159 200 252 306
#     4  10  21  36  53  74 101 134 171 209 249 294
#     4  10  21  36  53  74 101 134 171 209 249 294
#
# _framework density 18.081469999999999
#
# number of rings (size 3 to 8) (size 9 to 14) (size 15 to 20)
#    0.000    2.500    0.000    2.000    0.000    4.000 
#    0.000    0.000    0.000   23.000    0.000    0.000 
#    0.000    0.000    0.000    0.000    0.000    0.000 
#
# Total GULP energy -595272.244229 kJ/mol
# GULP energy per Si atom -12401.505088 kJ/mol
# Density = 1.804032 g / cm^3
# Si number density = 18.081470 Si / 1000 Ang^3
#
#
#
# Elastic Constant Matrix: (Units=GPa)
#
#
# Indices 1 2 3 4 5 6 
#
# 1 62.6194 9.7086 17.5481 3.6584 0.0008 0.0000
# 2 9.7086 62.6194 17.5481 -3.6584 -0.0008 0.0000
# 3 17.5481 17.5481 63.2751 0.0000 0.0000 0.0000
# 4 3.6584 -3.6584 0.0000 23.6605 0.0000 -0.0008
# 5 0.0008 -0.0008 0.0000 0.0000 23.6605 3.6584
# 6 0.0000 0.0000 0.0000 -0.0008 3.6584 26.4554
#
#
#
# Elastic Compliance Matrix: (Units=1/GPa)
#
#
# Indices 1 2 3 4 5 6 
#
# 1 0.017644 -0.001668 -0.004431 -0.002986 -0.000001 0.000000
# 2 -0.001668 0.017644 -0.004431 0.002986 0.000001 0.000000
# 3 -0.004431 -0.004431 0.018261 0.000000 0.000000 0.000000
# 4 -0.002986 0.002986 0.000000 0.043188 0.000000 0.000001
# 5 -0.000001 0.000001 0.000000 0.000000 0.043188 -0.005972
# 6 0.000000 0.000000 0.000000 0.000001 -0.005972 0.038625
#
#
# Mechanical properties :
#
#
# Convention : Reuss Voigt Hill
#
# Bulk Modulus (GPa) = 30.77799 30.90261 30.84030
# Shear Modulus (GPa) = 23.75970 24.33591 24.04780
#
# Velocity S-wave (km/s) = 3.62890 3.67264 3.65083
# Velocity P-wave (km/s) = 5.88365 5.92555 5.90464
#
# Compressibility (1/GPa) = 0.03249076
#
# Stress axis : x y z
#
# Youngs Moduli (GPa) = 56.67582 56.67582 54.76017
#
# Poissons Ratio (x) = 0.09456 0.24262
# Poissons Ratio (y) = 0.09456 0.24262
# Poissons Ratio (z) = 0.25111 0.25111
#
# Static dielectric constant tensor:
#      x y z
#    x 3.297520 0.000000 0.000000 
#    y 0.000000 3.297520 0.000000 
#    z 0.000000 0.000000 3.416930 
# 
# 
# High freq. dielectric constant tensor:
#      x y z
#    x 1.698670 0.000000 0.000000 
#    y 0.000000 1.698670 0.000000 
#    z 0.000000 0.000000 1.704160 
# 
# From -- ./inp_files/3264.got.cif
#   From: 2010.03.12/outbox.cif.g09.slc.cpg/sg167_2_cif.got.tgz:3264.got - 2010.04.02 06:42:56.
