data_PCOD8324865
_publ_section_title
;
Structure prediction by ZEFSAII (Michael W. Deem and Ramdas Pophale) SiO2 
 PCOD8324865
Probable space group: P 63
;
_chemical_formula_sum "Si O2"
_cell_formula_units_Z 42
_cell_length_a 8.601156
_cell_length_b 8.601156
_cell_length_c 31.621103
_cell_angle_alpha 90.000000
_cell_angle_beta 90.000000
_cell_angle_gamma 120.000000
_cell_volume 2025.915353
_symmetry_space_group_name_H-M "P 63"
_symmetry_group_IT_number 173
_symmetry_cell_setting 'hexagonal'
loop_
_space_group_symop_operation_xyz
x,y,z
x-y,x,1/2+z
-y,x-y,z
-x,-y,1/2+z
-x+y,-x,z
y,-x+y,1/2+z
loop_
_atom_site_type_symbol
_atom_site_label
_atom_site_fract_x
_atom_site_fract_y
_atom_site_fract_z
Si Si1 0.437387 0.200960 0.309400
Si Si2 0.669772 0.978885 0.723654
Si Si3 0.992363 0.340143 0.691626
Si Si4 0.320115 0.322917 0.560706
Si Si5 0.161627 0.450051 0.976440
Si Si6 0.007635 0.655656 0.093946
Si Si7 0.136540 0.910046 0.894959
O O1 0.580858 0.130056 0.309193
O O2 0.311835 0.098933 0.269072
O O3 0.312612 0.159109 0.349425
O O4 0.702160 0.856583 0.690510
O O5 0.816314 0.183800 0.714480
O O6 0.472098 0.951845 0.717984
O O7 0.968867 0.373130 0.643045
O O8 0.302983 0.275740 0.510333
O O9 0.395655 0.204195 0.581178
O O10 0.469018 0.528361 0.569580
O O11 0.131950 0.278215 0.581243
O O12 0.373558 0.513627 0.982545
O O13 0.120998 0.375409 0.929165
O O14 0.919590 0.797508 0.900043
#
# Coordination Sequence:
#
# PCOD8324865 Si02
#       7
#     6   6   6   6   6   6   6
#     4  10  21  44  68  93 132 181 220 264 350 407
#     4  12  25  43  67  99 133 185 230 288 349 416
#     4  12  24  42  64  95 135 178 232 286 345 406
#     4  12  25  43  67  99 133 185 230 288 349 416
#     4  10  21  44  68  93 132 181 220 264 350 407
#     4  12  24  42  64  95 135 178 232 286 345 406
#     4  10  24  36  68 106 126 166 218 280 324 414
#
# _framework density 20.731369999999998
#
# number of rings (size 3 to 8) (size 9 to 14) (size 15 to 20)
#    0.857    0.000    2.857    5.143    4.000    0.000 
#    0.000    0.000    0.000    4.571    0.000    0.000 
#    0.000    0.000    0.000    0.000    0.000    0.000 
#
# Total GULP energy -520435.369989 kJ/mol
# GULP energy per Si atom -12391.318333 kJ/mol
# Density = 2.068418 g / cm^3
# Si number density = 20.731370 Si / 1000 Ang^3
#
#
#
# Elastic Constant Matrix: (Units=GPa)
#
#
# Indices 1 2 3 4 5 6 
#
# 1 73.6983 9.1940 16.1233 0.0000 0.0000 0.0000
# 2 9.1940 73.6983 16.1233 0.0000 0.0000 0.0000
# 3 16.1233 16.1233 110.0239 0.0000 0.0000 0.0000
# 4 0.0000 0.0000 0.0000 31.2362 0.0000 0.0000
# 5 0.0000 0.0000 0.0000 0.0000 31.2362 0.0000
# 6 0.0000 0.0000 0.0000 0.0000 0.0000 32.2521
#
#
#
# Elastic Compliance Matrix: (Units=1/GPa)
#
#
# Indices 1 2 3 4 5 6 
#
# 1 0.014148 -0.001355 -0.001875 0.000000 0.000000 0.000000
# 2 -0.001355 0.014148 -0.001875 0.000000 0.000000 0.000000
# 3 -0.001875 -0.001875 0.009638 0.000000 0.000000 0.000000
# 4 0.000000 0.000000 0.000000 0.032014 0.000000 0.000000
# 5 0.000000 0.000000 0.000000 0.000000 0.032014 0.000000
# 6 0.000000 0.000000 0.000000 0.000000 0.000000 0.031006
#
#
# Mechanical properties :
#
#
# Convention : Reuss Voigt Hill
#
# Bulk Modulus (GPa) = 36.06762 37.81129 36.93945
# Shear Modulus (GPa) = 32.80429 33.34355 33.07392
#
# Velocity S-wave (km/s) = 3.98219 4.01479 3.99852
# Velocity P-wave (km/s) = 6.21121 6.30632 6.25895
#
# Compressibility (1/GPa) = 0.02772570
#
# Stress axis : x y z
#
# Youngs Moduli (GPa) = 70.68136 70.68136 103.75163
#
# Poissons Ratio (x) = 0.09576 0.19451
# Poissons Ratio (y) = 0.09576 0.19451
# Poissons Ratio (z) = 0.13251 0.13251
#
# Static dielectric constant tensor:
#      x y z
#    x 3.600980 0.000000 0.000000 
#    y 0.000000 3.600980 0.000000 
#    z 0.000000 0.000000 3.759640 
# 
# 
# High freq. dielectric constant tensor:
#      x y z
#    x 1.804390 0.000000 0.000000 
#    y 0.000000 1.804390 0.000000 
#    z 0.000000 0.000000 1.821460 
# 
# From -- ./inp_files/1518.got.cif
#   From: 2010.03.12/outbox.cif.g09.slc.cpg/sg173_cif.got.tgz:1518.got - 2010.04.02 06:54:12.
