data_PCOD8324657
_publ_section_title
;
Structure prediction by ZEFSAII (Michael W. Deem and Ramdas Pophale) SiO2 
 PCOD8324657
Probable space group: P 65
;
_chemical_formula_sum "Si O2"
_cell_formula_units_Z 48
_cell_length_a 17.487809
_cell_length_b 17.487809
_cell_length_c 9.194478
_cell_angle_alpha 90.000000
_cell_angle_beta 90.000000
_cell_angle_gamma 120.000000
_cell_volume 2435.165668
_symmetry_space_group_name_H-M "P 65"
_symmetry_group_IT_number 170
_symmetry_cell_setting 'hexagonal'
loop_
_space_group_symop_operation_xyz
x,y,z
x-y,x,5/6+z
-y,x-y,2/3+z
-x,-y,1/2+z
-x+y,-x,1/3+z
y,-x+y,1/6+z
loop_
_atom_site_type_symbol
_atom_site_label
_atom_site_fract_x
_atom_site_fract_y
_atom_site_fract_z
Si Si1 0.691186 0.692332 0.424080
Si Si2 0.933144 0.399879 0.268984
Si Si3 0.707797 0.845811 0.911902
Si Si4 0.683722 0.696136 0.733158
Si Si5 0.216451 0.436183 0.495708
Si Si6 0.062688 0.463454 0.536960
Si Si7 0.686603 0.860245 0.417216
Si Si8 0.992536 0.144679 0.421332
O O1 0.638850 0.651976 0.577273
O O2 0.629198 0.652379 0.285173
O O3 0.728486 0.797705 0.443916
O O4 0.771375 0.671839 0.400274
O O5 0.982972 0.353940 0.198074
O O6 0.831070 0.322932 0.301905
O O7 0.927816 0.464448 0.152768
O O8 0.993143 0.452103 0.409535
O O9 0.668056 0.776990 0.777037
O O10 0.728925 0.942465 0.866361
O O11 0.645000 0.814831 0.051938
O O12 0.798228 0.848209 0.952369
O O13 0.162164 0.489830 0.480072
O O14 0.207674 0.404058 0.662290
O O15 0.750920 0.946819 0.324026
O O16 0.048610 0.129310 0.540316
#
# Coordination Sequence:
#
# PCOD8324657 Si02
#       8
#     6   6   6   6   6   6   6   6
#     4  11  22  36  56  88 121 155 203 258 309 360
#     4  11  22  40  68  94 123 159 208 256 314 384
#     4  11  19  34  58  79 115 157 201 252 297 361
#     4  11  22  36  56  88 121 155 203 258 309 360
#     4  10  20  38  66  90 116 158 200 248 312 380
#     4  11  22  40  68  94 123 159 208 256 314 384
#     4  11  19  34  58  79 115 157 201 252 297 361
#     4  12  20  34  48  72 106 156 210 244 294 340
#
# _framework density 19.711186000000001
#
# number of rings (size 3 to 8) (size 9 to 14) (size 15 to 20)
#    0.000    1.000    6.250    3.000    0.000    0.000 
#    2.250    0.000    2.750    0.000    0.000    0.000 
#    0.000    0.000    0.000    0.000    0.000    0.000 
#
# Total GULP energy -594759.799795 kJ/mol
# GULP energy per Si atom -12390.829162 kJ/mol
# Density = 1.966632 g / cm^3
# Si number density = 19.711186 Si / 1000 Ang^3
#
#
#
# Elastic Constant Matrix: (Units=GPa)
#
#
# Indices 1 2 3 4 5 6 
#
# 1 75.7815 38.7006 24.3637 0.0000 0.0000 0.0000
# 2 38.7006 75.7815 24.3637 0.0000 0.0000 0.0000
# 3 24.3637 24.3637 97.2853 0.0000 0.0000 0.0000
# 4 0.0000 0.0000 0.0000 32.3751 0.0000 0.0000
# 5 0.0000 0.0000 0.0000 0.0000 32.3751 0.0000
# 6 0.0000 0.0000 0.0000 0.0000 0.0000 18.5405
#
#
#
# Elastic Compliance Matrix: (Units=1/GPa)
#
#
# Indices 1 2 3 4 5 6 
#
# 1 0.018373 -0.008595 -0.002449 0.000000 0.000000 0.000000
# 2 -0.008595 0.018373 -0.002449 0.000000 0.000000 0.000000
# 3 -0.002449 -0.002449 0.011505 0.000000 0.000000 0.000000
# 4 0.000000 0.000000 0.000000 0.030888 0.000000 0.000000
# 5 0.000000 0.000000 0.000000 0.000000 0.030888 0.000000
# 6 0.000000 0.000000 0.000000 0.000000 0.000000 0.053936
#
#
# Mechanical properties :
#
#
# Convention : Reuss Voigt Hill
#
# Bulk Modulus (GPa) = 47.02429 47.07823 47.05126
# Shear Modulus (GPa) = 25.24793 27.41951 26.33372
#
# Velocity S-wave (km/s) = 3.58284 3.73374 3.65907
# Velocity P-wave (km/s) = 6.40501 6.52102 6.46327
#
# Compressibility (1/GPa) = 0.02126561
#
# Stress axis : x y z
#
# Youngs Moduli (GPa) = 54.42890 54.42890 86.91532
#
# Poissons Ratio (x) = 0.46784 0.21282
# Poissons Ratio (y) = 0.46784 0.21282
# Poissons Ratio (z) = 0.13327 0.13327
#
# Static dielectric constant tensor:
#      x y z
#    x 3.532870 0.000000 0.000000 
#    y 0.000000 3.532870 0.000000 
#    z 0.000000 0.000000 3.779160 
# 
# 
# High freq. dielectric constant tensor:
#      x y z
#    x 1.747440 0.000000 0.000000 
#    y 0.000000 1.747440 0.000000 
#    z 0.000000 0.000000 1.783150 
# 
# From -- ./inp_files/744.got.cif
#   From: 2010.03.12/outbox.cif.g09.slc.cpg/sg170_cif.got.tgz:744.got - 2010.04.02 06:47:37.
