data_PCOD8324336
_publ_section_title
;
Structure prediction by ZEFSAII (Michael W. Deem and Ramdas Pophale) SiO2 
 PCOD8324336
Probable space group: R -3 C 
;
_chemical_formula_sum "Si O2"
_cell_formula_units_Z 270
_cell_length_a 23.615381
_cell_length_b 23.615381
_cell_length_c 31.428833
_cell_angle_alpha 90.000000
_cell_angle_beta 90.000000
_cell_angle_gamma 120.000000
_cell_volume 15179.197104
_symmetry_space_group_name_H-M "R -3 C "
_symmetry_group_IT_number 167
_symmetry_cell_setting 'hexagonal'
loop_
_space_group_symop_operation_xyz
x,y,z
-y,x-y,z
-x+y,-x,z
x-y,-y,1/2-z
-x,-x+y,1/2-z
y,x,1/2-z
-x,-y,-z
y,-x+y,-z
x-y,x,-z
-x+y,y,1/2+z
x,x-y,1/2+z
-y,-x,1/2+z
2/3+x,1/3+y,1/3+z
2/3-y,1/3+x-y,1/3+z
2/3-x+y,1/3-x,1/3+z
2/3+x-y,1/3-y,5/6-z
2/3-x,1/3-x+y,5/6-z
2/3+y,1/3+x,5/6-z
2/3-x,1/3-y,1/3-z
2/3+y,1/3-x+y,1/3-z
2/3+x-y,1/3+x,1/3-z
2/3-x+y,1/3+y,5/6+z
2/3+x,1/3+x-y,5/6+z
2/3-y,1/3-x,5/6+z
1/3+x,2/3+y,2/3+z
1/3-y,2/3+x-y,2/3+z
1/3-x+y,2/3-x,2/3+z
1/3+x-y,2/3-y,1/6-z
1/3-x,2/3-x+y,1/6-z
1/3+y,2/3+x,1/6-z
1/3-x,2/3-y,2/3-z
1/3+y,2/3-x+y,2/3-z
1/3+x-y,2/3+x,2/3-z
1/3-x+y,2/3+y,1/6+z
1/3+x,2/3+x-y,1/6+z
1/3-y,2/3-x,1/6+z
loop_
_atom_site_type_symbol
_atom_site_label
_atom_site_fract_x
_atom_site_fract_y
_atom_site_fract_z
Si Si1 0.074042 0.264399 0.761806
Si Si2 0.111055 0.378655 0.237396
Si Si3 0.937590 0.175503 0.279251
Si Si4 0.941390 0.297991 0.170907
Si Si5 0.892105 0.268457 0.853186
Si Si6 0.690346 0.570995 0.466047
Si Si7 0.181151 0.333334 0.583334
Si Si8 0.589732 0.839600 0.234710
O O1 0.111674 0.226580 0.746873
O O2 0.070894 0.276114 0.812422
O O3 0.106578 0.334421 0.739875
O O4 0.000000 0.219763 0.750000
O O5 0.092131 0.314696 0.209348
O O6 0.077419 0.346960 0.282116
O O7 0.083305 0.421900 0.218358
O O8 0.189345 0.422992 0.240643
O O9 0.956919 0.163620 0.326986
O O10 0.000000 0.208964 0.250000
O O11 0.975587 0.376917 0.171914
O O12 0.993598 0.281189 0.150475
O O13 0.842688 0.203320 0.878129
O O14 0.853265 0.277185 0.813584
O O15 0.751268 0.610900 0.435482
O O16 0.636655 0.513706 0.436016
#
# Coordination Sequence:
#
# PCOD8324336 Si02
#       8
#    36  36  36  36  36  36  18  36
#     4  10  21  34  54  79 110 147 192 231 280 353
#     4  11  21  37  56  81 113 153 197 238 282 354
#     4  11  21  35  56  80 109 147 188 241 285 347
#     4  11  20  36  57  75 116 156 188 229 287 342
#     4  12  21  37  55  83 115 160 192 235 295 348
#     4  11  23  36  53  80 117 150 194 231 295 345
#     4  12  24  34  56  84 118 162 186 242 292 360
#     4  10  24  35  57  81 115 156 192 239 291 352
#
# _framework density 17.787502
#
# number of rings (size 3 to 8) (size 9 to 14) (size 15 to 20)
#    0.000    1.067    5.333    2.400    5.600    1.600 
#    0.000    0.000    0.000    0.267    0.000    0.000 
#    1.333    1.067    0.000    0.000    0.000    0.000 
#
# Total GULP energy -1115418.373995 kJ/mol
# GULP energy per Si atom -12393.537489 kJ/mol
# Density = 1.774702 g / cm^3
# Si number density = 17.787502 Si / 1000 Ang^3
#
#
#
# Elastic Constant Matrix: (Units=GPa)
#
#
# Indices 1 2 3 4 5 6 
#
# 1 66.8147 18.8331 21.2112 2.9427 -0.0002 0.0000
# 2 18.8331 66.8147 21.2112 -2.9427 0.0002 0.0000
# 3 21.2112 21.2112 105.9059 0.0000 0.0000 0.0000
# 4 2.9427 -2.9427 0.0000 27.4479 0.0000 0.0002
# 5 -0.0002 0.0002 0.0000 0.0000 27.4479 2.9427
# 6 0.0000 0.0000 0.0000 0.0002 2.9427 23.9908
#
#
#
# Elastic Compliance Matrix: (Units=1/GPa)
#
#
# Indices 1 2 3 4 5 6 
#
# 1 0.017040 -0.004079 -0.002596 -0.002264 0.000000 0.000000
# 2 -0.004079 0.017040 -0.002596 0.002264 0.000000 0.000000
# 3 -0.002596 -0.002596 0.010482 0.000000 0.000000 0.000000
# 4 -0.002264 0.002264 0.000000 0.036918 0.000000 0.000000
# 5 0.000000 0.000000 0.000000 0.000000 0.036918 -0.004528
# 6 0.000000 0.000000 0.000000 0.000000 -0.004528 0.042238
#
#
# Mechanical properties :
#
#
# Convention : Reuss Voigt Hill
#
# Bulk Modulus (GPa) = 38.42994 40.22735 39.32864
# Shear Modulus (GPa) = 26.61663 27.66264 27.13963
#
# Velocity S-wave (km/s) = 3.87249 3.94785 3.91035
# Velocity P-wave (km/s) = 6.45343 6.59130 6.52273
#
# Compressibility (1/GPa) = 0.02602138
#
# Stress axis : x y z
#
# Youngs Moduli (GPa) = 58.68442 58.68442 95.39973
#
# Poissons Ratio (x) = 0.23936 0.24766
# Poissons Ratio (y) = 0.23936 0.24766
# Poissons Ratio (z) = 0.15234 0.15234
#
# Static dielectric constant tensor:
#      x y z
#    x 3.236110 0.000000 0.000000 
#    y 0.000000 3.236110 0.000000 
#    z 0.000000 0.000000 3.872290 
# 
# 
# High freq. dielectric constant tensor:
#      x y z
#    x 1.657420 0.000000 0.000000 
#    y 0.000000 1.657420 0.000000 
#    z 0.000000 0.000000 1.718520 
# 
# From -- ./inp_files/7269.got.cif
#   From: 2010.03.12/outbox.cif.g09.slc.cpg/sg167_4_cif.got.tgz:7269.got - 2010.04.02 06:42:56.
