data_PCOD8324970
_publ_section_title
;
Structure prediction by ZEFSAII (Michael W. Deem and Ramdas Pophale) SiO2 
 PCOD8324970
Probable space group: P -6
;
_chemical_formula_sum "Si O2"
_cell_formula_units_Z 42
_cell_length_a 8.644591
_cell_length_b 8.644591
_cell_length_c 28.634735
_cell_angle_alpha 90.000000
_cell_angle_beta 90.000000
_cell_angle_gamma 120.000000
_cell_volume 1853.159075
_symmetry_space_group_name_H-M "P -6"
_symmetry_group_IT_number 174
_symmetry_cell_setting 'hexagonal'
loop_
_space_group_symop_operation_xyz
x,y,z
-x+y,-x,-z
-y,x-y,z
x,y,-z
-x+y,-x,z
-y,x-y,-z
loop_
_atom_site_type_symbol
_atom_site_label
_atom_site_fract_x
_atom_site_fract_y
_atom_site_fract_z
Si Si1 0.697884 0.029341 0.271980
Si Si2 0.780695 0.218323 0.821130
Si Si3 0.699259 0.668548 0.914281
Si Si4 0.334426 0.983362 0.305453
Si Si5 0.976329 0.667090 0.552978
Si Si6 0.334570 0.352634 0.947619
Si Si7 0.648729 0.665290 0.411012
O O1 0.807367 0.123053 0.224047
O O2 0.841802 0.154851 0.310635
O O3 0.516320 0.035867 0.277823
O O4 0.653718 0.827112 0.276450
O O5 0.869935 0.434534 0.821110
O O6 0.875413 0.191275 0.866373
O O7 0.516027 0.481803 0.919858
O O8 0.656288 0.827473 0.918677
O O9 0.841931 0.684399 0.953031
O O10 0.338689 0.919842 0.358042
O O11 0.916068 0.670435 0.500000
O O12 0.834453 0.666243 0.589019
O O13 0.990071 0.492922 0.560474
O O14 0.164777 0.838499 0.561845
O O15 0.338962 0.425450 0.000000
#
# Coordination Sequence:
#
# PCOD8324970 Si02
#       7
#     6   6   6   6   6   6   6
#     4  12  25  45  73 105 143 185 235 295 361 439
#     4  10  20  48  72 100 136 180 234 281 355 413
#     4  12  25  45  73 106 149 194 244 298 353 427
#     4  12  24  44  70 103 140 183 234 297 366 429
#     4  12  25  44  67  97 137 187 238 293 359 433
#     4  12  24  43  70 106 147 194 243 297 356 417
#     4  12  25  43  67  99 136 181 236 295 358 432
#
# _framework density 22.664003000000001
#
# number of rings (size 3 to 8) (size 9 to 14) (size 15 to 20)
#    0.286    0.000    2.857    7.714    0.000    1.143 
#    0.000    0.000    0.000    0.000    0.000    0.000 
#    0.000    0.000    0.000    0.000    0.000    0.000 
#
# Total GULP energy -520756.570923 kJ/mol
# GULP energy per Si atom -12398.965974 kJ/mol
# Density = 2.261242 g / cm^3
# Si number density = 22.664003 Si / 1000 Ang^3
#
#
#
# Elastic Constant Matrix: (Units=GPa)
#
#
# Indices 1 2 3 4 5 6 
#
# 1 126.2644 41.5918 27.7595 0.0000 0.0000 0.0000
# 2 41.5918 126.2644 27.7595 0.0000 0.0000 0.0000
# 3 27.7595 27.7595 150.7360 0.0000 0.0000 0.0000
# 4 0.0000 0.0000 0.0000 31.4502 0.0000 0.0000
# 5 0.0000 0.0000 0.0000 0.0000 31.4502 0.0000
# 6 0.0000 0.0000 0.0000 0.0000 0.0000 42.3363
#
#
#
# Elastic Compliance Matrix: (Units=1/GPa)
#
#
# Indices 1 2 3 4 5 6 
#
# 1 0.009077 -0.002733 -0.001168 0.000000 0.000000 0.000000
# 2 -0.002733 0.009077 -0.001168 0.000000 0.000000 0.000000
# 3 -0.001168 -0.001168 0.007064 0.000000 0.000000 0.000000
# 4 0.000000 0.000000 0.000000 0.031796 0.000000 0.000000
# 5 0.000000 0.000000 0.000000 0.000000 0.031796 0.000000
# 6 0.000000 0.000000 0.000000 0.000000 0.000000 0.023620
#
#
# Mechanical properties :
#
#
# Convention : Reuss Voigt Hill
#
# Bulk Modulus (GPa) = 66.31714 66.38735 66.35224
# Shear Modulus (GPa) = 39.18575 41.45759 40.32167
#
# Velocity S-wave (km/s) = 4.16262 4.28159 4.22252
# Velocity P-wave (km/s) = 7.24070 7.33473 7.28786
#
# Compressibility (1/GPa) = 0.01507906
#
# Stress axis : x y z
#
# Youngs Moduli (GPa) = 110.16797 110.16797 141.55448
#
# Poissons Ratio (x) = 0.30111 0.16538
# Poissons Ratio (y) = 0.30111 0.16538
# Poissons Ratio (z) = 0.12871 0.12871
#
# Static dielectric constant tensor:
#      x y z
#    x 4.014370 0.000000 0.000000 
#    y 0.000000 4.014370 0.000000 
#    z 0.000000 0.000000 3.994500 
# 
# 
# High freq. dielectric constant tensor:
#      x y z
#    x 1.894160 0.000000 0.000000 
#    y 0.000000 1.894160 0.000000 
#    z 0.000000 0.000000 1.900450 
# 
# From -- ./inp_files/1097.got.cif
#   From: 2010.03.12/outbox.cif.g09.slc.cpg/sg174_cif.got.tgz:1097.got - 2010.04.02 06:54:58.
