data_PCOD8324290
_publ_section_title
;
Structure prediction by ZEFSAII (Michael W. Deem and Ramdas Pophale) SiO2 
 PCOD8324290
Probable space group: R -3 C 
;
_chemical_formula_sum "Si O2"
_cell_formula_units_Z 144
_cell_length_a 22.136973
_cell_length_b 22.136973
_cell_length_c 17.207779
_cell_angle_alpha 90.000000
_cell_angle_beta 90.000000
_cell_angle_gamma 120.000000
_cell_volume 7302.842296
_symmetry_space_group_name_H-M "R -3 C "
_symmetry_group_IT_number 167
_symmetry_cell_setting 'hexagonal'
loop_
_space_group_symop_operation_xyz
x,y,z
-y,x-y,z
-x+y,-x,z
x-y,-y,1/2-z
-x,-x+y,1/2-z
y,x,1/2-z
-x,-y,-z
y,-x+y,-z
x-y,x,-z
-x+y,y,1/2+z
x,x-y,1/2+z
-y,-x,1/2+z
2/3+x,1/3+y,1/3+z
2/3-y,1/3+x-y,1/3+z
2/3-x+y,1/3-x,1/3+z
2/3+x-y,1/3-y,5/6-z
2/3-x,1/3-x+y,5/6-z
2/3+y,1/3+x,5/6-z
2/3-x,1/3-y,1/3-z
2/3+y,1/3-x+y,1/3-z
2/3+x-y,1/3+x,1/3-z
2/3-x+y,1/3+y,5/6+z
2/3+x,1/3+x-y,5/6+z
2/3-y,1/3-x,5/6+z
1/3+x,2/3+y,2/3+z
1/3-y,2/3+x-y,2/3+z
1/3-x+y,2/3-x,2/3+z
1/3+x-y,2/3-y,1/6-z
1/3-x,2/3-x+y,1/6-z
1/3+y,2/3+x,1/6-z
1/3-x,2/3-y,2/3-z
1/3+y,2/3-x+y,2/3-z
1/3+x-y,2/3+x,2/3-z
1/3-x+y,2/3+y,1/6+z
1/3+x,2/3+x-y,1/6+z
1/3-y,2/3-x,1/6+z
loop_
_atom_site_type_symbol
_atom_site_label
_atom_site_fract_x
_atom_site_fract_y
_atom_site_fract_z
Si Si1 0.414746 0.923478 0.937227
Si Si2 0.583855 0.502464 0.929158
Si Si3 0.376168 0.530836 0.846311
Si Si4 0.146215 0.091573 0.971904
O O1 0.333334 0.871675 0.916667
O O2 0.465392 0.910977 0.880072
O O3 0.433958 0.002743 0.923680
O O4 0.435192 0.913340 0.025141
O O5 0.592423 0.480645 0.841532
O O6 0.658161 0.535029 0.973477
O O7 0.333334 0.542127 0.916667
O O8 0.401827 0.590971 0.782863
O O9 0.092790 0.119563 0.970077
#
# Coordination Sequence:
#
# PCOD8324290 Si02
#       4
#    36  36  36  36
#     4  10  19  36  59  80 110 151 193 242 293 357
#     4   9  20  36  53  82 115 148 188 245 296 346
#     4   9  19  36  57  80 114 153 191 245 302 351
#     4  10  19  34  54  80 113 151 191 244 296 355
#
# _framework density 19.718350000000001
#
# number of rings (size 3 to 8) (size 9 to 14) (size 15 to 20)
#    0.000    2.500    0.000    1.750    0.000    1.000 
#    9.000    0.000    5.500   13.500    0.000    0.000 
#    0.000    0.000    0.000    0.000    0.000    0.000 
#
# Total GULP energy -594771.778171 kJ/mol
# GULP energy per Si atom -12391.078712 kJ/mol
# Density = 1.967347 g / cm^3
# Si number density = 19.718350 Si / 1000 Ang^3
#
#
#
# Elastic Constant Matrix: (Units=GPa)
#
#
# Indices 1 2 3 4 5 6 
#
# 1 81.5546 30.1091 25.6239 1.8273 -0.0002 0.0000
# 2 30.1091 81.5546 25.6239 -1.8273 0.0002 0.0000
# 3 25.6239 25.6239 107.5994 0.0000 0.0000 0.0000
# 4 1.8273 -1.8273 0.0000 10.5450 0.0000 0.0002
# 5 -0.0002 0.0002 0.0000 0.0000 10.5450 1.8273
# 6 0.0000 0.0000 0.0000 0.0002 1.8273 25.7228
#
#
#
# Elastic Compliance Matrix: (Units=1/GPa)
#
#
# Indices 1 2 3 4 5 6 
#
# 1 0.014867 -0.004813 -0.002394 -0.003410 0.000000 0.000000
# 2 -0.004813 0.014867 -0.002394 0.003410 0.000000 0.000000
# 3 -0.002394 -0.002394 0.010434 0.000000 0.000000 0.000000
# 4 -0.003410 0.003410 0.000000 0.096013 0.000000 -0.000001
# 5 0.000000 0.000000 0.000000 0.000000 0.096013 -0.006820
# 6 0.000000 0.000000 0.000000 -0.000001 -0.006820 0.039361
#
#
# Mechanical properties :
#
#
# Convention : Reuss Voigt Hill
#
# Bulk Modulus (GPa) = 47.69769 48.15806 47.92787
# Shear Modulus (GPa) = 16.79272 21.98600 19.38936
#
# Velocity S-wave (km/s) = 2.92143 3.34279 3.13919
# Velocity P-wave (km/s) = 5.96839 6.27495 6.12359
#
# Compressibility (1/GPa) = 0.02096538
#
# Stress axis : x y z
#
# Youngs Moduli (GPa) = 67.26162 67.26162 95.83932
#
# Poissons Ratio (x) = 0.32373 0.22947
# Poissons Ratio (y) = 0.32373 0.22947
# Poissons Ratio (z) = 0.16105 0.16105
#
# Static dielectric constant tensor:
#      x y z
#    x 3.482690 0.000000 0.000000 
#    y 0.000000 3.482690 0.000000 
#    z 0.000000 0.000000 3.739310 
# 
# 
# High freq. dielectric constant tensor:
#      x y z
#    x 1.755250 0.000000 0.000000 
#    y 0.000000 1.755250 0.000000 
#    z 0.000000 0.000000 1.775550 
# 
# From -- ./inp_files/3282.got.cif
#   From: 2010.03.12/outbox.cif.g09.slc.cpg/sg167_2_cif.got.tgz:3282.got - 2010.04.02 06:42:56.
