data_PCOD8324806
_publ_section_title
;
Structure prediction by ZEFSAII (Michael W. Deem and Ramdas Pophale) SiO2 
 PCOD8324806
Probable space group: P 62
;
_chemical_formula_sum "Si O2"
_cell_formula_units_Z 42
_cell_length_a 14.913152
_cell_length_b 14.913152
_cell_length_c 9.685909
_cell_angle_alpha 90.000000
_cell_angle_beta 90.000000
_cell_angle_gamma 120.000000
_cell_volume 1865.562936
_symmetry_space_group_name_H-M "P 62"
_symmetry_group_IT_number 171
_symmetry_cell_setting 'hexagonal'
loop_
_space_group_symop_operation_xyz
x,y,z
x-y,x,1/3+z
-y,x-y,2/3+z
-x,-y,z
-x+y,-x,1/3+z
y,-x+y,2/3+z
loop_
_atom_site_type_symbol
_atom_site_label
_atom_site_fract_x
_atom_site_fract_y
_atom_site_fract_z
Si Si1 0.798724 0.763951 0.887360
Si Si2 0.744973 0.247854 0.635433
Si Si3 0.831204 0.416832 0.067126
Si Si4 0.536759 0.322081 0.275620
Si Si5 0.005024 0.365594 0.013104
Si Si6 0.183561 0.278606 0.196800
Si Si7 0.319002 0.249861 0.410827
O O1 0.691260 0.718095 0.803281
O O2 0.815683 0.880797 0.897572
O O3 0.877227 0.745974 0.794960
O O4 0.789768 0.713648 0.035205
O O5 0.638331 0.204871 0.549412
O O6 0.708190 0.203863 0.788021
O O7 0.816829 0.374183 0.626115
O O8 0.813320 0.201650 0.579600
O O9 0.732435 0.336328 0.981132
O O10 0.891718 0.525169 0.987260
O O11 0.907057 0.369629 0.071900
O O12 0.438982 0.288576 0.376233
O O13 0.987983 0.310307 0.863529
O O14 0.263027 0.253538 0.273555
#
# Coordination Sequence:
#
# PCOD8324806 Si02
#       7
#     6   6   6   6   6   6   6
#     4  12  25  50  76 103 139 197 244 311 384 434
#     4  12  25  42  70 113 150 199 242 305 366 448
#     4  11  23  43  71 103 150 192 247 282 362 454
#     4  12  25  42  74 107 156 197 243 298 367 449
#     4  11  24  44  76 102 141 201 239 295 371 443
#     4  12  29  47  76 108 150 185 253 315 380 442
#     4  12  27  49  76 105 149 192 252 311 374 444
#
# _framework density 22.513311000000002
#
# number of rings (size 3 to 8) (size 9 to 14) (size 15 to 20)
#    0.000    0.286    5.714    2.571    4.000    1.714 
#    0.000    2.143    0.000    0.000    0.000    0.000 
#    0.000    0.000    0.000    0.000    0.000    0.000 
#
# Total GULP energy -520562.352057 kJ/mol
# GULP energy per Si atom -12394.341716 kJ/mol
# Density = 2.246207 g / cm^3
# Si number density = 22.513311 Si / 1000 Ang^3
#
#
#
# Elastic Constant Matrix: (Units=GPa)
#
#
# Indices 1 2 3 4 5 6 
#
# 1 90.1624 38.9312 38.1613 0.0000 0.0000 0.0000
# 2 38.9312 90.1624 38.1613 0.0000 0.0000 0.0000
# 3 38.1613 38.1613 146.8585 0.0000 0.0000 0.0000
# 4 0.0000 0.0000 0.0000 34.6080 0.0000 0.0000
# 5 0.0000 0.0000 0.0000 0.0000 34.6080 0.0000
# 6 0.0000 0.0000 0.0000 0.0000 0.0000 25.6156
#
#
#
# Elastic Compliance Matrix: (Units=1/GPa)
#
#
# Indices 1 2 3 4 5 6 
#
# 1 0.014336 -0.005183 -0.002378 0.000000 0.000000 0.000000
# 2 -0.005183 0.014336 -0.002378 0.000000 0.000000 0.000000
# 3 -0.002378 -0.002378 0.008045 0.000000 0.000000 0.000000
# 4 0.000000 0.000000 0.000000 0.028895 0.000000 0.000000
# 5 0.000000 0.000000 0.000000 0.000000 0.028895 0.000000
# 6 0.000000 0.000000 0.000000 0.000000 0.000000 0.039039
#
#
# Mechanical properties :
#
#
# Convention : Reuss Voigt Hill
#
# Bulk Modulus (GPa) = 59.39297 61.96567 60.67932
# Shear Modulus (GPa) = 31.43898 33.09494 32.26696
#
# Velocity S-wave (km/s) = 3.74098 3.83824 3.78992
# Velocity P-wave (km/s) = 6.71554 6.87216 6.79430
#
# Compressibility (1/GPa) = 0.01683701
#
# Stress axis : x y z
#
# Youngs Moduli (GPa) = 69.75508 69.75508 124.29681
#
# Poissons Ratio (x) = 0.36157 0.29561
# Poissons Ratio (y) = 0.36157 0.29561
# Poissons Ratio (z) = 0.16590 0.16590
#
# Static dielectric constant tensor:
#      x y z
#    x 4.256980 0.000000 0.000000 
#    y 0.000000 4.256980 0.000000 
#    z 0.000000 0.000000 4.066740 
# 
# 
# High freq. dielectric constant tensor:
#      x y z
#    x 1.888230 0.000000 0.000000 
#    y 0.000000 1.888230 0.000000 
#    z 0.000000 0.000000 1.899420 
# 
# From -- ./inp_files/1252.got.cif
#   From: 2010.03.12/outbox.cif.g09.slc.cpg/sg171_1_cif.got.tgz:1252.got - 2010.04.02 06:49:11.
