data_PCOD8324999
_publ_section_title
;
Structure prediction by ZEFSAII (Michael W. Deem and Ramdas Pophale) SiO2 
 PCOD8324999
Probable space group: P 6/M
;
_chemical_formula_sum "Si O2"
_cell_formula_units_Z 48
_cell_length_a 16.392058
_cell_length_b 16.392058
_cell_length_c 14.481162
_cell_angle_alpha 90.000000
_cell_angle_beta 90.000000
_cell_angle_gamma 120.000000
_cell_volume 3369.775806
_symmetry_space_group_name_H-M "P 6/M"
_symmetry_group_IT_number 175
_symmetry_cell_setting 'hexagonal'
loop_
_space_group_symop_operation_xyz
x,y,z
x-y,x,z
-y,x-y,z
-x,-y,z
-x+y,-x,z
y,-x+y,z
-x,-y,-z
-x+y,-x,-z
y,-x+y,-z
x,y,-z
x-y,x,-z
-y,x-y,-z
loop_
_atom_site_type_symbol
_atom_site_label
_atom_site_fract_x
_atom_site_fract_y
_atom_site_fract_z
Si Si1 0.787204 0.393602 0.898254
Si Si2 0.106578 0.711802 0.393052
Si Si3 0.893422 0.605224 0.606948
Si Si4 0.889968 0.444984 0.712173
O O1 0.719979 0.439958 0.888494
O O2 0.865971 0.432985 0.820267
O O3 0.835536 0.417768 0.000000
O O4 0.107102 0.687065 0.500000
O O5 0.176626 0.823374 0.374678
O O6 0.148352 0.655632 0.336897
O O7 0.000000 0.682792 0.362052
O O8 0.892897 0.579962 0.500000
O O9 0.851648 0.507280 0.663103
O O10 0.000000 0.500000 0.698977
#
# Coordination Sequence:
#
# PCOD8324999 Si02
#       4
#    12  12  12  12
#     4   8  16  28  39  50  70 101 133 163 190 221
#     4   9  17  28  41  58  81 106 131 162 200 239
#     4   9  17  28  41  58  81 106 131 162 200 239
#     4  10  17  25  40  59  79 102 129 163 198 236
#
# _framework density 14.244272
#
# number of rings (size 3 to 8) (size 9 to 14) (size 15 to 20)
#    0.500    2.500    0.000    2.250    0.000    3.500 
#    1.500    0.000    0.000    0.500    0.000    3.500 
#    0.000    0.000    0.000    0.000    0.000    0.000 
#
# Total GULP energy -594694.281102 kJ/mol
# GULP energy per Si atom -12389.464190 kJ/mol
# Density = 1.421185 g / cm^3
# Si number density = 14.244272 Si / 1000 Ang^3
#
#
#
# Elastic Constant Matrix: (Units=GPa)
#
#
# Indices 1 2 3 4 5 6 
#
# 1 61.1367 35.3452 26.3003 0.0000 0.0000 0.0000
# 2 35.3452 61.1367 26.3003 0.0000 0.0000 0.0000
# 3 26.3003 26.3003 71.6323 0.0000 0.0000 0.0000
# 4 0.0000 0.0000 0.0000 20.0312 0.0000 0.0000
# 5 0.0000 0.0000 0.0000 0.0000 20.0312 0.0000
# 6 0.0000 0.0000 0.0000 0.0000 0.0000 12.8958
#
#
#
# Elastic Compliance Matrix: (Units=1/GPa)
#
#
# Indices 1 2 3 4 5 6 
#
# 1 0.025865 -0.012907 -0.004758 0.000000 0.000000 0.000000
# 2 -0.012907 0.025865 -0.004758 0.000000 0.000000 0.000000
# 3 -0.004758 -0.004758 0.017454 0.000000 0.000000 0.000000
# 4 0.000000 0.000000 0.000000 0.049922 0.000000 0.000000
# 5 0.000000 0.000000 0.000000 0.000000 0.049922 0.000000
# 6 0.000000 0.000000 0.000000 0.000000 0.000000 0.077545
#
#
# Mechanical properties :
#
#
# Convention : Reuss Voigt Hill
#
# Bulk Modulus (GPa) = 41.08509 41.08857 41.08683
# Shear Modulus (GPa) = 16.69268 17.65562 17.17415
#
# Velocity S-wave (km/s) = 3.42700 3.52446 3.47607
# Velocity P-wave (km/s) = 6.67570 6.74320 6.70953
#
# Compressibility (1/GPa) = 0.02433973
#
# Stress axis : x y z
#
# Youngs Moduli (GPa) = 38.66155 38.66155 57.29378
#
# Poissons Ratio (x) = 0.49900 0.27259
# Poissons Ratio (y) = 0.49900 0.27259
# Poissons Ratio (z) = 0.18394 0.18394
#
# Static dielectric constant tensor:
#      x y z
#    x 2.708080 0.000000 0.000000 
#    y 0.000000 2.708080 0.000000 
#    z 0.000000 0.000000 2.693900 
# 
# 
# High freq. dielectric constant tensor:
#      x y z
#    x 1.524870 0.000000 0.000000 
#    y 0.000000 1.524870 0.000000 
#    z 0.000000 0.000000 1.540650 
# 
# From -- ./inp_files/2250.got.cif
#   From: 2010.03.12/outbox.cif.g09.slc.cpg/sg175_2_cif.got.tgz:2250.got - 2010.04.02 06:55:29.
