data_PCOD8324629
_publ_section_title
;
Structure prediction by ZEFSAII (Michael W. Deem and Ramdas Pophale) SiO2 
 PCOD8324629
Probable space group: P 65
;
_chemical_formula_sum "Si O2"
_cell_formula_units_Z 42
_cell_length_a 15.693972
_cell_length_b 15.693972
_cell_length_c 9.931136
_cell_angle_alpha 90.000000
_cell_angle_beta 90.000000
_cell_angle_gamma 120.000000
_cell_volume 2118.338249
_symmetry_space_group_name_H-M "P 65"
_symmetry_group_IT_number 170
_symmetry_cell_setting 'hexagonal'
loop_
_space_group_symop_operation_xyz
x,y,z
x-y,x,5/6+z
-y,x-y,2/3+z
-x,-y,1/2+z
-x+y,-x,1/3+z
y,-x+y,1/6+z
loop_
_atom_site_type_symbol
_atom_site_label
_atom_site_fract_x
_atom_site_fract_y
_atom_site_fract_z
Si Si1 0.985718 0.738457 0.995540
Si Si2 0.007304 0.661832 0.718733
Si Si3 0.477548 0.670900 0.840974
Si Si4 0.172883 0.379690 0.676403
Si Si5 0.127873 0.180640 0.338637
Si Si6 0.264388 0.538405 0.883923
Si Si7 0.693652 0.485809 0.936557
O O1 0.974386 0.671099 0.868007
O O2 0.924677 0.794872 0.962049
O O3 0.097976 0.809638 0.032456
O O4 0.939030 0.668661 0.125471
O O5 0.915133 0.569353 0.650416
O O6 0.042845 0.765813 0.640254
O O7 0.094836 0.636444 0.719980
O O8 0.375724 0.566733 0.846243
O O9 0.473651 0.729079 0.710604
O O10 0.483226 0.727635 0.977207
O O11 0.187746 0.435044 0.816499
O O12 0.238637 0.453912 0.560277
O O13 0.147254 0.091471 0.377165
O O14 0.242681 0.620559 0.823796
#
# Coordination Sequence:
#
# PCOD8324629 Si02
#       7
#     6   6   6   6   6   6   6
#     4  10  18  36  70  91 120 159 210 258 311 379
#     4  10  21  36  67  94 119 161 221 261 309 370
#     4  12  23  43  64  89 124 172 211 264 320 375
#     4  11  21  40  65  97 122 162 210 267 313 375
#     4  10  17  34  61  94 120 158 211 258 299 389
#     4  12  26  41  60  91 130 163 218 262 320 374
#     4  11  20  42  65  86 121 169 215 256 312 384
#
# _framework density 19.826862999999999
#
# number of rings (size 3 to 8) (size 9 to 14) (size 15 to 20)
#    0.000    1.143    8.571    0.857    0.000    1.143 
#    5.143    1.429    0.000    0.000    0.000    0.000 
#    0.000    0.000    0.000    0.000    0.000    0.000 
#
# Total GULP energy -520578.331174 kJ/mol
# GULP energy per Si atom -12394.722171 kJ/mol
# Density = 1.978174 g / cm^3
# Si number density = 19.826863 Si / 1000 Ang^3
#
#
#
# Elastic Constant Matrix: (Units=GPa)
#
#
# Indices 1 2 3 4 5 6 
#
# 1 79.4018 29.0758 7.0622 0.0000 0.0000 0.0000
# 2 29.0758 79.4018 7.0622 0.0000 0.0000 0.0000
# 3 7.0622 7.0622 41.3522 0.0000 0.0000 0.0000
# 4 0.0000 0.0000 0.0000 17.8567 0.0000 0.0000
# 5 0.0000 0.0000 0.0000 0.0000 17.8567 0.0000
# 6 0.0000 0.0000 0.0000 0.0000 0.0000 25.1630
#
#
#
# Elastic Compliance Matrix: (Units=1/GPa)
#
#
# Indices 1 2 3 4 5 6 
#
# 1 0.014649 -0.005221 -0.001610 0.000000 0.000000 0.000000
# 2 -0.005221 0.014649 -0.001610 0.000000 0.000000 0.000000
# 3 -0.001610 -0.001610 0.024732 0.000000 0.000000 0.000000
# 4 0.000000 0.000000 0.000000 0.056001 0.000000 0.000000
# 5 0.000000 0.000000 0.000000 0.000000 0.056001 0.000000
# 6 0.000000 0.000000 0.000000 0.000000 0.000000 0.039741
#
#
# Mechanical properties :
#
#
# Convention : Reuss Voigt Hill
#
# Bulk Modulus (GPa) = 26.91927 31.83961 29.37944
# Shear Modulus (GPa) = 21.27295 22.63899 21.95597
#
# Velocity S-wave (km/s) = 3.27912 3.38277 3.33135
# Velocity P-wave (km/s) = 5.28616 5.59921 5.44494
#
# Compressibility (1/GPa) = 0.03714811
#
# Stress axis : x y z
#
# Youngs Moduli (GPa) = 68.26268 68.26268 40.43266
#
# Poissons Ratio (x) = 0.35641 0.06510
# Poissons Ratio (y) = 0.35641 0.06510
# Poissons Ratio (z) = 0.10991 0.10991
#
# Static dielectric constant tensor:
#      x y z
#    x 3.779250 0.000000 0.000000 
#    y 0.000000 3.779250 0.000000 
#    z 0.000000 0.000000 3.477640 
# 
# 
# High freq. dielectric constant tensor:
#      x y z
#    x 1.772910 0.000000 0.000000 
#    y 0.000000 1.772910 0.000000 
#    z 0.000000 0.000000 1.752910 
# 
# From -- ./inp_files/1011.got.cif
#   From: 2010.03.12/outbox.cif.g09.slc.cpg/sg170_cif.got.tgz:1011.got - 2010.04.02 06:47:37.
