data_PCOD8324046
_publ_section_title
;
Structure prediction by ZEFSAII (Michael W. Deem and Ramdas Pophale) SiO2 
 PCOD8324046
Probable space group: R -3 M
;
_chemical_formula_sum "Si O2"
_cell_formula_units_Z 270
_cell_length_a 25.511583
_cell_length_b 25.511583
_cell_length_c 29.770347
_cell_angle_alpha 90.000000
_cell_angle_beta 90.000000
_cell_angle_gamma 120.000000
_cell_volume 16779.899042
_symmetry_space_group_name_H-M "R -3 M"
_symmetry_group_IT_number 166
_symmetry_cell_setting 'hexagonal'
loop_
_space_group_symop_operation_xyz
x,y,z
-y,x-y,z
-x+y,-x,z
x-y,-y,-z
-x,-x+y,-z
y,x,-z
-x,-y,-z
y,-x+y,-z
x-y,x,-z
-x+y,y,z
x,x-y,z
-y,-x,z
2/3+x,1/3+y,1/3+z
2/3-y,1/3+x-y,1/3+z
2/3-x+y,1/3-x,1/3+z
2/3+x-y,1/3-y,1/3-z
2/3-x,1/3-x+y,1/3-z
2/3+y,1/3+x,1/3-z
2/3-x,1/3-y,1/3-z
2/3+y,1/3-x+y,1/3-z
2/3+x-y,1/3+x,1/3-z
2/3-x+y,1/3+y,1/3+z
2/3+x,1/3+x-y,1/3+z
2/3-y,1/3-x,1/3+z
1/3+x,2/3+y,2/3+z
1/3-y,2/3+x-y,2/3+z
1/3-x+y,2/3-x,2/3+z
1/3+x-y,2/3-y,2/3-z
1/3-x,2/3-x+y,2/3-z
1/3+y,2/3+x,2/3-z
1/3-x,2/3-y,2/3-z
1/3+y,2/3-x+y,2/3-z
1/3+x-y,2/3+x,2/3-z
1/3-x+y,2/3+y,2/3+z
1/3+x,2/3+x-y,2/3+z
1/3-y,2/3-x,2/3+z
loop_
_atom_site_type_symbol
_atom_site_label
_atom_site_fract_x
_atom_site_fract_y
_atom_site_fract_z
Si Si1 0.954901 0.333334 0.833334
Si Si2 0.883348 0.647559 0.369757
Si Si3 0.590389 0.933099 0.018534
Si Si4 0.438398 0.158206 0.058398
Si Si5 0.260852 0.025220 0.880883
Si Si6 0.386322 0.493015 0.878856
Si Si7 0.207564 0.298363 0.936573
Si Si8 0.425114 0.969481 0.098304
O O1 0.970788 0.293715 0.866165
O O2 0.938567 0.375880 0.862644
O O3 0.835521 0.671041 0.364456
O O4 0.949264 0.703442 0.381425
O O5 0.864915 0.602033 0.411506
O O6 0.887432 0.619972 0.321394
O O7 0.543037 0.939605 0.050422
O O8 0.553862 0.878798 0.982995
O O9 0.636251 0.000000 0.000000
O O10 0.456154 0.228077 0.047183
O O11 0.481315 0.157055 0.097780
O O12 0.369302 0.121103 0.074770
O O13 0.229209 0.040004 0.840362
O O14 0.218840 0.958705 0.899819
O O15 0.436781 0.563219 0.883972
O O16 0.408653 0.450352 0.902508
O O17 0.137377 0.274754 0.931143
O O18 0.477737 0.955473 0.109992
#
# Coordination Sequence:
#
# PCOD8324046 Si02
#       8
#    18  36  36  36  36  36  36  36
#     4  10  20  32  43  68  94 130 165 190 238 290
#     4  10  19  29  45  68  96 132 171 202 237 289
#     4  11  18  31  50  69  96 130 162 199 243 289
#     4  10  20  34  50  72 100 130 165 204 247 296
#     4  11  18  30  49  65  96 135 166 199 241 291
#     4  10  21  34  48  70  99 130 168 206 247 292
#     4   9  18  30  46  72  97 123 162 203 245 295
#     4  10  20  33  48  71  99 129 164 200 242 296
#
# _framework density 16.090681
#
# number of rings (size 3 to 8) (size 9 to 14) (size 15 to 20)
#    0.000    1.867    2.667    5.200    0.000    1.867 
#    0.000    1.667    0.000    0.267    0.000    0.000 
#    0.000    0.000    0.000    4.067    0.000   24.267 
#
# Total GULP energy -1115478.029425 kJ/mol
# GULP energy per Si atom -12394.200327 kJ/mol
# Density = 1.605406 g / cm^3
# Si number density = 16.090681 Si / 1000 Ang^3
#
#
#
# Elastic Constant Matrix: (Units=GPa)
#
#
# Indices 1 2 3 4 5 6 
#
# 1 75.5525 34.9485 44.4062 -1.4166 0.0001 0.0000
# 2 34.9485 75.5525 44.4062 1.4166 -0.0001 0.0000
# 3 44.4062 44.4062 97.1326 0.0000 0.0000 0.0000
# 4 -1.4166 1.4166 0.0000 23.9368 0.0000 -0.0001
# 5 0.0001 -0.0001 0.0000 0.0000 23.9368 -1.4166
# 6 0.0000 0.0000 0.0000 -0.0001 -1.4166 20.3020
#
#
#
# Elastic Compliance Matrix: (Units=1/GPa)
#
#
# Indices 1 2 3 4 5 6 
#
# 1 0.019518 -0.005212 -0.006540 0.001464 0.000000 0.000000
# 2 -0.005212 0.019518 -0.006540 -0.001464 0.000000 0.000000
# 3 -0.006540 -0.006540 0.016275 0.000000 0.000000 0.000000
# 4 0.001464 -0.001464 0.000000 0.041950 0.000000 0.000000
# 5 0.000000 0.000000 0.000000 0.000000 0.041950 0.002927
# 6 0.000000 0.000000 0.000000 0.000000 0.002927 0.049460
#
#
# Mechanical properties :
#
#
# Convention : Reuss Voigt Hill
#
# Bulk Modulus (GPa) = 53.40063 55.08438 54.24250
# Shear Modulus (GPa) = 21.59827 21.93360 21.76593
#
# Velocity S-wave (km/s) = 3.66769 3.69606 3.68190
# Velocity P-wave (km/s) = 7.15509 7.24724 7.20131
#
# Compressibility (1/GPa) = 0.01872637
#
# Stress axis : x y z
#
# Youngs Moduli (GPa) = 51.23390 51.23390 61.44230
#
# Poissons Ratio (x) = 0.26703 0.40186
# Poissons Ratio (y) = 0.26703 0.40186
# Poissons Ratio (z) = 0.33509 0.33509
#
# Static dielectric constant tensor:
#      x y z
#    x 2.901200 0.000000 0.000000 
#    y 0.000000 2.901200 0.000000 
#    z 0.000000 0.000000 3.186340 
# 
# 
# High freq. dielectric constant tensor:
#      x y z
#    x 1.592320 0.000000 0.000000 
#    y 0.000000 1.592320 0.000000 
#    z 0.000000 0.000000 1.632480 
# 
# From -- ./inp_files/9873.got.cif
#   From: 2010.03.12/outbox.cif.g09.slc.cpg/sg166_5_cif.got.tgz:9873.got - 2010.04.02 06:38:31.
