data_PCOD8324273
_publ_section_title
;
Structure prediction by ZEFSAII (Michael W. Deem and Ramdas Pophale) SiO2 
 PCOD8324273
Probable space group: R -3 C 
;
_chemical_formula_sum "Si O2"
_cell_formula_units_Z 252
_cell_length_a 30.398002
_cell_length_b 30.398002
_cell_length_c 19.207217
_cell_angle_alpha 90.000000
_cell_angle_beta 90.000000
_cell_angle_gamma 120.000000
_cell_volume 15370.399413
_symmetry_space_group_name_H-M "R -3 C "
_symmetry_group_IT_number 167
_symmetry_cell_setting 'hexagonal'
loop_
_space_group_symop_operation_xyz
x,y,z
-y,x-y,z
-x+y,-x,z
x-y,-y,1/2-z
-x,-x+y,1/2-z
y,x,1/2-z
-x,-y,-z
y,-x+y,-z
x-y,x,-z
-x+y,y,1/2+z
x,x-y,1/2+z
-y,-x,1/2+z
2/3+x,1/3+y,1/3+z
2/3-y,1/3+x-y,1/3+z
2/3-x+y,1/3-x,1/3+z
2/3+x-y,1/3-y,5/6-z
2/3-x,1/3-x+y,5/6-z
2/3+y,1/3+x,5/6-z
2/3-x,1/3-y,1/3-z
2/3+y,1/3-x+y,1/3-z
2/3+x-y,1/3+x,1/3-z
2/3-x+y,1/3+y,5/6+z
2/3+x,1/3+x-y,5/6+z
2/3-y,1/3-x,5/6+z
1/3+x,2/3+y,2/3+z
1/3-y,2/3+x-y,2/3+z
1/3-x+y,2/3-x,2/3+z
1/3+x-y,2/3-y,1/6-z
1/3-x,2/3-x+y,1/6-z
1/3+y,2/3+x,1/6-z
1/3-x,2/3-y,2/3-z
1/3+y,2/3-x+y,2/3-z
1/3+x-y,2/3+x,2/3-z
1/3-x+y,2/3+y,1/6+z
1/3+x,2/3+x-y,1/6+z
1/3-y,2/3-x,1/6+z
loop_
_atom_site_type_symbol
_atom_site_label
_atom_site_fract_x
_atom_site_fract_y
_atom_site_fract_z
Si Si1 0.271526 0.121601 0.977821
Si Si2 0.653389 0.709942 0.244354
Si Si3 0.113035 0.722634 0.614471
Si Si4 0.578832 0.722963 0.915908
Si Si5 0.454233 0.945587 0.343828
Si Si6 0.610527 0.576745 0.061623
Si Si7 0.412822 0.282314 0.238834
O O1 0.251734 0.161114 0.966296
O O2 0.266633 0.097154 0.900872
O O3 0.327911 0.156368 0.009919
O O4 0.237218 0.076493 0.032633
O O5 0.661474 0.661474 0.250000
O O6 0.612206 0.695398 0.184425
O O7 0.707101 0.758384 0.223962
O O8 0.631004 0.723728 0.311584
O O9 0.088882 0.755548 0.583334
O O10 0.110593 0.677339 0.566801
O O11 0.528108 0.666667 0.916667
O O12 0.578555 0.765142 0.967199
O O13 0.585026 0.741504 0.835407
O O14 0.410597 0.932662 0.401401
O O15 0.666667 0.615150 0.083334
O O16 0.578650 0.601332 0.090675
#
# Coordination Sequence:
#
# PCOD8324273 Si02
#       7
#    36  36  36  36  36  36  36
#     4  10  20  33  46  69  91 125 157 203 253 300
#     4  10  19  28  47  65  85 114 154 196 238 283
#     4  12  19  33  51  66  96 128 162 203 259 301
#     4  10  18  32  48  69  85 115 159 205 239 291
#     4  10  19  33  48  61  94 121 155 196 252 294
#     4  10  21  32  44  65  92 121 159 196 247 290
#     4  10  22  30  49  70  93 118 169 209 241 289
#
# _framework density 16.395150000000001
#
# number of rings (size 3 to 8) (size 9 to 14) (size 15 to 20)
#    0.000    1.714    2.857    4.714    4.000    1.714 
#    0.000    0.000    0.000    0.000    0.000    0.000 
#    0.000    0.000    0.000    0.857    0.000    4.857 
#
# Total GULP energy -1040773.931958 kJ/mol
# GULP energy per Si atom -12390.165857 kJ/mol
# Density = 1.635783 g / cm^3
# Si number density = 16.395150 Si / 1000 Ang^3
#
#
#
# Elastic Constant Matrix: (Units=GPa)
#
#
# Indices 1 2 3 4 5 6 
#
# 1 38.5220 12.8582 21.5687 -1.3515 -0.0013 0.0000
# 2 12.8582 38.5220 21.5687 1.3515 0.0013 0.0000
# 3 21.5687 21.5687 88.7465 0.0000 0.0000 0.0000
# 4 -1.3515 1.3515 0.0000 20.7839 0.0000 0.0013
# 5 -0.0013 0.0013 0.0000 0.0000 20.7839 -1.3515
# 6 0.0000 0.0000 0.0000 0.0013 -1.3515 12.8319
#
#
#
# Elastic Compliance Matrix: (Units=1/GPa)
#
#
# Indices 1 2 3 4 5 6 
#
# 1 0.031843 -0.007391 -0.005943 0.002551 0.000002 0.000000
# 2 -0.007391 0.031843 -0.005943 -0.002551 -0.000002 0.000000
# 3 -0.005943 -0.005943 0.014157 0.000000 0.000000 0.000000
# 4 0.002551 -0.002551 0.000000 0.048446 0.000000 -0.000005
# 5 0.000002 -0.000002 0.000000 0.000000 0.048446 0.005102
# 6 0.000000 0.000000 0.000000 -0.000005 0.005102 0.078468
#
#
# Mechanical properties :
#
#
# Convention : Reuss Voigt Hill
#
# Bulk Modulus (GPa) = 25.45189 30.86465 28.15827
# Shear Modulus (GPa) = 16.40137 18.19961 17.30049
#
# Velocity S-wave (km/s) = 3.16631 3.33537 3.25194
# Velocity P-wave (km/s) = 5.37820 5.80511 5.59573
#
# Compressibility (1/GPa) = 0.03928981
#
# Stress axis : x y z
#
# Youngs Moduli (GPa) = 31.40396 31.40396 70.63802
#
# Poissons Ratio (x) = 0.23211 0.41979
# Poissons Ratio (y) = 0.23211 0.41979
# Poissons Ratio (z) = 0.18663 0.18663
#
# Static dielectric constant tensor:
#      x y z
#    x 2.865800 0.000000 0.000000 
#    y 0.000000 2.865800 0.000000 
#    z 0.000000 0.000000 3.664180 
# 
# 
# High freq. dielectric constant tensor:
#      x y z
#    x 1.580090 0.000000 0.000000 
#    y 0.000000 1.580090 0.000000 
#    z 0.000000 0.000000 1.663870 
# 
# From -- ./inp_files/3697.got.cif
#   From: 2010.03.12/outbox.cif.g09.slc.cpg/sg167_2_cif.got.tgz:3697.got - 2010.04.02 06:42:56.
