data_PCOD8324072
_publ_section_title
;
Structure prediction by ZEFSAII (Michael W. Deem and Ramdas Pophale) SiO2 
 PCOD8324072
Probable space group: R -3 M
;
_chemical_formula_sum "Si O2"
_cell_formula_units_Z 126
_cell_length_a 22.080641
_cell_length_b 22.080641
_cell_length_c 14.662785
_cell_angle_alpha 90.000000
_cell_angle_beta 90.000000
_cell_angle_gamma 120.000000
_cell_volume 6191.137534
_symmetry_space_group_name_H-M "R -3 M"
_symmetry_group_IT_number 166
_symmetry_cell_setting 'hexagonal'
loop_
_space_group_symop_operation_xyz
x,y,z
-y,x-y,z
-x+y,-x,z
x-y,-y,-z
-x,-x+y,-z
y,x,-z
-x,-y,-z
y,-x+y,-z
x-y,x,-z
-x+y,y,z
x,x-y,z
-y,-x,z
2/3+x,1/3+y,1/3+z
2/3-y,1/3+x-y,1/3+z
2/3-x+y,1/3-x,1/3+z
2/3+x-y,1/3-y,1/3-z
2/3-x,1/3-x+y,1/3-z
2/3+y,1/3+x,1/3-z
2/3-x,1/3-y,1/3-z
2/3+y,1/3-x+y,1/3-z
2/3+x-y,1/3+x,1/3-z
2/3-x+y,1/3+y,1/3+z
2/3+x,1/3+x-y,1/3+z
2/3-y,1/3-x,1/3+z
1/3+x,2/3+y,2/3+z
1/3-y,2/3+x-y,2/3+z
1/3-x+y,2/3-x,2/3+z
1/3+x-y,2/3-y,2/3-z
1/3-x,2/3-x+y,2/3-z
1/3+y,2/3+x,2/3-z
1/3-x,2/3-y,2/3-z
1/3+y,2/3-x+y,2/3-z
1/3+x-y,2/3+x,2/3-z
1/3-x+y,2/3+y,2/3+z
1/3+x,2/3+x-y,2/3+z
1/3-y,2/3-x,2/3+z
loop_
_atom_site_type_symbol
_atom_site_label
_atom_site_fract_x
_atom_site_fract_y
_atom_site_fract_z
Si Si1 0.449880 0.410709 0.588225
Si Si2 0.378810 0.888972 0.846889
Si Si3 0.862503 0.862503 0.000000
Si Si4 0.741616 0.623682 0.875100
O O1 0.398639 0.398639 0.500000
O O2 0.510099 0.489902 0.583880
O O3 0.478640 0.356630 0.576079
O O4 0.417568 0.396759 0.689495
O O5 0.433620 0.867239 0.886366
O O6 0.358416 0.861423 0.744830
O O7 0.413835 0.972844 0.851186
O O8 0.936674 0.873348 0.034140
O O9 0.797591 0.595181 0.877380
O O10 0.666667 0.565428 0.833334
#
# Coordination Sequence:
#
# PCOD8324072 Si02
#       4
#    36  36  18  36
#     4  10  20  35  55  77 104 141 182 221 263 317
#     4  10  20  32  49  76 106 135 171 217 267 319
#     4  10  19  32  50  74 107 144 182 222 266 318
#     4  10  22  38  56  80 109 142 180 223 275 332
#
# _framework density 20.351672000000001
#
# number of rings (size 3 to 8) (size 9 to 14) (size 15 to 20)
#    0.000    2.000    0.000    3.571    0.000    9.143 
#    0.000    2.857    0.000    0.857    0.000    0.000 
#    0.000    0.000    0.000    0.000    0.000    0.000 
#
# Total GULP energy -520342.249735 kJ/mol
# GULP energy per Si atom -12389.101184 kJ/mol
# Density = 2.030535 g / cm^3
# Si number density = 20.351672 Si / 1000 Ang^3
#
#
#
# Elastic Constant Matrix: (Units=GPa)
#
#
# Indices 1 2 3 4 5 6 
#
# 1 64.1364 10.8447 11.5000 2.9045 -0.0001 0.0000
# 2 10.8447 64.1364 11.5000 -2.9045 0.0001 0.0000
# 3 11.5000 11.5000 72.7412 0.0000 0.0000 0.0000
# 4 2.9045 -2.9045 0.0000 27.1868 0.0000 0.0001
# 5 -0.0001 0.0001 0.0000 0.0000 27.1868 2.9045
# 6 0.0000 0.0000 0.0000 0.0001 2.9045 26.6459
#
#
#
# Elastic Compliance Matrix: (Units=1/GPa)
#
#
# Indices 1 2 3 4 5 6 
#
# 1 0.016501 -0.002485 -0.002216 -0.002028 0.000000 0.000000
# 2 -0.002485 0.016501 -0.002216 0.002028 0.000000 0.000000
# 3 -0.002216 -0.002216 0.014448 0.000000 0.000000 0.000000
# 4 -0.002028 0.002028 0.000000 0.037216 0.000000 0.000000
# 5 0.000000 0.000000 0.000000 0.000000 0.037216 -0.004057
# 6 0.000000 0.000000 0.000000 0.000000 -0.004057 0.037971
#
#
# Mechanical properties :
#
#
# Convention : Reuss Voigt Hill
#
# Bulk Modulus (GPa) = 29.74670 29.85593 29.80132
# Shear Modulus (GPa) = 27.04278 27.34852 27.19565
#
# Velocity S-wave (km/s) = 3.64919 3.66976 3.65949
# Velocity P-wave (km/s) = 5.69241 5.71472 5.70358
#
# Compressibility (1/GPa) = 0.03361717
#
# Stress axis : x y z
#
# Youngs Moduli (GPa) = 60.60211 60.60211 69.21371
#
# Poissons Ratio (x) = 0.15058 0.15337
# Poissons Ratio (y) = 0.15058 0.15337
# Poissons Ratio (z) = 0.13429 0.13429
#
# Static dielectric constant tensor:
#      x y z
#    x 3.822090 0.000000 0.000000 
#    y 0.000000 3.822090 0.000000 
#    z 0.000000 0.000000 3.655540 
# 
# 
# High freq. dielectric constant tensor:
#      x y z
#    x 1.789160 0.000000 0.000000 
#    y 0.000000 1.789160 0.000000 
#    z 0.000000 0.000000 1.775730 
# 
# From -- ./inp_files/4881.got.cif
#   From: 2010.03.12/outbox.cif.g09.slc.cpg/sg166_3_cif.got.tgz:4881.got - 2010.04.02 06:38:31.
