data_PCOD8324413
_publ_section_title
;
Structure prediction by ZEFSAII (Michael W. Deem and Ramdas Pophale) SiO2 
 PCOD8324413
Probable space group: R -3 C 
;
_chemical_formula_sum "Si O2"
_cell_formula_units_Z 120
_cell_length_a 15.573071
_cell_length_b 15.573071
_cell_length_c 26.111405
_cell_angle_alpha 90.000000
_cell_angle_beta 90.000000
_cell_angle_gamma 120.000000
_cell_volume 5484.150946
_symmetry_space_group_name_H-M "R -3 C "
_symmetry_group_IT_number 167
_symmetry_cell_setting 'hexagonal'
loop_
_space_group_symop_operation_xyz
x,y,z
-y,x-y,z
-x+y,-x,z
x-y,-y,1/2-z
-x,-x+y,1/2-z
y,x,1/2-z
-x,-y,-z
y,-x+y,-z
x-y,x,-z
-x+y,y,1/2+z
x,x-y,1/2+z
-y,-x,1/2+z
2/3+x,1/3+y,1/3+z
2/3-y,1/3+x-y,1/3+z
2/3-x+y,1/3-x,1/3+z
2/3+x-y,1/3-y,5/6-z
2/3-x,1/3-x+y,5/6-z
2/3+y,1/3+x,5/6-z
2/3-x,1/3-y,1/3-z
2/3+y,1/3-x+y,1/3-z
2/3+x-y,1/3+x,1/3-z
2/3-x+y,1/3+y,5/6+z
2/3+x,1/3+x-y,5/6+z
2/3-y,1/3-x,5/6+z
1/3+x,2/3+y,2/3+z
1/3-y,2/3+x-y,2/3+z
1/3-x+y,2/3-x,2/3+z
1/3+x-y,2/3-y,1/6-z
1/3-x,2/3-x+y,1/6-z
1/3+y,2/3+x,1/6-z
1/3-x,2/3-y,2/3-z
1/3+y,2/3-x+y,2/3-z
1/3+x-y,2/3+x,2/3-z
1/3-x+y,2/3+y,1/6+z
1/3+x,2/3+x-y,1/6+z
1/3-y,2/3-x,1/6+z
loop_
_atom_site_type_symbol
_atom_site_label
_atom_site_fract_x
_atom_site_fract_y
_atom_site_fract_z
Si Si1 0.666668 0.333334 0.644197
Si Si2 0.206089 0.040141 0.021200
Si Si3 0.138880 0.607488 0.528810
Si Si4 0.365979 0.319661 0.694157
O O1 0.666668 0.333334 0.583334
O O2 0.765923 0.340179 0.665926
O O3 0.188450 0.017447 0.081151
O O4 0.130051 0.942160 0.991180
O O5 0.318733 0.071415 0.006243
O O6 0.116324 0.494423 0.530201
O O7 0.062032 0.625653 0.498059
O O8 0.338091 0.338091 0.750000
#
# Coordination Sequence:
#
# PCOD8324413 Si02
#       4
#    12  36  36  36
#     4  12  27  45  76 101 145 189 234 291 361 410
#     4  12  25  44  73 101 140 184 233 292 352 420
#     4  11  26  46  70 105 142 180 241 292 346 428
#     4  11  25  46  70 102 140 185 235 290 354 421
#
# _framework density 21.881235
#
# number of rings (size 3 to 8) (size 9 to 14) (size 15 to 20)
#    0.000    0.600    3.000    3.900    4.200    4.800 
#    0.000    0.000    0.000    0.000    0.000    0.000 
#    0.000    0.000    0.000    0.000    0.000    0.000 
#
# Total GULP energy -496204.639063 kJ/mol
# GULP energy per Si atom -12405.115977 kJ/mol
# Density = 2.183143 g / cm^3
# Si number density = 21.881235 Si / 1000 Ang^3
#
#
#
# Elastic Constant Matrix: (Units=GPa)
#
#
# Indices 1 2 3 4 5 6 
#
# 1 64.5629 11.0062 16.8146 -6.1566 -0.0001 0.0000
# 2 11.0062 64.5608 16.8138 6.1533 0.0003 0.0000
# 3 16.8146 16.8138 166.7405 0.0003 0.0010 0.0000
# 4 -6.1566 6.1533 0.0003 -0.4842 0.0005 -0.0002
# 5 -0.0001 0.0003 0.0010 0.0005 -0.4830 -6.1542
# 6 0.0000 0.0000 0.0000 -0.0002 -6.1542 26.7774
#
#
#
# Elastic Compliance Matrix: (Units=1/GPa)
#
#
# Indices 1 2 3 4 5 6 
#
# 1 0.009305 0.004547 -0.001397 -0.060533 -0.000014 -0.000004
# 2 0.004547 0.009311 -0.001398 0.060510 0.000014 0.000004
# 3 -0.001397 -0.001398 0.006279 0.000003 0.000003 0.000001
# 4 -0.060533 0.060510 0.000003 -0.526609 -0.000101 -0.000027
# 5 -0.000014 0.000014 0.000003 -0.000101 -0.527030 -0.121126
# 6 -0.000004 0.000004 0.000001 -0.000027 -0.121126 0.009507
#
#
# Mechanical properties :
#
#
# Convention : Reuss Voigt Hill
#
# Bulk Modulus (GPa) = 35.21093 42.79260 39.00176
# Shear Modulus (GPa) = -4.93449 21.91068 8.48809
#
# Velocity S-wave (km/s) = -1.50334 3.16784 1.97170
# Velocity P-wave (km/s) = 3.62124 5.74278 4.80067
#
# Compressibility (1/GPa) = 0.02840028
#
# Stress axis : x y z
#
# Youngs Moduli (GPa) = 107.46826 107.40129 159.25798
#
# Poissons Ratio (x) = -0.48834 0.22244
# Poissons Ratio (y) = -0.48864 0.22256
# Poissons Ratio (z) = 0.15011 0.15009
#
# Static dielectric constant tensor:
#      x y z
#    x 4.086640 0.000000 0.000000 
#    y 0.000000 4.086650 -0.000010 
#    z 0.000000 -0.000010 4.063890 
# 
# 
# High freq. dielectric constant tensor:
#      x y z
#    x 1.869130 0.000000 0.000000 
#    y 0.000000 1.869130 0.000000 
#    z 0.000000 0.000000 1.877770 
# 
# From -- ./inp_files/5102.got.cif
#   From: 2010.03.12/outbox.cif.g09.slc.cpg/sg167_3_cif.got.tgz:5102.got - 2010.04.02 06:42:56.
