data_PCOD8324106
_publ_section_title
;
Structure prediction by ZEFSAII (Michael W. Deem and Ramdas Pophale) SiO2 
 PCOD8324106
Probable space group: R -3 M
;
_chemical_formula_sum "Si O2"
_cell_formula_units_Z 270
_cell_length_a 24.810129
_cell_length_b 24.810129
_cell_length_c 28.615288
_cell_angle_alpha 90.000000
_cell_angle_beta 90.000000
_cell_angle_gamma 120.000000
_cell_volume 15254.107326
_symmetry_space_group_name_H-M "R -3 M"
_symmetry_group_IT_number 166
_symmetry_cell_setting 'hexagonal'
loop_
_space_group_symop_operation_xyz
x,y,z
-y,x-y,z
-x+y,-x,z
x-y,-y,-z
-x,-x+y,-z
y,x,-z
-x,-y,-z
y,-x+y,-z
x-y,x,-z
-x+y,y,z
x,x-y,z
-y,-x,z
2/3+x,1/3+y,1/3+z
2/3-y,1/3+x-y,1/3+z
2/3-x+y,1/3-x,1/3+z
2/3+x-y,1/3-y,1/3-z
2/3-x,1/3-x+y,1/3-z
2/3+y,1/3+x,1/3-z
2/3-x,1/3-y,1/3-z
2/3+y,1/3-x+y,1/3-z
2/3+x-y,1/3+x,1/3-z
2/3-x+y,1/3+y,1/3+z
2/3+x,1/3+x-y,1/3+z
2/3-y,1/3-x,1/3+z
1/3+x,2/3+y,2/3+z
1/3-y,2/3+x-y,2/3+z
1/3-x+y,2/3-x,2/3+z
1/3+x-y,2/3-y,2/3-z
1/3-x,2/3-x+y,2/3-z
1/3+y,2/3+x,2/3-z
1/3-x,2/3-y,2/3-z
1/3+y,2/3-x+y,2/3-z
1/3+x-y,2/3+x,2/3-z
1/3-x+y,2/3+y,2/3+z
1/3+x,2/3+x-y,2/3+z
1/3-y,2/3-x,2/3+z
loop_
_atom_site_type_symbol
_atom_site_label
_atom_site_fract_x
_atom_site_fract_y
_atom_site_fract_z
Si Si1 0.539626 0.333334 0.333334
Si Si2 0.122697 0.498137 0.579543
Si Si3 0.962313 0.800739 0.821892
Si Si4 0.569452 0.846915 0.006250
Si Si5 0.233682 0.890667 0.171017
Si Si6 0.337857 0.398934 0.242335
Si Si7 0.281268 0.960593 0.956531
Si Si8 0.667419 0.458941 0.063028
O O1 0.547500 0.273750 0.336182
O O2 0.502833 0.334059 0.379242
O O3 0.112818 0.556409 0.579838
O O4 0.150394 0.494582 0.530324
O O5 0.055290 0.437751 0.586142
O O6 0.907130 0.814260 0.834130
O O7 0.935842 0.727832 0.813856
O O8 0.997461 0.835748 0.775069
O O9 0.582100 0.791050 0.019135
O O10 0.624203 0.893808 0.972186
O O11 0.503314 0.820877 0.981428
O O12 0.566752 0.881111 0.053185
O O13 0.179888 0.820113 0.165534
O O14 0.280720 0.891526 0.210147
O O15 0.267009 0.913856 0.121267
O O16 0.317346 0.333186 0.266847
O O17 0.277695 0.000000 0.000000
O O18 0.720518 0.441036 0.071177
O O19 0.602864 0.397137 0.052823
#
# Coordination Sequence:
#
# PCOD8324106 Si02
#       8
#    18  36  36  36  36  36  36  36
#     4  10  21  34  48  70 102 142 187 236 282 320
#     4  11  20  32  50  75 104 139 184 227 270 318
#     4  10  20  35  53  76 105 139 178 222 263 309
#     4  10  21  36  55  80 108 138 174 217 267 316
#     4  10  20  34  55  80 107 142 178 211 260 318
#     4  10  20  35  55  78 110 141 173 217 260 314
#     4  10  19  34  51  75 105 140 173 216 259 312
#     4  10  21  38  58  79 104 136 176 221 268 317
#
# _framework density 17.700151000000002
#
# number of rings (size 3 to 8) (size 9 to 14) (size 15 to 20)
#    0.000    1.867    2.000    2.600    0.000    0.533 
#    0.000    0.000    0.000   12.267    0.000    0.000 
#    0.000    0.000    0.000   16.533    0.000    0.000 
#
# Total GULP energy -1116319.514403 kJ/mol
# GULP energy per Si atom -12403.550160 kJ/mol
# Density = 1.765987 g / cm^3
# Si number density = 17.700151 Si / 1000 Ang^3
#
#
#
# Elastic Constant Matrix: (Units=GPa)
#
#
# Indices 1 2 3 4 5 6 
#
# 1 71.9600 29.9028 32.6775 0.3881 0.0000 0.0000
# 2 29.9028 71.9600 32.6775 -0.3881 0.0000 0.0000
# 3 32.6775 32.6775 92.3928 0.0000 0.0000 0.0000
# 4 0.3881 -0.3881 0.0000 28.3154 0.0000 0.0000
# 5 0.0000 0.0000 0.0000 0.0000 28.3154 0.3881
# 6 0.0000 0.0000 0.0000 0.0000 0.3881 21.0286
#
#
#
# Elastic Compliance Matrix: (Units=1/GPa)
#
#
# Indices 1 2 3 4 5 6 
#
# 1 0.018241 -0.005542 -0.004491 -0.000326 0.000000 0.000000
# 2 -0.005542 0.018241 -0.004491 0.000326 0.000000 0.000000
# 3 -0.004491 -0.004491 0.014000 0.000000 0.000000 0.000000
# 4 -0.000326 0.000326 0.000000 0.035325 0.000000 0.000000
# 5 0.000000 0.000000 0.000000 0.000000 0.035325 -0.000652
# 6 0.000000 0.000000 0.000000 0.000000 -0.000652 0.047566
#
#
# Mechanical properties :
#
#
# Convention : Reuss Voigt Hill
#
# Bulk Modulus (GPa) = 46.65786 47.42539 47.04162
# Shear Modulus (GPa) = 24.40296 24.93554 24.66925
#
# Velocity S-wave (km/s) = 3.71709 3.75744 3.73732
# Velocity P-wave (km/s) = 6.69625 6.75843 6.72741
#
# Compressibility (1/GPa) = 0.02143262
#
# Stress axis : x y z
#
# Youngs Moduli (GPa) = 54.82169 54.82169 71.42696
#
# Poissons Ratio (x) = 0.30383 0.32080
# Poissons Ratio (y) = 0.30383 0.32080
# Poissons Ratio (z) = 0.24622 0.24622
#
# Static dielectric constant tensor:
#      x y z
#    x 3.210730 0.000000 0.000000 
#    y 0.000000 3.210730 0.000000 
#    z 0.000000 0.000000 3.300500 
# 
# 
# High freq. dielectric constant tensor:
#      x y z
#    x 1.684650 0.000000 0.000000 
#    y 0.000000 1.684650 0.000000 
#    z 0.000000 0.000000 1.688530 
# 
# From -- ./inp_files/9858.got.cif
#   From: 2010.03.12/outbox.cif.g09.slc.cpg/sg166_5_cif.got.tgz:9858.got - 2010.04.02 06:38:31.
