data_PCOD8324708
_publ_section_title
;
Structure prediction by ZEFSAII (Michael W. Deem and Ramdas Pophale) SiO2 
 PCOD8324708
Probable space group: P 65
;
_chemical_formula_sum "Si O2"
_cell_formula_units_Z 36
_cell_length_a 14.221976
_cell_length_b 14.221976
_cell_length_c 8.888109
_cell_angle_alpha 90.000000
_cell_angle_beta 90.000000
_cell_angle_gamma 120.000000
_cell_volume 1556.897017
_symmetry_space_group_name_H-M "P 65"
_symmetry_group_IT_number 170
_symmetry_cell_setting 'hexagonal'
loop_
_space_group_symop_operation_xyz
x,y,z
x-y,x,5/6+z
-y,x-y,2/3+z
-x,-y,1/2+z
-x+y,-x,1/3+z
y,-x+y,1/6+z
loop_
_atom_site_type_symbol
_atom_site_label
_atom_site_fract_x
_atom_site_fract_y
_atom_site_fract_z
Si Si1 0.152766 0.770651 0.398610
Si Si2 0.547860 0.169556 0.692839
Si Si3 0.380659 0.297072 0.006709
Si Si4 0.154083 0.934849 0.620066
Si Si5 0.810209 0.402001 0.023485
Si Si6 0.363927 0.343574 0.661025
O O1 0.176950 0.824940 0.230466
O O2 0.191040 0.864123 0.522185
O O3 0.211832 0.698945 0.417941
O O4 0.026004 0.695753 0.427557
O O5 0.630343 0.130340 0.742764
O O6 0.596513 0.296640 0.727294
O O7 0.526340 0.144667 0.514278
O O8 0.439341 0.101989 0.793167
O O9 0.368663 0.311085 0.832353
O O10 0.238099 0.973798 0.756759
O O11 0.033145 0.870276 0.687190
O O12 0.895350 0.513551 0.937038
#
# Coordination Sequence:
#
# PCOD8324708 Si02
#       6
#     6   6   6   6   6   6
#     4  12  24  48  71 109 147 199 245 304 374 443
#     4  11  24  45  70 111 153 191 250 302 381 455
#     4  11  27  43  74 107 151 195 244 309 369 451
#     4  12  27  51  76 105 143 195 251 314 374 444
#     4  11  23  43  73 111 147 202 242 308 371 460
#     4  11  25  46  74 107 151 192 242 309 377 445
#
# _framework density 23.122916
#
# number of rings (size 3 to 8) (size 9 to 14) (size 15 to 20)
#    0.000    0.667    3.333    4.000    7.000    0.000 
#    6.000    0.000    0.000    0.000    0.000    0.000 
#    0.000    0.000    0.000    0.000    0.000    0.000 
#
# Total GULP energy -446237.019978 kJ/mol
# GULP energy per Si atom -12395.472777 kJ/mol
# Density = 2.307029 g / cm^3
# Si number density = 23.122916 Si / 1000 Ang^3
#
#
#
# Elastic Constant Matrix: (Units=GPa)
#
#
# Indices 1 2 3 4 5 6 
#
# 1 140.7684 67.7414 46.0239 0.0000 0.0000 0.0000
# 2 67.7414 140.7684 46.0239 0.0000 0.0000 0.0000
# 3 46.0239 46.0239 95.2115 0.0000 0.0000 0.0000
# 4 0.0000 0.0000 0.0000 38.5237 0.0000 0.0000
# 5 0.0000 0.0000 0.0000 0.0000 38.5237 0.0000
# 6 0.0000 0.0000 0.0000 0.0000 0.0000 36.5135
#
#
#
# Elastic Compliance Matrix: (Units=1/GPa)
#
#
# Indices 1 2 3 4 5 6 
#
# 1 0.009895 -0.003798 -0.002947 0.000000 0.000000 0.000000
# 2 -0.003798 0.009895 -0.002947 0.000000 0.000000 0.000000
# 3 -0.002947 -0.002947 0.013352 0.000000 0.000000 0.000000
# 4 0.000000 0.000000 0.000000 0.025958 0.000000 0.000000
# 5 0.000000 0.000000 0.000000 0.000000 0.025958 0.000000
# 6 0.000000 0.000000 0.000000 0.000000 0.000000 0.027387
#
#
# Mechanical properties :
#
#
# Convention : Reuss Voigt Hill
#
# Bulk Modulus (GPa) = 72.68821 77.36963 75.02892
# Shear Modulus (GPa) = 36.65229 37.17613 36.91421
#
# Velocity S-wave (km/s) = 3.98566 4.01404 3.99987
# Velocity P-wave (km/s) = 7.25841 7.41729 7.33828
#
# Compressibility (1/GPa) = 0.01375739
#
# Stress axis : x y z
#
# Youngs Moduli (GPa) = 101.05826 101.05826 74.89406
#
# Poissons Ratio (x) = 0.38385 0.22073
# Poissons Ratio (y) = 0.38385 0.22073
# Poissons Ratio (z) = 0.29784 0.29784
#
# Static dielectric constant tensor:
#      x y z
#    x 4.308920 0.000000 0.000000 
#    y 0.000000 4.308920 0.000000 
#    z 0.000000 0.000000 3.996760 
# 
# 
# High freq. dielectric constant tensor:
#      x y z
#    x 1.918940 0.000000 0.000000 
#    y 0.000000 1.918940 0.000000 
#    z 0.000000 0.000000 1.909670 
# 
# From -- ./inp_files/633.got.cif
#   From: 2010.03.12/outbox.cif.g09.slc.cpg/sg170_cif.got.tgz:633.got - 2010.04.02 06:47:37.
