data_PCOD8324590
_publ_section_title
;
Structure prediction by ZEFSAII (Michael W. Deem and Ramdas Pophale) SiO2 
 PCOD8324590
Probable space group: P 61
;
_chemical_formula_sum "Si O2"
_cell_formula_units_Z 30
_cell_length_a 11.415061
_cell_length_b 11.415061
_cell_length_c 12.245549
_cell_angle_alpha 90.000000
_cell_angle_beta 90.000000
_cell_angle_gamma 120.000000
_cell_volume 1381.864199
_symmetry_space_group_name_H-M "P 61"
_symmetry_group_IT_number 169
_symmetry_cell_setting 'hexagonal'
loop_
_space_group_symop_operation_xyz
x,y,z
x-y,x,1/6+z
-y,x-y,1/3+z
-x,-y,1/2+z
-x+y,-x,2/3+z
y,-x+y,5/6+z
loop_
_atom_site_type_symbol
_atom_site_label
_atom_site_fract_x
_atom_site_fract_y
_atom_site_fract_z
Si Si1 0.318331 0.510786 0.162620
Si Si2 0.846595 0.349840 0.730567
Si Si3 0.010078 0.414262 0.945243
Si Si4 0.890667 0.488722 0.124048
Si Si5 0.244770 0.124804 0.883654
O O1 0.204121 0.544848 0.200883
O O2 0.425837 0.544901 0.260532
O O3 0.247481 0.355170 0.122290
O O4 0.405884 0.604937 0.061265
O O5 0.896527 0.364916 0.853877
O O6 0.727416 0.196717 0.714065
O O7 0.972529 0.374958 0.656296
O O8 0.931019 0.393364 0.058354
O O9 0.078781 0.322695 0.960573
O O10 0.150944 0.994945 0.807609
#
# Coordination Sequence:
#
# PCOD8324590 Si02
#       5
#     6   6   6   6   6
#     4  11  22  43  70 105 138 174 234 300 366 409
#     4  11  24  39  66 104 136 179 226 297 359 411
#     4  11  24  41  70 103 134 182 236 292 348 428
#     4  11  23  41  66 103 140 178 228 291 361 426
#     4  12  25  48  74 103 144 195 240 284 356 434
#
# _framework density 21.709804999999999
#
# number of rings (size 3 to 8) (size 9 to 14) (size 15 to 20)
#    0.000    0.800    4.000    3.600    8.400    0.000 
#    0.000    2.000    0.000    0.000    0.000    0.000 
#    0.000    0.000    0.000    0.000    0.000    0.000 
#
# Total GULP energy -371817.803854 kJ/mol
# GULP energy per Si atom -12393.926795 kJ/mol
# Density = 2.166039 g / cm^3
# Si number density = 21.709805 Si / 1000 Ang^3
#
#
#
# Elastic Constant Matrix: (Units=GPa)
#
#
# Indices 1 2 3 4 5 6 
#
# 1 100.1057 49.8966 26.3697 0.0000 0.0000 0.0000
# 2 49.8966 100.1057 26.3697 0.0000 0.0000 0.0000
# 3 26.3697 26.3697 67.5667 0.0000 0.0000 0.0000
# 4 0.0000 0.0000 0.0000 42.5525 0.0000 0.0000
# 5 0.0000 0.0000 0.0000 0.0000 42.5525 0.0000
# 6 0.0000 0.0000 0.0000 0.0000 0.0000 25.1045
#
#
#
# Elastic Compliance Matrix: (Units=1/GPa)
#
#
# Indices 1 2 3 4 5 6 
#
# 1 0.013822 -0.006095 -0.003016 0.000000 0.000000 0.000000
# 2 -0.006095 0.013822 -0.003016 0.000000 0.000000 0.000000
# 3 -0.003016 -0.003016 0.017154 0.000000 0.000000 0.000000
# 4 0.000000 0.000000 0.000000 0.023500 0.000000 0.000000
# 5 0.000000 0.000000 0.000000 0.000000 0.023500 0.000000
# 6 0.000000 0.000000 0.000000 0.000000 0.000000 0.039833
#
#
# Mechanical properties :
#
#
# Convention : Reuss Voigt Hill
#
# Bulk Modulus (GPa) = 48.67298 52.56111 50.61705
# Shear Modulus (GPa) = 30.72527 33.05138 31.88833
#
# Velocity S-wave (km/s) = 3.76609 3.90605 3.83671
# Velocity P-wave (km/s) = 6.43271 6.67879 6.55691
#
# Compressibility (1/GPa) = 0.02054528
#
# Stress axis : x y z
#
# Youngs Moduli (GPa) = 72.34959 72.34959 58.29541
#
# Poissons Ratio (x) = 0.44097 0.17580
# Poissons Ratio (y) = 0.44097 0.17580
# Poissons Ratio (z) = 0.21818 0.21818
#
# Static dielectric constant tensor:
#      x y z
#    x 3.906830 0.000000 0.000000 
#    y 0.000000 3.906830 0.000000 
#    z 0.000000 0.000000 4.120040 
# 
# 
# High freq. dielectric constant tensor:
#      x y z
#    x 1.845020 0.000000 0.000000 
#    y 0.000000 1.845020 0.000000 
#    z 0.000000 0.000000 1.863810 
# 
# From -- ./inp_files/1128.got.cif
#   From: 2010.03.12/outbox.cif.g09.slc.cpg/sg169_cif.got.tgz:1128.got - 2010.04.02 06:46:06.
