data_PCOD8324752
_publ_section_title
;
Structure prediction by ZEFSAII (Michael W. Deem and Ramdas Pophale) SiO2 
 PCOD8324752
Probable space group: P 62
;
_chemical_formula_sum "Si O2"
_cell_formula_units_Z 42
_cell_length_a 15.074721
_cell_length_b 15.074721
_cell_length_c 9.849703
_cell_angle_alpha 90.000000
_cell_angle_beta 90.000000
_cell_angle_gamma 120.000000
_cell_volume 1938.439867
_symmetry_space_group_name_H-M "P 62"
_symmetry_group_IT_number 171
_symmetry_cell_setting 'hexagonal'
loop_
_space_group_symop_operation_xyz
x,y,z
x-y,x,1/3+z
-y,x-y,2/3+z
-x,-y,z
-x+y,-x,1/3+z
y,-x+y,2/3+z
loop_
_atom_site_type_symbol
_atom_site_label
_atom_site_fract_x
_atom_site_fract_y
_atom_site_fract_z
Si Si1 0.306920 0.507384 0.950360
Si Si2 0.256790 0.067459 0.090759
Si Si3 0.219717 0.025124 0.783441
Si Si4 0.265910 0.798680 0.766694
Si Si5 0.657487 0.393211 0.229633
Si Si6 0.358466 0.980673 0.581762
Si Si7 0.909366 0.679044 0.985513
O O1 0.329706 0.611401 0.873411
O O2 0.390272 0.471701 0.910971
O O3 0.310804 0.524474 0.110571
O O4 0.193668 0.412237 0.919295
O O5 0.169812 0.101297 0.107114
O O6 0.359418 0.170698 0.136118
O O7 0.244022 0.980388 0.191536
O O8 0.261470 0.034097 0.937330
O O9 0.287292 0.004918 0.677384
O O10 0.233661 0.133499 0.737498
O O11 0.230966 0.687741 0.700995
O O12 0.323123 0.790443 0.901046
O O13 0.348210 0.880120 0.657299
O O14 0.323556 0.957740 0.425134
#
# Coordination Sequence:
#
# PCOD8324752 Si02
#       7
#     6   6   6   6   6   6   6
#     4  10  22  40  64  93 132 174 224 277 335 397
#     4  11  24  40  70  95 135 174 227 279 344 398
#     4  10  21  42  63  96 132 171 221 275 322 407
#     4  10  20  42  61  98 127 179 218 281 334 408
#     4  10  21  38  65  89 134 169 220 284 332 383
#     4  10  20  41  72  89 131 173 233 262 332 415
#     4  11  22  42  69  99 130 180 220 278 341 402
#
# _framework density 21.666909
#
# number of rings (size 3 to 8) (size 9 to 14) (size 15 to 20)
#    0.000    1.714    4.286    0.857    4.000    4.571 
#    5.143    4.286    0.000    0.000    0.000    0.000 
#    0.000    0.000    0.000    0.000    0.000    0.000 
#
# Total GULP energy -520303.911241 kJ/mol
# GULP energy per Si atom -12388.188363 kJ/mol
# Density = 2.161759 g / cm^3
# Si number density = 21.666909 Si / 1000 Ang^3
#
#
#
# Elastic Constant Matrix: (Units=GPa)
#
#
# Indices 1 2 3 4 5 6 
#
# 1 68.6565 -0.5946 10.4827 0.0000 0.0000 0.0000
# 2 -0.5946 68.6565 10.4827 0.0000 0.0000 0.0000
# 3 10.4827 10.4827 68.5941 0.0000 0.0000 0.0000
# 4 0.0000 0.0000 0.0000 36.4076 0.0000 0.0000
# 5 0.0000 0.0000 0.0000 0.0000 36.4076 0.0000
# 6 0.0000 0.0000 0.0000 0.0000 0.0000 34.6255
#
#
#
# Elastic Compliance Matrix: (Units=1/GPa)
#
#
# Indices 1 2 3 4 5 6 
#
# 1 0.014929 0.000489 -0.002356 0.000000 0.000000 0.000000
# 2 0.000489 0.014929 -0.002356 0.000000 0.000000 0.000000
# 3 -0.002356 -0.002356 0.015299 0.000000 0.000000 0.000000
# 4 0.000000 0.000000 0.000000 0.027467 0.000000 0.000000
# 5 0.000000 0.000000 0.000000 0.000000 0.027467 0.000000
# 6 0.000000 0.000000 0.000000 0.000000 0.000000 0.028880
#
#
# Mechanical properties :
#
#
# Convention : Reuss Voigt Hill
#
# Bulk Modulus (GPa) = 27.24030 27.40539 27.32285
# Shear Modulus (GPa) = 33.41019 33.85722 33.63370
#
# Velocity S-wave (km/s) = 3.93108 3.95729 3.94421
# Velocity P-wave (km/s) = 5.76230 5.79277 5.77756
#
# Compressibility (1/GPa) = 0.03671031
#
# Stress axis : x y z
#
# Youngs Moduli (GPa) = 66.98252 66.98252 65.36512
#
# Poissons Ratio (x) = -0.03276 0.15402
# Poissons Ratio (y) = -0.03276 0.15402
# Poissons Ratio (z) = 0.15783 0.15783
#
# Static dielectric constant tensor:
#      x y z
#    x 4.290530 0.000000 0.000000 
#    y 0.000000 4.290530 0.000000 
#    z 0.000000 0.000000 3.704450 
# 
# 
# High freq. dielectric constant tensor:
#      x y z
#    x 1.850100 0.000000 0.000000 
#    y 0.000000 1.850100 0.000000 
#    z 0.000000 0.000000 1.839940 
# 
# From -- ./inp_files/1671.got.cif
#   From: 2010.03.12/outbox.cif.g09.slc.cpg/sg171_1_cif.got.tgz:1671.got - 2010.04.02 06:49:11.
