data_PCOD8324059
_publ_section_title
;
Structure prediction by ZEFSAII (Michael W. Deem and Ramdas Pophale) SiO2 
 PCOD8324059
Probable space group: R -3 M
;
_chemical_formula_sum "Si O2"
_cell_formula_units_Z 252
_cell_length_a 31.862268
_cell_length_b 31.862268
_cell_length_c 15.568307
_cell_angle_alpha 90.000000
_cell_angle_beta 90.000000
_cell_angle_gamma 120.000000
_cell_volume 13687.539683
_symmetry_space_group_name_H-M "R -3 M"
_symmetry_group_IT_number 166
_symmetry_cell_setting 'hexagonal'
loop_
_space_group_symop_operation_xyz
x,y,z
-y,x-y,z
-x+y,-x,z
x-y,-y,-z
-x,-x+y,-z
y,x,-z
-x,-y,-z
y,-x+y,-z
x-y,x,-z
-x+y,y,z
x,x-y,z
-y,-x,z
2/3+x,1/3+y,1/3+z
2/3-y,1/3+x-y,1/3+z
2/3-x+y,1/3-x,1/3+z
2/3+x-y,1/3-y,1/3-z
2/3-x,1/3-x+y,1/3-z
2/3+y,1/3+x,1/3-z
2/3-x,1/3-y,1/3-z
2/3+y,1/3-x+y,1/3-z
2/3+x-y,1/3+x,1/3-z
2/3-x+y,1/3+y,1/3+z
2/3+x,1/3+x-y,1/3+z
2/3-y,1/3-x,1/3+z
1/3+x,2/3+y,2/3+z
1/3-y,2/3+x-y,2/3+z
1/3-x+y,2/3-x,2/3+z
1/3+x-y,2/3-y,2/3-z
1/3-x,2/3-x+y,2/3-z
1/3+y,2/3+x,2/3-z
1/3-x,2/3-y,2/3-z
1/3+y,2/3-x+y,2/3-z
1/3+x-y,2/3+x,2/3-z
1/3-x+y,2/3+y,2/3+z
1/3+x,2/3+x-y,2/3+z
1/3-y,2/3-x,2/3+z
loop_
_atom_site_type_symbol
_atom_site_label
_atom_site_fract_x
_atom_site_fract_y
_atom_site_fract_z
Si Si1 0.277709 0.461467 0.306811
Si Si2 0.706142 0.763658 0.095032
Si Si3 0.277555 0.881410 0.164738
Si Si4 0.199121 0.052803 0.362058
Si Si5 0.185740 0.720224 0.830194
Si Si6 0.184893 0.721357 0.504646
Si Si7 0.291544 0.237873 0.100897
O O1 0.239624 0.479248 0.285354
O O2 0.264452 0.413189 0.253144
O O3 0.330924 0.505913 0.281386
O O4 0.275526 0.447317 0.405911
O O5 0.661637 0.754708 0.155647
O O6 0.749604 0.818591 0.105245
O O7 0.725533 0.727862 0.123952
O O8 0.688808 0.754202 0.996236
O O9 0.333334 0.923257 0.166667
O O10 0.265345 0.845179 0.085067
O O11 0.178583 0.089292 0.381664
O O12 0.215043 0.057037 0.263480
O O13 0.241479 0.758522 0.806152
O O14 0.174327 0.665883 0.807219
O O15 0.150711 0.732666 0.776032
O O16 0.241103 0.758898 0.524896
O O17 0.333334 0.246333 0.166667
#
# Coordination Sequence:
#
# PCOD8324059 Si02
#       7
#    36  36  36  36  36  36  36
#     4   9  18  32  49  69  96 129 164 201 244 295
#     4  10  21  34  50  72  99 132 166 201 240 285
#     4  10  19  31  47  70  97 129 167 204 241 281
#     4   9  17  30  49  71  95 123 159 203 246 289
#     4   9  18  33  52  73  96 125 160 197 242 294
#     4   9  19  35  52  71  97 130 164 200 244 293
#     4  10  20  35  52  72 100 131 164 201 242 285
#
# _framework density 18.410906000000001
#
# number of rings (size 3 to 8) (size 9 to 14) (size 15 to 20)
#    0.000    2.571    0.000    1.714    0.000    3.714 
#    0.000    1.429    0.000    0.571    0.000    4.000 
#    0.000    3.429    0.000    7.429    0.000    7.429 
#
# Total GULP energy -1041488.734859 kJ/mol
# GULP energy per Si atom -12398.675415 kJ/mol
# Density = 1.836900 g / cm^3
# Si number density = 18.410906 Si / 1000 Ang^3
#
#
#
# Elastic Constant Matrix: (Units=GPa)
#
#
# Indices 1 2 3 4 5 6 
#
# 1 104.7532 70.6239 26.2121 0.5944 -0.0004 0.0000
# 2 70.6239 104.7533 26.2125 -0.5945 0.0002 0.0000
# 3 26.2121 26.2125 43.1897 -0.0002 -0.0010 -0.0001
# 4 0.5944 -0.5945 -0.0002 22.7386 0.0000 0.0002
# 5 -0.0004 0.0002 -0.0010 0.0000 22.7383 0.5945
# 6 0.0000 0.0000 -0.0001 0.0002 0.5945 17.0647
#
#
#
# Elastic Compliance Matrix: (Units=1/GPa)
#
#
# Indices 1 2 3 4 5 6 
#
# 1 0.018146 -0.011181 -0.004227 -0.000767 0.000000 0.000000
# 2 -0.011181 0.018146 -0.004228 0.000767 -0.000001 0.000000
# 3 -0.004227 -0.004228 0.028285 0.000000 0.000001 0.000000
# 4 -0.000767 0.000767 0.000000 0.044018 0.000000 -0.000001
# 5 0.000000 -0.000001 0.000001 0.000000 0.044019 -0.001533
# 6 0.000000 0.000000 0.000000 -0.000001 -0.001533 0.058654
#
#
# Mechanical properties :
#
#
# Convention : Reuss Voigt Hill
#
# Bulk Modulus (GPa) = 39.51578 55.42147 47.46863
# Shear Modulus (GPa) = 19.30685 21.15153 20.22919
#
# Velocity S-wave (km/s) = 3.24182 3.39316 3.31835
# Velocity P-wave (km/s) = 5.96007 6.74679 6.36560
#
# Compressibility (1/GPa) = 0.02530634
#
# Stress axis : x y z
#
# Youngs Moduli (GPa) = 55.10763 55.10741 35.35422
#
# Poissons Ratio (x) = 0.61614 0.14946
# Poissons Ratio (y) = 0.61614 0.14947
# Poissons Ratio (z) = 0.23296 0.23298
#
# Static dielectric constant tensor:
#      x y z
#    x 3.341610 0.000000 0.000000 
#    y 0.000000 3.341610 0.000000 
#    z 0.000000 0.000000 3.466500 
# 
# 
# High freq. dielectric constant tensor:
#      x y z
#    x 1.698460 0.000000 0.000000 
#    y 0.000000 1.698460 0.000000 
#    z 0.000000 0.000000 1.720010 
# 
# From -- ./inp_files/5816.got.cif
#   From: 2010.03.12/outbox.cif.g09.slc.cpg/sg166_3_cif.got.tgz:5816.got - 2010.04.02 06:38:31.
