data_PCOD8324144
_publ_section_title
;
Structure prediction by ZEFSAII (Michael W. Deem and Ramdas Pophale) SiO2 
 PCOD8324144
Probable space group: R -3 M
;
_chemical_formula_sum "Si O2"
_cell_formula_units_Z 252
_cell_length_a 30.931795
_cell_length_b 30.931795
_cell_length_c 17.491847
_cell_angle_alpha 90.000000
_cell_angle_beta 90.000000
_cell_angle_gamma 120.000000
_cell_volume 14493.609237
_symmetry_space_group_name_H-M "R -3 M"
_symmetry_group_IT_number 166
_symmetry_cell_setting 'hexagonal'
loop_
_space_group_symop_operation_xyz
x,y,z
-y,x-y,z
-x+y,-x,z
x-y,-y,-z
-x,-x+y,-z
y,x,-z
-x,-y,-z
y,-x+y,-z
x-y,x,-z
-x+y,y,z
x,x-y,z
-y,-x,z
2/3+x,1/3+y,1/3+z
2/3-y,1/3+x-y,1/3+z
2/3-x+y,1/3-x,1/3+z
2/3+x-y,1/3-y,1/3-z
2/3-x,1/3-x+y,1/3-z
2/3+y,1/3+x,1/3-z
2/3-x,1/3-y,1/3-z
2/3+y,1/3-x+y,1/3-z
2/3+x-y,1/3+x,1/3-z
2/3-x+y,1/3+y,1/3+z
2/3+x,1/3+x-y,1/3+z
2/3-y,1/3-x,1/3+z
1/3+x,2/3+y,2/3+z
1/3-y,2/3+x-y,2/3+z
1/3-x+y,2/3-x,2/3+z
1/3+x-y,2/3-y,2/3-z
1/3-x,2/3-x+y,2/3-z
1/3+y,2/3+x,2/3-z
1/3-x,2/3-y,2/3-z
1/3+y,2/3-x+y,2/3-z
1/3+x-y,2/3+x,2/3-z
1/3-x+y,2/3+y,2/3+z
1/3+x,2/3+x-y,2/3+z
1/3-y,2/3-x,2/3+z
loop_
_atom_site_type_symbol
_atom_site_label
_atom_site_fract_x
_atom_site_fract_y
_atom_site_fract_z
Si Si1 0.000034 0.902383 0.591076
Si Si2 0.640412 0.868756 0.760361
Si Si3 0.119762 0.508996 0.668953
Si Si4 0.471058 0.137886 0.742718
Si Si5 0.137451 0.372257 0.054806
Si Si6 0.754711 0.145055 0.647821
Si Si7 0.809277 0.719556 0.853984
O O1 0.950544 0.901088 0.622969
O O2 0.001333 0.854115 0.622024
O O3 0.000000 0.902926 0.500000
O O4 0.048243 0.951758 0.623010
O O5 0.627962 0.813981 0.786501
O O6 0.666667 0.906311 0.833334
O O7 0.587277 0.860531 0.728749
O O8 0.680262 0.889090 0.693754
O O9 0.134495 0.567248 0.658102
O O10 0.168247 0.501581 0.666667
O O11 0.096826 0.489983 0.752747
O O12 0.470786 0.137452 0.833334
O O13 0.468416 0.088464 0.712292
O O14 0.422951 0.138144 0.711544
O O15 0.193383 0.386766 0.079256
O O16 0.096855 0.333354 0.115682
O O17 0.797950 0.202051 0.652292
O O18 0.774173 0.107507 0.666667
O O19 0.730284 0.131328 0.562565
O O20 0.854483 0.708966 0.845369
#
# Coordination Sequence:
#
# PCOD8324144 Si02
#       7
#    36  36  36  36  36  36  36
#     4   9  17  29  45  65  91 124 161 201 243 284
#     4   8  15  29  49  73  98 123 153 188 231 288
#     4   9  17  30  51  77 103 133 169 210 254 299
#     4  11  21  30  44  70  98 121 155 202 244 286
#     4   9  17  31  50  69  93 124 152 186 237 287
#     4  10  20  34  51  67  88 125 167 202 239 288
#     4   8  16  32  51  69  90 121 162 200 235 284
#
# _framework density 17.386973000000001
#
# number of rings (size 3 to 8) (size 9 to 14) (size 15 to 20)
#    0.000    2.857    0.000    3.571    0.000    4.571 
#    0.000    2.857    0.000    5.286    0.000    0.000 
#    0.000    0.000    0.000    0.000    0.000    0.000 
#
# Total GULP energy -1040860.448074 kJ/mol
# GULP energy per Si atom -12391.195810 kJ/mol
# Density = 1.734740 g / cm^3
# Si number density = 17.386973 Si / 1000 Ang^3
#
#
#
# Elastic Constant Matrix: (Units=GPa)
#
#
# Indices 1 2 3 4 5 6 
#
# 1 86.1985 68.1979 26.9423 6.0723 0.0008 0.0000
# 2 68.1979 86.1985 26.9423 -6.0723 -0.0008 0.0000
# 3 26.9423 26.9423 84.6299 0.0000 0.0000 0.0000
# 4 6.0723 -6.0723 0.0000 7.2560 0.0000 -0.0008
# 5 0.0008 -0.0008 0.0000 0.0000 7.2560 6.0724
# 6 0.0000 0.0000 0.0000 -0.0008 6.0724 9.0003
#
#
#
# Elastic Compliance Matrix: (Units=1/GPa)
#
#
# Indices 1 2 3 4 5 6 
#
# 1 0.067442 -0.060156 -0.002320 -0.106783 -0.000015 0.000001
# 2 -0.060156 0.067442 -0.002320 0.106783 0.000015 -0.000001
# 3 -0.002320 -0.002320 0.013293 0.000000 0.000000 0.000000
# 4 -0.106783 0.106783 0.000000 0.316544 0.000002 0.000027
# 5 -0.000015 0.000015 0.000000 0.000002 0.316557 -0.213577
# 6 0.000001 -0.000001 0.000000 0.000027 -0.213577 0.255206
#
#
# Mechanical properties :
#
#
# Convention : Reuss Voigt Hill
#
# Bulk Modulus (GPa) = 53.80026 55.68800 54.74413
# Shear Modulus (GPa) = 4.26523 13.69875 8.98199
#
# Velocity S-wave (km/s) = 1.56794 2.80995 2.27533
# Velocity P-wave (km/s) = 5.85559 6.52885 6.20136
#
# Compressibility (1/GPa) = 0.01858727
#
# Stress axis : x y z
#
# Youngs Moduli (GPa) = 14.82748 14.82748 75.22695
#
# Poissons Ratio (x) = 0.89196 0.17450
# Poissons Ratio (y) = 0.89196 0.17450
# Poissons Ratio (z) = 0.03439 0.03439
#
# Static dielectric constant tensor:
#      x y z
#    x 3.137900 0.000000 0.000000 
#    y 0.000000 3.137900 0.000000 
#    z 0.000000 0.000000 3.366750 
# 
# 
# High freq. dielectric constant tensor:
#      x y z
#    x 1.655560 0.000000 0.000000 
#    y 0.000000 1.655560 0.000000 
#    z 0.000000 0.000000 1.661420 
# 
# From -- ./inp_files/5871.got.cif
#   From: 2010.03.12/outbox.cif.g09.slc.cpg/sg166_3_cif.got.tgz:5871.got - 2010.04.02 06:38:31.
