data_PCOD8324579
_publ_section_title
;
Structure prediction by ZEFSAII (Michael W. Deem and Ramdas Pophale) SiO2 
 PCOD8324579
Probable space group: P 61
;
_chemical_formula_sum "Si O2"
_cell_formula_units_Z 24
_cell_length_a 7.495005
_cell_length_b 7.495005
_cell_length_c 26.735650
_cell_angle_alpha 90.000000
_cell_angle_beta 90.000000
_cell_angle_gamma 120.000000
_cell_volume 1300.664338
_symmetry_space_group_name_H-M "P 61"
_symmetry_group_IT_number 169
_symmetry_cell_setting 'hexagonal'
loop_
_space_group_symop_operation_xyz
x,y,z
x-y,x,1/6+z
-y,x-y,1/3+z
-x,-y,1/2+z
-x+y,-x,2/3+z
y,-x+y,5/6+z
loop_
_atom_site_type_symbol
_atom_site_label
_atom_site_fract_x
_atom_site_fract_y
_atom_site_fract_z
Si Si1 0.607808 0.691536 0.461610
Si Si2 0.295245 0.811703 0.342420
Si Si3 0.368698 0.283069 0.848237
Si Si4 0.314485 0.865619 0.457336
O O1 0.441054 0.455751 0.477595
O O2 0.683752 0.696934 0.405134
O O3 0.811551 0.768577 0.496472
O O4 0.507948 0.834679 0.468555
O O5 0.389346 0.655502 0.343257
O O6 0.278988 0.877344 0.398700
O O7 0.076329 0.714519 0.316434
O O8 0.322588 0.431512 0.814285
#
# Coordination Sequence:
#
# PCOD8324579 Si02
#       4
#     6   6   6   6
#     4   9  21  38  56  88 118 148 198 238 288 354
#     4   9  23  37  59  90 113 157 196 237 294 351
#     4   9  20  38  58  86 117 153 191 245 288 344
#     4  11  20  41  61  82 122 156 189 248 296 339
#
# _framework density 18.452110999999999
#
# number of rings (size 3 to 8) (size 9 to 14) (size 15 to 20)
#    1.500    1.000    0.000    1.500    3.500    0.000 
#    4.500    2.500    0.000    0.000    0.000    0.000 
#    0.000    0.000    0.000    0.000    0.000    0.000 
#
# Total GULP energy -297341.455219 kJ/mol
# GULP energy per Si atom -12389.227301 kJ/mol
# Density = 1.841011 g / cm^3
# Si number density = 18.452111 Si / 1000 Ang^3
#
#
#
# Elastic Constant Matrix: (Units=GPa)
#
#
# Indices 1 2 3 4 5 6 
#
# 1 62.8005 10.5229 51.5458 0.0000 0.0000 0.0000
# 2 10.5229 62.8005 51.5458 0.0000 0.0000 0.0000
# 3 51.5458 51.5458 161.8347 0.0000 0.0000 0.0000
# 4 0.0000 0.0000 0.0000 31.7524 0.0000 0.0000
# 5 0.0000 0.0000 0.0000 0.0000 31.7524 0.0000
# 6 0.0000 0.0000 0.0000 0.0000 0.0000 26.1388
#
#
#
# Elastic Compliance Matrix: (Units=1/GPa)
#
#
# Indices 1 2 3 4 5 6 
#
# 1 0.021914 0.002785 -0.007867 0.000000 0.000000 0.000000
# 2 0.002785 0.021914 -0.007867 0.000000 0.000000 0.000000
# 3 -0.007867 -0.007867 0.011190 0.000000 0.000000 0.000000
# 4 0.000000 0.000000 0.000000 0.031494 0.000000 0.000000
# 5 0.000000 0.000000 0.000000 0.000000 0.031494 0.000000
# 6 0.000000 0.000000 0.000000 0.000000 0.000000 0.038257
#
#
# Mechanical properties :
#
#
# Convention : Reuss Voigt Hill
#
# Bulk Modulus (GPa) = 34.33963 57.18495 45.76229
# Shear Modulus (GPa) = 26.05980 29.51682 27.78831
#
# Velocity S-wave (km/s) = 3.76213 4.00389 3.88489
# Velocity P-wave (km/s) = 6.12552 7.24108 6.70653
#
# Compressibility (1/GPa) = 0.02912087
#
# Stress axis : x y z
#
# Youngs Moduli (GPa) = 45.63354 45.63354 89.36214
#
# Poissons Ratio (x) = -0.12709 0.70299
# Poissons Ratio (y) = -0.12709 0.70299
# Poissons Ratio (z) = 0.35899 0.35899
#
# Static dielectric constant tensor:
#      x y z
#    x 3.115130 0.000000 0.000000 
#    y 0.000000 3.115130 0.000000 
#    z 0.000000 0.000000 3.529900 
# 
# 
# High freq. dielectric constant tensor:
#      x y z
#    x 1.694570 0.000000 0.000000 
#    y 0.000000 1.694570 0.000000 
#    z 0.000000 0.000000 1.733860 
# 
# From -- ./inp_files/1452.got.cif
#   From: 2010.03.12/outbox.cif.g09.slc.cpg/sg169_cif.got.tgz:1452.got - 2010.04.02 06:46:06.
