data_PCOD8324317
_publ_section_title
;
Structure prediction by ZEFSAII (Michael W. Deem and Ramdas Pophale) SiO2 
 PCOD8324317
Probable space group: R -3 C 
;
_chemical_formula_sum "Si O2"
_cell_formula_units_Z 192
_cell_length_a 23.247130
_cell_length_b 23.247130
_cell_length_c 22.961080
_cell_angle_alpha 90.000000
_cell_angle_beta 90.000000
_cell_angle_gamma 120.000000
_cell_volume 10746.366104
_symmetry_space_group_name_H-M "R -3 C "
_symmetry_group_IT_number 167
_symmetry_cell_setting 'hexagonal'
loop_
_space_group_symop_operation_xyz
x,y,z
-y,x-y,z
-x+y,-x,z
x-y,-y,1/2-z
-x,-x+y,1/2-z
y,x,1/2-z
-x,-y,-z
y,-x+y,-z
x-y,x,-z
-x+y,y,1/2+z
x,x-y,1/2+z
-y,-x,1/2+z
2/3+x,1/3+y,1/3+z
2/3-y,1/3+x-y,1/3+z
2/3-x+y,1/3-x,1/3+z
2/3+x-y,1/3-y,5/6-z
2/3-x,1/3-x+y,5/6-z
2/3+y,1/3+x,5/6-z
2/3-x,1/3-y,1/3-z
2/3+y,1/3-x+y,1/3-z
2/3+x-y,1/3+x,1/3-z
2/3-x+y,1/3+y,5/6+z
2/3+x,1/3+x-y,5/6+z
2/3-y,1/3-x,5/6+z
1/3+x,2/3+y,2/3+z
1/3-y,2/3+x-y,2/3+z
1/3-x+y,2/3-x,2/3+z
1/3+x-y,2/3-y,1/6-z
1/3-x,2/3-x+y,1/6-z
1/3+y,2/3+x,1/6-z
1/3-x,2/3-y,2/3-z
1/3+y,2/3-x+y,2/3-z
1/3+x-y,2/3+x,2/3-z
1/3-x+y,2/3+y,1/6+z
1/3+x,2/3+x-y,1/6+z
1/3-y,2/3-x,1/6+z
loop_
_atom_site_type_symbol
_atom_site_label
_atom_site_fract_x
_atom_site_fract_y
_atom_site_fract_z
Si Si1 0.333334 0.666667 0.485027
Si Si2 0.086097 0.196481 0.066964
Si Si3 0.001259 0.608071 0.377046
Si Si4 0.425416 0.000000 0.750000
Si Si5 0.232256 0.529335 0.810390
Si Si6 0.806506 0.000000 0.750000
Si Si7 0.845352 0.805481 0.559520
O O1 0.333334 0.666668 0.416667
O O2 0.363777 0.740843 0.508520
O O3 0.103328 0.270600 0.082686
O O4 0.152176 0.190810 0.072307
O O5 0.032449 0.146059 0.111475
O O6 0.054930 0.174784 0.003046
O O7 0.998428 0.615886 0.306667
O O8 0.938992 0.540043 0.397273
O O9 0.001713 0.666667 0.416667
O O10 0.070386 0.608802 0.389114
O O11 0.196972 0.492786 0.869606
O O12 0.247314 0.480972 0.772649
#
# Coordination Sequence:
#
# PCOD8324317 Si02
#       7
#    12  36  36  18  36  18  36
#     4  12  24  36  58  83 118 156 201 226 287 373
#     4  11  21  37  57  89 117 155 193 247 297 351
#     4   9  21  41  60  87 117 155 200 251 296 350
#     4  10  20  37  66  82 111 162 204 236 300 360
#     4  12  22  38  60  87 120 159 193 243 304 358
#     4  10  22  41  62  80 127 156 198 246 300 354
#     4  11  23  35  61  90 121 152 199 246 302 353
#
# _framework density 17.866505
#
# number of rings (size 3 to 8) (size 9 to 14) (size 15 to 20)
#    0.562    0.750    6.562    0.000    1.312    0.750 
#    0.000    1.875    6.188    0.000    0.000    0.000 
#    0.000    0.000    0.000    0.000    0.000    0.000 
#
# Total GULP energy -793327.499651 kJ/mol
# GULP energy per Si atom -12395.742182 kJ/mol
# Density = 1.782584 g / cm^3
# Si number density = 17.866505 Si / 1000 Ang^3
#
#
#
# Elastic Constant Matrix: (Units=GPa)
#
#
# Indices 1 2 3 4 5 6 
#
# 1 87.4752 32.7977 44.1374 -1.7210 -0.0008 -0.0001
# 2 32.7977 87.4757 44.1373 1.7225 0.0005 0.0000
# 3 44.1374 44.1373 124.8536 0.0000 -0.0003 0.0000
# 4 -1.7210 1.7225 0.0000 39.0656 0.0001 0.0007
# 5 -0.0008 0.0005 -0.0003 0.0001 39.0614 -1.7211
# 6 -0.0001 0.0000 0.0000 0.0007 -1.7211 27.3388
#
#
#
# Elastic Compliance Matrix: (Units=1/GPa)
#
#
# Indices 1 2 3 4 5 6 
#
# 1 0.014784 -0.003556 -0.003969 0.000808 0.000000 0.000000
# 2 -0.003556 0.014784 -0.003969 -0.000809 0.000000 0.000000
# 3 -0.003969 -0.003969 0.010816 0.000000 0.000000 0.000000
# 4 0.000808 -0.000809 0.000000 0.025669 0.000000 -0.000001
# 5 0.000000 0.000000 0.000000 0.000000 0.025672 0.001616
# 6 0.000000 0.000000 0.000000 -0.000001 0.001616 0.036680
#
#
# Mechanical properties :
#
#
# Convention : Reuss Voigt Hill
#
# Bulk Modulus (GPa) = 57.48992 60.21660 58.85326
# Shear Modulus (GPa) = 31.80850 33.00863 32.40856
#
# Velocity S-wave (km/s) = 4.22399 4.30294 4.26364
# Velocity P-wave (km/s) = 7.48577 7.64616 7.56639
#
# Compressibility (1/GPa) = 0.01739436
#
# Stress axis : x y z
#
# Youngs Moduli (GPa) = 67.64188 67.64232 92.45891
#
# Poissons Ratio (x) = 0.24055 0.36698
# Poissons Ratio (y) = 0.24055 0.36697
# Poissons Ratio (z) = 0.26848 0.26847
#
# Static dielectric constant tensor:
#      x y z
#    x 3.077290 0.000000 0.000000 
#    y 0.000000 3.077360 -0.000030 
#    z 0.000000 -0.000030 3.484350 
# 
# 
# High freq. dielectric constant tensor:
#      x y z
#    x 1.686150 0.000000 0.000000 
#    y 0.000000 1.686150 0.000000 
#    z 0.000000 0.000000 1.706660 
# 
# From -- ./inp_files/5477.got.cif
#   From: 2010.03.12/outbox.cif.g09.slc.cpg/sg167_3_cif.got.tgz:5477.got - 2010.04.02 06:42:56.
