data_PCOD8324175
_publ_section_title
;
Structure prediction by ZEFSAII (Michael W. Deem and Ramdas Pophale) SiO2 
 PCOD8324175
Probable space group: R -3 M
;
_chemical_formula_sum "Si O2"
_cell_formula_units_Z 216
_cell_length_a 23.023135
_cell_length_b 23.023135
_cell_length_c 24.442820
_cell_angle_alpha 90.000000
_cell_angle_beta 90.000000
_cell_angle_gamma 120.000000
_cell_volume 11220.465156
_symmetry_space_group_name_H-M "R -3 M"
_symmetry_group_IT_number 166
_symmetry_cell_setting 'hexagonal'
loop_
_space_group_symop_operation_xyz
x,y,z
-y,x-y,z
-x+y,-x,z
x-y,-y,-z
-x,-x+y,-z
y,x,-z
-x,-y,-z
y,-x+y,-z
x-y,x,-z
-x+y,y,z
x,x-y,z
-y,-x,z
2/3+x,1/3+y,1/3+z
2/3-y,1/3+x-y,1/3+z
2/3-x+y,1/3-x,1/3+z
2/3+x-y,1/3-y,1/3-z
2/3-x,1/3-x+y,1/3-z
2/3+y,1/3+x,1/3-z
2/3-x,1/3-y,1/3-z
2/3+y,1/3-x+y,1/3-z
2/3+x-y,1/3+x,1/3-z
2/3-x+y,1/3+y,1/3+z
2/3+x,1/3+x-y,1/3+z
2/3-y,1/3-x,1/3+z
1/3+x,2/3+y,2/3+z
1/3-y,2/3+x-y,2/3+z
1/3-x+y,2/3-x,2/3+z
1/3+x-y,2/3-y,2/3-z
1/3-x,2/3-x+y,2/3-z
1/3+y,2/3+x,2/3-z
1/3-x,2/3-y,2/3-z
1/3+y,2/3-x+y,2/3-z
1/3+x-y,2/3+x,2/3-z
1/3-x+y,2/3+y,2/3+z
1/3+x,2/3+x-y,2/3+z
1/3-y,2/3-x,2/3+z
loop_
_atom_site_type_symbol
_atom_site_label
_atom_site_fract_x
_atom_site_fract_y
_atom_site_fract_z
Si Si1 0.637693 0.969313 0.775248
Si Si2 0.531963 0.198630 0.833334
Si Si3 0.186634 0.159723 0.892132
Si Si4 0.795011 0.333334 0.333334
Si Si5 0.865795 0.267967 0.047518
Si Si6 0.607712 0.524202 0.746745
Si Si7 0.667105 0.465065 0.109607
O O1 0.560176 0.920574 0.783906
O O2 0.674006 0.947511 0.728913
O O3 0.666667 0.966708 0.833334
O O4 0.640520 0.038818 0.763180
O O5 0.603648 0.207296 0.848407
O O6 0.501154 0.152818 0.779287
O O7 0.207516 0.103758 0.902645
O O8 0.155562 0.174668 0.946436
O O9 0.135761 0.139826 0.841766
O O10 0.784039 0.392020 0.312372
O O11 0.809226 0.190775 0.061572
O O12 0.854077 0.320357 0.082540
O O13 0.859142 0.284498 0.984961
O O14 0.528017 0.471984 0.759860
O O15 0.723936 0.447872 0.091203
O O16 0.594879 0.405122 0.090533
#
# Coordination Sequence:
#
# PCOD8324175 Si02
#       7
#    36  18  36  18  36  36  36
#     4  12  22  39  61  86 115 157 200 242 290 347
#     4  10  21  40  68  96 123 154 194 244 300 364
#     4  10  22  37  54  81 116 150 196 247 291 346
#     4  10  21  36  56  82 114 154 199 250 300 348
#     4  10  23  39  59  88 122 155 194 244 293 348
#     4  10  22  41  62  88 122 155 192 242 298 354
#     4  10  20  37  58  82 112 149 191 237 292 351
#
# _framework density 19.250539
#
# number of rings (size 3 to 8) (size 9 to 14) (size 15 to 20)
#    0.000    1.667    2.500    1.833    2.333    2.333 
#    0.000    2.500    0.000    4.000    0.000    0.000 
#    0.000    0.000    0.000    0.000    0.000    0.000 
#
# Total GULP energy -892255.344548 kJ/mol
# GULP energy per Si atom -12392.435341 kJ/mol
# Density = 1.920672 g / cm^3
# Si number density = 19.250539 Si / 1000 Ang^3
#
#
#
# Elastic Constant Matrix: (Units=GPa)
#
#
# Indices 1 2 3 4 5 6 
#
# 1 109.8202 52.1006 30.9793 1.6975 0.0004 0.0000
# 2 52.1006 109.8202 30.9793 -1.6975 -0.0004 0.0000
# 3 30.9793 30.9793 99.8780 0.0000 0.0000 0.0000
# 4 1.6975 -1.6975 0.0000 29.6499 0.0000 -0.0004
# 5 0.0004 -0.0004 0.0000 0.0000 29.6499 1.6975
# 6 0.0000 0.0000 0.0000 -0.0004 1.6975 28.8598
#
#
#
# Elastic Compliance Matrix: (Units=1/GPa)
#
#
# Indices 1 2 3 4 5 6 
#
# 1 0.012196 -0.005188 -0.002174 -0.000995 0.000000 0.000000
# 2 -0.005188 0.012196 -0.002174 0.000995 0.000000 0.000000
# 3 -0.002174 -0.002174 0.011361 0.000000 0.000000 0.000000
# 4 -0.000995 0.000995 0.000000 0.033841 0.000000 0.000000
# 5 0.000000 0.000000 0.000000 0.000000 0.033841 -0.001991
# 6 0.000000 0.000000 0.000000 0.000000 -0.001991 0.034767
#
#
# Mechanical properties :
#
#
# Convention : Reuss Voigt Hill
#
# Bulk Modulus (GPa) = 59.94664 60.84853 60.39758
# Shear Modulus (GPa) = 30.70656 31.32921 31.01789
#
# Velocity S-wave (km/s) = 3.99820 4.03854 4.01842
# Velocity P-wave (km/s) = 7.24721 7.30916 7.27825
#
# Compressibility (1/GPa) = 0.01668150
#
# Stress axis : x y z
#
# Youngs Moduli (GPa) = 81.99670 81.99670 88.02383
#
# Poissons Ratio (x) = 0.42540 0.19132
# Poissons Ratio (y) = 0.42540 0.19132
# Poissons Ratio (z) = 0.17822 0.17822
#
# Static dielectric constant tensor:
#      x y z
#    x 3.461540 0.000000 0.000000 
#    y 0.000000 3.461540 0.000000 
#    z 0.000000 0.000000 3.714440 
# 
# 
# High freq. dielectric constant tensor:
#      x y z
#    x 1.748210 0.000000 0.000000 
#    y 0.000000 1.748210 0.000000 
#    z 0.000000 0.000000 1.756190 
# 
# From -- ./inp_files/8504.got.cif
#   From: 2010.03.12/outbox.cif.g09.slc.cpg/sg166_5_cif.got.tgz:8504.got - 2010.04.02 06:38:31.
