data_PCOD8324710
_publ_section_title
;
Structure prediction by ZEFSAII (Michael W. Deem and Ramdas Pophale) SiO2 
 PCOD8324710
Probable space group: P 65
;
_chemical_formula_sum "Si O2"
_cell_formula_units_Z 48
_cell_length_a 13.988543
_cell_length_b 13.988543
_cell_length_c 11.139494
_cell_angle_alpha 90.000000
_cell_angle_beta 90.000000
_cell_angle_gamma 120.000000
_cell_volume 1887.735139
_symmetry_space_group_name_H-M "P 65"
_symmetry_group_IT_number 170
_symmetry_cell_setting 'hexagonal'
loop_
_space_group_symop_operation_xyz
x,y,z
x-y,x,5/6+z
-y,x-y,2/3+z
-x,-y,1/2+z
-x+y,-x,1/3+z
y,-x+y,1/6+z
loop_
_atom_site_type_symbol
_atom_site_label
_atom_site_fract_x
_atom_site_fract_y
_atom_site_fract_z
Si Si1 0.294977 0.289735 0.633670
Si Si2 0.682089 0.261352 0.108929
Si Si3 0.004083 0.188306 0.884313
Si Si4 0.386010 0.097188 0.391378
Si Si5 0.019969 0.439870 0.264078
Si Si6 0.189200 0.081213 0.512726
Si Si7 0.771507 0.141718 0.526084
Si Si8 0.202757 0.591608 0.816374
O O1 0.362826 0.311228 0.509642
O O2 0.194812 0.162649 0.619263
O O3 0.362638 0.305706 0.756140
O O4 0.245338 0.370460 0.631749
O O5 0.784320 0.277751 0.021493
O O6 0.742975 0.297022 0.236612
O O7 0.580369 0.135833 0.097830
O O8 0.628264 0.339699 0.092610
O O9 0.087229 0.267920 0.783716
O O10 0.908954 0.075600 0.820177
O O11 0.953445 0.260501 0.942552
O O12 0.422785 0.016361 0.457806
O O13 0.313015 0.105560 0.498336
O O14 0.925435 0.446851 0.342756
O O15 0.148545 0.104256 0.385049
O O16 0.710185 0.198200 0.586209
#
# Coordination Sequence:
#
# PCOD8324710 Si02
#       8
#     6   6   6   6   6   6   6   6
#     4  12  23  45  76  99 148 197 256 311 377 465
#     4  11  25  48  76 112 153 194 257 322 383 462
#     4  12  27  50  70 109 160 211 266 322 390 464
#     4  11  23  47  74 112 148 207 257 318 384 461
#     4  11  24  47  83 111 150 200 253 319 391 459
#     4  12  22  40  64 104 142 196 255 309 369 443
#     4  12  27  48  72 107 154 205 254 315 394 457
#     4  11  29  47  75 118 147 196 260 316 390 469
#
# _framework density 25.427294
#
# number of rings (size 3 to 8) (size 9 to 14) (size 15 to 20)
#    0.000    0.500    5.000    2.250    5.250    3.000 
#   13.500    0.000    0.000    0.000    0.000    0.000 
#    0.000    0.000    0.000    0.000    0.000    0.000 
#
# Total GULP energy -594792.031678 kJ/mol
# GULP energy per Si atom -12391.500660 kJ/mol
# Density = 2.536942 g / cm^3
# Si number density = 25.427294 Si / 1000 Ang^3
#
#
#
# Elastic Constant Matrix: (Units=GPa)
#
#
# Indices 1 2 3 4 5 6 
#
# 1 87.0592 6.2175 1.3964 0.0000 0.0000 0.0000
# 2 6.2175 87.0592 1.3964 0.0000 0.0000 0.0000
# 3 1.3964 1.3964 81.3331 0.0000 0.0000 0.0000
# 4 0.0000 0.0000 0.0000 33.4959 0.0000 0.0000
# 5 0.0000 0.0000 0.0000 0.0000 33.4959 0.0000
# 6 0.0000 0.0000 0.0000 0.0000 0.0000 40.4208
#
#
#
# Elastic Compliance Matrix: (Units=1/GPa)
#
#
# Indices 1 2 3 4 5 6 
#
# 1 0.011548 -0.000822 -0.000184 0.000000 0.000000 0.000000
# 2 -0.000822 0.011548 -0.000184 0.000000 0.000000 0.000000
# 3 -0.000184 -0.000184 0.012301 0.000000 0.000000 0.000000
# 4 0.000000 0.000000 0.000000 0.029854 0.000000 0.000000
# 5 0.000000 0.000000 0.000000 0.000000 0.029854 0.000000
# 6 0.000000 0.000000 0.000000 0.000000 0.000000 0.024740
#
#
# Mechanical properties :
#
#
# Convention : Reuss Voigt Hill
#
# Bulk Modulus (GPa) = 30.28703 30.38577 30.33640
# Shear Modulus (GPa) = 37.52847 37.91192 37.72019
#
# Velocity S-wave (km/s) = 3.84593 3.86553 3.85574
# Velocity P-wave (km/s) = 5.62660 5.64793 5.63727
#
# Compressibility (1/GPa) = 0.03301743
#
# Stress axis : x y z
#
# Youngs Moduli (GPa) = 86.59445 86.59445 81.29128
#
# Poissons Ratio (x) = 0.07116 0.01497
# Poissons Ratio (y) = 0.07116 0.01497
# Poissons Ratio (z) = 0.01595 0.01595
#
# Static dielectric constant tensor:
#      x y z
#    x 4.577720 0.000000 0.000000 
#    y 0.000000 4.577720 0.000000 
#    z 0.000000 0.000000 4.376520 
# 
# 
# High freq. dielectric constant tensor:
#      x y z
#    x 2.020810 0.000000 0.000000 
#    y 0.000000 2.020810 0.000000 
#    z 0.000000 0.000000 2.001010 
# 
# From -- ./inp_files/1053.got.cif
#   From: 2010.03.12/outbox.cif.g09.slc.cpg/sg170_cif.got.tgz:1053.got - 2010.04.02 06:47:37.
