data_PCOD8324446
_publ_section_title
;
Structure prediction by ZEFSAII (Michael W. Deem and Ramdas Pophale) SiO2 
 PCOD8324446
Probable space group: P 61
;
_chemical_formula_sum "Si O2"
_cell_formula_units_Z 36
_cell_length_a 14.478740
_cell_length_b 14.478740
_cell_length_c 10.047786
_cell_angle_alpha 90.000000
_cell_angle_beta 90.000000
_cell_angle_gamma 120.000000
_cell_volume 1824.158400
_symmetry_space_group_name_H-M "P 61"
_symmetry_group_IT_number 169
_symmetry_cell_setting 'hexagonal'
loop_
_space_group_symop_operation_xyz
x,y,z
x-y,x,1/6+z
-y,x-y,1/3+z
-x,-y,1/2+z
-x+y,-x,2/3+z
y,-x+y,5/6+z
loop_
_atom_site_type_symbol
_atom_site_label
_atom_site_fract_x
_atom_site_fract_y
_atom_site_fract_z
Si Si1 0.192648 0.076054 0.989780
Si Si2 0.565982 0.131964 0.362994
Si Si3 0.582123 0.770578 0.842984
Si Si4 0.811544 0.229422 0.383004
Si Si5 0.807352 0.883406 0.902875
Si Si6 0.547989 0.547989 0.779661
O O1 0.139139 0.008256 0.858005
O O2 0.316598 0.159100 0.955545
O O3 0.185011 0.000000 0.112994
O O4 0.517204 0.210886 0.370098
O O5 0.693682 0.210886 0.355891
O O6 0.537488 0.058448 0.230986
O O7 0.520959 0.058448 0.495003
O O8 0.625287 0.812644 0.696328
O O9 0.683402 0.842502 0.937110
O O10 0.556216 0.649525 0.856876
O O11 0.906690 0.350475 0.369111
O O12 0.869117 0.008256 0.867983
#
# Coordination Sequence:
#
# PCOD8324446 Si02
#       6
#     6   6   6   6   6   6
#     4  10  16  27  53  80 105 140 194 241 269 333
#     4  10  22  36  62  88 118 152 210 242 300 360
#     4  10  17  35  60  81 105 155 201 238 284 363
#     4  10  17  35  60  81 105 155 201 238 284 363
#     4  10  16  27  53  80 105 140 194 241 269 333
#     4  10  20  40  60  86 114 154 192 258 296 354
#
# _framework density 19.735126000000001
#
# number of rings (size 3 to 8) (size 9 to 14) (size 15 to 20)
#    0.000    2.000    5.000    2.000    0.000    0.000 
#    9.000    0.000   18.333    0.000    0.000    0.000 
#    0.000    0.000    0.000    0.000    0.000    0.000 
#
# Total GULP energy -445983.018533 kJ/mol
# GULP energy per Si atom -12388.417181 kJ/mol
# Density = 1.969021 g / cm^3
# Si number density = 19.735126 Si / 1000 Ang^3
#
#
#
# Elastic Constant Matrix: (Units=GPa)
#
#
# Indices 1 2 3 4 5 6 
#
# 1 140.3801 71.3743 31.6221 0.0000 0.0000 0.0000
# 2 71.3743 140.3801 31.6221 0.0000 0.0000 0.0000
# 3 31.6221 31.6221 49.5990 0.0000 0.0000 0.0000
# 4 0.0000 0.0000 0.0000 19.0220 0.0000 0.0000
# 5 0.0000 0.0000 0.0000 0.0000 19.0220 0.0000
# 6 0.0000 0.0000 0.0000 0.0000 0.0000 34.5029
#
#
#
# Elastic Compliance Matrix: (Units=1/GPa)
#
#
# Indices 1 2 3 4 5 6 
#
# 1 0.010162 -0.004329 -0.003719 0.000000 0.000000 0.000000
# 2 -0.004329 0.010162 -0.003719 0.000000 0.000000 0.000000
# 3 -0.003719 -0.003719 0.024904 0.000000 0.000000 0.000000
# 4 0.000000 0.000000 0.000000 0.052571 0.000000 0.000000
# 5 0.000000 0.000000 0.000000 0.000000 0.052571 0.000000
# 6 0.000000 0.000000 0.000000 0.000000 0.000000 0.028983
#
#
# Mechanical properties :
#
#
# Convention : Reuss Voigt Hill
#
# Bulk Modulus (GPa) = 46.09513 66.62179 56.35846
# Shear Modulus (GPa) = 23.79607 27.55875 25.67741
#
# Velocity S-wave (km/s) = 3.47619 3.74094 3.61099
# Velocity P-wave (km/s) = 6.28645 7.24505 6.78271
#
# Compressibility (1/GPa) = 0.02169426
#
# Stress axis : x y z
#
# Youngs Moduli (GPa) = 98.40229 98.40229 40.15456
#
# Poissons Ratio (x) = 0.42600 0.14933
# Poissons Ratio (y) = 0.42600 0.14933
# Poissons Ratio (z) = 0.36596 0.36596
#
# Static dielectric constant tensor:
#      x y z
#    x 3.666750 0.000000 0.000000 
#    y 0.000000 3.666750 0.000000 
#    z 0.000000 0.000000 3.183060 
# 
# 
# High freq. dielectric constant tensor:
#      x y z
#    x 1.772580 0.000000 0.000000 
#    y 0.000000 1.772580 0.000000 
#    z 0.000000 0.000000 1.716390 
# 
# From -- ./inp_files/885.got.cif
#   From: 2010.03.12/outbox.cif.g09.slc.cpg/sg169_cif.got.tgz:885.got - 2010.04.02 06:46:06.
