data_PCOD8324570
_publ_section_title
;
Structure prediction by ZEFSAII (Michael W. Deem and Ramdas Pophale) SiO2 
 PCOD8324570
Probable space group: P 61
;
_chemical_formula_sum "Si O2"
_cell_formula_units_Z 42
_cell_length_a 8.726015
_cell_length_b 8.726015
_cell_length_c 28.685019
_cell_angle_alpha 90.000000
_cell_angle_beta 90.000000
_cell_angle_gamma 120.000000
_cell_volume 1891.549383
_symmetry_space_group_name_H-M "P 61"
_symmetry_group_IT_number 169
_symmetry_cell_setting 'hexagonal'
loop_
_space_group_symop_operation_xyz
x,y,z
x-y,x,1/6+z
-y,x-y,1/3+z
-x,-y,1/2+z
-x+y,-x,2/3+z
y,-x+y,5/6+z
loop_
_atom_site_type_symbol
_atom_site_label
_atom_site_fract_x
_atom_site_fract_y
_atom_site_fract_z
Si Si1 0.997271 0.925742 0.606550
Si Si2 0.212523 0.191628 0.195308
Si Si3 0.465370 0.387741 0.928938
Si Si4 0.279728 0.615219 0.365788
Si Si5 0.119277 0.371283 0.768797
Si Si6 0.419248 0.753067 0.507863
Si Si7 0.734502 0.464345 0.096422
O O1 0.857513 0.907450 0.645947
O O2 0.998258 0.742708 0.600415
O O3 0.934343 0.989261 0.562446
O O4 0.201106 0.068764 0.617281
O O5 0.405759 0.230763 0.210508
O O6 0.231104 0.381319 0.191860
O O7 0.520274 0.330163 0.880517
O O8 0.534792 0.594460 0.934725
O O9 0.591726 0.381224 0.968715
O O10 0.216602 0.731411 0.396395
O O11 0.265713 0.636679 0.310908
O O12 0.129733 0.475131 0.816711
O O13 0.924513 0.307740 0.747907
O O14 0.309518 0.669464 0.553971
#
# Coordination Sequence:
#
# PCOD8324570 Si02
#       7
#     6   6   6   6   6   6   6
#     4  11  27  45  75 105 146 183 244 298 361 430
#     4  11  24  46  71 103 143 186 235 291 360 423
#     4  10  26  45  67 108 141 189 230 296 362 429
#     4  11  25  47  73 103 143 191 238 290 365 432
#     4  11  26  47  71 105 145 185 241 299 360 428
#     4  10  24  46  69 103 144 184 233 295 356 427
#     4  12  24  44  76 101 142 188 239 295 356 427
#
# _framework density 22.204018999999999
#
# number of rings (size 3 to 8) (size 9 to 14) (size 15 to 20)
#    0.000    1.143    1.429    2.571   14.000    0.000 
#   15.429    0.000    0.000    0.000    0.000    0.000 
#    0.000    0.000    0.000    0.000    0.000    0.000 
#
# Total GULP energy -520462.720437 kJ/mol
# GULP energy per Si atom -12391.969534 kJ/mol
# Density = 2.215348 g / cm^3
# Si number density = 22.204019 Si / 1000 Ang^3
#
#
#
# Elastic Constant Matrix: (Units=GPa)
#
#
# Indices 1 2 3 4 5 6 
#
# 1 120.0950 45.9427 35.9846 0.0000 0.0000 0.0000
# 2 45.9427 120.0950 35.9846 0.0000 0.0000 0.0000
# 3 35.9846 35.9846 91.3617 0.0000 0.0000 0.0000
# 4 0.0000 0.0000 0.0000 25.3595 0.0000 0.0000
# 5 0.0000 0.0000 0.0000 0.0000 25.3595 0.0000
# 6 0.0000 0.0000 0.0000 0.0000 0.0000 37.0762
#
#
#
# Elastic Compliance Matrix: (Units=1/GPa)
#
#
# Indices 1 2 3 4 5 6 
#
# 1 0.010374 -0.003112 -0.002861 0.000000 0.000000 0.000000
# 2 -0.003112 0.010374 -0.002861 0.000000 0.000000 0.000000
# 3 -0.002861 -0.002861 0.013199 0.000000 0.000000 0.000000
# 4 0.000000 0.000000 0.000000 0.039433 0.000000 0.000000
# 5 0.000000 0.000000 0.000000 0.000000 0.039433 0.000000
# 6 0.000000 0.000000 0.000000 0.000000 0.000000 0.026972
#
#
# Mechanical properties :
#
#
# Convention : Reuss Voigt Hill
#
# Bulk Modulus (GPa) = 61.41753 63.04173 62.22963
# Shear Modulus (GPa) = 30.69797 31.80169 31.24983
#
# Velocity S-wave (km/s) = 3.72229 3.78861 3.75560
# Velocity P-wave (km/s) = 6.79665 6.89868 6.84786
#
# Compressibility (1/GPa) = 0.01628200
#
# Stress axis : x y z
#
# Youngs Moduli (GPa) = 96.39308 96.39308 75.76413
#
# Poissons Ratio (x) = 0.29993 0.21673
# Poissons Ratio (y) = 0.29993 0.21673
# Poissons Ratio (z) = 0.27574 0.27574
#
# Static dielectric constant tensor:
#      x y z
#    x 4.109950 0.000000 0.000000 
#    y 0.000000 4.109950 0.000000 
#    z 0.000000 0.000000 4.227550 
# 
# 
# High freq. dielectric constant tensor:
#      x y z
#    x 1.880960 0.000000 0.000000 
#    y 0.000000 1.880960 0.000000 
#    z 0.000000 0.000000 1.879430 
# 
# From -- ./inp_files/1884.got.cif
#   From: 2010.03.12/outbox.cif.g09.slc.cpg/sg169_cif.got.tgz:1884.got - 2010.04.02 06:46:06.
