data_PCOD8324393
_publ_section_title
;
Structure prediction by ZEFSAII (Michael W. Deem and Ramdas Pophale) SiO2 
 PCOD8324393
Probable space group: R -3 C 
;
_chemical_formula_sum "Si O2"
_cell_formula_units_Z 144
_cell_length_a 18.886417
_cell_length_b 18.886417
_cell_length_c 20.653392
_cell_angle_alpha 90.000000
_cell_angle_beta 90.000000
_cell_angle_gamma 120.000000
_cell_volume 6380.007195
_symmetry_space_group_name_H-M "R -3 C "
_symmetry_group_IT_number 167
_symmetry_cell_setting 'hexagonal'
loop_
_space_group_symop_operation_xyz
x,y,z
-y,x-y,z
-x+y,-x,z
x-y,-y,1/2-z
-x,-x+y,1/2-z
y,x,1/2-z
-x,-y,-z
y,-x+y,-z
x-y,x,-z
-x+y,y,1/2+z
x,x-y,1/2+z
-y,-x,1/2+z
2/3+x,1/3+y,1/3+z
2/3-y,1/3+x-y,1/3+z
2/3-x+y,1/3-x,1/3+z
2/3+x-y,1/3-y,5/6-z
2/3-x,1/3-x+y,5/6-z
2/3+y,1/3+x,5/6-z
2/3-x,1/3-y,1/3-z
2/3+y,1/3-x+y,1/3-z
2/3+x-y,1/3+x,1/3-z
2/3-x+y,1/3+y,5/6+z
2/3+x,1/3+x-y,5/6+z
2/3-y,1/3-x,5/6+z
1/3+x,2/3+y,2/3+z
1/3-y,2/3+x-y,2/3+z
1/3-x+y,2/3-x,2/3+z
1/3+x-y,2/3-y,1/6-z
1/3-x,2/3-x+y,1/6-z
1/3+y,2/3+x,1/6-z
1/3-x,2/3-y,2/3-z
1/3+y,2/3-x+y,2/3-z
1/3+x-y,2/3+x,2/3-z
1/3-x+y,2/3+y,1/6+z
1/3+x,2/3+x-y,1/6+z
1/3-y,2/3-x,1/6+z
loop_
_atom_site_type_symbol
_atom_site_label
_atom_site_fract_x
_atom_site_fract_y
_atom_site_fract_z
Si Si1 0.069564 0.221369 0.345982
Si Si2 0.448257 0.448257 0.750000
Si Si3 0.576863 0.243530 0.583334
Si Si4 0.749666 0.717587 0.680340
Si Si5 0.143397 0.586803 0.659370
O O1 0.152737 0.234204 0.314581
O O2 0.051766 0.292118 0.322788
O O3 0.073326 0.222534 0.423039
O O4 0.998287 0.136726 0.315221
O O5 0.427798 0.374182 0.702877
O O6 0.461591 0.527237 0.708216
O O7 0.666667 0.252440 0.583334
O O8 0.711730 0.711730 0.750000
O O9 0.204608 0.679134 0.682540
#
# Coordination Sequence:
#
# PCOD8324393 Si02
#       5
#    36  18  18  36  36
#     4  11  24  44  68 103 140 188 234 298 363 422
#     4  12  25  48  72 106 141 188 248 300 360 438
#     4  10  25  42  68 102 135 190 236 284 340 432
#     4  11  23  43  73 101 140 182 240 300 360 423
#     4  12  28  47  73 108 146 192 239 304 371 440
#
# _framework density 22.570506999999999
#
# number of rings (size 3 to 8) (size 9 to 14) (size 15 to 20)
#    0.250    0.500    5.000    1.750    3.500    4.000 
#    0.000    0.000    0.000    0.000    0.000    0.000 
#    0.000    0.000    0.000    0.000    0.000    0.000 
#
# Total GULP energy -595155.015409 kJ/mol
# GULP energy per Si atom -12399.062821 kJ/mol
# Density = 2.251914 g / cm^3
# Si number density = 22.570507 Si / 1000 Ang^3
#
#
#
# Elastic Constant Matrix: (Units=GPa)
#
#
# Indices 1 2 3 4 5 6 
#
# 1 73.7438 47.5726 26.0726 -14.1412 -0.0007 0.0000
# 2 47.5726 73.7438 26.0726 14.1412 0.0007 0.0000
# 3 26.0726 26.0726 112.6664 0.0000 0.0000 0.0000
# 4 -14.1412 14.1412 0.0000 38.2789 0.0000 0.0007
# 5 -0.0007 0.0007 0.0000 0.0000 38.2789 -14.1412
# 6 0.0000 0.0000 0.0000 0.0007 -14.1412 13.0856
#
#
#
# Elastic Compliance Matrix: (Units=1/GPa)
#
#
# Indices 1 2 3 4 5 6 
#
# 1 0.036377 -0.027224 -0.002118 0.023496 0.000001 0.000000
# 2 -0.027224 0.036377 -0.002118 -0.023496 -0.000001 0.000000
# 3 -0.002118 -0.002118 0.009856 0.000000 0.000000 0.000000
# 4 0.023496 -0.023496 0.000000 0.043484 0.000000 -0.000002
# 5 0.000001 -0.000001 0.000000 0.000000 0.043484 0.046992
# 6 0.000000 0.000000 0.000000 -0.000002 0.046992 0.127202
#
#
# Mechanical properties :
#
#
# Convention : Reuss Voigt Hill
#
# Bulk Modulus (GPa) = 50.78720 51.06553 50.92637
# Shear Modulus (GPa) = 13.65132 28.62443 21.13787
#
# Velocity S-wave (km/s) = 2.46200 3.56507 3.06359
# Velocity P-wave (km/s) = 5.53465 6.29447 5.92675
#
# Compressibility (1/GPa) = 0.01969000
#
# Stress axis : x y z
#
# Youngs Moduli (GPa) = 27.48971 27.48971 101.45964
#
# Poissons Ratio (x) = 0.74838 0.21491
# Poissons Ratio (y) = 0.74838 0.21491
# Poissons Ratio (z) = 0.05823 0.05823
#
# Static dielectric constant tensor:
#      x y z
#    x 4.117590 0.000000 0.000000 
#    y 0.000000 4.117590 0.000000 
#    z 0.000000 0.000000 5.013040 
# 
# 
# High freq. dielectric constant tensor:
#      x y z
#    x 1.891750 0.000000 0.000000 
#    y 0.000000 1.891750 0.000000 
#    z 0.000000 0.000000 1.896330 
# 
# From -- ./inp_files/4370.got.cif
#   From: 2010.03.12/outbox.cif.g09.slc.cpg/sg167_3_cif.got.tgz:4370.got - 2010.04.02 06:42:56.
