data_PCOD8324505
_publ_section_title
;
Structure prediction by ZEFSAII (Michael W. Deem and Ramdas Pophale) SiO2 
 PCOD8324505
Probable space group: P 61
;
_chemical_formula_sum "Si O2"
_cell_formula_units_Z 48
_cell_length_a 15.097552
_cell_length_b 15.097552
_cell_length_c 12.039426
_cell_angle_alpha 90.000000
_cell_angle_beta 90.000000
_cell_angle_gamma 120.000000
_cell_volume 2376.563822
_symmetry_space_group_name_H-M "P 61"
_symmetry_group_IT_number 169
_symmetry_cell_setting 'hexagonal'
loop_
_space_group_symop_operation_xyz
x,y,z
x-y,x,1/6+z
-y,x-y,1/3+z
-x,-y,1/2+z
-x+y,-x,2/3+z
y,-x+y,5/6+z
loop_
_atom_site_type_symbol
_atom_site_label
_atom_site_fract_x
_atom_site_fract_y
_atom_site_fract_z
Si Si1 0.763261 0.435988 0.089510
Si Si2 0.895824 0.060200 0.338938
Si Si3 0.452701 0.382502 0.258952
Si Si4 0.191124 0.532882 0.200600
Si Si5 0.257189 0.762459 0.505862
Si Si6 0.459069 0.394940 0.825686
Si Si7 0.114313 0.742296 0.829442
Si Si8 0.935762 0.247529 0.080288
O O1 0.653792 0.390506 0.032043
O O2 0.787569 0.343615 0.074927
O O3 0.755664 0.466048 0.214633
O O4 0.852020 0.536452 0.025358
O O5 0.864943 0.145906 0.365020
O O6 0.007833 0.108417 0.286531
O O7 0.807968 0.971170 0.260915
O O8 0.490236 0.353680 0.149397
O O9 0.531451 0.500032 0.286366
O O10 0.339301 0.366573 0.245860
O O11 0.108358 0.516528 0.108014
O O12 0.257723 0.478532 0.172256
O O13 0.357613 0.850178 0.564759
O O14 0.169232 0.794264 0.511157
O O15 0.340244 0.313644 0.845884
O O16 0.075308 0.715716 0.703376
#
# Coordination Sequence:
#
# PCOD8324505 Si02
#       8
#     6   6   6   6   6   6   6   6
#     4  12  26  44  59  96 142 178 224 269 335 421
#     4  10  20  40  68  94 122 158 219 278 330 394
#     4  12  27  40  64 100 138 174 226 279 338 406
#     4  12  23  44  66  97 130 181 227 268 338 409
#     4  12  25  42  65  93 134 182 226 271 339 406
#     4  12  23  38  67  93 129 174 220 279 327 388
#     4  11  22  42  70  96 130 169 231 280 332 399
#     4  11  20  42  65  99 123 164 229 282 325 395
#
# _framework density 20.197227000000002
#
# number of rings (size 3 to 8) (size 9 to 14) (size 15 to 20)
#    0.000    0.500    6.250    3.000    5.250    0.000 
#    0.000    1.250    0.000    0.000    0.000    0.000 
#    0.000    0.000    0.000    0.000    0.000    0.000 
#
# Total GULP energy -595158.325157 kJ/mol
# GULP energy per Si atom -12399.131774 kJ/mol
# Density = 2.015126 g / cm^3
# Si number density = 20.197227 Si / 1000 Ang^3
#
#
#
# Elastic Constant Matrix: (Units=GPa)
#
#
# Indices 1 2 3 4 5 6 
#
# 1 83.4019 19.0260 29.6383 0.0000 0.0000 0.0000
# 2 19.0260 83.4019 29.6383 0.0000 0.0000 0.0000
# 3 29.6383 29.6383 85.1999 0.0000 0.0000 0.0000
# 4 0.0000 0.0000 0.0000 12.4727 0.0000 0.0000
# 5 0.0000 0.0000 0.0000 0.0000 12.4727 0.0000
# 6 0.0000 0.0000 0.0000 0.0000 0.0000 32.1880
#
#
#
# Elastic Compliance Matrix: (Units=1/GPa)
#
#
# Indices 1 2 3 4 5 6 
#
# 1 0.013879 -0.001655 -0.004252 0.000000 0.000000 0.000000
# 2 -0.001655 0.013879 -0.004252 0.000000 0.000000 0.000000
# 3 -0.004252 -0.004252 0.014696 0.000000 0.000000 0.000000
# 4 0.000000 0.000000 0.000000 0.080175 0.000000 0.000000
# 5 0.000000 0.000000 0.000000 0.000000 0.080175 0.000000
# 6 0.000000 0.000000 0.000000 0.000000 0.000000 0.031068
#
#
# Mechanical properties :
#
#
# Convention : Reuss Voigt Hill
#
# Bulk Modulus (GPa) = 45.17913 45.40098 45.29005
# Shear Modulus (GPa) = 19.11548 23.00675 21.06112
#
# Velocity S-wave (km/s) = 3.07977 3.37872 3.23270
# Velocity P-wave (km/s) = 5.92150 6.14399 6.03377
#
# Compressibility (1/GPa) = 0.02213411
#
# Stress axis : x y z
#
# Youngs Moduli (GPa) = 72.05242 72.05242 68.04782
#
# Poissons Ratio (x) = 0.11924 0.28936
# Poissons Ratio (y) = 0.11924 0.28936
# Poissons Ratio (z) = 0.30639 0.30639
#
# Static dielectric constant tensor:
#      x y z
#    x 3.819050 0.000000 0.000000 
#    y 0.000000 3.819050 0.000000 
#    z 0.000000 0.000000 3.632410 
# 
# 
# High freq. dielectric constant tensor:
#      x y z
#    x 1.790160 0.000000 0.000000 
#    y 0.000000 1.790160 0.000000 
#    z 0.000000 0.000000 1.778290 
# 
# From -- ./inp_files/1023.got.cif
#   From: 2010.03.12/outbox.cif.g09.slc.cpg/sg169_cif.got.tgz:1023.got - 2010.04.02 06:46:06.
