data_PCOD8324370
_publ_section_title
;
Structure prediction by ZEFSAII (Michael W. Deem and Ramdas Pophale) SiO2 
 PCOD8324370
Probable space group: R -3 C 
;
_chemical_formula_sum "Si O2"
_cell_formula_units_Z 162
_cell_length_a 24.252591
_cell_length_b 24.252591
_cell_length_c 15.268738
_cell_angle_alpha 90.000000
_cell_angle_beta 90.000000
_cell_angle_gamma 120.000000
_cell_volume 7777.679812
_symmetry_space_group_name_H-M "R -3 C "
_symmetry_group_IT_number 167
_symmetry_cell_setting 'hexagonal'
loop_
_space_group_symop_operation_xyz
x,y,z
-y,x-y,z
-x+y,-x,z
x-y,-y,1/2-z
-x,-x+y,1/2-z
y,x,1/2-z
-x,-y,-z
y,-x+y,-z
x-y,x,-z
-x+y,y,1/2+z
x,x-y,1/2+z
-y,-x,1/2+z
2/3+x,1/3+y,1/3+z
2/3-y,1/3+x-y,1/3+z
2/3-x+y,1/3-x,1/3+z
2/3+x-y,1/3-y,5/6-z
2/3-x,1/3-x+y,5/6-z
2/3+y,1/3+x,5/6-z
2/3-x,1/3-y,1/3-z
2/3+y,1/3-x+y,1/3-z
2/3+x-y,1/3+x,1/3-z
2/3-x+y,1/3+y,5/6+z
2/3+x,1/3+x-y,5/6+z
2/3-y,1/3-x,5/6+z
1/3+x,2/3+y,2/3+z
1/3-y,2/3+x-y,2/3+z
1/3-x+y,2/3-x,2/3+z
1/3+x-y,2/3-y,1/6-z
1/3-x,2/3-x+y,1/6-z
1/3+y,2/3+x,1/6-z
1/3-x,2/3-y,2/3-z
1/3+y,2/3-x+y,2/3-z
1/3+x-y,2/3+x,2/3-z
1/3-x+y,2/3+y,1/6+z
1/3+x,2/3+x-y,1/6+z
1/3-y,2/3-x,1/6+z
loop_
_atom_site_type_symbol
_atom_site_label
_atom_site_fract_x
_atom_site_fract_y
_atom_site_fract_z
Si Si1 0.170477 0.503810 0.916667
Si Si2 0.723228 0.155562 0.251225
Si Si3 0.166631 0.956193 0.943820
Si Si4 0.932823 0.712553 0.226019
Si Si5 0.834249 0.884437 0.682404
O O1 0.158273 0.446471 0.852607
O O2 0.226714 0.517420 0.986017
O O3 0.765698 0.225721 0.295102
O O4 0.655161 0.114583 0.301147
O O5 0.765697 0.122142 0.253502
O O6 0.204880 0.935554 0.876731
O O7 0.154993 0.012439 0.907837
O O8 0.922883 0.762072 0.284384
O O9 0.000000 0.717759 0.250000
O O10 0.884234 0.884234 0.750000
#
# Coordination Sequence:
#
# PCOD8324370 Si02
#       5
#    18  36  36  36  36
#     4  12  22  36  64  94 124 162 216 254 310 376
#     4  12  23  39  66  93 126 165 212 257 310 375
#     4  10  22  41  64  88 127 165 207 256 313 366
#     4   9  21  42  64  89 129 166 198 258 322 370
#     4   9  19  41  61  84 125 166 200 256 317 361
#
# _framework density 20.828835000000002
#
# number of rings (size 3 to 8) (size 9 to 14) (size 15 to 20)
#    0.000    2.222    4.444    2.000    0.000    5.333 
#    0.667    0.000    0.000    1.778    0.000    0.000 
#    0.000    0.000    0.000    0.000    0.000    0.000 
#
# Total GULP energy -669014.441211 kJ/mol
# GULP energy per Si atom -12389.156319 kJ/mol
# Density = 2.078143 g / cm^3
# Si number density = 20.828835 Si / 1000 Ang^3
#
#
#
# Elastic Constant Matrix: (Units=GPa)
#
#
# Indices 1 2 3 4 5 6 
#
# 1 94.9076 60.8766 23.9200 -0.2838 0.0000 0.0000
# 2 60.8766 94.9076 23.9200 0.2838 0.0000 0.0000
# 3 23.9200 23.9200 48.4432 0.0000 0.0000 0.0000
# 4 -0.2838 0.2838 0.0000 25.2123 0.0000 0.0000
# 5 0.0000 0.0000 0.0000 0.0000 25.2123 -0.2838
# 6 0.0000 0.0000 0.0000 0.0000 -0.2838 17.0155
#
#
#
# Elastic Compliance Matrix: (Units=1/GPa)
#
#
# Indices 1 2 3 4 5 6 
#
# 1 0.018478 -0.010912 -0.003736 0.000331 0.000000 0.000000
# 2 -0.010912 0.018478 -0.003736 -0.000331 0.000000 0.000000
# 3 -0.003736 -0.003736 0.024332 0.000000 0.000000 0.000000
# 4 0.000331 -0.000331 0.000000 0.039671 0.000000 0.000000
# 5 0.000000 0.000000 0.000000 0.000000 0.039671 0.000662
# 6 0.000000 0.000000 0.000000 0.000000 0.000662 0.058781
#
#
# Mechanical properties :
#
#
# Convention : Reuss Voigt Hill
#
# Bulk Modulus (GPa) = 40.78176 50.63241 45.70708
# Shear Modulus (GPa) = 20.46216 22.12416 21.29316
#
# Velocity S-wave (km/s) = 3.13772 3.26266 3.20080
# Velocity P-wave (km/s) = 5.72268 6.20925 5.97092
#
# Compressibility (1/GPa) = 0.02452076
#
# Stress axis : x y z
#
# Youngs Moduli (GPa) = 54.11703 54.11703 41.09756
#
# Poissons Ratio (x) = 0.59052 0.15355
# Poissons Ratio (y) = 0.59052 0.15355
# Poissons Ratio (z) = 0.20219 0.20219
#
# Static dielectric constant tensor:
#      x y z
#    x 3.654130 0.000000 0.000000 
#    y 0.000000 3.654130 0.000000 
#    z 0.000000 0.000000 3.676150 
# 
# 
# High freq. dielectric constant tensor:
#      x y z
#    x 1.804280 0.000000 0.000000 
#    y 0.000000 1.804280 0.000000 
#    z 0.000000 0.000000 1.808020 
# 
# From -- ./inp_files/3476.got.cif
#   From: 2010.03.12/outbox.cif.g09.slc.cpg/sg167_2_cif.got.tgz:3476.got - 2010.04.02 06:42:56.
