data_PCOD8324921
_publ_section_title
;
Structure prediction by ZEFSAII (Michael W. Deem and Ramdas Pophale) SiO2 
 PCOD8324921
Probable space group: P -6
;
_chemical_formula_sum "Si O2"
_cell_formula_units_Z 24
_cell_length_a 13.772810
_cell_length_b 13.772810
_cell_length_c 8.469363
_cell_angle_alpha 90.000000
_cell_angle_beta 90.000000
_cell_angle_gamma 120.000000
_cell_volume 1391.318281
_symmetry_space_group_name_H-M "P -6"
_symmetry_group_IT_number 174
_symmetry_cell_setting 'hexagonal'
loop_
_space_group_symop_operation_xyz
x,y,z
-x+y,-x,-z
-y,x-y,z
x,y,-z
-x+y,-x,z
-y,x-y,-z
loop_
_atom_site_type_symbol
_atom_site_label
_atom_site_fract_x
_atom_site_fract_y
_atom_site_fract_z
Si Si1 0.332676 0.880392 0.686164
Si Si2 0.454342 0.130777 0.684015
Si Si3 0.659171 0.121140 0.817306
Si Si4 0.554398 0.886500 0.688161
O O1 0.327908 0.868121 0.500000
O O2 0.431543 0.859240 0.746540
O O3 0.212617 0.786653 0.754371
O O4 0.360322 0.004810 0.735247
O O5 0.445856 0.152002 0.500000
O O6 0.577304 0.148875 0.716450
O O7 0.430301 0.213716 0.786063
O O8 0.647044 0.002959 0.765515
O O9 0.629737 0.119220 0.000000
O O10 0.565878 0.898941 0.500000
#
# Coordination Sequence:
#
# PCOD8324921 Si02
#       4
#     6   6   6   6
#     4   8  15  27  49  74  94 117 152 192 230 270
#     4  10  19  33  51  71  93 124 162 202 239 276
#     4  11  21  32  46  70 100 129 156 191 238 291
#     4   9  16  30  50  73  97 124 156 193 233 279
#
# _framework density 17.249825999999999
#
# number of rings (size 3 to 8) (size 9 to 14) (size 15 to 20)
#    0.000    2.500    0.000    5.500    0.000    2.000 
#    0.000    6.250    0.000    1.000    0.000    3.500 
#    0.000    0.000    0.000    0.000    0.000    0.000 
#
# Total GULP energy -297566.300136 kJ/mol
# GULP energy per Si atom -12398.595839 kJ/mol
# Density = 1.721056 g / cm^3
# Si number density = 17.249826 Si / 1000 Ang^3
#
#
#
# Elastic Constant Matrix: (Units=GPa)
#
#
# Indices 1 2 3 4 5 6 
#
# 1 118.4865 60.1245 15.0148 0.0000 0.0000 0.0000
# 2 60.1245 118.4865 15.0148 0.0000 0.0000 0.0000
# 3 15.0148 15.0148 39.5118 0.0000 0.0000 0.0000
# 4 0.0000 0.0000 0.0000 8.8436 0.0000 0.0000
# 5 0.0000 0.0000 0.0000 0.0000 8.8436 0.0000
# 6 0.0000 0.0000 0.0000 0.0000 0.0000 29.1810
#
#
#
# Elastic Compliance Matrix: (Units=1/GPa)
#
#
# Indices 1 2 3 4 5 6 
#
# 1 0.011558 -0.005577 -0.002273 0.000000 0.000000 0.000000
# 2 -0.005577 0.011558 -0.002273 0.000000 0.000000 0.000000
# 3 -0.002273 -0.002273 0.027036 0.000000 0.000000 0.000000
# 4 0.000000 0.000000 0.000000 0.113076 0.000000 0.000000
# 5 0.000000 0.000000 0.000000 0.000000 0.113076 0.000000
# 6 0.000000 0.000000 0.000000 0.000000 0.000000 0.034269
#
#
# Mechanical properties :
#
#
# Convention : Reuss Voigt Hill
#
# Bulk Modulus (GPa) = 33.43711 50.75478 42.09595
# Shear Modulus (GPa) = 14.67195 21.79568 18.23381
#
# Velocity S-wave (km/s) = 2.91959 3.55847 3.25475
# Velocity P-wave (km/s) = 5.54901 6.80962 6.21138
#
# Compressibility (1/GPa) = 0.02990689
#
# Stress axis : x y z
#
# Youngs Moduli (GPa) = 86.52268 86.52268 36.98734
#
# Poissons Ratio (x) = 0.48252 0.08406
# Poissons Ratio (y) = 0.48252 0.08406
# Poissons Ratio (z) = 0.19665 0.19665
#
# Static dielectric constant tensor:
#      x y z
#    x 3.304070 0.000000 0.000000 
#    y 0.000000 3.304070 0.000000 
#    z 0.000000 0.000000 2.961810 
# 
# 
# High freq. dielectric constant tensor:
#      x y z
#    x 1.655860 0.000000 0.000000 
#    y 0.000000 1.655860 0.000000 
#    z 0.000000 0.000000 1.649480 
# 
# From -- ./inp_files/181.got.cif
#   From: 2010.03.12/outbox.cif.g09.slc.cpg/sg174_cif.got.tgz:181.got - 2010.04.02 06:54:58.
