data_PCOD8324122
_publ_section_title
;
Structure prediction by ZEFSAII (Michael W. Deem and Ramdas Pophale) SiO2 
 PCOD8324122
Probable space group: R -3 M
;
_chemical_formula_sum "Si O2"
_cell_formula_units_Z 144
_cell_length_a 21.901032
_cell_length_b 21.901032
_cell_length_c 19.051596
_cell_angle_alpha 90.000000
_cell_angle_beta 90.000000
_cell_angle_gamma 120.000000
_cell_volume 7913.910868
_symmetry_space_group_name_H-M "R -3 M"
_symmetry_group_IT_number 166
_symmetry_cell_setting 'hexagonal'
loop_
_space_group_symop_operation_xyz
x,y,z
-y,x-y,z
-x+y,-x,z
x-y,-y,-z
-x,-x+y,-z
y,x,-z
-x,-y,-z
y,-x+y,-z
x-y,x,-z
-x+y,y,z
x,x-y,z
-y,-x,z
2/3+x,1/3+y,1/3+z
2/3-y,1/3+x-y,1/3+z
2/3-x+y,1/3-x,1/3+z
2/3+x-y,1/3-y,1/3-z
2/3-x,1/3-x+y,1/3-z
2/3+y,1/3+x,1/3-z
2/3-x,1/3-y,1/3-z
2/3+y,1/3-x+y,1/3-z
2/3+x-y,1/3+x,1/3-z
2/3-x+y,1/3+y,1/3+z
2/3+x,1/3+x-y,1/3+z
2/3-y,1/3-x,1/3+z
1/3+x,2/3+y,2/3+z
1/3-y,2/3+x-y,2/3+z
1/3-x+y,2/3-x,2/3+z
1/3+x-y,2/3-y,2/3-z
1/3-x,2/3-x+y,2/3-z
1/3+y,2/3+x,2/3-z
1/3-x,2/3-y,2/3-z
1/3+y,2/3-x+y,2/3-z
1/3+x-y,2/3+x,2/3-z
1/3-x+y,2/3+y,2/3+z
1/3+x,2/3+x-y,2/3+z
1/3-y,2/3-x,2/3+z
loop_
_atom_site_type_symbol
_atom_site_label
_atom_site_fract_x
_atom_site_fract_y
_atom_site_fract_z
Si Si1 0.530729 0.333668 0.416189
Si Si2 0.381371 0.907712 0.228938
Si Si3 0.528461 0.608684 0.978926
Si Si4 0.393049 0.124235 0.490383
O O1 0.541936 0.270968 0.446367
O O2 0.592538 0.407463 0.446531
O O3 0.533158 0.333334 0.333334
O O4 0.455249 0.322197 0.439185
O O5 0.451612 0.903223 0.236482
O O6 0.333334 0.855606 0.166667
O O7 0.341041 0.884272 0.302873
O O8 0.396902 0.986010 0.207742
O O9 0.443248 0.556753 0.981209
O O10 0.563729 0.563729 0.000000
O O11 0.557555 0.637488 0.900812
O O12 0.386891 0.193446 0.495887
#
# Coordination Sequence:
#
# PCOD8324122 Si02
#       4
#    36  36  36  36
#     4   9  17  31  52  76 105 141 180 220 266 322
#     4  11  21  35  57  83 109 141 184 226 270 326
#     4  10  19  35  57  78 104 140 182 225 267 322
#     4   9  19  34  52  77 107 139 174 219 268 314
#
# _framework density 18.195806999999999
#
# number of rings (size 3 to 8) (size 9 to 14) (size 15 to 20)
#    0.000    2.250    2.500    1.000    0.000    3.000 
#    0.000    0.000    0.000    5.250    0.000    0.000 
#    0.000    0.000    0.000    0.000    0.000    0.000 
#
# Total GULP energy -594976.017232 kJ/mol
# GULP energy per Si atom -12395.333692 kJ/mol
# Density = 1.815439 g / cm^3
# Si number density = 18.195807 Si / 1000 Ang^3
#
#
#
# Elastic Constant Matrix: (Units=GPa)
#
#
# Indices 1 2 3 4 5 6 
#
# 1 103.9710 28.8794 37.3579 -3.9896 -0.0005 0.0000
# 2 28.8794 103.9710 37.3579 3.9896 0.0005 0.0000
# 3 37.3579 37.3579 70.3508 0.0000 0.0000 0.0000
# 4 -3.9896 3.9896 0.0000 32.7165 0.0000 0.0005
# 5 -0.0005 0.0005 0.0000 0.0000 32.7165 -3.9896
# 6 0.0000 0.0000 0.0000 0.0005 -3.9896 37.5458
#
#
#
# Elastic Compliance Matrix: (Units=1/GPa)
#
#
# Indices 1 2 3 4 5 6 
#
# 1 0.012112 -0.001380 -0.005699 0.001645 0.000000 0.000000
# 2 -0.001380 0.012112 -0.005699 -0.001645 0.000000 0.000000
# 3 -0.005699 -0.005699 0.020267 0.000000 0.000000 0.000000
# 4 0.001645 -0.001645 0.000000 0.030967 0.000000 0.000000
# 5 0.000000 0.000000 0.000000 0.000000 0.030967 0.003291
# 6 0.000000 0.000000 0.000000 0.000000 0.003291 0.026984
#
#
# Mechanical properties :
#
#
# Convention : Reuss Voigt Hill
#
# Bulk Modulus (GPa) = 52.81086 53.94256 53.37671
# Shear Modulus (GPa) = 30.25218 32.24228 31.24723
#
# Velocity S-wave (km/s) = 4.08191 4.21403 4.14850
# Velocity P-wave (km/s) = 7.16259 7.30667 7.23499
#
# Compressibility (1/GPa) = 0.01893550
#
# Stress axis : x y z
#
# Youngs Moduli (GPa) = 82.56123 82.56123 49.34055
#
# Poissons Ratio (x) = 0.11391 0.28120
# Poissons Ratio (y) = 0.11391 0.28120
# Poissons Ratio (z) = 0.47053 0.47053
#
# Static dielectric constant tensor:
#      x y z
#    x 3.340410 0.000000 0.000000 
#    y 0.000000 3.340410 0.000000 
#    z 0.000000 0.000000 1.640510 
# 
# 
# High freq. dielectric constant tensor:
#      x y z
#    x 1.690670 0.000000 0.000000 
#    y 0.000000 1.690670 0.000000 
#    z 0.000000 0.000000 1.708150 
# 
# From -- ./inp_files/5240.got.cif
#   From: 2010.03.12/outbox.cif.g09.slc.cpg/sg166_3_cif.got.tgz:5240.got - 2010.04.02 06:38:31.
