data_PCOD8324982
_publ_section_title
;
Structure prediction by ZEFSAII (Michael W. Deem and Ramdas Pophale) SiO2 
 PCOD8324982
Probable space group: P -6
;
_chemical_formula_sum "Si O2"
_cell_formula_units_Z 32
_cell_length_a 8.532388
_cell_length_b 8.532388
_cell_length_c 25.454819
_cell_angle_alpha 90.000000
_cell_angle_beta 90.000000
_cell_angle_gamma 120.000000
_cell_volume 1604.877312
_symmetry_space_group_name_H-M "P -6"
_symmetry_group_IT_number 174
_symmetry_cell_setting 'hexagonal'
loop_
_space_group_symop_operation_xyz
x,y,z
-x+y,-x,-z
-y,x-y,z
x,y,-z
-x+y,-x,z
-y,x-y,-z
loop_
_atom_site_type_symbol
_atom_site_label
_atom_site_fract_x
_atom_site_fract_y
_atom_site_fract_z
Si Si1 0.672178 0.135754 0.556946
Si Si2 0.666668 0.333335 0.061905
Si Si3 0.296514 0.965203 0.170430
Si Si4 0.341003 0.334414 0.668672
Si Si5 0.667488 0.036367 0.868153
Si Si6 0.667182 0.682422 0.289979
O O1 0.846753 0.338230 0.560416
O O2 0.674755 0.048525 0.500000
O O3 0.676523 0.022457 0.605782
O O4 0.478226 0.324988 0.080039
O O5 0.666667 0.333334 0.000000
O O6 0.168456 0.805804 0.128326
O O7 0.281318 0.142229 0.161189
O O8 0.504582 0.020538 0.165771
O O9 0.252049 0.911852 0.230836
O O10 0.529807 0.473429 0.696529
O O11 0.274281 0.141957 0.696070
O O12 0.192301 0.393435 0.675588
#
# Coordination Sequence:
#
# PCOD8324982 Si02
#       6
#     6   2   6   6   6   6
#     4   8  15  35  63  81 104 149 197 250 315 377
#     4   9  21  45  69  99 126 162 204 261 301 341
#     4  11  20  37  54  91 120 174 202 247 296 362
#     4  12  23  39  53  91 111 162 194 259 305 371
#     4  10  22  37  64  88 129 163 213 245 295 358
#     4  12  23  35  59  80 130 154 206 244 304 361
#
# _framework density 19.939216999999999
#
# number of rings (size 3 to 8) (size 9 to 14) (size 15 to 20)
#    0.375    1.125    1.875    5.625    0.000    0.000 
#    0.000    5.625    0.000    0.000    0.000    0.000 
#    0.000    0.000    0.000    0.000    0.000    0.000 
#
# Total GULP energy -396432.480602 kJ/mol
# GULP energy per Si atom -12388.515019 kJ/mol
# Density = 1.989383 g / cm^3
# Si number density = 19.939217 Si / 1000 Ang^3
#
#
#
# Elastic Constant Matrix: (Units=GPa)
#
#
# Indices 1 2 3 4 5 6 
#
# 1 81.4198 13.0060 43.4848 0.0000 0.0000 0.0000
# 2 13.0060 81.4205 43.4850 0.0000 0.0000 0.0001
# 3 43.4848 43.4850 154.3402 0.0000 0.0000 -0.0001
# 4 0.0000 0.0000 0.0000 23.1760 0.0001 0.0000
# 5 0.0000 0.0000 0.0000 0.0001 23.1759 0.0000
# 6 0.0000 0.0001 -0.0001 0.0000 0.0000 34.2071
#
#
#
# Elastic Compliance Matrix: (Units=1/GPa)
#
#
# Indices 1 2 3 4 5 6 
#
# 1 0.014459 -0.000158 -0.004029 0.000000 0.000000 0.000000
# 2 -0.000158 0.014459 -0.004029 0.000000 0.000000 0.000000
# 3 -0.004029 -0.004029 0.008750 0.000000 0.000000 0.000000
# 4 0.000000 0.000000 0.000000 0.043148 0.000000 0.000000
# 5 0.000000 0.000000 0.000000 0.000000 0.043148 0.000000
# 6 0.000000 0.000000 0.000000 0.000000 0.000000 0.029234
#
#
# Mechanical properties :
#
#
# Convention : Reuss Voigt Hill
#
# Bulk Modulus (GPa) = 47.09175 57.45911 52.27543
# Shear Modulus (GPa) = 28.29502 30.59212 29.44357
#
# Velocity S-wave (km/s) = 3.77113 3.92122 3.84691
# Velocity P-wave (km/s) = 6.52923 7.02716 6.78277
#
# Compressibility (1/GPa) = 0.02123514
#
# Stress axis : x y z
#
# Youngs Moduli (GPa) = 69.15993 69.16041 114.28904
#
# Poissons Ratio (x) = 0.01090 0.46052
# Poissons Ratio (y) = 0.01090 0.46052
# Poissons Ratio (z) = 0.27867 0.27868
#
# Static dielectric constant tensor:
#      x y z
#    x 3.593370 -0.000010 0.000000 
#    y -0.000010 3.593360 0.000000 
#    z 0.000000 0.000000 3.413950 
# 
# 
# High freq. dielectric constant tensor:
#      x y z
#    x 1.775310 0.000000 0.000000 
#    y 0.000000 1.775310 0.000000 
#    z 0.000000 0.000000 1.756300 
# 
# From -- ./inp_files/1082.got.cif
#   From: 2010.03.12/outbox.cif.g09.slc.cpg/sg174_cif.got.tgz:1082.got - 2010.04.02 06:54:58.
