data_PCOD8324205
_publ_section_title
;
Structure prediction by ZEFSAII (Michael W. Deem and Ramdas Pophale) SiO2 
 PCOD8324205
Probable space group: R -3 M
;
_chemical_formula_sum "Si O2"
_cell_formula_units_Z 162
_cell_length_a 21.269709
_cell_length_b 21.269709
_cell_length_c 20.534176
_cell_angle_alpha 90.000000
_cell_angle_beta 90.000000
_cell_angle_gamma 120.000000
_cell_volume 8045.091875
_symmetry_space_group_name_H-M "R -3 M"
_symmetry_group_IT_number 166
_symmetry_cell_setting 'hexagonal'
loop_
_space_group_symop_operation_xyz
x,y,z
-y,x-y,z
-x+y,-x,z
x-y,-y,-z
-x,-x+y,-z
y,x,-z
-x,-y,-z
y,-x+y,-z
x-y,x,-z
-x+y,y,z
x,x-y,z
-y,-x,z
2/3+x,1/3+y,1/3+z
2/3-y,1/3+x-y,1/3+z
2/3-x+y,1/3-x,1/3+z
2/3+x-y,1/3-y,1/3-z
2/3-x,1/3-x+y,1/3-z
2/3+y,1/3+x,1/3-z
2/3-x,1/3-y,1/3-z
2/3+y,1/3-x+y,1/3-z
2/3+x-y,1/3+x,1/3-z
2/3-x+y,1/3+y,1/3+z
2/3+x,1/3+x-y,1/3+z
2/3-y,1/3-x,1/3+z
1/3+x,2/3+y,2/3+z
1/3-y,2/3+x-y,2/3+z
1/3-x+y,2/3-x,2/3+z
1/3+x-y,2/3-y,2/3-z
1/3-x,2/3-x+y,2/3-z
1/3+y,2/3+x,2/3-z
1/3-x,2/3-y,2/3-z
1/3+y,2/3-x+y,2/3-z
1/3+x-y,2/3+x,2/3-z
1/3-x+y,2/3+y,2/3+z
1/3+x,2/3+x-y,2/3+z
1/3-y,2/3-x,2/3+z
loop_
_atom_site_type_symbol
_atom_site_label
_atom_site_fract_x
_atom_site_fract_y
_atom_site_fract_z
Si Si1 0.545745 0.596804 0.743146
Si Si2 0.288116 0.216577 0.778953
Si Si3 0.924720 0.390364 0.652430
Si Si4 0.857419 0.000000 0.000000
Si Si5 0.177372 0.213547 0.430344
O O1 0.487638 0.512363 0.750163
O O2 0.581739 0.621095 0.814268
O O3 0.597974 0.598048 0.685010
O O4 0.508981 0.644984 0.726993
O O5 0.258306 0.129153 0.778906
O O6 0.234119 0.235579 0.740640
O O7 0.367470 0.256926 0.747055
O O8 0.931744 0.465872 0.627055
O O9 0.862905 0.357039 0.708140
O O10 0.933831 0.066170 0.023532
O O11 0.197953 0.197953 0.500000
O O12 0.091942 0.183884 0.427929
#
# Coordination Sequence:
#
# PCOD8324205 Si02
#       5
#    36  36  36  18  36
#     4   9  20  37  56  85 120 151 187 243 300 347
#     4  10  21  38  61  89 117 152 201 249 297 357
#     4  11  22  37  58  86 121 159 197 243 302 359
#     4  10  21  38  60  82 113 156 204 248 298 362
#     4  11  21  36  61  90 119 157 202 248 301 363
#
# _framework density 20.136500999999999
#
# number of rings (size 3 to 8) (size 9 to 14) (size 15 to 20)
#    0.000    1.778    2.222    2.111    3.111    2.667 
#    0.000    0.000    0.000   13.111    0.000    0.000 
#    0.000    0.000    0.000    0.000    0.000    0.000 
#
# Total GULP energy -669405.116446 kJ/mol
# GULP energy per Si atom -12396.391045 kJ/mol
# Density = 2.009067 g / cm^3
# Si number density = 20.136501 Si / 1000 Ang^3
#
#
#
# Elastic Constant Matrix: (Units=GPa)
#
#
# Indices 1 2 3 4 5 6 
#
# 1 91.9390 40.1089 20.2198 -8.5767 0.0000 0.0000
# 2 40.1089 91.9390 20.2198 8.5767 0.0000 0.0000
# 3 20.2198 20.2198 52.8821 0.0000 0.0000 0.0000
# 4 -8.5767 8.5767 0.0000 13.6406 0.0000 0.0000
# 5 0.0000 0.0000 0.0000 0.0000 13.6406 -8.5767
# 6 0.0000 0.0000 0.0000 0.0000 -8.5767 25.9151
#
#
#
# Elastic Compliance Matrix: (Units=1/GPa)
#
#
# Indices 1 2 3 4 5 6 
#
# 1 0.016471 -0.007893 -0.003280 0.015319 0.000000 0.000000
# 2 -0.007893 0.016471 -0.003280 -0.015319 0.000000 0.000000
# 3 -0.003280 -0.003280 0.021418 0.000000 0.000000 0.000000
# 4 0.015319 -0.015319 0.000000 0.092575 0.000000 0.000000
# 5 0.000000 0.000000 0.000000 0.000000 0.092575 0.030638
# 6 0.000000 0.000000 0.000000 0.000000 0.030638 0.048727
#
#
# Mechanical properties :
#
#
# Convention : Reuss Voigt Hill
#
# Bulk Modulus (GPa) = 39.28615 44.20634 41.74624
# Shear Modulus (GPa) = 15.35505 21.05335 18.20420
#
# Velocity S-wave (km/s) = 2.76442 3.23698 3.00999
# Velocity P-wave (km/s) = 5.45359 5.99764 5.73207
#
# Compressibility (1/GPa) = 0.02545426
#
# Stress axis : x y z
#
# Youngs Moduli (GPa) = 60.71446 60.71446 46.68986
#
# Poissons Ratio (x) = 0.47923 0.15312
# Poissons Ratio (y) = 0.47923 0.15312
# Poissons Ratio (z) = 0.19912 0.19912
#
# Static dielectric constant tensor:
#      x y z
#    x 3.675330 0.000000 0.000000 
#    y 0.000000 3.675330 0.000000 
#    z 0.000000 0.000000 3.607940 
# 
# 
# High freq. dielectric constant tensor:
#      x y z
#    x 1.778940 0.000000 0.000000 
#    y 0.000000 1.778940 0.000000 
#    z 0.000000 0.000000 1.780350 
# 
# From -- ./inp_files/6730.got.cif
#   From: 2010.03.12/outbox.cif.g09.slc.cpg/sg166_4_cif.got.tgz:6730.got - 2010.04.02 06:38:31.
