data_PCOD8324248
_publ_section_title
;
Structure prediction by ZEFSAII (Michael W. Deem and Ramdas Pophale) SiO2 
 PCOD8324248
Probable space group: R -3 M
;
_chemical_formula_sum "Si O2"
_cell_formula_units_Z 198
_cell_length_a 21.589279
_cell_length_b 21.589279
_cell_length_c 26.980133
_cell_angle_alpha 90.000000
_cell_angle_beta 90.000000
_cell_angle_gamma 120.000000
_cell_volume 10890.579646
_symmetry_space_group_name_H-M "R -3 M"
_symmetry_group_IT_number 166
_symmetry_cell_setting 'hexagonal'
loop_
_space_group_symop_operation_xyz
x,y,z
-y,x-y,z
-x+y,-x,z
x-y,-y,-z
-x,-x+y,-z
y,x,-z
-x,-y,-z
y,-x+y,-z
x-y,x,-z
-x+y,y,z
x,x-y,z
-y,-x,z
2/3+x,1/3+y,1/3+z
2/3-y,1/3+x-y,1/3+z
2/3-x+y,1/3-x,1/3+z
2/3+x-y,1/3-y,1/3-z
2/3-x,1/3-x+y,1/3-z
2/3+y,1/3+x,1/3-z
2/3-x,1/3-y,1/3-z
2/3+y,1/3-x+y,1/3-z
2/3+x-y,1/3+x,1/3-z
2/3-x+y,1/3+y,1/3+z
2/3+x,1/3+x-y,1/3+z
2/3-y,1/3-x,1/3+z
1/3+x,2/3+y,2/3+z
1/3-y,2/3+x-y,2/3+z
1/3-x+y,2/3-x,2/3+z
1/3+x-y,2/3-y,2/3-z
1/3-x,2/3-x+y,2/3-z
1/3+y,2/3+x,2/3-z
1/3-x,2/3-y,2/3-z
1/3+y,2/3-x+y,2/3-z
1/3+x-y,2/3+x,2/3-z
1/3-x+y,2/3+y,2/3+z
1/3+x,2/3+x-y,2/3+z
1/3-y,2/3-x,2/3+z
loop_
_atom_site_type_symbol
_atom_site_label
_atom_site_fract_x
_atom_site_fract_y
_atom_site_fract_z
Si Si1 0.060912 0.601310 0.290130
Si Si2 0.411567 0.135307 0.525733
Si Si3 0.333334 0.810868 0.666667
Si Si4 0.901966 0.578874 0.417497
Si Si5 0.050781 0.804913 0.456106
Si Si6 0.053547 0.454029 0.404509
O O1 0.085165 0.542583 0.281703
O O2 0.114056 0.673536 0.261516
O O3 0.064775 0.622301 0.347322
O O4 0.979932 0.567228 0.271944
O O5 0.427059 0.213530 0.539882
O O6 0.439327 0.135965 0.470575
O O7 0.327498 0.078240 0.529229
O O8 0.457245 0.118254 0.564485
O O9 0.401062 0.802124 0.676925
O O10 0.347938 0.859712 0.618493
O O11 0.981418 0.593552 0.424941
O O12 0.114998 0.885003 0.448744
O O13 0.000000 0.803841 0.500000
O O14 0.051620 0.525810 0.413521
#
# Coordination Sequence:
#
# PCOD8324248 Si02
#       6
#    36  36  18  36  36  36
#     4  11  21  37  59  85 118 156 195 238 295 353
#     4  11  23  38  58  86 119 155 194 240 296 352
#     4  12  25  40  60  86 119 160 204 248 298 362
#     4  12  21  38  59  86 117 155 196 240 298 355
#     4  11  21  35  58  88 121 156 193 241 291 347
#     4  11  23  38  60  89 120 152 194 247 295 349
#
# _framework density 18.180851000000001
#
# number of rings (size 3 to 8) (size 9 to 14) (size 15 to 20)
#    0.000    0.727    5.455    3.364    0.000    2.909 
#    0.000    1.818    0.000    3.636    0.000    0.000 
#    0.000    0.000    0.000    0.000    0.000    0.000 
#
# Total GULP energy -818878.105466 kJ/mol
# GULP energy per Si atom -12407.244022 kJ/mol
# Density = 1.813947 g / cm^3
# Si number density = 18.180851 Si / 1000 Ang^3
#
#
#
# Elastic Constant Matrix: (Units=GPa)
#
#
# Indices 1 2 3 4 5 6 
#
# 1 64.0398 18.2826 25.7496 -0.5952 0.0003 0.0000
# 2 18.2826 64.0398 25.7496 0.5952 -0.0003 0.0000
# 3 25.7496 25.7496 103.8930 0.0000 0.0000 0.0000
# 4 -0.5952 0.5952 0.0000 26.8191 0.0000 -0.0003
# 5 0.0003 -0.0003 0.0000 0.0000 26.8191 -0.5952
# 6 0.0000 0.0000 0.0000 -0.0003 -0.5952 22.8786
#
#
#
# Elastic Compliance Matrix: (Units=1/GPa)
#
#
# Indices 1 2 3 4 5 6 
#
# 1 0.018122 -0.003745 -0.003563 0.000485 0.000000 0.000000
# 2 -0.003745 0.018122 -0.003563 -0.000485 0.000000 0.000000
# 3 -0.003563 -0.003563 0.011392 0.000000 0.000000 0.000000
# 4 0.000485 -0.000485 0.000000 0.037308 0.000000 0.000001
# 5 0.000000 0.000000 0.000000 0.000000 0.037308 0.000971
# 6 0.000000 0.000000 0.000000 0.000001 0.000971 0.043734
#
#
# Mechanical properties :
#
#
# Convention : Reuss Voigt Hill
#
# Bulk Modulus (GPa) = 38.62241 41.28181 39.95211
# Shear Modulus (GPa) = 25.46345 26.11608 25.78977
#
# Velocity S-wave (km/s) = 3.74647 3.79418 3.77040
# Velocity P-wave (km/s) = 6.32490 6.47687 6.40134
#
# Compressibility (1/GPa) = 0.02589171
#
# Stress axis : x y z
#
# Youngs Moduli (GPa) = 55.18233 55.18233 87.78453
#
# Poissons Ratio (x) = 0.20668 0.31279
# Poissons Ratio (y) = 0.20668 0.31279
# Poissons Ratio (z) = 0.19662 0.19662
#
# Static dielectric constant tensor:
#      x y z
#    x 3.298560 0.000000 0.000000 
#    y 0.000000 3.298560 0.000000 
#    z 0.000000 0.000000 3.785820 
# 
# 
# High freq. dielectric constant tensor:
#      x y z
#    x 1.697160 0.000000 0.000000 
#    y 0.000000 1.697160 0.000000 
#    z 0.000000 0.000000 1.718380 
# 
# From -- ./inp_files/9578.got.cif
#   From: 2010.03.12/outbox.cif.g09.slc.cpg/sg166_5_cif.got.tgz:9578.got - 2010.04.02 06:38:31.
