data_PCOD8324542
_publ_section_title
;
Structure prediction by ZEFSAII (Michael W. Deem and Ramdas Pophale) SiO2 
 PCOD8324542
Probable space group: P 61
;
_chemical_formula_sum "Si O2"
_cell_formula_units_Z 42
_cell_length_a 13.701720
_cell_length_b 13.701720
_cell_length_c 12.861993
_cell_angle_alpha 90.000000
_cell_angle_beta 90.000000
_cell_angle_gamma 120.000000
_cell_volume 2091.168735
_symmetry_space_group_name_H-M "P 61"
_symmetry_group_IT_number 169
_symmetry_cell_setting 'hexagonal'
loop_
_space_group_symop_operation_xyz
x,y,z
x-y,x,1/6+z
-y,x-y,1/3+z
-x,-y,1/2+z
-x+y,-x,2/3+z
y,-x+y,5/6+z
loop_
_atom_site_type_symbol
_atom_site_label
_atom_site_fract_x
_atom_site_fract_y
_atom_site_fract_z
Si Si1 0.004361 0.307912 0.662270
Si Si2 0.995639 0.303551 0.126950
Si Si3 0.668183 0.776645 0.786794
Si Si4 0.739742 0.260258 0.477943
Si Si5 0.098964 0.197927 0.811277
Si Si6 0.668183 0.891538 0.502426
Si Si7 0.566289 0.433711 0.977943
O O1 0.909965 0.188025 0.619268
O O2 0.946200 0.383765 0.683370
O O3 0.094129 0.364841 0.570173
O O4 0.062641 0.283390 0.759822
O O5 0.090035 0.278060 0.169952
O O6 0.053800 0.437565 0.105850
O O7 0.905871 0.270713 0.219047
O O8 0.937359 0.220749 0.029398
O O9 0.553494 0.711289 0.722109
O O10 0.761058 0.761058 0.727943
O O11 0.842206 0.288712 0.400444
O O12 0.627725 0.216329 0.408698
O O13 0.783671 0.372275 0.547188
O O14 0.119137 0.119137 0.727943
#
# Coordination Sequence:
#
# PCOD8324542 Si02
#       7
#     6   6   6   6   6   6   6
#     4  11  23  41  66  97 140 177 226 281 343 408
#     4  11  23  41  66  97 140 177 226 281 343 408
#     4  11  18  37  64  95 126 176 225 271 327 403
#     4  10  22  40  70  96 134 171 239 278 340 408
#     4  12  26  46  66 102 148 181 229 284 350 414
#     4  11  18  37  64  95 126 176 225 271 327 403
#     4  10  22  44  68 100 134 182 234 290 334 420
#
# _framework density 20.084461999999998
#
# number of rings (size 3 to 8) (size 9 to 14) (size 15 to 20)
#    0.000    1.143    8.571    0.000    0.000    1.143 
#    5.143    7.143    0.000    0.000    0.000    0.000 
#    0.000    0.000    0.000    0.000    0.000    0.000 
#
# Total GULP energy -520378.103608 kJ/mol
# GULP energy per Si atom -12389.954848 kJ/mol
# Density = 2.003875 g / cm^3
# Si number density = 20.084462 Si / 1000 Ang^3
#
#
#
# Elastic Constant Matrix: (Units=GPa)
#
#
# Indices 1 2 3 4 5 6 
#
# 1 101.0268 64.5119 58.8003 0.0000 0.0000 0.0000
# 2 64.5119 101.0268 58.8003 0.0000 0.0000 0.0000
# 3 58.8003 58.8003 148.4987 0.0000 0.0000 0.0000
# 4 0.0000 0.0000 0.0000 48.1357 0.0000 0.0000
# 5 0.0000 0.0000 0.0000 0.0000 48.1357 0.0000
# 6 0.0000 0.0000 0.0000 0.0000 0.0000 18.2575
#
#
#
# Elastic Compliance Matrix: (Units=1/GPa)
#
#
# Indices 1 2 3 4 5 6 
#
# 1 0.017896 -0.009490 -0.003328 0.000000 0.000000 0.000000
# 2 -0.009490 0.017896 -0.003328 0.000000 0.000000 0.000000
# 3 -0.003328 -0.003328 0.009370 0.000000 0.000000 0.000000
# 4 0.000000 0.000000 0.000000 0.020775 0.000000 0.000000
# 5 0.000000 0.000000 0.000000 0.000000 0.020775 0.000000
# 6 0.000000 0.000000 0.000000 0.000000 0.000000 0.054772
#
#
# Mechanical properties :
#
#
# Convention : Reuss Voigt Hill
#
# Bulk Modulus (GPa) = 77.71498 79.41968 78.56733
# Shear Modulus (GPa) = 28.07963 34.13509 31.10736
#
# Velocity S-wave (km/s) = 3.74314 4.12707 3.93978
# Velocity P-wave (km/s) = 7.58021 7.89550 7.73946
#
# Compressibility (1/GPa) = 0.01286753
#
# Stress axis : x y z
#
# Youngs Moduli (GPa) = 55.87952 55.87952 106.72631
#
# Poissons Ratio (x) = 0.53032 0.35521
# Poissons Ratio (y) = 0.53032 0.35521
# Poissons Ratio (z) = 0.18598 0.18598
#
# Static dielectric constant tensor:
#      x y z
#    x 3.639030 0.000000 0.000000 
#    y 0.000000 3.639030 0.000000 
#    z 0.000000 0.000000 4.065000 
# 
# 
# High freq. dielectric constant tensor:
#      x y z
#    x 1.773570 0.000000 0.000000 
#    y 0.000000 1.773570 0.000000 
#    z 0.000000 0.000000 1.799010 
# 
# From -- ./inp_files/960.got.cif
#   From: 2010.03.12/outbox.cif.g09.slc.cpg/sg169_cif.got.tgz:960.got - 2010.04.02 06:46:06.
