data_PCOD8324639
_publ_section_title
;
Structure prediction by ZEFSAII (Michael W. Deem and Ramdas Pophale) SiO2 
 PCOD8324639
Probable space group: P 65
;
_chemical_formula_sum "Si O2"
_cell_formula_units_Z 48
_cell_length_a 14.015368
_cell_length_b 14.015368
_cell_length_c 16.618566
_cell_angle_alpha 90.000000
_cell_angle_beta 90.000000
_cell_angle_gamma 120.000000
_cell_volume 2827.048042
_symmetry_space_group_name_H-M "P 65"
_symmetry_group_IT_number 170
_symmetry_cell_setting 'hexagonal'
loop_
_space_group_symop_operation_xyz
x,y,z
x-y,x,5/6+z
-y,x-y,2/3+z
-x,-y,1/2+z
-x+y,-x,1/3+z
y,-x+y,1/6+z
loop_
_atom_site_type_symbol
_atom_site_label
_atom_site_fract_x
_atom_site_fract_y
_atom_site_fract_z
Si Si1 0.289269 0.897537 0.023540
Si Si2 0.618772 0.927630 0.390329
Si Si3 0.844369 0.406962 0.088093
Si Si4 0.402969 0.907029 0.442060
Si Si5 0.445234 0.629426 0.946357
Si Si6 0.062404 0.485274 0.434904
Si Si7 0.031643 0.372164 0.869122
Si Si8 0.215151 0.420699 0.990046
O O1 0.159164 0.816482 0.035846
O O2 0.345486 0.934536 0.110696
O O3 0.341417 0.832774 0.979882
O O4 0.309167 0.999743 0.966712
O O5 0.489510 0.869506 0.413146
O O6 0.633361 0.998946 0.310103
O O7 0.747160 0.290262 0.110343
O O8 0.962946 0.415358 0.096357
O O9 0.837420 0.433761 0.994294
O O10 0.386476 0.888294 0.536055
O O11 0.288511 0.838498 0.396838
O O12 0.319884 0.531165 0.955963
O O13 0.523571 0.638327 0.019360
O O14 0.981644 0.534948 0.417314
O O15 0.915877 0.256345 0.861345
O O16 0.126052 0.360455 0.917694
#
# Coordination Sequence:
#
# PCOD8324639 Si02
#       8
#     6   6   6   6   6   6   6   6
#     4  10  20  33  53  76 107 134 177 221 265 323
#     4  10  19  37  49  77 109 139 170 224 271 314
#     4  10  20  34  49  76 108 141 173 218 269 315
#     4  10  20  35  48  75 114 135 176 228 259 324
#     4  11  20  32  53  78 100 151 180 209 271 327
#     4   9  19  34  49  75 109 134 177 219 255 330
#     4  11  19  34  53  80 104 140 182 218 273 321
#     4  11  21  33  56  77 113 142 177 231 267 318
#
# _framework density 16.978840000000002
#
# number of rings (size 3 to 8) (size 9 to 14) (size 15 to 20)
#    0.000    2.000    2.500    6.750    0.000    1.000 
#    6.750    0.000    0.000    0.000    0.000    7.000 
#    0.000    0.000    0.000    0.000    0.000    0.000 
#
# Total GULP energy -594912.222819 kJ/mol
# GULP energy per Si atom -12394.004642 kJ/mol
# Density = 1.694020 g / cm^3
# Si number density = 16.978840 Si / 1000 Ang^3
#
#
#
# Elastic Constant Matrix: (Units=GPa)
#
#
# Indices 1 2 3 4 5 6 
#
# 1 59.7888 28.7903 34.2644 0.0000 0.0000 0.0000
# 2 28.7903 59.7888 34.2644 0.0000 0.0000 0.0000
# 3 34.2644 34.2644 138.9801 0.0000 0.0000 0.0000
# 4 0.0000 0.0000 0.0000 24.1856 0.0000 0.0000
# 5 0.0000 0.0000 0.0000 0.0000 24.1856 0.0000
# 6 0.0000 0.0000 0.0000 0.0000 0.0000 15.4992
#
#
#
# Elastic Compliance Matrix: (Units=1/GPa)
#
#
# Indices 1 2 3 4 5 6 
#
# 1 0.023105 -0.009155 -0.003439 0.000000 0.000000 0.000000
# 2 -0.009155 0.023105 -0.003439 0.000000 0.000000 0.000000
# 3 -0.003439 -0.003439 0.008891 0.000000 0.000000 0.000000
# 4 0.000000 0.000000 0.000000 0.041347 0.000000 0.000000
# 5 0.000000 0.000000 0.000000 0.000000 0.041347 0.000000
# 6 0.000000 0.000000 0.000000 0.000000 0.000000 0.064519
#
#
# Mechanical properties :
#
#
# Convention : Reuss Voigt Hill
#
# Bulk Modulus (GPa) = 43.41367 50.35513 46.88440
# Shear Modulus (GPa) = 20.65615 23.52335 22.08975
#
# Velocity S-wave (km/s) = 3.49174 3.72620 3.61087
# Velocity P-wave (km/s) = 6.47156 6.94512 6.71252
#
# Compressibility (1/GPa) = 0.02303422
#
# Stress axis : x y z
#
# Youngs Moduli (GPa) = 43.28089 43.28089 112.47165
#
# Poissons Ratio (x) = 0.39623 0.38682
# Poissons Ratio (y) = 0.39623 0.38682
# Poissons Ratio (z) = 0.14886 0.14886
#
# Static dielectric constant tensor:
#      x y z
#    x 3.051080 0.000000 0.000000 
#    y 0.000000 3.051080 0.000000 
#    z 0.000000 0.000000 3.518940 
# 
# 
# High freq. dielectric constant tensor:
#      x y z
#    x 1.631680 0.000000 0.000000 
#    y 0.000000 1.631680 0.000000 
#    z 0.000000 0.000000 1.684550 
# 
# From -- ./inp_files/1291.got.cif
#   From: 2010.03.12/outbox.cif.g09.slc.cpg/sg170_cif.got.tgz:1291.got - 2010.04.02 06:47:37.
