data_PCOD8324466
_publ_section_title
;
Structure prediction by ZEFSAII (Michael W. Deem and Ramdas Pophale) SiO2 
 PCOD8324466
Probable space group: P 61
;
_chemical_formula_sum "Si O2"
_cell_formula_units_Z 36
_cell_length_a 21.677357
_cell_length_b 21.677357
_cell_length_c 5.063333
_cell_angle_alpha 90.000000
_cell_angle_beta 90.000000
_cell_angle_gamma 120.000000
_cell_volume 2060.533987
_symmetry_space_group_name_H-M "P 61"
_symmetry_group_IT_number 169
_symmetry_cell_setting 'hexagonal'
loop_
_space_group_symop_operation_xyz
x,y,z
x-y,x,1/6+z
-y,x-y,1/3+z
-x,-y,1/2+z
-x+y,-x,2/3+z
y,-x+y,5/6+z
loop_
_atom_site_type_symbol
_atom_site_label
_atom_site_fract_x
_atom_site_fract_y
_atom_site_fract_z
Si Si1 0.076804 0.781724 0.696780
Si Si2 0.264970 0.878590 0.196591
Si Si3 0.704987 0.780536 0.364151
Si Si4 0.419573 0.503169 0.484747
Si Si5 0.877271 0.263487 0.697316
Si Si6 0.916572 0.497005 0.148964
O O1 0.135779 0.865450 0.696726
O O2 0.092340 0.734738 0.488369
O O3 0.000503 0.772803 0.613449
O O4 0.075404 0.750691 0.985848
O O5 0.250965 0.925841 0.409145
O O6 0.204278 0.797051 0.195581
O O7 0.335816 0.876951 0.266110
O O8 0.266819 0.909358 0.906097
O O9 0.334992 0.457985 0.457469
O O10 0.447636 0.447725 0.469751
O O11 0.437247 0.543896 0.760242
O O12 0.455274 0.562666 0.258144
#
# Coordination Sequence:
#
# PCOD8324466 Si02
#       6
#     6   6   6   6   6   6
#     4  10  19  31  49  73  99 128 159 196 240 285
#     4  10  20  33  50  71  97 127 159 197 241 288
#     4  10  19  31  49  73  99 128 159 196 240 285
#     4  10  19  30  47  70  94 121 152 191 236 279
#     4  10  20  33  50  71  97 127 159 197 241 288
#     4  10  19  30  47  70  94 121 152 191 236 279
#
# _framework density 17.471198999999999
#
# number of rings (size 3 to 8) (size 9 to 14) (size 15 to 20)
#    0.000    2.000    0.000    5.000    0.000    2.667 
#    0.000    0.000    0.000    2.000    0.000    7.000 
#    0.000    0.000    0.000    0.000    0.000    0.000 
#
# Total GULP energy -446422.462178 kJ/mol
# GULP energy per Si atom -12400.623949 kJ/mol
# Density = 1.743143 g / cm^3
# Si number density = 17.471199 Si / 1000 Ang^3
#
#
#
# Elastic Constant Matrix: (Units=GPa)
#
#
# Indices 1 2 3 4 5 6 
#
# 1 86.4390 45.6695 17.7753 0.0000 0.0000 0.0000
# 2 45.6695 86.4390 17.7753 0.0000 0.0000 0.0000
# 3 17.7753 17.7753 80.0883 0.0000 0.0000 0.0000
# 4 0.0000 0.0000 0.0000 21.0517 0.0000 0.0000
# 5 0.0000 0.0000 0.0000 0.0000 21.0517 0.0000
# 6 0.0000 0.0000 0.0000 0.0000 0.0000 20.3847
#
#
#
# Elastic Compliance Matrix: (Units=1/GPa)
#
#
# Indices 1 2 3 4 5 6 
#
# 1 0.016289 -0.008239 -0.001787 0.000000 0.000000 0.000000
# 2 -0.008239 0.016289 -0.001787 0.000000 0.000000 0.000000
# 3 -0.001787 -0.001787 0.013279 0.000000 0.000000 0.000000
# 4 0.000000 0.000000 0.000000 0.047502 0.000000 0.000000
# 5 0.000000 0.000000 0.000000 0.000000 0.047502 0.000000
# 6 0.000000 0.000000 0.000000 0.000000 0.000000 0.049056
#
#
# Mechanical properties :
#
#
# Convention : Reuss Voigt Hill
#
# Bulk Modulus (GPa) = 44.97808 46.15631 45.56720
# Shear Modulus (GPa) = 22.62914 23.94738 23.28826
#
# Velocity S-wave (km/s) = 3.60283 3.70628 3.65492
# Velocity P-wave (km/s) = 6.56561 6.69263 6.62942
#
# Compressibility (1/GPa) = 0.02223305
#
# Stress axis : x y z
#
# Youngs Moduli (GPa) = 61.39019 61.39019 75.30488
#
# Poissons Ratio (x) = 0.50579 0.13455
# Poissons Ratio (y) = 0.50579 0.13455
# Poissons Ratio (z) = 0.10969 0.10969
#
# Static dielectric constant tensor:
#      x y z
#    x 3.092890 0.000000 0.000000 
#    y 0.000000 3.092890 0.000000 
#    z 0.000000 0.000000 3.601180 
# 
# 
# High freq. dielectric constant tensor:
#      x y z
#    x 1.654770 0.000000 0.000000 
#    y 0.000000 1.654770 0.000000 
#    z 0.000000 0.000000 1.701970 
# 
# From -- ./inp_files/237.got.cif
#   From: 2010.03.12/outbox.cif.g09.slc.cpg/sg169_cif.got.tgz:237.got - 2010.04.02 06:46:06.
