data_PCOD8324470
_publ_section_title
;
Structure prediction by ZEFSAII (Michael W. Deem and Ramdas Pophale) SiO2 
 PCOD8324470
Probable space group: P 61
;
_chemical_formula_sum "Si O2"
_cell_formula_units_Z 48
_cell_length_a 14.170751
_cell_length_b 14.170751
_cell_length_c 13.449600
_cell_angle_alpha 90.000000
_cell_angle_beta 90.000000
_cell_angle_gamma 120.000000
_cell_volume 2338.975829
_symmetry_space_group_name_H-M "P 61"
_symmetry_group_IT_number 169
_symmetry_cell_setting 'hexagonal'
loop_
_space_group_symop_operation_xyz
x,y,z
x-y,x,1/6+z
-y,x-y,1/3+z
-x,-y,1/2+z
-x+y,-x,2/3+z
y,-x+y,5/6+z
loop_
_atom_site_type_symbol
_atom_site_label
_atom_site_fract_x
_atom_site_fract_y
_atom_site_fract_z
Si Si1 0.503851 0.498519 0.051840
Si Si2 0.382231 0.802758 0.268891
Si Si3 0.914964 0.827958 0.647154
Si Si4 0.295264 0.230527 0.240632
Si Si5 0.740242 0.136309 0.360798
Si Si6 0.223122 0.653947 0.961663
Si Si7 0.476225 0.458904 0.276578
Si Si8 0.727547 0.552227 0.991289
O O1 0.443350 0.384112 0.992065
O O2 0.518902 0.473482 0.164610
O O3 0.445610 0.571067 0.036921
O O4 0.623766 0.566425 0.005031
O O5 0.396733 0.697778 0.275873
O O6 0.453656 0.888182 0.180874
O O7 0.253256 0.757124 0.254458
O O8 0.903779 0.873728 0.538806
O O9 0.833594 0.820679 0.736136
O O10 0.881182 0.702023 0.620337
O O11 0.333179 0.243418 0.128633
O O12 0.358127 0.349975 0.291260
O O13 0.326334 0.151521 0.300921
O O14 0.766034 0.261635 0.373427
O O15 0.103534 0.547024 0.967053
O O16 0.246519 0.716323 0.067610
#
# Coordination Sequence:
#
# PCOD8324470 Si02
#       8
#     6   6   6   6   6   6   6   6
#     4  11  22  38  58  88 124 166 208 252 318 381
#     4  11  24  36  58  92 121 166 211 249 317 379
#     4  10  19  34  60  92 117 152 209 260 310 359
#     4   8  17  32  56  84 115 150 198 254 307 353
#     4   9  18  34  56  84 117 155 197 255 307 359
#     4  11  20  37  60  87 125 167 206 260 315 373
#     4  10  21  37  56  86 126 157 212 259 304 384
#     4  10  21  36  58  87 129 161 201 259 310 380
#
# _framework density 20.521803999999999
#
# number of rings (size 3 to 8) (size 9 to 14) (size 15 to 20)
#    0.000    2.000    3.750    0.750    1.750    0.000 
#    0.000    0.000    0.000    3.000    0.000    0.000 
#    0.000    0.000    0.000    0.000    0.000    0.000 
#
# Total GULP energy -594663.847794 kJ/mol
# GULP energy per Si atom -12388.830162 kJ/mol
# Density = 2.047510 g / cm^3
# Si number density = 20.521804 Si / 1000 Ang^3
#
#
#
# Elastic Constant Matrix: (Units=GPa)
#
#
# Indices 1 2 3 4 5 6 
#
# 1 91.3882 31.2398 2.6660 0.0000 0.0000 0.0000
# 2 31.2398 91.3882 2.6660 0.0000 0.0000 0.0000
# 3 2.6660 2.6660 34.3667 0.0000 0.0000 0.0000
# 4 0.0000 0.0000 0.0000 25.2118 0.0000 0.0000
# 5 0.0000 0.0000 0.0000 0.0000 25.2118 0.0000
# 6 0.0000 0.0000 0.0000 0.0000 0.0000 30.0742
#
#
#
# Elastic Compliance Matrix: (Units=1/GPa)
#
#
# Indices 1 2 3 4 5 6 
#
# 1 0.012404 -0.004222 -0.000635 0.000000 0.000000 0.000000
# 2 -0.004222 0.012404 -0.000635 0.000000 0.000000 0.000000
# 3 -0.000635 -0.000635 0.029196 0.000000 0.000000 0.000000
# 4 0.000000 0.000000 0.000000 0.039664 0.000000 0.000000
# 5 0.000000 0.000000 0.000000 0.000000 0.039664 0.000000
# 6 0.000000 0.000000 0.000000 0.000000 0.000000 0.033251
#
#
# Mechanical properties :
#
#
# Convention : Reuss Voigt Hill
#
# Bulk Modulus (GPa) = 23.24387 32.25409 27.74898
# Shear Modulus (GPa) = 26.05440 28.13765 27.09603
#
# Velocity S-wave (km/s) = 3.56700 3.70687 3.63761
# Velocity P-wave (km/s) = 5.32125 5.83714 5.58516
#
# Compressibility (1/GPa) = 0.04302209
#
# Stress axis : x y z
#
# Youngs Moduli (GPa) = 80.61956 80.61956 34.25082
#
# Poissons Ratio (x) = 0.34034 0.02174
# Poissons Ratio (y) = 0.34034 0.02174
# Poissons Ratio (z) = 0.05117 0.05117
#
# Static dielectric constant tensor:
#      x y z
#    x 3.855380 0.000000 0.000000 
#    y 0.000000 3.855380 0.000000 
#    z 0.000000 0.000000 3.524450 
# 
# 
# High freq. dielectric constant tensor:
#      x y z
#    x 1.792870 0.000000 0.000000 
#    y 0.000000 1.792870 0.000000 
#    z 0.000000 0.000000 1.774110 
# 
# From -- ./inp_files/1245.got.cif
#   From: 2010.03.12/outbox.cif.g09.slc.cpg/sg169_cif.got.tgz:1245.got - 2010.04.02 06:46:06.
