data_PCOD8324384
_publ_section_title
;
Structure prediction by ZEFSAII (Michael W. Deem and Ramdas Pophale) SiO2 
 PCOD8324384
Probable space group: R -3 C 
;
_chemical_formula_sum "Si O2"
_cell_formula_units_Z 120
_cell_length_a 16.131956
_cell_length_b 16.131956
_cell_length_c 21.102593
_cell_angle_alpha 90.000000
_cell_angle_beta 90.000000
_cell_angle_gamma 120.000000
_cell_volume 4755.985394
_symmetry_space_group_name_H-M "R -3 C "
_symmetry_group_IT_number 167
_symmetry_cell_setting 'hexagonal'
loop_
_space_group_symop_operation_xyz
x,y,z
-y,x-y,z
-x+y,-x,z
x-y,-y,1/2-z
-x,-x+y,1/2-z
y,x,1/2-z
-x,-y,-z
y,-x+y,-z
x-y,x,-z
-x+y,y,1/2+z
x,x-y,1/2+z
-y,-x,1/2+z
2/3+x,1/3+y,1/3+z
2/3-y,1/3+x-y,1/3+z
2/3-x+y,1/3-x,1/3+z
2/3+x-y,1/3-y,5/6-z
2/3-x,1/3-x+y,5/6-z
2/3+y,1/3+x,5/6-z
2/3-x,1/3-y,1/3-z
2/3+y,1/3-x+y,1/3-z
2/3+x-y,1/3+x,1/3-z
2/3-x+y,1/3+y,5/6+z
2/3+x,1/3+x-y,5/6+z
2/3-y,1/3-x,5/6+z
1/3+x,2/3+y,2/3+z
1/3-y,2/3+x-y,2/3+z
1/3-x+y,2/3-x,2/3+z
1/3+x-y,2/3-y,1/6-z
1/3-x,2/3-x+y,1/6-z
1/3+y,2/3+x,1/6-z
1/3-x,2/3-y,2/3-z
1/3+y,2/3-x+y,2/3-z
1/3+x-y,2/3+x,2/3-z
1/3-x+y,2/3+y,1/6+z
1/3+x,2/3+x-y,1/6+z
1/3-y,2/3-x,1/6+z
loop_
_atom_site_type_symbol
_atom_site_label
_atom_site_fract_x
_atom_site_fract_y
_atom_site_fract_z
Si Si1 0.028401 0.349555 0.847699
Si Si2 0.527104 0.860492 0.227466
Si Si3 0.670443 0.178030 0.436175
Si Si4 0.333334 0.666667 0.489046
O O1 0.066505 0.399838 0.916667
O O2 0.921525 0.333324 0.834091
O O3 0.018209 0.246391 0.855292
O O4 0.098663 0.409091 0.791434
O O5 0.434986 0.875609 0.228026
O O6 0.501267 0.749837 0.223784
O O7 0.697572 0.258864 0.488355
O O8 0.333334 0.666668 0.416667
#
# Coordination Sequence:
#
# PCOD8324384 Si02
#       4
#    36  36  36  12
#     4  11  26  43  73 108 150 189 244 300 371 433
#     4  10  25  47  74 111 143 198 249 300 369 439
#     4  10  23  45  70 104 146 190 242 304 359 433
#     4   9  21  39  72 103 137 193 246 286 368 433
#
# _framework density 25.231363000000002
#
# number of rings (size 3 to 8) (size 9 to 14) (size 15 to 20)
#    0.000    1.800    0.000    1.500   12.600    4.800 
#    0.000    3.000    0.000    7.200    0.000    0.000 
#    0.000    0.000    0.000    0.000    0.000    0.000 
#
# Total GULP energy -495870.281920 kJ/mol
# GULP energy per Si atom -12396.757048 kJ/mol
# Density = 2.517394 g / cm^3
# Si number density = 25.231363 Si / 1000 Ang^3
#
#
#
# Elastic Constant Matrix: (Units=GPa)
#
#
# Indices 1 2 3 4 5 6 
#
# 1 121.5892 15.0146 13.7742 -3.6335 0.0003 0.0000
# 2 15.0146 121.5889 13.7739 3.6337 -0.0004 0.0000
# 3 13.7742 13.7739 157.1298 0.0001 -0.0001 -0.0001
# 4 -3.6335 3.6337 0.0001 24.4450 -0.0001 -0.0004
# 5 0.0003 -0.0004 -0.0001 -0.0001 24.4453 -3.6334
# 6 0.0000 0.0000 -0.0001 -0.0004 -3.6334 53.2872
#
#
#
# Elastic Compliance Matrix: (Units=1/GPa)
#
#
# Indices 1 2 3 4 5 6 
#
# 1 0.008466 -0.001014 -0.000653 0.001409 0.000000 0.000000
# 2 -0.001014 0.008466 -0.000653 -0.001409 0.000000 0.000000
# 3 -0.000653 -0.000653 0.006479 0.000000 0.000000 0.000000
# 4 0.001409 -0.001409 0.000000 0.041327 0.000000 0.000000
# 5 0.000000 0.000000 0.000000 0.000000 0.041326 0.002818
# 6 0.000000 0.000000 0.000000 0.000000 0.002818 0.018958
#
#
# Mechanical properties :
#
#
# Convention : Reuss Voigt Hill
#
# Bulk Modulus (GPa) = 53.27643 53.93703 53.60673
# Shear Modulus (GPa) = 36.78674 44.28520 40.53597
#
# Velocity S-wave (km/s) = 3.82249 4.19401 4.01255
# Velocity P-wave (km/s) = 6.37518 6.69898 6.53909
#
# Compressibility (1/GPa) = 0.01877003
#
# Stress axis : x y z
#
# Youngs Moduli (GPa) = 118.12403 118.12372 154.35209
#
# Poissons Ratio (x) = 0.11972 0.10083
# Poissons Ratio (y) = 0.11972 0.10083
# Poissons Ratio (z) = 0.07717 0.07716
#
# Static dielectric constant tensor:
#      x y z
#    x 4.708940 0.000000 0.000000 
#    y 0.000000 4.708960 -0.000010 
#    z 0.000000 -0.000010 4.594700 
# 
# 
# High freq. dielectric constant tensor:
#      x y z
#    x 2.015280 0.000000 0.000000 
#    y 0.000000 2.015280 0.000000 
#    z 0.000000 0.000000 2.030150 
# 
# From -- ./inp_files/5092.got.cif
#   From: 2010.03.12/outbox.cif.g09.slc.cpg/sg167_3_cif.got.tgz:5092.got - 2010.04.02 06:42:56.
