data_PCOD8324978
_publ_section_title
;
Structure prediction by ZEFSAII (Michael W. Deem and Ramdas Pophale) SiO2 
 PCOD8324978
Probable space group: P -6
;
_chemical_formula_sum "Si O2"
_cell_formula_units_Z 32
_cell_length_a 14.228781
_cell_length_b 14.228781
_cell_length_c 9.075137
_cell_angle_alpha 90.000000
_cell_angle_beta 90.000000
_cell_angle_gamma 120.000000
_cell_volume 1591.179635
_symmetry_space_group_name_H-M "P -6"
_symmetry_group_IT_number 174
_symmetry_cell_setting 'hexagonal'
loop_
_space_group_symop_operation_xyz
x,y,z
-x+y,-x,-z
-y,x-y,z
x,y,-z
-x+y,-x,z
-y,x-y,-z
loop_
_atom_site_type_symbol
_atom_site_label
_atom_site_fract_x
_atom_site_fract_y
_atom_site_fract_z
Si Si1 0.266104 0.733896 0.826831
Si Si2 0.948568 0.680145 0.329544
Si Si3 0.707426 0.853713 0.175101
Si Si4 0.908333 0.454167 0.674897
Si Si5 0.731577 0.680145 0.329544
Si Si6 0.666668 0.333334 0.676508
O O1 0.210263 0.605131 0.783065
O O2 0.207212 0.792787 0.753607
O O3 0.256247 0.743753 0.000000
O O4 0.980778 0.706266 0.500000
O O5 0.965907 0.580459 0.274247
O O6 0.823696 0.647393 0.305079
O O7 0.024013 0.788192 0.235524
O O8 0.764179 0.788192 0.235524
O O9 0.713493 0.856746 0.000000
O O10 0.900368 0.450184 0.500000
O O11 0.965909 0.385449 0.725753
O O12 0.787721 0.393859 0.740790
O O13 0.725488 0.706266 0.500000
O O14 0.666667 0.333334 0.500000
#
# Coordination Sequence:
#
# PCOD8324978 Si02
#       6
#     6   6   6   6   6   2
#     4   7  14  30  50  74 107 145 184 217 263 334
#     4  10  21  38  60  87 118 152 190 236 291 348
#     4  11  23  37  58  83 113 155 198 244 285 334
#     4   9  16  29  56  92 123 146 179 228 282 347
#     4  10  21  38  60  87 118 152 190 236 291 348
#     4   9  12  24  51  87 121 146 175 213 274 347
#
# _framework density 20.110866999999999
#
# number of rings (size 3 to 8) (size 9 to 14) (size 15 to 20)
#    0.375    2.250    1.875    0.562    2.625    0.750 
#    1.125    0.000    0.000    0.000    0.000    0.000 
#    0.000    0.000    0.000    0.000    0.000    0.000 
#
# Total GULP energy -396431.591353 kJ/mol
# GULP energy per Si atom -12388.487230 kJ/mol
# Density = 2.006509 g / cm^3
# Si number density = 20.110867 Si / 1000 Ang^3
#
#
#
# Elastic Constant Matrix: (Units=GPa)
#
#
# Indices 1 2 3 4 5 6 
#
# 1 90.0052 24.7230 34.2885 0.0000 0.0000 0.0003
# 2 24.7230 90.0048 34.2885 0.0000 0.0000 0.0001
# 3 34.2885 34.2885 54.3195 0.0000 0.0000 0.0000
# 4 0.0000 0.0000 0.0000 17.7670 -0.0001 0.0000
# 5 0.0000 0.0000 0.0000 -0.0001 17.7669 0.0000
# 6 0.0003 0.0001 0.0000 0.0000 0.0000 32.6412
#
#
#
# Elastic Compliance Matrix: (Units=1/GPa)
#
#
# Indices 1 2 3 4 5 6 
#
# 1 0.014658 -0.000660 -0.008836 0.000000 0.000000 0.000000
# 2 -0.000660 0.014658 -0.008836 0.000000 0.000000 0.000000
# 3 -0.008836 -0.008836 0.029565 0.000000 0.000000 0.000000
# 4 0.000000 0.000000 0.000000 0.056284 0.000000 0.000000
# 5 0.000000 0.000000 0.000000 0.000000 0.056284 0.000000
# 6 0.000000 0.000000 0.000000 0.000000 0.000000 0.030636
#
#
# Mechanical properties :
#
#
# Convention : Reuss Voigt Hill
#
# Bulk Modulus (GPa) = 45.01135 46.76994 45.89065
# Shear Modulus (GPa) = 20.31239 23.03698 21.67468
#
# Velocity S-wave (km/s) = 3.18153 3.38819 3.28649
# Velocity P-wave (km/s) = 5.99386 6.21394 6.10489
#
# Compressibility (1/GPa) = 0.02221662
#
# Stress axis : x y z
#
# Youngs Moduli (GPa) = 68.22240 68.22200 33.82409
#
# Poissons Ratio (x) = 0.04504 0.29887
# Poissons Ratio (y) = 0.04504 0.29887
# Poissons Ratio (z) = 0.60281 0.60281
#
# Static dielectric constant tensor:
#      x y z
#    x 3.728020 0.000000 0.000000 
#    y 0.000000 3.728030 0.000000 
#    z 0.000000 0.000000 3.044320 
# 
# 
# High freq. dielectric constant tensor:
#      x y z
#    x 1.783740 0.000000 0.000000 
#    y 0.000000 1.783740 0.000000 
#    z 0.000000 0.000000 1.731360 
# 
# From -- ./inp_files/316.got.cif
#   From: 2010.03.12/outbox.cif.g09.slc.cpg/sg174_cif.got.tgz:316.got - 2010.04.02 06:54:58.
