data_PCOD8324902
_publ_section_title
;
Structure prediction by ZEFSAII (Michael W. Deem and Ramdas Pophale) SiO2 
 PCOD8324902
Probable space group: P -6
;
_chemical_formula_sum "Si O2"
_cell_formula_units_Z 48
_cell_length_a 18.025732
_cell_length_b 18.025732
_cell_length_c 9.349599
_cell_angle_alpha 90.000000
_cell_angle_beta 90.000000
_cell_angle_gamma 120.000000
_cell_volume 2630.930865
_symmetry_space_group_name_H-M "P -6"
_symmetry_group_IT_number 174
_symmetry_cell_setting 'hexagonal'
loop_
_space_group_symop_operation_xyz
x,y,z
-x+y,-x,-z
-y,x-y,z
x,y,-z
-x+y,-x,z
-y,x-y,-z
loop_
_atom_site_type_symbol
_atom_site_label
_atom_site_fract_x
_atom_site_fract_y
_atom_site_fract_z
Si Si1 0.399610 0.545440 0.167249
Si Si2 0.098698 0.286311 0.331230
Si Si3 0.282042 0.096258 0.670378
Si Si4 0.263292 0.797013 0.831329
Si Si5 0.013850 0.613887 0.341381
Si Si6 0.545767 0.377945 0.658342
Si Si7 0.475374 0.193001 0.671031
Si Si8 0.770000 0.999423 0.332125
O O1 0.466756 0.640684 0.218403
O O2 0.302491 0.514886 0.212204
O O3 0.425997 0.483378 0.244052
O O4 0.407039 0.537424 0.000000
O O5 0.103052 0.305769 0.500000
O O6 0.149482 0.377179 0.251785
O O7 0.139451 0.225349 0.297552
O O8 0.001487 0.232601 0.273735
O O9 0.280359 0.095177 0.500000
O O10 0.378831 0.139235 0.732210
O O11 0.236450 0.149331 0.729316
O O12 0.257051 0.809944 0.000000
O O13 0.055957 0.635533 0.500000
O O14 0.018082 0.697230 0.268266
O O15 0.916424 0.543824 0.351492
O O16 0.581226 0.378058 0.500000
O O17 0.525577 0.289716 0.734874
O O18 0.619820 0.466567 0.728634
O O19 0.465995 0.192714 0.500000
O O20 0.766662 0.013749 0.500000
#
# Coordination Sequence:
#
# PCOD8324902 Si02
#       8
#     6   6   6   6   6   6   6   6
#     4  10  21  36  53  73  98 133 171 206 249 307
#     4  10  20  33  53  79 104 134 173 215 260 309
#     4   9  17  29  45  69 102 134 162 199 251 305
#     4  10  21  37  55  74 102 137 173 212 257 310
#     4  10  18  30  50  74  99 129 165 206 253 297
#     4   9  16  24  39  65  96 130 161 195 239 287
#     4   9  15  24  37  60  95 129 159 191 232 284
#     4   9  16  31  49  70 102 134 164 206 259 303
#
# _framework density 18.244495000000001
#
# number of rings (size 3 to 8) (size 9 to 14) (size 15 to 20)
#    0.000    2.500    2.500    0.500    1.750    2.500 
#    0.750    0.000    0.000    3.000    0.000    0.875 
#    0.000    0.000    0.000    0.000    0.000    0.000 
#
# Total GULP energy -594775.263275 kJ/mol
# GULP energy per Si atom -12391.151318 kJ/mol
# Density = 1.820297 g / cm^3
# Si number density = 18.244495 Si / 1000 Ang^3
#
#
#
# Elastic Constant Matrix: (Units=GPa)
#
#
# Indices 1 2 3 4 5 6 
#
# 1 125.2952 61.1687 17.7283 0.0000 0.0000 0.0000
# 2 61.1687 125.2952 17.7283 0.0000 0.0000 0.0000
# 3 17.7283 17.7283 12.2541 0.0000 0.0000 0.0000
# 4 0.0000 0.0000 0.0000 12.5895 0.0000 0.0000
# 5 0.0000 0.0000 0.0000 0.0000 12.5895 0.0000
# 6 0.0000 0.0000 0.0000 0.0000 0.0000 32.0632
#
#
#
# Elastic Compliance Matrix: (Units=1/GPa)
#
#
# Indices 1 2 3 4 5 6 
#
# 1 0.011496 -0.004098 -0.010703 0.000000 0.000000 0.000000
# 2 -0.004098 0.011496 -0.010703 0.000000 0.000000 0.000000
# 3 -0.010703 -0.010703 0.112575 0.000000 0.000000 0.000000
# 4 0.000000 0.000000 0.000000 0.079431 0.000000 0.000000
# 5 0.000000 0.000000 0.000000 0.000000 0.079431 0.000000
# 6 0.000000 0.000000 0.000000 0.000000 0.000000 0.031188
#
#
# Mechanical properties :
#
#
# Convention : Reuss Voigt Hill
#
# Bulk Modulus (GPa) = 11.82614 50.67721 31.25167
# Shear Modulus (GPa) = 12.35138 22.52972 17.44055
#
# Velocity S-wave (km/s) = 2.60473 3.51790 3.09517
# Velocity P-wave (km/s) = 3.94237 6.65866 5.47175
#
# Compressibility (1/GPa) = 0.08455847
#
# Stress axis : x y z
#
# Youngs Moduli (GPa) = 86.98529 86.98529 8.88298
#
# Poissons Ratio (x) = 0.35646 0.09508
# Poissons Ratio (y) = 0.35646 0.09508
# Poissons Ratio (z) = 0.93102 0.93102
#
# Static dielectric constant tensor:
#      x y z
#    x 3.544060 0.000000 0.000000 
#    y 0.000000 3.544060 0.000000 
#    z 0.000000 0.000000 2.811410 
# 
# 
# High freq. dielectric constant tensor:
#      x y z
#    x 1.719230 0.000000 0.000000 
#    y 0.000000 1.719230 0.000000 
#    z 0.000000 0.000000 1.635230 
# 
# From -- ./inp_files/840.got.cif
#   From: 2010.03.12/outbox.cif.g09.slc.cpg/sg174_cif.got.tgz:840.got - 2010.04.02 06:54:58.
