data_PCOD8324740
_publ_section_title
;
Structure prediction by ZEFSAII (Michael W. Deem and Ramdas Pophale) SiO2 
 PCOD8324740
Probable space group: P 62
;
_chemical_formula_sum "Si O2"
_cell_formula_units_Z 27
_cell_length_a 13.764528
_cell_length_b 13.764528
_cell_length_c 7.152072
_cell_angle_alpha 90.000000
_cell_angle_beta 90.000000
_cell_angle_gamma 120.000000
_cell_volume 1173.505574
_symmetry_space_group_name_H-M "P 62"
_symmetry_group_IT_number 171
_symmetry_cell_setting 'hexagonal'
loop_
_space_group_symop_operation_xyz
x,y,z
x-y,x,1/3+z
-y,x-y,2/3+z
-x,-y,z
-x+y,-x,1/3+z
y,-x+y,2/3+z
loop_
_atom_site_type_symbol
_atom_site_label
_atom_site_fract_x
_atom_site_fract_y
_atom_site_fract_z
Si Si1 0.397042 0.139120 0.323180
Si Si2 0.795816 0.685585 0.055513
Si Si3 0.500000 0.000000 0.456522
Si Si4 0.584175 0.708351 0.029857
Si Si5 0.016254 0.876309 0.911743
O O1 0.388518 0.166273 0.537607
O O2 0.452166 0.059389 0.319098
O O3 0.466716 0.256544 0.207215
O O4 0.273941 0.073243 0.229310
O O5 0.690712 0.700983 0.101195
O O6 0.810326 0.618473 0.219997
O O7 0.901031 0.808754 0.027350
O O8 0.592736 0.094943 0.594411
O O9 0.091771 0.990988 0.031472
#
# Coordination Sequence:
#
# PCOD8324740 Si02
#       5
#     6   6   3   6   6
#     4  10  23  42  70 100 136 185 231 288 360 410
#     4  10  20  39  64 102 143 173 222 273 347 430
#     4  10  22  48  74 102 144 184 250 308 344 444
#     4  11  23  41  73 103 137 184 228 293 360 415
#     4  10  19  39  65 100 145 183 225 271 339 429
#
# _framework density 23.007988000000001
#
# number of rings (size 3 to 8) (size 9 to 14) (size 15 to 20)
#    0.000    1.778    6.667    0.000    6.222    0.000 
#    0.000   17.778   19.556    0.000    0.000    0.000 
#    0.000    0.000    0.000    0.000    0.000    0.000 
#
# Total GULP energy -334699.314017 kJ/mol
# GULP energy per Si atom -12396.270890 kJ/mol
# Density = 2.295562 g / cm^3
# Si number density = 23.007988 Si / 1000 Ang^3
#
#
#
# Elastic Constant Matrix: (Units=GPa)
#
#
# Indices 1 2 3 4 5 6 
#
# 1 100.7508 35.2429 53.9597 0.0000 0.0000 0.0000
# 2 35.2429 100.7508 53.9597 0.0000 0.0000 0.0000
# 3 53.9597 53.9597 126.6588 0.0000 0.0000 0.0000
# 4 0.0000 0.0000 0.0000 13.5520 0.0000 0.0000
# 5 0.0000 0.0000 0.0000 0.0000 13.5520 0.0000
# 6 0.0000 0.0000 0.0000 0.0000 0.0000 32.7540
#
#
#
# Elastic Compliance Matrix: (Units=1/GPa)
#
#
# Indices 1 2 3 4 5 6 
#
# 1 0.013187 -0.002078 -0.004733 0.000000 0.000000 0.000000
# 2 -0.002078 0.013187 -0.004733 0.000000 0.000000 0.000000
# 3 -0.004733 -0.004733 0.011928 0.000000 0.000000 0.000000
# 4 0.000000 0.000000 0.000000 0.073790 0.000000 0.000000
# 5 0.000000 0.000000 0.000000 0.000000 0.073790 0.000000
# 6 0.000000 0.000000 0.000000 0.000000 0.000000 0.030531
#
#
# Mechanical properties :
#
#
# Convention : Reuss Voigt Hill
#
# Bulk Modulus (GPa) = 65.72511 68.27610 67.00060
# Shear Modulus (GPa) = 20.44396 24.30482 22.37439
#
# Velocity S-wave (km/s) = 2.98410 3.25370 3.12181
# Velocity P-wave (km/s) = 6.36407 6.62230 6.49447
#
# Compressibility (1/GPa) = 0.01521489
#
# Stress axis : x y z
#
# Youngs Moduli (GPa) = 75.83149 75.83149 83.83855
#
# Poissons Ratio (x) = 0.15759 0.39678
# Poissons Ratio (y) = 0.15759 0.39678
# Poissons Ratio (z) = 0.35889 0.35889
#
# Static dielectric constant tensor:
#      x y z
#    x 4.229600 0.000000 0.000000 
#    y 0.000000 4.229600 0.000000 
#    z 0.000000 0.000000 4.305590 
# 
# 
# High freq. dielectric constant tensor:
#      x y z
#    x 1.890720 0.000000 0.000000 
#    y 0.000000 1.890720 0.000000 
#    z 0.000000 0.000000 1.918750 
# 
# From -- ./inp_files/1098.got.cif
#   From: 2010.03.12/outbox.cif.g09.slc.cpg/sg171_1_cif.got.tgz:1098.got - 2010.04.02 06:49:11.
