data_PCOD8324802
_publ_section_title
;
Structure prediction by ZEFSAII (Michael W. Deem and Ramdas Pophale) SiO2 
 PCOD8324802
Probable space group: P 62
;
_chemical_formula_sum "Si O2"
_cell_formula_units_Z 42
_cell_length_a 17.884928
_cell_length_b 17.884928
_cell_length_c 7.195141
_cell_angle_alpha 90.000000
_cell_angle_beta 90.000000
_cell_angle_gamma 120.000000
_cell_volume 1993.169960
_symmetry_space_group_name_H-M "P 62"
_symmetry_group_IT_number 171
_symmetry_cell_setting 'hexagonal'
loop_
_space_group_symop_operation_xyz
x,y,z
x-y,x,1/3+z
-y,x-y,2/3+z
-x,-y,z
-x+y,-x,1/3+z
y,-x+y,2/3+z
loop_
_atom_site_type_symbol
_atom_site_label
_atom_site_fract_x
_atom_site_fract_y
_atom_site_fract_z
Si Si1 0.530496 0.596803 0.861600
Si Si2 0.845964 0.166828 0.386271
Si Si3 0.985348 0.574614 0.771877
Si Si4 0.618913 0.767225 0.318469
Si Si5 0.251998 0.959319 0.666018
Si Si6 0.601500 0.327274 0.866871
Si Si7 0.452070 0.172624 0.022783
O O1 0.500000 0.500000 0.937610
O O2 0.565918 0.601404 0.655187
O O3 0.614028 0.660994 0.981275
O O4 0.454555 0.622616 0.866944
O O5 0.806519 0.071776 0.478106
O O6 0.809330 0.211135 0.525692
O O7 0.947559 0.215042 0.378341
O O8 0.810870 0.161992 0.182485
O O9 0.905129 0.569380 0.665527
O O10 0.000000 0.500000 0.693376
O O11 0.071475 0.661168 0.716510
O O12 0.553065 0.792224 0.226284
O O13 0.700574 0.799531 0.178349
O O14 0.621247 0.310676 0.655479
O O15 0.551009 0.231834 0.961889
#
# Coordination Sequence:
#
# PCOD8324802 Si02
#       7
#     6   6   6   6   6   6   6
#     4  11  25  45  67  98 130 185 244 287 351 417
#     4  11  23  42  68 100 140 169 227 289 346 417
#     4  11  24  42  69  98 130 182 235 283 349 420
#     4  11  22  40  70  92 136 168 226 284 344 403
#     4  11  23  42  66 103 131 178 226 284 353 408
#     4  12  30  48  67  99 143 191 240 297 368 418
#     4  11  25  45  65 100 134 183 233 289 353 412
#
# _framework density 21.071961999999999
#
# number of rings (size 3 to 8) (size 9 to 14) (size 15 to 20)
#    0.000    0.857    5.714    0.857    8.000    1.714 
#    0.000    0.000    0.000    0.000    0.000    5.000 
#    0.000    0.000    0.000    0.000    0.000    0.000 
#
# Total GULP energy -520485.736537 kJ/mol
# GULP energy per Si atom -12392.517537 kJ/mol
# Density = 2.102400 g / cm^3
# Si number density = 21.071962 Si / 1000 Ang^3
#
#
#
# Elastic Constant Matrix: (Units=GPa)
#
#
# Indices 1 2 3 4 5 6 
#
# 1 73.6304 20.4161 18.6084 0.0000 0.0000 0.0000
# 2 20.4161 73.6304 18.6084 0.0000 0.0000 0.0000
# 3 18.6084 18.6084 129.5982 0.0000 0.0000 0.0000
# 4 0.0000 0.0000 0.0000 26.3852 0.0000 0.0000
# 5 0.0000 0.0000 0.0000 0.0000 26.3852 0.0000
# 6 0.0000 0.0000 0.0000 0.0000 0.0000 26.6072
#
#
#
# Elastic Compliance Matrix: (Units=1/GPa)
#
#
# Indices 1 2 3 4 5 6 
#
# 1 0.015033 -0.003759 -0.001619 0.000000 0.000000 0.000000
# 2 -0.003759 0.015033 -0.001619 0.000000 0.000000 0.000000
# 3 -0.001619 -0.001619 0.008181 0.000000 0.000000 0.000000
# 4 0.000000 0.000000 0.000000 0.037900 0.000000 0.000000
# 5 0.000000 0.000000 0.000000 0.000000 0.037900 0.000000
# 6 0.000000 0.000000 0.000000 0.000000 0.000000 0.037584
#
#
# Mechanical properties :
#
#
# Convention : Reuss Voigt Hill
#
# Bulk Modulus (GPa) = 41.23147 43.56944 42.40046
# Shear Modulus (GPa) = 28.78389 30.49057 29.63723
#
# Velocity S-wave (km/s) = 3.69993 3.80804 3.75437
# Velocity P-wave (km/s) = 6.15322 6.32900 6.24173
#
# Compressibility (1/GPa) = 0.02425332
#
# Stress axis : x y z
#
# Youngs Moduli (GPa) = 66.52134 66.52134 122.23438
#
# Poissons Ratio (x) = 0.25006 0.19786
# Poissons Ratio (y) = 0.25006 0.19786
# Poissons Ratio (z) = 0.10768 0.10768
#
# Static dielectric constant tensor:
#      x y z
#    x 4.366730 0.000000 0.000000 
#    y 0.000000 4.366730 0.000000 
#    z 0.000000 0.000000 4.084880 
# 
# 
# High freq. dielectric constant tensor:
#      x y z
#    x 1.812840 0.000000 0.000000 
#    y 0.000000 1.812840 0.000000 
#    z 0.000000 0.000000 1.853270 
# 
# From -- ./inp_files/774.got.cif
#   From: 2010.03.12/outbox.cif.g09.slc.cpg/sg171_1_cif.got.tgz:774.got - 2010.04.02 06:49:11.
