data_PCOD8324255
_publ_section_title
;
Structure prediction by ZEFSAII (Michael W. Deem and Ramdas Pophale) SiO2 
 PCOD8324255
Probable space group: R -3 M
;
_chemical_formula_sum "Si O2"
_cell_formula_units_Z 90
_cell_length_a 14.576090
_cell_length_b 14.576090
_cell_length_c 23.432300
_cell_angle_alpha 90.000000
_cell_angle_beta 90.000000
_cell_angle_gamma 120.000000
_cell_volume 4311.492480
_symmetry_space_group_name_H-M "R -3 M"
_symmetry_group_IT_number 166
_symmetry_cell_setting 'hexagonal'
loop_
_space_group_symop_operation_xyz
x,y,z
-y,x-y,z
-x+y,-x,z
x-y,-y,-z
-x,-x+y,-z
y,x,-z
-x,-y,-z
y,-x+y,-z
x-y,x,-z
-x+y,y,z
x,x-y,z
-y,-x,z
2/3+x,1/3+y,1/3+z
2/3-y,1/3+x-y,1/3+z
2/3-x+y,1/3-x,1/3+z
2/3+x-y,1/3-y,1/3-z
2/3-x,1/3-x+y,1/3-z
2/3+y,1/3+x,1/3-z
2/3-x,1/3-y,1/3-z
2/3+y,1/3-x+y,1/3-z
2/3+x-y,1/3+x,1/3-z
2/3-x+y,1/3+y,1/3+z
2/3+x,1/3+x-y,1/3+z
2/3-y,1/3-x,1/3+z
1/3+x,2/3+y,2/3+z
1/3-y,2/3+x-y,2/3+z
1/3-x+y,2/3-x,2/3+z
1/3+x-y,2/3-y,2/3-z
1/3-x,2/3-x+y,2/3-z
1/3+y,2/3+x,2/3-z
1/3-x,2/3-y,2/3-z
1/3+y,2/3-x+y,2/3-z
1/3+x-y,2/3+x,2/3-z
1/3-x+y,2/3+y,2/3+z
1/3+x,2/3+x-y,2/3+z
1/3-y,2/3-x,2/3+z
loop_
_atom_site_type_symbol
_atom_site_label
_atom_site_fract_x
_atom_site_fract_y
_atom_site_fract_z
Si Si1 0.783044 0.216957 0.811799
Si Si2 0.225609 0.774392 0.319102
Si Si3 0.738735 0.869368 0.669415
Si Si4 0.792072 0.584144 0.441631
Si Si5 0.538810 0.461191 0.444726
O O1 0.848470 0.333334 0.833334
O O2 0.768064 0.231937 0.747181
O O3 0.844319 0.155682 0.830846
O O4 0.166667 0.833334 0.333334
O O5 0.153804 0.659043 0.344716
O O6 0.670750 0.835375 0.610269
O O7 0.657653 0.828827 0.721155
O O8 0.665385 0.512138 0.441365
O O9 0.500000 0.500000 0.500000
#
# Coordination Sequence:
#
# PCOD8324255 Si02
#       5
#    18  18  18  18  18
#     4  12  23  42  73 106 138 182 230 293 361 434
#     4  12  25  44  70 104 145 181 235 294 355 421
#     4  12  27  46  73 105 144 191 234 290 361 425
#     4  12  25  48  71 102 143 186 243 284 357 425
#     4  12  29  46  75 105 144 191 243 299 358 421
#
# _framework density 20.874441999999998
#
# number of rings (size 3 to 8) (size 9 to 14) (size 15 to 20)
#    0.000    0.000    4.000    5.800    5.600    0.000 
#    0.000    2.000    0.000    0.000    0.000    0.000 
#    0.000    0.000    0.000    0.000    0.000    0.000 
#
# Total GULP energy -371677.097484 kJ/mol
# GULP energy per Si atom -12389.236583 kJ/mol
# Density = 2.082693 g / cm^3
# Si number density = 20.874442 Si / 1000 Ang^3
#
#
#
# Elastic Constant Matrix: (Units=GPa)
#
#
# Indices 1 2 3 4 5 6 
#
# 1 170.4954 109.6950 19.1012 6.3107 -0.0011 0.0000
# 2 109.6950 170.4954 19.1012 -6.3107 0.0011 0.0000
# 3 19.1012 19.1012 46.1424 0.0000 0.0000 0.0000
# 4 6.3107 -6.3107 0.0000 39.9642 0.0000 0.0011
# 5 -0.0011 0.0011 0.0000 0.0000 39.9642 6.3107
# 6 0.0000 0.0000 0.0000 0.0011 6.3107 30.4002
#
#
#
# Elastic Compliance Matrix: (Units=1/GPa)
#
#
# Indices 1 2 3 4 5 6 
#
# 1 0.010394 -0.006611 -0.001566 -0.002685 0.000000 0.000000
# 2 -0.006611 0.010394 -0.001566 0.002685 0.000000 0.000000
# 3 -0.001566 -0.001566 0.022968 0.000000 0.000000 0.000000
# 4 -0.002685 0.002685 0.000000 0.025870 0.000000 -0.000001
# 5 0.000000 0.000000 0.000000 0.000000 0.025870 -0.005370
# 6 0.000000 0.000000 0.000000 -0.000001 -0.005370 0.034009
#
#
# Mechanical properties :
#
#
# Convention : Reuss Voigt Hill
#
# Bulk Modulus (GPa) = 41.20284 75.88087 58.54186
# Shear Modulus (GPa) = 31.83065 38.01476 34.92270
#
# Velocity S-wave (km/s) = 3.90918 4.27208 4.09466
# Velocity P-wave (km/s) = 6.33695 7.79514 7.10356
#
# Compressibility (1/GPa) = 0.02427017
#
# Stress axis : x y z
#
# Youngs Moduli (GPa) = 96.21313 96.21313 43.53807
#
# Poissons Ratio (x) = 0.63607 0.06817
# Poissons Ratio (y) = 0.63607 0.06817
# Poissons Ratio (z) = 0.15065 0.15065
#
# Static dielectric constant tensor:
#      x y z
#    x 4.228760 0.000000 0.000000 
#    y 0.000000 4.228760 0.000000 
#    z 0.000000 0.000000 3.978030 
# 
# 
# High freq. dielectric constant tensor:
#      x y z
#    x 1.844150 0.000000 0.000000 
#    y 0.000000 1.844150 0.000000 
#    z 0.000000 0.000000 1.825670 
# 
# From -- ./inp_files/9057.got.cif
#   From: 2010.03.12/outbox.cif.g09.slc.cpg/sg166_5_cif.got.tgz:9057.got - 2010.04.02 06:38:31.
