data_PCOD8324796
_publ_section_title
;
Structure prediction by ZEFSAII (Michael W. Deem and Ramdas Pophale) SiO2 
 PCOD8324796
Probable space group: P 62
;
_chemical_formula_sum "Si O2"
_cell_formula_units_Z 36
_cell_length_a 8.916003
_cell_length_b 8.916003
_cell_length_c 25.067534
_cell_angle_alpha 90.000000
_cell_angle_beta 90.000000
_cell_angle_gamma 120.000000
_cell_volume 1725.768971
_symmetry_space_group_name_H-M "P 62"
_symmetry_group_IT_number 171
_symmetry_cell_setting 'hexagonal'
loop_
_space_group_symop_operation_xyz
x,y,z
x-y,x,1/3+z
-y,x-y,2/3+z
-x,-y,z
-x+y,-x,1/3+z
y,-x+y,2/3+z
loop_
_atom_site_type_symbol
_atom_site_label
_atom_site_fract_x
_atom_site_fract_y
_atom_site_fract_z
Si Si1 0.633762 0.699554 0.167090
Si Si2 0.793815 0.900369 0.917309
Si Si3 0.191729 0.163343 0.443977
Si Si4 0.113688 0.690596 0.198895
Si Si5 0.918998 0.614183 0.672299
Si Si6 0.348368 0.542986 0.586715
O O1 0.500000 0.500000 0.151114
O O2 0.813660 0.725283 0.190656
O O3 0.588484 0.777283 0.218013
O O4 0.670545 0.832636 0.118370
O O5 0.724678 0.695738 0.918216
O O6 0.704548 0.948518 0.964167
O O7 0.000000 0.000000 0.922472
O O8 0.318884 0.161563 0.489275
O O9 0.285552 0.179300 0.388117
O O10 0.000000 0.000000 0.444018
O O11 0.276010 0.686426 0.224689
O O12 0.000000 0.500000 0.172709
O O13 0.731493 0.483067 0.646214
O O14 0.000000 0.500000 0.693203
O O15 0.500000 0.500000 0.587855
#
# Coordination Sequence:
#
# PCOD8324796 Si02
#       6
#     6   6   6   6   6   6
#     4  11  21  40  67  95 129 175 227 275 336 410
#     4  11  19  43  68  94 126 175 227 270 326 418
#     4  12  25  45  64  98 136 183 230 286 352 416
#     4  12  22  38  69 100 131 168 227 282 336 415
#     4  11  26  44  64  94 139 180 224 278 342 408
#     4  11  22  40  69 101 131 173 221 281 344 401
#
# _framework density 20.860264000000001
#
# number of rings (size 3 to 8) (size 9 to 14) (size 15 to 20)
#    0.000    0.667    5.000    5.500    2.333    0.667 
#    0.000    4.167    0.000    0.000    0.000    0.000 
#    0.000    0.000    0.000    0.000    0.000    0.000 
#
# Total GULP energy -446064.593487 kJ/mol
# GULP energy per Si atom -12390.683152 kJ/mol
# Density = 2.081278 g / cm^3
# Si number density = 20.860264 Si / 1000 Ang^3
#
#
#
# Elastic Constant Matrix: (Units=GPa)
#
#
# Indices 1 2 3 4 5 6 
#
# 1 100.6522 27.4275 40.4427 0.0000 0.0000 0.0000
# 2 27.4275 100.6522 40.4427 0.0000 0.0000 0.0000
# 3 40.4427 40.4427 105.5546 0.0000 0.0000 0.0000
# 4 0.0000 0.0000 0.0000 16.6454 0.0000 0.0000
# 5 0.0000 0.0000 0.0000 0.0000 16.6454 0.0000
# 6 0.0000 0.0000 0.0000 0.0000 0.0000 36.6124
#
#
#
# Elastic Compliance Matrix: (Units=1/GPa)
#
#
# Indices 1 2 3 4 5 6 
#
# 1 0.011978 -0.001678 -0.003946 0.000000 0.000000 0.000000
# 2 -0.001678 0.011978 -0.003946 0.000000 0.000000 0.000000
# 3 -0.003946 -0.003946 0.012498 0.000000 0.000000 0.000000
# 4 0.000000 0.000000 0.000000 0.060077 0.000000 0.000000
# 5 0.000000 0.000000 0.000000 0.000000 0.060077 0.000000
# 6 0.000000 0.000000 0.000000 0.000000 0.000000 0.027313
#
#
# Mechanical properties :
#
#
# Convention : Reuss Voigt Hill
#
# Bulk Modulus (GPa) = 57.76289 58.16500 57.96394
# Shear Modulus (GPa) = 23.94253 27.21705 25.57979
#
# Velocity S-wave (km/s) = 3.39153 3.61603 3.50558
# Velocity P-wave (km/s) = 6.56408 6.73631 6.65075
#
# Compressibility (1/GPa) = 0.01731215
#
# Stress axis : x y z
#
# Youngs Moduli (GPa) = 83.48490 83.48490 80.01405
#
# Poissons Ratio (x) = 0.14012 0.31576
# Poissons Ratio (y) = 0.14012 0.31576
# Poissons Ratio (z) = 0.32946 0.32946
#
# Static dielectric constant tensor:
#      x y z
#    x 4.272430 0.000000 0.000000 
#    y 0.000000 4.272430 0.000000 
#    z 0.000000 0.000000 3.510590 
# 
# 
# High freq. dielectric constant tensor:
#      x y z
#    x 1.831910 0.000000 0.000000 
#    y 0.000000 1.831910 0.000000 
#    z 0.000000 0.000000 1.783600 
# 
# From -- ./inp_files/5759.got.cif
#   From: 2010.03.12/outbox.cif.g09.slc.cpg/sg171_3_cif.got.tgz:5759.got - 2010.04.02 06:49:11.
