data_PCOD8324618
_publ_section_title
;
Structure prediction by ZEFSAII (Michael W. Deem and Ramdas Pophale) SiO2 
 PCOD8324618
Probable space group: P 61
;
_chemical_formula_sum "Si O2"
_cell_formula_units_Z 24
_cell_length_a 13.346190
_cell_length_b 13.346190
_cell_length_c 6.363083
_cell_angle_alpha 90.000000
_cell_angle_beta 90.000000
_cell_angle_gamma 120.000000
_cell_volume 981.550902
_symmetry_space_group_name_H-M "P 61"
_symmetry_group_IT_number 169
_symmetry_cell_setting 'hexagonal'
loop_
_space_group_symop_operation_xyz
x,y,z
x-y,x,1/6+z
-y,x-y,1/3+z
-x,-y,1/2+z
-x+y,-x,2/3+z
y,-x+y,5/6+z
loop_
_atom_site_type_symbol
_atom_site_label
_atom_site_fract_x
_atom_site_fract_y
_atom_site_fract_z
Si Si1 0.772614 0.533747 0.732810
Si Si2 0.182313 0.245964 0.464442
Si Si3 0.566847 0.410187 0.415080
Si Si4 0.353452 0.969402 0.584321
O O1 0.680362 0.461001 0.555778
O O2 0.899968 0.594532 0.632833
O O3 0.756370 0.636949 0.824912
O O4 0.757174 0.442647 0.915240
O O5 0.196868 0.149453 0.339537
O O6 0.248650 0.278786 0.689454
O O7 0.452978 0.340795 0.555651
O O8 0.568907 0.511681 0.279574
#
# Coordination Sequence:
#
# PCOD8324618 Si02
#       4
#     6   6   6   6
#     4  12  28  49  78 116 162 208 271 330 405 488
#     4  12  27  51  78 116 159 211 273 330 397 478
#     4  12  26  48  78 112 158 210 264 333 406 481
#     4  12  25  52  76 110 161 205 264 333 398 477
#
# _framework density 24.451101999999999
#
# number of rings (size 3 to 8) (size 9 to 14) (size 15 to 20)
#    0.000    0.000    5.000    4.500    0.000    4.000 
#    0.000    0.000    0.000    0.000    0.000    0.000 
#    0.000    0.000    0.000    0.000    0.000    0.000 
#
# Total GULP energy -297767.227909 kJ/mol
# GULP energy per Si atom -12406.967830 kJ/mol
# Density = 2.439545 g / cm^3
# Si number density = 24.451102 Si / 1000 Ang^3
#
#
#
# Elastic Constant Matrix: (Units=GPa)
#
#
# Indices 1 2 3 4 5 6 
#
# 1 125.2100 52.5972 57.8216 0.0000 0.0000 0.0000
# 2 52.5972 125.2100 57.8216 0.0000 0.0000 0.0000
# 3 57.8216 57.8216 129.3115 0.0000 0.0000 0.0000
# 4 0.0000 0.0000 0.0000 52.0349 0.0000 0.0000
# 5 0.0000 0.0000 0.0000 0.0000 52.0349 0.0000
# 6 0.0000 0.0000 0.0000 0.0000 0.0000 36.3064
#
#
#
# Elastic Compliance Matrix: (Units=1/GPa)
#
#
# Indices 1 2 3 4 5 6 
#
# 1 0.010851 -0.002921 -0.003546 0.000000 0.000000 0.000000
# 2 -0.002921 0.010851 -0.003546 0.000000 0.000000 0.000000
# 3 -0.003546 -0.003546 0.010905 0.000000 0.000000 0.000000
# 4 0.000000 0.000000 0.000000 0.019218 0.000000 0.000000
# 5 0.000000 0.000000 0.000000 0.000000 0.019218 0.000000
# 6 0.000000 0.000000 0.000000 0.000000 0.000000 0.027543
#
#
# Mechanical properties :
#
#
# Convention : Reuss Voigt Hill
#
# Bulk Modulus (GPa) = 79.48495 79.57916 79.53206
# Shear Modulus (GPa) = 40.71496 42.17461 41.44479
#
# Velocity S-wave (km/s) = 4.08506 4.15764 4.12151
# Velocity P-wave (km/s) = 7.40463 7.46089 7.43282
#
# Compressibility (1/GPa) = 0.01258100
#
# Stress axis : x y z
#
# Youngs Moduli (GPa) = 92.15712 92.15712 91.70508
#
# Poissons Ratio (x) = 0.26916 0.32519
# Poissons Ratio (y) = 0.26916 0.32519
# Poissons Ratio (z) = 0.32680 0.32680
#
# Static dielectric constant tensor:
#      x y z
#    x 4.456960 0.000000 0.000000 
#    y 0.000000 4.456960 0.000000 
#    z 0.000000 0.000000 4.473340 
# 
# 
# High freq. dielectric constant tensor:
#      x y z
#    x 1.978780 0.000000 0.000000 
#    y 0.000000 1.978780 0.000000 
#    z 0.000000 0.000000 1.984630 
# 
# From -- ./inp_files/51.got.cif
#   From: 2010.03.12/outbox.cif.g09.slc.cpg/sg169_cif.got.tgz:51.got - 2010.04.02 06:46:06.
