data_PCOD8324191
_publ_section_title
;
Structure prediction by ZEFSAII (Michael W. Deem and Ramdas Pophale) SiO2 
 PCOD8324191
Probable space group: R -3 M
;
_chemical_formula_sum "Si O2"
_cell_formula_units_Z 234
_cell_length_a 26.469321
_cell_length_b 26.469321
_cell_length_c 20.254602
_cell_angle_alpha 90.000000
_cell_angle_beta 90.000000
_cell_angle_gamma 120.000000
_cell_volume 12289.662234
_symmetry_space_group_name_H-M "R -3 M"
_symmetry_group_IT_number 166
_symmetry_cell_setting 'hexagonal'
loop_
_space_group_symop_operation_xyz
x,y,z
-y,x-y,z
-x+y,-x,z
x-y,-y,-z
-x,-x+y,-z
y,x,-z
-x,-y,-z
y,-x+y,-z
x-y,x,-z
-x+y,y,z
x,x-y,z
-y,-x,z
2/3+x,1/3+y,1/3+z
2/3-y,1/3+x-y,1/3+z
2/3-x+y,1/3-x,1/3+z
2/3+x-y,1/3-y,1/3-z
2/3-x,1/3-x+y,1/3-z
2/3+y,1/3+x,1/3-z
2/3-x,1/3-y,1/3-z
2/3+y,1/3-x+y,1/3-z
2/3+x-y,1/3+x,1/3-z
2/3-x+y,1/3+y,1/3+z
2/3+x,1/3+x-y,1/3+z
2/3-y,1/3-x,1/3+z
1/3+x,2/3+y,2/3+z
1/3-y,2/3+x-y,2/3+z
1/3-x+y,2/3-x,2/3+z
1/3+x-y,2/3-y,2/3-z
1/3-x,2/3-x+y,2/3-z
1/3+y,2/3+x,2/3-z
1/3-x,2/3-y,2/3-z
1/3+y,2/3-x+y,2/3-z
1/3+x-y,2/3+x,2/3-z
1/3-x+y,2/3+y,2/3+z
1/3+x,2/3+x-y,2/3+z
1/3-y,2/3-x,2/3+z
loop_
_atom_site_type_symbol
_atom_site_label
_atom_site_fract_x
_atom_site_fract_y
_atom_site_fract_z
Si Si1 0.354827 0.120773 0.289900
Si Si2 0.666667 0.447609 0.833334
Si Si3 0.900884 0.573857 0.054127
Si Si4 0.719408 0.167238 0.735649
Si Si5 0.778986 0.104221 0.793669
Si Si6 0.551658 0.833299 0.814188
Si Si7 0.912314 0.513610 0.246931
O O1 0.329350 0.164675 0.301366
O O2 0.305828 0.054230 0.298144
O O3 0.383442 0.131902 0.217214
O O4 0.403759 0.132940 0.344614
O O5 0.719508 0.439016 0.858135
O O6 0.686020 0.491866 0.773328
O O7 0.958463 0.572810 0.075342
O O8 0.851104 0.551973 0.110066
O O9 0.876518 0.533853 0.990209
O O10 0.781048 0.218953 0.707794
O O11 0.732620 0.126624 0.785150
O O12 0.844022 0.155979 0.777122
O O13 0.777449 0.078810 0.866939
O O14 0.527093 0.763547 0.809630
O O15 0.513009 0.852969 0.772078
O O16 0.894966 0.447483 0.236415
#
# Coordination Sequence:
#
# PCOD8324191 Si02
#       7
#    36  18  36  36  36  36  36
#     4  10  21  36  53  77 111 145 183 230 276 328
#     4  10  23  42  62  82 108 144 189 244 300 352
#     4  11  21  33  54  81 111 152 186 223 271 328
#     4  10  22  38  57  82 112 145 186 232 281 336
#     4   9  19  36  54  78 113 148 181 221 273 332
#     4  10  21  37  54  76 110 149 185 224 273 332
#     4   9  19  35  57  81 106 142 184 227 274 329
#
# _framework density 19.040393000000002
#
# number of rings (size 3 to 8) (size 9 to 14) (size 15 to 20)
#    0.000    2.154    0.000    2.385    2.154    6.769 
#    2.769    0.000    0.000    0.308    0.000    1.077 
#    0.000    3.692    0.000    0.000    0.000    0.000 
#
# Total GULP energy -967004.356986 kJ/mol
# GULP energy per Si atom -12397.491756 kJ/mol
# Density = 1.899706 g / cm^3
# Si number density = 19.040393 Si / 1000 Ang^3
#
#
#
# Elastic Constant Matrix: (Units=GPa)
#
#
# Indices 1 2 3 4 5 6 
#
# 1 92.2810 48.9758 18.2283 0.5275 -0.0005 0.0000
# 2 48.9758 92.2810 18.2283 -0.5275 0.0005 0.0000
# 3 18.2283 18.2283 52.5010 0.0000 0.0000 0.0000
# 4 0.5275 -0.5275 0.0000 26.5639 0.0000 0.0005
# 5 -0.0005 0.0005 0.0000 0.0000 26.5639 0.5275
# 6 0.0000 0.0000 0.0000 0.0005 0.5275 21.6526
#
#
#
# Elastic Compliance Matrix: (Units=1/GPa)
#
#
# Indices 1 2 3 4 5 6 
#
# 1 0.015440 -0.007663 -0.002700 -0.000459 0.000000 0.000000
# 2 -0.007663 0.015440 -0.002700 0.000459 0.000000 0.000000
# 3 -0.002700 -0.002700 0.020922 0.000000 0.000000 0.000000
# 4 -0.000459 0.000459 0.000000 0.037663 0.000000 -0.000001
# 5 0.000000 0.000000 0.000000 0.000000 0.037663 -0.000917
# 6 0.000000 0.000000 0.000000 -0.000001 -0.000917 0.046206
#
#
# Mechanical properties :
#
#
# Convention : Reuss Voigt Hill
#
# Bulk Modulus (GPa) = 38.94869 45.32533 42.13701
# Shear Modulus (GPa) = 24.03633 25.06481 24.55057
#
# Velocity S-wave (km/s) = 3.55686 3.63216 3.59471
# Velocity P-wave (km/s) = 6.11299 6.43791 6.27755
#
# Compressibility (1/GPa) = 0.02567480
#
# Stress axis : x y z
#
# Youngs Moduli (GPa) = 64.76859 64.76859 47.79648
#
# Poissons Ratio (x) = 0.49635 0.12904
# Poissons Ratio (y) = 0.49635 0.12904
# Poissons Ratio (z) = 0.17487 0.17487
#
# Static dielectric constant tensor:
#      x y z
#    x 3.504260 0.000000 0.000000 
#    y 0.000000 3.504260 0.000000 
#    z 0.000000 0.000000 3.539170 
# 
# 
# High freq. dielectric constant tensor:
#      x y z
#    x 1.732960 0.000000 0.000000 
#    y 0.000000 1.732960 0.000000 
#    z 0.000000 0.000000 1.745620 
# 
# From -- ./inp_files/7245.got.cif
#   From: 2010.03.12/outbox.cif.g09.slc.cpg/sg166_4_cif.got.tgz:7245.got - 2010.04.02 06:38:31.
