data_PCOD8324239
_publ_section_title
;
Structure prediction by ZEFSAII (Michael W. Deem and Ramdas Pophale) SiO2 
 PCOD8324239
Probable space group: R -3 M
;
_chemical_formula_sum "Si O2"
_cell_formula_units_Z 162
_cell_length_a 21.121850
_cell_length_b 21.121850
_cell_length_c 22.085201
_cell_angle_alpha 90.000000
_cell_angle_beta 90.000000
_cell_angle_gamma 120.000000
_cell_volume 8532.885068
_symmetry_space_group_name_H-M "R -3 M"
_symmetry_group_IT_number 166
_symmetry_cell_setting 'hexagonal'
loop_
_space_group_symop_operation_xyz
x,y,z
-y,x-y,z
-x+y,-x,z
x-y,-y,-z
-x,-x+y,-z
y,x,-z
-x,-y,-z
y,-x+y,-z
x-y,x,-z
-x+y,y,z
x,x-y,z
-y,-x,z
2/3+x,1/3+y,1/3+z
2/3-y,1/3+x-y,1/3+z
2/3-x+y,1/3-x,1/3+z
2/3+x-y,1/3-y,1/3-z
2/3-x,1/3-x+y,1/3-z
2/3+y,1/3+x,1/3-z
2/3-x,1/3-y,1/3-z
2/3+y,1/3-x+y,1/3-z
2/3+x-y,1/3+x,1/3-z
2/3-x+y,1/3+y,1/3+z
2/3+x,1/3+x-y,1/3+z
2/3-y,1/3-x,1/3+z
1/3+x,2/3+y,2/3+z
1/3-y,2/3+x-y,2/3+z
1/3-x+y,2/3-x,2/3+z
1/3+x-y,2/3-y,2/3-z
1/3-x,2/3-x+y,2/3-z
1/3+y,2/3+x,2/3-z
1/3-x,2/3-y,2/3-z
1/3+y,2/3-x+y,2/3-z
1/3+x-y,2/3+x,2/3-z
1/3-x+y,2/3+y,2/3+z
1/3+x,2/3+x-y,2/3+z
1/3-y,2/3-x,2/3+z
loop_
_atom_site_type_symbol
_atom_site_label
_atom_site_fract_x
_atom_site_fract_y
_atom_site_fract_z
Si Si1 0.781724 0.080020 0.100052
Si Si2 0.203569 0.939903 0.158390
Si Si3 0.847443 0.547482 0.064874
Si Si4 0.088487 0.666667 0.166667
Si Si5 0.000339 0.853403 0.395636
O O1 0.867514 0.132487 0.084573
O O2 0.764492 0.097826 0.166667
O O3 0.731671 0.096868 0.054893
O O4 0.760645 0.995272 0.100526
O O5 0.131411 0.868590 0.135281
O O6 0.263176 0.919284 0.181279
O O7 0.182694 0.975658 0.213790
O O8 0.767084 0.534168 0.080985
O O9 0.846807 0.506001 0.004279
O O10 0.139740 0.684296 0.108677
O O11 0.075606 0.924395 0.414206
O O12 0.936771 0.873542 0.397942
#
# Coordination Sequence:
#
# PCOD8324239 Si02
#       5
#    36  36  36  18  36
#     4   8  14  30  53  76 103 134 170 212 270 335
#     4  11  19  32  53  79 109 142 181 223 266 321
#     4   9  18  35  58  81 103 131 177 231 282 328
#     4  12  24  38  50  74 108 150 192 226 264 310
#     4  11  23  39  56  76 105 144 186 226 271 322
#
# _framework density 18.985372999999999
#
# number of rings (size 3 to 8) (size 9 to 14) (size 15 to 20)
#    0.000    2.000    3.333    4.889    0.000    0.889 
#    0.000    3.333    0.000    4.889    0.000    1.556 
#    0.000    0.000    0.000    0.000    0.000   70.444 
#
# Total GULP energy -669476.201626 kJ/mol
# GULP energy per Si atom -12397.707438 kJ/mol
# Density = 1.894216 g / cm^3
# Si number density = 18.985373 Si / 1000 Ang^3
#
#
#
# Elastic Constant Matrix: (Units=GPa)
#
#
# Indices 1 2 3 4 5 6 
#
# 1 97.5510 42.1094 16.6612 3.5760 0.0000 0.0000
# 2 42.1094 97.5510 16.6612 -3.5760 0.0000 0.0000
# 3 16.6612 16.6612 28.6565 0.0000 0.0000 0.0000
# 4 3.5760 -3.5760 0.0000 20.1548 0.0000 0.0000
# 5 0.0000 0.0000 0.0000 0.0000 20.1548 3.5760
# 6 0.0000 0.0000 0.0000 0.0000 3.5760 27.7208
#
#
#
# Elastic Compliance Matrix: (Units=1/GPa)
#
#
# Indices 1 2 3 4 5 6 
#
# 1 0.013386 -0.005073 -0.004834 -0.003275 0.000000 0.000000
# 2 -0.005073 0.013386 -0.004834 0.003275 0.000000 0.000000
# 3 -0.004834 -0.004834 0.040517 0.000000 0.000000 0.000000
# 4 -0.003275 0.003275 0.000000 0.050778 0.000000 0.000000
# 5 0.000000 0.000000 0.000000 0.000000 0.050778 -0.006550
# 6 0.000000 0.000000 0.000000 0.000000 -0.006550 0.036919
#
#
# Mechanical properties :
#
#
# Convention : Reuss Voigt Hill
#
# Bulk Modulus (GPa) = 26.44845 41.62466 34.03656
# Shear Modulus (GPa) = 20.17364 23.49453 21.83409
#
# Velocity S-wave (km/s) = 3.26327 3.52164 3.39491
# Velocity P-wave (km/s) = 5.30658 6.20549 5.77356
#
# Compressibility (1/GPa) = 0.03780939
#
# Stress axis : x y z
#
# Youngs Moduli (GPa) = 74.70223 74.70223 24.68127
#
# Poissons Ratio (x) = 0.37896 0.11930
# Poissons Ratio (y) = 0.37896 0.11930
# Poissons Ratio (z) = 0.36108 0.36108
#
# Static dielectric constant tensor:
#      x y z
#    x 3.637110 0.000000 0.000000 
#    y 0.000000 3.637110 0.000000 
#    z 0.000000 0.000000 3.284520 
# 
# 
# High freq. dielectric constant tensor:
#      x y z
#    x 1.739650 0.000000 0.000000 
#    y 0.000000 1.739650 0.000000 
#    z 0.000000 0.000000 1.706420 
# 
# From -- ./inp_files/8219.got.cif
#   From: 2010.03.12/outbox.cif.g09.slc.cpg/sg166_5_cif.got.tgz:8219.got - 2010.04.02 06:38:31.
