data_PCOD8324491
_publ_section_title
;
Structure prediction by ZEFSAII (Michael W. Deem and Ramdas Pophale) SiO2 
 PCOD8324491
Probable space group: P 61
;
_chemical_formula_sum "Si O2"
_cell_formula_units_Z 30
_cell_length_a 12.004557
_cell_length_b 12.004557
_cell_length_c 11.544755
_cell_angle_alpha 90.000000
_cell_angle_beta 90.000000
_cell_angle_gamma 120.000000
_cell_volume 1440.813034
_symmetry_space_group_name_H-M "P 61"
_symmetry_group_IT_number 169
_symmetry_cell_setting 'hexagonal'
loop_
_space_group_symop_operation_xyz
x,y,z
x-y,x,1/6+z
-y,x-y,1/3+z
-x,-y,1/2+z
-x+y,-x,2/3+z
y,-x+y,5/6+z
loop_
_atom_site_type_symbol
_atom_site_label
_atom_site_fract_x
_atom_site_fract_y
_atom_site_fract_z
Si Si1 0.630892 0.367718 0.535390
Si Si2 0.481493 0.362703 0.747339
Si Si3 0.506000 0.379155 0.304438
Si Si4 0.773234 0.847215 0.795007
Si Si5 0.821834 0.027439 0.993828
O O1 0.592124 0.414310 0.650494
O O2 0.776233 0.480401 0.514415
O O3 0.532535 0.349424 0.433440
O O4 0.630421 0.233764 0.548797
O O5 0.465725 0.475629 0.801531
O O6 0.354693 0.252179 0.687636
O O7 0.358880 0.283229 0.267575
O O8 0.820077 0.935117 0.678165
O O9 0.742155 0.921632 0.895260
O O10 0.837267 0.963244 0.110701
#
# Coordination Sequence:
#
# PCOD8324491 Si02
#       5
#     6   6   6   6   6
#     4  10  23  38  58  92 118 153 207 249 299 366
#     4  11  22  39  61  88 123 160 200 254 307 364
#     4  11  21  39  63  86 121 160 198 252 308 364
#     4  10  20  36  58  84 113 154 199 242 297 356
#     4  10  20  38  62  86 117 161 200 241 297 358
#
# _framework density 20.821579
#
# number of rings (size 3 to 8) (size 9 to 14) (size 15 to 20)
#    0.000    1.600    0.000    7.200    0.000    3.200 
#    0.000   10.000    0.000    0.000    0.000    0.000 
#    0.000    0.000    0.000    0.000    0.000    0.000 
#
# Total GULP energy -372034.351004 kJ/mol
# GULP energy per Si atom -12401.145033 kJ/mol
# Density = 2.077419 g / cm^3
# Si number density = 20.821579 Si / 1000 Ang^3
#
#
#
# Elastic Constant Matrix: (Units=GPa)
#
#
# Indices 1 2 3 4 5 6 
#
# 1 88.4715 22.3313 31.7229 0.0000 0.0000 0.0000
# 2 22.3313 88.4715 31.7229 0.0000 0.0000 0.0000
# 3 31.7229 31.7229 78.4598 0.0000 0.0000 0.0000
# 4 0.0000 0.0000 0.0000 30.3754 0.0000 0.0000
# 5 0.0000 0.0000 0.0000 0.0000 30.3754 0.0000
# 6 0.0000 0.0000 0.0000 0.0000 0.0000 33.0701
#
#
#
# Elastic Compliance Matrix: (Units=1/GPa)
#
#
# Indices 1 2 3 4 5 6 
#
# 1 0.013432 -0.001688 -0.004748 0.000000 0.000000 0.000000
# 2 -0.001688 0.013432 -0.004748 0.000000 0.000000 0.000000
# 3 -0.004748 -0.004748 0.016585 0.000000 0.000000 0.000000
# 4 0.000000 0.000000 0.000000 0.032921 0.000000 0.000000
# 5 0.000000 0.000000 0.000000 0.000000 0.032921 0.000000
# 6 0.000000 0.000000 0.000000 0.000000 0.000000 0.030239
#
#
# Mechanical properties :
#
#
# Convention : Reuss Voigt Hill
#
# Bulk Modulus (GPa) = 47.43903 47.43964 47.43934
# Shear Modulus (GPa) = 29.59890 30.07256 29.83573
#
# Velocity S-wave (km/s) = 3.77443 3.80451 3.78950
# Velocity P-wave (km/s) = 6.46747 6.49095 6.47922
#
# Compressibility (1/GPa) = 0.02107969
#
# Stress axis : x y z
#
# Youngs Moduli (GPa) = 74.45094 74.45094 60.29528
#
# Poissons Ratio (x) = 0.12565 0.28630
# Poissons Ratio (y) = 0.12565 0.28630
# Poissons Ratio (z) = 0.35352 0.35352
#
# Static dielectric constant tensor:
#      x y z
#    x 3.795840 0.000000 0.000000 
#    y 0.000000 3.795840 0.000000 
#    z 0.000000 0.000000 3.657650 
# 
# 
# High freq. dielectric constant tensor:
#      x y z
#    x 1.819320 0.000000 0.000000 
#    y 0.000000 1.819320 0.000000 
#    z 0.000000 0.000000 1.802810 
# 
# From -- ./inp_files/875.got.cif
#   From: 2010.03.12/outbox.cif.g09.slc.cpg/sg169_cif.got.tgz:875.got - 2010.04.02 06:46:06.
