data_PCOD8324614
_publ_section_title
;
Structure prediction by ZEFSAII (Michael W. Deem and Ramdas Pophale) SiO2 
 PCOD8324614
Probable space group: P 61
;
_chemical_formula_sum "Si O2"
_cell_formula_units_Z 48
_cell_length_a 14.726442
_cell_length_b 14.726442
_cell_length_c 11.967391
_cell_angle_alpha 90.000000
_cell_angle_beta 90.000000
_cell_angle_gamma 120.000000
_cell_volume 2247.634941
_symmetry_space_group_name_H-M "P 61"
_symmetry_group_IT_number 169
_symmetry_cell_setting 'hexagonal'
loop_
_space_group_symop_operation_xyz
x,y,z
x-y,x,1/6+z
-y,x-y,1/3+z
-x,-y,1/2+z
-x+y,-x,2/3+z
y,-x+y,5/6+z
loop_
_atom_site_type_symbol
_atom_site_label
_atom_site_fract_x
_atom_site_fract_y
_atom_site_fract_z
Si Si1 0.643296 0.250083 0.750000
Si Si2 0.363457 0.445802 0.805773
Si Si3 0.363374 0.317078 0.010481
Si Si4 0.303320 0.030428 0.246748
Si Si5 0.262521 0.723708 0.805876
Si Si6 0.413310 0.448831 0.229344
Si Si7 0.799051 0.620994 0.121290
Si Si8 0.891882 0.073635 0.427217
O O1 0.562377 0.182275 0.652066
O O2 0.572557 0.249662 0.850548
O O3 0.722271 0.365777 0.704859
O O4 0.712905 0.200211 0.786317
O O5 0.347651 0.391861 0.925589
O O6 0.466753 0.459047 0.743737
O O7 0.261586 0.373882 0.730760
O O8 0.444873 0.286512 0.959576
O O9 0.405678 0.374631 0.127919
O O10 0.250173 0.215511 0.027032
O O11 0.381871 0.005889 0.176754
O O12 0.366391 0.108589 0.346531
O O13 0.259814 0.085654 0.165519
O O14 0.207750 0.920637 0.293351
O O15 0.158561 0.656849 0.877625
O O16 0.983466 0.098733 0.340258
#
# Coordination Sequence:
#
# PCOD8324614 Si02
#       8
#     6   6   6   6   6   6   6   6
#     4  12  26  43  65 108 142 188 236 290 353 435
#     4  12  28  45  70 107 150 188 239 301 367 432
#     4  12  25  47  75 106 141 195 245 300 367 435
#     4  12  25  47  77 105 139 190 245 299 359 437
#     4  12  26  42  70 101 144 183 239 292 351 432
#     4  12  25  45  74 104 142 191 240 292 363 437
#     4  12  28  47  73 103 150 189 241 300 369 430
#     4  12  25  52  78 108 142 188 255 314 367 444
#
# _framework density 21.355781
#
# number of rings (size 3 to 8) (size 9 to 14) (size 15 to 20)
#    0.000    0.000    7.500    1.500    7.000    1.000 
#    2.250    0.000    0.000    0.000    0.000    0.000 
#    0.000    0.000    0.000    0.000    0.000    0.000 
#
# Total GULP energy -595624.851328 kJ/mol
# GULP energy per Si atom -12408.851069 kJ/mol
# Density = 2.130717 g / cm^3
# Si number density = 21.355781 Si / 1000 Ang^3
#
#
#
# Elastic Constant Matrix: (Units=GPa)
#
#
# Indices 1 2 3 4 5 6 
#
# 1 78.8308 8.0580 29.1412 0.0000 0.0000 0.0000
# 2 8.0580 78.8308 29.1412 0.0000 0.0000 0.0000
# 3 29.1412 29.1412 94.4396 0.0000 0.0000 0.0000
# 4 0.0000 0.0000 0.0000 37.8256 0.0000 0.0000
# 5 0.0000 0.0000 0.0000 0.0000 37.8256 0.0000
# 6 0.0000 0.0000 0.0000 0.0000 0.0000 35.3864
#
#
#
# Elastic Compliance Matrix: (Units=1/GPa)
#
#
# Indices 1 2 3 4 5 6 
#
# 1 0.014321 0.000192 -0.004478 0.000000 0.000000 0.000000
# 2 0.000192 0.014321 -0.004478 0.000000 0.000000 0.000000
# 3 -0.004478 -0.004478 0.013352 0.000000 0.000000 0.000000
# 4 0.000000 0.000000 0.000000 0.026437 0.000000 0.000000
# 5 0.000000 0.000000 0.000000 0.000000 0.026437 0.000000
# 6 0.000000 0.000000 0.000000 0.000000 0.000000 0.028259
#
#
# Mechanical properties :
#
#
# Convention : Reuss Voigt Hill
#
# Bulk Modulus (GPa) = 40.87434 42.75357 41.81396
# Shear Modulus (GPa) = 33.59908 34.59155 34.09532
#
# Velocity S-wave (km/s) = 3.97079 4.02901 4.00001
# Velocity P-wave (km/s) = 6.34067 6.45810 6.39965
#
# Compressibility (1/GPa) = 0.02446522
#
# Stress axis : x y z
#
# Youngs Moduli (GPa) = 69.82621 69.82621 74.89260
#
# Poissons Ratio (x) = -0.01337 0.33538
# Poissons Ratio (y) = -0.01337 0.33538
# Poissons Ratio (z) = 0.31270 0.31270
#
# Static dielectric constant tensor:
#      x y z
#    x 3.966690 0.000000 0.000000 
#    y 0.000000 3.966690 0.000000 
#    z 0.000000 0.000000 3.898520 
# 
# 
# High freq. dielectric constant tensor:
#      x y z
#    x 1.842280 0.000000 0.000000 
#    y 0.000000 1.842280 0.000000 
#    z 0.000000 0.000000 1.843290 
# 
# From -- ./inp_files/1031.got.cif
#   From: 2010.03.12/outbox.cif.g09.slc.cpg/sg169_cif.got.tgz:1031.got - 2010.04.02 06:46:06.
