data_PCOD8324891
_publ_section_title
;
Structure prediction by ZEFSAII (Michael W. Deem and Ramdas Pophale) SiO2 
 PCOD8324891
Probable space group: P 63
;
_chemical_formula_sum "Si O2"
_cell_formula_units_Z 22
_cell_length_a 12.959876
_cell_length_b 12.959876
_cell_length_c 7.137220
_cell_angle_alpha 90.000000
_cell_angle_beta 90.000000
_cell_angle_gamma 120.000000
_cell_volume 1038.153107
_symmetry_space_group_name_H-M "P 63"
_symmetry_group_IT_number 173
_symmetry_cell_setting 'hexagonal'
loop_
_space_group_symop_operation_xyz
x,y,z
x-y,x,1/2+z
-y,x-y,z
-x,-y,1/2+z
-x+y,-x,z
y,-x+y,1/2+z
loop_
_atom_site_type_symbol
_atom_site_label
_atom_site_fract_x
_atom_site_fract_y
_atom_site_fract_z
Si Si1 0.408329 0.496062 0.544440
Si Si2 0.407186 0.181571 0.736353
Si Si3 0.333334 0.666668 0.105954
Si Si4 0.333334 0.666667 0.664693
Si Si5 0.338982 0.356428 0.912436
O O1 0.335818 0.425674 0.361689
O O2 0.417993 0.623009 0.576511
O O3 0.334342 0.410085 0.713708
O O4 0.545775 0.535115 0.515975
O O5 0.533847 0.294002 0.675797
O O6 0.338516 0.234298 0.859869
O O7 0.334192 0.105605 0.549525
O O8 0.333334 0.666667 0.884965
#
# Coordination Sequence:
#
# PCOD8324891 Si02
#       5
#     6   6   2   2   6
#     4  12  22  37  63  91 135 174 219 261 337 406
#     4  12  24  40  61  91 136 181 227 275 335 400
#     4  12  19  38  61  88 131 187 223 272 328 406
#     4  12  22  35  61  94 134 187 208 260 331 409
#     4  12  25  38  60  94 132 183 227 270 327 409
#
# _framework density 21.191479999999999
#
# number of rings (size 3 to 8) (size 9 to 14) (size 15 to 20)
#    0.000    0.000   10.909    0.000    0.000    2.182 
#    0.000    0.000    0.000    0.000    0.000    0.000 
#   27.273    0.000    0.000    0.000    0.000    0.000 
#
# Total GULP energy -272650.058933 kJ/mol
# GULP energy per Si atom -12393.184497 kJ/mol
# Density = 2.114325 g / cm^3
# Si number density = 21.191480 Si / 1000 Ang^3
#
#
#
# Elastic Constant Matrix: (Units=GPa)
#
#
# Indices 1 2 3 4 5 6 
#
# 1 59.2198 22.6518 27.7755 0.0000 0.0000 -0.0003
# 2 22.6518 59.2191 27.7755 0.0000 0.0000 -0.0002
# 3 27.7755 27.7755 142.4605 0.0000 0.0000 0.0001
# 4 0.0000 0.0000 0.0000 35.0602 -0.0002 0.0000
# 5 0.0000 0.0000 0.0000 -0.0002 35.0629 0.0000
# 6 -0.0003 -0.0002 0.0001 0.0000 0.0000 18.2834
#
#
#
# Elastic Compliance Matrix: (Units=1/GPa)
#
#
# Indices 1 2 3 4 5 6 
#
# 1 0.020711 -0.006635 -0.002744 0.000000 0.000000 0.000000
# 2 -0.006635 0.020712 -0.002745 0.000000 0.000000 0.000000
# 3 -0.002744 -0.002745 0.008090 0.000000 0.000000 0.000000
# 4 0.000000 0.000000 0.000000 0.028522 0.000000 0.000000
# 5 0.000000 0.000000 0.000000 0.000000 0.028520 0.000000
# 6 0.000000 0.000000 0.000000 0.000000 0.000000 0.054694
#
#
# Mechanical properties :
#
#
# Convention : Reuss Voigt Hill
#
# Bulk Modulus (GPa) = 39.58098 46.36724 42.97411
# Shear Modulus (GPa) = 25.78393 29.86108 27.82251
#
# Velocity S-wave (km/s) = 3.49192 3.75788 3.62734
# Velocity P-wave (km/s) = 5.91408 6.38408 6.15357
#
# Compressibility (1/GPa) = 0.02526466
#
# Stress axis : x y z
#
# Youngs Moduli (GPa) = 48.28262 48.28198 123.61435
#
# Poissons Ratio (x) = 0.32035 0.33925
# Poissons Ratio (y) = 0.32036 0.33926
# Poissons Ratio (z) = 0.13251 0.13251
#
# Static dielectric constant tensor:
#      x y z
#    x 3.595820 0.000000 0.000000 
#    y 0.000000 3.595830 0.000000 
#    z 0.000000 0.000000 4.172070 
# 
# 
# High freq. dielectric constant tensor:
#      x y z
#    x 1.793290 0.000000 0.000000 
#    y 0.000000 1.793290 0.000000 
#    z 0.000000 0.000000 1.869650 
# 
# From -- ./inp_files/67.got.cif
#   From: 2010.03.12/outbox.cif.g09.slc.cpg/sg173_cif.got.tgz:67.got - 2010.04.02 06:54:12.
