data_PCOD8324101
_publ_section_title
;
Structure prediction by ZEFSAII (Michael W. Deem and Ramdas Pophale) SiO2 
 PCOD8324101
Probable space group: R -3 M
;
_chemical_formula_sum "Si O2"
_cell_formula_units_Z 126
_cell_length_a 22.152779
_cell_length_b 22.152779
_cell_length_c 17.000955
_cell_angle_alpha 90.000000
_cell_angle_beta 90.000000
_cell_angle_gamma 120.000000
_cell_volume 7225.374788
_symmetry_space_group_name_H-M "R -3 M"
_symmetry_group_IT_number 166
_symmetry_cell_setting 'hexagonal'
loop_
_space_group_symop_operation_xyz
x,y,z
-y,x-y,z
-x+y,-x,z
x-y,-y,-z
-x,-x+y,-z
y,x,-z
-x,-y,-z
y,-x+y,-z
x-y,x,-z
-x+y,y,z
x,x-y,z
-y,-x,z
2/3+x,1/3+y,1/3+z
2/3-y,1/3+x-y,1/3+z
2/3-x+y,1/3-x,1/3+z
2/3+x-y,1/3-y,1/3-z
2/3-x,1/3-x+y,1/3-z
2/3+y,1/3+x,1/3-z
2/3-x,1/3-y,1/3-z
2/3+y,1/3-x+y,1/3-z
2/3+x-y,1/3+x,1/3-z
2/3-x+y,1/3+y,1/3+z
2/3+x,1/3+x-y,1/3+z
2/3-y,1/3-x,1/3+z
1/3+x,2/3+y,2/3+z
1/3-y,2/3+x-y,2/3+z
1/3-x+y,2/3-x,2/3+z
1/3+x-y,2/3-y,2/3-z
1/3-x,2/3-x+y,2/3-z
1/3+y,2/3+x,2/3-z
1/3-x,2/3-y,2/3-z
1/3+y,2/3-x+y,2/3-z
1/3+x-y,2/3+x,2/3-z
1/3-x+y,2/3+y,2/3+z
1/3+x,2/3+x-y,2/3+z
1/3-y,2/3-x,2/3+z
loop_
_atom_site_type_symbol
_atom_site_label
_atom_site_fract_x
_atom_site_fract_y
_atom_site_fract_z
Si Si1 0.461650 0.400381 0.282390
Si Si2 0.408422 0.957134 0.894741
Si Si3 0.903166 0.327099 0.955065
Si Si4 0.194840 0.528173 0.166667
O O1 0.540179 0.459822 0.301671
O O2 0.445151 0.333334 0.333334
O O3 0.453628 0.378916 0.190627
O O4 0.410648 0.429884 0.303769
O O5 0.487411 0.974821 0.905121
O O6 0.408659 0.029248 0.904521
O O7 0.359669 0.902209 0.960416
O O8 0.834467 0.311685 0.908206
O O9 0.268686 0.537371 0.190746
#
# Coordination Sequence:
#
# PCOD8324101 Si02
#       4
#    36  36  36  18
#     4  11  22  37  56  82 113 144 178 228 281 330
#     4  10  19  33  55  80 110 146 179 217 267 331
#     4  11  19  33  56  79 108 140 187 221 266 323
#     4  12  23  36  52  78 113 152 190 228 266 316
#
# _framework density 17.438542000000002
#
# number of rings (size 3 to 8) (size 9 to 14) (size 15 to 20)
#    0.000    1.143    5.714    4.429    0.000    0.000 
#    0.000    4.286    0.000    0.286    0.000    0.000 
#    0.000    0.000    0.000    0.000    0.000    0.000 
#
# Total GULP energy -520960.192750 kJ/mol
# GULP energy per Si atom -12403.814113 kJ/mol
# Density = 1.739885 g / cm^3
# Si number density = 17.438542 Si / 1000 Ang^3
#
#
#
# Elastic Constant Matrix: (Units=GPa)
#
#
# Indices 1 2 3 4 5 6 
#
# 1 81.3623 43.3120 49.5156 3.9612 0.0001 0.0000
# 2 43.3120 81.3623 49.5156 -3.9612 -0.0001 0.0000
# 3 49.5156 49.5156 116.2462 0.0000 0.0000 0.0000
# 4 3.9612 -3.9612 0.0000 25.6183 0.0000 -0.0001
# 5 0.0001 -0.0001 0.0000 0.0000 25.6183 3.9612
# 6 0.0000 0.0000 0.0000 -0.0001 3.9612 19.0251
#
#
#
# Elastic Compliance Matrix: (Units=1/GPa)
#
#
# Indices 1 2 3 4 5 6 
#
# 1 0.019639 -0.007516 -0.005164 -0.004199 0.000000 0.000000
# 2 -0.007516 0.019639 -0.005164 0.004199 0.000000 0.000000
# 3 -0.005164 -0.005164 0.013001 0.000000 0.000000 0.000000
# 4 -0.004199 0.004199 0.000000 0.040333 0.000000 0.000000
# 5 0.000000 0.000000 0.000000 0.000000 0.040333 -0.008398
# 6 0.000000 0.000000 0.000000 0.000000 -0.008398 0.054311
#
#
# Mechanical properties :
#
#
# Convention : Reuss Voigt Hill
#
# Bulk Modulus (GPa) = 60.27069 62.62859 61.44964
# Shear Modulus (GPa) = 21.88435 23.16086 22.52260
#
# Velocity S-wave (km/s) = 3.54636 3.64832 3.59770
# Velocity P-wave (km/s) = 7.16978 7.33068 7.25067
#
# Compressibility (1/GPa) = 0.01659181
#
# Stress axis : x y z
#
# Youngs Moduli (GPa) = 50.91943 50.91943 76.91507
#
# Poissons Ratio (x) = 0.38273 0.39716
# Poissons Ratio (y) = 0.38273 0.39716
# Poissons Ratio (z) = 0.26293 0.26293
#
# Static dielectric constant tensor:
#      x y z
#    x 3.124230 0.000000 0.000000 
#    y 0.000000 3.124230 0.000000 
#    z 0.000000 0.000000 3.495250 
# 
# 
# High freq. dielectric constant tensor:
#      x y z
#    x 1.657590 0.000000 0.000000 
#    y 0.000000 1.657590 0.000000 
#    z 0.000000 0.000000 1.682190 
# 
# From -- ./inp_files/4878.got.cif
#   From: 2010.03.12/outbox.cif.g09.slc.cpg/sg166_3_cif.got.tgz:4878.got - 2010.04.02 06:38:31.
