data_PCOD8324531
_publ_section_title
;
Structure prediction by ZEFSAII (Michael W. Deem and Ramdas Pophale) SiO2 
 PCOD8324531
Probable space group: P 61
;
_chemical_formula_sum "Si O2"
_cell_formula_units_Z 42
_cell_length_a 9.309885
_cell_length_b 9.309885
_cell_length_c 27.728197
_cell_angle_alpha 90.000000
_cell_angle_beta 90.000000
_cell_angle_gamma 120.000000
_cell_volume 2081.329767
_symmetry_space_group_name_H-M "P 61"
_symmetry_group_IT_number 169
_symmetry_cell_setting 'hexagonal'
loop_
_space_group_symop_operation_xyz
x,y,z
x-y,x,1/6+z
-y,x-y,1/3+z
-x,-y,1/2+z
-x+y,-x,2/3+z
y,-x+y,5/6+z
loop_
_atom_site_type_symbol
_atom_site_label
_atom_site_fract_x
_atom_site_fract_y
_atom_site_fract_z
Si Si1 0.935868 0.057632 0.247960
Si Si2 0.425047 0.581167 0.267381
Si Si3 0.397402 0.320528 0.132903
Si Si4 0.325830 0.793249 0.491801
Si Si5 0.250841 0.066910 0.214875
Si Si6 0.251079 0.231101 0.820084
Si Si7 0.733546 0.159393 0.634897
O O1 0.791222 0.027989 0.210900
O O2 0.032606 0.248067 0.263034
O O3 0.059642 0.011406 0.221243
O O4 0.862528 0.943826 0.294668
O O5 0.245074 0.557160 0.280361
O O6 0.484038 0.661476 0.215347
O O7 0.558153 0.702656 0.306457
O O8 0.416298 0.404939 0.269588
O O9 0.442320 0.510276 0.132278
O O10 0.347493 0.239073 0.185518
O O11 0.302166 0.613077 0.479527
O O12 0.168628 0.804004 0.471790
O O13 0.337918 0.100365 0.268093
O O14 0.250945 0.916284 0.186044
#
# Coordination Sequence:
#
# PCOD8324531 Si02
#       7
#     6   6   6   6   6   6   6
#     4  12  21  40  66  97 118 172 217 267 320 397
#     4  10  21  42  60  91 125 169 202 266 325 384
#     4  11  22  38  70  86 126 165 218 260 323 397
#     4  11  23  41  62  94 130 168 213 271 332 389
#     4  11  19  40  64  96 124 169 216 265 326 395
#     4  11  24  40  63  90 133 161 213 269 328 391
#     4  10  22  37  67  90 130 170 213 268 330 393
#
# _framework density 20.179404999999999
#
# number of rings (size 3 to 8) (size 9 to 14) (size 15 to 20)
#    0.000    1.143    7.143    0.000    0.000    4.571 
#    0.000    0.000    0.000    0.000    0.000    0.000 
#    0.000    0.000    0.000    0.000    0.000    0.000 
#
# Total GULP energy -520794.739201 kJ/mol
# GULP energy per Si atom -12399.874743 kJ/mol
# Density = 2.013348 g / cm^3
# Si number density = 20.179405 Si / 1000 Ang^3
#
#
#
# Elastic Constant Matrix: (Units=GPa)
#
#
# Indices 1 2 3 4 5 6 
#
# 1 99.0888 41.6420 29.8525 0.0000 0.0000 0.0000
# 2 41.6420 99.0888 29.8525 0.0000 0.0000 0.0000
# 3 29.8525 29.8525 87.9414 0.0000 0.0000 0.0000
# 4 0.0000 0.0000 0.0000 25.3245 0.0000 0.0000
# 5 0.0000 0.0000 0.0000 0.0000 25.3245 0.0000
# 6 0.0000 0.0000 0.0000 0.0000 0.0000 28.7234
#
#
#
# Elastic Compliance Matrix: (Units=1/GPa)
#
#
# Indices 1 2 3 4 5 6 
#
# 1 0.012854 -0.004553 -0.002818 0.000000 0.000000 0.000000
# 2 -0.004553 0.012854 -0.002818 0.000000 0.000000 0.000000
# 3 -0.002818 -0.002818 0.013284 0.000000 0.000000 0.000000
# 4 0.000000 0.000000 0.000000 0.039487 0.000000 0.000000
# 5 0.000000 0.000000 0.000000 0.000000 0.039487 0.000000
# 6 0.000000 0.000000 0.000000 0.000000 0.000000 0.034815
#
#
# Mechanical properties :
#
#
# Convention : Reuss Voigt Hill
#
# Bulk Modulus (GPa) = 53.71971 54.31256 54.01613
# Shear Modulus (GPa) = 27.87601 28.19262 28.03431
#
# Velocity S-wave (km/s) = 3.72076 3.74183 3.73131
# Velocity P-wave (km/s) = 6.71845 6.75586 6.73718
#
# Compressibility (1/GPa) = 0.01861514
#
# Stress axis : x y z
#
# Youngs Moduli (GPa) = 77.79476 77.79476 75.27645
#
# Poissons Ratio (x) = 0.35420 0.21212
# Poissons Ratio (y) = 0.35420 0.21212
# Poissons Ratio (z) = 0.21922 0.21922
#
# Static dielectric constant tensor:
#      x y z
#    x 3.637220 0.000000 0.000000 
#    y 0.000000 3.637220 0.000000 
#    z 0.000000 0.000000 3.625510 
# 
# 
# High freq. dielectric constant tensor:
#      x y z
#    x 1.779030 0.000000 0.000000 
#    y 0.000000 1.779030 0.000000 
#    z 0.000000 0.000000 1.792610 
# 
# From -- ./inp_files/1853.got.cif
#   From: 2010.03.12/outbox.cif.g09.slc.cpg/sg169_cif.got.tgz:1853.got - 2010.04.02 06:46:06.
