data_PCOD8324188
_publ_section_title
;
Structure prediction by ZEFSAII (Michael W. Deem and Ramdas Pophale) SiO2 
 PCOD8324188
Probable space group: R -3 M
;
_chemical_formula_sum "Si O2"
_cell_formula_units_Z 126
_cell_length_a 20.501181
_cell_length_b 20.501181
_cell_length_c 17.818667
_cell_angle_alpha 90.000000
_cell_angle_beta 90.000000
_cell_angle_gamma 120.000000
_cell_volume 6485.800760
_symmetry_space_group_name_H-M "R -3 M"
_symmetry_group_IT_number 166
_symmetry_cell_setting 'hexagonal'
loop_
_space_group_symop_operation_xyz
x,y,z
-y,x-y,z
-x+y,-x,z
x-y,-y,-z
-x,-x+y,-z
y,x,-z
-x,-y,-z
y,-x+y,-z
x-y,x,-z
-x+y,y,z
x,x-y,z
-y,-x,z
2/3+x,1/3+y,1/3+z
2/3-y,1/3+x-y,1/3+z
2/3-x+y,1/3-x,1/3+z
2/3+x-y,1/3-y,1/3-z
2/3-x,1/3-x+y,1/3-z
2/3+y,1/3+x,1/3-z
2/3-x,1/3-y,1/3-z
2/3+y,1/3-x+y,1/3-z
2/3+x-y,1/3+x,1/3-z
2/3-x+y,1/3+y,1/3+z
2/3+x,1/3+x-y,1/3+z
2/3-y,1/3-x,1/3+z
1/3+x,2/3+y,2/3+z
1/3-y,2/3+x-y,2/3+z
1/3-x+y,2/3-x,2/3+z
1/3+x-y,2/3-y,2/3-z
1/3-x,2/3-x+y,2/3-z
1/3+y,2/3+x,2/3-z
1/3-x,2/3-y,2/3-z
1/3+y,2/3-x+y,2/3-z
1/3+x-y,2/3+x,2/3-z
1/3-x+y,2/3+y,2/3+z
1/3+x,2/3+x-y,2/3+z
1/3-y,2/3-x,2/3+z
loop_
_atom_site_type_symbol
_atom_site_label
_atom_site_fract_x
_atom_site_fract_y
_atom_site_fract_z
Si Si1 0.291370 0.854384 0.394586
Si Si2 0.746449 0.799879 0.857298
Si Si3 0.666667 0.491483 0.333334
Si Si4 0.793350 0.059248 0.565415
O O1 0.234363 0.765638 0.389566
O O2 0.359319 0.868154 0.449308
O O3 0.251334 0.895595 0.434516
O O4 0.318500 0.886410 0.311012
O O5 0.727807 0.863904 0.880525
O O6 0.666667 0.725187 0.833334
O O7 0.792394 0.792815 0.928020
O O8 0.741252 0.482503 0.335953
O O9 0.881662 0.118338 0.554441
O O10 0.765736 0.000000 0.500000
#
# Coordination Sequence:
#
# PCOD8324188 Si02
#       4
#    36  36  18  36
#     4   9  18  33  50  70  98 130 166 204 242 295
#     4  10  21  34  50  77 108 134 164 208 262 311
#     4  10  21  38  58  78 103 140 184 222 256 304
#     4   9  18  31  49  72  95 124 162 200 239 288
#
# _framework density 19.427053000000001
#
# number of rings (size 3 to 8) (size 9 to 14) (size 15 to 20)
#    0.000    2.571    0.000    3.571    0.000    5.714 
#    0.000    5.714    0.000    0.857    0.000    0.000 
#    0.000    0.000    0.000    0.000    0.000    0.000 
#
# Total GULP energy -520312.658197 kJ/mol
# GULP energy per Si atom -12388.396624 kJ/mol
# Density = 1.938284 g / cm^3
# Si number density = 19.427053 Si / 1000 Ang^3
#
#
#
# Elastic Constant Matrix: (Units=GPa)
#
#
# Indices 1 2 3 4 5 6 
#
# 1 58.2312 23.8716 46.6783 2.5067 -0.0001 0.0000
# 2 23.8716 58.2312 46.6783 -2.5067 0.0001 0.0000
# 3 46.6783 46.6783 151.4877 0.0000 0.0000 0.0000
# 4 2.5067 -2.5067 0.0000 35.9988 0.0000 0.0001
# 5 -0.0001 0.0001 0.0000 0.0000 35.9988 2.5067
# 6 0.0000 0.0000 0.0000 0.0001 2.5067 17.1798
#
#
#
# Elastic Compliance Matrix: (Units=1/GPa)
#
#
# Indices 1 2 3 4 5 6 
#
# 1 0.024076 -0.005327 -0.005777 -0.002047 0.000000 0.000000
# 2 -0.005327 0.024076 -0.005777 0.002047 0.000000 0.000000
# 3 -0.005777 -0.005777 0.010161 0.000000 0.000000 0.000000
# 4 -0.002047 0.002047 0.000000 0.028064 0.000000 0.000000
# 5 0.000000 0.000000 0.000000 0.000000 0.028064 -0.004095
# 6 0.000000 0.000000 0.000000 0.000000 -0.004095 0.058805
#
#
# Mechanical properties :
#
#
# Convention : Reuss Voigt Hill
#
# Bulk Modulus (GPa) = 40.73214 55.82295 48.27755
# Shear Modulus (GPa) = 23.23503 27.88358 25.55930
#
# Velocity S-wave (km/s) = 3.46210 3.79264 3.63113
# Velocity P-wave (km/s) = 6.08224 6.92646 6.51803
#
# Compressibility (1/GPa) = 0.02455064
#
# Stress axis : x y z
#
# Youngs Moduli (GPa) = 41.53546 41.53546 98.41109
#
# Poissons Ratio (x) = 0.22126 0.56854
# Poissons Ratio (y) = 0.22126 0.56854
# Poissons Ratio (z) = 0.23996 0.23996
#
# Static dielectric constant tensor:
#      x y z
#    x 3.483420 0.000000 0.000000 
#    y 0.000000 3.483420 0.000000 
#    z 0.000000 0.000000 3.710750 
# 
# 
# High freq. dielectric constant tensor:
#      x y z
#    x 1.736810 0.000000 0.000000 
#    y 0.000000 1.736810 0.000000 
#    z 0.000000 0.000000 1.772200 
# 
# From -- ./inp_files/4901.got.cif
#   From: 2010.03.12/outbox.cif.g09.slc.cpg/sg166_3_cif.got.tgz:4901.got - 2010.04.02 06:38:31.
