data_PCOD8324543
_publ_section_title
;
Structure prediction by ZEFSAII (Michael W. Deem and Ramdas Pophale) SiO2 
 PCOD8324543
Probable space group: P 61
;
_chemical_formula_sum "Si O2"
_cell_formula_units_Z 36
_cell_length_a 14.500634
_cell_length_b 14.500634
_cell_length_c 9.366063
_cell_angle_alpha 90.000000
_cell_angle_beta 90.000000
_cell_angle_gamma 120.000000
_cell_volume 1705.539132
_symmetry_space_group_name_H-M "P 61"
_symmetry_group_IT_number 169
_symmetry_cell_setting 'hexagonal'
loop_
_space_group_symop_operation_xyz
x,y,z
x-y,x,1/6+z
-y,x-y,1/3+z
-x,-y,1/2+z
-x+y,-x,2/3+z
y,-x+y,5/6+z
loop_
_atom_site_type_symbol
_atom_site_label
_atom_site_fract_x
_atom_site_fract_y
_atom_site_fract_z
Si Si1 0.411246 0.209873 0.209440
Si Si2 0.276460 0.889386 0.741947
Si Si3 0.439333 0.504065 0.452068
Si Si4 0.124900 0.566060 0.428871
Si Si5 0.888529 0.778274 0.075087
Si Si6 0.238183 0.359950 0.836589
O O1 0.431432 0.113625 0.240006
O O2 0.524504 0.316594 0.240631
O O3 0.313937 0.199255 0.307065
O O4 0.376637 0.205673 0.045657
O O5 0.374913 0.866905 0.724947
O O6 0.205222 0.856358 0.601135
O O7 0.327526 0.015970 0.761401
O O8 0.456311 0.508852 0.621905
O O9 0.498975 0.444909 0.394218
O O10 0.177727 0.692442 0.458177
O O11 0.805740 0.718377 0.202135
O O12 0.004965 0.853581 0.144409
#
# Coordination Sequence:
#
# PCOD8324543 Si02
#       6
#     6   6   6   6   6   6
#     4  11  24  42  69 100 137 173 228 277 342 412
#     4  10  25  40  65  97 132 180 220 277 343 408
#     4  10  22  41  62  95 132 170 219 262 332 402
#     4  10  23  40  65  95 131 172 216 272 331 410
#     4  12  26  48  72 100 135 186 236 298 352 415
#     4  11  22  45  67  95 135 179 223 280 350 409
#
# _framework density 21.107697000000002
#
# number of rings (size 3 to 8) (size 9 to 14) (size 15 to 20)
#    0.000    1.333    3.333    1.000    9.333    2.667 
#    3.000    0.000    0.000    0.000    0.000    0.000 
#    0.000    0.000    0.000    0.000    0.000    0.000 
#
# Total GULP energy -446263.770979 kJ/mol
# GULP energy per Si atom -12396.215861 kJ/mol
# Density = 2.105965 g / cm^3
# Si number density = 21.107697 Si / 1000 Ang^3
#
#
#
# Elastic Constant Matrix: (Units=GPa)
#
#
# Indices 1 2 3 4 5 6 
#
# 1 74.3355 16.3544 17.6445 0.0000 0.0000 0.0000
# 2 16.3544 74.3355 17.6445 0.0000 0.0000 0.0000
# 3 17.6445 17.6445 80.8723 0.0000 0.0000 0.0000
# 4 0.0000 0.0000 0.0000 33.7264 0.0000 0.0000
# 5 0.0000 0.0000 0.0000 0.0000 33.7264 0.0000
# 6 0.0000 0.0000 0.0000 0.0000 0.0000 28.9905
#
#
#
# Elastic Compliance Matrix: (Units=1/GPa)
#
#
# Indices 1 2 3 4 5 6 
#
# 1 0.014648 -0.002599 -0.002629 0.000000 0.000000 0.000000
# 2 -0.002599 0.014648 -0.002629 0.000000 0.000000 0.000000
# 3 -0.002629 -0.002629 0.013512 0.000000 0.000000 0.000000
# 4 0.000000 0.000000 0.000000 0.029650 0.000000 0.000000
# 5 0.000000 0.000000 0.000000 0.000000 0.029650 0.000000
# 6 0.000000 0.000000 0.000000 0.000000 0.000000 0.034494
#
#
# Mechanical properties :
#
#
# Convention : Reuss Voigt Hill
#
# Bulk Modulus (GPa) = 36.90628 36.98114 36.94371
# Shear Modulus (GPa) = 30.98876 31.14864 31.06870
#
# Velocity S-wave (km/s) = 3.83577 3.84565 3.84071
# Velocity P-wave (km/s) = 6.09428 6.10549 6.09988
#
# Compressibility (1/GPa) = 0.02709566
#
# Stress axis : x y z
#
# Youngs Moduli (GPa) = 68.26736 68.26736 74.00648
#
# Poissons Ratio (x) = 0.17741 0.19456
# Poissons Ratio (y) = 0.17741 0.19456
# Poissons Ratio (z) = 0.17947 0.17947
#
# Static dielectric constant tensor:
#      x y z
#    x 3.716710 0.000000 0.000000 
#    y 0.000000 3.716710 0.000000 
#    z 0.000000 0.000000 3.912480 
# 
# 
# High freq. dielectric constant tensor:
#      x y z
#    x 1.820220 0.000000 0.000000 
#    y 0.000000 1.820220 0.000000 
#    z 0.000000 0.000000 1.839200 
# 
# From -- ./inp_files/582.got.cif
#   From: 2010.03.12/outbox.cif.g09.slc.cpg/sg169_cif.got.tgz:582.got - 2010.04.02 06:46:06.
