data_PCOD8324838
_publ_section_title
;
Structure prediction by ZEFSAII (Michael W. Deem and Ramdas Pophale) SiO2 
 PCOD8324838
Probable space group: P 63
;
_chemical_formula_sum "Si O2"
_cell_formula_units_Z 48
_cell_length_a 17.148281
_cell_length_b 17.148281
_cell_length_c 8.941723
_cell_angle_alpha 90.000000
_cell_angle_beta 90.000000
_cell_angle_gamma 120.000000
_cell_volume 2277.157274
_symmetry_space_group_name_H-M "P 63"
_symmetry_group_IT_number 173
_symmetry_cell_setting 'hexagonal'
loop_
_space_group_symop_operation_xyz
x,y,z
x-y,x,1/2+z
-y,x-y,z
-x,-y,1/2+z
-x+y,-x,z
y,-x+y,1/2+z
loop_
_atom_site_type_symbol
_atom_site_label
_atom_site_fract_x
_atom_site_fract_y
_atom_site_fract_z
Si Si1 0.854728 0.027080 0.622180
Si Si2 0.343618 0.006506 0.167013
Si Si3 0.374450 0.459237 0.405968
Si Si4 0.828508 0.350212 0.624289
Si Si5 0.852440 0.027240 0.270768
Si Si6 0.700093 0.074078 0.243248
Si Si7 0.515975 0.687669 0.014092
Si Si8 0.409893 0.988239 0.472112
O O1 0.753627 0.004876 0.651128
O O2 0.870927 0.028494 0.446134
O O3 0.926147 0.122081 0.700508
O O4 0.867577 0.948605 0.691620
O O5 0.340695 0.915917 0.113056
O O6 0.372287 0.023118 0.339166
O O7 0.422594 0.091290 0.071142
O O8 0.337597 0.514051 0.307096
O O9 0.346990 0.367325 0.319108
O O10 0.480023 0.528524 0.408590
O O11 0.788815 0.410424 0.555026
O O12 0.785416 0.251874 0.555055
O O13 0.932479 0.404123 0.582759
O O14 0.796168 0.078452 0.240177
O O15 0.695859 0.151890 0.339974
O O16 0.673078 0.084228 0.073733
#
# Coordination Sequence:
#
# PCOD8324838 Si02
#       8
#     6   6   6   6   6   6   6   6
#     4  12  28  46  71  95 136 175 225 271 338 402
#     4  11  23  39  67 101 131 163 234 273 326 394
#     4  10  19  42  63  96 125 172 215 276 324 392
#     4  11  23  38  70  88 136 177 219 269 344 395
#     4  12  27  49  68  98 134 179 219 275 336 405
#     4  10  23  40  65  97 136 161 228 273 327 394
#     4  11  22  43  59  99 131 177 221 275 327 416
#     4  11  21  39  69  96 127 180 213 278 334 380
#
# _framework density 21.078914000000001
#
# number of rings (size 3 to 8) (size 9 to 14) (size 15 to 20)
#    0.000    1.000    6.250    2.000    8.750    0.000 
#    0.000    0.000    0.000    0.000    0.000    0.000 
#    0.000    0.000    0.000    0.000    0.000    0.000 
#
# Total GULP energy -594860.225765 kJ/mol
# GULP energy per Si atom -12392.921370 kJ/mol
# Density = 2.103094 g / cm^3
# Si number density = 21.078914 Si / 1000 Ang^3
#
#
#
# Elastic Constant Matrix: (Units=GPa)
#
#
# Indices 1 2 3 4 5 6 
#
# 1 66.9820 25.4867 36.6001 0.0000 0.0000 0.0000
# 2 25.4867 66.9820 36.6001 0.0000 0.0000 0.0000
# 3 36.6001 36.6001 147.2334 0.0000 0.0000 0.0000
# 4 0.0000 0.0000 0.0000 24.5735 0.0000 0.0000
# 5 0.0000 0.0000 0.0000 0.0000 24.5735 0.0000
# 6 0.0000 0.0000 0.0000 0.0000 0.0000 20.7476
#
#
#
# Elastic Compliance Matrix: (Units=1/GPa)
#
#
# Indices 1 2 3 4 5 6 
#
# 1 0.018782 -0.005318 -0.003347 0.000000 0.000000 0.000000
# 2 -0.005318 0.018782 -0.003347 0.000000 0.000000 0.000000
# 3 -0.003347 -0.003347 0.008456 0.000000 0.000000 0.000000
# 4 0.000000 0.000000 0.000000 0.040694 0.000000 0.000000
# 5 0.000000 0.000000 0.000000 0.000000 0.040694 0.000000
# 6 0.000000 0.000000 0.000000 0.000000 0.000000 0.048198
#
#
# Mechanical properties :
#
#
# Convention : Reuss Voigt Hill
#
# Bulk Modulus (GPa) = 45.46257 53.17456 49.31856
# Shear Modulus (GPa) = 24.15917 26.14630 25.15273
#
# Velocity S-wave (km/s) = 3.38913 3.52575 3.45811
# Velocity P-wave (km/s) = 6.07697 6.46960 6.27636
#
# Compressibility (1/GPa) = 0.02199612
#
# Stress axis : x y z
#
# Youngs Moduli (GPa) = 53.24371 53.24371 118.26002
#
# Poissons Ratio (x) = 0.28313 0.39581
# Poissons Ratio (y) = 0.28313 0.39581
# Poissons Ratio (z) = 0.17820 0.17820
#
# Static dielectric constant tensor:
#      x y z
#    x 3.777810 0.000000 0.000000 
#    y 0.000000 3.777810 0.000000 
#    z 0.000000 0.000000 4.437440 
# 
# 
# High freq. dielectric constant tensor:
#      x y z
#    x 1.813810 0.000000 0.000000 
#    y 0.000000 1.813810 0.000000 
#    z 0.000000 0.000000 1.841540 
# 
# From -- ./inp_files/677.got.cif
#   From: 2010.03.12/outbox.cif.g09.slc.cpg/sg173_cif.got.tgz:677.got - 2010.04.02 06:54:12.
