data_PCOD8324229
_publ_section_title
;
Structure prediction by ZEFSAII (Michael W. Deem and Ramdas Pophale) SiO2 
 PCOD8324229
Probable space group: R -3 M
;
_chemical_formula_sum "Si O2"
_cell_formula_units_Z 180
_cell_length_a 19.537452
_cell_length_b 19.537452
_cell_length_c 28.638118
_cell_angle_alpha 90.000000
_cell_angle_beta 90.000000
_cell_angle_gamma 120.000000
_cell_volume 9466.968978
_symmetry_space_group_name_H-M "R -3 M"
_symmetry_group_IT_number 166
_symmetry_cell_setting 'hexagonal'
loop_
_space_group_symop_operation_xyz
x,y,z
-y,x-y,z
-x+y,-x,z
x-y,-y,-z
-x,-x+y,-z
y,x,-z
-x,-y,-z
y,-x+y,-z
x-y,x,-z
-x+y,y,z
x,x-y,z
-y,-x,z
2/3+x,1/3+y,1/3+z
2/3-y,1/3+x-y,1/3+z
2/3-x+y,1/3-x,1/3+z
2/3+x-y,1/3-y,1/3-z
2/3-x,1/3-x+y,1/3-z
2/3+y,1/3+x,1/3-z
2/3-x,1/3-y,1/3-z
2/3+y,1/3-x+y,1/3-z
2/3+x-y,1/3+x,1/3-z
2/3-x+y,1/3+y,1/3+z
2/3+x,1/3+x-y,1/3+z
2/3-y,1/3-x,1/3+z
1/3+x,2/3+y,2/3+z
1/3-y,2/3+x-y,2/3+z
1/3-x+y,2/3-x,2/3+z
1/3+x-y,2/3-y,2/3-z
1/3-x,2/3-x+y,2/3-z
1/3+y,2/3+x,2/3-z
1/3-x,2/3-y,2/3-z
1/3+y,2/3-x+y,2/3-z
1/3+x-y,2/3+x,2/3-z
1/3-x+y,2/3+y,2/3+z
1/3+x,2/3+x-y,2/3+z
1/3-y,2/3-x,2/3+z
loop_
_atom_site_type_symbol
_atom_site_label
_atom_site_fract_x
_atom_site_fract_y
_atom_site_fract_z
Si Si1 0.481988 0.518013 0.749637
Si Si2 0.876422 0.123579 0.341489
Si Si3 0.243411 0.486821 0.669014
Si Si4 0.745269 0.740179 0.140598
Si Si5 0.183977 0.367954 0.744731
Si Si6 0.288243 0.419962 0.349332
Si Si7 0.333768 0.825345 0.891743
O O1 0.524397 0.475604 0.726115
O O2 0.452813 0.547188 0.706660
O O3 0.545752 0.591010 0.779430
O O4 0.848292 0.151709 0.296124
O O5 0.971634 0.171109 0.341605
O O6 0.333334 0.541797 0.666667
O O7 0.225931 0.451862 0.720501
O O8 0.671774 0.666667 0.166667
O O9 0.779515 0.695635 0.108808
O O10 0.813189 0.801548 0.174912
O O11 0.211192 0.422383 0.332859
O O12 0.275735 0.333334 0.333334
O O13 0.303273 0.434913 0.405046
O O14 0.399123 0.798245 0.888010
O O15 0.250300 0.749701 0.907965
#
# Coordination Sequence:
#
# PCOD8324229 Si02
#       7
#    18  18  18  36  18  36  36
#     4  11  26  41  59  88 122 161 212 258 298 377
#     4  11  24  39  67  92 125 162 213 260 317 374
#     4  11  21  37  59  84 123 167 214 250 298 350
#     4  12  24  39  59  87 124 164 211 251 308 364
#     4  11  23  37  61  88 123 172 210 250 299 377
#     4  10  23  42  64  92 124 163 208 264 329 385
#     4  11  22  39  61  90 124 164 204 252 313 373
#
# _framework density 19.013477999999999
#
# number of rings (size 3 to 8) (size 9 to 14) (size 15 to 20)
#    0.000    1.000    5.000    1.800    5.600    0.000 
#    0.600    0.000    0.000    0.000    0.000    0.000 
#    0.000    0.800    0.000    0.000    0.000    0.000 
#
# Total GULP energy -743607.679131 kJ/mol
# GULP energy per Si atom -12393.461319 kJ/mol
# Density = 1.897020 g / cm^3
# Si number density = 19.013478 Si / 1000 Ang^3
#
#
#
# Elastic Constant Matrix: (Units=GPa)
#
#
# Indices 1 2 3 4 5 6 
#
# 1 90.0539 20.9309 38.9509 -2.7125 0.0006 0.0000
# 2 20.9309 90.0539 38.9509 2.7125 -0.0006 0.0000
# 3 38.9509 38.9509 92.4777 0.0000 0.0000 0.0000
# 4 -2.7125 2.7125 0.0000 26.5251 0.0000 -0.0006
# 5 0.0006 -0.0006 0.0000 0.0000 26.5251 -2.7125
# 6 0.0000 0.0000 0.0000 -0.0006 -2.7125 34.5615
#
#
#
# Elastic Compliance Matrix: (Units=1/GPa)
#
#
# Indices 1 2 3 4 5 6 
#
# 1 0.013688 -0.000896 -0.005388 0.001491 0.000000 0.000000
# 2 -0.000896 0.013688 -0.005388 -0.001491 0.000000 0.000000
# 3 -0.005388 -0.005388 0.015352 0.000000 0.000000 0.000000
# 4 0.001491 -0.001491 0.000000 0.038005 0.000000 0.000001
# 5 0.000000 0.000000 0.000000 0.000000 0.038005 0.002983
# 6 0.000000 0.000000 0.000000 0.000001 0.002983 0.029168
#
#
# Mechanical properties :
#
#
# Convention : Reuss Voigt Hill
#
# Bulk Modulus (GPa) = 51.58732 52.25009 51.91871
# Shear Modulus (GPa) = 28.13547 29.10589 28.62068
#
# Velocity S-wave (km/s) = 3.85094 3.91679 3.88401
# Velocity P-wave (km/s) = 6.85302 6.92786 6.89054
#
# Compressibility (1/GPa) = 0.01938461
#
# Stress axis : x y z
#
# Youngs Moduli (GPa) = 73.05642 73.05642 65.13760
#
# Poissons Ratio (x) = 0.06545 0.35096
# Poissons Ratio (y) = 0.06545 0.35096
# Poissons Ratio (z) = 0.39362 0.39362
#
# Static dielectric constant tensor:
#      x y z
#    x 3.621110 0.000000 0.000000 
#    y 0.000000 3.621110 0.000000 
#    z 0.000000 0.000000 3.657440 
# 
# 
# High freq. dielectric constant tensor:
#      x y z
#    x 1.740540 0.000000 0.000000 
#    y 0.000000 1.740540 0.000000 
#    z 0.000000 0.000000 1.741620 
# 
# From -- ./inp_files/10623.got.cif
#   From: 2010.03.12/outbox.cif.g09.slc.cpg/sg166_6_cif.got.tgz:10623.got - 2010.04.02 06:38:31.
