data_PCOD8324406
_publ_section_title
;
Structure prediction by ZEFSAII (Michael W. Deem and Ramdas Pophale) SiO2 
 PCOD8324406
Probable space group: R -3 C 
;
_chemical_formula_sum "Si O2"
_cell_formula_units_Z 120
_cell_length_a 20.771197
_cell_length_b 20.771197
_cell_length_c 14.612851
_cell_angle_alpha 90.000000
_cell_angle_beta 90.000000
_cell_angle_gamma 120.000000
_cell_volume 5459.949642
_symmetry_space_group_name_H-M "R -3 C "
_symmetry_group_IT_number 167
_symmetry_cell_setting 'hexagonal'
loop_
_space_group_symop_operation_xyz
x,y,z
-y,x-y,z
-x+y,-x,z
x-y,-y,1/2-z
-x,-x+y,1/2-z
y,x,1/2-z
-x,-y,-z
y,-x+y,-z
x-y,x,-z
-x+y,y,1/2+z
x,x-y,1/2+z
-y,-x,1/2+z
2/3+x,1/3+y,1/3+z
2/3-y,1/3+x-y,1/3+z
2/3-x+y,1/3-x,1/3+z
2/3+x-y,1/3-y,5/6-z
2/3-x,1/3-x+y,5/6-z
2/3+y,1/3+x,5/6-z
2/3-x,1/3-y,1/3-z
2/3+y,1/3-x+y,1/3-z
2/3+x-y,1/3+x,1/3-z
2/3-x+y,1/3+y,5/6+z
2/3+x,1/3+x-y,5/6+z
2/3-y,1/3-x,5/6+z
1/3+x,2/3+y,2/3+z
1/3-y,2/3+x-y,2/3+z
1/3-x+y,2/3-x,2/3+z
1/3+x-y,2/3-y,1/6-z
1/3-x,2/3-x+y,1/6-z
1/3+y,2/3+x,1/6-z
1/3-x,2/3-y,2/3-z
1/3+y,2/3-x+y,2/3-z
1/3+x-y,2/3+x,2/3-z
1/3-x+y,2/3+y,1/6+z
1/3+x,2/3+x-y,1/6+z
1/3-y,2/3-x,1/6+z
loop_
_atom_site_type_symbol
_atom_site_label
_atom_site_fract_x
_atom_site_fract_y
_atom_site_fract_z
Si Si1 0.000000 0.000000 0.393607
Si Si2 0.897901 0.065594 0.401183
Si Si3 0.520689 0.584367 0.903357
Si Si4 0.229398 0.142204 0.087070
O O1 0.958516 0.914230 0.361129
O O2 0.000000 0.000000 0.500000
O O3 0.911534 0.138957 0.350749
O O4 0.905024 0.082219 0.510432
O O5 0.814133 0.998884 0.381603
O O6 0.589382 0.666667 0.916667
O O7 0.556217 0.533126 0.882328
O O8 0.471725 0.565850 0.993943
#
# Coordination Sequence:
#
# PCOD8324406 Si02
#       4
#    12  36  36  36
#     4  12  21  39  69 103 126 159 217 282 327 400
#     4  12  22  42  67  91 127 166 205 267 335 370
#     4  11  25  41  61  92 125 165 211 257 312 386
#     4  11  24  41  62  91 125 160 212 256 306 390
#
# _framework density 21.978224000000001
#
# number of rings (size 3 to 8) (size 9 to 14) (size 15 to 20)
#    0.000    0.600    3.000    5.400    0.000    2.400 
#    0.000    9.000    0.000    0.000    0.000    0.000 
#    0.000    0.000    0.000    0.000    0.000    0.000 
#
# Total GULP energy -496136.805602 kJ/mol
# GULP energy per Si atom -12403.420140 kJ/mol
# Density = 2.192820 g / cm^3
# Si number density = 21.978224 Si / 1000 Ang^3
#
#
#
# Elastic Constant Matrix: (Units=GPa)
#
#
# Indices 1 2 3 4 5 6 
#
# 1 87.9164 28.7176 13.5561 -3.4180 0.0003 0.0000
# 2 28.7176 87.9164 13.5561 3.4180 -0.0003 0.0000
# 3 13.5561 13.5561 60.9408 0.0000 0.0000 0.0000
# 4 -3.4180 3.4180 0.0000 28.4819 0.0000 -0.0003
# 5 0.0003 -0.0003 0.0000 0.0000 28.4819 -3.4180
# 6 0.0000 0.0000 0.0000 -0.0003 -3.4180 29.5994
#
#
#
# Elastic Compliance Matrix: (Units=1/GPa)
#
#
# Indices 1 2 3 4 5 6 
#
# 1 0.013085 -0.004044 -0.002011 0.002056 0.000000 0.000000
# 2 -0.004044 0.013085 -0.002011 -0.002056 0.000000 0.000000
# 3 -0.002011 -0.002011 0.017304 0.000000 0.000000 0.000000
# 4 0.002056 -0.002056 0.000000 0.035603 0.000000 0.000000
# 5 0.000000 0.000000 0.000000 0.000000 0.035603 0.004111
# 6 0.000000 0.000000 0.000000 0.000000 0.004111 0.034259
#
#
# Mechanical properties :
#
#
# Convention : Reuss Voigt Hill
#
# Bulk Modulus (GPa) = 36.57382 38.71480 37.64431
# Shear Modulus (GPa) = 28.70455 29.37554 29.04004
#
# Velocity S-wave (km/s) = 3.61785 3.65989 3.63893
# Velocity P-wave (km/s) = 5.84199 5.95928 5.90092
#
# Compressibility (1/GPa) = 0.02734196
#
# Stress axis : x y z
#
# Youngs Moduli (GPa) = 76.42053 76.42053 57.78960
#
# Poissons Ratio (x) = 0.30906 0.11623
# Poissons Ratio (y) = 0.30906 0.11623
# Poissons Ratio (z) = 0.15370 0.15370
#
# Static dielectric constant tensor:
#      x y z
#    x 3.787880 0.000000 0.000000 
#    y 0.000000 3.787880 0.000000 
#    z 0.000000 0.000000 3.804720 
# 
# 
# High freq. dielectric constant tensor:
#      x y z
#    x 1.871170 0.000000 0.000000 
#    y 0.000000 1.871170 0.000000 
#    z 0.000000 0.000000 1.864670 
# 
# From -- ./inp_files/2289.got.cif
#   From: 2010.03.12/outbox.cif.g09.slc.cpg/sg167_2_cif.got.tgz:2289.got - 2010.04.02 06:42:56.
