data_PCOD8324761
_publ_section_title
;
Structure prediction by ZEFSAII (Michael W. Deem and Ramdas Pophale) SiO2 
 PCOD8324761
Probable space group: P 62
;
_chemical_formula_sum "Si O2"
_cell_formula_units_Z 36
_cell_length_a 8.532456
_cell_length_b 8.532456
_cell_length_c 27.566604
_cell_angle_alpha 90.000000
_cell_angle_beta 90.000000
_cell_angle_gamma 120.000000
_cell_volume 1738.048992
_symmetry_space_group_name_H-M "P 62"
_symmetry_group_IT_number 171
_symmetry_cell_setting 'hexagonal'
loop_
_space_group_symop_operation_xyz
x,y,z
x-y,x,1/3+z
-y,x-y,2/3+z
-x,-y,z
-x+y,-x,1/3+z
y,-x+y,2/3+z
loop_
_atom_site_type_symbol
_atom_site_label
_atom_site_fract_x
_atom_site_fract_y
_atom_site_fract_z
Si Si1 0.661328 0.700722 0.728290
Si Si2 0.196148 0.171347 0.831043
Si Si3 0.058031 0.360432 0.887493
Si Si4 0.311895 0.503083 0.980367
Si Si5 0.992916 0.673864 0.569971
Si Si6 0.683773 0.129777 0.005853
O O1 0.500000 0.500000 0.734720
O O2 0.706870 0.798647 0.779774
O O3 0.610014 0.823547 0.695178
O O4 0.824569 0.682143 0.704754
O O5 0.177142 0.344809 0.844554
O O6 0.313203 0.156062 0.875371
O O7 0.000000 0.000000 0.826366
O O8 0.172360 0.406684 0.936722
O O9 0.000000 0.500000 0.870402
O O10 0.868068 0.181194 0.891331
O O11 0.500000 0.500000 0.973360
O O12 0.329215 0.700024 0.984459
O O13 0.001700 0.676965 0.628444
O O14 0.000000 0.500000 0.549642
O O15 0.500000 0.000000 0.036457
#
# Coordination Sequence:
#
# PCOD8324761 Si02
#       6
#     6   6   6   6   6   6
#     4  10  22  45  64  89 131 168 205 264 316 383
#     4  10  25  41  60  95 129 168 210 250 326 380
#     4  11  21  41  63  90 131 163 213 265 307 377
#     4  11  23  39  66  96 122 165 219 260 321 376
#     4  10  21  40  63  91 127 163 211 268 309 375
#     4  10  21  40  66  92 124 163 213 265 315 372
#
# _framework density 20.712879000000001
#
# number of rings (size 3 to 8) (size 9 to 14) (size 15 to 20)
#    0.000    1.667    3.333    0.500    4.667    4.667 
#    0.000    6.667    0.000    0.000    0.000    0.000 
#    0.000    0.000    0.000    0.000    0.000    0.000 
#
# Total GULP energy -445980.018280 kJ/mol
# GULP energy per Si atom -12388.333841 kJ/mol
# Density = 2.066574 g / cm^3
# Si number density = 20.712879 Si / 1000 Ang^3
#
#
#
# Elastic Constant Matrix: (Units=GPa)
#
#
# Indices 1 2 3 4 5 6 
#
# 1 99.8984 39.1697 45.5967 0.0000 0.0000 0.0000
# 2 39.1697 99.8984 45.5967 0.0000 0.0000 0.0000
# 3 45.5967 45.5967 109.3906 0.0000 0.0000 0.0000
# 4 0.0000 0.0000 0.0000 29.7912 0.0000 0.0000
# 5 0.0000 0.0000 0.0000 0.0000 29.7912 0.0000
# 6 0.0000 0.0000 0.0000 0.0000 0.0000 30.3643
#
#
#
# Elastic Compliance Matrix: (Units=1/GPa)
#
#
# Indices 1 2 3 4 5 6 
#
# 1 0.013181 -0.003286 -0.004125 0.000000 0.000000 0.000000
# 2 -0.003286 0.013181 -0.004125 0.000000 0.000000 0.000000
# 3 -0.004125 -0.004125 0.012580 0.000000 0.000000 0.000000
# 4 0.000000 0.000000 0.000000 0.033567 0.000000 0.000000
# 5 0.000000 0.000000 0.000000 0.000000 0.033567 0.000000
# 6 0.000000 0.000000 0.000000 0.000000 0.000000 0.032933
#
#
# Mechanical properties :
#
#
# Convention : Reuss Voigt Hill
#
# Bulk Modulus (GPa) = 63.00278 63.32374 63.16326
# Shear Modulus (GPa) = 29.87390 29.91097 29.89243
#
# Velocity S-wave (km/s) = 3.80186 3.80422 3.80304
# Velocity P-wave (km/s) = 7.05376 7.06645 7.06010
#
# Compressibility (1/GPa) = 0.01587231
#
# Stress axis : x y z
#
# Youngs Moduli (GPa) = 75.86635 75.86635 79.49071
#
# Poissons Ratio (x) = 0.24927 0.32787
# Poissons Ratio (y) = 0.24927 0.32787
# Poissons Ratio (z) = 0.31292 0.31292
#
# Static dielectric constant tensor:
#      x y z
#    x 4.072220 0.000000 0.000000 
#    y 0.000000 4.072220 0.000000 
#    z 0.000000 0.000000 3.723560 
# 
# 
# High freq. dielectric constant tensor:
#      x y z
#    x 1.818810 0.000000 0.000000 
#    y 0.000000 1.818810 0.000000 
#    z 0.000000 0.000000 1.794100 
# 
# From -- ./inp_files/5755.got.cif
#   From: 2010.03.12/outbox.cif.g09.slc.cpg/sg171_3_cif.got.tgz:5755.got - 2010.04.02 06:49:11.
