data_PCOD8324306
_publ_section_title
;
Structure prediction by ZEFSAII (Michael W. Deem and Ramdas Pophale) SiO2 
 PCOD8324306
Probable space group: R -3 C 
;
_chemical_formula_sum "Si O2"
_cell_formula_units_Z 162
_cell_length_a 27.416393
_cell_length_b 27.416393
_cell_length_c 13.800861
_cell_angle_alpha 90.000000
_cell_angle_beta 90.000000
_cell_angle_gamma 120.000000
_cell_volume 8983.745641
_symmetry_space_group_name_H-M "R -3 C "
_symmetry_group_IT_number 167
_symmetry_cell_setting 'hexagonal'
loop_
_space_group_symop_operation_xyz
x,y,z
-y,x-y,z
-x+y,-x,z
x-y,-y,1/2-z
-x,-x+y,1/2-z
y,x,1/2-z
-x,-y,-z
y,-x+y,-z
x-y,x,-z
-x+y,y,1/2+z
x,x-y,1/2+z
-y,-x,1/2+z
2/3+x,1/3+y,1/3+z
2/3-y,1/3+x-y,1/3+z
2/3-x+y,1/3-x,1/3+z
2/3+x-y,1/3-y,5/6-z
2/3-x,1/3-x+y,5/6-z
2/3+y,1/3+x,5/6-z
2/3-x,1/3-y,1/3-z
2/3+y,1/3-x+y,1/3-z
2/3+x-y,1/3+x,1/3-z
2/3-x+y,1/3+y,5/6+z
2/3+x,1/3+x-y,5/6+z
2/3-y,1/3-x,5/6+z
1/3+x,2/3+y,2/3+z
1/3-y,2/3+x-y,2/3+z
1/3-x+y,2/3-x,2/3+z
1/3+x-y,2/3-y,1/6-z
1/3-x,2/3-x+y,1/6-z
1/3+y,2/3+x,1/6-z
1/3-x,2/3-y,2/3-z
1/3+y,2/3-x+y,2/3-z
1/3+x-y,2/3+x,2/3-z
1/3-x+y,2/3+y,1/6+z
1/3+x,2/3+x-y,1/6+z
1/3-y,2/3-x,1/6+z
loop_
_atom_site_type_symbol
_atom_site_label
_atom_site_fract_x
_atom_site_fract_y
_atom_site_fract_z
Si Si1 0.847712 0.294535 0.883314
Si Si2 0.093970 0.427303 0.416667
Si Si3 0.547454 0.523381 0.617118
Si Si4 0.987595 0.427941 0.412226
Si Si5 0.161543 0.238626 0.537391
O O1 0.894014 0.282034 0.833856
O O2 0.786230 0.239503 0.868296
O O3 0.853934 0.349328 0.826685
O O4 0.861306 0.311400 0.995733
O O5 0.032245 0.411916 0.451463
O O6 0.569268 0.524253 0.508315
O O7 0.489288 0.465554 0.637609
O O8 0.592456 0.522064 0.690095
O O9 0.530252 0.571693 0.632414
#
# Coordination Sequence:
#
# PCOD8324306 Si02
#       5
#    36  18  36  36  36
#     4  11  23  36  56  79 111 149 193 229 285 332
#     4  12  20  36  54  80 114 148 182 226 278 342
#     4   9  18  35  57  77 110 143 181 229 283 329
#     4  10  20  35  54  78 109 148 182 226 275 340
#     4  10  20  37  56  82 110 149 188 236 279 341
#
# _framework density 18.032565999999999
#
# number of rings (size 3 to 8) (size 9 to 14) (size 15 to 20)
#    0.000    1.778    4.444    0.667    0.000    2.667 
#    4.000    0.000    0.000    0.444    0.000    0.000 
#    0.000    0.444    0.000    0.000    0.000    0.000 
#
# Total GULP energy -669042.587874 kJ/mol
# GULP energy per Si atom -12389.677553 kJ/mol
# Density = 1.799152 g / cm^3
# Si number density = 18.032566 Si / 1000 Ang^3
#
#
#
# Elastic Constant Matrix: (Units=GPa)
#
#
# Indices 1 2 3 4 5 6 
#
# 1 81.3948 37.2240 29.8934 1.9041 0.0000 0.0000
# 2 37.2240 81.3948 29.8933 -1.9041 0.0000 0.0000
# 3 29.8934 29.8933 111.7188 -0.0001 0.0001 0.0001
# 4 1.9041 -1.9041 -0.0001 22.8946 -0.0001 0.0000
# 5 0.0000 0.0000 0.0001 -0.0001 22.8947 1.9042
# 6 0.0000 0.0000 0.0001 0.0000 1.9042 22.0854
#
#
#
# Elastic Compliance Matrix: (Units=1/GPa)
#
#
# Indices 1 2 3 4 5 6 
#
# 1 0.016274 -0.006529 -0.002607 -0.001896 0.000000 0.000000
# 2 -0.006529 0.016274 -0.002607 0.001896 0.000000 0.000000
# 3 -0.002607 -0.002607 0.010346 0.000000 0.000000 0.000000
# 4 -0.001896 0.001896 0.000000 0.043994 0.000000 0.000000
# 5 0.000000 0.000000 0.000000 0.000000 0.043994 -0.003793
# 6 0.000000 0.000000 0.000000 0.000000 -0.003793 0.045606
#
#
# Mechanical properties :
#
#
# Convention : Reuss Voigt Hill
#
# Bulk Modulus (GPa) = 51.53078 52.05885 51.79481
# Shear Modulus (GPa) = 24.21964 25.40811 24.81387
#
# Velocity S-wave (km/s) = 3.66882 3.75775 3.71355
# Velocity P-wave (km/s) = 6.82536 6.91083 6.86823
#
# Compressibility (1/GPa) = 0.01940588
#
# Stress axis : x y z
#
# Youngs Moduli (GPa) = 61.44864 61.44869 96.65188
#
# Poissons Ratio (x) = 0.40121 0.25201
# Poissons Ratio (y) = 0.40121 0.25201
# Poissons Ratio (z) = 0.16022 0.16022
#
# Static dielectric constant tensor:
#      x y z
#    x 3.165210 0.000000 0.000000 
#    y 0.000000 3.165210 0.000000 
#    z 0.000000 0.000000 3.397550 
# 
# 
# High freq. dielectric constant tensor:
#      x y z
#    x 1.666220 0.000000 0.000000 
#    y 0.000000 1.666220 0.000000 
#    z 0.000000 0.000000 1.721590 
# 
# From -- ./inp_files/2442.got.cif
#   From: 2010.03.12/outbox.cif.g09.slc.cpg/sg167_2_cif.got.tgz:2442.got - 2010.04.02 06:42:56.
