data_PCOD8324158
_publ_section_title
;
Structure prediction by ZEFSAII (Michael W. Deem and Ramdas Pophale) SiO2 
 PCOD8324158
Probable space group: R -3 M
;
_chemical_formula_sum "Si O2"
_cell_formula_units_Z 144
_cell_length_a 20.677476
_cell_length_b 20.677476
_cell_length_c 20.012887
_cell_angle_alpha 90.000000
_cell_angle_beta 90.000000
_cell_angle_gamma 120.000000
_cell_volume 7410.293778
_symmetry_space_group_name_H-M "R -3 M"
_symmetry_group_IT_number 166
_symmetry_cell_setting 'hexagonal'
loop_
_space_group_symop_operation_xyz
x,y,z
-y,x-y,z
-x+y,-x,z
x-y,-y,-z
-x,-x+y,-z
y,x,-z
-x,-y,-z
y,-x+y,-z
x-y,x,-z
-x+y,y,z
x,x-y,z
-y,-x,z
2/3+x,1/3+y,1/3+z
2/3-y,1/3+x-y,1/3+z
2/3-x+y,1/3-x,1/3+z
2/3+x-y,1/3-y,1/3-z
2/3-x,1/3-x+y,1/3-z
2/3+y,1/3+x,1/3-z
2/3-x,1/3-y,1/3-z
2/3+y,1/3-x+y,1/3-z
2/3+x-y,1/3+x,1/3-z
2/3-x+y,1/3+y,1/3+z
2/3+x,1/3+x-y,1/3+z
2/3-y,1/3-x,1/3+z
1/3+x,2/3+y,2/3+z
1/3-y,2/3+x-y,2/3+z
1/3-x+y,2/3-x,2/3+z
1/3+x-y,2/3-y,2/3-z
1/3-x,2/3-x+y,2/3-z
1/3+y,2/3+x,2/3-z
1/3-x,2/3-y,2/3-z
1/3+y,2/3-x+y,2/3-z
1/3+x-y,2/3+x,2/3-z
1/3-x+y,2/3+y,2/3+z
1/3+x,2/3+x-y,2/3+z
1/3-y,2/3-x,2/3+z
loop_
_atom_site_type_symbol
_atom_site_label
_atom_site_fract_x
_atom_site_fract_y
_atom_site_fract_z
Si Si1 0.483309 0.666664 0.864488
Si Si2 0.070705 0.460569 0.226854
Si Si3 0.472166 0.377371 0.265214
Si Si4 0.419588 0.284362 0.657225
O O1 0.491189 0.745595 0.883519
O O2 0.396469 0.603532 0.867608
O O3 0.515725 0.671780 0.790416
O O4 0.530891 0.645988 0.915585
O O5 0.078070 0.539035 0.208441
O O6 0.103718 0.437052 0.166667
O O7 0.117935 0.469899 0.293393
O O8 0.985312 0.397428 0.236999
O O9 0.548904 0.451097 0.281896
O O10 0.442355 0.333334 0.333334
O O11 0.430281 0.215141 0.676466
O O12 0.333334 0.261470 0.666667
#
# Coordination Sequence:
#
# PCOD8324158 Si02
#       4
#    36  36  36  36
#     4  10  20  35  56  82 112 145 181 221 266 319
#     4  11  22  37  57  80 108 143 182 225 273 323
#     4  10  21  36  55  80 110 144 181 222 269 321
#     4  10  20  36  59  84 110 142 180 223 271 322
#
# _framework density 19.432428000000002
#
# number of rings (size 3 to 8) (size 9 to 14) (size 15 to 20)
#    0.000    1.750    0.000    4.750    0.000    4.000 
#    0.000    0.000    0.000   17.500    0.000    0.000 
#    0.000    0.000    0.000    0.000    0.000    0.000 
#
# Total GULP energy -595347.088987 kJ/mol
# GULP energy per Si atom -12403.064354 kJ/mol
# Density = 1.938820 g / cm^3
# Si number density = 19.432428 Si / 1000 Ang^3
#
#
#
# Elastic Constant Matrix: (Units=GPa)
#
#
# Indices 1 2 3 4 5 6 
#
# 1 89.3347 52.9529 56.6893 2.6996 -0.0003 0.0000
# 2 52.9529 89.3347 56.6893 -2.6996 0.0003 0.0000
# 3 56.6893 56.6893 125.0801 0.0000 0.0000 0.0000
# 4 2.6996 -2.6996 0.0000 32.5954 0.0000 0.0003
# 5 -0.0003 0.0003 0.0000 0.0000 32.5954 2.6996
# 6 0.0000 0.0000 0.0000 0.0003 2.6996 18.1909
#
#
#
# Elastic Compliance Matrix: (Units=1/GPa)
#
#
# Indices 1 2 3 4 5 6 
#
# 1 0.019415 -0.008414 -0.004986 -0.002305 0.000000 0.000000
# 2 -0.008414 0.019415 -0.004986 0.002305 0.000000 0.000000
# 3 -0.004986 -0.004986 0.012514 0.000000 0.000000 0.000000
# 4 -0.002305 0.002305 0.000000 0.031061 0.000000 0.000000
# 5 0.000000 0.000000 0.000000 0.000000 0.031061 -0.004610
# 6 0.000000 0.000000 0.000000 0.000000 -0.004610 0.055657
#
#
# Mechanical properties :
#
#
# Convention : Reuss Voigt Hill
#
# Bulk Modulus (GPa) = 68.62184 70.71249 69.66717
# Shear Modulus (GPa) = 23.72471 25.83752 24.78111
#
# Velocity S-wave (km/s) = 3.49790 3.65034 3.57493
# Velocity P-wave (km/s) = 7.19051 7.36441 7.27798
#
# Compressibility (1/GPa) = 0.01457262
#
# Stress axis : x y z
#
# Youngs Moduli (GPa) = 51.50754 51.50754 79.90850
#
# Poissons Ratio (x) = 0.43337 0.39841
# Poissons Ratio (y) = 0.43337 0.39841
# Poissons Ratio (z) = 0.25681 0.25681
#
# Static dielectric constant tensor:
#      x y z
#    x 3.575250 0.000000 0.000000 
#    y 0.000000 3.575250 0.000000 
#    z 0.000000 0.000000 3.595470 
# 
# 
# High freq. dielectric constant tensor:
#      x y z
#    x 1.756620 0.000000 0.000000 
#    y 0.000000 1.756620 0.000000 
#    z 0.000000 0.000000 1.768990 
# 
# From -- ./inp_files/6589.got.cif
#   From: 2010.03.12/outbox.cif.g09.slc.cpg/sg166_4_cif.got.tgz:6589.got - 2010.04.02 06:38:31.
