data_PCOD8324128
_publ_section_title
;
Structure prediction by ZEFSAII (Michael W. Deem and Ramdas Pophale) SiO2 
 PCOD8324128
Probable space group: R -3 M
;
_chemical_formula_sum "Si O2"
_cell_formula_units_Z 108
_cell_length_a 21.476834
_cell_length_b 21.476834
_cell_length_c 13.035684
_cell_angle_alpha 90.000000
_cell_angle_beta 90.000000
_cell_angle_gamma 120.000000
_cell_volume 5207.208609
_symmetry_space_group_name_H-M "R -3 M"
_symmetry_group_IT_number 166
_symmetry_cell_setting 'hexagonal'
loop_
_space_group_symop_operation_xyz
x,y,z
-y,x-y,z
-x+y,-x,z
x-y,-y,-z
-x,-x+y,-z
y,x,-z
-x,-y,-z
y,-x+y,-z
x-y,x,-z
-x+y,y,z
x,x-y,z
-y,-x,z
2/3+x,1/3+y,1/3+z
2/3-y,1/3+x-y,1/3+z
2/3-x+y,1/3-x,1/3+z
2/3+x-y,1/3-y,1/3-z
2/3-x,1/3-x+y,1/3-z
2/3+y,1/3+x,1/3-z
2/3-x,1/3-y,1/3-z
2/3+y,1/3-x+y,1/3-z
2/3+x-y,1/3+x,1/3-z
2/3-x+y,1/3+y,1/3+z
2/3+x,1/3+x-y,1/3+z
2/3-y,1/3-x,1/3+z
1/3+x,2/3+y,2/3+z
1/3-y,2/3+x-y,2/3+z
1/3-x+y,2/3-x,2/3+z
1/3+x-y,2/3-y,2/3-z
1/3-x,2/3-x+y,2/3-z
1/3+y,2/3+x,2/3-z
1/3-x,2/3-y,2/3-z
1/3+y,2/3-x+y,2/3-z
1/3+x-y,2/3+x,2/3-z
1/3-x+y,2/3+y,2/3+z
1/3+x,2/3+x-y,2/3+z
1/3-y,2/3-x,2/3+z
loop_
_atom_site_type_symbol
_atom_site_label
_atom_site_fract_x
_atom_site_fract_y
_atom_site_fract_z
Si Si1 0.857580 0.142421 0.268646
Si Si2 0.745622 0.003290 0.379274
Si Si3 0.753117 0.506234 0.436219
Si Si4 0.541319 0.458682 0.029143
Si Si5 0.504582 0.252291 0.213576
O O1 0.833334 0.166667 0.166667
O O2 0.897262 0.102739 0.223916
O O3 0.914824 0.207997 0.338985
O O4 0.666667 0.970965 0.333334
O O5 0.782679 0.955395 0.349265
O O6 0.736818 0.000000 0.500000
O O7 0.786428 0.572856 0.514719
O O8 0.770539 0.541077 0.321521
O O9 0.670241 0.452594 0.454351
O O10 0.500000 0.500000 0.000000
#
# Coordination Sequence:
#
# PCOD8324128 Si02
#       5
#    18  36  18  18  18
#     4  12  25  42  64  97 130 162 220 279 319 376
#     4  11  24  44  65  93 126 172 217 268 330 389
#     4  10  19  39  64  97 127 160 208 253 331 384
#     4  10  21  38  65  86 124 172 213 251 314 397
#     4  10  21  37  66  96 127 162 199 267 319 387
#
# _framework density 20.740479000000001
#
# number of rings (size 3 to 8) (size 9 to 14) (size 15 to 20)
#    0.000    1.333    3.333    2.333    0.000    6.667 
#    6.000    0.000    0.000    0.000    0.000    4.667 
#    0.000    0.000    0.000    0.000    0.000    0.000 
#
# Total GULP energy -446118.926971 kJ/mol
# GULP energy per Si atom -12392.192416 kJ/mol
# Density = 2.069327 g / cm^3
# Si number density = 20.740479 Si / 1000 Ang^3
#
#
#
# Elastic Constant Matrix: (Units=GPa)
#
#
# Indices 1 2 3 4 5 6 
#
# 1 107.3714 28.8544 59.7059 -25.6021 0.0004 0.0000
# 2 28.8544 107.3714 59.7059 25.6022 -0.0004 0.0000
# 3 59.7059 59.7059 190.5486 0.0001 0.0001 0.0000
# 4 -25.6021 25.6022 0.0001 162.7509 0.0002 -0.0005
# 5 0.0004 -0.0004 0.0001 0.0002 162.7512 -25.6022
# 6 0.0000 0.0000 0.0000 -0.0005 -25.6022 39.2585
#
#
#
# Elastic Compliance Matrix: (Units=1/GPa)
#
#
# Indices 1 2 3 4 5 6 
#
# 1 0.012156 -0.002036 -0.003171 0.002233 0.000000 0.000000
# 2 -0.002036 0.012156 -0.003171 -0.002233 0.000000 0.000000
# 3 -0.003171 -0.003171 0.007235 0.000000 0.000000 0.000000
# 4 0.002233 -0.002233 0.000000 0.006847 0.000000 0.000000
# 5 0.000000 0.000000 0.000000 0.000000 0.006847 0.004465
# 6 0.000000 0.000000 0.000000 0.000000 0.004465 0.028384
#
#
# Mechanical properties :
#
#
# Convention : Reuss Voigt Hill
#
# Bulk Modulus (GPa) = 67.60534 77.98042 72.79288
# Shear Modulus (GPa) = 52.45935 90.08714 71.27324
#
# Velocity S-wave (km/s) = 5.03469 6.59771 5.86847
# Velocity P-wave (km/s) = 8.15255 9.78363 9.00510
#
# Compressibility (1/GPa) = 0.01479173
#
# Stress axis : x y z
#
# Youngs Moduli (GPa) = 82.26224 82.26224 138.21204
#
# Poissons Ratio (x) = 0.16747 0.43829
# Poissons Ratio (y) = 0.16747 0.43829
# Poissons Ratio (z) = 0.26086 0.26086
#
# Static dielectric constant tensor:
#      x y z
#    x 4.010550 0.000000 0.000000 
#    y 0.000000 4.010550 0.000000 
#    z 0.000000 0.000000 4.147040 
# 
# 
# High freq. dielectric constant tensor:
#      x y z
#    x 1.812510 0.000000 0.000000 
#    y 0.000000 1.812510 0.000000 
#    z 0.000000 0.000000 1.827670 
# 
# From -- ./inp_files/2679.got.cif
#   From: 2010.03.12/outbox.cif.g09.slc.cpg/sg166_2_cif.got.tgz:2679.got - 2010.04.02 06:38:31.
