data_PCOD8324533
_publ_section_title
;
Structure prediction by ZEFSAII (Michael W. Deem and Ramdas Pophale) SiO2 
 PCOD8324533
Probable space group: P 61
;
_chemical_formula_sum "Si O2"
_cell_formula_units_Z 36
_cell_length_a 12.078626
_cell_length_b 12.078626
_cell_length_c 13.220721
_cell_angle_alpha 90.000000
_cell_angle_beta 90.000000
_cell_angle_gamma 120.000000
_cell_volume 1670.401380
_symmetry_space_group_name_H-M "P 61"
_symmetry_group_IT_number 169
_symmetry_cell_setting 'hexagonal'
loop_
_space_group_symop_operation_xyz
x,y,z
x-y,x,1/6+z
-y,x-y,1/3+z
-x,-y,1/2+z
-x+y,-x,2/3+z
y,-x+y,5/6+z
loop_
_atom_site_type_symbol
_atom_site_label
_atom_site_fract_x
_atom_site_fract_y
_atom_site_fract_z
Si Si1 0.497762 0.223761 0.331780
Si Si2 0.580184 0.928681 0.444159
Si Si3 0.907841 0.800984 0.233596
Si Si4 0.893144 0.800985 0.541280
Si Si5 0.497762 0.274001 0.109761
Si Si6 0.348497 0.928681 0.330716
O O1 0.547588 0.273794 0.220771
O O2 0.618187 0.236374 0.387438
O O3 0.451511 0.312335 0.387926
O O4 0.388149 0.076616 0.320875
O O5 0.653382 0.872167 0.378920
O O6 0.548489 0.860824 0.553615
O O7 0.453365 0.906730 0.387437
O O8 0.688467 0.076616 0.454000
O O9 0.896935 0.851800 0.121526
O O10 0.796683 0.796683 0.304104
O O11 0.872167 0.653382 0.229288
O O12 0.851801 0.896936 0.486683
#
# Coordination Sequence:
#
# PCOD8324533 Si02
#       6
#     6   6   6   6   6   6
#     4  11  24  46  65  97 133 179 231 282 349 418
#     4  11  23  44  70 100 139 179 230 291 348 422
#     4  10  21  44  68 107 145 184 236 288 356 419
#     4  10  21  44  68 107 145 184 236 288 356 419
#     4  11  24  46  65  97 133 179 231 282 349 418
#     4  11  23  44  70 100 139 179 230 291 348 422
#
# _framework density 21.551707
#
# number of rings (size 3 to 8) (size 9 to 14) (size 15 to 20)
#    0.000    1.333    3.333    2.000    0.000    0.000 
#   30.000    0.000    0.000    0.000    0.000    0.000 
#    0.000    0.000    0.000    0.000    0.000    0.000 
#
# Total GULP energy -446127.271575 kJ/mol
# GULP energy per Si atom -12392.424210 kJ/mol
# Density = 2.150265 g / cm^3
# Si number density = 21.551707 Si / 1000 Ang^3
#
#
#
# Elastic Constant Matrix: (Units=GPa)
#
#
# Indices 1 2 3 4 5 6 
#
# 1 111.1539 44.2119 63.7945 0.0000 0.0000 0.0000
# 2 44.2119 111.1539 63.7945 0.0000 0.0000 0.0000
# 3 63.7945 63.7945 155.2180 0.0000 0.0000 0.0000
# 4 0.0000 0.0000 0.0000 34.1539 0.0000 0.0000
# 5 0.0000 0.0000 0.0000 0.0000 34.1539 0.0000
# 6 0.0000 0.0000 0.0000 0.0000 0.0000 33.4710
#
#
#
# Elastic Compliance Matrix: (Units=1/GPa)
#
#
# Indices 1 2 3 4 5 6 
#
# 1 0.012327 -0.002611 -0.003993 0.000000 0.000000 0.000000
# 2 -0.002611 0.012327 -0.003993 0.000000 0.000000 0.000000
# 3 -0.003993 -0.003993 0.009725 0.000000 0.000000 0.000000
# 4 0.000000 0.000000 0.000000 0.029279 0.000000 0.000000
# 5 0.000000 0.000000 0.000000 0.000000 0.029279 0.000000
# 6 0.000000 0.000000 0.000000 0.000000 0.000000 0.029877
#
#
# Mechanical properties :
#
#
# Convention : Reuss Voigt Hill
#
# Bulk Modulus (GPa) = 75.85130 80.12530 77.98830
# Shear Modulus (GPa) = 33.69192 34.07077 33.88134
#
# Velocity S-wave (km/s) = 3.95816 3.98035 3.96927
# Velocity P-wave (km/s) = 7.49405 7.64088 7.56782
#
# Compressibility (1/GPa) = 0.01318369
#
# Stress axis : x y z
#
# Youngs Moduli (GPa) = 81.12290 81.12290 102.82885
#
# Poissons Ratio (x) = 0.21184 0.41061
# Poissons Ratio (y) = 0.21184 0.41061
# Poissons Ratio (z) = 0.32393 0.32393
#
# Static dielectric constant tensor:
#      x y z
#    x 3.999790 0.000000 0.000000 
#    y 0.000000 3.999790 0.000000 
#    z 0.000000 0.000000 4.071520 
# 
# 
# High freq. dielectric constant tensor:
#      x y z
#    x 1.846530 0.000000 0.000000 
#    y 0.000000 1.846530 0.000000 
#    z 0.000000 0.000000 1.846630 
# 
# From -- ./inp_files/1148.got.cif
#   From: 2010.03.12/outbox.cif.g09.slc.cpg/sg169_cif.got.tgz:1148.got - 2010.04.02 06:46:06.
