data_PCOD8324498
_publ_section_title
;
Structure prediction by ZEFSAII (Michael W. Deem and Ramdas Pophale) SiO2 
 PCOD8324498
Probable space group: P 61
;
_chemical_formula_sum "Si O2"
_cell_formula_units_Z 42
_cell_length_a 14.248776
_cell_length_b 14.248776
_cell_length_c 11.568356
_cell_angle_alpha 90.000000
_cell_angle_beta 90.000000
_cell_angle_gamma 120.000000
_cell_volume 2034.030191
_symmetry_space_group_name_H-M "P 61"
_symmetry_group_IT_number 169
_symmetry_cell_setting 'hexagonal'
loop_
_space_group_symop_operation_xyz
x,y,z
x-y,x,1/6+z
-y,x-y,1/3+z
-x,-y,1/2+z
-x+y,-x,2/3+z
y,-x+y,5/6+z
loop_
_atom_site_type_symbol
_atom_site_label
_atom_site_fract_x
_atom_site_fract_y
_atom_site_fract_z
Si Si1 0.267581 0.878807 0.850160
Si Si2 0.234244 0.405181 0.410678
Si Si3 0.350770 0.278307 0.456640
Si Si4 0.611290 0.200848 0.844745
Si Si5 0.202451 0.104834 0.633363
Si Si6 0.743065 0.372452 0.668190
Si Si7 0.748201 0.627517 0.475407
O O1 0.364531 0.851395 0.855323
O O2 0.204114 0.840690 0.728576
O O3 0.320645 0.005562 0.870314
O O4 0.187968 0.827476 0.957742
O O5 0.319820 0.364437 0.411669
O O6 0.151650 0.363047 0.518567
O O7 0.303641 0.536290 0.406697
O O8 0.463519 0.350718 0.526340
O O9 0.253143 0.200369 0.540514
O O10 0.709312 0.303325 0.783384
O O11 0.601445 0.249222 0.966967
O O12 0.497141 0.156727 0.776688
O O13 0.133093 0.125280 0.731718
O O14 0.305757 0.106187 0.691890
#
# Coordination Sequence:
#
# PCOD8324498 Si02
#       7
#     6   6   6   6   6   6   6
#     4  11  22  40  63  94 131 169 216 269 331 397
#     4  11  22  40  63  94 131 169 216 269 331 397
#     4  11  23  41  66  94 131 169 218 268 333 394
#     4  10  21  38  62  98 128 172 209 260 324 398
#     4  12  25  50  70  98 128 176 233 284 334 390
#     4  10  20  38  62  90 132 168 212 260 324 400
#     4  11  23  41  66  94 131 169 218 268 333 394
#
# _framework density 20.648662999999999
#
# number of rings (size 3 to 8) (size 9 to 14) (size 15 to 20)
#    0.000    1.143    4.286    2.571    0.000    0.000 
#    2.571    0.000    0.000    0.000    0.000    0.000 
#    0.000    0.000    0.000    0.000    0.000    0.000 
#
# Total GULP energy -520708.233400 kJ/mol
# GULP energy per Si atom -12397.815081 kJ/mol
# Density = 2.060167 g / cm^3
# Si number density = 20.648663 Si / 1000 Ang^3
#
#
#
# Elastic Constant Matrix: (Units=GPa)
#
#
# Indices 1 2 3 4 5 6 
#
# 1 92.6386 38.5097 14.9642 0.0000 0.0000 0.0000
# 2 38.5097 92.6386 14.9642 0.0000 0.0000 0.0000
# 3 14.9642 14.9642 65.7216 0.0000 0.0000 0.0000
# 4 0.0000 0.0000 0.0000 32.8526 0.0000 0.0000
# 5 0.0000 0.0000 0.0000 0.0000 32.8526 0.0000
# 6 0.0000 0.0000 0.0000 0.0000 0.0000 27.0644
#
#
#
# Elastic Compliance Matrix: (Units=1/GPa)
#
#
# Indices 1 2 3 4 5 6 
#
# 1 0.013259 -0.005216 -0.001831 0.000000 0.000000 0.000000
# 2 -0.005216 0.013259 -0.001831 0.000000 0.000000 0.000000
# 3 -0.001831 -0.001831 0.016050 0.000000 0.000000 0.000000
# 4 0.000000 0.000000 0.000000 0.030439 0.000000 0.000000
# 5 0.000000 0.000000 0.000000 0.000000 0.030439 0.000000
# 6 0.000000 0.000000 0.000000 0.000000 0.000000 0.036949
#
#
# Mechanical properties :
#
#
# Convention : Reuss Voigt Hill
#
# Bulk Modulus (GPa) = 40.30596 43.09720 41.70158
# Shear Modulus (GPa) = 30.04438 30.72466 30.38452
#
# Velocity S-wave (km/s) = 3.81862 3.86161 3.84018
# Velocity P-wave (km/s) = 6.24538 6.38746 6.31682
#
# Compressibility (1/GPa) = 0.02481023
#
# Stress axis : x y z
#
# Youngs Moduli (GPa) = 75.42249 75.42249 62.30675
#
# Poissons Ratio (x) = 0.39339 0.11410
# Poissons Ratio (y) = 0.39339 0.11410
# Poissons Ratio (z) = 0.13812 0.13812
#
# Static dielectric constant tensor:
#      x y z
#    x 3.811600 0.000000 0.000000 
#    y 0.000000 3.811600 0.000000 
#    z 0.000000 0.000000 3.526080 
# 
# 
# High freq. dielectric constant tensor:
#      x y z
#    x 1.813580 0.000000 0.000000 
#    y 0.000000 1.813580 0.000000 
#    z 0.000000 0.000000 1.798750 
# 
# From -- ./inp_files/923.got.cif
#   From: 2010.03.12/outbox.cif.g09.slc.cpg/sg169_cif.got.tgz:923.got - 2010.04.02 06:46:06.
