data_PCOD8324619
_publ_section_title
;
Structure prediction by ZEFSAII (Michael W. Deem and Ramdas Pophale) SiO2 
 PCOD8324619
Probable space group: P 61
;
_chemical_formula_sum "Si O2"
_cell_formula_units_Z 18
_cell_length_a 4.776953
_cell_length_b 4.776953
_cell_length_c 30.473289
_cell_angle_alpha 90.000000
_cell_angle_beta 90.000000
_cell_angle_gamma 120.000000
_cell_volume 602.215458
_symmetry_space_group_name_H-M "P 61"
_symmetry_group_IT_number 169
_symmetry_cell_setting 'hexagonal'
loop_
_space_group_symop_operation_xyz
x,y,z
x-y,x,1/6+z
-y,x-y,1/3+z
-x,-y,1/2+z
-x+y,-x,2/3+z
y,-x+y,5/6+z
loop_
_atom_site_type_symbol
_atom_site_label
_atom_site_fract_x
_atom_site_fract_y
_atom_site_fract_z
Si Si1 0.020964 0.010482 0.433970
Si Si2 0.154553 0.598376 0.545002
Si Si3 0.598376 0.154553 0.489604
O O1 0.782511 0.633648 0.422967
O O2 0.782511 0.148863 0.444973
O O3 0.250647 0.109868 0.476757
O O4 0.250647 0.140779 0.391183
O O5 0.489825 0.830572 0.519527
O O6 0.830572 0.489824 0.515080
#
# Coordination Sequence:
#
# PCOD8324619 Si02
#       3
#     6   6   6
#     4  12  26  48  76 112 152 200 254 314 380 454
#     4  12  26  47  77 112 154 202 256 316 382 454
#     4  12  26  47  77 112 154 202 256 316 382 454
#
# _framework density 29.88963
#
# number of rings (size 3 to 8) (size 9 to 14) (size 15 to 20)
#    0.000    0.000    0.000   10.000    0.000    5.333 
#    0.000    0.000    0.000    0.000    0.000    0.000 
#    0.000    0.000    0.000    0.000    0.000    0.000 
#
# Total GULP energy -223101.993606 kJ/mol
# GULP energy per Si atom -12394.555200 kJ/mol
# Density = 2.982160 g / cm^3
# Si number density = 29.889630 Si / 1000 Ang^3
#
#
#
# Elastic Constant Matrix: (Units=GPa)
#
#
# Indices 1 2 3 4 5 6 
#
# 1 109.0222 31.6161 -13.9882 0.0000 0.0000 0.0000
# 2 31.6161 109.0222 -13.9882 0.0000 0.0000 0.0000
# 3 -13.9882 -13.9882 52.7240 0.0000 0.0000 0.0000
# 4 0.0000 0.0000 0.0000 16.1631 0.0000 0.0000
# 5 0.0000 0.0000 0.0000 0.0000 16.1631 0.0000
# 6 0.0000 0.0000 0.0000 0.0000 0.0000 38.7031
#
#
#
# Elastic Compliance Matrix: (Units=1/GPa)
#
#
# Indices 1 2 3 4 5 6 
#
# 1 0.010213 -0.002706 0.001992 0.000000 0.000000 0.000000
# 2 -0.002706 0.010213 0.001992 0.000000 0.000000 0.000000
# 3 0.001992 0.001992 0.020023 0.000000 0.000000 0.000000
# 4 0.000000 0.000000 0.000000 0.061869 0.000000 0.000000
# 5 0.000000 0.000000 0.000000 0.000000 0.061869 0.000000
# 6 0.000000 0.000000 0.000000 0.000000 0.000000 0.025838
#
#
# Mechanical properties :
#
#
# Convention : Reuss Voigt Hill
#
# Bulk Modulus (GPa) = 23.25418 30.89420 27.07419
# Shear Modulus (GPa) = 24.77636 32.01445 28.39541
#
# Velocity S-wave (km/s) = 2.88223 3.27630 3.08556
# Velocity P-wave (km/s) = 4.34434 4.96696 4.66605
#
# Compressibility (1/GPa) = 0.04300302
#
# Stress axis : x y z
#
# Youngs Moduli (GPa) = 97.91689 97.91689 49.94138
#
# Poissons Ratio (x) = 0.26498 -0.09946
# Poissons Ratio (y) = 0.26498 -0.09946
# Poissons Ratio (z) = -0.19501 -0.19501
#
# Static dielectric constant tensor:
#      x y z
#    x 5.252140 0.000000 0.000000 
#    y 0.000000 5.252140 0.000000 
#    z 0.000000 0.000000 5.512820 
# 
# 
# High freq. dielectric constant tensor:
#      x y z
#    x 2.220430 0.000000 0.000000 
#    y 0.000000 2.220430 0.000000 
#    z 0.000000 0.000000 2.234550 
# 
# From -- ./inp_files/1693.got.cif
#   From: 2010.03.12/outbox.cif.g09.slc.cpg/sg169_cif.got.tgz:1693.got - 2010.04.02 06:46:06.
