data_PCOD8324612
_publ_section_title
;
Structure prediction by ZEFSAII (Michael W. Deem and Ramdas Pophale) SiO2 
 PCOD8324612
Probable space group: P 61
;
_chemical_formula_sum "Si O2"
_cell_formula_units_Z 48
_cell_length_a 12.739611
_cell_length_b 12.739611
_cell_length_c 15.594406
_cell_angle_alpha 90.000000
_cell_angle_beta 90.000000
_cell_angle_gamma 120.000000
_cell_volume 2191.854911
_symmetry_space_group_name_H-M "P 61"
_symmetry_group_IT_number 169
_symmetry_cell_setting 'hexagonal'
loop_
_space_group_symop_operation_xyz
x,y,z
x-y,x,1/6+z
-y,x-y,1/3+z
-x,-y,1/2+z
-x+y,-x,2/3+z
y,-x+y,5/6+z
loop_
_atom_site_type_symbol
_atom_site_label
_atom_site_fract_x
_atom_site_fract_y
_atom_site_fract_z
Si Si1 0.317718 0.337411 0.411860
Si Si2 0.563306 0.792473 0.445456
Si Si3 0.433098 0.184069 0.399991
Si Si4 0.480874 0.897887 0.049457
Si Si5 0.936315 0.644853 0.775204
Si Si6 0.061899 0.921039 0.013025
Si Si7 0.635839 0.315654 0.680473
Si Si8 0.869990 0.461924 0.486108
O O1 0.425346 0.305996 0.418120
O O2 0.258510 0.338914 0.502740
O O3 0.221673 0.213070 0.365330
O O4 0.360184 0.462971 0.360418
O O5 0.621134 0.782860 0.535250
O O6 0.428267 0.771030 0.455956
O O7 0.559286 0.686093 0.386884
O O8 0.629522 0.926991 0.404482
O O9 0.428996 0.122841 0.489980
O O10 0.564620 0.230839 0.359009
O O11 0.447166 0.809381 0.130987
O O12 0.565210 0.033300 0.080243
O O13 0.364749 0.889073 0.000044
O O14 0.952511 0.752802 0.836074
O O15 0.059317 0.002592 0.093377
O O16 0.592082 0.330386 0.774705
#
# Coordination Sequence:
#
# PCOD8324612 Si02
#       8
#     6   6   6   6   6   6   6   6
#     4  12  24  46  71 103 135 186 234 291 344 423
#     4  12  26  42  70 101 144 180 237 288 357 422
#     4  12  26  42  70 101 144 180 237 288 357 422
#     4  12  26  42  68 103 141 185 225 287 355 426
#     4  12  24  46  71 103 135 186 234 291 344 423
#     4  12  24  44  76 106 132 178 250 304 350 406
#     4  12  24  40  68 102 136 184 224 286 344 430
#     4  12  26  42  68 103 141 185 225 287 355 426
#
# _framework density 21.899259000000001
#
# number of rings (size 3 to 8) (size 9 to 14) (size 15 to 20)
#    0.000    0.000    7.500    3.000    3.500    2.000 
#    0.000    1.250    0.000    0.000    0.000    0.000 
#    0.000    0.000    0.000    0.000    0.000    0.000 
#
# Total GULP energy -594827.260093 kJ/mol
# GULP energy per Si atom -12392.234585 kJ/mol
# Density = 2.184941 g / cm^3
# Si number density = 21.899259 Si / 1000 Ang^3
#
#
#
# Elastic Constant Matrix: (Units=GPa)
#
#
# Indices 1 2 3 4 5 6 
#
# 1 80.1331 30.1099 40.7569 0.0000 0.0000 0.0000
# 2 30.1099 80.1331 40.7569 0.0000 0.0000 0.0000
# 3 40.7569 40.7569 120.5081 0.0000 0.0000 0.0000
# 4 0.0000 0.0000 0.0000 39.8860 0.0000 0.0000
# 5 0.0000 0.0000 0.0000 0.0000 39.8860 0.0000
# 6 0.0000 0.0000 0.0000 0.0000 0.0000 25.0116
#
#
#
# Elastic Compliance Matrix: (Units=1/GPa)
#
#
# Indices 1 2 3 4 5 6 
#
# 1 0.016043 -0.003948 -0.004091 0.000000 0.000000 0.000000
# 2 -0.003948 0.016043 -0.004091 0.000000 0.000000 0.000000
# 3 -0.004091 -0.004091 0.011065 0.000000 0.000000 0.000000
# 4 0.000000 0.000000 0.000000 0.025071 0.000000 0.000000
# 5 0.000000 0.000000 0.000000 0.000000 0.025071 0.000000
# 6 0.000000 0.000000 0.000000 0.000000 0.000000 0.039981
#
#
# Mechanical properties :
#
#
# Convention : Reuss Voigt Hill
#
# Bulk Modulus (GPa) = 52.92911 56.00244 54.46577
# Shear Modulus (GPa) = 30.51901 32.23342 31.37621
#
# Velocity S-wave (km/s) = 3.73716 3.84069 3.78928
# Velocity P-wave (km/s) = 6.54550 6.73024 6.63852
#
# Compressibility (1/GPa) = 0.01889319
#
# Stress axis : x y z
#
# Youngs Moduli (GPa) = 62.33176 62.33176 90.37235
#
# Poissons Ratio (x) = 0.24606 0.36970
# Poissons Ratio (y) = 0.24606 0.36970
# Poissons Ratio (z) = 0.25499 0.25499
#
# Static dielectric constant tensor:
#      x y z
#    x 3.984430 0.000000 0.000000 
#    y 0.000000 3.984430 0.000000 
#    z 0.000000 0.000000 4.142950 
# 
# 
# High freq. dielectric constant tensor:
#      x y z
#    x 1.855840 0.000000 0.000000 
#    y 0.000000 1.855840 0.000000 
#    z 0.000000 0.000000 1.864580 
# 
# From -- ./inp_files/1439.got.cif
#   From: 2010.03.12/outbox.cif.g09.slc.cpg/sg169_cif.got.tgz:1439.got - 2010.04.02 06:46:06.
