data_PCOD8324641
_publ_section_title
;
Structure prediction by ZEFSAII (Michael W. Deem and Ramdas Pophale) SiO2 
 PCOD8324641
Probable space group: P 65
;
_chemical_formula_sum "Si O2"
_cell_formula_units_Z 42
_cell_length_a 14.616154
_cell_length_b 14.616154
_cell_length_c 10.632369
_cell_angle_alpha 90.000000
_cell_angle_beta 90.000000
_cell_angle_gamma 120.000000
_cell_volume 1967.102058
_symmetry_space_group_name_H-M "P 65"
_symmetry_group_IT_number 170
_symmetry_cell_setting 'hexagonal'
loop_
_space_group_symop_operation_xyz
x,y,z
x-y,x,5/6+z
-y,x-y,2/3+z
-x,-y,1/2+z
-x+y,-x,1/3+z
y,-x+y,1/6+z
loop_
_atom_site_type_symbol
_atom_site_label
_atom_site_fract_x
_atom_site_fract_y
_atom_site_fract_z
Si Si1 0.578758 0.208271 0.120230
Si Si2 0.862304 0.042284 0.391921
Si Si3 0.381200 0.573982 0.235680
Si Si4 0.863037 0.579362 0.402365
Si Si5 0.965631 0.498994 0.598833
Si Si6 0.305217 0.908449 0.949478
Si Si7 0.804822 0.890255 0.618644
O O1 0.701431 0.295904 0.135009
O O2 0.533382 0.181738 0.259861
O O3 0.506226 0.245618 0.048086
O O4 0.579650 0.111121 0.051411
O O5 0.795801 0.101966 0.375992
O O6 0.983801 0.122420 0.429751
O O7 0.800782 0.957244 0.501089
O O8 0.400598 0.483280 0.300925
O O9 0.491885 0.685895 0.244038
O O10 0.915596 0.522143 0.477621
O O11 0.916501 0.618481 0.266920
O O12 0.886309 0.684825 0.478687
O O13 0.986598 0.400886 0.570532
O O14 0.884289 0.847053 0.577975
#
# Coordination Sequence:
#
# PCOD8324641 Si02
#       7
#     6   6   6   6   6   6   6
#     4  12  22  45  63  98 132 179 221 275 340 397
#     4  10  19  37  63  97 124 163 219 278 320 384
#     4  10  25  40  63  95 134 174 221 274 335 400
#     4  12  22  38  68  97 129 176 225 272 333 401
#     4  10  25  37  64  94 135 172 218 274 321 404
#     4  10  22  37  60  99 130 170 220 264 330 397
#     4  10  21  36  65 100 126 164 220 275 319 391
#
# _framework density 21.351206000000001
#
# number of rings (size 3 to 8) (size 9 to 14) (size 15 to 20)
#    0.857    0.571    4.286    2.571    2.000    0.000 
#    0.000    0.000    0.000   18.857    0.000    0.000 
#    0.000    0.000    0.000    0.000    0.000    0.000 
#
# Total GULP energy -520380.331195 kJ/mol
# GULP energy per Si atom -12390.007886 kJ/mol
# Density = 2.130261 g / cm^3
# Si number density = 21.351206 Si / 1000 Ang^3
#
#
#
# Elastic Constant Matrix: (Units=GPa)
#
#
# Indices 1 2 3 4 5 6 
#
# 1 125.0860 48.6894 28.2303 0.0000 0.0000 0.0000
# 2 48.6894 125.0860 28.2303 0.0000 0.0000 0.0000
# 3 28.2303 28.2303 34.2991 0.0000 0.0000 0.0000
# 4 0.0000 0.0000 0.0000 29.3638 0.0000 0.0000
# 5 0.0000 0.0000 0.0000 0.0000 29.3638 0.0000
# 6 0.0000 0.0000 0.0000 0.0000 0.0000 38.1983
#
#
#
# Elastic Compliance Matrix: (Units=1/GPa)
#
#
# Indices 1 2 3 4 5 6 
#
# 1 0.010472 -0.002617 -0.006465 0.000000 0.000000 0.000000
# 2 -0.002617 0.010472 -0.006465 0.000000 0.000000 0.000000
# 3 -0.006465 -0.006465 0.039798 0.000000 0.000000 0.000000
# 4 0.000000 0.000000 0.000000 0.034055 0.000000 0.000000
# 5 0.000000 0.000000 0.000000 0.000000 0.034055 0.000000
# 6 0.000000 0.000000 0.000000 0.000000 0.000000 0.026179
#
#
# Mechanical properties :
#
#
# Convention : Reuss Voigt Hill
#
# Bulk Modulus (GPa) = 33.73009 54.97455 44.35232
# Shear Modulus (GPa) = 25.50882 31.33995 28.42438
#
# Velocity S-wave (km/s) = 3.46023 3.83538 3.65263
# Velocity P-wave (km/s) = 5.63882 6.73923 6.21343
#
# Compressibility (1/GPa) = 0.02964712
#
# Stress axis : x y z
#
# Youngs Moduli (GPa) = 95.48938 95.48938 25.12697
#
# Poissons Ratio (x) = 0.24992 0.16245
# Poissons Ratio (y) = 0.24992 0.16245
# Poissons Ratio (z) = 0.61736 0.61736
#
# Static dielectric constant tensor:
#      x y z
#    x 3.917430 0.000000 0.000000 
#    y 0.000000 3.917430 0.000000 
#    z 0.000000 0.000000 3.440600 
# 
# 
# High freq. dielectric constant tensor:
#      x y z
#    x 1.836550 0.000000 0.000000 
#    y 0.000000 1.836550 0.000000 
#    z 0.000000 0.000000 1.799350 
# 
# From -- ./inp_files/963.got.cif
#   From: 2010.03.12/outbox.cif.g09.slc.cpg/sg170_cif.got.tgz:963.got - 2010.04.02 06:47:37.
