data_PCOD8324600
_publ_section_title
;
Structure prediction by ZEFSAII (Michael W. Deem and Ramdas Pophale) SiO2 
 PCOD8324600
Probable space group: P 61
;
_chemical_formula_sum "Si O2"
_cell_formula_units_Z 36
_cell_length_a 14.791946
_cell_length_b 14.791946
_cell_length_c 8.207290
_cell_angle_alpha 90.000000
_cell_angle_beta 90.000000
_cell_angle_gamma 120.000000
_cell_volume 1555.181339
_symmetry_space_group_name_H-M "P 61"
_symmetry_group_IT_number 169
_symmetry_cell_setting 'hexagonal'
loop_
_space_group_symop_operation_xyz
x,y,z
x-y,x,1/6+z
-y,x-y,1/3+z
-x,-y,1/2+z
-x+y,-x,2/3+z
y,-x+y,5/6+z
loop_
_atom_site_type_symbol
_atom_site_label
_atom_site_fract_x
_atom_site_fract_y
_atom_site_fract_z
Si Si1 0.450249 0.232155 0.410170
Si Si2 0.283944 0.880083 0.909590
Si Si3 0.429579 0.521055 0.418780
Si Si4 0.131142 0.576988 0.709800
Si Si5 0.879139 0.775448 0.224331
Si Si6 0.245500 0.348069 0.025601
O O1 0.463847 0.283837 0.235095
O O2 0.476912 0.140979 0.383158
O O3 0.540217 0.323361 0.523946
O O4 0.330988 0.188470 0.468981
O O5 0.357353 0.866216 0.781123
O O6 0.172595 0.839159 0.824918
O O7 0.326889 0.999655 0.955361
O O8 0.398769 0.515438 0.230510
O O9 0.482989 0.452532 0.457835
O O10 0.156292 0.687305 0.623330
O O11 0.845490 0.843817 0.109913
O O12 0.806333 0.736574 0.383177
#
# Coordination Sequence:
#
# PCOD8324600 Si02
#       6
#     6   6   6   6   6   6
#     4  12  27  45  74 107 148 191 247 308 375 450
#     4  11  25  44  70 102 143 190 244 303 375 447
#     4  11  25  45  70 102 144 192 239 295 371 444
#     4  11  24  45  72 104 147 188 243 302 368 452
#     4  12  28  51  77 111 149 200 254 318 385 452
#     4  11  23  46  73 102 141 191 241 304 376 445
#
# _framework density 23.148426000000001
#
# number of rings (size 3 to 8) (size 9 to 14) (size 15 to 20)
#    0.000    0.667    3.333    4.000   11.667    1.333 
#    3.000    0.000    0.000    0.000    0.000    0.000 
#    0.000    0.000    0.000    0.000    0.000    0.000 
#
# Total GULP energy -446206.270946 kJ/mol
# GULP energy per Si atom -12394.618637 kJ/mol
# Density = 2.309574 g / cm^3
# Si number density = 23.148426 Si / 1000 Ang^3
#
#
#
# Elastic Constant Matrix: (Units=GPa)
#
#
# Indices 1 2 3 4 5 6 
#
# 1 98.8508 37.3623 14.8416 0.0000 0.0000 0.0000
# 2 37.3623 98.8508 14.8416 0.0000 0.0000 0.0000
# 3 14.8416 14.8416 58.9740 0.0000 0.0000 0.0000
# 4 0.0000 0.0000 0.0000 30.5437 0.0000 0.0000
# 5 0.0000 0.0000 0.0000 0.0000 30.5437 0.0000
# 6 0.0000 0.0000 0.0000 0.0000 0.0000 30.7443
#
#
#
# Elastic Compliance Matrix: (Units=1/GPa)
#
#
# Indices 1 2 3 4 5 6 
#
# 1 0.012015 -0.004248 -0.001955 0.000000 0.000000 0.000000
# 2 -0.004248 0.012015 -0.001955 0.000000 0.000000 0.000000
# 3 -0.001955 -0.001955 0.017940 0.000000 0.000000 0.000000
# 4 0.000000 0.000000 0.000000 0.032740 0.000000 0.000000
# 5 0.000000 0.000000 0.000000 0.000000 0.032740 0.000000
# 6 0.000000 0.000000 0.000000 0.000000 0.000000 0.032526
#
#
# Mechanical properties :
#
#
# Convention : Reuss Voigt Hill
#
# Bulk Modulus (GPa) = 38.97685 43.41850 41.19768
# Shear Modulus (GPa) = 30.33163 31.00835 30.66999
#
# Velocity S-wave (km/s) = 3.62375 3.66395 3.64390
# Velocity P-wave (km/s) = 5.86371 6.05778 5.96153
#
# Compressibility (1/GPa) = 0.02565625
#
# Stress axis : x y z
#
# Youngs Moduli (GPa) = 83.22719 83.22719 55.73982
#
# Poissons Ratio (x) = 0.35354 0.10896
# Poissons Ratio (y) = 0.35354 0.10896
# Poissons Ratio (z) = 0.16269 0.16269
#
# Static dielectric constant tensor:
#      x y z
#    x 4.240230 0.000000 0.000000 
#    y 0.000000 4.240230 0.000000 
#    z 0.000000 0.000000 4.090920 
# 
# 
# High freq. dielectric constant tensor:
#      x y z
#    x 1.919670 0.000000 0.000000 
#    y 0.000000 1.919670 0.000000 
#    z 0.000000 0.000000 1.913190 
# 
# From -- ./inp_files/628.got.cif
#   From: 2010.03.12/outbox.cif.g09.slc.cpg/sg169_cif.got.tgz:628.got - 2010.04.02 06:46:06.
