data_PCOD8324677
_publ_section_title
;
Structure prediction by ZEFSAII (Michael W. Deem and Ramdas Pophale) SiO2 
 PCOD8324677
Probable space group: P 65
;
_chemical_formula_sum "Si O2"
_cell_formula_units_Z 42
_cell_length_a 8.784605
_cell_length_b 8.784605
_cell_length_c 28.677383
_cell_angle_alpha 90.000000
_cell_angle_beta 90.000000
_cell_angle_gamma 120.000000
_cell_volume 1916.525600
_symmetry_space_group_name_H-M "P 65"
_symmetry_group_IT_number 170
_symmetry_cell_setting 'hexagonal'
loop_
_space_group_symop_operation_xyz
x,y,z
x-y,x,5/6+z
-y,x-y,2/3+z
-x,-y,1/2+z
-x+y,-x,1/3+z
y,-x+y,1/6+z
loop_
_atom_site_type_symbol
_atom_site_label
_atom_site_fract_x
_atom_site_fract_y
_atom_site_fract_z
Si Si1 0.865393 0.199317 0.606190
Si Si2 0.090246 0.006824 0.023207
Si Si3 0.419705 0.631112 0.976737
Si Si4 0.237456 0.874328 0.366204
Si Si5 0.848877 0.456834 0.062901
Si Si6 0.294483 0.604529 0.410182
Si Si7 0.349878 0.133512 0.651012
O O1 0.889886 0.152812 0.658384
O O2 0.683660 0.200090 0.601793
O O3 0.024545 0.392276 0.597608
O O4 0.864700 0.063146 0.569115
O O5 0.043547 0.154760 0.039364
O O6 0.934341 0.850907 0.993205
O O7 0.395330 0.701675 0.927831
O O8 0.245217 0.438186 0.985427
O O9 0.438385 0.750686 0.022436
O O10 0.599504 0.631558 0.972289
O O11 0.223328 0.745018 0.409445
O O12 0.433514 0.041478 0.364956
O O13 0.754871 0.527668 0.028612
O O14 0.163370 0.427885 0.439185
#
# Coordination Sequence:
#
# PCOD8324677 Si02
#       7
#     6   6   6   6   6   6   6
#     4  10  22  42  67  95 133 179 227 279 341 407
#     4  11  24  41  71 101 134 175 236 288 340 403
#     4  10  23  45  67  97 141 179 230 279 347 414
#     4   9  23  45  64 100 132 177 229 274 346 408
#     4  10  23  44  70  97 135 182 224 284 343 409
#     4   9  22  45  63  98 136 180 227 273 350 410
#     4  11  25  42  68 104 135 182 229 287 347 407
#
# _framework density 21.914659
#
# number of rings (size 3 to 8) (size 9 to 14) (size 15 to 20)
#    0.857    1.143    0.000    1.714    8.000    1.143 
#   18.000    0.000    0.000    0.000    0.000    0.000 
#    0.000    0.000    0.000    0.000    0.000    0.000 
#
# Total GULP energy -520496.244001 kJ/mol
# GULP energy per Si atom -12392.767714 kJ/mol
# Density = 2.186478 g / cm^3
# Si number density = 21.914659 Si / 1000 Ang^3
#
#
#
# Elastic Constant Matrix: (Units=GPa)
#
#
# Indices 1 2 3 4 5 6 
#
# 1 98.4456 46.4667 22.9599 0.0000 0.0000 0.0000
# 2 46.4667 98.4456 22.9599 0.0000 0.0000 0.0000
# 3 22.9599 22.9599 53.9313 0.0000 0.0000 0.0000
# 4 0.0000 0.0000 0.0000 35.8036 0.0000 0.0000
# 5 0.0000 0.0000 0.0000 0.0000 35.8036 0.0000
# 6 0.0000 0.0000 0.0000 0.0000 0.0000 25.9895
#
#
#
# Elastic Compliance Matrix: (Units=1/GPa)
#
#
# Indices 1 2 3 4 5 6 
#
# 1 0.013608 -0.005631 -0.003396 0.000000 0.000000 0.000000
# 2 -0.005631 0.013608 -0.003396 0.000000 0.000000 0.000000
# 3 -0.003396 -0.003396 0.021434 0.000000 0.000000 0.000000
# 4 0.000000 0.000000 0.000000 0.027930 0.000000 0.000000
# 5 0.000000 0.000000 0.000000 0.000000 0.027930 0.000000
# 6 0.000000 0.000000 0.000000 0.000000 0.000000 0.038477
#
#
# Mechanical properties :
#
#
# Convention : Reuss Voigt Hill
#
# Bulk Modulus (GPa) = 42.01062 48.39949 45.20505
# Shear Modulus (GPa) = 28.44685 30.08173 29.26429
#
# Velocity S-wave (km/s) = 3.60679 3.70898 3.65824
# Velocity P-wave (km/s) = 6.04623 6.36203 6.20614
#
# Compressibility (1/GPa) = 0.02380351
#
# Stress axis : x y z
#
# Youngs Moduli (GPa) = 73.48784 73.48784 46.65580
#
# Poissons Ratio (x) = 0.41380 0.15844
# Poissons Ratio (y) = 0.41380 0.15844
# Poissons Ratio (z) = 0.24956 0.24956
#
# Static dielectric constant tensor:
#      x y z
#    x 3.901930 0.000000 0.000000 
#    y 0.000000 3.901930 0.000000 
#    z 0.000000 0.000000 3.761580 
# 
# 
# High freq. dielectric constant tensor:
#      x y z
#    x 1.859650 0.000000 0.000000 
#    y 0.000000 1.859650 0.000000 
#    z 0.000000 0.000000 1.853640 
# 
# From -- ./inp_files/1944.got.cif
#   From: 2010.03.12/outbox.cif.g09.slc.cpg/sg170_cif.got.tgz:1944.got - 2010.04.02 06:47:37.
