data_PCOD8324522
_publ_section_title
;
Structure prediction by ZEFSAII (Michael W. Deem and Ramdas Pophale) SiO2 
 PCOD8324522
Probable space group: P 61
;
_chemical_formula_sum "Si O2"
_cell_formula_units_Z 48
_cell_length_a 18.909551
_cell_length_b 18.909551
_cell_length_c 8.088561
_cell_angle_alpha 90.000000
_cell_angle_beta 90.000000
_cell_angle_gamma 120.000000
_cell_volume 2504.749684
_symmetry_space_group_name_H-M "P 61"
_symmetry_group_IT_number 169
_symmetry_cell_setting 'hexagonal'
loop_
_space_group_symop_operation_xyz
x,y,z
x-y,x,1/6+z
-y,x-y,1/3+z
-x,-y,1/2+z
-x+y,-x,2/3+z
y,-x+y,5/6+z
loop_
_atom_site_type_symbol
_atom_site_label
_atom_site_fract_x
_atom_site_fract_y
_atom_site_fract_z
Si Si1 0.296932 0.032273 0.437980
Si Si2 0.408660 0.114970 0.147454
Si Si3 0.430985 0.034637 0.634923
Si Si4 0.277461 0.641311 0.623610
Si Si5 0.189581 0.468339 0.484165
Si Si6 0.185303 0.736364 0.640159
Si Si7 0.334713 0.192957 0.576875
Si Si8 0.030351 0.448966 0.331217
O O1 0.326930 0.073330 0.257486
O O2 0.354481 0.998486 0.510886
O O3 0.291127 0.095003 0.562473
O O4 0.209701 0.950164 0.429627
O O5 0.474653 0.203005 0.231651
O O6 0.433820 0.045417 0.117830
O O7 0.393981 0.137830 0.964785
O O8 0.453538 0.127119 0.667901
O O9 0.503028 0.038615 0.527621
O O10 0.413177 0.986152 0.805480
O O11 0.337581 0.653194 0.773748
O O12 0.211785 0.544885 0.606245
O O13 0.244972 0.701433 0.683113
O O14 0.145731 0.383911 0.581117
O O15 0.118359 0.456630 0.359022
O O16 0.226690 0.826315 0.560791
#
# Coordination Sequence:
#
# PCOD8324522 Si02
#       8
#     6   6   6   6   6   6   6   6
#     4  10  21  40  60  92 115 155 190 252 303 369
#     4  10  22  36  58  84 111 148 203 245 314 371
#     4  10  22  35  58  82 112 151 206 245 297 356
#     4  12  24  39  56  81 120 168 217 262 318 361
#     4  11  22  38  56  80 116 153 195 264 303 366
#     4  10  21  40  55  84 118 155 203 257 297 370
#     4  10  21  39  63  83 125 150 195 248 309 366
#     4  11  21  37  58  82 111 158 201 255 311 361
#
# _framework density 19.163592999999999
#
# number of rings (size 3 to 8) (size 9 to 14) (size 15 to 20)
#    0.000    1.500    3.750    1.500    1.750    1.000 
#    2.250    0.000    0.000    0.000    0.000    1.750 
#    0.000    0.000    0.000    0.000    0.000    0.000 
#
# Total GULP energy -594638.245723 kJ/mol
# GULP energy per Si atom -12388.296786 kJ/mol
# Density = 1.911998 g / cm^3
# Si number density = 19.163593 Si / 1000 Ang^3
#
#
#
# Elastic Constant Matrix: (Units=GPa)
#
#
# Indices 1 2 3 4 5 6 
#
# 1 90.8261 48.2687 27.2151 0.0000 0.0000 0.0000
# 2 48.2687 90.8261 27.2151 0.0000 0.0000 0.0000
# 3 27.2151 27.2151 80.1350 0.0000 0.0000 0.0000
# 4 0.0000 0.0000 0.0000 21.3762 0.0000 0.0000
# 5 0.0000 0.0000 0.0000 0.0000 21.3762 0.0000
# 6 0.0000 0.0000 0.0000 0.0000 0.0000 21.2787
#
#
#
# Elastic Compliance Matrix: (Units=1/GPa)
#
#
# Indices 1 2 3 4 5 6 
#
# 1 0.015894 -0.007603 -0.002816 0.000000 0.000000 0.000000
# 2 -0.007603 0.015894 -0.002816 0.000000 0.000000 0.000000
# 3 -0.002816 -0.002816 0.014392 0.000000 0.000000 0.000000
# 4 0.000000 0.000000 0.000000 0.046781 0.000000 0.000000
# 5 0.000000 0.000000 0.000000 0.000000 0.046781 0.000000
# 6 0.000000 0.000000 0.000000 0.000000 0.000000 0.046995
#
#
# Mechanical properties :
#
#
# Convention : Reuss Voigt Hill
#
# Bulk Modulus (GPa) = 50.73395 51.90946 51.32171
# Shear Modulus (GPa) = 22.75026 23.41212 23.08119
#
# Velocity S-wave (km/s) = 3.44926 3.49907 3.47425
# Velocity P-wave (km/s) = 6.51113 6.59325 6.55232
#
# Compressibility (1/GPa) = 0.01971067
#
# Stress axis : x y z
#
# Youngs Moduli (GPa) = 62.91504 62.91504 69.48527
#
# Poissons Ratio (x) = 0.47836 0.19566
# Poissons Ratio (y) = 0.47836 0.19566
# Poissons Ratio (z) = 0.17716 0.17716
#
# Static dielectric constant tensor:
#      x y z
#    x 3.511810 0.000000 0.000000 
#    y 0.000000 3.511810 0.000000 
#    z 0.000000 0.000000 3.617310 
# 
# 
# High freq. dielectric constant tensor:
#      x y z
#    x 1.726530 0.000000 0.000000 
#    y 0.000000 1.726530 0.000000 
#    z 0.000000 0.000000 1.757670 
# 
# From -- ./inp_files/759.got.cif
#   From: 2010.03.12/outbox.cif.g09.slc.cpg/sg169_cif.got.tgz:759.got - 2010.04.02 06:46:06.
