data_PCOD8324854
_publ_section_title
;
Structure prediction by ZEFSAII (Michael W. Deem and Ramdas Pophale) SiO2 
 PCOD8324854
Probable space group: P 63
;
_chemical_formula_sum "Si O2"
_cell_formula_units_Z 30
_cell_length_a 8.880190
_cell_length_b 8.880190
_cell_length_c 23.847850
_cell_angle_alpha 90.000000
_cell_angle_beta 90.000000
_cell_angle_gamma 120.000000
_cell_volume 1628.637308
_symmetry_space_group_name_H-M "P 63"
_symmetry_group_IT_number 173
_symmetry_cell_setting 'hexagonal'
loop_
_space_group_symop_operation_xyz
x,y,z
x-y,x,1/2+z
-y,x-y,z
-x,-y,1/2+z
-x+y,-x,z
y,-x+y,1/2+z
loop_
_atom_site_type_symbol
_atom_site_label
_atom_site_fract_x
_atom_site_fract_y
_atom_site_fract_z
Si Si1 0.324868 0.470365 0.701060
Si Si2 0.308277 0.461909 0.825231
Si Si3 0.662271 0.996712 0.585185
Si Si4 0.331902 0.007869 0.542000
Si Si5 0.181108 0.205076 0.923440
O O1 0.500077 0.659216 0.694616
O O2 0.310504 0.388997 0.762878
O O3 0.329495 0.349642 0.652488
O O4 0.491087 0.644322 0.832659
O O5 0.282620 0.314506 0.868847
O O6 0.667040 0.836551 0.557911
O O7 0.504397 0.002707 0.555507
O O8 0.838945 0.173080 0.576913
O O9 0.324563 0.042129 0.476171
O O10 0.180656 0.021507 0.923939
#
# Coordination Sequence:
#
# PCOD8324854 Si02
#       5
#     6   6   6   6   6
#     4   8  15  36  60  84 116 153 199 249 298 365
#     4   8  18  34  62  83 106 160 207 236 295 364
#     4  12  22  41  61  89 123 162 207 254 321 359
#     4  12  24  39  61  90 121 167 201 259 311 378
#     4  10  21  38  52  84 130 148 198 254 299 358
#
# _framework density 18.420307999999999
#
# number of rings (size 3 to 8) (size 9 to 14) (size 15 to 20)
#    1.200    0.800    4.000    1.200    2.800    0.000 
#    3.600    0.000    0.000    0.800    0.000    0.000 
#    0.000    0.000    0.000    0.000    0.000    0.000 
#
# Total GULP energy -371702.671777 kJ/mol
# GULP energy per Si atom -12390.089059 kJ/mol
# Density = 1.837838 g / cm^3
# Si number density = 18.420308 Si / 1000 Ang^3
#
#
#
# Elastic Constant Matrix: (Units=GPa)
#
#
# Indices 1 2 3 4 5 6 
#
# 1 99.8249 50.3597 58.0319 0.0000 0.0000 0.0000
# 2 50.3597 99.8249 58.0319 0.0000 0.0000 0.0000
# 3 58.0319 58.0319 189.3538 0.0000 0.0000 0.0000
# 4 0.0000 0.0000 0.0000 30.5677 0.0000 0.0000
# 5 0.0000 0.0000 0.0000 0.0000 30.5677 0.0000
# 6 0.0000 0.0000 0.0000 0.0000 0.0000 24.7326
#
#
#
# Elastic Compliance Matrix: (Units=1/GPa)
#
#
# Indices 1 2 3 4 5 6 
#
# 1 0.014471 -0.005746 -0.002674 0.000000 0.000000 0.000000
# 2 -0.005746 0.014471 -0.002674 0.000000 0.000000 0.000000
# 3 -0.002674 -0.002674 0.006920 0.000000 0.000000 0.000000
# 4 0.000000 0.000000 0.000000 0.032714 0.000000 0.000000
# 5 0.000000 0.000000 0.000000 0.000000 0.032714 0.000000
# 6 0.000000 0.000000 0.000000 0.000000 0.000000 0.040432
#
#
# Mechanical properties :
#
#
# Convention : Reuss Voigt Hill
#
# Bulk Modulus (GPa) = 73.13077 80.20562 76.66819
# Shear Modulus (GPa) = 29.67936 32.01231 30.84583
#
# Velocity S-wave (km/s) = 4.01837 4.17331 4.09657
# Velocity P-wave (km/s) = 7.83052 8.17671 8.00549
#
# Compressibility (1/GPa) = 0.01367414
#
# Stress axis : x y z
#
# Youngs Moduli (GPa) = 69.10580 69.10580 144.50641
#
# Poissons Ratio (x) = 0.39706 0.38640
# Poissons Ratio (y) = 0.39706 0.38640
# Poissons Ratio (z) = 0.18479 0.18479
#
# Static dielectric constant tensor:
#      x y z
#    x 3.279220 0.000000 0.000000 
#    y 0.000000 3.279220 0.000000 
#    z 0.000000 0.000000 3.451450 
# 
# 
# High freq. dielectric constant tensor:
#      x y z
#    x 1.692460 0.000000 0.000000 
#    y 0.000000 1.692460 0.000000 
#    z 0.000000 0.000000 1.730400 
# 
# From -- ./inp_files/1428.got.cif
#   From: 2010.03.12/outbox.cif.g09.slc.cpg/sg173_cif.got.tgz:1428.got - 2010.04.02 06:54:12.
