data_PCOD8324127
_publ_section_title
;
Structure prediction by ZEFSAII (Michael W. Deem and Ramdas Pophale) SiO2 
 PCOD8324127
Probable space group: R -3 M
;
_chemical_formula_sum "Si O2"
_cell_formula_units_Z 126
_cell_length_a 28.112320
_cell_length_b 28.112320
_cell_length_c 9.671947
_cell_angle_alpha 90.000000
_cell_angle_beta 90.000000
_cell_angle_gamma 120.000000
_cell_volume 6619.694012
_symmetry_space_group_name_H-M "R -3 M"
_symmetry_group_IT_number 166
_symmetry_cell_setting 'hexagonal'
loop_
_space_group_symop_operation_xyz
x,y,z
-y,x-y,z
-x+y,-x,z
x-y,-y,-z
-x,-x+y,-z
y,x,-z
-x,-y,-z
y,-x+y,-z
x-y,x,-z
-x+y,y,z
x,x-y,z
-y,-x,z
2/3+x,1/3+y,1/3+z
2/3-y,1/3+x-y,1/3+z
2/3-x+y,1/3-x,1/3+z
2/3+x-y,1/3-y,1/3-z
2/3-x,1/3-x+y,1/3-z
2/3+y,1/3+x,1/3-z
2/3-x,1/3-y,1/3-z
2/3+y,1/3-x+y,1/3-z
2/3+x-y,1/3+x,1/3-z
2/3-x+y,1/3+y,1/3+z
2/3+x,1/3+x-y,1/3+z
2/3-y,1/3-x,1/3+z
1/3+x,2/3+y,2/3+z
1/3-y,2/3+x-y,2/3+z
1/3-x+y,2/3-x,2/3+z
1/3+x-y,2/3-y,2/3-z
1/3-x,2/3-x+y,2/3-z
1/3+y,2/3+x,2/3-z
1/3-x,2/3-y,2/3-z
1/3+y,2/3-x+y,2/3-z
1/3+x-y,2/3+x,2/3-z
1/3-x+y,2/3+y,2/3+z
1/3+x,2/3+x-y,2/3+z
1/3-y,2/3-x,2/3+z
loop_
_atom_site_type_symbol
_atom_site_label
_atom_site_fract_x
_atom_site_fract_y
_atom_site_fract_z
Si Si1 0.888606 0.111395 0.725577
Si Si2 0.299168 0.406389 0.540009
Si Si3 0.426358 0.051696 0.708903
Si Si4 0.730219 0.269782 0.806417
Si Si5 0.786306 0.572612 0.911477
O O1 0.834502 0.072325 0.813011
O O2 0.920991 0.079009 0.678293
O O3 0.870575 0.129426 0.583995
O O4 0.333334 0.446293 0.666667
O O5 0.338365 0.401966 0.426807
O O6 0.265639 0.345512 0.599247
O O7 0.418081 0.084747 0.833334
O O8 0.489957 0.073507 0.679052
O O9 0.756522 0.333334 0.833334
O O10 0.753422 0.246579 0.924289
#
# Coordination Sequence:
#
# PCOD8324127 Si02
#       5
#    18  36  36  18  18
#     4  10  23  42  62  90 127 166 209 251 315 378
#     4  12  25  40  60  91 128 167 211 260 316 372
#     4  12  22  38  62  89 122 164 211 264 308 362
#     4  10  19  36  63  99 124 147 199 266 316 364
#     4  10  21  38  62  89 120 160 211 253 309 374
#
# _framework density 19.034112
#
# number of rings (size 3 to 8) (size 9 to 14) (size 15 to 20)
#    0.857    0.000    2.857    7.000    0.000    2.286 
#    0.000    4.286    0.000    0.000    0.000    1.000 
#    0.000    0.000    0.000    0.000    0.000    0.000 
#
# Total GULP energy -520633.688526 kJ/mol
# GULP energy per Si atom -12396.040203 kJ/mol
# Density = 1.899079 g / cm^3
# Si number density = 19.034112 Si / 1000 Ang^3
#
#
#
# Elastic Constant Matrix: (Units=GPa)
#
#
# Indices 1 2 3 4 5 6 
#
# 1 134.3801 86.5624 37.4406 -20.3102 -0.0905 -0.0540
# 2 86.5624 134.3934 37.4746 20.3004 0.0288 0.0287
# 3 37.4406 37.4746 75.9078 -0.0098 -0.0890 -0.0183
# 4 -20.3102 20.3004 -0.0098 29.8655 0.0246 -0.0206
# 5 -0.0905 0.0288 -0.0890 0.0246 29.7623 -20.3192
# 6 -0.0540 0.0287 -0.0183 -0.0206 -20.3192 23.9069
#
#
#
# Elastic Compliance Matrix: (Units=1/GPa)
#
#
# Indices 1 2 3 4 5 6 
#
# 1 0.027453 -0.022020 -0.002665 0.033636 0.000352 0.000414
# 2 -0.022020 0.027458 -0.002699 -0.033640 -0.000361 -0.000420
# 3 -0.002665 -0.002699 0.015821 0.000028 0.000115 0.000107
# 4 0.033636 -0.033640 0.000028 0.079224 0.000465 0.000580
# 5 0.000352 -0.000361 0.000115 0.000465 0.080055 0.068043
# 6 0.000414 -0.000420 0.000107 0.000580 0.068043 0.099663
#
#
# Mechanical properties :
#
#
# Convention : Reuss Voigt Hill
#
# Bulk Modulus (GPa) = 62.64395 74.18183 68.41289
# Shear Modulus (GPa) = 12.82825 28.92052 20.87438
#
# Velocity S-wave (km/s) = 2.59889 3.90218 3.31521
# Velocity P-wave (km/s) = 6.47985 7.70457 7.11860
#
# Compressibility (1/GPa) = 0.01596323
#
# Stress axis : x y z
#
# Youngs Moduli (GPa) = 36.42622 36.41896 63.20666
#
# Poissons Ratio (x) = 0.80195 0.16844
# Poissons Ratio (y) = 0.80211 0.17062
# Poissons Ratio (z) = 0.09707 0.09831
#
# Static dielectric constant tensor:
#      x y z
#    x 3.516410 -0.000060 -0.000100 
#    y -0.000060 3.516320 -0.000010 
#    z -0.000100 -0.000010 3.504810 
# 
# 
# High freq. dielectric constant tensor:
#      x y z
#    x 1.747300 0.000000 -0.000010 
#    y 0.000000 1.747300 0.000000 
#    z -0.000010 0.000000 1.724590 
# 
# From -- ./inp_files/1681.got.cif
#   From: 2010.03.12/outbox.cif.g09.slc.cpg/sg166_1_cif.got.tgz:1681.got - 2010.04.02 06:38:31.
