data_PCOD8324204
_publ_section_title
;
Structure prediction by ZEFSAII (Michael W. Deem and Ramdas Pophale) SiO2 
 PCOD8324204
Probable space group: R -3 M
;
_chemical_formula_sum "Si O2"
_cell_formula_units_Z 162
_cell_length_a 20.853066
_cell_length_b 20.853066
_cell_length_c 22.519519
_cell_angle_alpha 90.000000
_cell_angle_beta 90.000000
_cell_angle_gamma 120.000000
_cell_volume 8480.658538
_symmetry_space_group_name_H-M "R -3 M"
_symmetry_group_IT_number 166
_symmetry_cell_setting 'hexagonal'
loop_
_space_group_symop_operation_xyz
x,y,z
-y,x-y,z
-x+y,-x,z
x-y,-y,-z
-x,-x+y,-z
y,x,-z
-x,-y,-z
y,-x+y,-z
x-y,x,-z
-x+y,y,z
x,x-y,z
-y,-x,z
2/3+x,1/3+y,1/3+z
2/3-y,1/3+x-y,1/3+z
2/3-x+y,1/3-x,1/3+z
2/3+x-y,1/3-y,1/3-z
2/3-x,1/3-x+y,1/3-z
2/3+y,1/3+x,1/3-z
2/3-x,1/3-y,1/3-z
2/3+y,1/3-x+y,1/3-z
2/3+x-y,1/3+x,1/3-z
2/3-x+y,1/3+y,1/3+z
2/3+x,1/3+x-y,1/3+z
2/3-y,1/3-x,1/3+z
1/3+x,2/3+y,2/3+z
1/3-y,2/3+x-y,2/3+z
1/3-x+y,2/3-x,2/3+z
1/3+x-y,2/3-y,2/3-z
1/3-x,2/3-x+y,2/3-z
1/3+y,2/3+x,2/3-z
1/3-x,2/3-y,2/3-z
1/3+y,2/3-x+y,2/3-z
1/3+x-y,2/3+x,2/3-z
1/3-x+y,2/3+y,2/3+z
1/3+x,2/3+x-y,2/3+z
1/3-y,2/3-x,2/3+z
loop_
_atom_site_type_symbol
_atom_site_label
_atom_site_fract_x
_atom_site_fract_y
_atom_site_fract_z
Si Si1 0.664893 0.080483 0.599728
Si Si2 0.465398 0.078494 0.389050
Si Si3 0.515988 0.332857 0.168249
Si Si4 0.815898 0.333334 0.833334
Si Si5 0.203507 0.946329 0.393795
O O1 0.666107 0.143946 0.559681
O O2 0.732784 0.068540 0.581928
O O3 0.671203 0.104977 0.668040
O O4 0.587648 0.005451 0.590185
O O5 0.545204 0.090408 0.371188
O O6 0.430334 0.097001 0.333334
O O7 0.471709 0.130407 0.443610
O O8 0.534242 0.267121 0.167174
O O9 0.591466 0.408535 0.176183
O O10 0.806242 0.403121 0.823164
O O11 0.856395 0.326340 0.775902
O O12 0.131343 0.868658 0.379565
#
# Coordination Sequence:
#
# PCOD8324204 Si02
#       5
#    36  36  36  18  36
#     4  11  21  39  60  91 120 155 194 247 304 351
#     4  11  23  40  61  89 122 156 199 246 299 355
#     4  11  24  41  62  87 119 159 202 246 296 355
#     4  10  23  40  60  88 123 164 204 242 288 346
#     4  10  21  38  59  88 124 159 197 240 293 352
#
# _framework density 19.10229
#
# number of rings (size 3 to 8) (size 9 to 14) (size 15 to 20)
#    0.000    1.333    2.222    5.000    3.111    3.556 
#    0.000    0.000    0.000    6.222    0.000    0.000 
#    0.000    0.000    0.000    0.000    0.000    0.000 
#
# Total GULP energy -669933.675795 kJ/mol
# GULP energy per Si atom -12406.179181 kJ/mol
# Density = 1.905881 g / cm^3
# Si number density = 19.102290 Si / 1000 Ang^3
#
#
#
# Elastic Constant Matrix: (Units=GPa)
#
#
# Indices 1 2 3 4 5 6 
#
# 1 94.3120 60.5240 58.3332 1.9656 0.0015 0.0000
# 2 60.5240 94.3120 58.3332 -1.9656 -0.0015 0.0000
# 3 58.3332 58.3332 88.6579 0.0000 0.0000 0.0000
# 4 1.9656 -1.9656 0.0000 32.7739 0.0000 -0.0015
# 5 0.0015 -0.0015 0.0000 0.0000 32.7739 1.9656
# 6 0.0000 0.0000 0.0000 -0.0015 1.9656 16.8940
#
#
#
# Elastic Compliance Matrix: (Units=1/GPa)
#
#
# Indices 1 2 3 4 5 6 
#
# 1 0.021306 -0.008498 -0.008427 -0.001787 -0.000001 0.000000
# 2 -0.008498 0.021306 -0.008427 0.001787 0.000001 0.000000
# 3 -0.008427 -0.008427 0.022369 0.000000 0.000000 0.000000
# 4 -0.001787 0.001787 0.000000 0.030727 0.000000 0.000003
# 5 -0.000001 0.000001 0.000000 0.000000 0.030727 -0.003575
# 6 0.000000 0.000000 0.000000 0.000003 -0.003575 0.059608
#
#
# Mechanical properties :
#
#
# Convention : Reuss Voigt Hill
#
# Bulk Modulus (GPa) = 70.04634 70.18473 70.11553
# Shear Modulus (GPa) = 20.70334 23.16112 21.93223
#
# Velocity S-wave (km/s) = 3.29571 3.48584 3.39211
# Velocity P-wave (km/s) = 7.15758 7.28167 7.21989
#
# Compressibility (1/GPa) = 0.01427626
#
# Stress axis : x y z
#
# Youngs Moduli (GPa) = 46.93455 46.93455 44.70484
#
# Poissons Ratio (x) = 0.39885 0.37674
# Poissons Ratio (y) = 0.39885 0.37674
# Poissons Ratio (z) = 0.39553 0.39553
#
# Static dielectric constant tensor:
#      x y z
#    x 3.568550 0.000000 0.000000 
#    y 0.000000 3.568550 0.000000 
#    z 0.000000 0.000000 3.458590 
# 
# 
# High freq. dielectric constant tensor:
#      x y z
#    x 1.753380 0.000000 0.000000 
#    y 0.000000 1.753380 0.000000 
#    z 0.000000 0.000000 1.751420 
# 
# From -- ./inp_files/6816.got.cif
#   From: 2010.03.12/outbox.cif.g09.slc.cpg/sg166_4_cif.got.tgz:6816.got - 2010.04.02 06:38:31.
