data_PCOD8324100
_publ_section_title
;
Structure prediction by ZEFSAII (Michael W. Deem and Ramdas Pophale) SiO2 
 PCOD8324100
Probable space group: R -3 M
;
_chemical_formula_sum "Si O2"
_cell_formula_units_Z 252
_cell_length_a 29.284543
_cell_length_b 29.284543
_cell_length_c 18.405599
_cell_angle_alpha 90.000000
_cell_angle_beta 90.000000
_cell_angle_gamma 120.000000
_cell_volume 13669.652980
_symmetry_space_group_name_H-M "R -3 M"
_symmetry_group_IT_number 166
_symmetry_cell_setting 'hexagonal'
loop_
_space_group_symop_operation_xyz
x,y,z
-y,x-y,z
-x+y,-x,z
x-y,-y,-z
-x,-x+y,-z
y,x,-z
-x,-y,-z
y,-x+y,-z
x-y,x,-z
-x+y,y,z
x,x-y,z
-y,-x,z
2/3+x,1/3+y,1/3+z
2/3-y,1/3+x-y,1/3+z
2/3-x+y,1/3-x,1/3+z
2/3+x-y,1/3-y,1/3-z
2/3-x,1/3-x+y,1/3-z
2/3+y,1/3+x,1/3-z
2/3-x,1/3-y,1/3-z
2/3+y,1/3-x+y,1/3-z
2/3+x-y,1/3+x,1/3-z
2/3-x+y,1/3+y,1/3+z
2/3+x,1/3+x-y,1/3+z
2/3-y,1/3-x,1/3+z
1/3+x,2/3+y,2/3+z
1/3-y,2/3+x-y,2/3+z
1/3-x+y,2/3-x,2/3+z
1/3+x-y,2/3-y,2/3-z
1/3-x,2/3-x+y,2/3-z
1/3+y,2/3+x,2/3-z
1/3-x,2/3-y,2/3-z
1/3+y,2/3-x+y,2/3-z
1/3+x-y,2/3+x,2/3-z
1/3-x+y,2/3+y,2/3+z
1/3+x,2/3+x-y,2/3+z
1/3-y,2/3-x,2/3+z
loop_
_atom_site_type_symbol
_atom_site_label
_atom_site_fract_x
_atom_site_fract_y
_atom_site_fract_z
Si Si1 0.032026 0.865835 0.816129
Si Si2 0.382338 0.080397 0.404252
Si Si3 0.518275 0.809692 0.110136
Si Si4 0.720952 0.773542 0.808079
Si Si5 0.293633 0.809411 0.606966
Si Si6 0.437217 0.769284 0.989880
Si Si7 0.621644 0.756425 0.018025
O O1 0.075638 0.924363 0.839627
O O2 0.057110 0.828520 0.830449
O O3 0.979678 0.846542 0.863175
O O4 0.014668 0.863610 0.733191
O O5 0.379127 0.045794 0.333334
O O6 0.392797 0.058043 0.481011
O O7 0.428662 0.138688 0.391184
O O8 0.330087 0.086068 0.405578
O O9 0.523386 0.761693 0.146311
O O10 0.517678 0.851011 0.166667
O O11 0.565731 0.841182 0.055777
O O12 0.462457 0.784848 0.069032
O O13 0.666667 0.770457 0.833334
O O14 0.716564 0.772005 0.720661
O O15 0.236547 0.763454 0.626193
O O16 0.333334 0.810098 0.666667
O O17 0.391721 0.783441 0.980780
O O18 0.413877 0.706938 0.976504
O O19 0.634712 0.817356 0.002906
#
# Coordination Sequence:
#
# PCOD8324100 Si02
#       7
#    36  36  36  36  36  36  36
#     4  10  20  34  52  78 110 144 185 231 279 336
#     4  10  21  37  53  84 117 146 185 233 293 346
#     4  10  21  38  60  86 114 147 189 231 284 340
#     4  11  21  36  58  85 117 149 191 234 292 343
#     4  10  20  34  51  74 104 146 190 231 280 333
#     4  10  19  33  54  81 112 144 181 229 281 337
#     4  11  22  39  61  87 117 152 196 241 289 348
#
# _framework density 18.434996000000002
#
# number of rings (size 3 to 8) (size 9 to 14) (size 15 to 20)
#    0.000    1.714    2.857    2.286    0.000    1.714 
#    0.000    0.000    0.000    5.714    0.000    2.000 
#    0.000    0.000    0.000    0.000    0.000    0.000 
#
# Total GULP energy -1040675.338632 kJ/mol
# GULP energy per Si atom -12388.992127 kJ/mol
# Density = 1.839304 g / cm^3
# Si number density = 18.434996 Si / 1000 Ang^3
#
#
#
# Elastic Constant Matrix: (Units=GPa)
#
#
# Indices 1 2 3 4 5 6 
#
# 1 86.5299 40.3254 31.8567 2.4701 0.0003 0.0000
# 2 40.3254 86.5299 31.8567 -2.4701 -0.0003 0.0000
# 3 31.8567 31.8567 81.4537 0.0000 0.0000 0.0000
# 4 2.4701 -2.4701 0.0000 27.9938 0.0000 -0.0003
# 5 0.0003 -0.0003 0.0000 0.0000 27.9938 2.4701
# 6 0.0000 0.0000 0.0000 -0.0003 2.4701 23.1022
#
#
#
# Elastic Compliance Matrix: (Units=1/GPa)
#
#
# Indices 1 2 3 4 5 6 
#
# 1 0.015830 -0.006020 -0.003837 -0.001928 0.000000 0.000000
# 2 -0.006020 0.015830 -0.003837 0.001928 0.000000 0.000000
# 3 -0.003837 -0.003837 0.015278 0.000000 0.000000 0.000000
# 4 -0.001928 0.001928 0.000000 0.036062 0.000000 0.000000
# 5 0.000000 0.000000 0.000000 0.000000 0.036062 -0.003856
# 6 0.000000 0.000000 0.000000 0.000000 -0.003856 0.043698
#
#
# Mechanical properties :
#
#
# Convention : Reuss Voigt Hill
#
# Bulk Modulus (GPa) = 51.14788 51.39903 51.27346
# Shear Modulus (GPa) = 25.42423 25.84963 25.63693
#
# Velocity S-wave (km/s) = 3.71769 3.74866 3.73321
# Velocity P-wave (km/s) = 6.79952 6.83216 6.81586
#
# Compressibility (1/GPa) = 0.01955115
#
# Stress axis : x y z
#
# Youngs Moduli (GPa) = 63.17310 63.17310 65.45364
#
# Poissons Ratio (x) = 0.38027 0.25113
# Poissons Ratio (y) = 0.38027 0.25113
# Poissons Ratio (z) = 0.24238 0.24238
#
# Static dielectric constant tensor:
#      x y z
#    x 3.417630 0.000000 0.000000 
#    y 0.000000 3.417630 0.000000 
#    z 0.000000 0.000000 3.445880 
# 
# 
# High freq. dielectric constant tensor:
#      x y z
#    x 1.710290 0.000000 0.000000 
#    y 0.000000 1.710290 0.000000 
#    z 0.000000 0.000000 1.710620 
# 
# From -- ./inp_files/5843.got.cif
#   From: 2010.03.12/outbox.cif.g09.slc.cpg/sg166_3_cif.got.tgz:5843.got - 2010.04.02 06:38:31.
