data_PCOD8324368
_publ_section_title
;
Structure prediction by ZEFSAII (Michael W. Deem and Ramdas Pophale) SiO2 
 PCOD8324368
Probable space group: R -3 C 
;
_chemical_formula_sum "Si O2"
_cell_formula_units_Z 168
_cell_length_a 17.141234
_cell_length_b 17.141234
_cell_length_c 32.320149
_cell_angle_alpha 90.000000
_cell_angle_beta 90.000000
_cell_angle_gamma 120.000000
_cell_volume 8224.095660
_symmetry_space_group_name_H-M "R -3 C "
_symmetry_group_IT_number 167
_symmetry_cell_setting 'hexagonal'
loop_
_space_group_symop_operation_xyz
x,y,z
-y,x-y,z
-x+y,-x,z
x-y,-y,1/2-z
-x,-x+y,1/2-z
y,x,1/2-z
-x,-y,-z
y,-x+y,-z
x-y,x,-z
-x+y,y,1/2+z
x,x-y,1/2+z
-y,-x,1/2+z
2/3+x,1/3+y,1/3+z
2/3-y,1/3+x-y,1/3+z
2/3-x+y,1/3-x,1/3+z
2/3+x-y,1/3-y,5/6-z
2/3-x,1/3-x+y,5/6-z
2/3+y,1/3+x,5/6-z
2/3-x,1/3-y,1/3-z
2/3+y,1/3-x+y,1/3-z
2/3+x-y,1/3+x,1/3-z
2/3-x+y,1/3+y,5/6+z
2/3+x,1/3+x-y,5/6+z
2/3-y,1/3-x,5/6+z
1/3+x,2/3+y,2/3+z
1/3-y,2/3+x-y,2/3+z
1/3-x+y,2/3-x,2/3+z
1/3+x-y,2/3-y,1/6-z
1/3-x,2/3-x+y,1/6-z
1/3+y,2/3+x,1/6-z
1/3-x,2/3-y,2/3-z
1/3+y,2/3-x+y,2/3-z
1/3+x-y,2/3+x,2/3-z
1/3-x+y,2/3+y,1/6+z
1/3+x,2/3+x-y,1/6+z
1/3-y,2/3-x,1/6+z
loop_
_atom_site_type_symbol
_atom_site_label
_atom_site_fract_x
_atom_site_fract_y
_atom_site_fract_z
Si Si1 0.666668 0.333334 0.880847
Si Si2 0.666667 0.913968 0.583334
Si Si3 0.333334 0.666667 0.369582
Si Si4 0.544884 0.396030 0.496887
Si Si5 0.070178 0.361546 0.823836
Si Si6 0.329778 0.000000 0.250000
Si Si7 0.287222 0.805853 0.581863
O O1 0.666668 0.333335 0.833334
O O2 0.574532 0.245599 0.893871
O O3 0.664220 0.961140 0.540340
O O4 0.575831 0.819294 0.587128
O O5 0.333334 0.666668 0.416667
O O6 0.437921 0.720315 0.358166
O O7 0.457219 0.385835 0.520220
O O8 0.596682 0.495434 0.476530
O O9 0.509651 0.313569 0.465250
O O10 0.060583 0.374761 0.873756
O O11 0.424156 0.086932 0.262858
#
# Coordination Sequence:
#
# PCOD8324368 Si02
#       7
#    12  18  12  36  36  18  36
#     4  12  25  35  61  90 124 164 205 246 304 374
#     4  11  22  38  70  91 118 166 206 255 306 368
#     4  12  25  35  61  90 124 161 208 252 304 374
#     4  10  22  44  60  88 125 165 201 256 314 361
#     4  10  22  40  68  91 122 164 207 256 311 368
#     4   9  22  42  64  89 128 156 210 259 308 368
#     4  10  22  43  59  88 125 164 201 256 311 360
#
# _framework density 20.427776999999999
#
# number of rings (size 3 to 8) (size 9 to 14) (size 15 to 20)
#    0.000    1.714    0.000    3.857    6.000    0.000 
#    0.000    8.571    0.000    0.000    0.000    0.000 
#    0.000    0.000    0.000    0.000    0.000    0.000 
#
# Total GULP energy -693894.931167 kJ/mol
# GULP energy per Si atom -12390.980914 kJ/mol
# Density = 2.038128 g / cm^3
# Si number density = 20.427777 Si / 1000 Ang^3
#
#
#
# Elastic Constant Matrix: (Units=GPa)
#
#
# Indices 1 2 3 4 5 6 
#
# 1 113.9901 49.5362 49.5725 -4.6980 -0.0004 0.0000
# 2 49.5362 113.9883 49.5721 4.6980 0.0006 0.0001
# 3 49.5725 49.5721 94.8558 0.0000 0.0001 0.0001
# 4 -4.6980 4.6980 0.0000 28.4678 0.0000 0.0004
# 5 -0.0004 0.0006 0.0001 0.0000 28.4682 -4.6977
# 6 0.0000 0.0001 0.0001 0.0004 -4.6977 32.2261
#
#
#
# Elastic Compliance Matrix: (Units=1/GPa)
#
#
# Indices 1 2 3 4 5 6 
#
# 1 0.012425 -0.003473 -0.004678 0.002624 0.000000 0.000000
# 2 -0.003473 0.012425 -0.004678 -0.002624 0.000000 0.000000
# 3 -0.004678 -0.004678 0.015432 0.000000 0.000000 0.000000
# 4 0.002624 -0.002624 0.000000 0.035993 0.000000 0.000000
# 5 0.000000 0.000000 0.000000 0.000000 0.035993 0.005247
# 6 0.000000 0.000000 0.000000 0.000000 0.005247 0.031796
#
#
# Mechanical properties :
#
#
# Convention : Reuss Voigt Hill
#
# Bulk Modulus (GPa) = 68.38759 68.91065 68.64912
# Shear Modulus (GPa) = 28.63757 29.44265 29.04011
#
# Velocity S-wave (km/s) = 3.74825 3.80057 3.77450
# Velocity P-wave (km/s) = 7.23069 7.28465 7.25772
#
# Compressibility (1/GPa) = 0.01462254
#
# Stress axis : x y z
#
# Youngs Moduli (GPa) = 80.48586 80.48470 64.80032
#
# Poissons Ratio (x) = 0.27952 0.30315
# Poissons Ratio (y) = 0.27953 0.30315
# Poissons Ratio (z) = 0.37653 0.37652
#
# Static dielectric constant tensor:
#      x y z
#    x 3.701690 0.000000 0.000000 
#    y 0.000000 3.701700 0.000000 
#    z 0.000000 0.000000 3.520400 
# 
# 
# High freq. dielectric constant tensor:
#      x y z
#    x 1.811940 0.000000 0.000000 
#    y 0.000000 1.811940 0.000000 
#    z 0.000000 0.000000 1.781180 
# 
# From -- ./inp_files/7010.got.cif
#   From: 2010.03.12/outbox.cif.g09.slc.cpg/sg167_4_cif.got.tgz:7010.got - 2010.04.02 06:42:56.
