data_PCOD8324155
_publ_section_title
;
Structure prediction by ZEFSAII (Michael W. Deem and Ramdas Pophale) SiO2 
 PCOD8324155
Probable space group: R -3 M
;
_chemical_formula_sum "Si O2"
_cell_formula_units_Z 144
_cell_length_a 27.644458
_cell_length_b 27.644458
_cell_length_c 12.179049
_cell_angle_alpha 90.000000
_cell_angle_beta 90.000000
_cell_angle_gamma 120.000000
_cell_volume 8060.466337
_symmetry_space_group_name_H-M "R -3 M"
_symmetry_group_IT_number 166
_symmetry_cell_setting 'hexagonal'
loop_
_space_group_symop_operation_xyz
x,y,z
-y,x-y,z
-x+y,-x,z
x-y,-y,-z
-x,-x+y,-z
y,x,-z
-x,-y,-z
y,-x+y,-z
x-y,x,-z
-x+y,y,z
x,x-y,z
-y,-x,z
2/3+x,1/3+y,1/3+z
2/3-y,1/3+x-y,1/3+z
2/3-x+y,1/3-x,1/3+z
2/3+x-y,1/3-y,1/3-z
2/3-x,1/3-x+y,1/3-z
2/3+y,1/3+x,1/3-z
2/3-x,1/3-y,1/3-z
2/3+y,1/3-x+y,1/3-z
2/3+x-y,1/3+x,1/3-z
2/3-x+y,1/3+y,1/3+z
2/3+x,1/3+x-y,1/3+z
2/3-y,1/3-x,1/3+z
1/3+x,2/3+y,2/3+z
1/3-y,2/3+x-y,2/3+z
1/3-x+y,2/3-x,2/3+z
1/3+x-y,2/3-y,2/3-z
1/3-x,2/3-x+y,2/3-z
1/3+y,2/3+x,2/3-z
1/3-x,2/3-y,2/3-z
1/3+y,2/3-x+y,2/3-z
1/3+x-y,2/3+x,2/3-z
1/3-x+y,2/3+y,2/3+z
1/3+x,2/3+x-y,2/3+z
1/3-y,2/3-x,2/3+z
loop_
_atom_site_type_symbol
_atom_site_label
_atom_site_fract_x
_atom_site_fract_y
_atom_site_fract_z
Si Si1 0.837206 0.565159 0.108005
Si Si2 0.021810 0.294814 0.617522
Si Si3 0.943131 0.418161 0.318807
Si Si4 0.691227 0.202838 0.445153
O O1 0.787666 0.575332 0.063096
O O2 0.862903 0.600025 0.219141
O O3 0.808971 0.498630 0.131730
O O4 0.887789 0.584121 0.023586
O O5 0.081317 0.350141 0.603030
O O6 0.000000 0.266301 0.500000
O O7 0.977293 0.310627 0.666667
O O8 0.969587 0.484794 0.303662
O O9 0.886519 0.385980 0.251948
O O10 0.737228 0.262773 0.494375
O O11 0.666667 0.213784 0.333334
#
# Coordination Sequence:
#
# PCOD8324155 Si02
#       4
#    36  36  36  36
#     4  10  20  35  54  74  99 134 172 207 248 301
#     4  12  22  32  48  72 104 136 171 212 251 293
#     4   9  17  31  52  75 101 133 168 205 247 300
#     4   9  16  29  51  78 105 130 157 198 254 307
#
# _framework density 17.864972000000002
#
# number of rings (size 3 to 8) (size 9 to 14) (size 15 to 20)
#    0.000    2.000    0.000    9.000    0.000    2.000 
#    0.000    2.500    0.000   11.250    0.000    0.000 
#    0.000    1.000    0.000    0.000    0.000    0.000 
#
# Total GULP energy -595001.322383 kJ/mol
# GULP energy per Si atom -12395.860883 kJ/mol
# Density = 1.782431 g / cm^3
# Si number density = 17.864972 Si / 1000 Ang^3
#
#
#
# Elastic Constant Matrix: (Units=GPa)
#
#
# Indices 1 2 3 4 5 6 
#
# 1 83.2352 35.3141 34.8330 -2.8302 -0.0004 0.0000
# 2 35.3141 83.2353 34.8331 2.8300 0.0002 -0.0001
# 3 34.8330 34.8331 69.9323 0.0001 0.0015 0.0000
# 4 -2.8302 2.8300 0.0001 21.3095 0.0000 0.0001
# 5 -0.0004 0.0002 0.0015 0.0000 21.3122 -2.8304
# 6 0.0000 -0.0001 0.0000 0.0001 -2.8304 23.9604
#
#
#
# Elastic Compliance Matrix: (Units=1/GPa)
#
#
# Indices 1 2 3 4 5 6 
#
# 1 0.016563 -0.004637 -0.005940 0.002816 0.000001 0.000000
# 2 -0.004637 0.016563 -0.005940 -0.002816 0.000000 0.000000
# 3 -0.005940 -0.005940 0.020217 0.000000 -0.000002 0.000000
# 4 0.002816 -0.002816 0.000000 0.047675 0.000000 0.000000
# 5 0.000001 0.000000 -0.000002 0.000000 0.047669 0.005631
# 6 0.000000 0.000000 0.000000 0.000000 0.005631 0.042401
#
#
# Mechanical properties :
#
#
# Convention : Reuss Voigt Hill
#
# Bulk Modulus (GPa) = 49.24138 49.59594 49.41866
# Shear Modulus (GPa) = 21.65494 22.07792 21.86643
#
# Velocity S-wave (km/s) = 3.48536 3.51924 3.50234
# Velocity P-wave (km/s) = 6.61966 6.65847 6.63910
#
# Compressibility (1/GPa) = 0.02030812
#
# Stress axis : x y z
#
# Youngs Moduli (GPa) = 60.37475 60.37482 49.46246
#
# Poissons Ratio (x) = 0.27996 0.29383
# Poissons Ratio (y) = 0.27996 0.29383
# Poissons Ratio (z) = 0.35865 0.35865
#
# Static dielectric constant tensor:
#      x y z
#    x 3.449210 0.000000 0.000000 
#    y 0.000000 3.449210 0.000000 
#    z 0.000000 0.000000 2.962240 
# 
# 
# High freq. dielectric constant tensor:
#      x y z
#    x 1.690920 0.000000 0.000000 
#    y 0.000000 1.690920 0.000000 
#    z 0.000000 0.000000 1.643550 
# 
# From -- ./inp_files/1802.got.cif
#   From: 2010.03.12/outbox.cif.g09.slc.cpg/sg166_1_cif.got.tgz:1802.got - 2010.04.02 06:38:31.
