data_PCOD8324633
_publ_section_title
;
Structure prediction by ZEFSAII (Michael W. Deem and Ramdas Pophale) SiO2 
 PCOD8324633
Probable space group: P 65
;
_chemical_formula_sum "Si O2"
_cell_formula_units_Z 48
_cell_length_a 16.099638
_cell_length_b 16.099638
_cell_length_c 10.742003
_cell_angle_alpha 90.000000
_cell_angle_beta 90.000000
_cell_angle_gamma 120.000000
_cell_volume 2411.282660
_symmetry_space_group_name_H-M "P 65"
_symmetry_group_IT_number 170
_symmetry_cell_setting 'hexagonal'
loop_
_space_group_symop_operation_xyz
x,y,z
x-y,x,5/6+z
-y,x-y,2/3+z
-x,-y,1/2+z
-x+y,-x,1/3+z
y,-x+y,1/6+z
loop_
_atom_site_type_symbol
_atom_site_label
_atom_site_fract_x
_atom_site_fract_y
_atom_site_fract_z
Si Si1 0.879600 0.057136 0.614280
Si Si2 0.879600 0.822464 0.687047
Si Si3 0.653847 0.416344 0.682780
Si Si4 0.237502 0.583656 0.785214
Si Si5 0.551446 0.654360 0.114190
Si Si6 0.654360 0.551446 0.020470
Si Si7 0.776881 0.609879 0.786165
Si Si8 0.609879 0.776881 0.348496
O O1 0.831123 0.118274 0.576682
O O2 0.990425 0.119153 0.662312
O O3 0.819272 0.000000 0.733997
O O4 0.871272 0.880847 0.805682
O O5 0.831123 0.712849 0.724645
O O6 0.700976 0.350488 0.650664
O O7 0.608068 0.391932 0.817330
O O8 0.562627 0.388630 0.594189
O O9 0.733330 0.528851 0.676777
O O10 0.173997 0.611370 0.873805
O O11 0.204478 0.471149 0.791216
O O12 0.591301 0.690113 0.254484
O O13 0.573065 0.573065 0.067330
O O14 0.604924 0.744840 0.025674
O O15 0.690113 0.591301 0.880177
O O16 0.744840 0.604924 0.108986
#
# Coordination Sequence:
#
# PCOD8324633 Si02
#       8
#     6   6   6   6   6   6   6   6
#     4  10  22  43  62  85 123 156 198 251 310 363
#     4  10  22  43  62  85 123 156 198 251 310 363
#     4  10  18  37  57  82 120 163 199 249 294 359
#     4  10  18  37  57  82 120 163 199 249 294 359
#     4  10  19  34  59  87 116 158 205 251 297 352
#     4  10  19  34  59  87 116 158 205 251 297 352
#     4  10  20  37  60  85 121 154 201 252 303 356
#     4  10  20  37  60  85 121 154 201 252 303 356
#
# _framework density 19.906417000000001
#
# number of rings (size 3 to 8) (size 9 to 14) (size 15 to 20)
#    0.000    2.000    5.000    1.500    0.000    1.000 
#    4.500   27.500    0.000    0.000    0.000    0.000 
#    0.000    0.000    0.000    0.000    0.000    0.000 
#
# Total GULP energy -594798.233212 kJ/mol
# GULP energy per Si atom -12391.629859 kJ/mol
# Density = 1.986111 g / cm^3
# Si number density = 19.906417 Si / 1000 Ang^3
#
#
#
# Elastic Constant Matrix: (Units=GPa)
#
#
# Indices 1 2 3 4 5 6 
#
# 1 130.3602 80.7488 47.6170 0.0000 0.0000 0.0000
# 2 80.7488 130.3602 47.6170 0.0000 0.0000 0.0000
# 3 47.6170 47.6170 48.3946 0.0000 0.0000 0.0000
# 4 0.0000 0.0000 0.0000 30.0774 0.0000 0.0000
# 5 0.0000 0.0000 0.0000 0.0000 30.0774 0.0000
# 6 0.0000 0.0000 0.0000 0.0000 0.0000 24.8057
#
#
#
# Elastic Compliance Matrix: (Units=1/GPa)
#
#
# Indices 1 2 3 4 5 6 
#
# 1 0.014337 -0.005820 -0.008381 0.000000 0.000000 0.000000
# 2 -0.005820 0.014337 -0.008381 0.000000 0.000000 0.000000
# 3 -0.008381 -0.008381 0.037155 0.000000 0.000000 0.000000
# 4 0.000000 0.000000 0.000000 0.033248 0.000000 0.000000
# 5 0.000000 0.000000 0.000000 0.000000 0.033248 0.000000
# 6 0.000000 0.000000 0.000000 0.000000 0.000000 0.040313
#
#
# Mechanical properties :
#
#
# Convention : Reuss Voigt Hill
#
# Bulk Modulus (GPa) = 48.38432 73.45338 60.91885
# Shear Modulus (GPa) = 22.25300 25.86761 24.06031
#
# Velocity S-wave (km/s) = 3.34710 3.60871 3.48037
# Velocity P-wave (km/s) = 6.26866 7.37178 6.84249
#
# Compressibility (1/GPa) = 0.02066785
#
# Stress axis : x y z
#
# Youngs Moduli (GPa) = 69.74927 69.74927 26.91400
#
# Poissons Ratio (x) = 0.40591 0.22556
# Poissons Ratio (y) = 0.40591 0.22556
# Poissons Ratio (z) = 0.58454 0.58454
#
# Static dielectric constant tensor:
#      x y z
#    x 3.753940 0.000000 0.000000 
#    y 0.000000 3.753940 0.000000 
#    z 0.000000 0.000000 3.669680 
# 
# 
# High freq. dielectric constant tensor:
#      x y z
#    x 1.774320 0.000000 0.000000 
#    y 0.000000 1.774320 0.000000 
#    z 0.000000 0.000000 1.761130 
# 
# From -- ./inp_files/1069.got.cif
#   From: 2010.03.12/outbox.cif.g09.slc.cpg/sg170_cif.got.tgz:1069.got - 2010.04.02 06:47:37.
