data_PCOD8324366
_publ_section_title
;
Structure prediction by ZEFSAII (Michael W. Deem and Ramdas Pophale) SiO2 
 PCOD8324366
Probable space group: R -3 C 
;
_chemical_formula_sum "Si O2"
_cell_formula_units_Z 234
_cell_length_a 25.797429
_cell_length_b 25.797429
_cell_length_c 21.141642
_cell_angle_alpha 90.000000
_cell_angle_beta 90.000000
_cell_angle_gamma 120.000000
_cell_volume 12184.906412
_symmetry_space_group_name_H-M "R -3 C "
_symmetry_group_IT_number 167
_symmetry_cell_setting 'hexagonal'
loop_
_space_group_symop_operation_xyz
x,y,z
-y,x-y,z
-x+y,-x,z
x-y,-y,1/2-z
-x,-x+y,1/2-z
y,x,1/2-z
-x,-y,-z
y,-x+y,-z
x-y,x,-z
-x+y,y,1/2+z
x,x-y,1/2+z
-y,-x,1/2+z
2/3+x,1/3+y,1/3+z
2/3-y,1/3+x-y,1/3+z
2/3-x+y,1/3-x,1/3+z
2/3+x-y,1/3-y,5/6-z
2/3-x,1/3-x+y,5/6-z
2/3+y,1/3+x,5/6-z
2/3-x,1/3-y,1/3-z
2/3+y,1/3-x+y,1/3-z
2/3+x-y,1/3+x,1/3-z
2/3-x+y,1/3+y,5/6+z
2/3+x,1/3+x-y,5/6+z
2/3-y,1/3-x,5/6+z
1/3+x,2/3+y,2/3+z
1/3-y,2/3+x-y,2/3+z
1/3-x+y,2/3-x,2/3+z
1/3+x-y,2/3-y,1/6-z
1/3-x,2/3-x+y,1/6-z
1/3+y,2/3+x,1/6-z
1/3-x,2/3-y,2/3-z
1/3+y,2/3-x+y,2/3-z
1/3+x-y,2/3+x,2/3-z
1/3-x+y,2/3+y,1/6+z
1/3+x,2/3+x-y,1/6+z
1/3-y,2/3-x,1/6+z
loop_
_atom_site_type_symbol
_atom_site_label
_atom_site_fract_x
_atom_site_fract_y
_atom_site_fract_z
Si Si1 0.000000 0.664019 0.750000
Si Si2 0.380083 0.992329 0.043929
Si Si3 0.803623 0.202389 0.448343
Si Si4 0.123449 0.887154 0.875773
Si Si5 0.665865 0.132319 0.904724
Si Si6 0.212353 0.206275 0.429364
Si Si7 0.809717 0.174214 0.590234
O O1 0.010692 0.705426 0.811119
O O2 0.058308 0.658594 0.742159
O O3 0.354969 0.937119 0.091332
O O4 0.375779 0.042446 0.083334
O O5 0.450335 0.021132 0.035037
O O6 0.844707 0.178040 0.416667
O O7 0.833065 0.273855 0.445654
O O8 0.740155 0.178683 0.415450
O O9 0.790791 0.182166 0.521130
O O10 0.165476 0.867474 0.915889
O O11 0.109737 0.856362 0.805122
O O12 0.056610 0.862831 0.904077
O O13 0.161956 0.959679 0.880056
O O14 0.680227 0.151044 0.831706
#
# Coordination Sequence:
#
# PCOD8324366 Si02
#       7
#    18  36  36  36  36  36  36
#     4  12  22  32  58  86 118 160 196 240 300 356
#     4  11  20  34  54  84 117 155 196 234 290 359
#     4  12  24  38  61  86 116 156 203 252 310 372
#     4  10  23  39  57  82 119 157 194 248 296 358
#     4  11  24  38  56  81 119 157 199 245 294 362
#     4  12  22  40  58  86 118 155 201 247 304 364
#     4  10  22  37  56  84 119 152 199 244 290 363
#
# _framework density 19.204087000000001
#
# number of rings (size 3 to 8) (size 9 to 14) (size 15 to 20)
#    0.000    0.923    3.846    5.077    2.154    0.615 
#    0.000    0.000    0.000    0.615    0.000    2.154 
#    0.000    2.462    0.000    0.000    0.000    0.000 
#
# Total GULP energy -966496.057345 kJ/mol
# GULP energy per Si atom -12390.975094 kJ/mol
# Density = 1.916038 g / cm^3
# Si number density = 19.204087 Si / 1000 Ang^3
#
#
#
# Elastic Constant Matrix: (Units=GPa)
#
#
# Indices 1 2 3 4 5 6 
#
# 1 84.3139 38.1787 10.6796 -0.3325 0.0000 0.0000
# 2 38.1787 84.3139 10.6796 0.3325 0.0000 0.0000
# 3 10.6796 10.6796 103.7201 0.0000 0.0000 0.0000
# 4 -0.3325 0.3325 0.0000 24.4249 0.0000 0.0000
# 5 0.0000 0.0000 0.0000 0.0000 24.4249 -0.3325
# 6 0.0000 0.0000 0.0000 0.0000 -0.3325 23.0676
#
#
#
# Elastic Compliance Matrix: (Units=1/GPa)
#
#
# Indices 1 2 3 4 5 6 
#
# 1 0.014996 -0.006683 -0.000856 0.000295 0.000000 0.000000
# 2 -0.006683 0.014996 -0.000856 -0.000295 0.000000 0.000000
# 3 -0.000856 -0.000856 0.009818 0.000000 0.000000 0.000000
# 4 0.000295 -0.000295 0.000000 0.040950 0.000000 0.000000
# 5 0.000000 0.000000 0.000000 0.000000 0.040950 0.000590
# 6 0.000000 0.000000 0.000000 0.000000 0.000590 0.043359
#
#
# Mechanical properties :
#
#
# Convention : Reuss Voigt Hill
#
# Bulk Modulus (GPa) = 43.44084 43.49152 43.46618
# Shear Modulus (GPa) = 26.38063 28.57082 27.47573
#
# Velocity S-wave (km/s) = 3.71037 3.86132 3.78659
# Velocity P-wave (km/s) = 6.40511 6.52502 6.46534
#
# Compressibility (1/GPa) = 0.02301981
#
# Stress axis : x y z
#
# Youngs Moduli (GPa) = 66.68291 66.68291 101.85788
#
# Poissons Ratio (x) = 0.44566 0.08719
# Poissons Ratio (y) = 0.44566 0.08719
# Poissons Ratio (z) = 0.05708 0.05708
#
# Static dielectric constant tensor:
#      x y z
#    x 3.507110 0.000000 0.000000 
#    y 0.000000 3.507110 0.000000 
#    z 0.000000 0.000000 4.539850 
# 
# 
# High freq. dielectric constant tensor:
#      x y z
#    x 1.725570 0.000000 0.000000 
#    y 0.000000 1.725570 0.000000 
#    z 0.000000 0.000000 1.761910 
# 
# From -- ./inp_files/4696.got.cif
#   From: 2010.03.12/outbox.cif.g09.slc.cpg/sg167_3_cif.got.tgz:4696.got - 2010.04.02 06:42:56.
