data_PCOD8324962
_publ_section_title
;
Structure prediction by ZEFSAII (Michael W. Deem and Ramdas Pophale) SiO2 
 PCOD8324962
Probable space group: P -6
;
_chemical_formula_sum "Si O2"
_cell_formula_units_Z 42
_cell_length_a 8.701320
_cell_length_b 8.701320
_cell_length_c 31.928259
_cell_angle_alpha 90.000000
_cell_angle_beta 90.000000
_cell_angle_gamma 120.000000
_cell_volume 2093.515355
_symmetry_space_group_name_H-M "P -6"
_symmetry_group_IT_number 174
_symmetry_cell_setting 'hexagonal'
loop_
_space_group_symop_operation_xyz
x,y,z
-x+y,-x,-z
-y,x-y,z
x,y,-z
-x+y,-x,z
-y,x-y,-z
loop_
_atom_site_type_symbol
_atom_site_label
_atom_site_fract_x
_atom_site_fract_y
_atom_site_fract_z
Si Si1 0.341025 0.999476 0.911461
Si Si2 0.467074 0.333023 0.211310
Si Si3 0.332728 0.327182 0.876969
Si Si4 0.332172 0.011925 0.410239
Si Si5 0.355074 0.479966 0.713881
Si Si6 0.652681 0.991301 0.377941
Si Si7 0.207709 0.022783 0.500000
Si Si8 0.638105 0.517153 0.000000
O O1 0.165706 0.832620 0.895274
O O2 0.336363 0.175347 0.903046
O O3 0.492737 0.002676 0.884240
O O4 0.378391 0.996653 0.960739
O O5 0.492848 0.159707 0.210801
O O6 0.334635 0.305278 0.172953
O O7 0.367089 0.353498 0.251216
O O8 0.289092 0.144678 0.384296
O O9 0.321011 0.036692 0.459583
O O10 0.529403 0.051056 0.401962
O O11 0.193719 0.813353 0.396198
O O12 0.516394 0.686011 0.717365
O O13 0.366382 0.394948 0.670699
O O14 0.163878 0.183957 0.500000
O O15 0.481775 0.308621 0.000000
#
# Coordination Sequence:
#
# PCOD8324962 Si02
#       8
#     6   6   6   6   6   6   3   3
#     4  12  24  42  72  97 140 184 227 287 344 410
#     4  10  23  41  68  97 136 183 229 280 347 403
#     4  12  24  45  65 106 137 184 231 280 347 416
#     4  12  24  42  72  94 142 182 231 287 351 417
#     4  10  23  41  65 101 139 171 230 290 341 416
#     4  12  24  45  65 105 136 190 225 287 354 423
#     4  10  20  42  66 100 130 174 234 290 350 416
#     4  10  20  42  72  96 134 182 228 292 354 398
#
# _framework density 20.061948999999998
#
# number of rings (size 3 to 8) (size 9 to 14) (size 15 to 20)
#    0.857    0.000    5.714    1.714    4.000    2.286 
#    0.000    0.000    0.000    0.571    0.000    0.000 
#    0.000    0.000    0.000    0.000    0.000    0.000 
#
# Total GULP energy -520637.487598 kJ/mol
# GULP energy per Si atom -12396.130657 kJ/mol
# Density = 2.001629 g / cm^3
# Si number density = 20.061949 Si / 1000 Ang^3
#
#
#
# Elastic Constant Matrix: (Units=GPa)
#
#
# Indices 1 2 3 4 5 6 
#
# 1 71.9061 -0.7790 15.9081 0.0000 0.0000 0.0000
# 2 -0.7790 71.9061 15.9081 0.0000 0.0000 0.0000
# 3 15.9081 15.9081 142.8233 0.0000 0.0000 0.0000
# 4 0.0000 0.0000 0.0000 32.8284 0.0000 0.0000
# 5 0.0000 0.0000 0.0000 0.0000 32.8284 0.0000
# 6 0.0000 0.0000 0.0000 0.0000 0.0000 36.3426
#
#
#
# Elastic Compliance Matrix: (Units=1/GPa)
#
#
# Indices 1 2 3 4 5 6 
#
# 1 0.014277 0.000519 -0.001648 0.000000 0.000000 0.000000
# 2 0.000519 0.014277 -0.001648 0.000000 0.000000 0.000000
# 3 -0.001648 -0.001648 0.007369 0.000000 0.000000 0.000000
# 4 0.000000 0.000000 0.000000 0.030461 0.000000 0.000000
# 5 0.000000 0.000000 0.000000 0.000000 0.030461 0.000000
# 6 0.000000 0.000000 0.000000 0.000000 0.000000 0.027516
#
#
# Mechanical properties :
#
#
# Convention : Reuss Voigt Hill
#
# Bulk Modulus (GPa) = 32.92771 38.74556 35.83663
# Shear Modulus (GPa) = 35.70433 37.43977 36.57205
#
# Velocity S-wave (km/s) = 4.22323 4.32465 4.27424
# Velocity P-wave (km/s) = 6.34268 6.65520 6.50082
#
# Compressibility (1/GPa) = 0.03036956
#
# Stress axis : x y z
#
# Youngs Moduli (GPa) = 70.04143 70.04143 135.70740
#
# Poissons Ratio (x) = -0.03637 0.22366
# Poissons Ratio (y) = -0.03637 0.22366
# Poissons Ratio (z) = 0.11543 0.11543
#
# Static dielectric constant tensor:
#      x y z
#    x 3.412340 0.000000 0.000000 
#    y 0.000000 3.412340 0.000000 
#    z 0.000000 0.000000 3.625470 
# 
# 
# High freq. dielectric constant tensor:
#      x y z
#    x 1.776670 0.000000 0.000000 
#    y 0.000000 1.776670 0.000000 
#    z 0.000000 0.000000 1.796190 
# 
# From -- ./inp_files/1103.got.cif
#   From: 2010.03.12/outbox.cif.g09.slc.cpg/sg174_cif.got.tgz:1103.got - 2010.04.02 06:54:58.
