data_PCOD8324369
_publ_section_title
;
Structure prediction by ZEFSAII (Michael W. Deem and Ramdas Pophale) SiO2 
 PCOD8324369
Probable space group: R -3 C 
;
_chemical_formula_sum "Si O2"
_cell_formula_units_Z 234
_cell_length_a 25.354497
_cell_length_b 25.354497
_cell_length_c 20.541852
_cell_angle_alpha 90.000000
_cell_angle_beta 90.000000
_cell_angle_gamma 120.000000
_cell_volume 11436.160080
_symmetry_space_group_name_H-M "R -3 C "
_symmetry_group_IT_number 167
_symmetry_cell_setting 'hexagonal'
loop_
_space_group_symop_operation_xyz
x,y,z
-y,x-y,z
-x+y,-x,z
x-y,-y,1/2-z
-x,-x+y,1/2-z
y,x,1/2-z
-x,-y,-z
y,-x+y,-z
x-y,x,-z
-x+y,y,1/2+z
x,x-y,1/2+z
-y,-x,1/2+z
2/3+x,1/3+y,1/3+z
2/3-y,1/3+x-y,1/3+z
2/3-x+y,1/3-x,1/3+z
2/3+x-y,1/3-y,5/6-z
2/3-x,1/3-x+y,5/6-z
2/3+y,1/3+x,5/6-z
2/3-x,1/3-y,1/3-z
2/3+y,1/3-x+y,1/3-z
2/3+x-y,1/3+x,1/3-z
2/3-x+y,1/3+y,5/6+z
2/3+x,1/3+x-y,5/6+z
2/3-y,1/3-x,5/6+z
1/3+x,2/3+y,2/3+z
1/3-y,2/3+x-y,2/3+z
1/3-x+y,2/3-x,2/3+z
1/3+x-y,2/3-y,1/6-z
1/3-x,2/3-x+y,1/6-z
1/3+y,2/3+x,1/6-z
1/3-x,2/3-y,2/3-z
1/3+y,2/3-x+y,2/3-z
1/3+x-y,2/3+x,2/3-z
1/3-x+y,2/3+y,1/6+z
1/3+x,2/3+x-y,1/6+z
1/3-y,2/3-x,1/6+z
loop_
_atom_site_type_symbol
_atom_site_label
_atom_site_fract_x
_atom_site_fract_y
_atom_site_fract_z
Si Si1 0.912864 0.553223 0.842911
Si Si2 0.333334 0.010046 0.916667
Si Si3 0.105600 0.245623 0.827176
Si Si4 0.922663 0.960314 0.433218
Si Si5 0.117166 0.060557 0.713225
Si Si6 0.085553 0.876608 0.473263
Si Si7 0.758347 0.689617 0.143714
O O1 0.847202 0.550074 0.849383
O O2 0.908437 0.487555 0.831159
O O3 0.948330 0.582508 0.910195
O O4 0.948362 0.593675 0.780844
O O5 0.307787 0.960623 0.859607
O O6 0.070532 0.184649 0.785153
O O7 0.085162 0.235375 0.902265
O O8 0.176968 0.267344 0.822140
O O9 0.088307 0.292319 0.794241
O O10 0.907026 0.945354 0.358747
O O11 0.861271 0.933802 0.473071
O O12 0.966196 0.930687 0.449041
O O13 0.116464 0.116464 0.750000
O O14 0.071320 0.000000 0.750000
#
# Coordination Sequence:
#
# PCOD8324369 Si02
#       7
#    36  18  36  36  36  36  36
#     4  11  25  45  69 100 132 173 221 272 334 397
#     4  12  24  46  74  98 126 172 222 280 336 390
#     4   9  21  41  63  90 128 172 218 274 326 393
#     4   9  18  33  55  88 131 183 208 246 320 396
#     4  11  18  31  54  92 134 169 220 268 315 383
#     4  10  22  41  63  97 139 168 217 273 323 398
#     4  10  22  46  70  92 126 167 220 275 335 386
#
# _framework density 20.461414000000001
#
# number of rings (size 3 to 8) (size 9 to 14) (size 15 to 20)
#    0.308    1.538    3.077    0.615    3.231    1.231 
#    2.769    0.769    0.000    0.000    0.000    0.000 
#    0.000    0.000    0.000    0.000    0.000    0.000 
#
# Total GULP energy -966860.535233 kJ/mol
# GULP energy per Si atom -12395.647888 kJ/mol
# Density = 2.041484 g / cm^3
# Si number density = 20.461414 Si / 1000 Ang^3
#
#
#
# Elastic Constant Matrix: (Units=GPa)
#
#
# Indices 1 2 3 4 5 6 
#
# 1 113.3020 40.1821 56.9084 1.5877 0.0001 0.0000
# 2 40.1821 113.3020 56.9084 -1.5877 -0.0001 0.0000
# 3 56.9084 56.9084 107.2645 0.0000 0.0000 0.0000
# 4 1.5877 -1.5877 0.0000 34.2467 0.0000 -0.0001
# 5 0.0001 -0.0001 0.0000 0.0000 34.2467 1.5877
# 6 0.0000 0.0000 0.0000 -0.0001 1.5877 36.5600
#
#
#
# Elastic Compliance Matrix: (Units=1/GPa)
#
#
# Indices 1 2 3 4 5 6 
#
# 1 0.012222 -0.001481 -0.005699 -0.000635 0.000000 0.000000
# 2 -0.001481 0.012222 -0.005699 0.000635 0.000000 0.000000
# 3 -0.005699 -0.005699 0.015370 0.000000 0.000000 0.000000
# 4 -0.000635 0.000635 0.000000 0.029259 0.000000 0.000000
# 5 0.000000 0.000000 0.000000 0.000000 0.029259 -0.001271
# 6 0.000000 0.000000 0.000000 0.000000 -0.001271 0.027408
#
#
# Mechanical properties :
#
#
# Convention : Reuss Voigt Hill
#
# Bulk Modulus (GPa) = 71.13764 71.31850 71.22807
# Shear Modulus (GPa) = 32.01382 33.00198 32.50790
#
# Velocity S-wave (km/s) = 3.95979 4.02044 3.99023
# Velocity P-wave (km/s) = 7.46651 7.51549 7.49104
#
# Compressibility (1/GPa) = 0.01405726
#
# Stress axis : x y z
#
# Youngs Moduli (GPa) = 81.81647 81.81647 65.06384
#
# Poissons Ratio (x) = 0.12119 0.37078
# Poissons Ratio (y) = 0.12119 0.37078
# Poissons Ratio (z) = 0.46624 0.46624
#
# Static dielectric constant tensor:
#      x y z
#    x 3.875500 0.000000 0.000000 
#    y 0.000000 3.875500 0.000000 
#    z 0.000000 0.000000 3.701030 
# 
# 
# High freq. dielectric constant tensor:
#      x y z
#    x 1.805650 0.000000 0.000000 
#    y 0.000000 1.805650 0.000000 
#    z 0.000000 0.000000 1.797440 
# 
# From -- ./inp_files/4712.got.cif
#   From: 2010.03.12/outbox.cif.g09.slc.cpg/sg167_3_cif.got.tgz:4712.got - 2010.04.02 06:42:56.
