data_PCOD8324776
_publ_section_title
;
Structure prediction by ZEFSAII (Michael W. Deem and Ramdas Pophale) SiO2 
 PCOD8324776
Probable space group: P 62
;
_chemical_formula_sum "Si O2"
_cell_formula_units_Z 36
_cell_length_a 8.518530
_cell_length_b 8.518530
_cell_length_c 27.129674
_cell_angle_alpha 90.000000
_cell_angle_beta 90.000000
_cell_angle_gamma 120.000000
_cell_volume 1704.922025
_symmetry_space_group_name_H-M "P 62"
_symmetry_group_IT_number 171
_symmetry_cell_setting 'hexagonal'
loop_
_space_group_symop_operation_xyz
x,y,z
x-y,x,1/3+z
-y,x-y,2/3+z
-x,-y,z
-x+y,-x,1/3+z
y,-x+y,2/3+z
loop_
_atom_site_type_symbol
_atom_site_label
_atom_site_fract_x
_atom_site_fract_y
_atom_site_fract_z
Si Si1 0.195987 0.516654 0.299090
Si Si2 0.498863 0.819301 0.482372
Si Si3 0.824834 0.002206 0.208038
Si Si4 0.177689 0.140774 0.311398
Si Si5 0.484191 0.672236 0.377914
Si Si6 0.347173 0.797712 0.876025
O O1 0.171829 0.317278 0.292108
O O2 0.288487 0.602100 0.352129
O O3 0.333449 0.650162 0.257047
O O4 0.000000 0.500000 0.295467
O O5 0.644478 0.816345 0.519320
O O6 0.526045 0.798605 0.425013
O O7 0.294919 0.665145 0.494377
O O8 0.500000 0.000000 0.493410
O O9 0.836529 0.994840 0.267255
O O10 0.633926 0.831508 0.195583
O O11 0.000000 0.000000 0.184504
O O12 0.362177 0.202293 0.339403
O O13 0.000000 0.000000 0.343841
O O14 0.500000 0.500000 0.394245
O O15 0.500000 0.000000 0.884704
#
# Coordination Sequence:
#
# PCOD8324776 Si02
#       6
#     6   6   6   6   6   6
#     4  11  23  41  71 103 137 178 233 292 342 415
#     4  12  28  44  66 103 145 187 233 285 347 415
#     4  11  23  43  68 102 135 179 231 286 346 408
#     4  10  22  41  70 100 135 178 227 282 350 410
#     4  10  22  48  68  95 141 184 229 288 352 412
#     4  12  22  43  69 100 136 182 230 288 339 405
#
# _framework density 21.115334000000001
#
# number of rings (size 3 to 8) (size 9 to 14) (size 15 to 20)
#    0.000    1.000    3.333    3.500    7.000    2.667 
#    0.000    3.333    0.000    0.000    0.000    0.000 
#    0.000    0.000    0.000    0.000    0.000    0.000 
#
# Total GULP energy -446059.859382 kJ/mol
# GULP energy per Si atom -12390.551650 kJ/mol
# Density = 2.106727 g / cm^3
# Si number density = 21.115334 Si / 1000 Ang^3
#
#
#
# Elastic Constant Matrix: (Units=GPa)
#
#
# Indices 1 2 3 4 5 6 
#
# 1 141.2826 62.2960 54.0227 0.0000 0.0000 0.0000
# 2 62.2960 141.2826 54.0227 0.0000 0.0000 0.0000
# 3 54.0227 54.0227 90.7041 0.0000 0.0000 0.0000
# 4 0.0000 0.0000 0.0000 25.8982 0.0000 0.0000
# 5 0.0000 0.0000 0.0000 0.0000 25.8982 0.0000
# 6 0.0000 0.0000 0.0000 0.0000 0.0000 39.4933
#
#
#
# Elastic Compliance Matrix: (Units=1/GPa)
#
#
# Indices 1 2 3 4 5 6 
#
# 1 0.009921 -0.002739 -0.004278 0.000000 0.000000 0.000000
# 2 -0.002739 0.009921 -0.004278 0.000000 0.000000 0.000000
# 3 -0.004278 -0.004278 0.016121 0.000000 0.000000 0.000000
# 4 0.000000 0.000000 0.000000 0.038613 0.000000 0.000000
# 5 0.000000 0.000000 0.000000 0.000000 0.038613 0.000000
# 6 0.000000 0.000000 0.000000 0.000000 0.000000 0.025321
#
#
# Mechanical properties :
#
#
# Convention : Reuss Voigt Hill
#
# Bulk Modulus (GPa) = 74.77093 79.32803 77.04948
# Shear Modulus (GPa) = 30.20107 31.78645 30.99376
#
# Velocity S-wave (km/s) = 3.78602 3.88412 3.83539
# Velocity P-wave (km/s) = 7.38915 7.60037 7.49551
#
# Compressibility (1/GPa) = 0.01337418
#
# Stress axis : x y z
#
# Youngs Moduli (GPa) = 100.79192 100.79192 62.03254
#
# Poissons Ratio (x) = 0.27606 0.26537
# Poissons Ratio (y) = 0.27606 0.26537
# Poissons Ratio (z) = 0.43117 0.43117
#
# Static dielectric constant tensor:
#      x y z
#    x 4.195170 0.000000 0.000000 
#    y 0.000000 4.195170 0.000000 
#    z 0.000000 0.000000 3.629750 
# 
# 
# High freq. dielectric constant tensor:
#      x y z
#    x 1.842050 0.000000 0.000000 
#    y 0.000000 1.842050 0.000000 
#    z 0.000000 0.000000 1.807190 
# 
# From -- ./inp_files/5773.got.cif
#   From: 2010.03.12/outbox.cif.g09.slc.cpg/sg171_3_cif.got.tgz:5773.got - 2010.04.02 06:49:11.
