data_PCOD8324758
_publ_section_title
;
Structure prediction by ZEFSAII (Michael W. Deem and Ramdas Pophale) SiO2 
 PCOD8324758
Probable space group: P 62
;
_chemical_formula_sum "Si O2"
_cell_formula_units_Z 36
_cell_length_a 12.830372
_cell_length_b 12.830372
_cell_length_c 12.862837
_cell_angle_alpha 90.000000
_cell_angle_beta 90.000000
_cell_angle_gamma 120.000000
_cell_volume 1833.774354
_symmetry_space_group_name_H-M "P 62"
_symmetry_group_IT_number 171
_symmetry_cell_setting 'hexagonal'
loop_
_space_group_symop_operation_xyz
x,y,z
x-y,x,1/3+z
-y,x-y,2/3+z
-x,-y,z
-x+y,-x,1/3+z
y,-x+y,2/3+z
loop_
_atom_site_type_symbol
_atom_site_label
_atom_site_fract_x
_atom_site_fract_y
_atom_site_fract_z
Si Si1 0.852367 0.593578 0.940230
Si Si2 0.500000 0.500000 0.050655
Si Si3 0.852537 0.258523 0.483225
Si Si4 0.866566 0.839075 0.252204
Si Si5 0.129073 0.960249 0.152850
Si Si6 0.191771 0.595700 0.212379
Si Si7 0.000000 0.500000 0.040567
O O1 0.893874 0.690644 0.848537
O O2 0.737377 0.465981 0.905006
O O3 0.821012 0.642078 0.044945
O O4 0.965320 0.577090 0.965328
O O5 0.611577 0.576650 0.126102
O O6 0.475900 0.587548 0.978101
O O7 0.895395 0.200426 0.572585
O O8 0.729522 0.467502 0.186963
O O9 0.849434 0.884111 0.363766
O O10 0.003831 0.891140 0.215935
O O11 0.804788 0.898224 0.182442
O O12 0.111706 0.587516 0.113255
#
# Coordination Sequence:
#
# PCOD8324758 Si02
#       7
#     6   3   6   6   6   6   3
#     4  10  21  39  63  89 120 160 204 262 303 375
#     4   9  20  38  59  92 114 162 205 250 317 356
#     4  10  21  39  63  89 120 160 204 262 303 375
#     4  11  23  38  59  91 124 164 202 253 311 372
#     4  11  23  38  59  91 124 164 202 253 311 372
#     4   9  20  36  64  88 116 160 215 252 304 369
#     4   9  20  38  59  92 114 162 205 250 317 356
#
# _framework density 19.631640000000001
#
# number of rings (size 3 to 8) (size 9 to 14) (size 15 to 20)
#    0.000    2.000    0.000    4.000   14.000    0.000 
#    3.000    4.167    0.000    0.000    0.000    0.000 
#    0.000    0.000    0.000    0.000    0.000    0.000 
#
# Total GULP energy -446158.609638 kJ/mol
# GULP energy per Si atom -12393.294712 kJ/mol
# Density = 1.958696 g / cm^3
# Si number density = 19.631640 Si / 1000 Ang^3
#
#
#
# Elastic Constant Matrix: (Units=GPa)
#
#
# Indices 1 2 3 4 5 6 
#
# 1 99.6979 54.8988 33.5322 0.0000 0.0000 0.0000
# 2 54.8988 99.6979 33.5322 0.0000 0.0000 0.0000
# 3 33.5322 33.5322 76.9524 0.0000 0.0000 0.0000
# 4 0.0000 0.0000 0.0000 26.8943 0.0000 0.0000
# 5 0.0000 0.0000 0.0000 0.0000 26.8943 0.0000
# 6 0.0000 0.0000 0.0000 0.0000 0.0000 22.3996
#
#
#
# Elastic Compliance Matrix: (Units=1/GPa)
#
#
# Indices 1 2 3 4 5 6 
#
# 1 0.015149 -0.007173 -0.003476 0.000000 0.000000 0.000000
# 2 -0.007173 0.015149 -0.003476 0.000000 0.000000 0.000000
# 3 -0.003476 -0.003476 0.016024 0.000000 0.000000 0.000000
# 4 0.000000 0.000000 0.000000 0.037183 0.000000 0.000000
# 5 0.000000 0.000000 0.000000 0.000000 0.037183 0.000000
# 6 0.000000 0.000000 0.000000 0.000000 0.000000 0.044644
#
#
# Mechanical properties :
#
#
# Convention : Reuss Voigt Hill
#
# Bulk Modulus (GPa) = 55.32845 57.80829 56.56837
# Shear Modulus (GPa) = 25.04959 25.52995 25.28977
#
# Velocity S-wave (km/s) = 3.57596 3.61009 3.59306
# Velocity P-wave (km/s) = 6.73012 6.84744 6.78903
#
# Compressibility (1/GPa) = 0.01807389
#
# Stress axis : x y z
#
# Youngs Moduli (GPa) = 66.01085 66.01085 62.40602
#
# Poissons Ratio (x) = 0.47349 0.21690
# Poissons Ratio (y) = 0.47349 0.21690
# Poissons Ratio (z) = 0.22943 0.22943
#
# Static dielectric constant tensor:
#      x y z
#    x 3.530360 0.000000 0.000000 
#    y 0.000000 3.530360 0.000000 
#    z 0.000000 0.000000 3.564600 
# 
# 
# High freq. dielectric constant tensor:
#      x y z
#    x 1.752930 0.000000 0.000000 
#    y 0.000000 1.752930 0.000000 
#    z 0.000000 0.000000 1.763770 
# 
# From -- ./inp_files/1629.got.cif
#   From: 2010.03.12/outbox.cif.g09.slc.cpg/sg171_1_cif.got.tgz:1629.got - 2010.04.02 06:49:11.
