data_PCOD8324627
_publ_section_title
;
Structure prediction by ZEFSAII (Michael W. Deem and Ramdas Pophale) SiO2 
 PCOD8324627
Probable space group: P 65
;
_chemical_formula_sum "Si O2"
_cell_formula_units_Z 42
_cell_length_a 15.077972
_cell_length_b 15.077972
_cell_length_c 11.721044
_cell_angle_alpha 90.000000
_cell_angle_beta 90.000000
_cell_angle_gamma 120.000000
_cell_volume 2307.718294
_symmetry_space_group_name_H-M "P 65"
_symmetry_group_IT_number 170
_symmetry_cell_setting 'hexagonal'
loop_
_space_group_symop_operation_xyz
x,y,z
x-y,x,5/6+z
-y,x-y,2/3+z
-x,-y,1/2+z
-x+y,-x,1/3+z
y,-x+y,1/6+z
loop_
_atom_site_type_symbol
_atom_site_label
_atom_site_fract_x
_atom_site_fract_y
_atom_site_fract_z
Si Si1 0.949028 0.616766 0.105070
Si Si2 0.173843 0.143101 0.032228
Si Si3 0.385219 0.696988 0.005119
Si Si4 0.641497 0.642488 0.532749
Si Si5 0.780884 0.479225 0.360476
Si Si6 0.858920 0.201751 0.555333
Si Si7 0.441380 0.851955 0.822159
O O1 0.001020 0.642306 0.229235
O O2 0.845720 0.625679 0.114791
O O3 0.032970 0.700660 0.018091
O O4 0.928778 0.506873 0.064507
O O5 0.254477 0.257996 0.077086
O O6 0.138433 0.063998 0.138837
O O7 0.232640 0.113511 0.938418
O O8 0.353563 0.764708 0.081725
O O9 0.452419 0.659561 0.075131
O O10 0.287329 0.590760 0.963545
O O11 0.449441 0.767269 0.899462
O O12 0.536498 0.638507 0.571886
O O13 0.639518 0.543876 0.583182
O O14 0.760525 0.570278 0.321305
#
# Coordination Sequence:
#
# PCOD8324627 Si02
#       7
#     6   6   6   6   6   6   6
#     4  10  20  34  55  85 110 148 190 239 281 348
#     4  10  19  36  62  84 108 137 189 245 283 340
#     4  10  20  35  54  79 113 151 188 235 278 342
#     4  10  21  35  58  85 113 150 188 237 292 350
#     4   9  19  33  53  81 109 144 189 230 275 333
#     4  10  17  32  55  81 109 137 192 228 281 329
#     4  11  22  37  55  81 120 151 192 232 290 344
#
# _framework density 18.199795000000002
#
# number of rings (size 3 to 8) (size 9 to 14) (size 15 to 20)
#    0.000    2.286    5.714    0.857    4.000    0.000 
#    0.000    0.000    3.143    0.000    0.000    0.000 
#    0.000    0.000    0.000    0.000    0.000    0.000 
#
# Total GULP energy -520387.272591 kJ/mol
# GULP energy per Si atom -12390.173157 kJ/mol
# Density = 1.815837 g / cm^3
# Si number density = 18.199795 Si / 1000 Ang^3
#
#
#
# Elastic Constant Matrix: (Units=GPa)
#
#
# Indices 1 2 3 4 5 6 
#
# 1 97.4688 46.7629 33.4036 0.0000 0.0000 0.0000
# 2 46.7629 97.4688 33.4036 0.0000 0.0000 0.0000
# 3 33.4036 33.4036 51.9389 0.0000 0.0000 0.0000
# 4 0.0000 0.0000 0.0000 17.3239 0.0000 0.0000
# 5 0.0000 0.0000 0.0000 0.0000 17.3239 0.0000
# 6 0.0000 0.0000 0.0000 0.0000 0.0000 25.3530
#
#
#
# Elastic Compliance Matrix: (Units=1/GPa)
#
#
# Indices 1 2 3 4 5 6 
#
# 1 0.014798 -0.004923 -0.006351 0.000000 0.000000 0.000000
# 2 -0.004923 0.014798 -0.006351 0.000000 0.000000 0.000000
# 3 -0.006351 -0.006351 0.027422 0.000000 0.000000 0.000000
# 4 0.000000 0.000000 0.000000 0.057724 0.000000 0.000000
# 5 0.000000 0.000000 0.000000 0.000000 0.057724 0.000000
# 6 0.000000 0.000000 0.000000 0.000000 0.000000 0.039443
#
#
# Mechanical properties :
#
#
# Convention : Reuss Voigt Hill
#
# Bulk Modulus (GPa) = 45.93762 52.66852 49.30307
# Shear Modulus (GPa) = 19.65287 20.88727 20.27007
#
# Velocity S-wave (km/s) = 3.28966 3.39140 3.34091
# Velocity P-wave (km/s) = 6.30275 6.65863 6.48313
#
# Compressibility (1/GPa) = 0.02176865
#
# Stress axis : x y z
#
# Youngs Moduli (GPa) = 67.57542 67.57542 36.46653
#
# Poissons Ratio (x) = 0.33269 0.23160
# Poissons Ratio (y) = 0.33269 0.23160
# Poissons Ratio (z) = 0.42917 0.42917
#
# Static dielectric constant tensor:
#      x y z
#    x 3.399850 0.000000 0.000000 
#    y 0.000000 3.399850 0.000000 
#    z 0.000000 0.000000 3.128880 
# 
# 
# High freq. dielectric constant tensor:
#      x y z
#    x 1.703190 0.000000 0.000000 
#    y 0.000000 1.703190 0.000000 
#    z 0.000000 0.000000 1.671870 
# 
# From -- ./inp_files/955.got.cif
#   From: 2010.03.12/outbox.cif.g09.slc.cpg/sg170_cif.got.tgz:955.got - 2010.04.02 06:47:37.
