data_PCOD8324527
_publ_section_title
;
Structure prediction by ZEFSAII (Michael W. Deem and Ramdas Pophale) SiO2 
 PCOD8324527
Probable space group: P 61
;
_chemical_formula_sum "Si O2"
_cell_formula_units_Z 48
_cell_length_a 14.481864
_cell_length_b 14.481864
_cell_length_c 13.587976
_cell_angle_alpha 90.000000
_cell_angle_beta 90.000000
_cell_angle_gamma 120.000000
_cell_volume 2467.938495
_symmetry_space_group_name_H-M "P 61"
_symmetry_group_IT_number 169
_symmetry_cell_setting 'hexagonal'
loop_
_space_group_symop_operation_xyz
x,y,z
x-y,x,1/6+z
-y,x-y,1/3+z
-x,-y,1/2+z
-x+y,-x,2/3+z
y,-x+y,5/6+z
loop_
_atom_site_type_symbol
_atom_site_label
_atom_site_fract_x
_atom_site_fract_y
_atom_site_fract_z
Si Si1 0.818758 0.585873 0.592300
Si Si2 0.404881 0.153897 0.135063
Si Si3 0.934573 0.841763 0.060999
Si Si4 0.841225 0.929595 0.192396
Si Si5 0.359069 0.071725 0.748840
Si Si6 0.287448 0.646442 0.018306
Si Si7 0.639928 0.731817 0.812619
Si Si8 0.399204 0.595458 0.848003
O O1 0.815673 0.616002 0.703674
O O2 0.753965 0.625164 0.522079
O O3 0.764046 0.458910 0.584406
O O4 0.944682 0.639882 0.576257
O O5 0.527873 0.190951 0.151408
O O6 0.360386 0.194302 0.223944
O O7 0.346554 0.028646 0.114293
O O8 0.839472 0.835983 0.127032
O O9 0.046354 0.926248 0.116229
O O10 0.914877 0.722959 0.061220
O O11 0.879678 0.922941 0.304213
O O12 0.720378 0.902673 0.189066
O O13 0.469793 0.116998 0.691077
O O14 0.377920 0.750183 0.074304
O O15 0.345558 0.636041 0.924593
O O16 0.526037 0.660828 0.864025
#
# Coordination Sequence:
#
# PCOD8324527 Si02
#       8
#     6   6   6   6   6   6   6   6
#     4  11  22  40  63  91 128 161 208 255 314 371
#     4  11  22  40  63  91 128 161 208 255 314 371
#     4  10  21  41  62  90 129 170 216 260 311 370
#     4  10  21  41  62  90 129 170 216 260 311 370
#     4  11  22  40  63  94 127 165 207 258 310 382
#     4  10  21  42  66  88 122 162 205 262 314 372
#     4  11  22  40  63  94 127 165 207 258 310 382
#     4  10  23  40  66  94 120 162 209 256 318 368
#
# _framework density 19.449432999999999
#
# number of rings (size 3 to 8) (size 9 to 14) (size 15 to 20)
#    0.000    1.500    3.750    1.500    0.000    2.000 
#    9.000    0.000    0.000    0.000    0.000    0.000 
#    0.000    0.000    0.000    0.000    0.000    0.000 
#
# Total GULP energy -594746.463816 kJ/mol
# GULP energy per Si atom -12390.551330 kJ/mol
# Density = 1.940516 g / cm^3
# Si number density = 19.449433 Si / 1000 Ang^3
#
#
#
# Elastic Constant Matrix: (Units=GPa)
#
#
# Indices 1 2 3 4 5 6 
#
# 1 124.0239 -2.1924 14.6465 0.0000 0.0000 0.0000
# 2 -2.1924 124.0239 14.6465 0.0000 0.0000 0.0000
# 3 14.6465 14.6465 43.0618 0.0000 0.0000 0.0000
# 4 0.0000 0.0000 0.0000 24.2334 0.0000 0.0000
# 5 0.0000 0.0000 0.0000 0.0000 24.2334 0.0000
# 6 0.0000 0.0000 0.0000 0.0000 0.0000 63.1082
#
#
#
# Elastic Compliance Matrix: (Units=1/GPa)
#
#
# Indices 1 2 3 4 5 6 
#
# 1 0.008431 0.000508 -0.003040 0.000000 0.000000 0.000000
# 2 0.000508 0.008431 -0.003040 0.000000 0.000000 0.000000
# 3 -0.003040 -0.003040 0.025291 0.000000 0.000000 0.000000
# 4 0.000000 0.000000 0.000000 0.041265 0.000000 0.000000
# 5 0.000000 0.000000 0.000000 0.000000 0.041265 0.000000
# 6 0.000000 0.000000 0.000000 0.000000 0.000000 0.015846
#
#
# Mechanical properties :
#
#
# Convention : Reuss Voigt Hill
#
# Bulk Modulus (GPa) = 32.25061 38.36787 35.30924
# Shear Modulus (GPa) = 30.86221 39.91561 35.38891
#
# Velocity S-wave (km/s) = 3.98778 4.53512 4.27023
# Velocity P-wave (km/s) = 6.14987 6.86971 6.51973
#
# Compressibility (1/GPa) = 0.03100717
#
# Stress axis : x y z
#
# Youngs Moduli (GPa) = 118.60991 118.60991 39.54021
#
# Poissons Ratio (x) = -0.06027 0.12022
# Poissons Ratio (y) = -0.06027 0.12022
# Poissons Ratio (z) = 0.36063 0.36063
#
# Static dielectric constant tensor:
#      x y z
#    x 3.713890 0.000000 0.000000 
#    y 0.000000 3.713890 0.000000 
#    z 0.000000 0.000000 3.550550 
# 
# 
# High freq. dielectric constant tensor:
#      x y z
#    x 1.765300 0.000000 0.000000 
#    y 0.000000 1.765300 0.000000 
#    z 0.000000 0.000000 1.752910 
# 
# From -- ./inp_files/1019.got.cif
#   From: 2010.03.12/outbox.cif.g09.slc.cpg/sg169_cif.got.tgz:1019.got - 2010.04.02 06:46:06.
