data_PCOD8324453
_publ_section_title
;
Structure prediction by ZEFSAII (Michael W. Deem and Ramdas Pophale) SiO2 
 PCOD8324453
Probable space group: P 61
;
_chemical_formula_sum "Si O2"
_cell_formula_units_Z 42
_cell_length_a 20.379415
_cell_length_b 20.379415
_cell_length_c 5.486589
_cell_angle_alpha 90.000000
_cell_angle_beta 90.000000
_cell_angle_gamma 120.000000
_cell_volume 1973.406192
_symmetry_space_group_name_H-M "P 61"
_symmetry_group_IT_number 169
_symmetry_cell_setting 'hexagonal'
loop_
_space_group_symop_operation_xyz
x,y,z
x-y,x,1/6+z
-y,x-y,1/3+z
-x,-y,1/2+z
-x+y,-x,2/3+z
y,-x+y,5/6+z
loop_
_atom_site_type_symbol
_atom_site_label
_atom_site_fract_x
_atom_site_fract_y
_atom_site_fract_z
Si Si1 0.049168 0.385956 0.761890
Si Si2 0.946216 0.551137 0.761232
Si Si3 0.515439 0.891769 0.925449
Si Si4 0.327942 0.449973 0.091687
Si Si5 0.706352 0.896378 0.516081
Si Si6 0.161267 0.088535 0.729531
Si Si7 0.060782 0.259011 0.542744
O O1 0.086897 0.434573 0.512572
O O2 0.063745 0.315243 0.756601
O O3 0.959144 0.355826 0.760919
O O4 0.087051 0.431826 0.013481
O O5 0.927409 0.465615 0.754967
O O6 0.035984 0.603746 0.759976
O O7 0.503420 0.842139 0.678413
O O8 0.502667 0.842105 0.173292
O O9 0.244737 0.377375 0.084555
O O10 0.753521 0.881604 0.314040
O O11 0.702807 0.845172 0.744794
O O12 0.745752 0.987248 0.551196
O O13 0.114555 0.113170 0.901050
O O14 0.176421 0.132920 0.473601
#
# Coordination Sequence:
#
# PCOD8324453 Si02
#       7
#     6   6   6   6   6   6   6
#     4  10  20  32  54  82 119 148 198 230 293 374
#     4  10  18  32  56  86 121 153 187 217 279 374
#     4  10  18  32  56  86 121 153 187 217 279 374
#     4  10  20  32  54  82 119 148 198 230 293 374
#     4  12  25  41  59  82 109 161 218 286 352 426
#     4  12  28  42  64  78 104 146 230 310 392 436
#     4  12  25  41  59  82 109 161 218 286 352 426
#
# _framework density 21.282999
#
# number of rings (size 3 to 8) (size 9 to 14) (size 15 to 20)
#    0.000    1.143    5.714    4.286    8.000    1.143 
#    0.000    0.000    0.000    0.000    0.000    0.000 
#    0.000    0.000    0.000    7.714   14.000    0.571 
#
# Total GULP energy -520359.162761 kJ/mol
# GULP energy per Si atom -12389.503875 kJ/mol
# Density = 2.123456 g / cm^3
# Si number density = 21.282999 Si / 1000 Ang^3
#
#
#
# Elastic Constant Matrix: (Units=GPa)
#
#
# Indices 1 2 3 4 5 6 
#
# 1 18.8770 52.2813 18.2923 0.0000 0.0000 0.0000
# 2 52.2813 18.8770 18.2923 0.0000 0.0000 0.0000
# 3 18.2923 18.2923 171.3796 0.0000 0.0000 0.0000
# 4 0.0000 0.0000 0.0000 25.6328 0.0000 0.0000
# 5 0.0000 0.0000 0.0000 0.0000 25.6328 0.0000
# 6 0.0000 0.0000 0.0000 0.0000 0.0000 -16.7022
#
#
#
# Elastic Compliance Matrix: (Units=1/GPa)
#
#
# Indices 1 2 3 4 5 6 
#
# 1 -0.007534 0.022403 -0.001587 0.000000 0.000000 0.000000
# 2 0.022403 -0.007534 -0.001587 0.000000 0.000000 0.000000
# 3 -0.001587 -0.001587 0.006174 0.000000 0.000000 0.000000
# 4 0.000000 0.000000 0.000000 0.039013 0.000000 0.000000
# 5 0.000000 0.000000 0.000000 0.000000 0.039013 0.000000
# 6 0.000000 0.000000 0.000000 0.000000 0.000000 -0.059872
#
#
# Mechanical properties :
#
#
# Convention : Reuss Voigt Hill
#
# Bulk Modulus (GPa) = 33.82518 42.98506 38.40512
# Shear Modulus (GPa) = -258.48926 14.93052 -121.77937
#
# Velocity S-wave (km/s) = -11.03255 2.65150 -7.57254
# Velocity P-wave (km/s) = 12.09801 5.44194 7.64026
#
# Compressibility (1/GPa) = 0.02956378
#
# Stress axis : x y z
#
# Youngs Moduli (GPa) = -132.73946 -132.73946 161.97502
#
# Poissons Ratio (x) = 2.97372 0.25706
# Poissons Ratio (y) = 2.97372 0.25706
# Poissons Ratio (z) = -0.21067 -0.21067
#
# Static dielectric constant tensor:
#      x y z
#    x 3.525880 0.000000 0.000000 
#    y 0.000000 3.525880 0.000000 
#    z 0.000000 0.000000 5.102690 
# 
# 
# High freq. dielectric constant tensor:
#      x y z
#    x 1.793430 0.000000 0.000000 
#    y 0.000000 1.793430 0.000000 
#    z 0.000000 0.000000 1.863870 
# 
# From -- ./inp_files/271.got.cif
#   From: 2010.03.12/outbox.cif.g09.slc.cpg/sg169_cif.got.tgz:271.got - 2010.04.02 06:46:06.
