data_PCOD8324418
_publ_section_title
;
Structure prediction by ZEFSAII (Michael W. Deem and Ramdas Pophale) SiO2 
 PCOD8324418
Probable space group: R -3 C 
;
_chemical_formula_sum "Si O2"
_cell_formula_units_Z 138
_cell_length_a 17.711571
_cell_length_b 17.711571
_cell_length_c 21.770656
_cell_angle_alpha 90.000000
_cell_angle_beta 90.000000
_cell_angle_gamma 120.000000
_cell_volume 5914.476575
_symmetry_space_group_name_H-M "R -3 C "
_symmetry_group_IT_number 167
_symmetry_cell_setting 'hexagonal'
loop_
_space_group_symop_operation_xyz
x,y,z
-y,x-y,z
-x+y,-x,z
x-y,-y,1/2-z
-x,-x+y,1/2-z
y,x,1/2-z
-x,-y,-z
y,-x+y,-z
x-y,x,-z
-x+y,y,1/2+z
x,x-y,1/2+z
-y,-x,1/2+z
2/3+x,1/3+y,1/3+z
2/3-y,1/3+x-y,1/3+z
2/3-x+y,1/3-x,1/3+z
2/3+x-y,1/3-y,5/6-z
2/3-x,1/3-x+y,5/6-z
2/3+y,1/3+x,5/6-z
2/3-x,1/3-y,1/3-z
2/3+y,1/3-x+y,1/3-z
2/3+x-y,1/3+x,1/3-z
2/3-x+y,1/3+y,5/6+z
2/3+x,1/3+x-y,5/6+z
2/3-y,1/3-x,5/6+z
1/3+x,2/3+y,2/3+z
1/3-y,2/3+x-y,2/3+z
1/3-x+y,2/3-x,2/3+z
1/3+x-y,2/3-y,1/6-z
1/3-x,2/3-x+y,1/6-z
1/3+y,2/3+x,1/6-z
1/3-x,2/3-y,2/3-z
1/3+y,2/3-x+y,2/3-z
1/3+x-y,2/3+x,2/3-z
1/3-x+y,2/3+y,1/6+z
1/3+x,2/3+x-y,1/6+z
1/3-y,2/3-x,1/6+z
loop_
_atom_site_type_symbol
_atom_site_label
_atom_site_fract_x
_atom_site_fract_y
_atom_site_fract_z
Si Si1 0.333334 0.666667 0.594639
Si Si2 0.504206 0.424803 0.111836
Si Si3 0.229605 0.469182 0.081740
Si Si4 0.672840 0.080925 0.823190
Si Si5 0.666667 0.069278 0.583334
O O1 0.333335 0.666668 0.666667
O O2 0.267260 0.569624 0.571408
O O3 0.485411 0.333334 0.083334
O O4 0.527036 0.430667 0.182869
O O5 0.419450 0.436055 0.110880
O O6 0.581746 0.502234 0.072982
O O7 0.151594 0.460590 0.124047
O O8 0.266167 0.411875 0.112780
O O9 0.640813 0.987740 0.855653
#
# Coordination Sequence:
#
# PCOD8324418 Si02
#       5
#    12  36  36  36  18
#     4  12  24  42  76 110 148 207 267 319 383 466
#     4  12  31  50  75 112 160 208 255 326 407 479
#     4  12  25  48  75 115 157 204 268 326 388 475
#     4  12  24  47  81 113 152 205 264 327 393 466
#     4  12  28  50  76 112 154 204 260 324 406 470
#
# _framework density 23.332581000000001
#
# number of rings (size 3 to 8) (size 9 to 14) (size 15 to 20)
#    0.000    0.000    7.826    0.000    7.304    1.043 
#    0.783    0.000    0.000    0.000    0.000    0.000 
#    0.000    0.000    0.000    0.000    0.000    0.000 
#
# Total GULP energy -570697.000923 kJ/mol
# GULP energy per Si atom -12406.456542 kJ/mol
# Density = 2.327947 g / cm^3
# Si number density = 23.332581 Si / 1000 Ang^3
#
#
#
# Elastic Constant Matrix: (Units=GPa)
#
#
# Indices 1 2 3 4 5 6 
#
# 1 144.3972 47.6617 45.1684 -6.5682 0.0002 0.0000
# 2 47.6617 144.3964 45.1686 6.5680 -0.0002 0.0000
# 3 45.1684 45.1686 111.8927 0.0000 0.0000 0.0000
# 4 -6.5682 6.5680 0.0000 36.3629 0.0000 -0.0002
# 5 0.0002 -0.0002 0.0000 0.0000 36.3630 -6.5682
# 6 0.0000 0.0000 0.0000 -0.0002 -6.5682 48.3678
#
#
#
# Elastic Compliance Matrix: (Units=1/GPa)
#
#
# Indices 1 2 3 4 5 6 
#
# 1 0.008512 -0.002085 -0.002594 0.001914 0.000000 0.000000
# 2 -0.002085 0.008512 -0.002594 -0.001914 0.000000 0.000000
# 3 -0.002594 -0.002594 0.011032 0.000000 0.000000 0.000000
# 4 0.001914 -0.001914 0.000000 0.028192 0.000000 0.000000
# 5 0.000000 0.000000 0.000000 0.000000 0.028192 0.003828
# 6 0.000000 0.000000 0.000000 0.000000 0.003828 0.021195
#
#
# Mechanical properties :
#
#
# Convention : Reuss Voigt Hill
#
# Bulk Modulus (GPa) = 74.02969 75.18706 74.60837
# Shear Modulus (GPa) = 40.10071 41.73126 40.91598
#
# Velocity S-wave (km/s) = 4.15017 4.23370 4.19214
# Velocity P-wave (km/s) = 7.40014 7.49620 7.44832
#
# Compressibility (1/GPa) = 0.01350809
#
# Stress axis : x y z
#
# Youngs Moduli (GPa) = 117.47800 117.47715 90.64720
#
# Poissons Ratio (x) = 0.24496 0.23518
# Poissons Ratio (y) = 0.24496 0.23518
# Poissons Ratio (z) = 0.30479 0.30479
#
# Static dielectric constant tensor:
#      x y z
#    x 3.618240 0.000000 0.000000 
#    y 0.000000 3.618200 0.000040 
#    z 0.000000 0.000040 4.059970 
# 
# 
# High freq. dielectric constant tensor:
#      x y z
#    x 1.935720 0.000000 0.000000 
#    y 0.000000 1.935720 0.000000 
#    z 0.000000 0.000000 1.914600 
# 
# From -- ./inp_files/6084.got.cif
#   From: 2010.03.12/outbox.cif.g09.slc.cpg/sg167_4_cif.got.tgz:6084.got - 2010.04.02 06:42:56.
