data_PCOD8324941
_publ_section_title
;
Structure prediction by ZEFSAII (Michael W. Deem and Ramdas Pophale) SiO2 
 PCOD8324941
Probable space group: P -6
;
_chemical_formula_sum "Si O2"
_cell_formula_units_Z 36
_cell_length_a 16.101079
_cell_length_b 16.101079
_cell_length_c 9.119481
_cell_angle_alpha 90.000000
_cell_angle_beta 90.000000
_cell_angle_gamma 120.000000
_cell_volume 2047.437797
_symmetry_space_group_name_H-M "P -6"
_symmetry_group_IT_number 174
_symmetry_cell_setting 'hexagonal'
loop_
_space_group_symop_operation_xyz
x,y,z
-x+y,-x,-z
-y,x-y,z
x,y,-z
-x+y,-x,z
-y,x-y,-z
loop_
_atom_site_type_symbol
_atom_site_label
_atom_site_fract_x
_atom_site_fract_y
_atom_site_fract_z
Si Si1 0.290375 0.225778 0.166219
Si Si2 0.112351 0.238169 0.831326
Si Si3 0.944539 0.217170 0.672319
Si Si4 0.392350 0.448227 0.171675
Si Si5 0.225903 0.435125 0.669179
Si Si6 0.043296 0.439008 0.667767
O O1 0.175551 0.185983 0.177230
O O2 0.318290 0.165292 0.275502
O O3 0.351592 0.337212 0.213360
O O4 0.316912 0.213907 0.000000
O O5 0.164036 0.328650 0.727178
O O6 0.005684 0.178022 0.762849
O O7 0.107388 0.266694 0.000000
O O8 0.953828 0.204753 0.500000
O O9 0.981253 0.327580 0.714066
O O10 0.325746 0.487530 0.242228
O O11 0.500065 0.510925 0.232408
O O12 0.391691 0.462212 0.000000
O O13 0.251019 0.433259 0.500000
O O14 0.158064 0.481800 0.689799
O O15 0.021153 0.450268 0.500000
#
# Coordination Sequence:
#
# PCOD8324941 Si02
#       6
#     6   6   6   6   6   6
#     4   9  19  34  51  74 102 133 168 207 253 301
#     4   9  17  31  50  71  98 130 163 203 249 296
#     4  10  20  33  52  77 102 133 172 210 253 303
#     4  10  20  33  52  77 102 133 172 210 253 303
#     4   9  17  31  50  71  98 130 163 203 249 296
#     4   9  19  34  51  74 102 133 168 207 253 301
#
# _framework density 17.582951000000001
#
# number of rings (size 3 to 8) (size 9 to 14) (size 15 to 20)
#    0.000    2.667    0.000    4.000    0.000    8.000 
#    2.000    0.000    0.000    0.667    0.000    0.000 
#    0.000    0.000    0.000    0.000    0.000    0.000 
#
# Total GULP energy -446134.717605 kJ/mol
# GULP energy per Si atom -12392.631045 kJ/mol
# Density = 1.754293 g / cm^3
# Si number density = 17.582951 Si / 1000 Ang^3
#
#
#
# Elastic Constant Matrix: (Units=GPa)
#
#
# Indices 1 2 3 4 5 6 
#
# 1 84.5868 45.3665 55.0798 0.0000 0.0000 0.0000
# 2 45.3665 84.5868 55.0798 0.0000 0.0000 0.0000
# 3 55.0798 55.0798 94.3085 0.0000 0.0000 0.0000
# 4 0.0000 0.0000 0.0000 31.3928 0.0000 0.0000
# 5 0.0000 0.0000 0.0000 0.0000 31.3928 0.0000
# 6 0.0000 0.0000 0.0000 0.0000 0.0000 19.6102
#
#
#
# Elastic Compliance Matrix: (Units=1/GPa)
#
#
# Indices 1 2 3 4 5 6 
#
# 1 0.020369 -0.005128 -0.008901 0.000000 0.000000 0.000000
# 2 -0.005128 0.020369 -0.008901 0.000000 0.000000 0.000000
# 3 -0.008901 -0.008901 0.021000 0.000000 0.000000 0.000000
# 4 0.000000 0.000000 0.000000 0.031854 0.000000 0.000000
# 5 0.000000 0.000000 0.000000 0.000000 0.031854 0.000000
# 6 0.000000 0.000000 0.000000 0.000000 0.000000 0.050994
#
#
# Mechanical properties :
#
#
# Convention : Reuss Voigt Hill
#
# Bulk Modulus (GPa) = 62.98282 63.83713 63.40997
# Shear Modulus (GPa) = 21.96903 23.67621 22.82262
#
# Velocity S-wave (km/s) = 3.53859 3.67351 3.60668
# Velocity P-wave (km/s) = 7.25215 7.37414 7.31340
#
# Compressibility (1/GPa) = 0.01587735
#
# Stress axis : x y z
#
# Youngs Moduli (GPa) = 49.09520 49.09520 47.61819
#
# Poissons Ratio (x) = 0.25178 0.42384
# Poissons Ratio (y) = 0.25178 0.42384
# Poissons Ratio (z) = 0.43699 0.43699
#
# Static dielectric constant tensor:
#      x y z
#    x 3.236830 0.000000 0.000000 
#    y 0.000000 3.236830 0.000000 
#    z 0.000000 0.000000 3.327740 
# 
# 
# High freq. dielectric constant tensor:
#      x y z
#    x 1.658310 0.000000 0.000000 
#    y 0.000000 1.658310 0.000000 
#    z 0.000000 0.000000 1.693380 
# 
# From -- ./inp_files/416.got.cif
#   From: 2010.03.12/outbox.cif.g09.slc.cpg/sg174_cif.got.tgz:416.got - 2010.04.02 06:54:58.
