data_PCOD8324856
_publ_section_title
;
Structure prediction by ZEFSAII (Michael W. Deem and Ramdas Pophale) SiO2 
 PCOD8324856
Probable space group: P 63
;
_chemical_formula_sum "Si O2"
_cell_formula_units_Z 36
_cell_length_a 8.523759
_cell_length_b 8.523759
_cell_length_c 29.049023
_cell_angle_alpha 90.000000
_cell_angle_beta 90.000000
_cell_angle_gamma 120.000000
_cell_volume 1827.782379
_symmetry_space_group_name_H-M "P 63"
_symmetry_group_IT_number 173
_symmetry_cell_setting 'hexagonal'
loop_
_space_group_symop_operation_xyz
x,y,z
x-y,x,1/2+z
-y,x-y,z
-x,-y,1/2+z
-x+y,-x,z
y,-x+y,1/2+z
loop_
_atom_site_type_symbol
_atom_site_label
_atom_site_fract_x
_atom_site_fract_y
_atom_site_fract_z
Si Si1 0.327570 0.000971 0.155180
Si Si2 0.200598 0.202757 0.754584
Si Si3 0.127971 0.471427 0.437311
Si Si4 0.000577 0.660362 0.117940
Si Si5 0.671129 0.134712 0.834735
Si Si6 0.657308 0.530023 0.519191
O O1 0.315600 0.008418 0.210040
O O2 0.131178 0.864223 0.134709
O O3 0.399608 0.196625 0.132213
O O4 0.468394 0.934982 0.142749
O O5 0.316115 0.317405 0.798523
O O6 0.998791 0.177680 0.755047
O O7 0.323816 0.484602 0.443528
O O8 0.056687 0.393924 0.386064
O O9 0.981267 0.340536 0.474190
O O10 0.009429 0.647138 0.063072
O O11 0.846162 0.337854 0.828335
O O12 0.484073 0.324422 0.519636
#
# Coordination Sequence:
#
# PCOD8324856 Si02
#       6
#     6   6   6   6   6   6
#     4  12  24  42  62  92 127 166 208 263 318 378
#     4  10  21  38  57  90 121 157 197 255 310 363
#     4   8  18  37  60  83 114 157 207 252 307 371
#     4  12  24  42  62  92 127 166 210 261 316 384
#     4   8  18  37  60  85 109 161 208 245 311 375
#     4  10  21  38  57  92 120 159 204 250 314 363
#
# _framework density 19.695997999999999
#
# number of rings (size 3 to 8) (size 9 to 14) (size 15 to 20)
#    1.333    0.667    3.333    1.000    4.667    0.000 
#    6.000    0.000    0.000    1.333    0.000    0.000 
#    0.000    0.000    0.000    0.000    0.000    0.000 
#
# Total GULP energy -446130.223029 kJ/mol
# GULP energy per Si atom -12392.506195 kJ/mol
# Density = 1.965117 g / cm^3
# Si number density = 19.695998 Si / 1000 Ang^3
#
#
#
# Elastic Constant Matrix: (Units=GPa)
#
#
# Indices 1 2 3 4 5 6 
#
# 1 50.0850 9.6529 40.4185 0.0000 0.0000 0.0000
# 2 9.6529 50.0850 40.4185 0.0000 0.0000 0.0000
# 3 40.4185 40.4185 188.7780 0.0000 0.0000 0.0000
# 4 0.0000 0.0000 0.0000 33.5115 0.0000 0.0000
# 5 0.0000 0.0000 0.0000 0.0000 33.5115 0.0000
# 6 0.0000 0.0000 0.0000 0.0000 0.0000 20.2161
#
#
#
# Elastic Compliance Matrix: (Units=1/GPa)
#
#
# Indices 1 2 3 4 5 6 
#
# 1 0.024150 -0.000582 -0.005046 0.000000 0.000000 0.000000
# 2 -0.000582 0.024150 -0.005046 0.000000 0.000000 0.000000
# 3 -0.005046 -0.005046 0.007458 0.000000 0.000000 0.000000
# 4 0.000000 0.000000 0.000000 0.029841 0.000000 0.000000
# 5 0.000000 0.000000 0.000000 0.000000 0.029841 0.000000
# 6 0.000000 0.000000 0.000000 0.000000 0.000000 0.049466
#
#
# Mechanical properties :
#
#
# Convention : Reuss Voigt Hill
#
# Bulk Modulus (GPa) = 29.06131 52.21419 40.63775
# Shear Modulus (GPa) = 25.28769 30.67835 27.98302
#
# Velocity S-wave (km/s) = 3.58704 3.95092 3.77337
# Velocity P-wave (km/s) = 5.65180 6.88336 6.29775
#
# Compressibility (1/GPa) = 0.03441001
#
# Stress axis : x y z
#
# Youngs Moduli (GPa) = 41.40702 41.40702 134.08383
#
# Poissons Ratio (x) = 0.02411 0.67660
# Poissons Ratio (y) = 0.02411 0.67660
# Poissons Ratio (z) = 0.20894 0.20894
#
# Static dielectric constant tensor:
#      x y z
#    x 3.226230 0.000000 0.000000 
#    y 0.000000 3.226230 0.000000 
#    z 0.000000 0.000000 3.480450 
# 
# 
# High freq. dielectric constant tensor:
#      x y z
#    x 1.741030 0.000000 0.000000 
#    y 0.000000 1.741030 0.000000 
#    z 0.000000 0.000000 1.778360 
# 
# From -- ./inp_files/1474.got.cif
#   From: 2010.03.12/outbox.cif.g09.slc.cpg/sg173_cif.got.tgz:1474.got - 2010.04.02 06:54:12.
