data_PCOD8324747
_publ_section_title
;
Structure prediction by ZEFSAII (Michael W. Deem and Ramdas Pophale) SiO2 
 PCOD8324747
Probable space group: P 62
;
_chemical_formula_sum "Si O2"
_cell_formula_units_Z 33
_cell_length_a 11.872929
_cell_length_b 11.872929
_cell_length_c 12.400849
_cell_angle_alpha 90.000000
_cell_angle_beta 90.000000
_cell_angle_gamma 120.000000
_cell_volume 1513.902104
_symmetry_space_group_name_H-M "P 62"
_symmetry_group_IT_number 171
_symmetry_cell_setting 'hexagonal'
loop_
_space_group_symop_operation_xyz
x,y,z
x-y,x,1/3+z
-y,x-y,2/3+z
-x,-y,z
-x+y,-x,1/3+z
y,-x+y,2/3+z
loop_
_atom_site_type_symbol
_atom_site_label
_atom_site_fract_x
_atom_site_fract_y
_atom_site_fract_z
Si Si1 0.629158 0.118582 0.254990
Si Si2 0.014706 0.260632 0.060679
Si Si3 0.992469 0.738829 0.426995
Si Si4 0.873012 0.999683 0.958691
Si Si5 0.830893 0.355462 0.141614
Si Si6 0.000000 0.500000 0.327481
O O1 0.722865 0.059595 0.279385
O O2 0.689725 0.230227 0.164071
O O3 0.602412 0.172309 0.368048
O O4 0.500000 0.000000 0.204343
O O5 0.148611 0.289802 0.114279
O O6 0.943021 0.317443 0.132656
O O7 0.922747 0.105597 0.053779
O O8 0.939265 0.748400 0.544386
O O9 0.989088 0.604092 0.404310
O O10 0.917785 0.772302 0.334571
O O11 0.000000 0.000000 0.907738
O O12 0.871465 0.439016 0.251797
#
# Coordination Sequence:
#
# PCOD8324747 Si02
#       6
#     6   6   6   6   6   3
#     4  10  22  41  70  93 125 171 224 267 327 393
#     4  10  20  38  68  89 126 166 215 266 327 391
#     4  11  23  37  62 100 132 168 213 269 336 389
#     4  10  22  38  64 101 131 164 212 280 336 391
#     4  11  22  43  66  95 122 179 224 268 321 399
#     4  12  22  38  64  90 132 176 216 264 326 410
#
# _framework density 21.797972999999999
#
# number of rings (size 3 to 8) (size 9 to 14) (size 15 to 20)
#    0.000    1.455    4.545    2.727    5.091    0.000 
#    6.545    0.000    2.000    0.000    0.000    0.000 
#    0.000    0.000    0.000    0.000    0.000    0.000 
#
# Total GULP energy -408814.241200 kJ/mol
# GULP energy per Si atom -12388.310339 kJ/mol
# Density = 2.174836 g / cm^3
# Si number density = 21.797973 Si / 1000 Ang^3
#
#
#
# Elastic Constant Matrix: (Units=GPa)
#
#
# Indices 1 2 3 4 5 6 
#
# 1 109.3514 36.4392 38.4083 0.0000 0.0000 0.0000
# 2 36.4392 109.3514 38.4083 0.0000 0.0000 0.0000
# 3 38.4083 38.4083 60.9468 0.0000 0.0000 0.0000
# 4 0.0000 0.0000 0.0000 18.2727 0.0000 0.0000
# 5 0.0000 0.0000 0.0000 0.0000 18.2727 0.0000
# 6 0.0000 0.0000 0.0000 0.0000 0.0000 36.4561
#
#
#
# Elastic Compliance Matrix: (Units=1/GPa)
#
#
# Indices 1 2 3 4 5 6 
#
# 1 0.011992 -0.001723 -0.006471 0.000000 0.000000 0.000000
# 2 -0.001723 0.011992 -0.006471 0.000000 0.000000 0.000000
# 3 -0.006471 -0.006471 0.024564 0.000000 0.000000 0.000000
# 4 0.000000 0.000000 0.000000 0.054726 0.000000 0.000000
# 5 0.000000 0.000000 0.000000 0.000000 0.054726 0.000000
# 6 0.000000 0.000000 0.000000 0.000000 0.000000 0.027430
#
#
# Mechanical properties :
#
#
# Convention : Reuss Voigt Hill
#
# Bulk Modulus (GPa) = 52.03881 56.24016 54.13949
# Shear Modulus (GPa) = 22.60720 25.69324 24.15022
#
# Velocity S-wave (km/s) = 3.22393 3.43694 3.33214
# Velocity P-wave (km/s) = 6.14682 6.45033 6.30040
#
# Compressibility (1/GPa) = 0.01921643
#
# Stress axis : x y z
#
# Youngs Moduli (GPa) = 83.38880 83.38880 40.70961
#
# Poissons Ratio (x) = 0.14369 0.26345
# Poissons Ratio (y) = 0.14369 0.26345
# Poissons Ratio (z) = 0.53964 0.53964
#
# Static dielectric constant tensor:
#      x y z
#    x 4.265240 0.000000 0.000000 
#    y 0.000000 4.265240 0.000000 
#    z 0.000000 0.000000 3.608010 
# 
# 
# High freq. dielectric constant tensor:
#      x y z
#    x 1.853250 0.000000 0.000000 
#    y 0.000000 1.853250 0.000000 
#    z 0.000000 0.000000 1.834250 
# 
# From -- ./inp_files/1539.got.cif
#   From: 2010.03.12/outbox.cif.g09.slc.cpg/sg171_1_cif.got.tgz:1539.got - 2010.04.02 06:49:11.
