data_PCOD8324017
_publ_section_title
;
Structure prediction by ZEFSAII (Michael W. Deem and Ramdas Pophale) SiO2 
 PCOD8324017
Probable space group: R -3 M
;
_chemical_formula_sum "Si O2"
_cell_formula_units_Z 234
_cell_length_a 26.070332
_cell_length_b 26.070332
_cell_length_c 22.264989
_cell_angle_alpha 90.000000
_cell_angle_beta 90.000000
_cell_angle_gamma 120.000000
_cell_volume 13105.278070
_symmetry_space_group_name_H-M "R -3 M"
_symmetry_group_IT_number 166
_symmetry_cell_setting 'hexagonal'
loop_
_space_group_symop_operation_xyz
x,y,z
-y,x-y,z
-x+y,-x,z
x-y,-y,-z
-x,-x+y,-z
y,x,-z
-x,-y,-z
y,-x+y,-z
x-y,x,-z
-x+y,y,z
x,x-y,z
-y,-x,z
2/3+x,1/3+y,1/3+z
2/3-y,1/3+x-y,1/3+z
2/3-x+y,1/3-x,1/3+z
2/3+x-y,1/3-y,1/3-z
2/3-x,1/3-x+y,1/3-z
2/3+y,1/3+x,1/3-z
2/3-x,1/3-y,1/3-z
2/3+y,1/3-x+y,1/3-z
2/3+x-y,1/3+x,1/3-z
2/3-x+y,1/3+y,1/3+z
2/3+x,1/3+x-y,1/3+z
2/3-y,1/3-x,1/3+z
1/3+x,2/3+y,2/3+z
1/3-y,2/3+x-y,2/3+z
1/3-x+y,2/3-x,2/3+z
1/3+x-y,2/3-y,2/3-z
1/3-x,2/3-x+y,2/3-z
1/3+y,2/3+x,2/3-z
1/3-x,2/3-y,2/3-z
1/3+y,2/3-x+y,2/3-z
1/3+x-y,2/3+x,2/3-z
1/3-x+y,2/3+y,2/3+z
1/3+x,2/3+x-y,2/3+z
1/3-y,2/3-x,2/3+z
loop_
_atom_site_type_symbol
_atom_site_label
_atom_site_fract_x
_atom_site_fract_y
_atom_site_fract_z
Si Si1 0.123752 0.757314 0.889489
Si Si2 0.544098 0.333334 0.833334
Si Si3 0.832284 0.543157 0.386940
Si Si4 0.557352 0.564607 0.313063
Si Si5 0.449403 0.781949 0.377604
Si Si6 0.841645 0.478784 0.503336
Si Si7 0.959298 0.160944 0.391079
O O1 0.174283 0.825718 0.891477
O O2 0.080384 0.747050 0.833334
O O3 0.150304 0.714799 0.878983
O O4 0.088260 0.743620 0.952449
O O5 0.551690 0.275845 0.832762
O O6 0.506727 0.336011 0.890083
O O7 0.767759 0.535518 0.380263
O O8 0.840118 0.506785 0.333334
O O9 0.883468 0.612190 0.384178
O O10 0.837524 0.517081 0.450023
O O11 0.493918 0.506082 0.317243
O O12 0.550047 0.614034 0.275150
O O13 0.382600 0.765200 0.362674
O O14 0.458508 0.729254 0.354293
O O15 0.459830 0.788525 0.449484
O O16 0.494033 0.840567 0.340493
O O17 0.842151 0.421076 0.476549
O O18 0.897497 0.102504 0.401580
#
# Coordination Sequence:
#
# PCOD8324017 Si02
#       7
#    36  18  36  36  36  36  36
#     4   9  15  26  48  74  95 122 162 211 267 313
#     4  10  19  30  50  80 114 148 185 224 270 330
#     4  11  22  35  53  77 106 141 179 224 274 323
#     4   9  17  32  52  73  97 128 172 222 269 314
#     4  10  18  29  47  73 108 144 180 216 257 311
#     4  10  19  32  50  75 106 140 176 215 264 324
#     4   9  17  31  50  72 100 138 176 220 270 318
#
# _framework density 17.855401000000001
#
# number of rings (size 3 to 8) (size 9 to 14) (size 15 to 20)
#    0.000    2.308    1.538    2.538    0.000    2.462 
#    0.000    1.538    5.077    3.692    0.000    0.000 
#    0.000    7.385    0.000    0.000    0.000    0.000 
#
# Total GULP energy -966594.571885 kJ/mol
# GULP energy per Si atom -12392.238101 kJ/mol
# Density = 1.781476 g / cm^3
# Si number density = 17.855401 Si / 1000 Ang^3
#
#
#
# Elastic Constant Matrix: (Units=GPa)
#
#
# Indices 1 2 3 4 5 6 
#
# 1 80.9838 37.5132 43.0435 -3.0215 0.0000 0.0000
# 2 37.5132 80.9838 43.0435 3.0215 0.0000 0.0000
# 3 43.0435 43.0435 107.0916 0.0000 0.0000 0.0000
# 4 -3.0215 3.0215 0.0000 22.5983 0.0000 0.0000
# 5 0.0000 0.0000 0.0000 0.0000 22.5983 -3.0215
# 6 0.0000 0.0000 0.0000 0.0000 -3.0215 21.7353
#
#
#
# Elastic Compliance Matrix: (Units=1/GPa)
#
#
# Indices 1 2 3 4 5 6 
#
# 1 0.017680 -0.005760 -0.004791 0.003134 0.000000 0.000000
# 2 -0.005760 0.017680 -0.004791 -0.003134 0.000000 0.000000
# 3 -0.004791 -0.004791 0.013189 0.000000 0.000000 0.000000
# 4 0.003134 -0.003134 0.000000 0.045089 0.000000 0.000000
# 5 0.000000 0.000000 0.000000 0.000000 0.045089 0.006268
# 6 0.000000 0.000000 0.000000 0.000000 0.006268 0.046879
#
#
# Mechanical properties :
#
#
# Convention : Reuss Voigt Hill
#
# Bulk Modulus (GPa) = 55.97632 57.36217 56.66924
# Shear Modulus (GPa) = 22.49773 23.08363 22.79068
#
# Velocity S-wave (km/s) = 3.55349 3.59947 3.57655
# Velocity P-wave (km/s) = 6.94653 7.03353 6.99017
#
# Compressibility (1/GPa) = 0.01786470
#
# Stress axis : x y z
#
# Youngs Moduli (GPa) = 56.56228 56.56228 75.82095
#
# Poissons Ratio (x) = 0.32580 0.36325
# Poissons Ratio (y) = 0.32580 0.36325
# Poissons Ratio (z) = 0.27098 0.27098
#
# Static dielectric constant tensor:
#      x y z
#    x 3.201640 0.000000 0.000000 
#    y 0.000000 3.201640 0.000000 
#    z 0.000000 0.000000 3.481560 
# 
# 
# High freq. dielectric constant tensor:
#      x y z
#    x 1.667820 0.000000 0.000000 
#    y 0.000000 1.667820 0.000000 
#    z 0.000000 0.000000 1.698610 
# 
# From -- ./inp_files/7256.got.cif
#   From: 2010.03.12/outbox.cif.g09.slc.cpg/sg166_4_cif.got.tgz:7256.got - 2010.04.02 06:38:31.
