data_PCOD8324212
_publ_section_title
;
Structure prediction by ZEFSAII (Michael W. Deem and Ramdas Pophale) SiO2 
 PCOD8324212
Probable space group: R -3 M
;
_chemical_formula_sum "Si O2"
_cell_formula_units_Z 162
_cell_length_a 24.934689
_cell_length_b 24.934689
_cell_length_c 16.210452
_cell_angle_alpha 90.000000
_cell_angle_beta 90.000000
_cell_angle_gamma 120.000000
_cell_volume 8728.380450
_symmetry_space_group_name_H-M "R -3 M"
_symmetry_group_IT_number 166
_symmetry_cell_setting 'hexagonal'
loop_
_space_group_symop_operation_xyz
x,y,z
-y,x-y,z
-x+y,-x,z
x-y,-y,-z
-x,-x+y,-z
y,x,-z
-x,-y,-z
y,-x+y,-z
x-y,x,-z
-x+y,y,z
x,x-y,z
-y,-x,z
2/3+x,1/3+y,1/3+z
2/3-y,1/3+x-y,1/3+z
2/3-x+y,1/3-x,1/3+z
2/3+x-y,1/3-y,1/3-z
2/3-x,1/3-x+y,1/3-z
2/3+y,1/3+x,1/3-z
2/3-x,1/3-y,1/3-z
2/3+y,1/3-x+y,1/3-z
2/3+x-y,1/3+x,1/3-z
2/3-x+y,1/3+y,1/3+z
2/3+x,1/3+x-y,1/3+z
2/3-y,1/3-x,1/3+z
1/3+x,2/3+y,2/3+z
1/3-y,2/3+x-y,2/3+z
1/3-x+y,2/3-x,2/3+z
1/3+x-y,2/3-y,2/3-z
1/3-x,2/3-x+y,2/3-z
1/3+y,2/3+x,2/3-z
1/3-x,2/3-y,2/3-z
1/3+y,2/3-x+y,2/3-z
1/3+x-y,2/3+x,2/3-z
1/3-x+y,2/3+y,2/3+z
1/3+x,2/3+x-y,2/3+z
1/3-y,2/3-x,2/3+z
loop_
_atom_site_type_symbol
_atom_site_label
_atom_site_fract_x
_atom_site_fract_y
_atom_site_fract_z
Si Si1 0.001295 0.500648 0.625225
Si Si2 0.178190 0.700165 0.483288
Si Si3 0.888983 0.111017 0.167143
Si Si4 0.734340 0.734340 0.500000
Si Si5 0.571899 0.612266 0.731066
Si Si6 0.070030 0.596937 0.016186
O O1 0.068724 0.534362 0.580924
O O2 0.996996 0.446862 0.681865
O O3 0.939637 0.469819 0.571725
O O4 0.253009 0.746992 0.481510
O O5 0.158371 0.628928 0.495763
O O6 0.152772 0.720107 0.561602
O O7 0.148522 0.704806 0.397787
O O8 0.666959 0.720007 0.527466
O O9 0.761970 0.784399 0.426158
O O10 0.608259 0.666667 0.666667
O O11 0.072470 0.536235 0.042269
O O12 0.000000 0.580548 0.000000
#
# Coordination Sequence:
#
# PCOD8324212 Si02
#       6
#    18  36  18  18  36  36
#     4  11  24  38  62  90 131 162 199 256 311 374
#     4  11  23  43  63  85 121 162 203 260 306 360
#     4  11  24  42  62  91 121 161 214 258 306 369
#     4  12  24  34  60  87 120 161 200 238 282 374
#     4  12  24  36  58  92 126 163 199 240 306 364
#     4  10  21  39  58  84 118 156 197 241 296 354
#
# _framework density 18.560144000000001
#
# number of rings (size 3 to 8) (size 9 to 14) (size 15 to 20)
#    0.000    0.889    5.556    2.000    4.667    0.000 
#    2.667    0.000    0.000    0.000    0.000    2.333 
#    0.000    3.556    0.000    0.000    0.000    0.000 
#
# Total GULP energy -669557.254536 kJ/mol
# GULP energy per Si atom -12399.208417 kJ/mol
# Density = 1.851790 g / cm^3
# Si number density = 18.560144 Si / 1000 Ang^3
#
#
#
# Elastic Constant Matrix: (Units=GPa)
#
#
# Indices 1 2 3 4 5 6 
#
# 1 97.2604 41.4810 29.9572 1.7258 0.0000 0.0000
# 2 41.4810 97.2604 29.9572 -1.7258 0.0000 0.0000
# 3 29.9572 29.9572 90.8452 0.0000 0.0000 0.0000
# 4 1.7258 -1.7258 0.0000 32.6841 0.0000 0.0000
# 5 0.0000 0.0000 0.0000 0.0000 32.6841 1.7258
# 6 0.0000 0.0000 0.0000 0.0000 1.7258 27.8897
#
#
#
# Elastic Compliance Matrix: (Units=1/GPa)
#
#
# Indices 1 2 3 4 5 6 
#
# 1 0.013196 -0.004791 -0.002771 -0.000950 0.000000 0.000000
# 2 -0.004791 0.013196 -0.002771 0.000950 0.000000 0.000000
# 3 -0.002771 -0.002771 0.012836 0.000000 0.000000 0.000000
# 4 -0.000950 0.000950 0.000000 0.030696 0.000000 0.000000
# 5 0.000000 0.000000 0.000000 0.000000 0.030696 -0.001899
# 6 0.000000 0.000000 0.000000 0.000000 -0.001899 0.035973
#
#
# Mechanical properties :
#
#
# Convention : Reuss Voigt Hill
#
# Bulk Modulus (GPa) = 53.88318 54.23966 54.06142
# Shear Modulus (GPa) = 30.59106 30.91626 30.75366
#
# Velocity S-wave (km/s) = 4.06422 4.08577 4.07501
# Velocity P-wave (km/s) = 7.14972 7.17950 7.16463
#
# Compressibility (1/GPa) = 0.01855867
#
# Stress axis : x y z
#
# Youngs Moduli (GPa) = 75.78328 75.78328 77.90836
#
# Poissons Ratio (x) = 0.36308 0.21592
# Poissons Ratio (y) = 0.36308 0.21592
# Poissons Ratio (z) = 0.21003 0.21003
#
# Static dielectric constant tensor:
#      x y z
#    x 3.323880 0.000000 0.000000 
#    y 0.000000 3.323880 0.000000 
#    z 0.000000 0.000000 3.695930 
# 
# 
# High freq. dielectric constant tensor:
#      x y z
#    x 1.709210 0.000000 0.000000 
#    y 0.000000 1.709210 0.000000 
#    z 0.000000 0.000000 1.740650 
# 
# From -- ./inp_files/5465.got.cif
#   From: 2010.03.12/outbox.cif.g09.slc.cpg/sg166_3_cif.got.tgz:5465.got - 2010.04.02 06:38:31.
