data_PCOD8324173
_publ_section_title
;
Structure prediction by ZEFSAII (Michael W. Deem and Ramdas Pophale) SiO2 
 PCOD8324173
Probable space group: R -3 M
;
_chemical_formula_sum "Si O2"
_cell_formula_units_Z 84
_cell_length_a 14.749696
_cell_length_b 14.749696
_cell_length_c 23.806955
_cell_angle_alpha 90.000000
_cell_angle_beta 90.000000
_cell_angle_gamma 120.000000
_cell_volume 4485.394244
_symmetry_space_group_name_H-M "R -3 M"
_symmetry_group_IT_number 166
_symmetry_cell_setting 'hexagonal'
loop_
_space_group_symop_operation_xyz
x,y,z
-y,x-y,z
-x+y,-x,z
x-y,-y,-z
-x,-x+y,-z
y,x,-z
-x,-y,-z
y,-x+y,-z
x-y,x,-z
-x+y,y,z
x,x-y,z
-y,-x,z
2/3+x,1/3+y,1/3+z
2/3-y,1/3+x-y,1/3+z
2/3-x+y,1/3-x,1/3+z
2/3+x-y,1/3-y,1/3-z
2/3-x,1/3-x+y,1/3-z
2/3+y,1/3+x,1/3-z
2/3-x,1/3-y,1/3-z
2/3+y,1/3-x+y,1/3-z
2/3+x-y,1/3+x,1/3-z
2/3-x+y,1/3+y,1/3+z
2/3+x,1/3+x-y,1/3+z
2/3-y,1/3-x,1/3+z
1/3+x,2/3+y,2/3+z
1/3-y,2/3+x-y,2/3+z
1/3-x+y,2/3-x,2/3+z
1/3+x-y,2/3-y,2/3-z
1/3-x,2/3-x+y,2/3-z
1/3+y,2/3+x,2/3-z
1/3-x,2/3-y,2/3-z
1/3+y,2/3-x+y,2/3-z
1/3+x-y,2/3+x,2/3-z
1/3-x+y,2/3+y,2/3+z
1/3+x,2/3+x-y,2/3+z
1/3-y,2/3-x,2/3+z
loop_
_atom_site_type_symbol
_atom_site_label
_atom_site_fract_x
_atom_site_fract_y
_atom_site_fract_z
Si Si1 0.549836 0.774918 0.506084
Si Si2 0.556842 0.443159 0.739717
Si Si3 0.270627 0.000000 0.500000
Si Si4 0.000000 0.000000 0.219091
Si Si5 0.333334 0.666667 0.016317
Si Si6 0.556749 0.113498 0.302024
O O1 0.616202 0.718073 0.491166
O O2 0.451370 0.725685 0.467055
O O3 0.513443 0.756722 0.570992
O O4 0.646897 0.531749 0.778835
O O5 0.607276 0.392725 0.701994
O O6 0.506419 0.493582 0.698613
O O7 0.000000 0.000000 0.284363
O O8 0.666667 0.155214 0.333334
#
# Coordination Sequence:
#
# PCOD8324173 Si02
#       6
#    18  18  18   6   6  18
#     4  10  21  38  57  80 109 147 184 219 268 326
#     4  10  21  37  59  85 107 139 186 228 270 319
#     4   8  18  38  64  80  98 138 190 234 268 308
#     4  12  27  36  47  80 123 156 177 202 269 349
#     4  12  24  34  52  82 118 150 174 220 275 319
#     4  10  20  36  61  86 106 136 183 235 274 310
#
# _framework density 18.727452
#
# number of rings (size 3 to 8) (size 9 to 14) (size 15 to 20)
#    0.000    2.571    0.000    4.071    0.000    8.571 
#    0.000    3.214    0.000    0.000    0.000    0.000 
#    0.000    0.000    0.000    0.000    0.000    0.000 
#
# Total GULP energy -347123.006169 kJ/mol
# GULP energy per Si atom -12397.250220 kJ/mol
# Density = 1.868483 g / cm^3
# Si number density = 18.727452 Si / 1000 Ang^3
#
#
#
# Elastic Constant Matrix: (Units=GPa)
#
#
# Indices 1 2 3 4 5 6 
#
# 1 140.5031 105.1451 86.5574 1.2472 0.0012 0.0000
# 2 105.1451 140.5024 86.5567 -1.2469 -0.0012 0.0000
# 3 86.5574 86.5567 154.1821 0.0003 0.0000 0.0000
# 4 1.2472 -1.2469 0.0003 14.6551 0.0000 -0.0012
# 5 0.0012 -0.0012 0.0000 0.0000 14.6548 1.2465
# 6 0.0000 0.0000 0.0000 -0.0012 1.2465 17.6780
#
#
#
# Elastic Compliance Matrix: (Units=1/GPa)
#
#
# Indices 1 2 3 4 5 6 
#
# 1 0.017594 -0.010859 -0.003781 -0.002421 -0.000002 0.000000
# 2 -0.010859 0.017594 -0.003781 0.002421 0.000002 0.000000
# 3 -0.003781 -0.003781 0.010732 0.000000 0.000000 0.000000
# 4 -0.002421 0.002421 0.000000 0.068648 0.000000 0.000005
# 5 -0.000002 0.000002 0.000000 0.000000 0.068649 -0.004841
# 6 0.000000 0.000000 0.000000 0.000005 -0.004841 0.056909
#
#
# Mechanical properties :
#
#
# Convention : Reuss Voigt Hill
#
# Bulk Modulus (GPa) = 110.16379 110.18956 110.17668
# Shear Modulus (GPa) = 17.85748 19.85947 18.85847
#
# Velocity S-wave (km/s) = 3.09130 3.25998 3.17676
# Velocity P-wave (km/s) = 8.46723 8.55197 8.50971
#
# Compressibility (1/GPa) = 0.00907739
#
# Stress axis : x y z
#
# Youngs Moduli (GPa) = 56.83605 56.83616 93.18319
#
# Poissons Ratio (x) = 0.61717 0.35237
# Poissons Ratio (y) = 0.61717 0.35235
# Poissons Ratio (z) = 0.21492 0.21492
#
# Static dielectric constant tensor:
#      x y z
#    x 3.553530 0.000000 0.000000 
#    y 0.000000 3.553470 0.000010 
#    z 0.000000 0.000010 3.392840 
# 
# 
# High freq. dielectric constant tensor:
#      x y z
#    x 1.734370 0.000000 0.000000 
#    y 0.000000 1.734370 0.000000 
#    z 0.000000 0.000000 1.723830 
# 
# From -- ./inp_files/7620.got.cif
#   From: 2010.03.12/outbox.cif.g09.slc.cpg/sg166_4_cif.got.tgz:7620.got - 2010.04.02 06:38:31.
