data_PCOD8324195
_publ_section_title
;
Structure prediction by ZEFSAII (Michael W. Deem and Ramdas Pophale) SiO2 
 PCOD8324195
Probable space group: R -3 M
;
_chemical_formula_sum "Si O2"
_cell_formula_units_Z 108
_cell_length_a 21.776497
_cell_length_b 21.776497
_cell_length_c 13.265540
_cell_angle_alpha 90.000000
_cell_angle_beta 90.000000
_cell_angle_gamma 120.000000
_cell_volume 5447.931079
_symmetry_space_group_name_H-M "R -3 M"
_symmetry_group_IT_number 166
_symmetry_cell_setting 'hexagonal'
loop_
_space_group_symop_operation_xyz
x,y,z
-y,x-y,z
-x+y,-x,z
x-y,-y,-z
-x,-x+y,-z
y,x,-z
-x,-y,-z
y,-x+y,-z
x-y,x,-z
-x+y,y,z
x,x-y,z
-y,-x,z
2/3+x,1/3+y,1/3+z
2/3-y,1/3+x-y,1/3+z
2/3-x+y,1/3-x,1/3+z
2/3+x-y,1/3-y,1/3-z
2/3-x,1/3-x+y,1/3-z
2/3+y,1/3+x,1/3-z
2/3-x,1/3-y,1/3-z
2/3+y,1/3-x+y,1/3-z
2/3+x-y,1/3+x,1/3-z
2/3-x+y,1/3+y,1/3+z
2/3+x,1/3+x-y,1/3+z
2/3-y,1/3-x,1/3+z
1/3+x,2/3+y,2/3+z
1/3-y,2/3+x-y,2/3+z
1/3-x+y,2/3-x,2/3+z
1/3+x-y,2/3-y,2/3-z
1/3-x,2/3-x+y,2/3-z
1/3+y,2/3+x,2/3-z
1/3-x,2/3-y,2/3-z
1/3+y,2/3-x+y,2/3-z
1/3+x-y,2/3+x,2/3-z
1/3-x+y,2/3+y,2/3+z
1/3+x,2/3+x-y,2/3+z
1/3-y,2/3-x,2/3+z
loop_
_atom_site_type_symbol
_atom_site_label
_atom_site_fract_x
_atom_site_fract_y
_atom_site_fract_z
Si Si1 0.527549 0.613867 0.585358
Si Si2 0.727072 0.744169 0.705342
Si Si3 0.666781 0.468572 0.950770
O O1 0.449005 0.550996 0.556659
O O2 0.522628 0.666667 0.666667
O O3 0.571772 0.580583 0.636683
O O4 0.570638 0.659497 0.487283
O O5 0.709251 0.666667 0.666667
O O6 0.787495 0.798353 0.632275
O O7 0.731860 0.463719 0.001464
O O8 0.592779 0.407222 0.998692
O O9 0.666667 0.455402 0.833334
#
# Coordination Sequence:
#
# PCOD8324195 Si02
#       3
#    36  36  36
#     4  10  21  37  58  82 115 152 191 238 292 352
#     4  10  21  36  57  84 113 150 193 243 296 345
#     4  10  21  36  56  81 114 152 190 232 284 346
#
# _framework density 19.82404
#
# number of rings (size 3 to 8) (size 9 to 14) (size 15 to 20)
#    0.000    2.000    0.000    4.333    9.333    3.333 
#    0.000    0.000    0.000    0.333    0.000    0.000 
#    0.000    0.000    0.000    0.000    0.000    0.000 
#
# Total GULP energy -446227.150120 kJ/mol
# GULP energy per Si atom -12395.198614 kJ/mol
# Density = 1.977892 g / cm^3
# Si number density = 19.824040 Si / 1000 Ang^3
#
#
#
# Elastic Constant Matrix: (Units=GPa)
#
#
# Indices 1 2 3 4 5 6 
#
# 1 97.5939 54.5285 36.0219 -2.2943 0.0000 0.0000
# 2 54.5285 97.5939 36.0219 2.2943 0.0000 0.0000
# 3 36.0219 36.0219 78.3786 0.0000 0.0000 0.0000
# 4 -2.2943 2.2943 0.0000 18.9662 0.0000 0.0000
# 5 0.0000 0.0000 0.0000 0.0000 18.9662 -2.2943
# 6 0.0000 0.0000 0.0000 0.0000 -2.2943 21.5327
#
#
#
# Elastic Compliance Matrix: (Units=1/GPa)
#
#
# Indices 1 2 3 4 5 6 
#
# 1 0.015963 -0.007561 -0.003862 0.002846 0.000000 0.000000
# 2 -0.007561 0.015963 -0.003862 -0.002846 0.000000 0.000000
# 3 -0.003862 -0.003862 0.016308 0.000000 0.000000 0.000000
# 4 0.002846 -0.002846 0.000000 0.053414 0.000000 0.000000
# 5 0.000000 0.000000 0.000000 0.000000 0.053414 0.005691
# 6 0.000000 0.000000 0.000000 0.000000 0.005691 0.047047
#
#
# Mechanical properties :
#
#
# Convention : Reuss Voigt Hill
#
# Bulk Modulus (GPa) = 56.60462 58.52345 57.56403
# Shear Modulus (GPa) = 20.95856 21.69264 21.32560
#
# Velocity S-wave (km/s) = 3.25503 3.31155 3.28341
# Velocity P-wave (km/s) = 6.53778 6.64886 6.59355
#
# Compressibility (1/GPa) = 0.01766640
#
# Stress axis : x y z
#
# Youngs Moduli (GPa) = 62.64442 62.64442 61.31899
#
# Poissons Ratio (x) = 0.47363 0.23680
# Poissons Ratio (y) = 0.47363 0.23680
# Poissons Ratio (z) = 0.24191 0.24191
#
# Static dielectric constant tensor:
#      x y z
#    x 3.671320 0.000000 0.000000 
#    y 0.000000 3.671320 0.000000 
#    z 0.000000 0.000000 3.506240 
# 
# 
# High freq. dielectric constant tensor:
#      x y z
#    x 1.764970 0.000000 0.000000 
#    y 0.000000 1.764970 0.000000 
#    z 0.000000 0.000000 1.759700 
# 
# From -- ./inp_files/2576.got.cif
#   From: 2010.03.12/outbox.cif.g09.slc.cpg/sg166_2_cif.got.tgz:2576.got - 2010.04.02 06:38:31.
