data_PCOD8324296
_publ_section_title
;
Structure prediction by ZEFSAII (Michael W. Deem and Ramdas Pophale) SiO2 
 PCOD8324296
Probable space group: R -3 C 
;
_chemical_formula_sum "Si O2"
_cell_formula_units_Z 216
_cell_length_a 22.913356
_cell_length_b 22.913356
_cell_length_c 23.359749
_cell_angle_alpha 90.000000
_cell_angle_beta 90.000000
_cell_angle_gamma 120.000000
_cell_volume 10621.264131
_symmetry_space_group_name_H-M "R -3 C "
_symmetry_group_IT_number 167
_symmetry_cell_setting 'hexagonal'
loop_
_space_group_symop_operation_xyz
x,y,z
-y,x-y,z
-x+y,-x,z
x-y,-y,1/2-z
-x,-x+y,1/2-z
y,x,1/2-z
-x,-y,-z
y,-x+y,-z
x-y,x,-z
-x+y,y,1/2+z
x,x-y,1/2+z
-y,-x,1/2+z
2/3+x,1/3+y,1/3+z
2/3-y,1/3+x-y,1/3+z
2/3-x+y,1/3-x,1/3+z
2/3+x-y,1/3-y,5/6-z
2/3-x,1/3-x+y,5/6-z
2/3+y,1/3+x,5/6-z
2/3-x,1/3-y,1/3-z
2/3+y,1/3-x+y,1/3-z
2/3+x-y,1/3+x,1/3-z
2/3-x+y,1/3+y,5/6+z
2/3+x,1/3+x-y,5/6+z
2/3-y,1/3-x,5/6+z
1/3+x,2/3+y,2/3+z
1/3-y,2/3+x-y,2/3+z
1/3-x+y,2/3-x,2/3+z
1/3+x-y,2/3-y,1/6-z
1/3-x,2/3-x+y,1/6-z
1/3+y,2/3+x,1/6-z
1/3-x,2/3-y,2/3-z
1/3+y,2/3-x+y,2/3-z
1/3+x-y,2/3+x,2/3-z
1/3-x+y,2/3+y,1/6+z
1/3+x,2/3+x-y,1/6+z
1/3-y,2/3-x,1/6+z
loop_
_atom_site_type_symbol
_atom_site_label
_atom_site_fract_x
_atom_site_fract_y
_atom_site_fract_z
Si Si1 0.060454 0.793024 0.871831
Si Si2 0.468512 0.597672 0.214582
Si Si3 0.129083 0.204350 0.428617
Si Si4 0.664948 0.900132 0.995332
Si Si5 0.392771 0.242382 0.959279
Si Si6 0.360445 0.292193 0.718823
O O1 0.090193 0.874362 0.875485
O O2 0.070132 0.767136 0.933658
O O3 0.096210 0.772791 0.823048
O O4 0.983218 0.754484 0.848908
O O5 0.440632 0.582606 0.150770
O O6 0.474785 0.666017 0.240865
O O7 0.540022 0.597363 0.211313
O O8 0.417612 0.539969 0.256444
O O9 0.205024 0.269029 0.431922
O O10 0.631235 0.818241 0.994301
O O11 0.609745 0.920781 0.012609
O O12 0.333334 0.229675 0.916667
O O13 0.307411 0.307411 0.750000
#
# Coordination Sequence:
#
# PCOD8324296 Si02
#       6
#    36  36  36  36  36  36
#     4  11  25  35  59  89 126 166 215 261 319 393
#     4  10  19  35  60  85 120 160 206 257 312 377
#     4  11  22  38  56  88 125 160 211 260 318 385
#     4  10  19  36  58  86 117 166 216 257 315 388
#     4  10  19  35  60  88 119 164 213 258 315 382
#     4  12  22  37  57  88 127 171 204 266 324 383
#
# _framework density 20.336561
#
# number of rings (size 3 to 8) (size 9 to 14) (size 15 to 20)
#    0.000    1.333    3.333    4.500    7.000    0.000 
#    0.000    0.000    0.000    6.000    0.000    0.000 
#    0.000    0.000    0.000    0.833    0.000    0.000 
#
# Total GULP energy -891962.536328 kJ/mol
# GULP energy per Si atom -12388.368560 kJ/mol
# Density = 2.029027 g / cm^3
# Si number density = 20.336561 Si / 1000 Ang^3
#
#
#
# Elastic Constant Matrix: (Units=GPa)
#
#
# Indices 1 2 3 4 5 6 
#
# 1 85.5241 18.6381 9.7021 -0.8681 0.0000 0.0000
# 2 18.6381 85.5241 9.7021 0.8681 0.0000 0.0000
# 3 9.7021 9.7021 42.9226 0.0000 0.0000 0.0000
# 4 -0.8681 0.8681 0.0000 23.8370 0.0000 0.0000
# 5 0.0000 0.0000 0.0000 0.0000 23.8370 -0.8681
# 6 0.0000 0.0000 0.0000 0.0000 -0.8681 33.4430
#
#
#
# Elastic Compliance Matrix: (Units=1/GPa)
#
#
# Indices 1 2 3 4 5 6 
#
# 1 0.012494 -0.002471 -0.002265 0.000545 0.000000 0.000000
# 2 -0.002471 0.012494 -0.002265 -0.000545 0.000000 0.000000
# 3 -0.002265 -0.002265 0.024322 0.000000 0.000000 0.000000
# 4 0.000545 -0.000545 0.000000 0.041991 0.000000 0.000000
# 5 0.000000 0.000000 0.000000 0.000000 0.041991 0.001090
# 6 0.000000 0.000000 0.000000 0.000000 0.001090 0.029930
#
#
# Mechanical properties :
#
#
# Convention : Reuss Voigt Hill
#
# Bulk Modulus (GPa) = 28.32460 32.22838 30.27649
# Shear Modulus (GPa) = 26.45581 27.95196 27.20389
#
# Velocity S-wave (km/s) = 3.61071 3.71140 3.66140
# Velocity P-wave (km/s) = 5.59831 5.85217 5.72665
#
# Compressibility (1/GPa) = 0.03530500
#
# Stress axis : x y z
#
# Youngs Moduli (GPa) = 80.04029 80.04029 41.11516
#
# Poissons Ratio (x) = 0.19780 0.09314
# Poissons Ratio (y) = 0.19780 0.09314
# Poissons Ratio (z) = 0.18133 0.18133
#
# Static dielectric constant tensor:
#      x y z
#    x 3.774690 0.000000 0.000000 
#    y 0.000000 3.774690 0.000000 
#    z 0.000000 0.000000 3.460990 
# 
# 
# High freq. dielectric constant tensor:
#      x y z
#    x 1.783650 0.000000 0.000000 
#    y 0.000000 1.783650 0.000000 
#    z 0.000000 0.000000 1.770060 
# 
# From -- ./inp_files/6399.got.cif
#   From: 2010.03.12/outbox.cif.g09.slc.cpg/sg167_4_cif.got.tgz:6399.got - 2010.04.02 06:42:56.
