data_PCOD8324901
_publ_section_title
;
Structure prediction by ZEFSAII (Michael W. Deem and Ramdas Pophale) SiO2 
 PCOD8324901
Probable space group: P -6
;
_chemical_formula_sum "Si O2"
_cell_formula_units_Z 40
_cell_length_a 18.971886
_cell_length_b 18.971886
_cell_length_c 8.812445
_cell_angle_alpha 90.000000
_cell_angle_beta 90.000000
_cell_angle_gamma 120.000000
_cell_volume 2746.932982
_symmetry_space_group_name_H-M "P -6"
_symmetry_group_IT_number 174
_symmetry_cell_setting 'hexagonal'
loop_
_space_group_symop_operation_xyz
x,y,z
-x+y,-x,-z
-y,x-y,z
x,y,-z
-x+y,-x,z
-y,x-y,-z
loop_
_atom_site_type_symbol
_atom_site_label
_atom_site_fract_x
_atom_site_fract_y
_atom_site_fract_z
Si Si1 0.577267 0.706257 0.677474
Si Si2 0.000000 0.000000 0.180102
Si Si3 0.333335 0.666667 0.320533
Si Si4 0.052221 0.253588 0.822640
Si Si5 0.294644 0.426839 0.325149
Si Si6 0.157800 0.578948 0.821892
Si Si7 0.195365 0.242656 0.322821
Si Si8 0.913300 0.817211 0.823014
O O1 0.571864 0.688133 0.500000
O O2 0.667391 0.732222 0.733800
O O3 0.557307 0.777749 0.714210
O O4 0.514097 0.624078 0.764840
O O5 0.955382 0.908580 0.241509
O O6 0.000000 0.000000 0.000000
O O7 0.333334 0.666668 0.500000
O O8 0.383384 0.757604 0.263807
O O9 0.113761 0.223650 0.766653
O O10 0.959009 0.183141 0.792020
O O11 0.068223 0.273261 0.000000
O O12 0.319480 0.447619 0.500000
O O13 0.373361 0.483342 0.222051
O O14 0.267531 0.333787 0.287295
O O15 0.171225 0.581084 0.000000
O O16 0.174499 0.233237 0.500000
O O17 0.226539 0.181379 0.268302
O O18 0.930821 0.814826 0.000000
#
# Coordination Sequence:
#
# PCOD8324901 Si02
#       8
#     6   2   2   6   6   6   6   6
#     4  10  20  33  47  62  87 116 142 179 225 265
#     4   9  15  27  40  59  82 111 148 179 220 264
#     4  12  22  32  43  60  88 116 145 186 226 260
#     4  10  19  31  46  63  86 114 147 184 221 264
#     4   9  19  33  45  59  85 116 142 176 226 265
#     4  12  22  31  47  67  84 109 150 189 220 264
#     4  10  20  31  44  63  86 112 146 184 223 266
#     4  10  18  30  46  61  84 116 148 185 225 260
#
# _framework density 14.561695
#
# number of rings (size 3 to 8) (size 9 to 14) (size 15 to 20)
#    0.000    1.800    3.000    4.050    0.000    4.200 
#    0.000    0.000    0.000    0.000    0.000    0.000 
#    0.000    0.000    0.000    0.900    0.000   14.400 
#
# Total GULP energy -496006.877202 kJ/mol
# GULP energy per Si atom -12400.171930 kJ/mol
# Density = 1.452855 g / cm^3
# Si number density = 14.561695 Si / 1000 Ang^3
#
#
#
# Elastic Constant Matrix: (Units=GPa)
#
#
# Indices 1 2 3 4 5 6 
#
# 1 81.8767 32.3912 37.5763 0.0000 0.0000 0.0016
# 2 32.3912 81.8759 37.5747 0.0000 0.0000 -0.0015
# 3 37.5763 37.5747 88.5877 0.0000 0.0000 0.0007
# 4 0.0000 0.0000 0.0000 23.4122 -0.0001 0.0000
# 5 0.0000 0.0000 0.0000 -0.0001 23.4120 0.0000
# 6 0.0016 -0.0015 0.0007 0.0000 0.0000 24.7431
#
#
#
# Elastic Compliance Matrix: (Units=1/GPa)
#
#
# Indices 1 2 3 4 5 6 
#
# 1 0.016173 -0.004035 -0.005148 0.000000 0.000000 -0.000001
# 2 -0.004035 0.016173 -0.005148 0.000000 0.000000 0.000001
# 3 -0.005148 -0.005148 0.015656 0.000000 0.000000 0.000000
# 4 0.000000 0.000000 0.000000 0.042713 0.000000 0.000000
# 5 0.000000 0.000000 0.000000 0.000000 0.042713 0.000000
# 6 -0.000001 0.000001 0.000000 0.000000 0.000000 0.040415
#
#
# Mechanical properties :
#
#
# Convention : Reuss Voigt Hill
#
# Bulk Modulus (GPa) = 51.71325 51.93605 51.82465
# Shear Modulus (GPa) = 23.92902 23.96667 23.94785
#
# Velocity S-wave (km/s) = 4.05814 4.06133 4.05974
# Velocity P-wave (km/s) = 7.58606 7.59844 7.59225
#
# Compressibility (1/GPa) = 0.01933740
#
# Stress axis : x y z
#
# Youngs Moduli (GPa) = 61.83255 61.83303 63.87518
#
# Poissons Ratio (x) = 0.24952 0.32885
# Poissons Ratio (y) = 0.24952 0.32882
# Poissons Ratio (z) = 0.31834 0.31831
#
# Static dielectric constant tensor:
#      x y z
#    x 2.753530 -0.000010 0.000000 
#    y -0.000010 2.753540 0.000000 
#    z 0.000000 0.000000 2.845110 
# 
# 
# High freq. dielectric constant tensor:
#      x y z
#    x 1.530930 0.000000 0.000000 
#    y 0.000000 1.530930 0.000000 
#    z 0.000000 0.000000 1.568510 
# 
# From -- ./inp_files/496.got.cif
#   From: 2010.03.12/outbox.cif.g09.slc.cpg/sg174_cif.got.tgz:496.got - 2010.04.02 06:54:58.
