data_PCOD8324286
_publ_section_title
;
Structure prediction by ZEFSAII (Michael W. Deem and Ramdas Pophale) SiO2 
 PCOD8324286
Probable space group: R -3 C 
;
_chemical_formula_sum "Si O2"
_cell_formula_units_Z 252
_cell_length_a 29.857159
_cell_length_b 29.857159
_cell_length_c 16.820499
_cell_angle_alpha 90.000000
_cell_angle_beta 90.000000
_cell_angle_gamma 120.000000
_cell_volume 12985.732998
_symmetry_space_group_name_H-M "R -3 C "
_symmetry_group_IT_number 167
_symmetry_cell_setting 'hexagonal'
loop_
_space_group_symop_operation_xyz
x,y,z
-y,x-y,z
-x+y,-x,z
x-y,-y,1/2-z
-x,-x+y,1/2-z
y,x,1/2-z
-x,-y,-z
y,-x+y,-z
x-y,x,-z
-x+y,y,1/2+z
x,x-y,1/2+z
-y,-x,1/2+z
2/3+x,1/3+y,1/3+z
2/3-y,1/3+x-y,1/3+z
2/3-x+y,1/3-x,1/3+z
2/3+x-y,1/3-y,5/6-z
2/3-x,1/3-x+y,5/6-z
2/3+y,1/3+x,5/6-z
2/3-x,1/3-y,1/3-z
2/3+y,1/3-x+y,1/3-z
2/3+x-y,1/3+x,1/3-z
2/3-x+y,1/3+y,5/6+z
2/3+x,1/3+x-y,5/6+z
2/3-y,1/3-x,5/6+z
1/3+x,2/3+y,2/3+z
1/3-y,2/3+x-y,2/3+z
1/3-x+y,2/3-x,2/3+z
1/3+x-y,2/3-y,1/6-z
1/3-x,2/3-x+y,1/6-z
1/3+y,2/3+x,1/6-z
1/3-x,2/3-y,2/3-z
1/3+y,2/3-x+y,2/3-z
1/3+x-y,2/3+x,2/3-z
1/3-x+y,2/3+y,1/6+z
1/3+x,2/3+x-y,1/6+z
1/3-y,2/3-x,1/6+z
loop_
_atom_site_type_symbol
_atom_site_label
_atom_site_fract_x
_atom_site_fract_y
_atom_site_fract_z
Si Si1 0.210660 0.101534 0.422524
Si Si2 0.620584 0.610099 0.452039
Si Si3 0.253380 0.554626 0.186259
Si Si4 0.022797 0.257572 0.907366
Si Si5 0.612855 0.554441 0.748785
Si Si6 0.151751 0.995302 0.660102
Si Si7 0.579605 0.539321 0.308105
O O1 0.164114 0.055947 0.469565
O O2 0.240948 0.076558 0.376796
O O3 0.192107 0.126551 0.355666
O O4 0.245357 0.147779 0.485540
O O5 0.640370 0.666667 0.416667
O O6 0.591467 0.610157 0.533261
O O7 0.669598 0.601122 0.464568
O O8 0.580664 0.564622 0.393637
O O9 0.243402 0.595820 0.139425
O O10 0.228369 0.542935 0.273520
O O11 0.024582 0.213726 0.853592
O O12 0.964459 0.243921 0.924302
O O13 0.045031 0.256899 0.993213
O O14 0.568310 0.568310 0.750000
O O15 0.138474 0.000000 0.750000
O O16 0.534191 0.534191 0.250000
#
# Coordination Sequence:
#
# PCOD8324286 Si02
#       7
#    36  36  36  36  36  36  36
#     4  10  21  39  58  85 120 163 199 252 315 370
#     4  10  19  31  54  82 117 156 202 253 294 342
#     4  10  21  41  69  93 120 157 200 249 313 382
#     4  10  19  35  55  88 120 157 209 256 293 354
#     4  10  21  35  55  78 124 165 209 246 298 362
#     4  10  21  38  67  93 121 153 203 258 307 367
#     4  10  19  31  56  83 114 158 211 249 298 358
#
# _framework density 19.405913000000002
#
# number of rings (size 3 to 8) (size 9 to 14) (size 15 to 20)
#    0.000    2.000    2.857    1.000    4.000    0.000 
#    0.000    5.000    3.143    0.000    0.000    0.000 
#    0.000    0.000    0.000    0.000    0.000    0.000 
#
# Total GULP energy -1041176.382500 kJ/mol
# GULP energy per Si atom -12394.956935 kJ/mol
# Density = 1.936174 g / cm^3
# Si number density = 19.405913 Si / 1000 Ang^3
#
#
#
# Elastic Constant Matrix: (Units=GPa)
#
#
# Indices 1 2 3 4 5 6 
#
# 1 113.4013 55.5214 36.4865 2.6133 0.0000 0.0000
# 2 55.5214 113.4013 36.4865 -2.6133 0.0000 0.0000
# 3 36.4865 36.4865 78.3804 0.0000 0.0000 0.0000
# 4 2.6133 -2.6133 0.0000 22.1758 0.0000 0.0000
# 5 0.0000 0.0000 0.0000 0.0000 22.1758 2.6133
# 6 0.0000 0.0000 0.0000 0.0000 2.6133 28.9399
#
#
#
# Elastic Compliance Matrix: (Units=1/GPa)
#
#
# Indices 1 2 3 4 5 6 
#
# 1 0.012436 -0.005027 -0.003449 -0.002058 0.000000 0.000000
# 2 -0.005027 0.012436 -0.003449 0.002058 0.000000 0.000000
# 3 -0.003449 -0.003449 0.015970 0.000000 0.000000 0.000000
# 4 -0.002058 0.002058 0.000000 0.045579 0.000000 0.000000
# 5 0.000000 0.000000 0.000000 0.000000 0.045579 -0.004116
# 6 0.000000 0.000000 0.000000 0.000000 -0.004116 0.034926
#
#
# Mechanical properties :
#
#
# Convention : Reuss Voigt Hill
#
# Bulk Modulus (GPa) = 58.85082 62.46353 60.65718
# Shear Modulus (GPa) = 25.45287 26.43756 25.94521
#
# Velocity S-wave (km/s) = 3.62554 3.69500 3.66043
# Velocity P-wave (km/s) = 6.92229 7.10365 7.01355
#
# Compressibility (1/GPa) = 0.01699212
#
# Stress axis : x y z
#
# Youngs Moduli (GPa) = 80.40861 80.40862 62.61863
#
# Poissons Ratio (x) = 0.40417 0.21600
# Poissons Ratio (y) = 0.40417 0.21600
# Poissons Ratio (z) = 0.27736 0.27736
#
# Static dielectric constant tensor:
#      x y z
#    x 3.681160 0.000000 0.000000 
#    y 0.000000 3.681160 0.000000 
#    z 0.000000 0.000000 3.373040 
# 
# 
# High freq. dielectric constant tensor:
#      x y z
#    x 1.758860 0.000000 0.000000 
#    y 0.000000 1.758860 0.000000 
#    z 0.000000 0.000000 1.719570 
# 
# From -- ./inp_files/3681.got.cif
#   From: 2010.03.12/outbox.cif.g09.slc.cpg/sg167_2_cif.got.tgz:3681.got - 2010.04.02 06:42:56.
