data_PCOD8324834
_publ_section_title
;
Structure prediction by ZEFSAII (Michael W. Deem and Ramdas Pophale) SiO2 
 PCOD8324834
Probable space group: P 63
;
_chemical_formula_sum "Si O2"
_cell_formula_units_Z 42
_cell_length_a 18.719366
_cell_length_b 18.719366
_cell_length_c 8.727749
_cell_angle_alpha 90.000000
_cell_angle_beta 90.000000
_cell_angle_gamma 120.000000
_cell_volume 2648.592537
_symmetry_space_group_name_H-M "P 63"
_symmetry_group_IT_number 173
_symmetry_cell_setting 'hexagonal'
loop_
_space_group_symop_operation_xyz
x,y,z
x-y,x,1/2+z
-y,x-y,z
-x,-y,1/2+z
-x+y,-x,z
y,-x+y,1/2+z
loop_
_atom_site_type_symbol
_atom_site_label
_atom_site_fract_x
_atom_site_fract_y
_atom_site_fract_z
Si Si1 0.855375 0.394838 0.697710
Si Si2 0.578077 0.939648 0.635750
Si Si3 0.189749 0.664202 0.863860
Si Si4 0.797477 0.472257 0.213694
Si Si5 0.571312 0.666964 0.301394
Si Si6 0.207922 0.746477 0.434521
Si Si7 0.033227 0.463516 0.600981
O O1 0.812843 0.367626 0.532979
O O2 0.854892 0.477040 0.744067
O O3 0.802368 0.323539 0.817676
O O4 0.947095 0.407624 0.686144
O O5 0.546009 0.898014 0.802868
O O6 0.594680 0.879085 0.525876
O O7 0.508093 0.954644 0.557791
O O8 0.659892 0.029104 0.671619
O O9 0.257248 0.761321 0.849539
O O10 0.224308 0.621282 0.745444
O O11 0.896723 0.528532 0.218893
O O12 0.762459 0.480657 0.049605
O O13 0.595423 0.761437 0.343776
O O14 0.578615 0.618470 0.446840
#
# Coordination Sequence:
#
# PCOD8324834 Si02
#       7
#     6   6   6   6   6   6   6
#     4  11  21  32  48  70  92 115 165 217 244 294
#     4   9  17  33  50  62  85 127 155 198 254 302
#     4  10  19  32  46  66  90 119 158 199 252 302
#     4   9  20  33  49  62  89 127 151 199 264 308
#     4  10  19  33  49  67  91 124 162 208 257 301
#     4  10  21  34  46  71  93 118 163 215 256 298
#     4   9  17  33  50  64  84 122 166 196 249 303
#
# _framework density 15.857480000000001
#
# number of rings (size 3 to 8) (size 9 to 14) (size 15 to 20)
#    0.000    2.286    2.857    0.286    4.000    0.000 
#    0.857    0.000    0.000    0.000    0.000    0.000 
#    0.000    0.000    0.000    0.000    0.000    0.000 
#
# Total GULP energy -520316.493113 kJ/mol
# GULP energy per Si atom -12388.487931 kJ/mol
# Density = 1.582139 g / cm^3
# Si number density = 15.857480 Si / 1000 Ang^3
#
#
#
# Elastic Constant Matrix: (Units=GPa)
#
#
# Indices 1 2 3 4 5 6 
#
# 1 75.2374 36.6607 28.4267 0.0000 0.0000 0.0000
# 2 36.6607 75.2374 28.4267 0.0000 0.0000 0.0000
# 3 28.4267 28.4267 63.2251 0.0000 0.0000 0.0000
# 4 0.0000 0.0000 0.0000 24.7940 0.0000 0.0000
# 5 0.0000 0.0000 0.0000 0.0000 24.7940 0.0000
# 6 0.0000 0.0000 0.0000 0.0000 0.0000 19.2883
#
#
#
# Elastic Compliance Matrix: (Units=1/GPa)
#
#
# Indices 1 2 3 4 5 6 
#
# 1 0.018753 -0.007170 -0.005208 0.000000 0.000000 0.000000
# 2 -0.007170 0.018753 -0.005208 0.000000 0.000000 0.000000
# 3 -0.005208 -0.005208 0.020499 0.000000 0.000000 0.000000
# 4 0.000000 0.000000 0.000000 0.040332 0.000000 0.000000
# 5 0.000000 0.000000 0.000000 0.000000 0.040332 0.000000
# 6 0.000000 0.000000 0.000000 0.000000 0.000000 0.051845
#
#
# Mechanical properties :
#
#
# Convention : Reuss Voigt Hill
#
# Bulk Modulus (GPa) = 43.79450 44.52533 44.15991
# Shear Modulus (GPa) = 21.43203 21.78765 21.60984
#
# Velocity S-wave (km/s) = 3.68032 3.71073 3.69555
# Velocity P-wave (km/s) = 6.76293 6.81900 6.79102
#
# Compressibility (1/GPa) = 0.02283392
#
# Stress axis : x y z
#
# Youngs Moduli (GPa) = 53.32618 53.32618 48.78199
#
# Poissons Ratio (x) = 0.38234 0.25404
# Poissons Ratio (y) = 0.38234 0.25404
# Poissons Ratio (z) = 0.27771 0.27771
#
# Static dielectric constant tensor:
#      x y z
#    x 2.943430 0.000000 0.000000 
#    y 0.000000 2.943430 0.000000 
#    z 0.000000 0.000000 3.101700 
# 
# 
# High freq. dielectric constant tensor:
#      x y z
#    x 1.575330 0.000000 0.000000 
#    y 0.000000 1.575330 0.000000 
#    z 0.000000 0.000000 1.621230 
# 
# From -- ./inp_files/626.got.cif
#   From: 2010.03.12/outbox.cif.g09.slc.cpg/sg173_cif.got.tgz:626.got - 2010.04.02 06:54:12.
