data_PCOD8324670
_publ_section_title
;
Structure prediction by ZEFSAII (Michael W. Deem and Ramdas Pophale) SiO2 
 PCOD8324670
Probable space group: P 65
;
_chemical_formula_sum "Si O2"
_cell_formula_units_Z 30
_cell_length_a 7.566959
_cell_length_b 7.566959
_cell_length_c 28.131856
_cell_angle_alpha 90.000000
_cell_angle_beta 90.000000
_cell_angle_gamma 120.000000
_cell_volume 1394.992199
_symmetry_space_group_name_H-M "P 65"
_symmetry_group_IT_number 170
_symmetry_cell_setting 'hexagonal'
loop_
_space_group_symop_operation_xyz
x,y,z
x-y,x,5/6+z
-y,x-y,2/3+z
-x,-y,1/2+z
-x+y,-x,1/3+z
y,-x+y,1/6+z
loop_
_atom_site_type_symbol
_atom_site_label
_atom_site_fract_x
_atom_site_fract_y
_atom_site_fract_z
Si Si1 0.259197 0.518410 0.469230
Si Si2 0.054418 0.225671 0.238910
Si Si3 0.812917 0.110746 0.633056
Si Si4 0.828745 0.774307 0.199550
Si Si5 0.110737 0.812924 0.472072
O O1 0.278350 0.387247 0.426844
O O2 0.488154 0.652532 0.490753
O O3 0.164375 0.652546 0.447708
O O4 0.108871 0.387245 0.511614
O O5 0.210622 0.242729 0.279995
O O6 0.170818 0.362480 0.193138
O O7 0.940556 0.999988 0.219231
O O8 0.829168 0.191668 0.578657
O O9 0.032098 0.242745 0.658467
O O10 0.735999 0.868005 0.635898
#
# Coordination Sequence:
#
# PCOD8324670 Si02
#       5
#     6   6   6   6   6
#     4  12  24  42  72  94 128 188 210 262 356 384
#     4  10  21  47  64  97 140 162 222 287 311 393
#     4  10  24  45  65  98 137 168 221 278 322 395
#     4  10  21  47  64  97 140 162 222 287 311 393
#     4  10  24  45  65  98 137 168 221 278 322 395
#
# _framework density 21.505495
#
# number of rings (size 3 to 8) (size 9 to 14) (size 15 to 20)
#    0.000    1.600    6.000    0.000    5.600    4.800 
#    3.600    0.000    0.000    0.000    0.000    0.000 
#    0.000    0.000    0.000    0.000    0.000    0.000 
#
# Total GULP energy -371866.569032 kJ/mol
# GULP energy per Si atom -12395.552301 kJ/mol
# Density = 2.145655 g / cm^3
# Si number density = 21.505495 Si / 1000 Ang^3
#
#
#
# Elastic Constant Matrix: (Units=GPa)
#
#
# Indices 1 2 3 4 5 6 
#
# 1 110.9718 58.4678 42.6594 0.0000 0.0000 0.0000
# 2 58.4678 110.9718 42.6594 0.0000 0.0000 0.0000
# 3 42.6594 42.6594 123.3214 0.0000 0.0000 0.0000
# 4 0.0000 0.0000 0.0000 11.4076 0.0000 0.0000
# 5 0.0000 0.0000 0.0000 0.0000 11.4076 0.0000
# 6 0.0000 0.0000 0.0000 0.0000 0.0000 26.2520
#
#
#
# Elastic Compliance Matrix: (Units=1/GPa)
#
#
# Indices 1 2 3 4 5 6 
#
# 1 0.013096 -0.005950 -0.002472 0.000000 0.000000 0.000000
# 2 -0.005950 0.013096 -0.002472 0.000000 0.000000 0.000000
# 3 -0.002472 -0.002472 0.009819 0.000000 0.000000 0.000000
# 4 0.000000 0.000000 0.000000 0.087661 0.000000 0.000000
# 5 0.000000 0.000000 0.000000 0.000000 0.087661 0.000000
# 6 0.000000 0.000000 0.000000 0.000000 0.000000 0.038092
#
#
# Mechanical properties :
#
#
# Convention : Reuss Voigt Hill
#
# Bulk Modulus (GPa) = 70.30452 70.31535 70.30994
# Shear Modulus (GPa) = 18.11890 23.24535 20.68212
#
# Velocity S-wave (km/s) = 2.90578 3.29128 3.10451
# Velocity P-wave (km/s) = 6.63479 6.87101 6.75393
#
# Compressibility (1/GPa) = 0.01422384
#
# Stress axis : x y z
#
# Youngs Moduli (GPa) = 76.35687 76.35687 101.84092
#
# Poissons Ratio (x) = 0.45431 0.25177
# Poissons Ratio (y) = 0.45431 0.25177
# Poissons Ratio (z) = 0.18877 0.18877
#
# Static dielectric constant tensor:
#      x y z
#    x 3.830400 0.000000 0.000000 
#    y 0.000000 3.830400 0.000000 
#    z 0.000000 0.000000 5.490040 
# 
# 
# High freq. dielectric constant tensor:
#      x y z
#    x 1.834000 0.000000 0.000000 
#    y 0.000000 1.834000 0.000000 
#    z 0.000000 0.000000 1.848740 
# 
# From -- ./inp_files/1743.got.cif
#   From: 2010.03.12/outbox.cif.g09.slc.cpg/sg170_cif.got.tgz:1743.got - 2010.04.02 06:47:37.
