data_PCOD8324257
_publ_section_title
;
Structure prediction by ZEFSAII (Michael W. Deem and Ramdas Pophale) SiO2 
 PCOD8324257
Probable space group: R -3 M
;
_chemical_formula_sum "Si O2"
_cell_formula_units_Z 216
_cell_length_a 22.444352
_cell_length_b 22.444352
_cell_length_c 30.018977
_cell_angle_alpha 90.000000
_cell_angle_beta 90.000000
_cell_angle_gamma 120.000000
_cell_volume 13096.060184
_symmetry_space_group_name_H-M "R -3 M"
_symmetry_group_IT_number 166
_symmetry_cell_setting 'hexagonal'
loop_
_space_group_symop_operation_xyz
x,y,z
-y,x-y,z
-x+y,-x,z
x-y,-y,-z
-x,-x+y,-z
y,x,-z
-x,-y,-z
y,-x+y,-z
x-y,x,-z
-x+y,y,z
x,x-y,z
-y,-x,z
2/3+x,1/3+y,1/3+z
2/3-y,1/3+x-y,1/3+z
2/3-x+y,1/3-x,1/3+z
2/3+x-y,1/3-y,1/3-z
2/3-x,1/3-x+y,1/3-z
2/3+y,1/3+x,1/3-z
2/3-x,1/3-y,1/3-z
2/3+y,1/3-x+y,1/3-z
2/3+x-y,1/3+x,1/3-z
2/3-x+y,1/3+y,1/3+z
2/3+x,1/3+x-y,1/3+z
2/3-y,1/3-x,1/3+z
1/3+x,2/3+y,2/3+z
1/3-y,2/3+x-y,2/3+z
1/3-x+y,2/3-x,2/3+z
1/3+x-y,2/3-y,2/3-z
1/3-x,2/3-x+y,2/3-z
1/3+y,2/3+x,2/3-z
1/3-x,2/3-y,2/3-z
1/3+y,2/3-x+y,2/3-z
1/3+x-y,2/3+x,2/3-z
1/3-x+y,2/3+y,2/3+z
1/3+x,2/3+x-y,2/3+z
1/3-y,2/3-x,2/3+z
loop_
_atom_site_type_symbol
_atom_site_label
_atom_site_fract_x
_atom_site_fract_y
_atom_site_fract_z
Si Si1 0.942586 0.744344 0.866685
Si Si2 0.471877 0.805471 0.967871
Si Si3 0.333073 0.805210 0.865460
Si Si4 0.390747 0.468426 0.299982
Si Si5 0.410386 0.134915 0.366535
Si Si6 0.865085 0.589613 0.866535
O O1 0.873481 0.746962 0.865433
O O2 0.995828 0.799851 0.831625
O O3 0.972555 0.761708 0.916735
O O4 0.923903 0.667252 0.853782
O O5 0.403153 0.806305 0.980599
O O6 0.458027 0.729014 0.977093
O O7 0.492976 0.826310 0.916666
O O8 0.533482 0.862644 0.998290
O O9 0.395680 0.791360 0.856238
O O10 0.263515 0.736486 0.852733
O O11 0.459851 0.540150 0.301233
O O12 0.409431 0.410018 0.312885
O O13 0.360777 0.455820 0.249933
O O14 0.420031 0.210015 0.361654
O O15 0.463244 0.129911 0.333334
O O16 0.789985 0.579970 0.861655
O O17 0.870088 0.536754 0.833334
#
# Coordination Sequence:
#
# PCOD8324257 Si02
#       6
#    36  36  36  36  36  36
#     4   8  16  31  46  63  89 119 149 181 218 261
#     4   9  16  27  45  68  95 124 151 179 217 266
#     4   9  16  27  45  68  95 124 151 179 217 266
#     4   8  16  31  46  63  89 119 149 181 218 261
#     4   9  17  31  50  67  85 115 152 185 223 270
#     4   9  17  31  50  67  85 115 152 185 223 270
#
# _framework density 16.493510000000001
#
# number of rings (size 3 to 8) (size 9 to 14) (size 15 to 20)
#    0.000    3.333    0.000    2.333    0.000    2.667 
#    6.000    0.000    0.000    1.333    0.000    0.000 
#    0.000    0.000    0.000    0.000    0.000    0.000 
#
# Total GULP energy -892427.088709 kJ/mol
# GULP energy per Si atom -12394.820677 kJ/mol
# Density = 1.645597 g / cm^3
# Si number density = 16.493510 Si / 1000 Ang^3
#
#
#
# Elastic Constant Matrix: (Units=GPa)
#
#
# Indices 1 2 3 4 5 6 
#
# 1 69.6963 32.9443 56.9408 10.7979 0.0000 0.0000
# 2 32.9443 69.6963 56.9408 -10.7979 0.0000 0.0000
# 3 56.9408 56.9408 108.7084 0.0000 0.0000 0.0000
# 4 10.7979 -10.7979 0.0000 31.6873 0.0000 0.0000
# 5 0.0000 0.0000 0.0000 0.0000 31.6873 10.7979
# 6 0.0000 0.0000 0.0000 0.0000 10.7979 18.3760
#
#
#
# Elastic Compliance Matrix: (Units=1/GPa)
#
#
# Indices 1 2 3 4 5 6 
#
# 1 0.028642 -0.005380 -0.012184 -0.011593 0.000000 0.000000
# 2 -0.005380 0.028642 -0.012184 0.011593 0.000000 0.000000
# 3 -0.012184 -0.012184 0.021963 0.000000 0.000000 0.000000
# 4 -0.011593 0.011593 0.000000 0.039460 0.000000 0.000000
# 5 0.000000 0.000000 0.000000 0.000000 0.039460 -0.023187
# 6 0.000000 0.000000 0.000000 0.000000 -0.023187 0.068044
#
#
# Mechanical properties :
#
#
# Convention : Reuss Voigt Hill
#
# Bulk Modulus (GPa) = 50.63570 60.19474 55.41522
# Shear Modulus (GPa) = 17.10635 23.10177 20.10406
#
# Velocity S-wave (km/s) = 3.22399 3.74660 3.49507
# Velocity P-wave (km/s) = 6.68025 7.43581 7.06813
#
# Compressibility (1/GPa) = 0.01974891
#
# Stress axis : x y z
#
# Youngs Moduli (GPa) = 34.91433 34.91433 45.53148
#
# Poissons Ratio (x) = 0.18785 0.55476
# Poissons Ratio (y) = 0.18785 0.55476
# Poissons Ratio (z) = 0.42540 0.42540
#
# Static dielectric constant tensor:
#      x y z
#    x 3.036490 0.000000 0.000000 
#    y 0.000000 3.036490 0.000000 
#    z 0.000000 0.000000 3.368750 
# 
# 
# High freq. dielectric constant tensor:
#      x y z
#    x 1.615810 0.000000 0.000000 
#    y 0.000000 1.615810 0.000000 
#    z 0.000000 0.000000 1.639700 
# 
# From -- ./inp_files/9753.got.cif
#   From: 2010.03.12/outbox.cif.g09.slc.cpg/sg166_5_cif.got.tgz:9753.got - 2010.04.02 06:38:31.
