data_PCOD8324726
_publ_section_title
;
Structure prediction by ZEFSAII (Michael W. Deem and Ramdas Pophale) SiO2 
 PCOD8324726
Probable space group: P 62
;
_chemical_formula_sum "Si O2"
_cell_formula_units_Z 48
_cell_length_a 20.919062
_cell_length_b 20.919062
_cell_length_c 6.956239
_cell_angle_alpha 90.000000
_cell_angle_beta 90.000000
_cell_angle_gamma 120.000000
_cell_volume 2636.267895
_symmetry_space_group_name_H-M "P 62"
_symmetry_group_IT_number 171
_symmetry_cell_setting 'hexagonal'
loop_
_space_group_symop_operation_xyz
x,y,z
x-y,x,1/3+z
-y,x-y,2/3+z
-x,-y,z
-x+y,-x,1/3+z
y,-x+y,2/3+z
loop_
_atom_site_type_symbol
_atom_site_label
_atom_site_fract_x
_atom_site_fract_y
_atom_site_fract_z
Si Si1 0.098395 0.495440 0.789140
Si Si2 0.713747 0.698606 0.269832
Si Si3 0.803715 0.741197 0.910822
Si Si4 0.378938 0.446608 0.479431
Si Si5 0.266452 0.830644 0.385447
Si Si6 0.137092 0.415794 0.487507
Si Si7 0.793222 0.058777 0.294280
Si Si8 0.587651 0.843905 0.423473
O O1 0.104382 0.573460 0.741141
O O2 0.122728 0.476410 0.588304
O O3 0.017397 0.434564 0.864219
O O4 0.151027 0.495845 0.959696
O O5 0.677749 0.611024 0.320904
O O6 0.658767 0.716840 0.148802
O O7 0.744346 0.745980 0.462238
O O8 0.784818 0.725101 0.136349
O O9 0.783022 0.798583 0.814646
O O10 0.889896 0.767188 0.889699
O O11 0.752576 0.666457 0.796677
O O12 0.337480 0.456095 0.664662
O O13 0.271823 0.825973 0.613635
O O14 0.245438 0.892916 0.335119
O O15 0.202938 0.753932 0.287007
O O16 0.193720 0.401847 0.606842
#
# Coordination Sequence:
#
# PCOD8324726 Si02
#       8
#     6   6   6   6   6   6   6   6
#     4   9  19  37  49  76 117 143 181 220 274 330
#     4  11  20  34  55  78 117 140 178 224 268 326
#     4  11  22  33  56  81 112 145 178 220 282 330
#     4  10  19  34  52  80 113 147 176 226 269 332
#     4  10  18  34  55  76 107 149 179 221 279 323
#     4  10  19  35  55  76 110 148 175 230 272 322
#     4  11  21  36  52  83 112 141 181 226 276 329
#     4  10  20  33  53  84 110 137 184 227 276 329
#
# _framework density 18.207557999999999
#
# number of rings (size 3 to 8) (size 9 to 14) (size 15 to 20)
#    0.000    1.750    7.500    0.000    3.500    1.000 
#    2.250    1.250    0.000    0.000   13.000    4.375 
#    0.000    0.000    0.000    0.000    0.000    0.000 
#
# Total GULP energy -594816.843343 kJ/mol
# GULP energy per Si atom -12392.017570 kJ/mol
# Density = 1.816612 g / cm^3
# Si number density = 18.207558 Si / 1000 Ang^3
#
#
#
# Elastic Constant Matrix: (Units=GPa)
#
#
# Indices 1 2 3 4 5 6 
#
# 1 55.2807 22.7815 27.1642 0.0000 0.0000 0.0000
# 2 22.7815 55.2807 27.1642 0.0000 0.0000 0.0000
# 3 27.1642 27.1642 114.8508 0.0000 0.0000 0.0000
# 4 0.0000 0.0000 0.0000 20.6154 0.0000 0.0000
# 5 0.0000 0.0000 0.0000 0.0000 20.6154 0.0000
# 6 0.0000 0.0000 0.0000 0.0000 0.0000 16.2496
#
#
#
# Elastic Compliance Matrix: (Units=1/GPa)
#
#
# Indices 1 2 3 4 5 6 
#
# 1 0.023052 -0.007718 -0.003627 0.000000 0.000000 0.000000
# 2 -0.007718 0.023052 -0.003627 0.000000 0.000000 0.000000
# 3 -0.003627 -0.003627 0.010423 0.000000 0.000000 0.000000
# 4 0.000000 0.000000 0.000000 0.048507 0.000000 0.000000
# 5 0.000000 0.000000 0.000000 0.000000 0.048507 0.000000
# 6 0.000000 0.000000 0.000000 0.000000 0.000000 0.061540
#
#
# Mechanical properties :
#
#
# Convention : Reuss Voigt Hill
#
# Bulk Modulus (GPa) = 37.61656 42.18133 39.89894
# Shear Modulus (GPa) = 19.69388 21.38292 20.53840
#
# Velocity S-wave (km/s) = 3.29239 3.43067 3.36224
# Velocity P-wave (km/s) = 5.92940 6.23778 6.08554
#
# Compressibility (1/GPa) = 0.02658404
#
# Stress axis : x y z
#
# Youngs Moduli (GPa) = 43.37981 43.37981 95.94560
#
# Poissons Ratio (x) = 0.33479 0.34798
# Poissons Ratio (y) = 0.33479 0.34798
# Poissons Ratio (z) = 0.15733 0.15733
#
# Static dielectric constant tensor:
#      x y z
#    x 3.294550 0.000000 0.000000 
#    y 0.000000 3.294550 0.000000 
#    z 0.000000 0.000000 3.552040 
# 
# 
# High freq. dielectric constant tensor:
#      x y z
#    x 1.684230 0.000000 0.000000 
#    y 0.000000 1.684230 0.000000 
#    z 0.000000 0.000000 1.708210 
# 
# From -- ./inp_files/841.got.cif
#   From: 2010.03.12/outbox.cif.g09.slc.cpg/sg171_1_cif.got.tgz:841.got - 2010.04.02 06:49:11.
