data_PCOD8324109
_publ_section_title
;
Structure prediction by ZEFSAII (Michael W. Deem and Ramdas Pophale) SiO2 
 PCOD8324109
Probable space group: R -3 M
;
_chemical_formula_sum "Si O2"
_cell_formula_units_Z 252
_cell_length_a 29.534347
_cell_length_b 29.534347
_cell_length_c 18.442088
_cell_angle_alpha 90.000000
_cell_angle_beta 90.000000
_cell_angle_gamma 120.000000
_cell_volume 13931.422648
_symmetry_space_group_name_H-M "R -3 M"
_symmetry_group_IT_number 166
_symmetry_cell_setting 'hexagonal'
loop_
_space_group_symop_operation_xyz
x,y,z
-y,x-y,z
-x+y,-x,z
x-y,-y,-z
-x,-x+y,-z
y,x,-z
-x,-y,-z
y,-x+y,-z
x-y,x,-z
-x+y,y,z
x,x-y,z
-y,-x,z
2/3+x,1/3+y,1/3+z
2/3-y,1/3+x-y,1/3+z
2/3-x+y,1/3-x,1/3+z
2/3+x-y,1/3-y,1/3-z
2/3-x,1/3-x+y,1/3-z
2/3+y,1/3+x,1/3-z
2/3-x,1/3-y,1/3-z
2/3+y,1/3-x+y,1/3-z
2/3+x-y,1/3+x,1/3-z
2/3-x+y,1/3+y,1/3+z
2/3+x,1/3+x-y,1/3+z
2/3-y,1/3-x,1/3+z
1/3+x,2/3+y,2/3+z
1/3-y,2/3+x-y,2/3+z
1/3-x+y,2/3-x,2/3+z
1/3+x-y,2/3-y,2/3-z
1/3-x,2/3-x+y,2/3-z
1/3+y,2/3+x,2/3-z
1/3-x,2/3-y,2/3-z
1/3+y,2/3-x+y,2/3-z
1/3+x-y,2/3+x,2/3-z
1/3-x+y,2/3+y,2/3+z
1/3+x,2/3+x-y,2/3+z
1/3-y,2/3-x,2/3+z
loop_
_atom_site_type_symbol
_atom_site_label
_atom_site_fract_x
_atom_site_fract_y
_atom_site_fract_z
Si Si1 0.660411 0.721434 0.633686
Si Si2 0.333552 0.770054 0.584760
Si Si3 0.089358 0.376815 0.274263
Si Si4 0.639522 0.766717 0.498718
Si Si5 0.868045 0.631627 0.100537
Si Si6 0.139820 0.962362 0.788444
Si Si7 0.390209 0.885860 0.953949
O O1 0.616405 0.666667 0.666667
O O2 0.704892 0.714613 0.592617
O O3 0.631282 0.739662 0.577094
O O4 0.689254 0.763733 0.696319
O O5 0.374764 0.749528 0.578256
O O6 0.276894 0.723107 0.561171
O O7 0.333334 0.788738 0.666667
O O8 0.349889 0.820111 0.534434
O O9 0.078910 0.333334 0.333334
O O10 0.106517 0.359765 0.201222
O O11 0.137107 0.430244 0.305750
O O12 0.646863 0.823432 0.510087
O O13 0.590037 0.730956 0.447808
O O14 0.821903 0.643805 0.083228
O O15 0.903481 0.666667 0.166667
O O16 0.846153 0.572409 0.125394
O O17 0.082582 0.917419 0.762202
O O18 0.161272 0.010066 0.731757
O O19 0.442130 0.884260 0.970754
#
# Coordination Sequence:
#
# PCOD8324109 Si02
#       7
#    36  36  36  36  36  36  36
#     4  11  22  34  56  79 106 139 177 221 259 313
#     4   9  17  31  52  78 107 138 173 215 263 312
#     4   9  18  33  54  79 105 138 172 213 264 313
#     4  10  21  36  54  79 108 137 175 221 270 317
#     4  10  22  39  55  71 100 142 181 215 259 313
#     4  10  20  35  53  73 102 139 177 216 260 315
#     4  10  19  34  55  79 107 137 174 219 269 319
#
# _framework density 18.088605000000001
#
# number of rings (size 3 to 8) (size 9 to 14) (size 15 to 20)
#    0.000    2.143    1.429    1.857    2.000    2.286 
#    2.571    0.000    0.000    0.286    0.000    0.000 
#    0.000    0.000    0.000    0.000    0.000    5.286 
#
# Total GULP energy -1041669.110484 kJ/mol
# GULP energy per Si atom -12400.822744 kJ/mol
# Density = 1.804743 g / cm^3
# Si number density = 18.088605 Si / 1000 Ang^3
#
#
#
# Elastic Constant Matrix: (Units=GPa)
#
#
# Indices 1 2 3 4 5 6 
#
# 1 67.0171 25.5626 34.1852 -1.9546 -0.0003 0.0000
# 2 25.5626 67.0171 34.1852 1.9546 0.0003 0.0000
# 3 34.1852 34.1852 66.3751 0.0000 0.0000 0.0000
# 4 -1.9546 1.9546 0.0000 28.8884 0.0000 0.0003
# 5 -0.0003 0.0003 0.0000 0.0000 28.8884 -1.9546
# 6 0.0000 0.0000 0.0000 0.0003 -1.9546 20.7272
#
#
#
# Elastic Compliance Matrix: (Units=1/GPa)
#
#
# Indices 1 2 3 4 5 6 
#
# 1 0.020855 -0.003423 -0.008978 0.001643 0.000000 0.000000
# 2 -0.003423 0.020855 -0.008978 -0.001643 0.000000 0.000000
# 3 -0.008978 -0.008978 0.024314 0.000000 0.000000 0.000000
# 4 0.001643 -0.001643 0.000000 0.034838 0.000000 0.000000
# 5 0.000000 0.000000 0.000000 0.000000 0.034838 0.003285
# 6 0.000000 0.000000 0.000000 0.000000 0.003285 0.048556
#
#
# Mechanical properties :
#
#
# Convention : Reuss Voigt Hill
#
# Bulk Modulus (GPa) = 42.98195 43.14172 43.06184
# Shear Modulus (GPa) = 21.29765 22.79923 22.04844
#
# Velocity S-wave (km/s) = 3.43506 3.55409 3.49508
# Velocity P-wave (km/s) = 6.28859 6.38311 6.33602
#
# Compressibility (1/GPa) = 0.02326558
#
# Stress axis : x y z
#
# Youngs Moduli (GPa) = 47.95078 47.95078 41.12916
#
# Poissons Ratio (x) = 0.16414 0.36925
# Poissons Ratio (y) = 0.16414 0.36925
# Poissons Ratio (z) = 0.43050 0.43050
#
# Static dielectric constant tensor:
#      x y z
#    x 3.361560 0.000000 0.000000 
#    y 0.000000 3.361560 0.000000 
#    z 0.000000 0.000000 3.243970 
# 
# 
# High freq. dielectric constant tensor:
#      x y z
#    x 1.699430 0.000000 0.000000 
#    y 0.000000 1.699430 0.000000 
#    z 0.000000 0.000000 1.684360 
# 
# From -- ./inp_files/5857.got.cif
#   From: 2010.03.12/outbox.cif.g09.slc.cpg/sg166_3_cif.got.tgz:5857.got - 2010.04.02 06:38:31.
