data_PCOD8324471
_publ_section_title
;
Structure prediction by ZEFSAII (Michael W. Deem and Ramdas Pophale) SiO2 
 PCOD8324471
Probable space group: P 61
;
_chemical_formula_sum "Si O2"
_cell_formula_units_Z 48
_cell_length_a 11.290568
_cell_length_b 11.290568
_cell_length_c 22.634187
_cell_angle_alpha 90.000000
_cell_angle_beta 90.000000
_cell_angle_gamma 120.000000
_cell_volume 2498.774773
_symmetry_space_group_name_H-M "P 61"
_symmetry_group_IT_number 169
_symmetry_cell_setting 'hexagonal'
loop_
_space_group_symop_operation_xyz
x,y,z
x-y,x,1/6+z
-y,x-y,1/3+z
-x,-y,1/2+z
-x+y,-x,2/3+z
y,-x+y,5/6+z
loop_
_atom_site_type_symbol
_atom_site_label
_atom_site_fract_x
_atom_site_fract_y
_atom_site_fract_z
Si Si1 0.675290 0.002681 0.347960
Si Si2 0.650168 0.604806 0.920683
Si Si3 0.380619 0.801609 0.314244
Si Si4 0.296972 0.578097 0.217362
Si Si5 0.855713 0.053083 0.577857
Si Si6 0.993164 0.412896 0.457123
Si Si7 0.805302 0.946891 0.453630
Si Si8 0.648922 0.281862 0.600752
O O1 0.673199 0.141057 0.365502
O O2 0.792639 0.027180 0.300917
O O3 0.545032 0.880820 0.315935
O O4 0.695018 0.943217 0.408793
O O5 0.573038 0.645322 0.969502
O O6 0.787409 0.750902 0.912820
O O7 0.566922 0.544294 0.859798
O O8 0.675740 0.483384 0.940963
O O9 0.305830 0.694170 0.261513
O O10 0.326763 0.726302 0.376348
O O11 0.376239 0.514530 0.251359
O O12 0.381201 0.651661 0.157872
O O13 0.733585 0.019772 0.622468
O O14 0.788739 0.014571 0.513120
O O15 0.924369 0.960992 0.595280
O O16 0.117355 0.554963 0.433327
#
# Coordination Sequence:
#
# PCOD8324471 Si02
#       8
#     6   6   6   6   6   6   6   6
#     4  11  23  38  61  94 122 161 213 257 311 379
#     4  11  21  41  60  92 130 164 208 262 318 379
#     4  12  26  38  64  93 132 169 206 265 328 383
#     4  12  22  41  66  92 128 170 211 269 320 388
#     4  10  19  34  63  95 115 157 205 260 306 366
#     4  11  21  38  66  90 126 161 215 262 315 379
#     4  10  19  36  64  92 116 155 206 266 300 362
#     4  11  25  40  64  92 123 171 216 265 316 382
#
# _framework density 19.209413999999999
#
# number of rings (size 3 to 8) (size 9 to 14) (size 15 to 20)
#    0.000    1.000    7.500    0.750    1.750    0.000 
#    0.000    0.000    5.500    0.000    0.000    0.000 
#    0.000    0.000    0.000    0.000    0.000    0.000 
#
# Total GULP energy -594770.157447 kJ/mol
# GULP energy per Si atom -12391.044947 kJ/mol
# Density = 1.916569 g / cm^3
# Si number density = 19.209414 Si / 1000 Ang^3
#
#
#
# Elastic Constant Matrix: (Units=GPa)
#
#
# Indices 1 2 3 4 5 6 
#
# 1 71.0534 31.2998 15.2404 0.0000 0.0000 0.0000
# 2 31.2998 71.0534 15.2404 0.0000 0.0000 0.0000
# 3 15.2404 15.2404 84.6413 0.0000 0.0000 0.0000
# 4 0.0000 0.0000 0.0000 28.6395 0.0000 0.0000
# 5 0.0000 0.0000 0.0000 0.0000 28.6395 0.0000
# 6 0.0000 0.0000 0.0000 0.0000 0.0000 19.8768
#
#
#
# Elastic Compliance Matrix: (Units=1/GPa)
#
#
# Indices 1 2 3 4 5 6 
#
# 1 0.017739 -0.007416 -0.001859 0.000000 0.000000 0.000000
# 2 -0.007416 0.017739 -0.001859 0.000000 0.000000 0.000000
# 3 -0.001859 -0.001859 0.012484 0.000000 0.000000 0.000000
# 4 0.000000 0.000000 0.000000 0.034917 0.000000 0.000000
# 5 0.000000 0.000000 0.000000 0.000000 0.034917 0.000000
# 6 0.000000 0.000000 0.000000 0.000000 0.000000 0.050310
#
#
# Mechanical properties :
#
#
# Convention : Reuss Voigt Hill
#
# Bulk Modulus (GPa) = 38.91678 38.92322 38.92000
# Shear Modulus (GPa) = 25.13345 26.42901 25.78123
#
# Velocity S-wave (km/s) = 3.62109 3.71325 3.66746
# Velocity P-wave (km/s) = 6.14706 6.22020 6.18374
#
# Compressibility (1/GPa) = 0.02569586
#
# Stress axis : x y z
#
# Youngs Moduli (GPa) = 56.37200 56.37200 80.10270
#
# Poissons Ratio (x) = 0.41803 0.14890
# Poissons Ratio (y) = 0.41803 0.14890
# Poissons Ratio (z) = 0.10479 0.10479
#
# Static dielectric constant tensor:
#      x y z
#    x 3.531530 0.000000 0.000000 
#    y 0.000000 3.531530 0.000000 
#    z 0.000000 0.000000 3.723810 
# 
# 
# High freq. dielectric constant tensor:
#      x y z
#    x 1.734200 0.000000 0.000000 
#    y 0.000000 1.734200 0.000000 
#    z 0.000000 0.000000 1.763860 
# 
# From -- ./inp_files/1557.got.cif
#   From: 2010.03.12/outbox.cif.g09.slc.cpg/sg169_cif.got.tgz:1557.got - 2010.04.02 06:46:06.
