data_PCOD8324746
_publ_section_title
;
Structure prediction by ZEFSAII (Michael W. Deem and Ramdas Pophale) SiO2 
 PCOD8324746
Probable space group: P 62
;
_chemical_formula_sum "Si O2"
_cell_formula_units_Z 24
_cell_length_a 8.842246
_cell_length_b 8.842246
_cell_length_c 20.036728
_cell_angle_alpha 90.000000
_cell_angle_beta 90.000000
_cell_angle_gamma 120.000000
_cell_volume 1356.696238
_symmetry_space_group_name_H-M "P 62"
_symmetry_group_IT_number 171
_symmetry_cell_setting 'hexagonal'
loop_
_space_group_symop_operation_xyz
x,y,z
x-y,x,1/3+z
-y,x-y,2/3+z
-x,-y,z
-x+y,-x,1/3+z
y,-x+y,2/3+z
loop_
_atom_site_type_symbol
_atom_site_label
_atom_site_fract_x
_atom_site_fract_y
_atom_site_fract_z
Si Si1 0.177637 0.175614 0.218800
Si Si2 0.870529 0.295499 0.661903
Si Si3 0.516170 0.830152 0.144639
Si Si4 0.512024 0.327669 0.869441
O O1 0.201507 0.227896 0.297708
O O2 0.341114 0.157592 0.196299
O O3 0.172138 0.331346 0.177804
O O4 0.000000 0.000000 0.205811
O O5 0.811162 0.234611 0.737170
O O6 0.701334 0.243224 0.614475
O O7 0.000000 0.500000 0.658226
O O8 0.326742 0.666036 0.157746
O O9 0.500000 0.000000 0.152782
O O10 0.500000 0.500000 0.859807
#
# Coordination Sequence:
#
# PCOD8324746 Si02
#       4
#     6   6   6   6
#     4  10  20  38  61  86 127 154 194 255 294 355
#     4   9  20  39  61  82 121 157 206 240 307 351
#     4  11  21  37  66  87 119 164 197 251 310 357
#     4  10  20  38  59  88 124 152 198 252 294 362
#
# _framework density 17.690033
#
# number of rings (size 3 to 8) (size 9 to 14) (size 15 to 20)
#    1.500    0.500    2.500    2.250    0.000    3.000 
#    0.000    1.250    5.500    0.000    0.000    0.000 
#    0.000    0.000    0.000    0.000    0.000    0.000 
#
# Total GULP energy -297380.170782 kJ/mol
# GULP energy per Si atom -12390.840449 kJ/mol
# Density = 1.764977 g / cm^3
# Si number density = 17.690033 Si / 1000 Ang^3
#
#
#
# Elastic Constant Matrix: (Units=GPa)
#
#
# Indices 1 2 3 4 5 6 
#
# 1 124.9626 57.2424 44.2410 0.0000 0.0000 0.0000
# 2 57.2424 124.9626 44.2410 0.0000 0.0000 0.0000
# 3 44.2410 44.2410 109.1036 0.0000 0.0000 0.0000
# 4 0.0000 0.0000 0.0000 6.9063 0.0000 0.0000
# 5 0.0000 0.0000 0.0000 0.0000 6.9063 0.0000
# 6 0.0000 0.0000 0.0000 0.0000 0.0000 33.8601
#
#
#
# Elastic Compliance Matrix: (Units=1/GPa)
#
#
# Indices 1 2 3 4 5 6 
#
# 1 0.010800 -0.003966 -0.002771 0.000000 0.000000 0.000000
# 2 -0.003966 0.010800 -0.002771 0.000000 0.000000 0.000000
# 3 -0.002771 -0.002771 0.011413 0.000000 0.000000 0.000000
# 4 0.000000 0.000000 0.000000 0.144796 0.000000 0.000000
# 5 0.000000 0.000000 0.000000 0.000000 0.144796 0.000000
# 6 0.000000 0.000000 0.000000 0.000000 0.000000 0.029533
#
#
# Mechanical properties :
#
#
# Convention : Reuss Voigt Hill
#
# Bulk Modulus (GPa) = 71.44691 72.27527 71.86109
# Shear Modulus (GPa) = 13.30421 23.75484 18.52953
#
# Velocity S-wave (km/s) = 2.74537 3.66845 3.23995
# Velocity P-wave (km/s) = 7.10812 7.67389 7.39641
#
# Compressibility (1/GPa) = 0.01399641
#
# Stress axis : x y z
#
# Youngs Moduli (GPa) = 92.58967 92.58967 87.61940
#
# Poissons Ratio (x) = 0.36724 0.24281
# Poissons Ratio (y) = 0.36724 0.24281
# Poissons Ratio (z) = 0.25658 0.25658
#
# Static dielectric constant tensor:
#      x y z
#    x 3.492670 0.000000 0.000000 
#    y 0.000000 3.492670 0.000000 
#    z 0.000000 0.000000 3.310750 
# 
# 
# High freq. dielectric constant tensor:
#      x y z
#    x 1.687240 0.000000 0.000000 
#    y 0.000000 1.687240 0.000000 
#    z 0.000000 0.000000 1.667470 
# 
# From -- ./inp_files/2754.got.cif
#   From: 2010.03.12/outbox.cif.g09.slc.cpg/sg171_2_cif.got.tgz:2754.got - 2010.04.02 06:49:11.
