data_PCOD8324733
_publ_section_title
;
Structure prediction by ZEFSAII (Michael W. Deem and Ramdas Pophale) SiO2 
 PCOD8324733
Probable space group: P 62
;
_chemical_formula_sum "Si O2"
_cell_formula_units_Z 36
_cell_length_a 8.538024
_cell_length_b 8.538024
_cell_length_c 26.508646
_cell_angle_alpha 90.000000
_cell_angle_beta 90.000000
_cell_angle_gamma 120.000000
_cell_volume 1673.527756
_symmetry_space_group_name_H-M "P 62"
_symmetry_group_IT_number 171
_symmetry_cell_setting 'hexagonal'
loop_
_space_group_symop_operation_xyz
x,y,z
x-y,x,1/3+z
-y,x-y,2/3+z
-x,-y,z
-x+y,-x,1/3+z
y,-x+y,2/3+z
loop_
_atom_site_type_symbol
_atom_site_label
_atom_site_fract_x
_atom_site_fract_y
_atom_site_fract_z
Si Si1 0.813194 0.490460 0.972300
Si Si2 0.320118 0.315612 0.228457
Si Si3 0.201291 0.159048 0.814634
Si Si4 0.363610 0.310239 0.531430
Si Si5 0.865080 0.312090 0.667785
Si Si6 0.697691 0.658516 0.056007
O O1 0.825228 0.545834 0.914187
O O2 0.635052 0.296583 0.979398
O O3 0.000000 0.500000 0.989634
O O4 0.777772 0.625425 0.005453
O O5 0.500000 0.500000 0.213039
O O6 0.158400 0.309666 0.196337
O O7 0.277253 0.313699 0.287423
O O8 0.324567 0.134438 0.215151
O O9 0.177522 0.333585 0.823852
O O10 0.303794 0.151244 0.764834
O O11 0.000000 0.000000 0.811595
O O12 0.500000 0.500000 0.505053
O O13 0.000000 0.500000 0.695232
O O14 0.823212 0.159570 0.709492
O O15 0.500000 0.500000 0.073223
#
# Coordination Sequence:
#
# PCOD8324733 Si02
#       6
#     6   6   6   6   6   6
#     4  10  20  37  59  88 118 149 193 242 293 348
#     4  10  19  35  58  85 114 147 190 239 291 344
#     4  10  22  37  56  83 116 156 193 233 292 350
#     4  10  20  37  59  84 115 150 196 246 286 342
#     4  10  20  36  62  89 114 149 194 243 294 350
#     4  10  22  40  59  83 120 157 193 241 295 354
#
# _framework density 21.511447
#
# number of rings (size 3 to 8) (size 9 to 14) (size 15 to 20)
#    0.000    2.000    0.000    5.500    0.000    2.667 
#    0.000   15.833    0.000    5.000    0.000    0.000 
#    0.000    0.000    0.000    0.000    0.000    0.000 
#
# Total GULP energy -446021.640732 kJ/mol
# GULP energy per Si atom -12389.490020 kJ/mol
# Density = 2.146249 g / cm^3
# Si number density = 21.511447 Si / 1000 Ang^3
#
#
#
# Elastic Constant Matrix: (Units=GPa)
#
#
# Indices 1 2 3 4 5 6 
#
# 1 104.1934 52.2445 44.4000 0.0000 0.0000 0.0000
# 2 52.2445 104.1934 44.4000 0.0000 0.0000 0.0000
# 3 44.4000 44.4000 76.3361 0.0000 0.0000 0.0000
# 4 0.0000 0.0000 0.0000 16.4655 0.0000 0.0000
# 5 0.0000 0.0000 0.0000 0.0000 16.4655 0.0000
# 6 0.0000 0.0000 0.0000 0.0000 0.0000 25.9744
#
#
#
# Elastic Compliance Matrix: (Units=1/GPa)
#
#
# Indices 1 2 3 4 5 6 
#
# 1 0.014396 -0.004853 -0.005551 0.000000 0.000000 0.000000
# 2 -0.004853 0.014396 -0.005551 0.000000 0.000000 0.000000
# 3 -0.005551 -0.005551 0.019557 0.000000 0.000000 0.000000
# 4 0.000000 0.000000 0.000000 0.060733 0.000000 0.000000
# 5 0.000000 0.000000 0.000000 0.000000 0.060733 0.000000
# 6 0.000000 0.000000 0.000000 0.000000 0.000000 0.038499
#
#
# Mechanical properties :
#
#
# Convention : Reuss Voigt Hill
#
# Bulk Modulus (GPa) = 60.82530 62.97911 61.90220
# Shear Modulus (GPa) = 20.34968 21.35965 20.85466
#
# Velocity S-wave (km/s) = 3.07904 3.15452 3.11701
# Velocity P-wave (km/s) = 6.40139 6.52752 6.46476
#
# Compressibility (1/GPa) = 0.01644053
#
# Stress axis : x y z
#
# Youngs Moduli (GPa) = 69.46193 69.46193 51.13300
#
# Poissons Ratio (x) = 0.33712 0.28382
# Poissons Ratio (y) = 0.33712 0.28382
# Poissons Ratio (z) = 0.38556 0.38556
#
# Static dielectric constant tensor:
#      x y z
#    x 4.279660 0.000000 0.000000 
#    y 0.000000 4.279660 0.000000 
#    z 0.000000 0.000000 3.738090 
# 
# 
# High freq. dielectric constant tensor:
#      x y z
#    x 1.852170 0.000000 0.000000 
#    y 0.000000 1.852170 0.000000 
#    z 0.000000 0.000000 1.825090 
# 
# From -- ./inp_files/5733.got.cif
#   From: 2010.03.12/outbox.cif.g09.slc.cpg/sg171_3_cif.got.tgz:5733.got - 2010.04.02 06:49:11.
