data_PCOD8324840
_publ_section_title
;
Structure prediction by ZEFSAII (Michael W. Deem and Ramdas Pophale) SiO2 
 PCOD8324840
Probable space group: P 63
;
_chemical_formula_sum "Si O2"
_cell_formula_units_Z 48
_cell_length_a 18.251932
_cell_length_b 18.251932
_cell_length_c 8.460512
_cell_angle_alpha 90.000000
_cell_angle_beta 90.000000
_cell_angle_gamma 120.000000
_cell_volume 2440.871754
_symmetry_space_group_name_H-M "P 63"
_symmetry_group_IT_number 173
_symmetry_cell_setting 'hexagonal'
loop_
_space_group_symop_operation_xyz
x,y,z
x-y,x,1/2+z
-y,x-y,z
-x,-y,1/2+z
-x+y,-x,z
y,-x+y,1/2+z
loop_
_atom_site_type_symbol
_atom_site_label
_atom_site_fract_x
_atom_site_fract_y
_atom_site_fract_z
Si Si1 0.469561 0.381605 0.912390
Si Si2 0.381605 0.912044 0.045576
Si Si3 0.188462 0.817609 0.413667
Si Si4 0.629147 0.811538 0.044299
Si Si5 0.813707 0.898727 0.912823
Si Si6 0.813707 0.898727 0.545143
Si Si7 0.459352 0.091084 0.911645
Si Si8 0.540648 0.908916 0.046321
O O1 0.460862 0.400375 0.728983
O O2 0.442161 0.285305 0.941985
O O3 0.566623 0.444394 0.969899
O O4 0.407699 0.400153 0.015350
O O5 0.285305 0.843144 0.015980
O O6 0.444394 0.877771 0.988066
O O7 0.400153 0.992454 0.942615
O O8 0.169007 0.820608 0.228983
O O9 0.163623 0.879414 0.502943
O O10 0.138851 0.724111 0.491927
O O11 0.585260 0.861149 0.966038
O O12 0.715792 0.836377 0.955023
O O13 0.822107 0.921219 0.728983
O O14 0.865726 0.851250 0.948646
O O15 0.851250 0.985523 0.009320
O O16 0.462525 0.111935 0.728983
#
# Coordination Sequence:
#
# PCOD8324840 Si02
#       8
#     6   6   6   6   6   6   6   6
#     4   9  18  33  52  75 104 139 177 221 269 320
#     4   9  18  33  52  75 104 139 177 221 269 320
#     4  10  20  35  55  82 112 144 188 233 276 330
#     4  10  20  35  55  82 112 144 188 233 276 330
#     4  12  25  41  60  84 115 150 188 231 281 334
#     4  12  25  41  60  84 115 150 188 231 281 334
#     4   9  18  33  52  75 104 139 177 221 269 320
#     4   9  18  33  52  75 104 139 177 221 269 320
#
# _framework density 19.665106000000002
#
# number of rings (size 3 to 8) (size 9 to 14) (size 15 to 20)
#    0.000    2.000    0.000    4.000    0.000    6.000 
#    1.500    0.000    0.000    0.000    0.000    0.000 
#    0.000    0.000    0.000    0.000    0.000    0.000 
#
# Total GULP energy -595064.147231 kJ/mol
# GULP energy per Si atom -12397.169734 kJ/mol
# Density = 1.962035 g / cm^3
# Si number density = 19.665106 Si / 1000 Ang^3
#
#
#
# Elastic Constant Matrix: (Units=GPa)
#
#
# Indices 1 2 3 4 5 6 
#
# 1 91.1862 43.2165 12.9392 0.0000 0.0000 0.0000
# 2 43.2165 91.1862 12.9392 0.0000 0.0000 0.0000
# 3 12.9392 12.9392 36.3081 0.0000 0.0000 0.0000
# 4 0.0000 0.0000 0.0000 17.7489 0.0000 0.0000
# 5 0.0000 0.0000 0.0000 0.0000 17.7489 0.0000
# 6 0.0000 0.0000 0.0000 0.0000 0.0000 23.9848
#
#
#
# Elastic Compliance Matrix: (Units=1/GPa)
#
#
# Indices 1 2 3 4 5 6 
#
# 1 0.014417 -0.006429 -0.002847 0.000000 0.000000 0.000000
# 2 -0.006429 0.014417 -0.002847 0.000000 0.000000 0.000000
# 3 -0.002847 -0.002847 0.029571 0.000000 0.000000 0.000000
# 4 0.000000 0.000000 0.000000 0.056342 0.000000 0.000000
# 5 0.000000 0.000000 0.000000 0.000000 0.056342 0.000000
# 6 0.000000 0.000000 0.000000 0.000000 0.000000 0.041693
#
#
# Mechanical properties :
#
#
# Convention : Reuss Voigt Hill
#
# Bulk Modulus (GPa) = 29.27346 39.65225 34.46286
# Shear Modulus (GPa) = 20.12762 21.86888 20.99825
#
# Velocity S-wave (km/s) = 3.20272 3.33838 3.27125
# Velocity P-wave (km/s) = 5.34742 5.92176 5.64190
#
# Compressibility (1/GPa) = 0.03416064
#
# Stress axis : x y z
#
# Youngs Moduli (GPa) = 69.36021 69.36021 33.81674
#
# Poissons Ratio (x) = 0.44592 0.09627
# Poissons Ratio (y) = 0.44592 0.09627
# Poissons Ratio (z) = 0.19746 0.19746
#
# Static dielectric constant tensor:
#      x y z
#    x 3.727710 0.000000 0.000000 
#    y 0.000000 3.727710 0.000000 
#    z 0.000000 0.000000 3.467500 
# 
# 
# High freq. dielectric constant tensor:
#      x y z
#    x 1.772030 0.000000 0.000000 
#    y 0.000000 1.772030 0.000000 
#    z 0.000000 0.000000 1.750710 
# 
# From -- ./inp_files/672.got.cif
#   From: 2010.03.12/outbox.cif.g09.slc.cpg/sg173_cif.got.tgz:672.got - 2010.04.02 06:54:12.
