data_PCOD8324209
_publ_section_title
;
Structure prediction by ZEFSAII (Michael W. Deem and Ramdas Pophale) SiO2 
 PCOD8324209
Probable space group: R -3 M
;
_chemical_formula_sum "Si O2"
_cell_formula_units_Z 126
_cell_length_a 19.668246
_cell_length_b 19.668246
_cell_length_c 17.420263
_cell_angle_alpha 90.000000
_cell_angle_beta 90.000000
_cell_angle_gamma 120.000000
_cell_volume 5836.017725
_symmetry_space_group_name_H-M "R -3 M"
_symmetry_group_IT_number 166
_symmetry_cell_setting 'hexagonal'
loop_
_space_group_symop_operation_xyz
x,y,z
-y,x-y,z
-x+y,-x,z
x-y,-y,-z
-x,-x+y,-z
y,x,-z
-x,-y,-z
y,-x+y,-z
x-y,x,-z
-x+y,y,z
x,x-y,z
-y,-x,z
2/3+x,1/3+y,1/3+z
2/3-y,1/3+x-y,1/3+z
2/3-x+y,1/3-x,1/3+z
2/3+x-y,1/3-y,1/3-z
2/3-x,1/3-x+y,1/3-z
2/3+y,1/3+x,1/3-z
2/3-x,1/3-y,1/3-z
2/3+y,1/3-x+y,1/3-z
2/3+x-y,1/3+x,1/3-z
2/3-x+y,1/3+y,1/3+z
2/3+x,1/3+x-y,1/3+z
2/3-y,1/3-x,1/3+z
1/3+x,2/3+y,2/3+z
1/3-y,2/3+x-y,2/3+z
1/3-x+y,2/3-x,2/3+z
1/3+x-y,2/3-y,2/3-z
1/3-x,2/3-x+y,2/3-z
1/3+y,2/3+x,2/3-z
1/3-x,2/3-y,2/3-z
1/3+y,2/3-x+y,2/3-z
1/3+x-y,2/3+x,2/3-z
1/3-x+y,2/3+y,2/3+z
1/3+x,2/3+x-y,2/3+z
1/3-y,2/3-x,2/3+z
loop_
_atom_site_type_symbol
_atom_site_label
_atom_site_fract_x
_atom_site_fract_y
_atom_site_fract_z
Si Si1 0.485620 0.666667 0.166667
Si Si2 0.413517 0.321563 0.697089
Si Si3 0.508144 0.173321 0.553185
Si Si4 0.617573 0.076540 0.262014
O O1 0.473757 0.736879 0.134367
O O2 0.548567 0.703070 0.234971
O O3 0.333334 0.245704 0.666667
O O4 0.474948 0.357222 0.627430
O O5 0.390468 0.382371 0.732699
O O6 0.596213 0.192427 0.536761
O O7 0.508970 0.254485 0.566894
O O8 0.452961 0.124582 0.482350
O O9 0.531711 0.063422 0.264166
O O10 0.666667 0.130555 0.333334
#
# Coordination Sequence:
#
# PCOD8324209 Si02
#       4
#    18  36  36  36
#     4  12  25  42  64  90 123 160 200 246 298 358
#     4  11  24  41  62  90 121 158 201 247 301 355
#     4  11  23  40  63  90 122 159 200 247 298 355
#     4  10  21  38  60  88 122 159 201 247 298 355
#
# _framework density 21.590064999999999
#
# number of rings (size 3 to 8) (size 9 to 14) (size 15 to 20)
#    0.000    1.143    0.000    6.429    0.000    8.000 
#    0.000   10.000    0.000    4.571    0.000    0.000 
#    0.000    0.000    0.000    0.000    0.000    0.000 
#
# Total GULP energy -520947.375863 kJ/mol
# GULP energy per Si atom -12403.508949 kJ/mol
# Density = 2.154093 g / cm^3
# Si number density = 21.590065 Si / 1000 Ang^3
#
#
#
# Elastic Constant Matrix: (Units=GPa)
#
#
# Indices 1 2 3 4 5 6 
#
# 1 70.2583 77.0367 44.7146 -10.0004 0.0009 0.0000
# 2 77.0367 70.2583 44.7146 10.0004 -0.0009 0.0000
# 3 44.7146 44.7146 136.1928 0.0000 0.0000 0.0000
# 4 -10.0004 10.0004 0.0000 31.0477 0.0000 -0.0009
# 5 0.0009 -0.0009 0.0000 0.0000 31.0477 -10.0004
# 6 0.0000 0.0000 0.0000 -0.0009 -10.0004 -3.3892
#
#
#
# Elastic Compliance Matrix: (Units=1/GPa)
#
#
# Indices 1 2 3 4 5 6 
#
# 1 -0.033580 0.042059 -0.002784 -0.024363 0.000002 0.000000
# 2 0.042059 -0.033580 -0.002784 0.024363 -0.000002 0.000000
# 3 -0.002784 -0.002784 0.009171 0.000000 0.000000 0.000000
# 4 -0.024363 0.024363 0.000000 0.016514 0.000000 -0.000004
# 5 0.000002 -0.000002 0.000000 0.000000 0.016514 -0.048727
# 6 0.000000 0.000000 0.000000 -0.000004 -0.048727 -0.151279
#
#
# Mechanical properties :
#
#
# Convention : Reuss Voigt Hill
#
# Bulk Modulus (GPa) = 66.69539 67.73793 67.21666
# Shear Modulus (GPa) = -20.47282 19.09081 -0.69100
#
# Velocity S-wave (km/s) = -3.08271 2.97684 -0.56635
# Velocity P-wave (km/s) = 4.27644 6.57709 5.54735
#
# Compressibility (1/GPa) = 0.01499354
#
# Stress axis : x y z
#
# Youngs Moduli (GPa) = -29.77959 -29.77959 109.04453
#
# Poissons Ratio (x) = 1.25251 0.30357
# Poissons Ratio (y) = 1.25251 0.30357
# Poissons Ratio (z) = -0.08290 -0.08290
#
# Static dielectric constant tensor:
#      x y z
#    x 3.886550 0.000000 0.000000 
#    y 0.000000 3.886550 0.000000 
#    z 0.000000 0.000000 4.186260 
# 
# 
# High freq. dielectric constant tensor:
#      x y z
#    x 1.851300 0.000000 0.000000 
#    y 0.000000 1.851300 0.000000 
#    z 0.000000 0.000000 1.862140 
# 
# From -- ./inp_files/4870.got.cif
#   From: 2010.03.12/outbox.cif.g09.slc.cpg/sg166_3_cif.got.tgz:4870.got - 2010.04.02 06:38:31.
