data_PCOD8324367
_publ_section_title
;
Structure prediction by ZEFSAII (Michael W. Deem and Ramdas Pophale) SiO2 
 PCOD8324367
Probable space group: R -3 C 
;
_chemical_formula_sum "Si O2"
_cell_formula_units_Z 162
_cell_length_a 21.772268
_cell_length_b 21.772268
_cell_length_c 18.623026
_cell_angle_alpha 90.000000
_cell_angle_beta 90.000000
_cell_angle_gamma 120.000000
_cell_volume 7645.188966
_symmetry_space_group_name_H-M "R -3 C "
_symmetry_group_IT_number 167
_symmetry_cell_setting 'hexagonal'
loop_
_space_group_symop_operation_xyz
x,y,z
-y,x-y,z
-x+y,-x,z
x-y,-y,1/2-z
-x,-x+y,1/2-z
y,x,1/2-z
-x,-y,-z
y,-x+y,-z
x-y,x,-z
-x+y,y,1/2+z
x,x-y,1/2+z
-y,-x,1/2+z
2/3+x,1/3+y,1/3+z
2/3-y,1/3+x-y,1/3+z
2/3-x+y,1/3-x,1/3+z
2/3+x-y,1/3-y,5/6-z
2/3-x,1/3-x+y,5/6-z
2/3+y,1/3+x,5/6-z
2/3-x,1/3-y,1/3-z
2/3+y,1/3-x+y,1/3-z
2/3+x-y,1/3+x,1/3-z
2/3-x+y,1/3+y,5/6+z
2/3+x,1/3+x-y,5/6+z
2/3-y,1/3-x,5/6+z
1/3+x,2/3+y,2/3+z
1/3-y,2/3+x-y,2/3+z
1/3-x+y,2/3-x,2/3+z
1/3+x-y,2/3-y,1/6-z
1/3-x,2/3-x+y,1/6-z
1/3+y,2/3+x,1/6-z
1/3-x,2/3-y,2/3-z
1/3+y,2/3-x+y,2/3-z
1/3+x-y,2/3+x,2/3-z
1/3-x+y,2/3+y,1/6+z
1/3+x,2/3+x-y,1/6+z
1/3-y,2/3-x,1/6+z
loop_
_atom_site_type_symbol
_atom_site_label
_atom_site_fract_x
_atom_site_fract_y
_atom_site_fract_z
Si Si1 0.264872 0.333334 0.083334
Si Si2 0.941750 0.131480 0.915578
Si Si3 0.099707 0.213630 0.930805
Si Si4 0.590335 0.594516 0.665116
Si Si5 0.155491 0.660550 0.340284
O O1 0.189324 0.269409 0.110272
O O2 0.321244 0.361804 0.149139
O O3 0.023309 0.159211 0.897464
O O4 0.893309 0.057345 0.876896
O O5 0.937003 0.120398 0.000896
O O6 0.103927 0.286514 0.956006
O O7 0.153544 0.221877 0.867091
O O8 0.579833 0.579833 0.750000
O O9 0.628209 0.553742 0.635869
O O10 0.194124 0.666667 0.416667
#
# Coordination Sequence:
#
# PCOD8324367 Si02
#       5
#    18  36  36  36  36
#     4  10  22  40  66 104 132 178 220 276 366 408
#     4  11  21  43  68  94 132 180 234 281 333 429
#     4  11  23  42  71  96 129 186 238 275 348 413
#     4  11  21  42  68  99 138 176 230 287 340 428
#     4  12  25  43  67 101 141 177 226 297 351 400
#
# _framework density 21.189796000000001
#
# number of rings (size 3 to 8) (size 9 to 14) (size 15 to 20)
#    0.000    0.889    5.556    2.667    0.000    1.778 
#    9.333    1.111    0.000    0.000    0.000    0.000 
#    0.000    0.000    0.000    0.000    0.000    0.000 
#
# Total GULP energy -669496.879156 kJ/mol
# GULP energy per Si atom -12398.090355 kJ/mol
# Density = 2.114157 g / cm^3
# Si number density = 21.189796 Si / 1000 Ang^3
#
#
#
# Elastic Constant Matrix: (Units=GPa)
#
#
# Indices 1 2 3 4 5 6 
#
# 1 100.6847 51.3671 45.5484 8.7616 0.0000 0.0000
# 2 51.3671 100.6847 45.5484 -8.7616 0.0000 0.0000
# 3 45.5484 45.5484 144.7936 0.0000 0.0000 0.0000
# 4 8.7616 -8.7616 0.0000 22.9567 0.0000 0.0000
# 5 0.0000 0.0000 0.0000 0.0000 22.9567 8.7616
# 6 0.0000 0.0000 0.0000 0.0000 8.7616 24.6588
#
#
#
# Elastic Compliance Matrix: (Units=1/GPa)
#
#
# Indices 1 2 3 4 5 6 
#
# 1 0.015781 -0.007677 -0.002549 -0.008953 0.000000 0.000000
# 2 -0.007677 0.015781 -0.002549 0.008953 0.000000 0.000000
# 3 -0.002549 -0.002549 0.008510 0.000000 0.000000 0.000000
# 4 -0.008953 0.008953 0.000000 0.050394 0.000000 0.000000
# 5 0.000000 0.000000 0.000000 0.000000 0.050394 -0.017906
# 6 0.000000 0.000000 0.000000 0.000000 -0.017906 0.046916
#
#
# Mechanical properties :
#
#
# Convention : Reuss Voigt Hill
#
# Bulk Modulus (GPa) = 68.86541 70.12120 69.49331
# Shear Modulus (GPa) = 22.91820 27.69438 25.30629
#
# Velocity S-wave (km/s) = 3.29229 3.61912 3.45957
# Velocity P-wave (km/s) = 6.85727 7.11533 6.98749
#
# Compressibility (1/GPa) = 0.01452108
#
# Stress axis : x y z
#
# Youngs Moduli (GPa) = 63.36761 63.36761 117.50483
#
# Poissons Ratio (x) = 0.48647 0.29956
# Poissons Ratio (y) = 0.48647 0.29956
# Poissons Ratio (z) = 0.16154 0.16154
#
# Static dielectric constant tensor:
#      x y z
#    x 3.955890 0.000000 0.000000 
#    y 0.000000 3.955890 0.000000 
#    z 0.000000 0.000000 3.767250 
# 
# 
# High freq. dielectric constant tensor:
#      x y z
#    x 1.832200 0.000000 0.000000 
#    y 0.000000 1.832200 0.000000 
#    z 0.000000 0.000000 1.822790 
# 
# From -- ./inp_files/3399.got.cif
#   From: 2010.03.12/outbox.cif.g09.slc.cpg/sg167_2_cif.got.tgz:3399.got - 2010.04.02 06:42:56.
