data_PCOD8324608
_publ_section_title
;
Structure prediction by ZEFSAII (Michael W. Deem and Ramdas Pophale) SiO2 
 PCOD8324608
Probable space group: P 61
;
_chemical_formula_sum "Si O2"
_cell_formula_units_Z 36
_cell_length_a 7.841009
_cell_length_b 7.841009
_cell_length_c 28.952934
_cell_angle_alpha 90.000000
_cell_angle_beta 90.000000
_cell_angle_gamma 120.000000
_cell_volume 1541.583725
_symmetry_space_group_name_H-M "P 61"
_symmetry_group_IT_number 169
_symmetry_cell_setting 'hexagonal'
loop_
_space_group_symop_operation_xyz
x,y,z
x-y,x,1/6+z
-y,x-y,1/3+z
-x,-y,1/2+z
-x+y,-x,2/3+z
y,-x+y,5/6+z
loop_
_atom_site_type_symbol
_atom_site_label
_atom_site_fract_x
_atom_site_fract_y
_atom_site_fract_z
Si Si1 0.711075 0.014685 0.189060
Si Si2 0.039175 0.957960 0.606600
Si Si3 0.717624 0.310140 0.661883
Si Si4 0.682318 0.278781 0.560274
Si Si5 0.655811 0.645954 0.076232
Si Si6 0.351810 0.344933 0.146042
O O1 0.836145 0.093911 0.142371
O O2 0.692768 0.189648 0.211427
O O3 0.825913 0.949109 0.223561
O O4 0.502171 0.826656 0.179303
O O5 0.812609 0.861061 0.623574
O O6 0.140364 0.195523 0.601128
O O7 0.750065 0.247278 0.610823
O O8 0.754022 0.531272 0.659413
O O9 0.867530 0.294244 0.696065
O O10 0.459865 0.237676 0.563991
O O11 0.706347 0.135747 0.525358
O O12 0.531596 0.462580 0.110473
#
# Coordination Sequence:
#
# PCOD8324608 Si02
#       6
#     6   6   6   6   6   6
#     4  12  26  48  76 104 152 194 258 316 392 464
#     4  12  26  50  74 110 150 204 252 328 380 468
#     4  11  25  48  75 112 147 201 253 319 391 466
#     4  11  25  48  75 112 147 201 253 319 391 466
#     4  11  25  48  78 106 151 199 258 318 396 465
#     4  11  25  48  78 106 151 199 258 318 396 465
#
# _framework density 23.352609000000001
#
# number of rings (size 3 to 8) (size 9 to 14) (size 15 to 20)
#    0.000    0.667    6.667    2.000    2.333    1.333 
#    6.000    0.000    0.000    0.000    0.000    0.000 
#    0.000    0.000    0.000    0.000    0.000    0.000 
#
# Total GULP energy -446587.049679 kJ/mol
# GULP energy per Si atom -12405.195824 kJ/mol
# Density = 2.329946 g / cm^3
# Si number density = 23.352609 Si / 1000 Ang^3
#
#
#
# Elastic Constant Matrix: (Units=GPa)
#
#
# Indices 1 2 3 4 5 6 
#
# 1 107.6130 45.0205 62.5588 0.0000 0.0000 0.0000
# 2 45.0205 107.6130 62.5588 0.0000 0.0000 0.0000
# 3 62.5588 62.5588 164.7956 0.0000 0.0000 0.0000
# 4 0.0000 0.0000 0.0000 41.9091 0.0000 0.0000
# 5 0.0000 0.0000 0.0000 0.0000 41.9091 0.0000
# 6 0.0000 0.0000 0.0000 0.0000 0.0000 31.2962
#
#
#
# Elastic Compliance Matrix: (Units=1/GPa)
#
#
# Indices 1 2 3 4 5 6 
#
# 1 0.012744 -0.003232 -0.003611 0.000000 0.000000 0.000000
# 2 -0.003232 0.012744 -0.003611 0.000000 0.000000 0.000000
# 3 -0.003611 -0.003611 0.008809 0.000000 0.000000 0.000000
# 4 0.000000 0.000000 0.000000 0.023861 0.000000 0.000000
# 5 0.000000 0.000000 0.000000 0.000000 0.023861 0.000000
# 6 0.000000 0.000000 0.000000 0.000000 0.000000 0.031953
#
#
# Mechanical properties :
#
#
# Convention : Reuss Voigt Hill
#
# Bulk Modulus (GPa) = 74.68495 80.03309 77.35902
# Shear Modulus (GPa) = 35.88266 37.01511 36.44888
#
# Velocity S-wave (km/s) = 3.92415 3.98559 3.95499
# Velocity P-wave (km/s) = 7.25140 7.45157 7.35217
#
# Compressibility (1/GPa) = 0.01338958
#
# Stress axis : x y z
#
# Youngs Moduli (GPa) = 78.46906 78.46906 113.51453
#
# Poissons Ratio (x) = 0.25365 0.40986
# Poissons Ratio (y) = 0.25365 0.40986
# Poissons Ratio (z) = 0.28333 0.28333
#
# Static dielectric constant tensor:
#      x y z
#    x 4.171900 0.000000 0.000000 
#    y 0.000000 4.171900 0.000000 
#    z 0.000000 0.000000 4.734530 
# 
# 
# High freq. dielectric constant tensor:
#      x y z
#    x 1.919370 0.000000 0.000000 
#    y 0.000000 1.919370 0.000000 
#    z 0.000000 0.000000 1.944170 
# 
# From -- ./inp_files/1827.got.cif
#   From: 2010.03.12/outbox.cif.g09.slc.cpg/sg169_cif.got.tgz:1827.got - 2010.04.02 06:46:06.
