data_PCOD8324261
_publ_section_title
;
Structure prediction by ZEFSAII (Michael W. Deem and Ramdas Pophale) SiO2 
 PCOD8324261
Probable space group: R -3 M
;
_chemical_formula_sum "Si O2"
_cell_formula_units_Z 108
_cell_length_a 29.342217
_cell_length_b 29.342217
_cell_length_c 9.445656
_cell_angle_alpha 90.000000
_cell_angle_beta 90.000000
_cell_angle_gamma 120.000000
_cell_volume 7042.852710
_symmetry_space_group_name_H-M "R -3 M"
_symmetry_group_IT_number 166
_symmetry_cell_setting 'hexagonal'
loop_
_space_group_symop_operation_xyz
x,y,z
-y,x-y,z
-x+y,-x,z
x-y,-y,-z
-x,-x+y,-z
y,x,-z
-x,-y,-z
y,-x+y,-z
x-y,x,-z
-x+y,y,z
x,x-y,z
-y,-x,z
2/3+x,1/3+y,1/3+z
2/3-y,1/3+x-y,1/3+z
2/3-x+y,1/3-x,1/3+z
2/3+x-y,1/3-y,1/3-z
2/3-x,1/3-x+y,1/3-z
2/3+y,1/3+x,1/3-z
2/3-x,1/3-y,1/3-z
2/3+y,1/3-x+y,1/3-z
2/3+x-y,1/3+x,1/3-z
2/3-x+y,1/3+y,1/3+z
2/3+x,1/3+x-y,1/3+z
2/3-y,1/3-x,1/3+z
1/3+x,2/3+y,2/3+z
1/3-y,2/3+x-y,2/3+z
1/3-x+y,2/3-x,2/3+z
1/3+x-y,2/3-y,2/3-z
1/3-x,2/3-x+y,2/3-z
1/3+y,2/3+x,2/3-z
1/3-x,2/3-y,2/3-z
1/3+y,2/3-x+y,2/3-z
1/3+x-y,2/3+x,2/3-z
1/3-x+y,2/3+y,2/3+z
1/3+x,2/3+x-y,2/3+z
1/3-y,2/3-x,2/3+z
loop_
_atom_site_type_symbol
_atom_site_label
_atom_site_fract_x
_atom_site_fract_y
_atom_site_fract_z
Si Si1 0.534312 0.068624 0.606229
Si Si2 0.699609 0.595662 0.964681
Si Si3 0.699019 0.936345 0.194223
Si Si4 0.717932 0.858966 0.035885
O O1 0.498440 0.090841 0.670858
O O2 0.542574 0.085148 0.440985
O O3 0.503798 0.007595 0.643908
O O4 0.666667 0.559719 0.833334
O O5 0.724983 0.657336 0.923656
O O6 0.663190 0.588040 0.101460
O O7 0.666667 0.904885 0.333334
O O8 0.730512 0.909046 0.132115
#
# Coordination Sequence:
#
# PCOD8324261 Si02
#       4
#    18  36  36  18
#     4   9  18  32  42  60  86 112 144 180 233 265
#     4   9  18  32  44  63  84 115 149 190 219 263
#     4   9  17  31  43  62  84 114 151 187 223 254
#     4   9  17  30  44  58  85 117 140 183 227 271
#
# _framework density 15.334695999999999
#
# number of rings (size 3 to 8) (size 9 to 14) (size 15 to 20)
#    0.000    3.000    0.000    0.500    0.000    5.333 
#   66.000    0.000    0.000    0.000    0.000    0.000 
#    0.000    0.000    0.000    9.000    0.000   17.833 
#
# Total GULP energy -446102.433071 kJ/mol
# GULP energy per Si atom -12391.734252 kJ/mol
# Density = 1.529979 g / cm^3
# Si number density = 15.334696 Si / 1000 Ang^3
#
#
#
# Elastic Constant Matrix: (Units=GPa)
#
#
# Indices 1 2 3 4 5 6 
#
# 1 81.9938 56.3644 47.2415 -4.0956 -0.0654 -0.0164
# 2 56.3644 82.0410 47.2783 4.0782 -0.0154 -0.0037
# 3 47.2415 47.2783 71.0076 -0.0120 -0.1652 -0.0207
# 4 -4.0956 4.0782 -0.0120 21.9361 -0.0191 -0.0087
# 5 -0.0654 -0.0154 -0.1652 -0.0191 21.8233 -4.1038
# 6 -0.0164 -0.0037 -0.0207 -0.0087 -4.1038 12.8300
#
#
#
# Elastic Compliance Matrix: (Units=1/GPa)
#
#
# Indices 1 2 3 4 5 6 
#
# 1 0.027346 -0.014096 -0.008806 0.007721 0.000017 0.000027
# 2 -0.014096 0.027346 -0.008831 -0.007721 -0.000109 -0.000064
# 3 -0.008806 -0.008831 0.025822 0.000012 0.000179 0.000085
# 4 0.007721 -0.007721 0.000012 0.048464 0.000072 0.000063
# 5 0.000017 -0.000109 0.000179 0.000072 0.048757 0.015596
# 6 0.000027 -0.000064 0.000085 0.000063 0.015596 0.082931
#
#
# Mechanical properties :
#
#
# Convention : Reuss Voigt Hill
#
# Bulk Modulus (GPa) = 58.66093 59.64565 59.15329
# Shear Modulus (GPa) = 15.16001 16.92843 16.04422
#
# Velocity S-wave (km/s) = 3.14763 3.32615 3.23812
# Velocity P-wave (km/s) = 7.17961 7.33017 7.25528
#
# Compressibility (1/GPa) = 0.01704712
#
# Stress axis : x y z
#
# Youngs Moduli (GPa) = 36.56907 36.56785 38.72640
#
# Poissons Ratio (x) = 0.51547 0.34103
# Poissons Ratio (y) = 0.51548 0.34200
# Poissons Ratio (z) = 0.32203 0.32294
#
# Static dielectric constant tensor:
#      x y z
#    x 2.803830 -0.000010 -0.000160 
#    y -0.000010 2.803920 -0.000010 
#    z -0.000160 -0.000010 3.201560 
# 
# 
# High freq. dielectric constant tensor:
#      x y z
#    x 1.549600 0.000000 -0.000010 
#    y 0.000000 1.549610 0.000000 
#    z -0.000010 0.000000 1.606730 
# 
# From -- ./inp_files/1508.got.cif
#   From: 2010.03.12/outbox.cif.g09.slc.cpg/sg166_1_cif.got.tgz:1508.got - 2010.04.02 06:38:31.
