data_PCOD8324091
_publ_section_title
;
Structure prediction by ZEFSAII (Michael W. Deem and Ramdas Pophale) SiO2 
 PCOD8324091
Probable space group: R -3 M
;
_chemical_formula_sum "Si O2"
_cell_formula_units_Z 90
_cell_length_a 20.530380
_cell_length_b 20.530380
_cell_length_c 12.744785
_cell_angle_alpha 90.000000
_cell_angle_beta 90.000000
_cell_angle_gamma 120.000000
_cell_volume 4652.186545
_symmetry_space_group_name_H-M "R -3 M"
_symmetry_group_IT_number 166
_symmetry_cell_setting 'hexagonal'
loop_
_space_group_symop_operation_xyz
x,y,z
-y,x-y,z
-x+y,-x,z
x-y,-y,-z
-x,-x+y,-z
y,x,-z
-x,-y,-z
y,-x+y,-z
x-y,x,-z
-x+y,y,z
x,x-y,z
-y,-x,z
2/3+x,1/3+y,1/3+z
2/3-y,1/3+x-y,1/3+z
2/3-x+y,1/3-x,1/3+z
2/3+x-y,1/3-y,1/3-z
2/3-x,1/3-x+y,1/3-z
2/3+y,1/3+x,1/3-z
2/3-x,1/3-y,1/3-z
2/3+y,1/3-x+y,1/3-z
2/3+x-y,1/3+x,1/3-z
2/3-x+y,1/3+y,1/3+z
2/3+x,1/3+x-y,1/3+z
2/3-y,1/3-x,1/3+z
1/3+x,2/3+y,2/3+z
1/3-y,2/3+x-y,2/3+z
1/3-x+y,2/3-x,2/3+z
1/3+x-y,2/3-y,2/3-z
1/3-x,2/3-x+y,2/3-z
1/3+y,2/3+x,2/3-z
1/3-x,2/3-y,2/3-z
1/3+y,2/3-x+y,2/3-z
1/3+x-y,2/3+x,2/3-z
1/3-x+y,2/3+y,2/3+z
1/3+x,2/3+x-y,2/3+z
1/3-y,2/3-x,2/3+z
loop_
_atom_site_type_symbol
_atom_site_label
_atom_site_fract_x
_atom_site_fract_y
_atom_site_fract_z
Si Si1 0.333334 0.819212 0.166667
Si Si2 0.618263 0.536100 0.023270
Si Si3 0.515061 0.181736 0.214153
O O1 0.404513 0.809025 0.160027
O O2 0.340472 0.868260 0.268901
O O3 0.538422 0.461579 0.014329
O O4 0.654304 0.540690 0.137843
O O5 0.607760 0.607760 0.000000
O O6 0.601118 0.202236 0.198259
O O7 0.510839 0.255420 0.185135
O O8 0.488660 0.155326 0.333334
#
# Coordination Sequence:
#
# PCOD8324091 Si02
#       3
#    18  36  36
#     4  10  19  32  54  82 109 136 174 230 290 340
#     4   9  18  32  48  68 100 141 177 209 255 321
#     4   9  16  27  47  76 108 138 170 216 276 338
#
# _framework density 19.345742000000001
#
# number of rings (size 3 to 8) (size 9 to 14) (size 15 to 20)
#    0.000    2.800    0.000    1.800    0.000    1.600 
#    0.000    6.000    0.000    0.000    0.000   16.800 
#    0.000    0.000    0.000    0.000    0.000    0.000 
#
# Total GULP energy -371919.588223 kJ/mol
# GULP energy per Si atom -12397.319607 kJ/mol
# Density = 1.930171 g / cm^3
# Si number density = 19.345742 Si / 1000 Ang^3
#
#
#
# Elastic Constant Matrix: (Units=GPa)
#
#
# Indices 1 2 3 4 5 6 
#
# 1 75.3527 45.3275 60.0678 -8.3845 -0.0002 0.0000
# 2 45.3275 75.3527 60.0678 8.3845 0.0002 0.0000
# 3 60.0678 60.0678 162.9777 0.0000 0.0000 0.0000
# 4 -8.3845 8.3845 0.0000 24.2237 0.0000 0.0002
# 5 -0.0002 0.0002 0.0000 0.0000 24.2237 -8.3845
# 6 0.0000 0.0000 0.0000 0.0002 -8.3845 15.0126
#
#
#
# Elastic Compliance Matrix: (Units=1/GPa)
#
#
# Indices 1 2 3 4 5 6 
#
# 1 0.027188 -0.014099 -0.004824 0.014290 0.000000 0.000000
# 2 -0.014099 0.027188 -0.004824 -0.014290 0.000000 0.000000
# 3 -0.004824 -0.004824 0.009692 0.000000 0.000000 0.000000
# 4 0.014290 -0.014290 0.000000 0.051174 0.000000 -0.000001
# 5 0.000000 0.000000 0.000000 0.000000 0.051174 0.028581
# 6 0.000000 0.000000 0.000000 -0.000001 0.028581 0.082573
#
#
# Mechanical properties :
#
#
# Convention : Reuss Voigt Hill
#
# Bulk Modulus (GPa) = 60.33938 71.62325 65.98131
# Shear Modulus (GPa) = 16.55590 22.57332 19.56461
#
# Velocity S-wave (km/s) = 2.92856 3.41961 3.18357
# Velocity P-wave (km/s) = 6.53399 7.25911 6.90608
#
# Compressibility (1/GPa) = 0.01657293
#
# Stress axis : x y z
#
# Youngs Moduli (GPa) = 36.78150 36.78150 103.18094
#
# Poissons Ratio (x) = 0.51858 0.49774
# Poissons Ratio (y) = 0.51858 0.49774
# Poissons Ratio (z) = 0.17743 0.17743
#
# Static dielectric constant tensor:
#      x y z
#    x 3.350280 0.000000 0.000000 
#    y 0.000000 3.350280 0.000000 
#    z 0.000000 0.000000 3.861390 
# 
# 
# High freq. dielectric constant tensor:
#      x y z
#    x 1.728350 0.000000 0.000000 
#    y 0.000000 1.728350 0.000000 
#    z 0.000000 0.000000 1.769300 
# 
# From -- ./inp_files/2573.got.cif
#   From: 2010.03.12/outbox.cif.g09.slc.cpg/sg166_2_cif.got.tgz:2573.got - 2010.04.02 06:38:31.
