data_PCOD8324534
_publ_section_title
;
Structure prediction by ZEFSAII (Michael W. Deem and Ramdas Pophale) SiO2 
 PCOD8324534
Probable space group: P 61
;
_chemical_formula_sum "Si O2"
_cell_formula_units_Z 48
_cell_length_a 14.446332
_cell_length_b 14.446332
_cell_length_c 12.202271
_cell_angle_alpha 90.000000
_cell_angle_beta 90.000000
_cell_angle_gamma 120.000000
_cell_volume 2205.395482
_symmetry_space_group_name_H-M "P 61"
_symmetry_group_IT_number 169
_symmetry_cell_setting 'hexagonal'
loop_
_space_group_symop_operation_xyz
x,y,z
x-y,x,1/6+z
-y,x-y,1/3+z
-x,-y,1/2+z
-x+y,-x,2/3+z
y,-x+y,5/6+z
loop_
_atom_site_type_symbol
_atom_site_label
_atom_site_fract_x
_atom_site_fract_y
_atom_site_fract_z
Si Si1 0.227423 0.834259 0.920310
Si Si2 0.272611 0.478246 0.471644
Si Si3 0.989710 0.847113 0.727514
Si Si4 0.948058 0.479589 0.731520
Si Si5 0.338010 0.514514 0.081969
Si Si6 0.999464 0.151699 0.899729
Si Si7 0.268520 0.691829 0.517750
Si Si8 0.600820 0.886927 0.025901
O O1 0.218477 0.939361 0.904052
O O2 0.349378 0.868383 0.937111
O O3 0.173727 0.757849 0.814506
O O4 0.176335 0.777117 0.035298
O O5 0.399180 0.514983 0.464353
O O6 0.251560 0.578004 0.476096
O O7 0.225344 0.411257 0.585366
O O8 0.901701 0.874814 0.679812
O O9 0.094186 0.897629 0.647815
O O10 0.962270 0.411951 0.830048
O O11 0.061193 0.578627 0.698113
O O12 0.394769 0.610368 0.167645
O O13 0.300144 0.556832 0.980467
O O14 0.038656 0.134564 0.780708
O O15 0.961025 0.237830 0.893193
O O16 0.189766 0.724036 0.458374
#
# Coordination Sequence:
#
# PCOD8324534 Si02
#       8
#     6   6   6   6   6   6   6   6
#     4  12  23  46  72 104 150 198 243 308 378 450
#     4  10  21  47  67 101 152 189 242 293 375 453
#     4  10  24  50  72 101 140 192 258 315 384 441
#     4  10  24  42  63 109 138 187 244 288 368 447
#     4  12  25  41  71 107 145 191 243 300 375 449
#     4  10  24  48  72 100 142 187 254 322 377 444
#     4  12  22  45  72 101 150 194 233 305 381 443
#     4  10  23  43  73 103 141 188 245 305 372 447
#
# _framework density 21.764802
#
# number of rings (size 3 to 8) (size 9 to 14) (size 15 to 20)
#    0.750    0.500    3.750    1.500    1.750    6.000 
#   13.500    0.000    0.000    0.000    0.000    0.000 
#    0.000    0.000    0.000    0.000    0.000    0.000 
#
# Total GULP energy -594884.721725 kJ/mol
# GULP energy per Si atom -12393.431703 kJ/mol
# Density = 2.171526 g / cm^3
# Si number density = 21.764802 Si / 1000 Ang^3
#
#
#
# Elastic Constant Matrix: (Units=GPa)
#
#
# Indices 1 2 3 4 5 6 
#
# 1 124.2819 47.5310 39.8533 0.0000 0.0000 0.0000
# 2 47.5310 124.2819 39.8533 0.0000 0.0000 0.0000
# 3 39.8533 39.8533 100.0405 0.0000 0.0000 0.0000
# 4 0.0000 0.0000 0.0000 28.2516 0.0000 0.0000
# 5 0.0000 0.0000 0.0000 0.0000 28.2516 0.0000
# 6 0.0000 0.0000 0.0000 0.0000 0.0000 38.3755
#
#
#
# Elastic Compliance Matrix: (Units=1/GPa)
#
#
# Indices 1 2 3 4 5 6 
#
# 1 0.010084 -0.002945 -0.002844 0.000000 0.000000 0.000000
# 2 -0.002945 0.010084 -0.002844 0.000000 0.000000 0.000000
# 3 -0.002844 -0.002844 0.012262 0.000000 0.000000 0.000000
# 4 0.000000 0.000000 0.000000 0.035396 0.000000 0.000000
# 5 0.000000 0.000000 0.000000 0.000000 0.035396 0.000000
# 6 0.000000 0.000000 0.000000 0.000000 0.000000 0.026058
#
#
# Mechanical properties :
#
#
# Convention : Reuss Voigt Hill
#
# Bulk Modulus (GPa) = 65.94327 67.00881 66.47604
# Shear Modulus (GPa) = 32.98081 33.73350 33.35716
#
# Velocity S-wave (km/s) = 3.89694 3.94116 3.91912
# Velocity P-wave (km/s) = 7.11422 7.18087 7.14762
#
# Compressibility (1/GPa) = 0.01516455
#
# Stress axis : x y z
#
# Youngs Moduli (GPa) = 99.16232 99.16232 81.55202
#
# Poissons Ratio (x) = 0.29200 0.23196
# Poissons Ratio (y) = 0.29200 0.23196
# Poissons Ratio (z) = 0.28205 0.28205
#
# Static dielectric constant tensor:
#      x y z
#    x 3.811340 0.000000 0.000000 
#    y 0.000000 3.811340 0.000000 
#    z 0.000000 0.000000 3.851780 
# 
# 
# High freq. dielectric constant tensor:
#      x y z
#    x 1.850390 0.000000 0.000000 
#    y 0.000000 1.850390 0.000000 
#    z 0.000000 0.000000 1.849850 
# 
# From -- ./inp_files/1050.got.cif
#   From: 2010.03.12/outbox.cif.g09.slc.cpg/sg169_cif.got.tgz:1050.got - 2010.04.02 06:46:06.
