data_PCOD8324499
_publ_section_title
;
Structure prediction by ZEFSAII (Michael W. Deem and Ramdas Pophale) SiO2 
 PCOD8324499
Probable space group: P 61
;
_chemical_formula_sum "Si O2"
_cell_formula_units_Z 30
_cell_length_a 16.612102
_cell_length_b 16.612102
_cell_length_c 6.334289
_cell_angle_alpha 90.000000
_cell_angle_beta 90.000000
_cell_angle_gamma 120.000000
_cell_volume 1513.832009
_symmetry_space_group_name_H-M "P 61"
_symmetry_group_IT_number 169
_symmetry_cell_setting 'hexagonal'
loop_
_space_group_symop_operation_xyz
x,y,z
x-y,x,1/6+z
-y,x-y,1/3+z
-x,-y,1/2+z
-x+y,-x,2/3+z
y,-x+y,5/6+z
loop_
_atom_site_type_symbol
_atom_site_label
_atom_site_fract_x
_atom_site_fract_y
_atom_site_fract_z
Si Si1 0.938783 0.141320 0.023140
Si Si2 0.222511 0.387475 0.578627
Si Si3 0.056654 0.723627 0.856894
Si Si4 0.946028 0.399473 0.984850
Si Si5 0.641419 0.078726 0.805806
O O1 0.966007 0.205558 0.232723
O O2 0.875846 0.032823 0.080185
O O3 0.882140 0.171986 0.869950
O O4 0.217133 0.368445 0.326248
O O5 0.329727 0.452717 0.642676
O O6 0.182131 0.454377 0.640114
O O7 0.066627 0.652287 0.704132
O O8 0.977353 0.664033 0.027637
O O9 0.927057 0.484205 0.005340
O O10 0.048096 0.436795 0.881950
#
# Coordination Sequence:
#
# PCOD8324499 Si02
#       5
#     6   6   6   6   6
#     4  11  23  42  59  90 126 166 209 262 306 371
#     4  10  22  38  61  89 122 158 207 258 312 372
#     4  10  20  38  63  89 116 161 207 250 313 361
#     4  10  21  37  61  90 116 157 208 250 306 366
#     4  11  20  39  62  88 122 160 207 258 299 378
#
# _framework density 19.817257000000001
#
# number of rings (size 3 to 8) (size 9 to 14) (size 15 to 20)
#    0.000    1.600    2.000    4.800    0.000    1.600 
#    7.200    2.000    0.000    0.000    0.000    0.000 
#    0.000    0.000    0.000    0.000    0.000    0.000 
#
# Total GULP energy -371897.369283 kJ/mol
# GULP energy per Si atom -12396.578976 kJ/mol
# Density = 1.977215 g / cm^3
# Si number density = 19.817257 Si / 1000 Ang^3
#
#
#
# Elastic Constant Matrix: (Units=GPa)
#
#
# Indices 1 2 3 4 5 6 
#
# 1 98.3383 45.4799 39.2452 0.0000 0.0000 0.0000
# 2 45.4799 98.3383 39.2452 0.0000 0.0000 0.0000
# 3 39.2452 39.2452 113.8261 0.0000 0.0000 0.0000
# 4 0.0000 0.0000 0.0000 29.8813 0.0000 0.0000
# 5 0.0000 0.0000 0.0000 0.0000 29.8813 0.0000
# 6 0.0000 0.0000 0.0000 0.0000 0.0000 26.4292
#
#
#
# Elastic Compliance Matrix: (Units=1/GPa)
#
#
# Indices 1 2 3 4 5 6 
#
# 1 0.013742 -0.005177 -0.002953 0.000000 0.000000 0.000000
# 2 -0.005177 0.013742 -0.002953 0.000000 0.000000 0.000000
# 3 -0.002953 -0.002953 0.010822 0.000000 0.000000 0.000000
# 4 0.000000 0.000000 0.000000 0.033466 0.000000 0.000000
# 5 0.000000 0.000000 0.000000 0.000000 0.033466 0.000000
# 6 0.000000 0.000000 0.000000 0.000000 0.000000 0.037837
#
#
# Mechanical properties :
#
#
# Convention : Reuss Voigt Hill
#
# Bulk Modulus (GPa) = 61.96056 62.04927 62.00491
# Shear Modulus (GPa) = 29.30509 29.67385 29.48947
#
# Velocity S-wave (km/s) = 3.84964 3.87379 3.86174
# Velocity P-wave (km/s) = 7.14797 7.16847 7.15823
#
# Compressibility (1/GPa) = 0.01613930
#
# Stress axis : x y z
#
# Youngs Moduli (GPa) = 72.77140 72.77140 92.40757
#
# Poissons Ratio (x) = 0.37672 0.27288
# Poissons Ratio (y) = 0.37672 0.27288
# Poissons Ratio (z) = 0.21489 0.21489
#
# Static dielectric constant tensor:
#      x y z
#    x 3.556320 0.000000 0.000000 
#    y 0.000000 3.556320 0.000000 
#    z 0.000000 0.000000 3.825400 
# 
# 
# High freq. dielectric constant tensor:
#      x y z
#    x 1.762570 0.000000 0.000000 
#    y 0.000000 1.762570 0.000000 
#    z 0.000000 0.000000 1.786560 
# 
# From -- ./inp_files/162.got.cif
#   From: 2010.03.12/outbox.cif.g09.slc.cpg/sg169_cif.got.tgz:162.got - 2010.04.02 06:46:06.
