data_PCOD8324605
_publ_section_title
;
Structure prediction by ZEFSAII (Michael W. Deem and Ramdas Pophale) SiO2 
 PCOD8324605
Probable space group: P 61
;
_chemical_formula_sum "Si O2"
_cell_formula_units_Z 36
_cell_length_a 8.245661
_cell_length_b 8.245661
_cell_length_c 22.905880
_cell_angle_alpha 90.000000
_cell_angle_beta 90.000000
_cell_angle_gamma 120.000000
_cell_volume 1348.741015
_symmetry_space_group_name_H-M "P 61"
_symmetry_group_IT_number 169
_symmetry_cell_setting 'hexagonal'
loop_
_space_group_symop_operation_xyz
x,y,z
x-y,x,1/6+z
-y,x-y,1/3+z
-x,-y,1/2+z
-x+y,-x,2/3+z
y,-x+y,5/6+z
loop_
_atom_site_type_symbol
_atom_site_label
_atom_site_fract_x
_atom_site_fract_y
_atom_site_fract_z
Si Si1 0.773888 0.196563 0.336440
Si Si2 0.371657 0.869023 0.362192
Si Si3 0.790421 0.891873 0.615752
Si Si4 0.199562 0.237195 0.630589
Si Si5 0.426424 0.552412 0.342639
Si Si6 0.535475 0.765049 0.219214
O O1 0.907930 0.196333 0.387486
O O2 0.750253 0.375768 0.341462
O O3 0.905187 0.214795 0.281394
O O4 0.575011 0.012380 0.337876
O O5 0.291143 0.943089 0.412350
O O6 0.359674 0.673455 0.381869
O O7 0.241757 0.823473 0.304923
O O8 0.654175 0.905598 0.664244
O O9 0.002066 0.055905 0.618868
O O10 0.269514 0.197718 0.692032
O O11 0.513817 0.677045 0.283547
O O12 0.574118 0.532360 0.382960
#
# Coordination Sequence:
#
# PCOD8324605 Si02
#       6
#     6   6   6   6   6   6
#     4  11  24  45  72 105 147 192 244 303 365 435
#     4  12  26  45  72 107 152 197 246 303 370 438
#     4  11  25  46  73 106 146 193 247 302 365 434
#     4  12  25  46  74 110 149 195 249 307 370 441
#     4  11  26  47  74 109 148 195 247 306 369 440
#     4  11  24  45  75 109 146 194 247 303 369 438
#
# _framework density 26.691558000000001
#
# number of rings (size 3 to 8) (size 9 to 14) (size 15 to 20)
#    0.000    0.667    0.000    8.000    0.000    8.000 
#    0.000    1.667    0.000    0.000    0.000    0.000 
#    0.000    0.000    0.000    0.000    0.000    0.000 
#
# Total GULP energy -446426.501325 kJ/mol
# GULP energy per Si atom -12400.736148 kJ/mol
# Density = 2.663081 g / cm^3
# Si number density = 26.691558 Si / 1000 Ang^3
#
#
#
# Elastic Constant Matrix: (Units=GPa)
#
#
# Indices 1 2 3 4 5 6 
#
# 1 153.6311 41.1030 40.9785 0.0000 0.0000 0.0000
# 2 41.1030 153.6311 40.9785 0.0000 0.0000 0.0000
# 3 40.9785 40.9785 74.9632 0.0000 0.0000 0.0000
# 4 0.0000 0.0000 0.0000 36.8856 0.0000 0.0000
# 5 0.0000 0.0000 0.0000 0.0000 36.8856 0.0000
# 6 0.0000 0.0000 0.0000 0.0000 0.0000 56.2640
#
#
#
# Elastic Compliance Matrix: (Units=1/GPa)
#
#
# Indices 1 2 3 4 5 6 
#
# 1 0.007778 -0.001109 -0.003646 0.000000 0.000000 0.000000
# 2 -0.001109 0.007778 -0.003646 0.000000 0.000000 0.000000
# 3 -0.003646 -0.003646 0.017326 0.000000 0.000000 0.000000
# 4 0.000000 0.000000 0.000000 0.027111 0.000000 0.000000
# 5 0.000000 0.000000 0.000000 0.000000 0.027111 0.000000
# 6 0.000000 0.000000 0.000000 0.000000 0.000000 0.017773
#
#
# Mechanical properties :
#
#
# Convention : Reuss Voigt Hill
#
# Bulk Modulus (GPa) = 62.18331 69.81615 65.99973
# Shear Modulus (GPa) = 39.35810 43.28476 41.32143
#
# Velocity S-wave (km/s) = 3.84416 4.03136 3.93887
# Velocity P-wave (km/s) = 6.56132 6.91972 6.74290
#
# Compressibility (1/GPa) = 0.01608149
#
# Stress axis : x y z
#
# Youngs Moduli (GPa) = 128.56495 128.56495 57.71677
#
# Poissons Ratio (x) = 0.14251 0.21043
# Poissons Ratio (y) = 0.14251 0.21043
# Poissons Ratio (z) = 0.46874 0.46874
#
# Static dielectric constant tensor:
#      x y z
#    x 5.065960 0.000000 0.000000 
#    y 0.000000 5.065960 0.000000 
#    z 0.000000 0.000000 4.866110 
# 
# 
# High freq. dielectric constant tensor:
#      x y z
#    x 2.088390 0.000000 0.000000 
#    y 0.000000 2.088390 0.000000 
#    z 0.000000 0.000000 2.075720 
# 
# From -- ./inp_files/1746.got.cif
#   From: 2010.03.12/outbox.cif.g09.slc.cpg/sg169_cif.got.tgz:1746.got - 2010.04.02 06:46:06.
