data_PCOD8324272
_publ_section_title
;
Structure prediction by ZEFSAII (Michael W. Deem and Ramdas Pophale) SiO2 
 PCOD8324272
Probable space group: R -3 C 
;
_chemical_formula_sum "Si O2"
_cell_formula_units_Z 216
_cell_length_a 22.421615
_cell_length_b 22.421615
_cell_length_c 25.940302
_cell_angle_alpha 90.000000
_cell_angle_beta 90.000000
_cell_angle_gamma 120.000000
_cell_volume 11293.783073
_symmetry_space_group_name_H-M "R -3 C "
_symmetry_group_IT_number 167
_symmetry_cell_setting 'hexagonal'
loop_
_space_group_symop_operation_xyz
x,y,z
-y,x-y,z
-x+y,-x,z
x-y,-y,1/2-z
-x,-x+y,1/2-z
y,x,1/2-z
-x,-y,-z
y,-x+y,-z
x-y,x,-z
-x+y,y,1/2+z
x,x-y,1/2+z
-y,-x,1/2+z
2/3+x,1/3+y,1/3+z
2/3-y,1/3+x-y,1/3+z
2/3-x+y,1/3-x,1/3+z
2/3+x-y,1/3-y,5/6-z
2/3-x,1/3-x+y,5/6-z
2/3+y,1/3+x,5/6-z
2/3-x,1/3-y,1/3-z
2/3+y,1/3-x+y,1/3-z
2/3+x-y,1/3+x,1/3-z
2/3-x+y,1/3+y,5/6+z
2/3+x,1/3+x-y,5/6+z
2/3-y,1/3-x,5/6+z
1/3+x,2/3+y,2/3+z
1/3-y,2/3+x-y,2/3+z
1/3-x+y,2/3-x,2/3+z
1/3+x-y,2/3-y,1/6-z
1/3-x,2/3-x+y,1/6-z
1/3+y,2/3+x,1/6-z
1/3-x,2/3-y,2/3-z
1/3+y,2/3-x+y,2/3-z
1/3+x-y,2/3+x,2/3-z
1/3-x+y,2/3+y,1/6+z
1/3+x,2/3+x-y,1/6+z
1/3-y,2/3-x,1/6+z
loop_
_atom_site_type_symbol
_atom_site_label
_atom_site_fract_x
_atom_site_fract_y
_atom_site_fract_z
Si Si1 0.579049 0.594949 0.400154
Si Si2 0.747853 0.852914 0.077260
Si Si3 0.508252 0.375992 0.940248
Si Si4 0.827819 0.233110 0.159330
Si Si5 0.933383 0.848721 0.011514
Si Si6 0.632969 0.573231 0.212421
O O1 0.646505 0.666667 0.416667
O O2 0.591771 0.534195 0.415108
O O3 0.515165 0.591615 0.433559
O O4 0.565095 0.590177 0.339583
O O5 0.666667 0.796236 0.083334
O O6 0.792692 0.831936 0.114681
O O7 0.761425 0.927643 0.093223
O O8 0.778160 0.860096 0.018893
O O9 0.544087 0.415198 0.994005
O O10 0.570585 0.396997 0.901796
O O11 0.833334 0.166667 0.166667
O O12 0.881762 0.289667 0.199847
O O13 0.899078 0.884954 0.979117
O O14 0.630254 0.630254 0.250000
#
# Coordination Sequence:
#
# PCOD8324272 Si02
#       6
#    36  36  36  36  36  36
#     4   9  18  33  51  71 102 139 168 210 265 310
#     4  10  20  32  49  77 106 134 173 220 265 314
#     4  10  18  31  49  72 104 138 171 211 259 318
#     4   9  19  35  52  74 105 139 174 211 261 321
#     4  10  20  33  51  74 103 136 171 216 269 321
#     4  10  19  34  55  78 102 134 177 222 265 314
#
# _framework density 19.125565999999999
#
# number of rings (size 3 to 8) (size 9 to 14) (size 15 to 20)
#    0.000    2.333    0.000    3.667    0.000    1.333 
#    0.000   10.833    0.000    0.667    0.000    0.000 
#    0.000    4.000    0.000    0.000    0.000    0.000 
#
# Total GULP energy -891973.609843 kJ/mol
# GULP energy per Si atom -12388.522359 kJ/mol
# Density = 1.908204 g / cm^3
# Si number density = 19.125566 Si / 1000 Ang^3
#
#
#
# Elastic Constant Matrix: (Units=GPa)
#
#
# Indices 1 2 3 4 5 6 
#
# 1 86.6700 28.1847 16.0615 -6.3569 -0.0001 0.0000
# 2 28.1847 86.6700 16.0615 6.3569 0.0001 0.0000
# 3 16.0615 16.0615 69.8865 0.0000 0.0000 0.0000
# 4 -6.3569 6.3569 0.0000 21.7461 0.0000 0.0001
# 5 -0.0001 0.0001 0.0000 0.0000 21.7461 -6.3569
# 6 0.0000 0.0000 0.0000 0.0001 -6.3569 29.2427
#
#
#
# Elastic Compliance Matrix: (Units=1/GPa)
#
#
# Indices 1 2 3 4 5 6 
#
# 1 0.013782 -0.004477 -0.002138 0.005337 0.000000 0.000000
# 2 -0.004477 0.013782 -0.002138 -0.005337 0.000000 0.000000
# 3 -0.002138 -0.002138 0.015292 0.000000 0.000000 0.000000
# 4 0.005337 -0.005337 0.000000 0.049106 0.000000 0.000000
# 5 0.000000 0.000000 0.000000 0.000000 0.049106 0.010675
# 6 0.000000 0.000000 0.000000 0.000000 0.010675 0.036517
#
#
# Mechanical properties :
#
#
# Convention : Reuss Voigt Hill
#
# Bulk Modulus (GPa) = 39.45153 40.42688 39.93920
# Shear Modulus (GPa) = 24.56515 26.74158 25.65336
#
# Velocity S-wave (km/s) = 3.58776 3.74332 3.66637
# Velocity P-wave (km/s) = 6.15103 6.31402 6.23305
#
# Compressibility (1/GPa) = 0.02534756
#
# Stress axis : x y z
#
# Youngs Moduli (GPa) = 72.56021 72.56021 65.39441
#
# Poissons Ratio (x) = 0.32485 0.13984
# Poissons Ratio (y) = 0.32485 0.13984
# Poissons Ratio (z) = 0.15517 0.15517
#
# Static dielectric constant tensor:
#      x y z
#    x 3.701120 0.000000 0.000000 
#    y 0.000000 3.701120 0.000000 
#    z 0.000000 0.000000 3.809800 
# 
# 
# High freq. dielectric constant tensor:
#      x y z
#    x 1.741380 0.000000 0.000000 
#    y 0.000000 1.741380 0.000000 
#    z 0.000000 0.000000 1.727900 
# 
# From -- ./inp_files/5513.got.cif
#   From: 2010.03.12/outbox.cif.g09.slc.cpg/sg167_3_cif.got.tgz:5513.got - 2010.04.02 06:42:56.
