data_PCOD8324140
_publ_section_title
;
Structure prediction by ZEFSAII (Michael W. Deem and Ramdas Pophale) SiO2 
 PCOD8324140
Probable space group: R -3 M
;
_chemical_formula_sum "Si O2"
_cell_formula_units_Z 108
_cell_length_a 12.933050
_cell_length_b 12.933050
_cell_length_c 45.199272
_cell_angle_alpha 90.000000
_cell_angle_beta 90.000000
_cell_angle_gamma 120.000000
_cell_volume 6547.326290
_symmetry_space_group_name_H-M "R -3 M"
_symmetry_group_IT_number 166
_symmetry_cell_setting 'hexagonal'
loop_
_space_group_symop_operation_xyz
x,y,z
-y,x-y,z
-x+y,-x,z
x-y,-y,-z
-x,-x+y,-z
y,x,-z
-x,-y,-z
y,-x+y,-z
x-y,x,-z
-x+y,y,z
x,x-y,z
-y,-x,z
2/3+x,1/3+y,1/3+z
2/3-y,1/3+x-y,1/3+z
2/3-x+y,1/3-x,1/3+z
2/3+x-y,1/3-y,1/3-z
2/3-x,1/3-x+y,1/3-z
2/3+y,1/3+x,1/3-z
2/3-x,1/3-y,1/3-z
2/3+y,1/3-x+y,1/3-z
2/3+x-y,1/3+x,1/3-z
2/3-x+y,1/3+y,1/3+z
2/3+x,1/3+x-y,1/3+z
2/3-y,1/3-x,1/3+z
1/3+x,2/3+y,2/3+z
1/3-y,2/3+x-y,2/3+z
1/3-x+y,2/3-x,2/3+z
1/3+x-y,2/3-y,2/3-z
1/3-x,2/3-x+y,2/3-z
1/3+y,2/3+x,2/3-z
1/3-x,2/3-y,2/3-z
1/3+y,2/3-x+y,2/3-z
1/3+x-y,2/3+x,2/3-z
1/3-x+y,2/3+y,2/3+z
1/3+x,2/3+x-y,2/3+z
1/3-y,2/3-x,2/3+z
loop_
_atom_site_type_symbol
_atom_site_label
_atom_site_fract_x
_atom_site_fract_y
_atom_site_fract_z
Si Si1 0.238682 0.239565 0.143629
Si Si2 0.761562 0.761733 0.923506
Si Si3 0.575152 0.908896 0.973572
O O1 0.221318 0.110659 0.149460
O O2 0.333334 0.333977 0.166667
O O3 0.279303 0.282346 0.110012
O O4 0.114760 0.229519 0.151017
O O5 0.801544 0.900772 0.926920
O O6 0.648761 0.679487 0.943877
O O7 0.873754 0.747508 0.932856
O O8 0.441617 0.883234 0.968999
O O9 0.570199 0.785100 0.980863
O O10 0.641875 0.000000 0.000000
#
# Coordination Sequence:
#
# PCOD8324140 Si02
#       3
#    36  36  36
#     4   9  17  29  46  68  93 121 152 187 228 273
#     4   9  17  30  48  69  92 118 150 189 232 275
#     4  10  20  33  49  69  94 123 154 188 226 269
#
# _framework density 16.495282
#
# number of rings (size 3 to 8) (size 9 to 14) (size 15 to 20)
#    0.000    2.667    0.000    2.000    0.000    4.000 
#    0.000    0.000    0.000   10.333    0.000    0.000 
#    0.000    0.000    0.000    0.000    0.000    0.000 
#
# Total GULP energy -446396.906851 kJ/mol
# GULP energy per Si atom -12399.914079 kJ/mol
# Density = 1.645774 g / cm^3
# Si number density = 16.495282 Si / 1000 Ang^3
#
#
#
# Elastic Constant Matrix: (Units=GPa)
#
#
# Indices 1 2 3 4 5 6 
#
# 1 100.1620 51.0260 61.4724 1.5360 -0.0002 0.0000
# 2 51.0260 100.1620 61.4724 -1.5360 0.0002 0.0000
# 3 61.4724 61.4724 100.7543 0.0000 0.0000 0.0000
# 4 1.5360 -1.5360 0.0000 28.0819 0.0000 0.0002
# 5 -0.0002 0.0002 0.0000 0.0000 28.0819 1.5360
# 6 0.0000 0.0000 0.0000 0.0002 1.5360 24.5680
#
#
#
# Elastic Compliance Matrix: (Units=1/GPa)
#
#
# Indices 1 2 3 4 5 6 
#
# 1 0.016774 -0.003647 -0.008009 -0.001117 0.000000 0.000000
# 2 -0.003647 0.016774 -0.008009 0.001117 0.000000 0.000000
# 3 -0.008009 -0.008009 0.019698 0.000000 0.000000 0.000000
# 4 -0.001117 0.001117 0.000000 0.035732 0.000000 0.000000
# 5 0.000000 0.000000 0.000000 0.000000 0.035732 -0.002234
# 6 0.000000 0.000000 0.000000 0.000000 -0.002234 0.040843
#
#
# Mechanical properties :
#
#
# Convention : Reuss Voigt Hill
#
# Bulk Modulus (GPa) = 71.85980 72.11332 71.98656
# Shear Modulus (GPa) = 23.86350 24.62019 24.24185
#
# Velocity S-wave (km/s) = 3.80766 3.86756 3.83773
# Velocity P-wave (km/s) = 7.93659 7.98476 7.96071
#
# Compressibility (1/GPa) = 0.01391599
#
# Stress axis : x y z
#
# Youngs Moduli (GPa) = 59.61452 59.61452 50.76550
#
# Poissons Ratio (x) = 0.21742 0.40660
# Poissons Ratio (y) = 0.21742 0.40660
# Poissons Ratio (z) = 0.47747 0.47747
#
# Static dielectric constant tensor:
#      x y z
#    x 3.058080 0.000000 0.000000 
#    y 0.000000 3.058080 0.000000 
#    z 0.000000 0.000000 3.298300 
# 
# 
# High freq. dielectric constant tensor:
#      x y z
#    x 1.630010 0.000000 0.000000 
#    y 0.000000 1.630010 0.000000 
#    z 0.000000 0.000000 1.644090 
# 
# From -- ./inp_files/10094.got.cif
#   From: 2010.03.12/outbox.cif.g09.slc.cpg/sg166_6_cif.got.tgz:10094.got - 2010.04.02 06:38:31.
