data_PCOD8324676
_publ_section_title
;
Structure prediction by ZEFSAII (Michael W. Deem and Ramdas Pophale) SiO2 
 PCOD8324676
Probable space group: P 65
;
_chemical_formula_sum "Si O2"
_cell_formula_units_Z 42
_cell_length_a 14.612387
_cell_length_b 14.612387
_cell_length_c 10.832572
_cell_angle_alpha 90.000000
_cell_angle_beta 90.000000
_cell_angle_gamma 120.000000
_cell_volume 2003.108839
_symmetry_space_group_name_H-M "P 65"
_symmetry_group_IT_number 170
_symmetry_cell_setting 'hexagonal'
loop_
_space_group_symop_operation_xyz
x,y,z
x-y,x,5/6+z
-y,x-y,2/3+z
-x,-y,1/2+z
-x+y,-x,1/3+z
y,-x+y,1/6+z
loop_
_atom_site_type_symbol
_atom_site_label
_atom_site_fract_x
_atom_site_fract_y
_atom_site_fract_z
Si Si1 0.158859 0.399353 0.469880
Si Si2 0.920899 0.268576 0.522353
Si Si3 0.383064 0.630308 0.241023
Si Si4 0.267971 0.742400 0.160572
Si Si5 0.105255 0.359327 0.004996
Si Si6 0.092151 0.185046 0.843584
Si Si7 0.743163 0.612243 0.722949
O O1 0.202144 0.354132 0.575651
O O2 0.226138 0.526990 0.472792
O O3 0.180395 0.359636 0.340720
O O4 0.034644 0.366025 0.481945
O O5 0.854190 0.302922 0.615069
O O6 0.956695 0.194999 0.591545
O O7 0.286265 0.654423 0.228812
O O8 0.440125 0.656809 0.374320
O O9 0.339116 0.510102 0.210296
O O10 0.305896 0.835563 0.263219
O O11 0.071507 0.273521 0.898977
O O12 0.182820 0.349924 0.102557
O O13 0.995542 0.333134 0.068982
O O14 0.988442 0.101052 0.777223
#
# Coordination Sequence:
#
# PCOD8324676 Si02
#       7
#     6   6   6   6   6   6   6
#     4  11  23  42  67 100 138 177 229 284 346 414
#     4  10  22  41  71  97 134 177 228 284 343 422
#     4  11  23  44  68  98 135 174 229 288 346 419
#     4  10  23  43  69  96 131 179 230 287 343 415
#     4  11  25  43  70  95 140 180 228 287 349 419
#     4  11  21  44  68  99 132 176 232 280 350 416
#     4  12  25  45  67 101 140 181 228 290 349 417
#
# _framework density 20.967407999999999
#
# number of rings (size 3 to 8) (size 9 to 14) (size 15 to 20)
#    0.000    1.143    4.286    1.714    0.000    3.429 
#    5.143    0.000    0.000    0.000    0.000    0.000 
#    0.000    0.000    0.000    0.000    0.000    0.000 
#
# Total GULP energy -520647.577010 kJ/mol
# GULP energy per Si atom -12396.370881 kJ/mol
# Density = 2.091969 g / cm^3
# Si number density = 20.967408 Si / 1000 Ang^3
#
#
#
# Elastic Constant Matrix: (Units=GPa)
#
#
# Indices 1 2 3 4 5 6 
#
# 1 91.2539 33.6311 21.4635 0.0000 0.0000 0.0000
# 2 33.6311 91.2539 21.4635 0.0000 0.0000 0.0000
# 3 21.4635 21.4635 85.2058 0.0000 0.0000 0.0000
# 4 0.0000 0.0000 0.0000 33.3339 0.0000 0.0000
# 5 0.0000 0.0000 0.0000 0.0000 33.3339 0.0000
# 6 0.0000 0.0000 0.0000 0.0000 0.0000 28.8114
#
#
#
# Elastic Compliance Matrix: (Units=1/GPa)
#
#
# Indices 1 2 3 4 5 6 
#
# 1 0.013060 -0.004294 -0.002208 0.000000 0.000000 0.000000
# 2 -0.004294 0.013060 -0.002208 0.000000 0.000000 0.000000
# 3 -0.002208 -0.002208 0.012849 0.000000 0.000000 0.000000
# 4 0.000000 0.000000 0.000000 0.029999 0.000000 0.000000
# 5 0.000000 0.000000 0.000000 0.000000 0.029999 0.000000
# 6 0.000000 0.000000 0.000000 0.000000 0.000000 0.034708
#
#
# Mechanical properties :
#
#
# Convention : Reuss Voigt Hill
#
# Bulk Modulus (GPa) = 46.40681 46.75887 46.58284
# Shear Modulus (GPa) = 31.58946 31.83956 31.71451
#
# Velocity S-wave (km/s) = 3.88570 3.90105 3.89339
# Velocity P-wave (km/s) = 6.50480 6.52994 6.51738
#
# Compressibility (1/GPa) = 0.02154856
#
# Stress axis : x y z
#
# Youngs Moduli (GPa) = 76.56773 76.56773 77.82809
#
# Poissons Ratio (x) = 0.32877 0.17187
# Poissons Ratio (y) = 0.32877 0.17187
# Poissons Ratio (z) = 0.16908 0.16908
#
# Static dielectric constant tensor:
#      x y z
#    x 3.872600 0.000000 0.000000 
#    y 0.000000 3.872600 0.000000 
#    z 0.000000 0.000000 3.965440 
# 
# 
# High freq. dielectric constant tensor:
#      x y z
#    x 1.816360 0.000000 0.000000 
#    y 0.000000 1.816360 0.000000 
#    z 0.000000 0.000000 1.835080 
# 
# From -- ./inp_files/1029.got.cif
#   From: 2010.03.12/outbox.cif.g09.slc.cpg/sg170_cif.got.tgz:1029.got - 2010.04.02 06:47:37.
