data_PCOD8324476
_publ_section_title
;
Structure prediction by ZEFSAII (Michael W. Deem and Ramdas Pophale) SiO2 
 PCOD8324476
Probable space group: P 61
;
_chemical_formula_sum "Si O2"
_cell_formula_units_Z 48
_cell_length_a 17.928565
_cell_length_b 17.928565
_cell_length_c 8.650031
_cell_angle_alpha 90.000000
_cell_angle_beta 90.000000
_cell_angle_gamma 120.000000
_cell_volume 2407.905040
_symmetry_space_group_name_H-M "P 61"
_symmetry_group_IT_number 169
_symmetry_cell_setting 'hexagonal'
loop_
_space_group_symop_operation_xyz
x,y,z
x-y,x,1/6+z
-y,x-y,1/3+z
-x,-y,1/2+z
-x+y,-x,2/3+z
y,-x+y,5/6+z
loop_
_atom_site_type_symbol
_atom_site_label
_atom_site_fract_x
_atom_site_fract_y
_atom_site_fract_z
Si Si1 0.594768 0.531407 0.530330
Si Si2 0.786799 0.227655 0.746139
Si Si3 0.428943 0.362516 0.498694
Si Si4 0.372401 0.718659 0.000399
Si Si5 0.899763 0.646146 0.472474
Si Si6 0.499812 0.630263 0.519825
Si Si7 0.473447 0.114343 0.185736
Si Si8 0.747703 0.658284 0.334100
O O1 0.530188 0.432388 0.490724
O O2 0.540235 0.575207 0.592152
O O3 0.655655 0.539835 0.671481
O O4 0.656176 0.577309 0.386241
O O5 0.714986 0.128735 0.718283
O O6 0.751551 0.277910 0.852959
O O7 0.808673 0.268937 0.577659
O O8 0.870953 0.234644 0.829195
O O9 0.401521 0.321343 0.668014
O O10 0.372684 0.402604 0.440741
O O11 0.338576 0.667237 0.832782
O O12 0.353731 0.798399 0.983510
O O13 0.860926 0.577976 0.613328
O O14 0.829728 0.675312 0.437796
O O15 0.992141 0.732753 0.508627
O O16 0.434694 0.570458 0.384665
#
# Coordination Sequence:
#
# PCOD8324476 Si02
#       8
#     6   6   6   6   6   6   6   6
#     4  10  21  35  61  77 107 153 194 242 286 341
#     4  10  23  36  54  78 109 149 195 246 287 348
#     4  10  20  33  57  76 111 152 191 236 296 330
#     4  11  27  40  53  81 122 160 208 251 297 338
#     4  10  19  38  59  85 113 149 189 242 296 355
#     4   9  21  36  53  81 110 151 196 240 283 348
#     4  10  19  36  53  81 107 144 198 236 284 350
#     4  10  22  38  60  83 115 144 191 239 295 352
#
# _framework density 19.934342999999998
#
# number of rings (size 3 to 8) (size 9 to 14) (size 15 to 20)
#    0.000    2.000    2.500    0.000    7.000    2.000 
#    2.250    0.000    0.000    0.000    0.000    0.000 
#    7.500    0.000    0.000    0.000    0.000    0.000 
#
# Total GULP energy -594765.642172 kJ/mol
# GULP energy per Si atom -12390.950879 kJ/mol
# Density = 1.988897 g / cm^3
# Si number density = 19.934343 Si / 1000 Ang^3
#
#
#
# Elastic Constant Matrix: (Units=GPa)
#
#
# Indices 1 2 3 4 5 6 
#
# 1 85.3147 29.4023 8.9574 0.0000 0.0000 0.0000
# 2 29.4023 85.3147 8.9574 0.0000 0.0000 0.0000
# 3 8.9574 8.9574 47.7751 0.0000 0.0000 0.0000
# 4 0.0000 0.0000 0.0000 21.7412 0.0000 0.0000
# 5 0.0000 0.0000 0.0000 0.0000 21.7412 0.0000
# 6 0.0000 0.0000 0.0000 0.0000 0.0000 27.9562
#
#
#
# Elastic Compliance Matrix: (Units=1/GPa)
#
#
# Indices 1 2 3 4 5 6 
#
# 1 0.013433 -0.004453 -0.001684 0.000000 0.000000 0.000000
# 2 -0.004453 0.013433 -0.001684 0.000000 0.000000 0.000000
# 3 -0.001684 -0.001684 0.021563 0.000000 0.000000 0.000000
# 4 0.000000 0.000000 0.000000 0.045996 0.000000 0.000000
# 5 0.000000 0.000000 0.000000 0.000000 0.045996 0.000000
# 6 0.000000 0.000000 0.000000 0.000000 0.000000 0.035770
#
#
# Mechanical properties :
#
#
# Convention : Reuss Voigt Hill
#
# Bulk Modulus (GPa) = 30.49884 34.78206 32.64045
# Shear Modulus (GPa) = 24.65991 25.69358 25.17674
#
# Velocity S-wave (km/s) = 3.52100 3.59403 3.55770
# Velocity P-wave (km/s) = 5.64471 5.89143 5.76939
#
# Compressibility (1/GPa) = 0.03278813
#
# Stress axis : x y z
#
# Youngs Moduli (GPa) = 74.44592 74.44592 46.37633
#
# Poissons Ratio (x) = 0.33147 0.07808
# Poissons Ratio (y) = 0.33147 0.07808
# Poissons Ratio (z) = 0.12534 0.12534
#
# Static dielectric constant tensor:
#      x y z
#    x 3.664640 0.000000 0.000000 
#    y 0.000000 3.664640 0.000000 
#    z 0.000000 0.000000 3.509170 
# 
# 
# High freq. dielectric constant tensor:
#      x y z
#    x 1.759440 0.000000 0.000000 
#    y 0.000000 1.759440 0.000000 
#    z 0.000000 0.000000 1.776720 
# 
# From -- ./inp_files/758.got.cif
#   From: 2010.03.12/outbox.cif.g09.slc.cpg/sg169_cif.got.tgz:758.got - 2010.04.02 06:46:06.
