data_PCOD8324988
_publ_section_title
;
Structure prediction by ZEFSAII (Michael W. Deem and Ramdas Pophale) SiO2 
 PCOD8324988
Probable space group: P -6
;
_chemical_formula_sum "Si O2"
_cell_formula_units_Z 32
_cell_length_a 14.167051
_cell_length_b 14.167051
_cell_length_c 8.820453
_cell_angle_alpha 90.000000
_cell_angle_beta 90.000000
_cell_angle_gamma 120.000000
_cell_volume 1533.135135
_symmetry_space_group_name_H-M "P -6"
_symmetry_group_IT_number 174
_symmetry_cell_setting 'hexagonal'
loop_
_space_group_symop_operation_xyz
x,y,z
-x+y,-x,-z
-y,x-y,z
x,y,-z
-x+y,-x,z
-y,x-y,-z
loop_
_atom_site_type_symbol
_atom_site_label
_atom_site_fract_x
_atom_site_fract_y
_atom_site_fract_z
Si Si1 0.433440 0.537034 0.678268
Si Si2 0.306736 0.156817 0.675125
Si Si3 0.733962 0.261921 0.169396
Si Si4 0.333334 0.666668 0.179951
Si Si5 0.671813 0.944632 0.822114
Si Si6 0.661052 0.737779 0.676946
O O1 0.412753 0.530213 0.500000
O O2 0.356302 0.574629 0.757973
O O3 0.388128 0.415334 0.744118
O O4 0.560163 0.618010 0.718093
O O5 0.285791 0.167405 0.500000
O O6 0.435814 0.220804 0.704335
O O7 0.246684 0.207864 0.771610
O O8 0.258025 0.031103 0.721559
O O9 0.790295 0.393264 0.189200
O O10 0.758509 0.234312 0.000000
O O11 0.333334 0.666668 0.000000
O O12 0.652045 0.827526 0.773628
O O13 0.659428 0.946774 0.000000
O O14 0.657774 0.762545 0.500000
#
# Coordination Sequence:
#
# PCOD8324988 Si02
#       6
#     6   6   6   2   6   6
#     4  11  22  39  66  98 135 172 211 264 319 384
#     4  11  24  42  65  93 126 169 221 269 319 383
#     4   8  18  36  57  88 128 166 204 252 310 368
#     4  12  22  35  58  99 136 170 211 255 322 395
#     4  12  26  43  66  97 131 171 216 268 327 388
#     4  10  24  45  68  95 126 168 219 270 323 382
#
# _framework density 20.872264999999999
#
# number of rings (size 3 to 8) (size 9 to 14) (size 15 to 20)
#    0.375    1.125    1.875    3.375    2.625    3.000 
#    1.125    0.000    0.000    0.000    0.000    0.000 
#    0.000    0.000    0.000    0.000    0.000    0.000 
#
# Total GULP energy -396796.249677 kJ/mol
# GULP energy per Si atom -12399.882802 kJ/mol
# Density = 2.082476 g / cm^3
# Si number density = 20.872265 Si / 1000 Ang^3
#
#
#
# Elastic Constant Matrix: (Units=GPa)
#
#
# Indices 1 2 3 4 5 6 
#
# 1 8384.4969-8251.7690 50.8151 0.0000 0.0000 66.3074
# 2 -8251.7690 8383.2071 50.9688 0.0000 0.0000 -66.1765
# 3 50.8151 50.9688 121.2958 0.0000 0.0000 0.3340
# 4 0.0000 0.0000 0.0000 19.6290 -0.0003 0.0000
# 5 0.0000 0.0000 0.0000 -0.0003 19.6290 0.0000
# 6 66.3074 -66.1765 0.3340 0.0000 0.0000 2561.5922
#
#
#
# Elastic Compliance Matrix: (Units=1/GPa)
#
#
# Indices 1 2 3 4 5 6 
#
# 1 0.005624 0.005564 -0.004694 0.000000 0.000000 -0.000001
# 2 0.005564 0.005625 -0.004695 0.000000 0.000000 0.000002
# 3 -0.004694 -0.004695 0.012184 0.000000 0.000000 -0.000001
# 4 0.000000 0.000000 0.000000 0.050945 0.000001 0.000000
# 5 0.000000 0.000000 0.000000 0.000001 0.050945 0.000000
# 6 -0.000001 0.000002 -0.000001 0.000000 0.000000 0.000390
#
#
# Mechanical properties :
#
#
# Convention : Reuss Voigt Hill
#
# Bulk Modulus (GPa) = 63.35885 65.44773 64.40329
# Shear Modulus (GPa) = 36.06910 2189.43569 1112.75240
#
# Velocity S-wave (km/s) = 4.16154 32.42293 23.11455
# Velocity P-wave (km/s) = 7.31523 37.85612 27.26351
#
# Compressibility (1/GPa) = 0.01578311
#
# Stress axis : x y z
#
# Youngs Moduli (GPa) = 177.81494 177.78461 82.07814
#
# Poissons Ratio (x) = -0.98923 0.38528
# Poissons Ratio (y) = -0.98939 0.38532
# Poissons Ratio (z) = 0.83468 0.83462
#
# Static dielectric constant tensor:
#      x y z
#    x -39.325410 -6.403970 0.000000 
#    y -6.403970 -11.236060 0.000000 
#    z 0.000000 0.000000 3.663440 
# 
# 
# High freq. dielectric constant tensor:
#      x y z
#    x 1.812770 0.000000 0.000000 
#    y 0.000000 1.812770 0.000000 
#    z 0.000000 0.000000 1.816320 
# 
# From -- ./inp_files/321.got.cif
#   From: 2010.03.12/outbox.cif.g09.slc.cpg/sg174_cif.got.tgz:321.got - 2010.04.02 06:54:58.
