data_PCOD8324568
_publ_section_title
;
Structure prediction by ZEFSAII (Michael W. Deem and Ramdas Pophale) SiO2 
 PCOD8324568
Probable space group: P 61
;
_chemical_formula_sum "Si O2"
_cell_formula_units_Z 24
_cell_length_a 15.625128
_cell_length_b 15.625128
_cell_length_c 5.156336
_cell_angle_alpha 90.000000
_cell_angle_beta 90.000000
_cell_angle_gamma 120.000000
_cell_volume 1090.232209
_symmetry_space_group_name_H-M "P 61"
_symmetry_group_IT_number 169
_symmetry_cell_setting 'hexagonal'
loop_
_space_group_symop_operation_xyz
x,y,z
x-y,x,1/6+z
-y,x-y,1/3+z
-x,-y,1/2+z
-x+y,-x,2/3+z
y,-x+y,5/6+z
loop_
_atom_site_type_symbol
_atom_site_label
_atom_site_fract_x
_atom_site_fract_y
_atom_site_fract_z
Si Si1 0.397389 0.254471 0.927660
Si Si2 0.526396 0.058811 0.382223
Si Si3 0.001294 0.194357 0.963104
Si Si4 0.245920 0.386702 0.580294
O O1 0.290369 0.245938 0.988894
O O2 0.390622 0.214616 0.636663
O O3 0.490604 0.363743 0.940154
O O4 0.416131 0.190049 0.133827
O O5 0.470675 0.114577 0.485976
O O6 0.537082 0.005788 0.637669
O O7 0.090979 0.175485 0.904210
O O8 0.952818 0.227014 0.730812
#
# Coordination Sequence:
#
# PCOD8324568 Si02
#       4
#     6   6   6   6
#     4  11  25  45  69 101 141 180 228 289 347 410
#     4  12  24  44  76 102 134 188 236 278 350 434
#     4  10  24  42  66 100 138 178 232 282 342 402
#     4  11  25  45  69 101 141 180 228 289 347 410
#
# _framework density 22.013656999999998
#
# number of rings (size 3 to 8) (size 9 to 14) (size 15 to 20)
#    0.000    1.000    2.500    3.000    7.000    2.000 
#    4.500    0.000    0.000    0.000    0.000    0.000 
#    0.000    0.000    0.000    0.000    0.000    0.000 
#
# Total GULP energy -297357.705189 kJ/mol
# GULP energy per Si atom -12389.904383 kJ/mol
# Density = 2.196355 g / cm^3
# Si number density = 22.013657 Si / 1000 Ang^3
#
#
#
# Elastic Constant Matrix: (Units=GPa)
#
#
# Indices 1 2 3 4 5 6 
#
# 1 125.1178 51.3913 5.6912 0.0000 0.0000 0.0000
# 2 51.3913 125.1178 5.6912 0.0000 0.0000 0.0000
# 3 5.6912 5.6912 77.1273 0.0000 0.0000 0.0000
# 4 0.0000 0.0000 0.0000 28.2740 0.0000 0.0000
# 5 0.0000 0.0000 0.0000 0.0000 28.2740 0.0000
# 6 0.0000 0.0000 0.0000 0.0000 0.0000 36.8633
#
#
#
# Elastic Compliance Matrix: (Units=1/GPa)
#
#
# Indices 1 2 3 4 5 6 
#
# 1 0.009628 -0.003936 -0.000420 0.000000 0.000000 0.000000
# 2 -0.003936 0.009628 -0.000420 0.000000 0.000000 0.000000
# 3 -0.000420 -0.000420 0.013028 0.000000 0.000000 0.000000
# 4 0.000000 0.000000 0.000000 0.035368 0.000000 0.000000
# 5 0.000000 0.000000 0.000000 0.000000 0.035368 0.000000
# 6 0.000000 0.000000 0.000000 0.000000 0.000000 0.027127
#
#
# Mechanical properties :
#
#
# Convention : Reuss Voigt Hill
#
# Bulk Modulus (GPa) = 43.99008 50.32338 47.15673
# Shear Modulus (GPa) = 33.94982 36.32153 35.13567
#
# Velocity S-wave (km/s) = 3.93137 4.06637 3.99944
# Velocity P-wave (km/s) = 6.37448 6.70499 6.54182
#
# Compressibility (1/GPa) = 0.02273240
#
# Stress axis : x y z
#
# Youngs Moduli (GPa) = 103.86290 103.86290 76.76031
#
# Poissons Ratio (x) = 0.40876 0.03224
# Poissons Ratio (y) = 0.40876 0.03224
# Poissons Ratio (z) = 0.04363 0.04363
#
# Static dielectric constant tensor:
#      x y z
#    x 4.080150 0.000000 0.000000 
#    y 0.000000 4.080150 0.000000 
#    z 0.000000 0.000000 3.901700 
# 
# 
# High freq. dielectric constant tensor:
#      x y z
#    x 1.874350 0.000000 0.000000 
#    y 0.000000 1.874350 0.000000 
#    z 0.000000 0.000000 1.856810 
# 
# From -- ./inp_files/48.got.cif
#   From: 2010.03.12/outbox.cif.g09.slc.cpg/sg169_cif.got.tgz:48.got - 2010.04.02 06:46:06.
