data_PCOD8324844
_publ_section_title
;
Structure prediction by ZEFSAII (Michael W. Deem and Ramdas Pophale) SiO2 
 PCOD8324844
Probable space group: P 63
;
_chemical_formula_sum "Si O2"
_cell_formula_units_Z 40
_cell_length_a 11.027083
_cell_length_b 11.027083
_cell_length_c 18.624678
_cell_angle_alpha 90.000000
_cell_angle_beta 90.000000
_cell_angle_gamma 120.000000
_cell_volume 1961.284932
_symmetry_space_group_name_H-M "P 63"
_symmetry_group_IT_number 173
_symmetry_cell_setting 'hexagonal'
loop_
_space_group_symop_operation_xyz
x,y,z
x-y,x,1/2+z
-y,x-y,z
-x,-y,1/2+z
-x+y,-x,z
y,-x+y,1/2+z
loop_
_atom_site_type_symbol
_atom_site_label
_atom_site_fract_x
_atom_site_fract_y
_atom_site_fract_z
Si Si1 0.168211 0.805286 0.064230
Si Si2 0.310754 0.946658 0.803807
Si Si3 0.093454 0.639284 0.827582
Si Si4 0.658441 0.058142 0.958062
Si Si5 0.948257 0.323841 0.964161
Si Si6 0.333335 0.666668 0.088500
Si Si7 0.333334 0.666668 0.918717
Si Si8 0.864927 0.830933 0.693293
O O1 0.247775 0.743260 0.112893
O O2 0.060471 0.822765 0.114965
O O3 0.081174 0.699321 0.001766
O O4 0.283614 0.947300 0.027004
O O5 0.190361 0.784944 0.787784
O O6 0.460879 0.962294 0.778529
O O7 0.309556 0.990244 0.886085
O O8 0.279292 0.047224 0.753859
O O9 0.176292 0.602784 0.889186
O O10 0.968881 0.639648 0.872583
O O11 0.807747 0.181003 0.981654
O O12 0.537436 0.096077 0.970204
O O13 0.333334 0.666667 0.002678
O O14 0.849321 0.969887 0.701429
#
# Coordination Sequence:
#
# PCOD8324844 Si02
#       8
#     6   6   6   6   6   2   2   6
#     4  12  21  43  65  95 122 173 216 275 327 395
#     4  10  20  40  64  95 122 171 211 273 326 391
#     4   9  17  33  64  93 121 151 214 264 315 376
#     4  11  21  36  61  96 131 157 209 271 320 385
#     4  11  23  37  67  98 132 166 219 269 338 383
#     4  12  18  36  72  90 114 153 228 265 323 382
#     4   9  12  30  57  99 117 141 186 280 311 355
#     4  10  26  45  58  82 139 176 213 267 332 407
#
# _framework density 20.394794000000001
#
# number of rings (size 3 to 8) (size 9 to 14) (size 15 to 20)
#    0.300    1.200    4.500    2.400    2.100    0.000 
#    3.600    0.000    0.000    0.000    0.000    0.000 
#    0.000    0.000    0.000    0.000    0.000    0.000 
#
# Total GULP energy -495690.820769 kJ/mol
# GULP energy per Si atom -12392.270519 kJ/mol
# Density = 2.034837 g / cm^3
# Si number density = 20.394794 Si / 1000 Ang^3
#
#
#
# Elastic Constant Matrix: (Units=GPa)
#
#
# Indices 1 2 3 4 5 6 
#
# 1 103.0933 41.7214 26.3135 0.0000 0.0000 0.0002
# 2 41.7214 103.0926 26.3136 0.0000 0.0000 0.0001
# 3 26.3135 26.3136 63.3327 0.0000 0.0000 0.0002
# 4 0.0000 0.0000 0.0000 29.1718 -0.0001 0.0000
# 5 0.0000 0.0000 0.0000 -0.0001 29.1717 0.0000
# 6 0.0002 0.0001 0.0002 0.0000 0.0000 30.6862
#
#
#
# Elastic Compliance Matrix: (Units=1/GPa)
#
#
# Indices 1 2 3 4 5 6 
#
# 1 0.012214 -0.004080 -0.003379 0.000000 0.000000 0.000000
# 2 -0.004080 0.012214 -0.003379 0.000000 0.000000 0.000000
# 3 -0.003379 -0.003379 0.018598 0.000000 0.000000 0.000000
# 4 0.000000 0.000000 0.000000 0.034280 0.000000 0.000000
# 5 0.000000 0.000000 0.000000 0.000000 0.034280 0.000000
# 6 0.000000 0.000000 0.000000 0.000000 0.000000 0.032588
#
#
# Mechanical properties :
#
#
# Convention : Reuss Voigt Hill
#
# Bulk Modulus (GPa) = 46.84407 50.91286 48.87846
# Shear Modulus (GPa) = 28.90733 29.48395 29.19564
#
# Velocity S-wave (km/s) = 3.76891 3.80631 3.78765
# Velocity P-wave (km/s) = 6.47750 6.65847 6.56861
#
# Compressibility (1/GPa) = 0.02134742
#
# Stress axis : x y z
#
# Youngs Moduli (GPa) = 81.87475 81.87407 53.77006
#
# Poissons Ratio (x) = 0.33408 0.18170
# Poissons Ratio (y) = 0.33408 0.18171
# Poissons Ratio (z) = 0.27668 0.27668
#
# Static dielectric constant tensor:
#      x y z
#    x 3.832710 0.000000 0.000000 
#    y 0.000000 3.832710 0.000000 
#    z 0.000000 0.000000 3.246610 
# 
# 
# High freq. dielectric constant tensor:
#      x y z
#    x 1.803070 0.000000 0.000000 
#    y 0.000000 1.803070 0.000000 
#    z 0.000000 0.000000 1.756000 
# 
# From -- ./inp_files/1328.got.cif
#   From: 2010.03.12/outbox.cif.g09.slc.cpg/sg173_cif.got.tgz:1328.got - 2010.04.02 06:54:12.
