data_PCOD8324235
_publ_section_title
;
Structure prediction by ZEFSAII (Michael W. Deem and Ramdas Pophale) SiO2 
 PCOD8324235
Probable space group: R -3 M
;
_chemical_formula_sum "Si O2"
_cell_formula_units_Z 144
_cell_length_a 28.623815
_cell_length_b 28.623815
_cell_length_c 8.200858
_cell_angle_alpha 90.000000
_cell_angle_beta 90.000000
_cell_angle_gamma 120.000000
_cell_volume 5818.954434
_symmetry_space_group_name_H-M "R -3 M"
_symmetry_group_IT_number 166
_symmetry_cell_setting 'hexagonal'
loop_
_space_group_symop_operation_xyz
x,y,z
-y,x-y,z
-x+y,-x,z
x-y,-y,-z
-x,-x+y,-z
y,x,-z
-x,-y,-z
y,-x+y,-z
x-y,x,-z
-x+y,y,z
x,x-y,z
-y,-x,z
2/3+x,1/3+y,1/3+z
2/3-y,1/3+x-y,1/3+z
2/3-x+y,1/3-x,1/3+z
2/3+x-y,1/3-y,1/3-z
2/3-x,1/3-x+y,1/3-z
2/3+y,1/3+x,1/3-z
2/3-x,1/3-y,1/3-z
2/3+y,1/3-x+y,1/3-z
2/3+x-y,1/3+x,1/3-z
2/3-x+y,1/3+y,1/3+z
2/3+x,1/3+x-y,1/3+z
2/3-y,1/3-x,1/3+z
1/3+x,2/3+y,2/3+z
1/3-y,2/3+x-y,2/3+z
1/3-x+y,2/3-x,2/3+z
1/3+x-y,2/3-y,2/3-z
1/3-x,2/3-x+y,2/3-z
1/3+y,2/3+x,2/3-z
1/3-x,2/3-y,2/3-z
1/3+y,2/3-x+y,2/3-z
1/3+x-y,2/3+x,2/3-z
1/3-x+y,2/3+y,2/3+z
1/3+x,2/3+x-y,2/3+z
1/3-y,2/3-x,2/3+z
loop_
_atom_site_type_symbol
_atom_site_label
_atom_site_fract_x
_atom_site_fract_y
_atom_site_fract_z
Si Si1 0.701120 0.604998 0.174051
Si Si2 0.762722 0.096055 0.666667
Si Si3 0.060358 0.939643 0.325585
Si Si4 0.940101 0.059900 0.294275
Si Si5 0.431107 0.215554 0.202915
Si Si6 0.000000 0.732940 0.500000
Si Si7 0.757914 0.878957 0.244246
O O1 0.713821 0.666667 0.166667
O O2 0.666667 0.573057 0.333334
O O3 0.756866 0.604345 0.163517
O O4 0.668810 0.573895 0.006768
O O5 0.732514 0.056756 0.509832
O O6 0.817174 0.096429 0.704508
O O7 0.054200 0.945801 0.515043
O O8 0.092873 0.907128 0.335951
O O9 0.002383 0.907840 0.232714
O O10 0.909376 0.090625 0.236209
O O11 0.443823 0.221912 0.392948
#
# Coordination Sequence:
#
# PCOD8324235 Si02
#       7
#    36  18  18  18  18  18  18
#     4  12  29  49  76 112 155 203 260 319 383 458
#     4  11  28  46  76 106 152 206 258 319 390 466
#     4  10  24  48  76 111 146 199 255 321 396 471
#     4  10  25  45  78 110 147 193 255 322 389 473
#     4  12  28  47  71 112 152 196 250 321 387 466
#     4  12  26  46  74 106 150 204 260 312 378 464
#     4  11  26  50  73 106 152 197 256 327 394 467
#
# _framework density 24.746713
#
# number of rings (size 3 to 8) (size 9 to 14) (size 15 to 20)
#    0.000    0.750    0.000    5.125   15.750    2.000 
#    0.000    0.000    0.000    1.500    0.000    0.000 
#    0.000    0.000    0.000    0.000    0.000    0.000 
#
# Total GULP energy -594631.020394 kJ/mol
# GULP energy per Si atom -12388.146258 kJ/mol
# Density = 2.469039 g / cm^3
# Si number density = 24.746713 Si / 1000 Ang^3
#
#
#
# Elastic Constant Matrix: (Units=GPa)
#
#
# Indices 1 2 3 4 5 6 
#
# 1 179.4434 58.6273 30.0603 5.6992 -1.6549 -1.1948
# 2 58.6273 180.9855 31.3015 -6.1230 2.6792 2.1764
# 3 30.0603 31.3015 144.7972 -0.3008 1.0089 1.0460
# 4 5.6992 -6.1230 -0.3008 27.7010 -1.0030 -0.6706
# 5 -1.6549 2.6792 1.0089 -1.0030 31.0883 8.8046
# 6 -1.1948 2.1764 1.0460 -0.6706 8.8046 62.7863
#
#
#
# Elastic Compliance Matrix: (Units=1/GPa)
#
#
# Indices 1 2 3 4 5 6 
#
# 1 0.006438 -0.001995 -0.000913 -0.001756 0.000452 0.000125
# 2 -0.001995 0.006408 -0.000963 0.001794 -0.000527 -0.000151
# 3 -0.000913 -0.000963 0.007306 0.000046 -0.000179 -0.000080
# 4 -0.001756 0.001794 0.000046 0.036895 0.000892 0.000173
# 5 0.000452 -0.000527 -0.000179 0.000892 0.033593 -0.004672
# 6 0.000125 -0.000151 -0.000080 0.000173 -0.004672 0.016593
#
#
# Mechanical properties :
#
#
# Convention : Reuss Voigt Hill
#
# Bulk Modulus (GPa) = 80.57539 82.80049 81.68794
# Shear Modulus (GPa) = 41.97715 49.99761 45.98738
#
# Velocity S-wave (km/s) = 4.12305 4.49973 4.31550
# Velocity P-wave (km/s) = 7.43618 7.78001 7.61004
#
# Compressibility (1/GPa) = 0.01241074
#
# Stress axis : x y z
#
# Youngs Moduli (GPa) = 155.31765 156.04411 136.87824
#
# Poissons Ratio (x) = 0.31136 0.12497
# Poissons Ratio (y) = 0.30991 0.13176
# Poissons Ratio (z) = 0.14180 0.15021
#
# Static dielectric constant tensor:
#      x y z
#    x 4.730540 0.001220 -0.001850 
#    y 0.001220 4.730310 0.000800 
#    z -0.001850 0.000800 4.554480 
# 
# 
# High freq. dielectric constant tensor:
#      x y z
#    x 1.994730 0.000000 -0.000090 
#    y 0.000000 1.994790 0.000000 
#    z -0.000090 0.000000 1.983700 
# 
# From -- ./inp_files/1942.got.cif
#   From: 2010.03.12/outbox.cif.g09.slc.cpg/sg166_1_cif.got.tgz:1942.got - 2010.04.02 06:38:31.
