data_PCOD8324650
_publ_section_title
;
Structure prediction by ZEFSAII (Michael W. Deem and Ramdas Pophale) SiO2 
 PCOD8324650
Probable space group: P 65
;
_chemical_formula_sum "Si O2"
_cell_formula_units_Z 42
_cell_length_a 13.221118
_cell_length_b 13.221118
_cell_length_c 15.363323
_cell_angle_alpha 90.000000
_cell_angle_beta 90.000000
_cell_angle_gamma 120.000000
_cell_volume 2325.691769
_symmetry_space_group_name_H-M "P 65"
_symmetry_group_IT_number 170
_symmetry_cell_setting 'hexagonal'
loop_
_space_group_symop_operation_xyz
x,y,z
x-y,x,5/6+z
-y,x-y,2/3+z
-x,-y,1/2+z
-x+y,-x,1/3+z
y,-x+y,1/6+z
loop_
_atom_site_type_symbol
_atom_site_label
_atom_site_fract_x
_atom_site_fract_y
_atom_site_fract_z
Si Si1 0.521174 0.145946 0.349980
Si Si2 0.146569 0.503421 0.159349
Si Si3 0.096892 0.472605 0.963882
Si Si4 0.484650 0.259230 0.967832
Si Si5 0.751745 0.165884 0.309486
Si Si6 0.285627 0.395808 0.638618
Si Si7 0.611176 0.509689 0.877934
O O1 0.472089 0.232610 0.364356
O O2 0.652503 0.202870 0.314137
O O3 0.523675 0.098067 0.445000
O O4 0.437105 0.042430 0.284558
O O5 0.209316 0.641937 0.159531
O O6 0.038180 0.448258 0.227341
O O7 0.123692 0.450849 0.061999
O O8 0.158812 0.430406 0.892919
O O9 0.137017 0.609598 0.954370
O O10 0.390444 0.166939 0.898568
O O11 0.552174 0.390790 0.931689
O O12 0.824835 0.190585 0.397873
O O13 0.837458 0.250219 0.232961
O O14 0.696303 0.027426 0.295853
#
# Coordination Sequence:
#
# PCOD8324650 Si02
#       7
#     6   6   6   6   6   6   6
#     4  10  20  36  53  80 121 144 185 233 276 359
#     4  10  22  34  53  82 115 151 191 230 287 358
#     4   9  20  35  50  82 114 147 182 228 286 350
#     4  11  20  35  56  79 119 154 185 236 296 349
#     4  11  21  37  55  85 114 149 194 237 290 352
#     4  10  21  35  54  83 113 146 193 239 282 356
#     4  11  22  34  55  83 116 149 188 233 297 346
#
# _framework density 18.059142999999999
#
# number of rings (size 3 to 8) (size 9 to 14) (size 15 to 20)
#    0.000    1.714    4.286    0.857    4.000    1.143 
#    0.000    0.000    0.000    0.000    3.714    0.000 
#    0.000    0.000    0.000    0.000    0.000    0.000 
#
# Total GULP energy -520346.621479 kJ/mol
# GULP energy per Si atom -12389.205273 kJ/mol
# Density = 1.801804 g / cm^3
# Si number density = 18.059143 Si / 1000 Ang^3
#
#
#
# Elastic Constant Matrix: (Units=GPa)
#
#
# Indices 1 2 3 4 5 6 
#
# 1 92.0059 45.4800 26.9856 0.0000 0.0000 0.0000
# 2 45.4800 92.0059 26.9856 0.0000 0.0000 0.0000
# 3 26.9856 26.9856 63.4205 0.0000 0.0000 0.0000
# 4 0.0000 0.0000 0.0000 29.5043 0.0000 0.0000
# 5 0.0000 0.0000 0.0000 0.0000 29.5043 0.0000
# 6 0.0000 0.0000 0.0000 0.0000 0.0000 23.2629
#
#
#
# Elastic Compliance Matrix: (Units=1/GPa)
#
#
# Indices 1 2 3 4 5 6 
#
# 1 0.015113 -0.006381 -0.003716 0.000000 0.000000 0.000000
# 2 -0.006381 0.015113 -0.003716 0.000000 0.000000 0.000000
# 3 -0.003716 -0.003716 0.018930 0.000000 0.000000 0.000000
# 4 0.000000 0.000000 0.000000 0.033893 0.000000 0.000000
# 5 0.000000 0.000000 0.000000 0.000000 0.033893 0.000000
# 6 0.000000 0.000000 0.000000 0.000000 0.000000 0.042987
#
#
# Mechanical properties :
#
#
# Convention : Reuss Voigt Hill
#
# Bulk Modulus (GPa) = 46.44312 49.59278 48.01795
# Shear Modulus (GPa) = 25.67668 26.31972 25.99820
#
# Velocity S-wave (km/s) = 3.77478 3.82176 3.79834
# Velocity P-wave (km/s) = 6.69116 6.85532 6.77374
#
# Compressibility (1/GPa) = 0.02153172
#
# Stress axis : x y z
#
# Youngs Moduli (GPa) = 66.16945 66.16945 52.82705
#
# Poissons Ratio (x) = 0.42221 0.19628
# Poissons Ratio (y) = 0.42221 0.19628
# Poissons Ratio (z) = 0.24585 0.24585
#
# Static dielectric constant tensor:
#      x y z
#    x 3.262990 0.000000 0.000000 
#    y 0.000000 3.262990 0.000000 
#    z 0.000000 0.000000 3.468070 
# 
# 
# High freq. dielectric constant tensor:
#      x y z
#    x 1.677870 0.000000 0.000000 
#    y 0.000000 1.677870 0.000000 
#    z 0.000000 0.000000 1.708840 
# 
# From -- ./inp_files/1436.got.cif
#   From: 2010.03.12/outbox.cif.g09.slc.cpg/sg170_cif.got.tgz:1436.got - 2010.04.02 06:47:37.
