data_PCOD8324914
_publ_section_title
;
Structure prediction by ZEFSAII (Michael W. Deem and Ramdas Pophale) SiO2 
 PCOD8324914
Probable space group: P -6
;
_chemical_formula_sum "Si O2"
_cell_formula_units_Z 36
_cell_length_a 18.224563
_cell_length_b 18.224563
_cell_length_c 8.718803
_cell_angle_alpha 90.000000
_cell_angle_beta 90.000000
_cell_angle_gamma 120.000000
_cell_volume 2507.851077
_symmetry_space_group_name_H-M "P -6"
_symmetry_group_IT_number 174
_symmetry_cell_setting 'hexagonal'
loop_
_space_group_symop_operation_xyz
x,y,z
-x+y,-x,-z
-y,x-y,z
x,y,-z
-x+y,-x,z
-y,x-y,-z
loop_
_atom_site_type_symbol
_atom_site_label
_atom_site_fract_x
_atom_site_fract_y
_atom_site_fract_z
Si Si1 0.083285 0.339921 0.831395
Si Si2 0.160441 0.007181 0.181062
Si Si3 0.491994 0.671472 0.678414
Si Si4 0.172893 0.659483 0.818941
Si Si5 0.153858 0.158660 0.678415
Si Si6 0.076702 0.749954 0.168604
O O1 0.099285 0.414924 0.714901
O O2 0.166666 0.333336 0.844850
O O3 0.010023 0.247341 0.774840
O O4 0.061151 0.360962 0.000000
O O5 0.180140 0.090445 0.273526
O O6 0.069574 0.929126 0.227995
O O7 0.158272 0.021134 0.000000
O O8 0.485132 0.685899 0.500000
O O9 0.423769 0.576970 0.726439
O O10 0.473785 0.736238 0.772035
O O11 0.096017 0.676690 0.774849
O O12 0.175052 0.645507 0.000000
O O13 0.132580 0.151786 0.500000
O O14 0.234044 0.251746 0.714897
O O15 0.033527 0.727826 0.000000
#
# Coordination Sequence:
#
# PCOD8324914 Si02
#       6
#     6   6   6   6   6   6
#     4   8  16  30  44  56  73 102 134 161 194 235
#     4  10  19  31  44  56  76 106 138 166 193 234
#     4  11  20  28  41  61  82 101 128 168 207 237
#     4  10  19  31  44  56  76 106 138 166 193 234
#     4  11  20  28  41  61  82 101 128 168 207 237
#     4   8  16  30  44  56  73 102 134 161 194 235
#
# _framework density 14.354918
#
# number of rings (size 3 to 8) (size 9 to 14) (size 15 to 20)
#    0.000    2.333    0.000    6.667    0.000    7.333 
#    0.000    0.000    0.000    0.000    0.000    0.000 
#    0.000    0.000    0.000    1.000    0.000   19.333 
#
# Total GULP energy -446237.933432 kJ/mol
# GULP energy per Si atom -12395.498151 kJ/mol
# Density = 1.432225 g / cm^3
# Si number density = 14.354918 Si / 1000 Ang^3
#
#
#
# Elastic Constant Matrix: (Units=GPa)
#
#
# Indices 1 2 3 4 5 6 
#
# 1 66.2492 29.7475 17.4309 0.0000 0.0000 0.0000
# 2 29.7475 66.2492 17.4309 0.0000 0.0000 0.0000
# 3 17.4309 17.4309 53.7935 0.0000 0.0000 0.0000
# 4 0.0000 0.0000 0.0000 12.7859 0.0000 0.0000
# 5 0.0000 0.0000 0.0000 0.0000 12.7859 0.0000
# 6 0.0000 0.0000 0.0000 0.0000 0.0000 18.2509
#
#
#
# Elastic Compliance Matrix: (Units=1/GPa)
#
#
# Indices 1 2 3 4 5 6 
#
# 1 0.019601 -0.007795 -0.003826 0.000000 0.000000 0.000000
# 2 -0.007795 0.019601 -0.003826 0.000000 0.000000 0.000000
# 3 -0.003826 -0.003826 0.021069 0.000000 0.000000 0.000000
# 4 0.000000 0.000000 0.000000 0.078211 0.000000 0.000000
# 5 0.000000 0.000000 0.000000 0.000000 0.078211 0.000000
# 6 0.000000 0.000000 0.000000 0.000000 0.000000 0.054792
#
#
# Mechanical properties :
#
#
# Convention : Reuss Voigt Hill
#
# Bulk Modulus (GPa) = 34.03797 35.05672 34.54735
# Shear Modulus (GPa) = 16.01689 16.87672 16.44681
#
# Velocity S-wave (km/s) = 3.34395 3.43253 3.38853
# Velocity P-wave (km/s) = 6.21872 6.33909 6.27920
#
# Compressibility (1/GPa) = 0.02937895
#
# Stress axis : x y z
#
# Youngs Moduli (GPa) = 51.01743 51.01743 47.46340
#
# Poissons Ratio (x) = 0.39767 0.18158
# Poissons Ratio (y) = 0.39767 0.18158
# Poissons Ratio (z) = 0.19517 0.19517
#
# Static dielectric constant tensor:
#      x y z
#    x 2.870020 0.000000 0.000000 
#    y 0.000000 2.870020 0.000000 
#    z 0.000000 0.000000 2.849530 
# 
# 
# High freq. dielectric constant tensor:
#      x y z
#    x 1.520730 0.000000 0.000000 
#    y 0.000000 1.520730 0.000000 
#    z 0.000000 0.000000 1.559670 
# 
# From -- ./inp_files/409.got.cif
#   From: 2010.03.12/outbox.cif.g09.slc.cpg/sg174_cif.got.tgz:409.got - 2010.04.02 06:54:58.
