data_PCOD8324586
_publ_section_title
;
Structure prediction by ZEFSAII (Michael W. Deem and Ramdas Pophale) SiO2 
 PCOD8324586
Probable space group: P 61
;
_chemical_formula_sum "Si O2"
_cell_formula_units_Z 42
_cell_length_a 14.560394
_cell_length_b 14.560394
_cell_length_c 12.202837
_cell_angle_alpha 90.000000
_cell_angle_beta 90.000000
_cell_angle_gamma 120.000000
_cell_volume 2240.462586
_symmetry_space_group_name_H-M "P 61"
_symmetry_group_IT_number 169
_symmetry_cell_setting 'hexagonal'
loop_
_space_group_symop_operation_xyz
x,y,z
x-y,x,1/6+z
-y,x-y,1/3+z
-x,-y,1/2+z
-x+y,-x,2/3+z
y,-x+y,5/6+z
loop_
_atom_site_type_symbol
_atom_site_label
_atom_site_fract_x
_atom_site_fract_y
_atom_site_fract_z
Si Si1 0.038778 0.593117 0.645640
Si Si2 0.744457 0.360423 0.750131
Si Si3 0.625080 0.660122 0.024667
Si Si4 0.594864 0.054252 0.092834
Si Si5 0.920621 0.552836 0.849232
Si Si6 0.267105 0.725332 0.706348
Si Si7 0.195499 0.802699 0.185771
O O1 0.027817 0.475992 0.646710
O O2 0.145851 0.692636 0.690527
O O3 0.023644 0.618515 0.520742
O O4 0.948277 0.593437 0.723421
O O5 0.825948 0.431096 0.845286
O O6 0.642872 0.273412 0.813880
O O7 0.726059 0.436561 0.668414
O O8 0.785774 0.296635 0.679101
O O9 0.609464 0.661740 0.155596
O O10 0.742725 0.674647 0.004168
O O11 0.629437 0.762363 0.966752
O O12 0.649780 0.169485 0.145085
O O13 0.473600 0.022471 0.063750
O O14 0.885525 0.623880 0.920659
#
# Coordination Sequence:
#
# PCOD8324586 Si02
#       7
#     6   6   6   6   6   6   6
#     4  11  22  39  54  89 121 165 206 252 298 375
#     4  12  21  33  54  89 113 165 208 242 297 361
#     4  11  24  38  61  86 121 159 210 257 311 363
#     4  11  22  38  55  85 124 160 206 252 298 375
#     4  11  22  37  56  82 126 154 205 253 291 364
#     4  12  24  35  60  84 126 175 205 243 314 365
#     4  12  23  40  60  85 121 160 204 261 307 367
#
# _framework density 18.746130000000001
#
# number of rings (size 3 to 8) (size 9 to 14) (size 15 to 20)
#    0.000    0.571    8.571    1.714    2.000    1.143 
#    0.000    0.000    0.000    0.000    0.000    2.000 
#    0.000    0.000    0.000    0.000    0.000    0.000 
#
# Total GULP energy -520523.425265 kJ/mol
# GULP energy per Si atom -12393.414887 kJ/mol
# Density = 1.870346 g / cm^3
# Si number density = 18.746130 Si / 1000 Ang^3
#
#
#
# Elastic Constant Matrix: (Units=GPa)
#
#
# Indices 1 2 3 4 5 6 
#
# 1 57.1312 15.4493 19.4784 0.0000 0.0000 0.0000
# 2 15.4493 57.1312 19.4784 0.0000 0.0000 0.0000
# 3 19.4784 19.4784 103.8998 0.0000 0.0000 0.0000
# 4 0.0000 0.0000 0.0000 27.4828 0.0000 0.0000
# 5 0.0000 0.0000 0.0000 0.0000 27.4828 0.0000
# 6 0.0000 0.0000 0.0000 0.0000 0.0000 20.8409
#
#
#
# Elastic Compliance Matrix: (Units=1/GPa)
#
#
# Indices 1 2 3 4 5 6 
#
# 1 0.019655 -0.004336 -0.002872 0.000000 0.000000 0.000000
# 2 -0.004336 0.019655 -0.002872 0.000000 0.000000 0.000000
# 3 -0.002872 -0.002872 0.010701 0.000000 0.000000 0.000000
# 4 0.000000 0.000000 0.000000 0.036386 0.000000 0.000000
# 5 0.000000 0.000000 0.000000 0.000000 0.036386 0.000000
# 6 0.000000 0.000000 0.000000 0.000000 0.000000 0.047982
#
#
# Mechanical properties :
#
#
# Convention : Reuss Voigt Hill
#
# Bulk Modulus (GPa) = 33.49829 36.33047 34.91438
# Shear Modulus (GPa) = 24.89075 26.07837 25.48456
#
# Velocity S-wave (km/s) = 3.64783 3.73384 3.69108
# Velocity P-wave (km/s) = 5.97080 6.16531 6.06883
#
# Compressibility (1/GPa) = 0.02985227
#
# Stress axis : x y z
#
# Youngs Moduli (GPa) = 50.87695 50.87695 93.44496
#
# Poissons Ratio (x) = 0.22060 0.26837
# Poissons Ratio (y) = 0.22060 0.26837
# Poissons Ratio (z) = 0.14612 0.14612
#
# Static dielectric constant tensor:
#      x y z
#    x 3.262280 0.000000 0.000000 
#    y 0.000000 3.262280 0.000000 
#    z 0.000000 0.000000 3.780780 
# 
# 
# High freq. dielectric constant tensor:
#      x y z
#    x 1.693740 0.000000 0.000000 
#    y 0.000000 1.693740 0.000000 
#    z 0.000000 0.000000 1.751510 
# 
# From -- ./inp_files/951.got.cif
#   From: 2010.03.12/outbox.cif.g09.slc.cpg/sg169_cif.got.tgz:951.got - 2010.04.02 06:46:06.
