data_PCOD8324380
_publ_section_title
;
Structure prediction by ZEFSAII (Michael W. Deem and Ramdas Pophale) SiO2 
 PCOD8324380
Probable space group: R -3 C 
;
_chemical_formula_sum "Si O2"
_cell_formula_units_Z 144
_cell_length_a 30.890006
_cell_length_b 30.890006
_cell_length_c 9.116150
_cell_angle_alpha 90.000000
_cell_angle_beta 90.000000
_cell_angle_gamma 120.000000
_cell_volume 7533.175401
_symmetry_space_group_name_H-M "R -3 C "
_symmetry_group_IT_number 167
_symmetry_cell_setting 'hexagonal'
loop_
_space_group_symop_operation_xyz
x,y,z
-y,x-y,z
-x+y,-x,z
x-y,-y,1/2-z
-x,-x+y,1/2-z
y,x,1/2-z
-x,-y,-z
y,-x+y,-z
x-y,x,-z
-x+y,y,1/2+z
x,x-y,1/2+z
-y,-x,1/2+z
2/3+x,1/3+y,1/3+z
2/3-y,1/3+x-y,1/3+z
2/3-x+y,1/3-x,1/3+z
2/3+x-y,1/3-y,5/6-z
2/3-x,1/3-x+y,5/6-z
2/3+y,1/3+x,5/6-z
2/3-x,1/3-y,1/3-z
2/3+y,1/3-x+y,1/3-z
2/3+x-y,1/3+x,1/3-z
2/3-x+y,1/3+y,5/6+z
2/3+x,1/3+x-y,5/6+z
2/3-y,1/3-x,5/6+z
1/3+x,2/3+y,2/3+z
1/3-y,2/3+x-y,2/3+z
1/3-x+y,2/3-x,2/3+z
1/3+x-y,2/3-y,1/6-z
1/3-x,2/3-x+y,1/6-z
1/3+y,2/3+x,1/6-z
1/3-x,2/3-y,2/3-z
1/3+y,2/3-x+y,2/3-z
1/3+x-y,2/3+x,2/3-z
1/3-x+y,2/3+y,1/6+z
1/3+x,2/3+x-y,1/6+z
1/3-y,2/3-x,1/6+z
loop_
_atom_site_type_symbol
_atom_site_label
_atom_site_fract_x
_atom_site_fract_y
_atom_site_fract_z
Si Si1 0.568203 0.968399 0.116091
Si Si2 0.813176 0.529472 0.380287
Si Si3 0.138075 0.200886 0.386307
Si Si4 0.090538 0.697629 0.270528
O O1 0.512060 0.923956 0.095546
O O2 0.606569 0.948620 0.154808
O O3 0.564313 0.000000 0.250000
O O4 0.591889 0.003201 0.972762
O O5 0.801643 0.536534 0.545945
O O6 0.829279 0.487458 0.381181
O O7 0.763879 0.513783 0.285788
O O8 0.855600 0.580000 0.305479
O O9 0.088832 0.666667 0.416667
#
# Coordination Sequence:
#
# PCOD8324380 Si02
#       4
#    36  36  36  36
#     4   9  19  37  53  81 116 162 209 243 293 340
#     4  10  23  40  62  88 117 153 195 244 299 361
#     4  10  23  41  61  89 119 151 198 244 298 358
#     4   9  19  37  54  81 117 163 206 247 292 340
#
# _framework density 19.115445000000001
#
# number of rings (size 3 to 8) (size 9 to 14) (size 15 to 20)
#    0.000    2.500    0.000    0.000   10.500    2.000 
#   49.500    0.000    0.000    0.500    0.000    0.000 
#    0.000    0.000    0.000    0.000    0.000    0.000 
#
# Total GULP energy -594995.946321 kJ/mol
# GULP energy per Si atom -12395.748882 kJ/mol
# Density = 1.907194 g / cm^3
# Si number density = 19.115445 Si / 1000 Ang^3
#
#
#
# Elastic Constant Matrix: (Units=GPa)
#
#
# Indices 1 2 3 4 5 6 
#
# 1 98.5442 64.6827 62.2451 -3.3733 -0.0704 0.0034
# 2 64.6827 98.6004 62.3124 3.3932 -0.0061 0.0134
# 3 62.2451 62.3124 91.4588 0.0228 -0.2398 0.0246
# 4 -3.3733 3.3932 0.0228 35.2573 0.0138 -0.0070
# 5 -0.0704 -0.0061 -0.2398 0.0138 35.1454 -3.3830
# 6 0.0034 0.0134 0.0246 -0.0070 -3.3830 16.9676
#
#
#
# Elastic Compliance Matrix: (Units=1/GPa)
#
#
# Indices 1 2 3 4 5 6 
#
# 1 0.021410 -0.008667 -0.008667 0.002888 -0.000018 0.000013
# 2 -0.008667 0.021423 -0.008696 -0.002885 -0.000074 -0.000018
# 3 -0.008667 -0.008696 0.022758 -0.000007 0.000137 0.000003
# 4 0.002888 -0.002885 -0.000007 0.028917 -0.000005 0.000013
# 5 -0.000018 -0.000074 0.000137 -0.000005 0.029011 0.005784
# 6 0.000013 -0.000018 0.000003 0.000013 0.005784 0.060089
#
#
# Mechanical properties :
#
#
# Convention : Reuss Voigt Hill
#
# Bulk Modulus (GPa) = 73.91260 74.12042 74.01651
# Shear Modulus (GPa) = 20.81781 24.09828 22.45805
#
# Velocity S-wave (km/s) = 3.30367 3.55444 3.43135
# Velocity P-wave (km/s) = 7.30087 7.46356 7.38266
#
# Compressibility (1/GPa) = 0.01352949
#
# Stress axis : x y z
#
# Youngs Moduli (GPa) = 46.70691 46.67863 43.94110
#
# Poissons Ratio (x) = 0.40459 0.38083
# Poissons Ratio (y) = 0.40483 0.38213
# Poissons Ratio (z) = 0.40480 0.40594
#
# Static dielectric constant tensor:
#      x y z
#    x 3.379730 0.000220 -0.000420 
#    y 0.000220 3.379560 -0.000020 
#    z -0.000420 -0.000020 3.698120 
# 
# 
# High freq. dielectric constant tensor:
#      x y z
#    x 1.724740 0.000000 -0.000050 
#    y 0.000000 1.724760 0.000000 
#    z -0.000050 0.000000 1.758340 
# 
# From -- ./inp_files/802.got.cif
#   From: 2010.03.12/outbox.cif.g09.slc.cpg/sg167_1_cif.got.tgz:802.got - 2010.04.02 06:42:56.
