data_PCOD8324162
_publ_section_title
;
Structure prediction by ZEFSAII (Michael W. Deem and Ramdas Pophale) SiO2 
 PCOD8324162
Probable space group: R -3 M
;
_chemical_formula_sum "Si O2"
_cell_formula_units_Z 234
_cell_length_a 26.258112
_cell_length_b 26.258112
_cell_length_c 22.889328
_cell_angle_alpha 90.000000
_cell_angle_beta 90.000000
_cell_angle_gamma 120.000000
_cell_volume 13667.549866
_symmetry_space_group_name_H-M "R -3 M"
_symmetry_group_IT_number 166
_symmetry_cell_setting 'hexagonal'
loop_
_space_group_symop_operation_xyz
x,y,z
-y,x-y,z
-x+y,-x,z
x-y,-y,-z
-x,-x+y,-z
y,x,-z
-x,-y,-z
y,-x+y,-z
x-y,x,-z
-x+y,y,z
x,x-y,z
-y,-x,z
2/3+x,1/3+y,1/3+z
2/3-y,1/3+x-y,1/3+z
2/3-x+y,1/3-x,1/3+z
2/3+x-y,1/3-y,1/3-z
2/3-x,1/3-x+y,1/3-z
2/3+y,1/3+x,1/3-z
2/3-x,1/3-y,1/3-z
2/3+y,1/3-x+y,1/3-z
2/3+x-y,1/3+x,1/3-z
2/3-x+y,1/3+y,1/3+z
2/3+x,1/3+x-y,1/3+z
2/3-y,1/3-x,1/3+z
1/3+x,2/3+y,2/3+z
1/3-y,2/3+x-y,2/3+z
1/3-x+y,2/3-x,2/3+z
1/3+x-y,2/3-y,2/3-z
1/3-x,2/3-x+y,2/3-z
1/3+y,2/3+x,2/3-z
1/3-x,2/3-y,2/3-z
1/3+y,2/3-x+y,2/3-z
1/3+x-y,2/3+x,2/3-z
1/3-x+y,2/3+y,2/3+z
1/3+x,2/3+x-y,2/3+z
1/3-y,2/3-x,2/3+z
loop_
_atom_site_type_symbol
_atom_site_label
_atom_site_fract_x
_atom_site_fract_y
_atom_site_fract_z
Si Si1 0.540416 0.459585 0.073249
Si Si2 0.815895 0.631790 0.804642
Si Si3 0.135839 0.567920 0.049227
Si Si4 0.394608 0.141192 0.199646
Si Si5 0.981674 0.676178 0.066234
Si Si6 0.877800 0.329426 0.093381
Si Si7 0.437088 0.058342 0.787332
Si Si8 0.033513 0.183701 0.640063
O O1 0.505747 0.494254 0.085457
O O2 0.604772 0.494625 0.101824
O O3 0.544461 0.455540 0.003525
O O4 0.783368 0.566735 0.776453
O O5 0.774090 0.642663 0.847174
O O6 0.176848 0.538649 0.045467
O O7 0.410980 0.205490 0.224575
O O8 0.333334 0.113326 0.166667
O O9 0.385701 0.096834 0.252258
O O10 0.444965 0.149227 0.154085
O O11 0.937364 0.607787 0.077503
O O12 0.037456 0.693866 0.106416
O O13 0.000000 0.686018 0.000000
O O14 0.831106 0.298074 0.041400
O O15 0.438819 0.105485 0.833334
O O16 0.472390 0.091893 0.729695
O O17 0.083329 0.166658 0.627591
#
# Coordination Sequence:
#
# PCOD8324162 Si02
#       8
#    18  18  18  36  36  36  36  36
#     4  10  21  32  52  80 104 136 172 217 276 315
#     4  12  21  34  52  75 106 140 177 214 265 318
#     4  10  23  38  54  75 106 137 174 231 265 325
#     4   9  18  34  55  76 101 141 180 211 251 311
#     4  11  21  35  51  77 111 141 175 214 258 309
#     4  10  20  36  55  75 108 137 174 219 263 316
#     4  12  22  34  52  74 107 143 178 217 260 319
#     4  11  22  38  56  78 101 137 182 222 274 320
#
# _framework density 17.120844000000002
#
# number of rings (size 3 to 8) (size 9 to 14) (size 15 to 20)
#    0.000    1.385    3.846    3.923    0.000    0.615 
#    1.846    0.000    0.000    0.000    0.000    1.615 
#    0.000    0.000    0.000    0.692    0.000    0.000 
#
# Total GULP energy -967247.428204 kJ/mol
# GULP energy per Si atom -12400.608054 kJ/mol
# Density = 1.708188 g / cm^3
# Si number density = 17.120844 Si / 1000 Ang^3
#
#
#
# Elastic Constant Matrix: (Units=GPa)
#
#
# Indices 1 2 3 4 5 6 
#
# 1 94.7482 54.0592 31.5306 0.1462 0.0000 0.0000
# 2 54.0592 94.7482 31.5306 -0.1462 0.0000 0.0000
# 3 31.5306 31.5306 48.8247 0.0000 0.0000 0.0000
# 4 0.1462 -0.1462 0.0000 25.0884 0.0000 0.0000
# 5 0.0000 0.0000 0.0000 0.0000 25.0884 0.1462
# 6 0.0000 0.0000 0.0000 0.0000 0.1462 20.3445
#
#
#
# Elastic Compliance Matrix: (Units=1/GPa)
#
#
# Indices 1 2 3 4 5 6 
#
# 1 0.016915 -0.007663 -0.005975 -0.000143 0.000000 0.000000
# 2 -0.007663 0.016915 -0.005975 0.000143 0.000000 0.000000
# 3 -0.005975 -0.005975 0.028199 0.000000 0.000000 0.000000
# 4 -0.000143 0.000143 0.000000 0.039861 0.000000 0.000000
# 5 0.000000 0.000000 0.000000 0.000000 0.039861 -0.000286
# 6 0.000000 0.000000 0.000000 0.000000 -0.000286 0.049155
#
#
# Mechanical properties :
#
#
# Convention : Reuss Voigt Hill
#
# Bulk Modulus (GPa) = 43.85382 52.50690 48.18036
# Shear Modulus (GPa) = 21.03213 22.18433 21.60823
#
# Velocity S-wave (km/s) = 3.50873 3.60356 3.55646
# Velocity P-wave (km/s) = 6.48728 6.93175 6.71319
#
# Compressibility (1/GPa) = 0.02280303
#
# Stress axis : x y z
#
# Youngs Moduli (GPa) = 59.11947 59.11947 35.46274
#
# Poissons Ratio (x) = 0.45302 0.21189
# Poissons Ratio (y) = 0.45302 0.21189
# Poissons Ratio (z) = 0.35324 0.35324
#
# Static dielectric constant tensor:
#      x y z
#    x 3.310870 0.000000 0.000000 
#    y 0.000000 3.310870 0.000000 
#    z 0.000000 0.000000 3.216030 
# 
# 
# High freq. dielectric constant tensor:
#      x y z
#    x 1.651690 0.000000 0.000000 
#    y 0.000000 1.651690 0.000000 
#    z 0.000000 0.000000 1.659550 
# 
# From -- ./inp_files/7276.got.cif
#   From: 2010.03.12/outbox.cif.g09.slc.cpg/sg166_4_cif.got.tgz:7276.got - 2010.04.02 06:38:31.
