data_PCOD8324449
_publ_section_title
;
Structure prediction by ZEFSAII (Michael W. Deem and Ramdas Pophale) SiO2 
 PCOD8324449
Probable space group: P 61
;
_chemical_formula_sum "Si O2"
_cell_formula_units_Z 42
_cell_length_a 10.773468
_cell_length_b 10.773468
_cell_length_c 23.120397
_cell_angle_alpha 90.000000
_cell_angle_beta 90.000000
_cell_angle_gamma 120.000000
_cell_volume 2324.004533
_symmetry_space_group_name_H-M "P 61"
_symmetry_group_IT_number 169
_symmetry_cell_setting 'hexagonal'
loop_
_space_group_symop_operation_xyz
x,y,z
x-y,x,1/6+z
-y,x-y,1/3+z
-x,-y,1/2+z
-x+y,-x,2/3+z
y,-x+y,5/6+z
loop_
_atom_site_type_symbol
_atom_site_label
_atom_site_fract_x
_atom_site_fract_y
_atom_site_fract_z
Si Si1 0.728158 0.270800 0.989290
Si Si2 0.265611 0.818474 0.786253
Si Si3 0.055877 0.658079 0.697818
Si Si4 0.408293 0.242216 0.438889
Si Si5 0.945149 0.625197 0.225585
Si Si6 0.980297 0.475375 0.529557
Si Si7 0.686911 0.260039 0.117265
O O1 0.611767 0.311093 0.965340
O O2 0.741371 0.161716 0.946403
O O3 0.883779 0.411561 0.992081
O O4 0.677690 0.198808 0.052736
O O5 0.107002 0.744893 0.758074
O O6 0.263132 0.905956 0.842848
O O7 0.381946 0.938233 0.743877
O O8 0.021498 0.497606 0.707011
O O9 0.183532 0.740229 0.651659
O O10 0.340050 0.220373 0.502584
O O11 0.379240 0.349659 0.399249
O O12 0.578034 0.293742 0.445404
O O13 0.324148 0.090546 0.408139
O O14 0.845817 0.385460 0.485727
#
# Coordination Sequence:
#
# PCOD8324449 Si02
#       7
#     6   6   6   6   6   6   6
#     4  10  20  31  53  79 114 135 180 226 267 332
#     4  10  17  31  51  77 110 139 174 216 278 315
#     4   9  16  30  49  74 109 138 173 217 268 323
#     4  10  20  36  54  80 115 138 180 226 281 326
#     4  10  20  33  51  82 110 143 174 226 277 317
#     4  10  19  32  53  76 108 141 175 219 272 322
#     4   9  18  31  49  80 106 138 178 216 269 323
#
# _framework density 18.072254999999998
#
# number of rings (size 3 to 8) (size 9 to 14) (size 15 to 20)
#    0.000    2.286    4.286    2.571    2.000    0.000 
#    0.000    0.000    0.000    0.000    0.000   38.000 
#    0.000    0.000    0.000    0.000    0.000    0.000 
#
# Total GULP energy -520459.748528 kJ/mol
# GULP energy per Si atom -12391.898774 kJ/mol
# Density = 1.803112 g / cm^3
# Si number density = 18.072255 Si / 1000 Ang^3
#
#
#
# Elastic Constant Matrix: (Units=GPa)
#
#
# Indices 1 2 3 4 5 6 
#
# 1 64.7476 29.0625 33.9388 0.0000 0.0000 0.0000
# 2 29.0625 64.7476 33.9388 0.0000 0.0000 0.0000
# 3 33.9388 33.9388 109.7707 0.0000 0.0000 0.0000
# 4 0.0000 0.0000 0.0000 31.9804 0.0000 0.0000
# 5 0.0000 0.0000 0.0000 0.0000 31.9804 0.0000
# 6 0.0000 0.0000 0.0000 0.0000 0.0000 17.8425
#
#
#
# Elastic Compliance Matrix: (Units=1/GPa)
#
#
# Indices 1 2 3 4 5 6 
#
# 1 0.020877 -0.007146 -0.004246 0.000000 0.000000 0.000000
# 2 -0.007146 0.020877 -0.004246 0.000000 0.000000 0.000000
# 3 -0.004246 -0.004246 0.011735 0.000000 0.000000 0.000000
# 4 0.000000 0.000000 0.000000 0.031269 0.000000 0.000000
# 5 0.000000 0.000000 0.000000 0.000000 0.031269 0.000000
# 6 0.000000 0.000000 0.000000 0.000000 0.000000 0.056046
#
#
# Mechanical properties :
#
#
# Convention : Reuss Voigt Hill
#
# Bulk Modulus (GPa) = 45.01174 48.12737 46.56955
# Shear Modulus (GPa) = 23.72444 25.84905 24.78675
#
# Velocity S-wave (km/s) = 3.62713 3.78606 3.70744
# Velocity P-wave (km/s) = 6.51936 6.76762 6.64465
#
# Compressibility (1/GPa) = 0.02221643
#
# Stress axis : x y z
#
# Youngs Moduli (GPa) = 47.89874 47.89874 85.21380
#
# Poissons Ratio (x) = 0.34226 0.36178
# Poissons Ratio (y) = 0.34226 0.36178
# Poissons Ratio (z) = 0.20336 0.20336
#
# Static dielectric constant tensor:
#      x y z
#    x 3.111450 0.000000 0.000000 
#    y 0.000000 3.111450 0.000000 
#    z 0.000000 0.000000 3.804000 
# 
# 
# High freq. dielectric constant tensor:
#      x y z
#    x 1.665510 0.000000 0.000000 
#    y 0.000000 1.665510 0.000000 
#    z 0.000000 0.000000 1.722320 
# 
# From -- ./inp_files/1644.got.cif
#   From: 2010.03.12/outbox.cif.g09.slc.cpg/sg169_cif.got.tgz:1644.got - 2010.04.02 06:46:06.
