data_PCOD8324159
_publ_section_title
;
Structure prediction by ZEFSAII (Michael W. Deem and Ramdas Pophale) SiO2 
 PCOD8324159
Probable space group: R -3 M
;
_chemical_formula_sum "Si O2"
_cell_formula_units_Z 162
_cell_length_a 22.584466
_cell_length_b 22.584466
_cell_length_c 17.355221
_cell_angle_alpha 90.000000
_cell_angle_beta 90.000000
_cell_angle_gamma 120.000000
_cell_volume 7666.205074
_symmetry_space_group_name_H-M "R -3 M"
_symmetry_group_IT_number 166
_symmetry_cell_setting 'hexagonal'
loop_
_space_group_symop_operation_xyz
x,y,z
-y,x-y,z
-x+y,-x,z
x-y,-y,-z
-x,-x+y,-z
y,x,-z
-x,-y,-z
y,-x+y,-z
x-y,x,-z
-x+y,y,z
x,x-y,z
-y,-x,z
2/3+x,1/3+y,1/3+z
2/3-y,1/3+x-y,1/3+z
2/3-x+y,1/3-x,1/3+z
2/3+x-y,1/3-y,1/3-z
2/3-x,1/3-x+y,1/3-z
2/3+y,1/3+x,1/3-z
2/3-x,1/3-y,1/3-z
2/3+y,1/3-x+y,1/3-z
2/3+x-y,1/3+x,1/3-z
2/3-x+y,1/3+y,1/3+z
2/3+x,1/3+x-y,1/3+z
2/3-y,1/3-x,1/3+z
1/3+x,2/3+y,2/3+z
1/3-y,2/3+x-y,2/3+z
1/3-x+y,2/3-x,2/3+z
1/3+x-y,2/3-y,2/3-z
1/3-x,2/3-x+y,2/3-z
1/3+y,2/3+x,2/3-z
1/3-x,2/3-y,2/3-z
1/3+y,2/3-x+y,2/3-z
1/3+x-y,2/3+x,2/3-z
1/3-x+y,2/3+y,2/3+z
1/3+x,2/3+x-y,2/3+z
1/3-y,2/3-x,2/3+z
loop_
_atom_site_type_symbol
_atom_site_label
_atom_site_fract_x
_atom_site_fract_y
_atom_site_fract_z
Si Si1 0.800685 0.468408 0.220970
Si Si2 0.613748 0.907364 0.046723
Si Si3 0.991565 0.431851 0.878037
Si Si4 0.666667 0.573133 0.333334
Si Si5 0.302640 0.829520 0.399183
O O1 0.730284 0.460568 0.252646
O O2 0.805657 0.402829 0.247112
O O3 0.864130 0.535696 0.257582
O O4 0.800260 0.474668 0.128182
O O5 0.600016 0.969003 0.065070
O O6 0.623169 0.877884 0.127136
O O7 0.546667 0.854634 0.997088
O O8 0.683940 0.933497 0.999759
O O9 0.969668 0.484834 0.912439
O O10 0.073120 0.467028 0.878668
O O11 0.239227 0.760774 0.360669
#
# Coordination Sequence:
#
# PCOD8324159 Si02
#       5
#    36  36  36  18  36
#     4  11  25  44  64  84 113 156 208 259 308 361
#     4  11  21  34  59  85 124 157 195 244 295 354
#     4  10  20  35  56  84 120 167 202 232 288 361
#     4  12  22  36  58  86 114 148 194 244 300 350
#     4  10  20  37  60  87 117 157 204 248 295 358
#
# _framework density 21.131708
#
# number of rings (size 3 to 8) (size 9 to 14) (size 15 to 20)
#    0.000    1.333    4.444    1.556    0.000    4.444 
#    0.000    2.222    0.000    0.000    0.000    0.000 
#    0.000    0.000    0.000   27.556    0.000    0.000 
#
# Total GULP energy -669025.830673 kJ/mol
# GULP energy per Si atom -12389.367235 kJ/mol
# Density = 2.108361 g / cm^3
# Si number density = 21.131708 Si / 1000 Ang^3
#
#
#
# Elastic Constant Matrix: (Units=GPa)
#
#
# Indices 1 2 3 4 5 6 
#
# 1 83.4621 49.9865 20.5107 6.0139 -0.0002 0.0000
# 2 49.9865 83.4621 20.5107 -6.0139 0.0002 0.0000
# 3 20.5107 20.5107 87.9246 0.0000 0.0000 0.0000
# 4 6.0139 -6.0139 0.0000 -0.7794 0.0000 0.0002
# 5 -0.0002 0.0002 0.0000 0.0000 -0.7794 6.0139
# 6 0.0000 0.0000 0.0000 0.0002 6.0139 16.7378
#
#
#
# Elastic Compliance Matrix: (Units=1/GPa)
#
#
# Indices 1 2 3 4 5 6 
#
# 1 0.007996 0.000077 -0.001883 0.061101 -0.000002 0.000000
# 2 0.000077 0.007996 -0.001883 -0.061101 0.000002 0.000000
# 3 -0.001883 -0.001883 0.012252 0.000000 0.000000 0.000000
# 4 0.061101 -0.061101 0.000000 -0.340115 0.000000 0.000004
# 5 -0.000002 0.000002 0.000000 0.000000 -0.340115 0.122203
# 6 0.000000 0.000000 0.000000 0.000004 0.122203 0.015837
#
#
# Mechanical properties :
#
#
# Convention : Reuss Voigt Hill
#
# Bulk Modulus (GPa) = 47.92872 48.54052 48.23462
# Shear Modulus (GPa) = -8.04097 13.95854 2.95879
#
# Velocity S-wave (km/s) = -1.95280 2.57290 1.18457
# Velocity P-wave (km/s) = 4.20067 5.64330 4.97456
#
# Compressibility (1/GPa) = 0.02086432
#
# Stress axis : x y z
#
# Youngs Moduli (GPa) = 125.06946 125.06946 81.61970
#
# Poissons Ratio (x) = -0.00961 0.15370
# Poissons Ratio (y) = -0.00961 0.15370
# Poissons Ratio (z) = 0.23552 0.23552
#
# Static dielectric constant tensor:
#      x y z
#    x 3.743490 0.000000 0.000000 
#    y 0.000000 3.743490 0.000000 
#    z 0.000000 0.000000 3.769460 
# 
# 
# High freq. dielectric constant tensor:
#      x y z
#    x 1.815960 0.000000 0.000000 
#    y 0.000000 1.815960 0.000000 
#    z 0.000000 0.000000 1.828680 
# 
# From -- ./inp_files/5403.got.cif
#   From: 2010.03.12/outbox.cif.g09.slc.cpg/sg166_3_cif.got.tgz:5403.got - 2010.04.02 06:38:31.
