data_PCOD8324596
_publ_section_title
;
Structure prediction by ZEFSAII (Michael W. Deem and Ramdas Pophale) SiO2 
 PCOD8324596
Probable space group: P 61
;
_chemical_formula_sum "Si O2"
_cell_formula_units_Z 48
_cell_length_a 17.218168
_cell_length_b 17.218168
_cell_length_c 8.350949
_cell_angle_alpha 90.000000
_cell_angle_beta 90.000000
_cell_angle_gamma 120.000000
_cell_volume 2144.076837
_symmetry_space_group_name_H-M "P 61"
_symmetry_group_IT_number 169
_symmetry_cell_setting 'hexagonal'
loop_
_space_group_symop_operation_xyz
x,y,z
x-y,x,1/6+z
-y,x-y,1/3+z
-x,-y,1/2+z
-x+y,-x,2/3+z
y,-x+y,5/6+z
loop_
_atom_site_type_symbol
_atom_site_label
_atom_site_fract_x
_atom_site_fract_y
_atom_site_fract_z
Si Si1 0.404873 0.413988 0.773210
Si Si2 0.737736 0.632058 0.755024
Si Si3 0.643311 0.355474 0.424626
Si Si4 0.814815 0.545202 0.977051
Si Si5 0.758516 0.083644 0.901324
Si Si6 0.844962 0.830490 0.888278
Si Si7 0.742744 0.561494 0.429313
Si Si8 0.547769 0.588414 0.615448
O O1 0.341768 0.325745 0.672909
O O2 0.349167 0.451633 0.861327
O O3 0.475485 0.485495 0.650529
O O4 0.449824 0.393999 0.924861
O O5 0.744357 0.573469 0.903675
O O6 0.798898 0.737240 0.791095
O O7 0.777402 0.609712 0.599535
O O8 0.637201 0.605419 0.707801
O O9 0.676566 0.322635 0.576974
O O10 0.535093 0.309976 0.443139
O O11 0.716636 0.459353 0.440790
O O12 0.858927 0.514370 0.840253
O O13 0.899233 0.631496 0.058149
O O14 0.819862 0.037860 0.875456
O O15 0.808889 0.181353 0.975991
O O16 0.855018 0.911120 0.776845
#
# Coordination Sequence:
#
# PCOD8324596 Si02
#       8
#     6   6   6   6   6   6   6   6
#     4  11  25  39  67 100 138 189 240 299 355 424
#     4  11  24  43  74 100 141 192 241 299 369 440
#     4  12  26  44  67 104 152 205 254 302 357 423
#     4  12  23  43  68  99 142 192 244 299 360 432
#     4  12  24  43  74 101 143 187 240 298 368 447
#     4  12  26  51  79 110 142 184 238 310 396 471
#     4  11  25  46  66 104 145 185 246 299 358 436
#     4  11  23  41  65 100 141 186 245 300 355 421
#
# _framework density 22.387257000000002
#
# number of rings (size 3 to 8) (size 9 to 14) (size 15 to 20)
#    0.000    0.500    5.000    3.000    1.750    3.000 
#    2.250    0.000    0.000    0.000    0.000    0.000 
#    0.000    0.000    0.000    0.000    0.000    0.000 
#
# Total GULP energy -594730.507057 kJ/mol
# GULP energy per Si atom -12390.218897 kJ/mol
# Density = 2.233630 g / cm^3
# Si number density = 22.387257 Si / 1000 Ang^3
#
#
#
# Elastic Constant Matrix: (Units=GPa)
#
#
# Indices 1 2 3 4 5 6 
#
# 1 83.0664 26.3720 39.2076 0.0000 0.0000 0.0000
# 2 26.3720 83.0664 39.2076 0.0000 0.0000 0.0000
# 3 39.2076 39.2076 86.9333 0.0000 0.0000 0.0000
# 4 0.0000 0.0000 0.0000 37.1534 0.0000 0.0000
# 5 0.0000 0.0000 0.0000 0.0000 37.1534 0.0000
# 6 0.0000 0.0000 0.0000 0.0000 0.0000 28.3472
#
#
#
# Elastic Compliance Matrix: (Units=1/GPa)
#
#
# Indices 1 2 3 4 5 6 
#
# 1 0.015569 -0.002069 -0.006089 0.000000 0.000000 0.000000
# 2 -0.002069 0.015569 -0.006089 0.000000 0.000000 0.000000
# 3 -0.006089 -0.006089 0.016995 0.000000 0.000000 0.000000
# 4 0.000000 0.000000 0.000000 0.026915 0.000000 0.000000
# 5 0.000000 0.000000 0.000000 0.000000 0.026915 0.000000
# 6 0.000000 0.000000 0.000000 0.000000 0.000000 0.035277
#
#
# Mechanical properties :
#
#
# Convention : Reuss Voigt Hill
#
# Bulk Modulus (GPa) = 50.91434 51.40451 51.15942
# Shear Modulus (GPa) = 29.02225 30.41606 29.71916
#
# Velocity S-wave (km/s) = 3.60442 3.68996 3.64744
# Velocity P-wave (km/s) = 6.33360 6.41606 6.37496
#
# Compressibility (1/GPa) = 0.01964083
#
# Stress axis : x y z
#
# Youngs Moduli (GPa) = 64.22877 64.22877 58.84017
#
# Poissons Ratio (x) = 0.13289 0.35826
# Poissons Ratio (y) = 0.13289 0.35826
# Poissons Ratio (z) = 0.39107 0.39107
#
# Static dielectric constant tensor:
#      x y z
#    x 3.997620 0.000000 0.000000 
#    y 0.000000 3.997620 0.000000 
#    z 0.000000 0.000000 4.276130 
# 
# 
# High freq. dielectric constant tensor:
#      x y z
#    x 1.881490 0.000000 0.000000 
#    y 0.000000 1.881490 0.000000 
#    z 0.000000 0.000000 1.894460 
# 
# From -- ./inp_files/726.got.cif
#   From: 2010.03.12/outbox.cif.g09.slc.cpg/sg169_cif.got.tgz:726.got - 2010.04.02 06:46:06.
