data_PCOD8324659
_publ_section_title
;
Structure prediction by ZEFSAII (Michael W. Deem and Ramdas Pophale) SiO2 
 PCOD8324659
Probable space group: P 65
;
_chemical_formula_sum "Si O2"
_cell_formula_units_Z 48
_cell_length_a 11.126221
_cell_length_b 11.126221
_cell_length_c 16.773666
_cell_angle_alpha 90.000000
_cell_angle_beta 90.000000
_cell_angle_gamma 120.000000
_cell_volume 1798.266223
_symmetry_space_group_name_H-M "P 65"
_symmetry_group_IT_number 170
_symmetry_cell_setting 'hexagonal'
loop_
_space_group_symop_operation_xyz
x,y,z
x-y,x,5/6+z
-y,x-y,2/3+z
-x,-y,1/2+z
-x+y,-x,1/3+z
y,-x+y,1/6+z
loop_
_atom_site_type_symbol
_atom_site_label
_atom_site_fract_x
_atom_site_fract_y
_atom_site_fract_z
Si Si1 0.223085 0.293602 0.495530
Si Si2 0.137013 0.826574 0.409849
Si Si3 0.495073 0.773770 0.462758
Si Si4 0.680778 0.660687 0.428603
Si Si5 0.930461 0.006242 0.549655
Si Si6 0.894076 0.242519 0.153928
Si Si7 0.020653 0.665177 0.995599
Si Si8 0.812450 0.351348 0.019352
O O1 0.236523 0.157463 0.481138
O O2 0.278837 0.383445 0.414216
O O3 0.320771 0.381553 0.568918
O O4 0.058442 0.244649 0.515275
O O5 0.098386 0.706498 0.474568
O O6 0.147193 0.765443 0.324244
O O7 0.006492 0.847382 0.397906
O O8 0.277462 0.957346 0.442999
O O9 0.547550 0.660722 0.469604
O O10 0.331507 0.695909 0.475016
O O11 0.557716 0.905996 0.522291
O O12 0.538869 0.841339 0.375133
O O13 0.763172 0.818895 0.395600
O O14 0.042280 0.060199 0.622995
O O15 0.795961 0.292226 0.110271
O O16 0.894945 0.515301 0.017365
#
# Coordination Sequence:
#
# PCOD8324659 Si02
#       8
#     6   6   6   6   6   6   6   6
#     4  10  25  50  78 106 159 200 255 324 390 475
#     4  11  23  46  74 115 140 191 256 322 390 459
#     4  12  27  50  73 114 154 210 261 325 391 476
#     4  11  24  46  72 107 154 194 255 322 396 454
#     4  10  20  38  68 104 147 181 233 309 387 453
#     4  11  23  47  80 119 146 201 258 328 403 466
#     4  11  27  53  72 115 154 207 261 317 395 470
#     4  12  27  48  79 104 156 208 261 319 374 473
#
# _framework density 26.692378999999999
#
# number of rings (size 3 to 8) (size 9 to 14) (size 15 to 20)
#    0.000    1.000    3.750    3.000    0.000    5.000 
#   15.750    0.000    0.000    0.000    0.000    0.000 
#    0.000    0.000    0.000    0.000    0.000    0.000 
#
# Total GULP energy -594843.286060 kJ/mol
# GULP energy per Si atom -12392.568460 kJ/mol
# Density = 2.663163 g / cm^3
# Si number density = 26.692379 Si / 1000 Ang^3
#
#
#
# Elastic Constant Matrix: (Units=GPa)
#
#
# Indices 1 2 3 4 5 6 
#
# 1 56.4689 15.5097 22.6876 0.0000 0.0000 0.0000
# 2 15.5097 56.4689 22.6876 0.0000 0.0000 0.0000
# 3 22.6876 22.6876 201.1187 0.0000 0.0000 0.0000
# 4 0.0000 0.0000 0.0000 34.0448 0.0000 0.0000
# 5 0.0000 0.0000 0.0000 0.0000 34.0448 0.0000
# 6 0.0000 0.0000 0.0000 0.0000 0.0000 20.4796
#
#
#
# Elastic Compliance Matrix: (Units=1/GPa)
#
#
# Indices 1 2 3 4 5 6 
#
# 1 0.019686 -0.004729 -0.001687 0.000000 0.000000 0.000000
# 2 -0.004729 0.019686 -0.001687 0.000000 0.000000 0.000000
# 3 -0.001687 -0.001687 0.005353 0.000000 0.000000 0.000000
# 4 0.000000 0.000000 0.000000 0.029373 0.000000 0.000000
# 5 0.000000 0.000000 0.000000 0.000000 0.029373 0.000000
# 6 0.000000 0.000000 0.000000 0.000000 0.000000 0.048829
#
#
# Mechanical properties :
#
#
# Convention : Reuss Voigt Hill
#
# Bulk Modulus (GPa) = 35.06647 48.42514 41.74581
# Shear Modulus (GPa) = 28.08802 34.59194 31.33998
#
# Velocity S-wave (km/s) = 3.24742 3.60383 3.43026
# Velocity P-wave (km/s) = 5.21792 5.95803 5.60022
#
# Compressibility (1/GPa) = 0.02851727
#
# Stress axis : x y z
#
# Youngs Moduli (GPa) = 50.79855 50.79855 186.81649
#
# Poissons Ratio (x) = 0.24022 0.31520
# Poissons Ratio (y) = 0.24022 0.31520
# Poissons Ratio (z) = 0.08571 0.08571
#
# Static dielectric constant tensor:
#      x y z
#    x 4.619780 0.000000 0.000000 
#    y 0.000000 4.619780 0.000000 
#    z 0.000000 0.000000 5.421070 
# 
# 
# High freq. dielectric constant tensor:
#      x y z
#    x 2.062870 0.000000 0.000000 
#    y 0.000000 2.062870 0.000000 
#    z 0.000000 0.000000 2.091730 
# 
# From -- ./inp_files/1446.got.cif
#   From: 2010.03.12/outbox.cif.g09.slc.cpg/sg170_cif.got.tgz:1446.got - 2010.04.02 06:47:37.
