data_PCOD8324331
_publ_section_title
;
Structure prediction by ZEFSAII (Michael W. Deem and Ramdas Pophale) SiO2 
 PCOD8324331
Probable space group: R -3 C 
;
_chemical_formula_sum "Si O2"
_cell_formula_units_Z 108
_cell_length_a 24.919901
_cell_length_b 24.919901
_cell_length_c 9.070126
_cell_angle_alpha 90.000000
_cell_angle_beta 90.000000
_cell_angle_gamma 120.000000
_cell_volume 4877.941383
_symmetry_space_group_name_H-M "R -3 C "
_symmetry_group_IT_number 167
_symmetry_cell_setting 'hexagonal'
loop_
_space_group_symop_operation_xyz
x,y,z
-y,x-y,z
-x+y,-x,z
x-y,-y,1/2-z
-x,-x+y,1/2-z
y,x,1/2-z
-x,-y,-z
y,-x+y,-z
x-y,x,-z
-x+y,y,1/2+z
x,x-y,1/2+z
-y,-x,1/2+z
2/3+x,1/3+y,1/3+z
2/3-y,1/3+x-y,1/3+z
2/3-x+y,1/3-x,1/3+z
2/3+x-y,1/3-y,5/6-z
2/3-x,1/3-x+y,5/6-z
2/3+y,1/3+x,5/6-z
2/3-x,1/3-y,1/3-z
2/3+y,1/3-x+y,1/3-z
2/3+x-y,1/3+x,1/3-z
2/3-x+y,1/3+y,5/6+z
2/3+x,1/3+x-y,5/6+z
2/3-y,1/3-x,5/6+z
1/3+x,2/3+y,2/3+z
1/3-y,2/3+x-y,2/3+z
1/3-x+y,2/3-x,2/3+z
1/3+x-y,2/3-y,1/6-z
1/3-x,2/3-x+y,1/6-z
1/3+y,2/3+x,1/6-z
1/3-x,2/3-y,2/3-z
1/3+y,2/3-x+y,2/3-z
1/3+x-y,2/3+x,2/3-z
1/3-x+y,2/3+y,1/6+z
1/3+x,2/3+x-y,1/6+z
1/3-y,2/3-x,1/6+z
loop_
_atom_site_type_symbol
_atom_site_label
_atom_site_fract_x
_atom_site_fract_y
_atom_site_fract_z
Si Si1 0.098710 0.324148 0.806041
Si Si2 0.653222 0.561927 0.289597
Si Si3 0.664120 0.444581 0.910487
O O1 0.166667 0.333334 0.833334
O O2 0.105446 0.391037 0.774049
O O3 0.050826 0.294448 0.942509
O O4 0.064052 0.276459 0.672391
O O5 0.674336 0.511879 0.289408
O O6 0.722469 0.451735 0.825727
O O7 0.666667 0.432389 0.083334
#
# Coordination Sequence:
#
# PCOD8324331 Si02
#       3
#    36  36  36
#     4  10  20  42  68  97 139 178 229 291 349 420
#     4  10  22  41  70  98 141 176 235 286 347 430
#     4  12  25  46  71 104 139 183 237 294 357 425
#
# _framework density 22.140487
#
# number of rings (size 3 to 8) (size 9 to 14) (size 15 to 20)
#    0.000    1.333    3.333    3.333    0.000    0.000 
#    0.000   36.667    0.000    0.000    0.000    0.000 
#    0.000    0.000    0.000    0.000    0.000    0.000 
#
# Total GULP energy -446266.730936 kJ/mol
# GULP energy per Si atom -12396.298082 kJ/mol
# Density = 2.209009 g / cm^3
# Si number density = 22.140487 Si / 1000 Ang^3
#
#
#
# Elastic Constant Matrix: (Units=GPa)
#
#
# Indices 1 2 3 4 5 6 
#
# 1 148.0479 -22.7787 57.2912 -17.8484 0.0057 -0.0422
# 2 -22.7787 148.1333 57.1734 17.8137 -0.0229 -0.0415
# 3 57.2912 57.1734 93.8872 0.0231 0.1308 0.0544
# 4 -17.8484 17.8137 0.0231 48.3705 0.0078 0.0098
# 5 0.0057 -0.0229 0.1308 0.0078 48.4114 -17.8247
# 6 -0.0422 -0.0415 0.0544 0.0098 -17.8247 85.4438
#
#
#
# Elastic Compliance Matrix: (Units=1/GPa)
#
#
# Indices 1 2 3 4 5 6 
#
# 1 0.012189 0.005833 -0.010991 0.002355 0.000039 0.000024
# 2 0.005833 0.012158 -0.010963 -0.002320 0.000044 0.000025
# 3 -0.010991 -0.010963 0.024034 -0.000030 -0.000085 -0.000044
# 4 0.002355 -0.002320 -0.000030 0.022397 -0.000006 -0.000004
# 5 0.000039 0.000044 -0.000085 -0.000006 0.022375 0.004668
# 6 0.000024 0.000025 -0.000044 -0.000004 0.004668 0.012677
#
#
# Mechanical properties :
#
#
# Convention : Reuss Voigt Hill
#
# Bulk Modulus (GPa) = 61.95685 63.71557 62.83621
# Shear Modulus (GPa) = 34.85521 56.33731 45.59626
#
# Velocity S-wave (km/s) = 3.97202 5.04981 4.54299
# Velocity P-wave (km/s) = 7.00572 7.92724 7.48069
#
# Compressibility (1/GPa) = 0.01614027
#
# Stress axis : x y z
#
# Youngs Moduli (GPa) = 82.04022 82.25217 41.60826
#
# Poissons Ratio (x) = -0.47979 0.45731
# Poissons Ratio (y) = -0.47856 0.45613
# Poissons Ratio (z) = 0.90169 0.90169
#
# Static dielectric constant tensor:
#      x y z
#    x 5.573520 -0.000470 -0.000310 
#    y -0.000470 5.545920 0.000300 
#    z -0.000310 0.000300 4.214400 
# 
# 
# High freq. dielectric constant tensor:
#      x y z
#    x 1.886580 0.000000 0.000000 
#    y 0.000000 1.886580 0.000000 
#    z 0.000000 0.000000 1.859800 
# 
# From -- ./inp_files/1231.got.cif
#   From: 2010.03.12/outbox.cif.g09.slc.cpg/sg167_1_cif.got.tgz:1231.got - 2010.04.02 06:42:56.
