data_PCOD8324313
_publ_section_title
;
Structure prediction by ZEFSAII (Michael W. Deem and Ramdas Pophale) SiO2 
 PCOD8324313
Probable space group: R -3 C 
;
_chemical_formula_sum "Si O2"
_cell_formula_units_Z 216
_cell_length_a 23.230325
_cell_length_b 23.230325
_cell_length_c 23.592651
_cell_angle_alpha 90.000000
_cell_angle_beta 90.000000
_cell_angle_gamma 120.000000
_cell_volume 11025.998945
_symmetry_space_group_name_H-M "R -3 C "
_symmetry_group_IT_number 167
_symmetry_cell_setting 'hexagonal'
loop_
_space_group_symop_operation_xyz
x,y,z
-y,x-y,z
-x+y,-x,z
x-y,-y,1/2-z
-x,-x+y,1/2-z
y,x,1/2-z
-x,-y,-z
y,-x+y,-z
x-y,x,-z
-x+y,y,1/2+z
x,x-y,1/2+z
-y,-x,1/2+z
2/3+x,1/3+y,1/3+z
2/3-y,1/3+x-y,1/3+z
2/3-x+y,1/3-x,1/3+z
2/3+x-y,1/3-y,5/6-z
2/3-x,1/3-x+y,5/6-z
2/3+y,1/3+x,5/6-z
2/3-x,1/3-y,1/3-z
2/3+y,1/3-x+y,1/3-z
2/3+x-y,1/3+x,1/3-z
2/3-x+y,1/3+y,5/6+z
2/3+x,1/3+x-y,5/6+z
2/3-y,1/3-x,5/6+z
1/3+x,2/3+y,2/3+z
1/3-y,2/3+x-y,2/3+z
1/3-x+y,2/3-x,2/3+z
1/3+x-y,2/3-y,1/6-z
1/3-x,2/3-x+y,1/6-z
1/3+y,2/3+x,1/6-z
1/3-x,2/3-y,2/3-z
1/3+y,2/3-x+y,2/3-z
1/3+x-y,2/3+x,2/3-z
1/3-x+y,2/3+y,1/6+z
1/3+x,2/3+x-y,1/6+z
1/3-y,2/3-x,1/6+z
loop_
_atom_site_type_symbol
_atom_site_label
_atom_site_fract_x
_atom_site_fract_y
_atom_site_fract_z
Si Si1 0.689032 0.048665 0.023765
Si Si2 0.291645 0.157003 0.857961
Si Si3 0.256438 0.315657 0.213320
Si Si4 0.152980 0.079346 0.816537
Si Si5 0.570083 0.055694 0.977345
Si Si6 0.744408 0.260722 0.146642
O O1 0.666667 0.010075 0.083334
O O2 0.763408 0.112747 0.017779
O O3 0.632884 0.069363 0.015773
O O4 0.686666 0.996586 0.978739
O O5 0.333334 0.181031 0.916667
O O6 0.292720 0.092890 0.833489
O O7 0.211597 0.126084 0.861247
O O8 0.253812 0.253812 0.250000
O O9 0.249048 0.369846 0.248962
O O10 0.179070 0.089015 0.751219
O O11 0.093538 0.094904 0.821478
O O12 0.122626 0.002848 0.832147
O O13 0.567875 0.123228 0.975877
O O14 0.500000 0.000000 0.000000
#
# Coordination Sequence:
#
# PCOD8324313 Si02
#       6
#    36  36  36  36  36  36
#     4  11  22  40  63  89 123 163 209 262 324 382
#     4  12  24  41  62  90 128 166 209 264 327 384
#     4  10  24  40  60  87 122 165 213 263 316 388
#     4  10  21  35  60  90 123 164 201 264 315 377
#     4  11  21  35  57  86 119 162 202 252 312 386
#     4  10  20  36  59  89 125 159 211 254 319 381
#
# _framework density 19.590060999999999
#
# number of rings (size 3 to 8) (size 9 to 14) (size 15 to 20)
#    0.000    1.333    1.667    5.333    7.000    1.333 
#    3.000    0.000    0.000    0.000    0.000    0.000 
#    0.000    2.667    0.000    0.000    0.000    0.000 
#
# Total GULP energy -892112.457078 kJ/mol
# GULP energy per Si atom -12390.450793 kJ/mol
# Density = 1.954547 g / cm^3
# Si number density = 19.590061 Si / 1000 Ang^3
#
#
#
# Elastic Constant Matrix: (Units=GPa)
#
#
# Indices 1 2 3 4 5 6 
#
# 1 119.5532 50.4348 40.9085 3.4906 0.0001 0.0000
# 2 50.4348 119.5532 40.9085 -3.4906 -0.0001 0.0000
# 3 40.9085 40.9085 83.3783 0.0000 0.0000 0.0000
# 4 3.4906 -3.4906 0.0000 33.4597 0.0000 -0.0001
# 5 0.0001 -0.0001 0.0000 0.0000 33.4597 3.4906
# 6 0.0000 0.0000 0.0000 -0.0001 3.4906 34.5592
#
#
#
# Elastic Compliance Matrix: (Units=1/GPa)
#
#
# Indices 1 2 3 4 5 6 
#
# 1 0.011162 -0.003460 -0.003779 -0.001525 0.000000 0.000000
# 2 -0.003460 0.011162 -0.003779 0.001525 0.000000 0.000000
# 3 -0.003779 -0.003779 0.015701 0.000000 0.000000 0.000000
# 4 -0.001525 0.001525 0.000000 0.030205 0.000000 0.000000
# 5 0.000000 0.000000 0.000000 0.000000 0.030205 -0.003051
# 6 0.000000 0.000000 0.000000 0.000000 -0.003051 0.029244
#
#
# Mechanical properties :
#
#
# Convention : Reuss Voigt Hill
#
# Bulk Modulus (GPa) = 62.53977 65.22091 63.88034
# Shear Modulus (GPa) = 32.24895 32.97790 32.61343
#
# Velocity S-wave (km/s) = 4.06173 4.10738 4.08462
# Velocity P-wave (km/s) = 7.34781 7.47390 7.41113
#
# Compressibility (1/GPa) = 0.01598982
#
# Stress axis : x y z
#
# Youngs Moduli (GPa) = 89.59185 89.59185 63.68869
#
# Poissons Ratio (x) = 0.31001 0.24065
# Poissons Ratio (y) = 0.31001 0.24065
# Poissons Ratio (z) = 0.33853 0.33853
#
# Static dielectric constant tensor:
#      x y z
#    x 3.790130 0.000000 0.000000 
#    y 0.000000 3.790130 0.000000 
#    z 0.000000 0.000000 3.578870 
# 
# 
# High freq. dielectric constant tensor:
#      x y z
#    x 1.776250 0.000000 0.000000 
#    y 0.000000 1.776250 0.000000 
#    z 0.000000 0.000000 1.723230 
# 
# From -- ./inp_files/5529.got.cif
#   From: 2010.03.12/outbox.cif.g09.slc.cpg/sg167_3_cif.got.tgz:5529.got - 2010.04.02 06:42:56.
