data_PCOD8324662
_publ_section_title
;
Structure prediction by ZEFSAII (Michael W. Deem and Ramdas Pophale) SiO2 
 PCOD8324662
Probable space group: P 65
;
_chemical_formula_sum "Si O2"
_cell_formula_units_Z 48
_cell_length_a 18.674606
_cell_length_b 18.674606
_cell_length_c 7.376589
_cell_angle_alpha 90.000000
_cell_angle_beta 90.000000
_cell_angle_gamma 120.000000
_cell_volume 2227.866247
_symmetry_space_group_name_H-M "P 65"
_symmetry_group_IT_number 170
_symmetry_cell_setting 'hexagonal'
loop_
_space_group_symop_operation_xyz
x,y,z
x-y,x,5/6+z
-y,x-y,2/3+z
-x,-y,1/2+z
-x+y,-x,1/3+z
y,-x+y,1/6+z
loop_
_atom_site_type_symbol
_atom_site_label
_atom_site_fract_x
_atom_site_fract_y
_atom_site_fract_z
Si Si1 0.433196 0.174014 0.206530
Si Si2 0.915963 0.613455 0.575828
Si Si3 0.577481 0.984126 0.586041
Si Si4 0.225187 0.293485 0.269470
Si Si5 0.644649 0.380347 0.632628
Si Si6 0.845676 0.984804 0.670031
Si Si7 0.079528 0.170104 0.480551
Si Si8 0.398036 0.907726 0.740454
O O1 0.387990 0.224962 0.147330
O O2 0.417360 0.100297 0.066207
O O3 0.391111 0.130152 0.399816
O O4 0.529403 0.239995 0.226922
O O5 0.884712 0.553003 0.748152
O O6 0.960051 0.591511 0.418474
O O7 0.978782 0.702045 0.665982
O O8 0.484711 0.958100 0.637911
O O9 0.606030 0.034474 0.398202
O O10 0.150563 0.260047 0.412983
O O11 0.193411 0.246907 0.076104
O O12 0.637290 0.312036 0.489329
O O13 0.558701 0.379942 0.663027
O O14 0.854867 0.037908 0.491154
O O15 0.911820 0.045935 0.813560
O O16 0.122277 0.114365 0.501841
#
# Coordination Sequence:
#
# PCOD8324662 Si02
#       8
#     6   6   6   6   6   6   6   6
#     4  10  23  45  65  99 138 179 227 282 345 409
#     4  11  22  44  66  95 138 183 227 286 343 414
#     4  10  23  42  70 100 137 183 226 275 351 422
#     4  11  23  42  61  84 136 181 213 285 349 399
#     4  11  25  45  74 107 140 173 225 293 352 417
#     4  10  21  36  59  90 124 174 231 286 338 401
#     4  10  21  36  59  91 123 173 234 283 340 405
#     4  11  22  44  70 104 138 178 229 276 352 433
#
# _framework density 21.545278
#
# number of rings (size 3 to 8) (size 9 to 14) (size 15 to 20)
#    0.000    1.500    2.500    2.250    1.750    6.000 
#   15.750    1.250    0.000    0.000    0.000    0.000 
#    0.000    0.000    0.000    0.000    0.000    0.000 
#
# Total GULP energy -594945.625611 kJ/mol
# GULP energy per Si atom -12394.700534 kJ/mol
# Density = 2.149624 g / cm^3
# Si number density = 21.545278 Si / 1000 Ang^3
#
#
#
# Elastic Constant Matrix: (Units=GPa)
#
#
# Indices 1 2 3 4 5 6 
#
# 1 97.8255 29.3597 28.9488 0.0000 0.0000 0.0000
# 2 29.3597 97.8255 28.9488 0.0000 0.0000 0.0000
# 3 28.9488 28.9488 90.2052 0.0000 0.0000 0.0000
# 4 0.0000 0.0000 0.0000 29.6501 0.0000 0.0000
# 5 0.0000 0.0000 0.0000 0.0000 29.6501 0.0000
# 6 0.0000 0.0000 0.0000 0.0000 0.0000 34.2329
#
#
#
# Elastic Compliance Matrix: (Units=1/GPa)
#
#
# Indices 1 2 3 4 5 6 
#
# 1 0.011907 -0.002699 -0.002955 0.000000 0.000000 0.000000
# 2 -0.002699 0.011907 -0.002955 0.000000 0.000000 0.000000
# 3 -0.002955 -0.002955 0.012982 0.000000 0.000000 0.000000
# 4 0.000000 0.000000 0.000000 0.033727 0.000000 0.000000
# 5 0.000000 0.000000 0.000000 0.000000 0.033727 0.000000
# 6 0.000000 0.000000 0.000000 0.000000 0.000000 0.029212
#
#
# Mechanical properties :
#
#
# Convention : Reuss Voigt Hill
#
# Bulk Modulus (GPa) = 51.07760 51.15233 51.11497
# Shear Modulus (GPa) = 31.80559 31.94654 31.87606
#
# Velocity S-wave (km/s) = 3.84633 3.85484 3.85059
# Velocity P-wave (km/s) = 6.59426 6.60352 6.59889
#
# Compressibility (1/GPa) = 0.01957805
#
# Stress axis : x y z
#
# Youngs Moduli (GPa) = 83.98578 83.98578 77.02700
#
# Poissons Ratio (x) = 0.22668 0.22761
# Poissons Ratio (y) = 0.22668 0.22761
# Poissons Ratio (z) = 0.24817 0.24817
#
# Static dielectric constant tensor:
#      x y z
#    x 4.079410 0.000000 0.000000 
#    y 0.000000 4.079410 0.000000 
#    z 0.000000 0.000000 3.621220 
# 
# 
# High freq. dielectric constant tensor:
#      x y z
#    x 1.856960 0.000000 0.000000 
#    y 0.000000 1.856960 0.000000 
#    z 0.000000 0.000000 1.823460 
# 
# From -- ./inp_files/762.got.cif
#   From: 2010.03.12/outbox.cif.g09.slc.cpg/sg170_cif.got.tgz:762.got - 2010.04.02 06:47:37.
