data_PCOD8324346
_publ_section_title
;
Structure prediction by ZEFSAII (Michael W. Deem and Ramdas Pophale) SiO2 
 PCOD8324346
Probable space group: R -3 C 
;
_chemical_formula_sum "Si O2"
_cell_formula_units_Z 144
_cell_length_a 21.429639
_cell_length_b 21.429639
_cell_length_c 17.391998
_cell_angle_alpha 90.000000
_cell_angle_beta 90.000000
_cell_angle_gamma 120.000000
_cell_volume 6916.873269
_symmetry_space_group_name_H-M "R -3 C "
_symmetry_group_IT_number 167
_symmetry_cell_setting 'hexagonal'
loop_
_space_group_symop_operation_xyz
x,y,z
-y,x-y,z
-x+y,-x,z
x-y,-y,1/2-z
-x,-x+y,1/2-z
y,x,1/2-z
-x,-y,-z
y,-x+y,-z
x-y,x,-z
-x+y,y,1/2+z
x,x-y,1/2+z
-y,-x,1/2+z
2/3+x,1/3+y,1/3+z
2/3-y,1/3+x-y,1/3+z
2/3-x+y,1/3-x,1/3+z
2/3+x-y,1/3-y,5/6-z
2/3-x,1/3-x+y,5/6-z
2/3+y,1/3+x,5/6-z
2/3-x,1/3-y,1/3-z
2/3+y,1/3-x+y,1/3-z
2/3+x-y,1/3+x,1/3-z
2/3-x+y,1/3+y,5/6+z
2/3+x,1/3+x-y,5/6+z
2/3-y,1/3-x,5/6+z
1/3+x,2/3+y,2/3+z
1/3-y,2/3+x-y,2/3+z
1/3-x+y,2/3-x,2/3+z
1/3+x-y,2/3-y,1/6-z
1/3-x,2/3-x+y,1/6-z
1/3+y,2/3+x,1/6-z
1/3-x,2/3-y,2/3-z
1/3+y,2/3-x+y,2/3-z
1/3+x-y,2/3+x,2/3-z
1/3-x+y,2/3+y,1/6+z
1/3+x,2/3+x-y,1/6+z
1/3-y,2/3-x,1/6+z
loop_
_atom_site_type_symbol
_atom_site_label
_atom_site_fract_x
_atom_site_fract_y
_atom_site_fract_z
Si Si1 0.872332 0.467313 0.132093
Si Si2 0.030920 0.549102 0.114124
Si Si3 0.608153 0.433092 0.800548
Si Si4 0.050978 0.596202 0.951895
O O1 0.830657 0.497324 0.083334
O O2 0.825842 0.429552 0.208229
O O3 0.880078 0.408599 0.080510
O O4 0.954410 0.532056 0.151402
O O5 0.092670 0.579813 0.176860
O O6 0.022476 0.475227 0.075611
O O7 0.053451 0.605556 0.043859
O O8 0.688908 0.463283 0.828990
O O9 0.053298 0.666667 0.916667
#
# Coordination Sequence:
#
# PCOD8324346 Si02
#       4
#    36  36  36  36
#     4  10  21  39  63  93 131 165 214 263 329 383
#     4   9  21  40  62  97 128 167 212 269 322 391
#     4  12  25  43  64  91 131 174 221 269 323 383
#     4   9  18  37  63  93 131 170 208 261 319 383
#
# _framework density 20.818656000000001
#
# number of rings (size 3 to 8) (size 9 to 14) (size 15 to 20)
#    1.500    0.500    0.000    4.000    0.000    0.000 
#    4.500    0.000    0.000    0.500    0.000    0.000 
#    0.000    0.000    0.000    0.000    0.000    0.000 
#
# Total GULP energy -594776.392206 kJ/mol
# GULP energy per Si atom -12391.174838 kJ/mol
# Density = 2.077127 g / cm^3
# Si number density = 20.818656 Si / 1000 Ang^3
#
#
#
# Elastic Constant Matrix: (Units=GPa)
#
#
# Indices 1 2 3 4 5 6 
#
# 1 51.5175 8.6450 28.1569 6.6987 0.0000 0.0000
# 2 8.6450 51.5175 28.1569 -6.6987 0.0000 0.0000
# 3 28.1569 28.1569 97.8929 0.0000 0.0000 0.0000
# 4 6.6987 -6.6987 0.0000 27.0670 0.0000 0.0000
# 5 0.0000 0.0000 0.0000 0.0000 27.0670 6.6987
# 6 0.0000 0.0000 0.0000 0.0000 6.6987 21.4362
#
#
#
# Elastic Compliance Matrix: (Units=1/GPa)
#
#
# Indices 1 2 3 4 5 6 
#
# 1 0.024013 -0.001267 -0.006542 -0.006256 0.000000 0.000000
# 2 -0.001267 0.024013 -0.006542 0.006256 0.000000 0.000000
# 3 -0.006542 -0.006542 0.013979 0.000000 0.000000 0.000000
# 4 -0.006256 0.006256 0.000000 0.040042 0.000000 0.000000
# 5 0.000000 0.000000 0.000000 0.000000 0.040042 -0.012513
# 6 0.000000 0.000000 0.000000 0.000000 -0.012513 0.050560
#
#
# Mechanical properties :
#
#
# Convention : Reuss Voigt Hill
#
# Bulk Modulus (GPa) = 30.02957 36.76062 33.39510
# Shear Modulus (GPa) = 21.50977 24.17865 22.84421
#
# Velocity S-wave (km/s) = 3.21783 3.41162 3.31614
# Velocity P-wave (km/s) = 5.31616 5.76322 5.54420
#
# Compressibility (1/GPa) = 0.03330051
#
# Stress axis : x y z
#
# Youngs Moduli (GPa) = 41.64455 41.64455 71.53726
#
# Poissons Ratio (x) = 0.05278 0.46801
# Poissons Ratio (y) = 0.05278 0.46801
# Poissons Ratio (z) = 0.27245 0.27245
#
# Static dielectric constant tensor:
#      x y z
#    x 3.553600 0.000000 0.000000 
#    y 0.000000 3.553600 0.000000 
#    z 0.000000 0.000000 3.766220 
# 
# 
# High freq. dielectric constant tensor:
#      x y z
#    x 1.797500 0.000000 0.000000 
#    y 0.000000 1.797500 0.000000 
#    z 0.000000 0.000000 1.820740 
# 
# From -- ./inp_files/4285.got.cif
#   From: 2010.03.12/outbox.cif.g09.slc.cpg/sg167_3_cif.got.tgz:4285.got - 2010.04.02 06:42:56.
