data_PCOD8324502
_publ_section_title
;
Structure prediction by ZEFSAII (Michael W. Deem and Ramdas Pophale) SiO2 
 PCOD8324502
Probable space group: P 61
;
_chemical_formula_sum "Si O2"
_cell_formula_units_Z 42
_cell_length_a 14.755532
_cell_length_b 14.755532
_cell_length_c 10.947567
_cell_angle_alpha 90.000000
_cell_angle_beta 90.000000
_cell_angle_gamma 120.000000
_cell_volume 2064.229537
_symmetry_space_group_name_H-M "P 61"
_symmetry_group_IT_number 169
_symmetry_cell_setting 'hexagonal'
loop_
_space_group_symop_operation_xyz
x,y,z
x-y,x,1/6+z
-y,x-y,1/3+z
-x,-y,1/2+z
-x+y,-x,2/3+z
y,-x+y,5/6+z
loop_
_atom_site_type_symbol
_atom_site_label
_atom_site_fract_x
_atom_site_fract_y
_atom_site_fract_z
Si Si1 0.650654 0.759590 0.215110
Si Si2 0.402038 0.112340 0.023233
Si Si3 0.399103 0.116727 0.511638
Si Si4 0.741541 0.522990 0.923483
Si Si5 0.521384 0.337509 0.910322
Si Si6 0.501096 0.578414 0.656448
Si Si7 0.074763 0.876967 0.737839
O O1 0.700951 0.698488 0.146657
O O2 0.544818 0.677022 0.287122
O O3 0.740941 0.833506 0.308326
O O4 0.626293 0.826645 0.119914
O O5 0.395532 0.127081 0.167845
O O6 0.483184 0.222121 0.960931
O O7 0.284501 0.055022 0.969777
O O8 0.455667 0.042832 0.004550
O O9 0.437555 0.189130 0.393677
O O10 0.492635 0.098139 0.552395
O O11 0.647380 0.404128 0.891245
O O12 0.851834 0.533196 0.899137
O O13 0.503042 0.406419 0.010967
O O14 0.969360 0.858437 0.671296
#
# Coordination Sequence:
#
# PCOD8324502 Si02
#       7
#     6   6   6   6   6   6   6
#     4  11  22  41  63  94 125 171 217 265 331 395
#     4  10  20  39  67  88 124 166 215 261 318 390
#     4  11  25  39  62  94 132 169 212 267 334 394
#     4  10  22  40  58  92 133 165 210 268 319 399
#     4   9  21  38  63  89 122 163 214 267 319 381
#     4  10  22  40  61  91 123 167 215 264 321 391
#     4  11  22  43  70  96 127 167 221 276 324 392
#
# _framework density 20.346574
#
# number of rings (size 3 to 8) (size 9 to 14) (size 15 to 20)
#    0.000    1.714    1.429    3.429    4.000    4.571 
#    0.000    4.286    0.000    0.000    0.000    0.000 
#    0.000    0.000    0.000    0.000    0.000    0.000 
#
# Total GULP energy -520640.924687 kJ/mol
# GULP energy per Si atom -12396.212493 kJ/mol
# Density = 2.030026 g / cm^3
# Si number density = 20.346574 Si / 1000 Ang^3
#
#
#
# Elastic Constant Matrix: (Units=GPa)
#
#
# Indices 1 2 3 4 5 6 
#
# 1 81.6088 40.0200 39.7545 0.0000 0.0000 0.0000
# 2 40.0200 81.6088 39.7545 0.0000 0.0000 0.0000
# 3 39.7545 39.7545 87.9362 0.0000 0.0000 0.0000
# 4 0.0000 0.0000 0.0000 28.3456 0.0000 0.0000
# 5 0.0000 0.0000 0.0000 0.0000 28.3456 0.0000
# 6 0.0000 0.0000 0.0000 0.0000 0.0000 20.7944
#
#
#
# Elastic Compliance Matrix: (Units=1/GPa)
#
#
# Indices 1 2 3 4 5 6 
#
# 1 0.017858 -0.006187 -0.005276 0.000000 0.000000 0.000000
# 2 -0.006187 0.017858 -0.005276 0.000000 0.000000 0.000000
# 3 -0.005276 -0.005276 0.016142 0.000000 0.000000 0.000000
# 4 0.000000 0.000000 0.000000 0.035279 0.000000 0.000000
# 5 0.000000 0.000000 0.000000 0.000000 0.035279 0.000000
# 6 0.000000 0.000000 0.000000 0.000000 0.000000 0.048090
#
#
# Mechanical properties :
#
#
# Convention : Reuss Voigt Hill
#
# Bulk Modulus (GPa) = 54.40899 54.46796 54.43847
# Shear Modulus (GPa) = 23.79698 24.27214 24.03456
#
# Velocity S-wave (km/s) = 3.42362 3.45764 3.44067
# Velocity P-wave (km/s) = 6.51363 6.53977 6.52671
#
# Compressibility (1/GPa) = 0.01837932
#
# Stress axis : x y z
#
# Youngs Moduli (GPa) = 55.99781 55.99781 61.94867
#
# Poissons Ratio (x) = 0.34646 0.32685
# Poissons Ratio (y) = 0.34646 0.32685
# Poissons Ratio (z) = 0.29545 0.29545
#
# Static dielectric constant tensor:
#      x y z
#    x 3.705350 0.000000 0.000000 
#    y 0.000000 3.705350 0.000000 
#    z 0.000000 0.000000 3.898270 
# 
# 
# High freq. dielectric constant tensor:
#      x y z
#    x 1.795740 0.000000 0.000000 
#    y 0.000000 1.795740 0.000000 
#    z 0.000000 0.000000 1.796030 
# 
# From -- ./inp_files/983.got.cif
#   From: 2010.03.12/outbox.cif.g09.slc.cpg/sg169_cif.got.tgz:983.got - 2010.04.02 06:46:06.
