data_PCOD8324318
_publ_section_title
;
Structure prediction by ZEFSAII (Michael W. Deem and Ramdas Pophale) SiO2 
 PCOD8324318
Probable space group: R -3 C 
;
_chemical_formula_sum "Si O2"
_cell_formula_units_Z 162
_cell_length_a 19.793255
_cell_length_b 19.793255
_cell_length_c 22.055621
_cell_angle_alpha 90.000000
_cell_angle_beta 90.000000
_cell_angle_gamma 120.000000
_cell_volume 7483.148464
_symmetry_space_group_name_H-M "R -3 C "
_symmetry_group_IT_number 167
_symmetry_cell_setting 'hexagonal'
loop_
_space_group_symop_operation_xyz
x,y,z
-y,x-y,z
-x+y,-x,z
x-y,-y,1/2-z
-x,-x+y,1/2-z
y,x,1/2-z
-x,-y,-z
y,-x+y,-z
x-y,x,-z
-x+y,y,1/2+z
x,x-y,1/2+z
-y,-x,1/2+z
2/3+x,1/3+y,1/3+z
2/3-y,1/3+x-y,1/3+z
2/3-x+y,1/3-x,1/3+z
2/3+x-y,1/3-y,5/6-z
2/3-x,1/3-x+y,5/6-z
2/3+y,1/3+x,5/6-z
2/3-x,1/3-y,1/3-z
2/3+y,1/3-x+y,1/3-z
2/3+x-y,1/3+x,1/3-z
2/3-x+y,1/3+y,5/6+z
2/3+x,1/3+x-y,5/6+z
2/3-y,1/3-x,5/6+z
1/3+x,2/3+y,2/3+z
1/3-y,2/3+x-y,2/3+z
1/3-x+y,2/3-x,2/3+z
1/3+x-y,2/3-y,1/6-z
1/3-x,2/3-x+y,1/6-z
1/3+y,2/3+x,1/6-z
1/3-x,2/3-y,2/3-z
1/3+y,2/3-x+y,2/3-z
1/3+x-y,2/3+x,2/3-z
1/3-x+y,2/3+y,1/6+z
1/3+x,2/3+x-y,1/6+z
1/3-y,2/3-x,1/6+z
loop_
_atom_site_type_symbol
_atom_site_label
_atom_site_fract_x
_atom_site_fract_y
_atom_site_fract_z
Si Si1 0.188294 0.277541 0.943550
Si Si2 0.768388 0.743454 0.551109
Si Si3 0.087992 0.087992 0.250000
Si Si4 0.894051 0.498968 0.667531
Si Si5 0.043412 0.272533 0.137563
O O1 0.096520 0.241565 0.942002
O O2 0.239912 0.371331 0.950388
O O3 0.212885 0.259112 0.878622
O O4 0.201610 0.232659 0.998569
O O5 0.745493 0.767028 0.614644
O O6 0.712932 0.652063 0.532573
O O7 0.136757 0.140820 0.192370
O O8 0.000000 0.076715 0.250000
O O9 0.890947 0.421610 0.692738
O O10 0.083302 0.333334 0.083334
#
# Coordination Sequence:
#
# PCOD8324318 Si02
#       5
#    36  36  18  36  36
#     4  10  21  38  64 101 131 167 210 273 321 387
#     4  10  20  37  67  95 129 170 212 265 325 382
#     4  10  28  48  62  88 130 176 220 260 324 392
#     4  11  22  42  69  89 127 174 213 265 326 383
#     4   9  20  39  65  97 135 160 212 266 322 384
#
# _framework density 21.648643
#
# number of rings (size 3 to 8) (size 9 to 14) (size 15 to 20)
#    0.222    1.778    0.000    4.667    7.778    0.000 
#    0.000   17.778    0.000    1.778    0.000    0.000 
#    0.000    0.000    0.000    0.000    0.000    0.000 
#
# Total GULP energy -669206.978715 kJ/mol
# GULP energy per Si atom -12392.721828 kJ/mol
# Density = 2.159937 g / cm^3
# Si number density = 21.648643 Si / 1000 Ang^3
#
#
#
# Elastic Constant Matrix: (Units=GPa)
#
#
# Indices 1 2 3 4 5 6 
#
# 1 110.8491 42.3461 37.4521 10.2984 0.0000 0.0000
# 2 42.3461 110.8491 37.4521 -10.2984 0.0000 0.0000
# 3 37.4521 37.4521 78.5245 0.0000 0.0000 0.0000
# 4 10.2984 -10.2984 0.0000 35.4046 0.0000 0.0000
# 5 0.0000 0.0000 0.0000 0.0000 35.4046 10.2984
# 6 0.0000 0.0000 0.0000 0.0000 10.2984 34.2515
#
#
#
# Elastic Compliance Matrix: (Units=1/GPa)
#
#
# Indices 1 2 3 4 5 6 
#
# 1 0.012255 -0.003742 -0.004060 -0.004653 0.000000 0.000000
# 2 -0.003742 0.012255 -0.004060 0.004653 0.000000 0.000000
# 3 -0.004060 -0.004060 0.016608 0.000000 0.000000 0.000000
# 4 -0.004653 0.004653 0.000000 0.030952 0.000000 0.000000
# 5 0.000000 0.000000 0.000000 0.000000 0.030952 -0.009306
# 6 0.000000 0.000000 0.000000 0.000000 -0.009306 0.031994
#
#
# Mechanical properties :
#
#
# Convention : Reuss Voigt Hill
#
# Bulk Modulus (GPa) = 57.49501 59.41370 58.45436
# Shear Modulus (GPa) = 30.38816 33.21032 31.79924
#
# Velocity S-wave (km/s) = 3.75066 3.92096 3.83675
# Velocity P-wave (km/s) = 6.73591 6.92840 6.83283
#
# Compressibility (1/GPa) = 0.01739281
#
# Stress axis : x y z
#
# Youngs Moduli (GPa) = 81.60006 81.60006 60.21240
#
# Poissons Ratio (x) = 0.30535 0.24447
# Poissons Ratio (y) = 0.30535 0.24447
# Poissons Ratio (z) = 0.33131 0.33131
#
# Static dielectric constant tensor:
#      x y z
#    x 3.963930 0.000000 0.000000 
#    y 0.000000 3.963930 0.000000 
#    z 0.000000 0.000000 3.923650 
# 
# 
# High freq. dielectric constant tensor:
#      x y z
#    x 1.849350 0.000000 0.000000 
#    y 0.000000 1.849350 0.000000 
#    z 0.000000 0.000000 1.837780 
# 
# From -- ./inp_files/5319.got.cif
#   From: 2010.03.12/outbox.cif.g09.slc.cpg/sg167_3_cif.got.tgz:5319.got - 2010.04.02 06:42:56.
