data_PCOD8324742
_publ_section_title
;
Structure prediction by ZEFSAII (Michael W. Deem and Ramdas Pophale) SiO2 
 PCOD8324742
Probable space group: P 62
;
_chemical_formula_sum "Si O2"
_cell_formula_units_Z 36
_cell_length_a 13.766328
_cell_length_b 13.766328
_cell_length_c 10.386356
_cell_angle_alpha 90.000000
_cell_angle_beta 90.000000
_cell_angle_gamma 120.000000
_cell_volume 1704.629743
_symmetry_space_group_name_H-M "P 62"
_symmetry_group_IT_number 171
_symmetry_cell_setting 'hexagonal'
loop_
_space_group_symop_operation_xyz
x,y,z
x-y,x,1/3+z
-y,x-y,2/3+z
-x,-y,z
-x+y,-x,1/3+z
y,-x+y,2/3+z
loop_
_atom_site_type_symbol
_atom_site_label
_atom_site_fract_x
_atom_site_fract_y
_atom_site_fract_z
Si Si1 0.621693 0.866144 0.571530
Si Si2 0.625118 0.899883 0.167455
Si Si3 0.595419 0.214805 0.024681
Si Si4 0.360085 0.296053 0.737728
Si Si5 0.594401 0.382776 0.841481
Si Si6 0.100345 0.373625 0.665637
O O1 0.665822 0.829471 0.697697
O O2 0.495687 0.844496 0.596721
O O3 0.614573 0.786597 0.456904
O O4 0.707978 0.995238 0.530058
O O5 0.492174 0.831779 0.141986
O O6 0.666657 0.811647 0.208956
O O7 0.644116 0.980086 0.286793
O O8 0.686075 0.970517 0.036554
O O9 0.713069 0.318123 0.067283
O O10 0.619845 0.117920 0.970680
O O11 0.548663 0.265711 0.917911
O O12 0.489831 0.376732 0.768255
#
# Coordination Sequence:
#
# PCOD8324742 Si02
#       6
#     6   6   6   6   6   6
#     4   9  19  31  54  81 114 159 210 258 297 365
#     4  10  20  36  55  83 116 165 218 256 307 368
#     4  11  20  32  52  82 122 163 206 249 303 377
#     4  10  20  36  55  83 116 165 218 256 307 368
#     4  11  20  32  52  82 122 163 206 249 303 377
#     4   9  19  31  54  81 114 159 210 258 297 365
#
# _framework density 21.118955
#
# number of rings (size 3 to 8) (size 9 to 14) (size 15 to 20)
#    0.000    2.000    3.333    1.000    0.000    6.667 
#    0.000    1.667    0.000    0.000    0.000    0.000 
#    0.000  113.333    0.000    0.000    0.000    0.000 
#
# Total GULP energy -445995.236913 kJ/mol
# GULP energy per Si atom -12388.756581 kJ/mol
# Density = 2.107089 g / cm^3
# Si number density = 21.118955 Si / 1000 Ang^3
#
#
#
# Elastic Constant Matrix: (Units=GPa)
#
#
# Indices 1 2 3 4 5 6 
#
# 1 93.1282 49.8311 41.8862 0.0000 0.0000 0.0000
# 2 49.8311 93.1282 41.8862 0.0000 0.0000 0.0000
# 3 41.8862 41.8862 54.2493 0.0000 0.0000 0.0000
# 4 0.0000 0.0000 0.0000 38.7170 0.0000 0.0000
# 5 0.0000 0.0000 0.0000 0.0000 38.7170 0.0000
# 6 0.0000 0.0000 0.0000 0.0000 0.0000 21.6486
#
#
#
# Elastic Compliance Matrix: (Units=1/GPa)
#
#
# Indices 1 2 3 4 5 6 
#
# 1 0.017936 -0.005161 -0.009864 0.000000 0.000000 0.000000
# 2 -0.005161 0.017936 -0.009864 0.000000 0.000000 0.000000
# 3 -0.009864 -0.009864 0.033665 0.000000 0.000000 0.000000
# 4 0.000000 0.000000 0.000000 0.025828 0.000000 0.000000
# 5 0.000000 0.000000 0.000000 0.000000 0.025828 0.000000
# 6 0.000000 0.000000 0.000000 0.000000 0.000000 0.046192
#
#
# Mechanical properties :
#
#
# Convention : Reuss Voigt Hill
#
# Bulk Modulus (GPa) = 50.60631 56.41251 53.50941
# Shear Modulus (GPa) = 22.34657 26.94333 24.64495
#
# Velocity S-wave (km/s) = 3.25642 3.57569 3.41978
# Velocity P-wave (km/s) = 6.17685 6.61946 6.40198
#
# Compressibility (1/GPa) = 0.01976038
#
# Stress axis : x y z
#
# Youngs Moduli (GPa) = 55.75507 55.75507 29.70446
#
# Poissons Ratio (x) = 0.28773 0.29299
# Poissons Ratio (y) = 0.28773 0.29299
# Poissons Ratio (z) = 0.54995 0.54995
#
# Static dielectric constant tensor:
#      x y z
#    x 4.020990 0.000000 0.000000 
#    y 0.000000 4.020990 0.000000 
#    z 0.000000 0.000000 3.814220 
# 
# 
# High freq. dielectric constant tensor:
#      x y z
#    x 1.810300 0.000000 0.000000 
#    y 0.000000 1.810300 0.000000 
#    z 0.000000 0.000000 1.802380 
# 
# From -- ./inp_files/1947.got.cif
#   From: 2010.03.12/outbox.cif.g09.slc.cpg/sg171_1_cif.got.tgz:1947.got - 2010.04.02 06:49:11.
