data_PCOD8324152
_publ_section_title
;
Structure prediction by ZEFSAII (Michael W. Deem and Ramdas Pophale) SiO2 
 PCOD8324152
Probable space group: R -3 M
;
_chemical_formula_sum "Si O2"
_cell_formula_units_Z 216
_cell_length_a 22.812628
_cell_length_b 22.812628
_cell_length_c 27.392583
_cell_angle_alpha 90.000000
_cell_angle_beta 90.000000
_cell_angle_gamma 120.000000
_cell_volume 12345.658375
_symmetry_space_group_name_H-M "R -3 M"
_symmetry_group_IT_number 166
_symmetry_cell_setting 'hexagonal'
loop_
_space_group_symop_operation_xyz
x,y,z
-y,x-y,z
-x+y,-x,z
x-y,-y,-z
-x,-x+y,-z
y,x,-z
-x,-y,-z
y,-x+y,-z
x-y,x,-z
-x+y,y,z
x,x-y,z
-y,-x,z
2/3+x,1/3+y,1/3+z
2/3-y,1/3+x-y,1/3+z
2/3-x+y,1/3-x,1/3+z
2/3+x-y,1/3-y,1/3-z
2/3-x,1/3-x+y,1/3-z
2/3+y,1/3+x,1/3-z
2/3-x,1/3-y,1/3-z
2/3+y,1/3-x+y,1/3-z
2/3+x-y,1/3+x,1/3-z
2/3-x+y,1/3+y,1/3+z
2/3+x,1/3+x-y,1/3+z
2/3-y,1/3-x,1/3+z
1/3+x,2/3+y,2/3+z
1/3-y,2/3+x-y,2/3+z
1/3-x+y,2/3-x,2/3+z
1/3+x-y,2/3-y,2/3-z
1/3-x,2/3-x+y,2/3-z
1/3+y,2/3+x,2/3-z
1/3-x,2/3-y,2/3-z
1/3+y,2/3-x+y,2/3-z
1/3+x-y,2/3+x,2/3-z
1/3-x+y,2/3+y,2/3+z
1/3+x,2/3+x-y,2/3+z
1/3-y,2/3-x,2/3+z
loop_
_atom_site_type_symbol
_atom_site_label
_atom_site_fract_x
_atom_site_fract_y
_atom_site_fract_z
Si Si1 0.475824 0.392078 0.197200
Si Si2 0.241183 0.054123 0.297602
Si Si3 0.056344 0.593161 0.146278
Si Si4 0.802073 0.467686 0.119437
Si Si5 0.573075 0.625715 0.039719
Si Si6 0.939291 0.622681 0.280818
O O1 0.537102 0.462899 0.218560
O O2 0.427186 0.407904 0.163408
O O3 0.507389 0.354733 0.167422
O O4 0.433514 0.338200 0.239284
O O5 0.238001 0.119001 0.314396
O O6 0.189225 0.013827 0.255024
O O7 0.317491 0.078893 0.278755
O O8 0.216132 0.005258 0.344663
O O9 0.075111 0.537556 0.166017
O O10 0.110616 0.666667 0.166667
O O11 0.060322 0.589648 0.087279
O O12 0.730147 0.460293 0.131657
O O13 0.791108 0.395554 0.101808
O O14 0.647471 0.675896 0.059969
O O15 0.572512 0.572512 0.000000
O O16 0.918604 0.585271 0.333334
#
# Coordination Sequence:
#
# PCOD8324152 Si02
#       6
#    36  36  36  36  36  36
#     4  10  20  34  55  78 106 140 175 215 256 312
#     4   9  19  32  51  77 102 137 174 213 264 313
#     4  11  22  35  54  80 108 139 177 217 261 313
#     4  10  21  36  53  75 102 137 178 220 263 306
#     4   9  18  32  50  73 105 137 167 211 260 311
#     4   9  18  32  50  74 112 137 165 209 257 317
#
# _framework density 17.496029
#
# number of rings (size 3 to 8) (size 9 to 14) (size 15 to 20)
#    0.000    2.667    1.667    2.167    0.000    5.000 
#    0.000    1.667    0.000    0.667    0.000    1.167 
#    0.000    3.333    0.000    0.000    0.000    0.000 
#
# Total GULP energy -892406.214945 kJ/mol
# GULP energy per Si atom -12394.530763 kJ/mol
# Density = 1.745621 g / cm^3
# Si number density = 17.496029 Si / 1000 Ang^3
#
#
#
# Elastic Constant Matrix: (Units=GPa)
#
#
# Indices 1 2 3 4 5 6 
#
# 1 71.8039 29.3180 41.9354 -6.6909 0.0001 0.0000
# 2 29.3180 71.8039 41.9354 6.6909 -0.0001 0.0000
# 3 41.9354 41.9354 95.1828 0.0000 0.0000 0.0000
# 4 -6.6909 6.6909 0.0000 21.1380 0.0000 -0.0001
# 5 0.0001 -0.0001 0.0000 0.0000 21.1380 -6.6909
# 6 0.0000 0.0000 0.0000 -0.0001 -6.6909 21.2430
#
#
#
# Elastic Compliance Matrix: (Units=1/GPa)
#
#
# Indices 1 2 3 4 5 6 
#
# 1 0.020864 -0.005280 -0.006866 0.008275 0.000000 0.000000
# 2 -0.005280 0.020864 -0.006866 -0.008275 0.000000 0.000000
# 3 -0.006866 -0.006866 0.016556 0.000000 0.000000 0.000000
# 4 0.008275 -0.008275 0.000000 0.052547 0.000000 0.000000
# 5 0.000000 0.000000 0.000000 0.000000 0.052547 0.016551
# 6 0.000000 0.000000 0.000000 0.000000 0.016551 0.052287
#
#
# Mechanical properties :
#
#
# Convention : Reuss Voigt Hill
#
# Bulk Modulus (GPa) = 49.35849 51.68537 50.52193
# Shear Modulus (GPa) = 19.19820 21.07725 20.13772
#
# Velocity S-wave (km/s) = 3.31613 3.47463 3.39630
# Velocity P-wave (km/s) = 6.55246 6.76038 6.65723
#
# Compressibility (1/GPa) = 0.02025994
#
# Stress axis : x y z
#
# Youngs Moduli (GPa) = 47.93031 47.93031 60.40143
#
# Poissons Ratio (x) = 0.25308 0.41470
# Poissons Ratio (y) = 0.25308 0.41470
# Poissons Ratio (z) = 0.32908 0.32908
#
# Static dielectric constant tensor:
#      x y z
#    x 3.178990 0.000000 0.000000 
#    y 0.000000 3.178990 0.000000 
#    z 0.000000 0.000000 3.280930 
# 
# 
# High freq. dielectric constant tensor:
#      x y z
#    x 1.665970 0.000000 0.000000 
#    y 0.000000 1.665970 0.000000 
#    z 0.000000 0.000000 1.674240 
# 
# From -- ./inp_files/9713.got.cif
#   From: 2010.03.12/outbox.cif.g09.slc.cpg/sg166_5_cif.got.tgz:9713.got - 2010.04.02 06:38:31.
