data_PCOD8324575
_publ_section_title
;
Structure prediction by ZEFSAII (Michael W. Deem and Ramdas Pophale) SiO2 
 PCOD8324575
Probable space group: P 61
;
_chemical_formula_sum "Si O2"
_cell_formula_units_Z 48
_cell_length_a 15.433758
_cell_length_b 15.433758
_cell_length_c 10.953629
_cell_angle_alpha 90.000000
_cell_angle_beta 90.000000
_cell_angle_gamma 120.000000
_cell_volume 2259.602422
_symmetry_space_group_name_H-M "P 61"
_symmetry_group_IT_number 169
_symmetry_cell_setting 'hexagonal'
loop_
_space_group_symop_operation_xyz
x,y,z
x-y,x,1/6+z
-y,x-y,1/3+z
-x,-y,1/2+z
-x+y,-x,2/3+z
y,-x+y,5/6+z
loop_
_atom_site_type_symbol
_atom_site_label
_atom_site_fract_x
_atom_site_fract_y
_atom_site_fract_z
Si Si1 0.811860 0.959606 0.724620
Si Si2 0.758829 0.430652 0.766617
Si Si3 0.980488 0.278855 0.782962
Si Si4 0.644430 0.539856 0.507219
Si Si5 0.192675 0.373718 0.809132
Si Si6 0.408356 0.665635 0.092622
Si Si7 0.511732 0.933813 0.813035
Si Si8 0.607206 0.872992 0.603248
O O1 0.853355 0.897488 0.802890
O O2 0.764491 0.999038 0.825504
O O3 0.719366 0.896334 0.632095
O O4 0.644351 0.381686 0.719987
O O5 0.749418 0.370244 0.889174
O O6 0.826802 0.413013 0.670682
O O7 0.794226 0.546407 0.789858
O O8 0.885895 0.199785 0.859420
O O9 0.965258 0.373501 0.755687
O O10 0.080430 0.310620 0.862990
O O11 0.724249 0.609211 0.406732
O O12 0.629912 0.428839 0.500314
O O13 0.539803 0.530388 0.471508
O O14 0.689276 0.596395 0.634839
O O15 0.194251 0.473320 0.764602
O O16 0.564808 0.927842 0.690045
#
# Coordination Sequence:
#
# PCOD8324575 Si02
#       8
#     6   6   6   6   6   6   6   6
#     4  11  25  52  81 105 133 176 233 308 366 440
#     4  11  21  38  63  95 140 185 227 278 341 413
#     4  11  24  43  71 102 133 176 239 286 356 419
#     4  11  26  40  64  97 146 185 231 294 341 422
#     4  12  24  42  68  98 138 184 233 291 349 420
#     4  11  21  37  60  95 135 187 235 275 333 411
#     4  11  23  39  67  98 136 187 232 281 344 417
#     4  10  26  43  66 104 143 184 232 285 354 428
#
# _framework density 21.242674999999998
#
# number of rings (size 3 to 8) (size 9 to 14) (size 15 to 20)
#    0.000    1.000    6.250    0.000    3.500    2.000 
#    2.250    1.250    0.000    0.000    0.000    0.000 
#    0.000    0.000    0.000    0.000    0.000    0.000 
#
# Total GULP energy -594766.308699 kJ/mol
# GULP energy per Si atom -12390.964765 kJ/mol
# Density = 2.119433 g / cm^3
# Si number density = 21.242675 Si / 1000 Ang^3
#
#
#
# Elastic Constant Matrix: (Units=GPa)
#
#
# Indices 1 2 3 4 5 6 
#
# 1 115.8491 50.3805 36.0410 0.0000 0.0000 0.0000
# 2 50.3805 115.8491 36.0410 0.0000 0.0000 0.0000
# 3 36.0410 36.0410 83.4571 0.0000 0.0000 0.0000
# 4 0.0000 0.0000 0.0000 33.8106 0.0000 0.0000
# 5 0.0000 0.0000 0.0000 0.0000 33.8106 0.0000
# 6 0.0000 0.0000 0.0000 0.0000 0.0000 32.7343
#
#
#
# Elastic Compliance Matrix: (Units=1/GPa)
#
#
# Indices 1 2 3 4 5 6 
#
# 1 0.011338 -0.003936 -0.003196 0.000000 0.000000 0.000000
# 2 -0.003936 0.011338 -0.003196 0.000000 0.000000 0.000000
# 3 -0.003196 -0.003196 0.014743 0.000000 0.000000 0.000000
# 4 0.000000 0.000000 0.000000 0.029577 0.000000 0.000000
# 5 0.000000 0.000000 0.000000 0.000000 0.029577 0.000000
# 6 0.000000 0.000000 0.000000 0.000000 0.000000 0.030549
#
#
# Mechanical properties :
#
#
# Convention : Reuss Voigt Hill
#
# Bulk Modulus (GPa) = 59.66316 62.23114 60.94715
# Shear Modulus (GPa) = 32.60154 32.91729 32.75941
#
# Velocity S-wave (km/s) = 3.92180 3.94074 3.93128
# Velocity P-wave (km/s) = 6.97530 7.07566 7.02566
#
# Compressibility (1/GPa) = 0.01676076
#
# Stress axis : x y z
#
# Youngs Moduli (GPa) = 88.19759 88.19759 67.82877
#
# Poissons Ratio (x) = 0.34717 0.21681
# Poissons Ratio (y) = 0.34717 0.21681
# Poissons Ratio (z) = 0.28192 0.28192
#
# Static dielectric constant tensor:
#      x y z
#    x 3.881030 0.000000 0.000000 
#    y 0.000000 3.881030 0.000000 
#    z 0.000000 0.000000 3.593290 
# 
# 
# High freq. dielectric constant tensor:
#      x y z
#    x 1.833120 0.000000 0.000000 
#    y 0.000000 1.833120 0.000000 
#    z 0.000000 0.000000 1.820800 
# 
# From -- ./inp_files/1054.got.cif
#   From: 2010.03.12/outbox.cif.g09.slc.cpg/sg169_cif.got.tgz:1054.got - 2010.04.02 06:46:06.
