data_PCOD8324725
_publ_section_title
;
Structure prediction by ZEFSAII (Michael W. Deem and Ramdas Pophale) SiO2 
 PCOD8324725
Probable space group: P 62
;
_chemical_formula_sum "Si O2"
_cell_formula_units_Z 36
_cell_length_a 18.024289
_cell_length_b 18.024289
_cell_length_c 7.220581
_cell_angle_alpha 90.000000
_cell_angle_beta 90.000000
_cell_angle_gamma 120.000000
_cell_volume 2031.510449
_symmetry_space_group_name_H-M "P 62"
_symmetry_group_IT_number 171
_symmetry_cell_setting 'hexagonal'
loop_
_space_group_symop_operation_xyz
x,y,z
x-y,x,1/3+z
-y,x-y,2/3+z
-x,-y,z
-x+y,-x,1/3+z
y,-x+y,2/3+z
loop_
_atom_site_type_symbol
_atom_site_label
_atom_site_fract_x
_atom_site_fract_y
_atom_site_fract_z
Si Si1 0.899953 0.532211 0.231830
Si Si2 0.071108 0.428519 0.638252
Si Si3 0.369565 0.732847 0.989924
Si Si4 0.740281 0.205420 0.228368
Si Si5 0.901022 0.390122 0.732260
Si Si6 0.458156 0.091599 0.486871
O O1 0.882674 0.552112 0.440024
O O2 0.898425 0.442525 0.243728
O O3 0.993262 0.610397 0.173974
O O4 0.824615 0.524238 0.099308
O O5 0.120336 0.396627 0.777719
O O6 0.072542 0.510144 0.735659
O O7 0.967215 0.366949 0.626261
O O8 0.367012 0.656492 0.109455
O O9 0.309353 0.758239 0.105930
O O10 0.467764 0.808526 0.967882
O O11 0.840772 0.275423 0.247063
O O12 0.886215 0.356428 0.939456
#
# Coordination Sequence:
#
# PCOD8324725 Si02
#       6
#     6   6   6   6   6   6
#     4  11  21  38  53  70 102 132 174 219 268 324
#     4  10  20  36  53  69  94 132 173 218 265 323
#     4  11  22  32  45  69 103 131 172 231 278 312
#     4  11  21  36  49  73  95 126 175 221 266 307
#     4  10  17  35  49  64  92 134 169 211 277 319
#     4  11  19  36  55  68  97 140 169 218 272 313
#
# _framework density 17.720804999999999
#
# number of rings (size 3 to 8) (size 9 to 14) (size 15 to 20)
#    0.000    1.333    6.667    3.000    0.000    6.667 
#    6.000    0.000    0.000    0.000    0.000    0.000 
#    0.000    0.000    0.000    0.000    0.000    8.333 
#
# Total GULP energy -446007.759747 kJ/mol
# GULP energy per Si atom -12389.104437 kJ/mol
# Density = 1.768047 g / cm^3
# Si number density = 17.720805 Si / 1000 Ang^3
#
#
#
# Elastic Constant Matrix: (Units=GPa)
#
#
# Indices 1 2 3 4 5 6 
#
# 1 74.8924 25.8794 15.0817 0.0000 0.0000 0.0000
# 2 25.8794 74.8924 15.0817 0.0000 0.0000 0.0000
# 3 15.0817 15.0817 72.3925 0.0000 0.0000 0.0000
# 4 0.0000 0.0000 0.0000 18.8586 0.0000 0.0000
# 5 0.0000 0.0000 0.0000 0.0000 18.8586 0.0000
# 6 0.0000 0.0000 0.0000 0.0000 0.0000 24.5065
#
#
#
# Elastic Compliance Matrix: (Units=1/GPa)
#
#
# Indices 1 2 3 4 5 6 
#
# 1 0.015493 -0.004910 -0.002205 0.000000 0.000000 0.000000
# 2 -0.004910 0.015493 -0.002205 0.000000 0.000000 0.000000
# 3 -0.002205 -0.002205 0.014732 0.000000 0.000000 0.000000
# 4 0.000000 0.000000 0.000000 0.053026 0.000000 0.000000
# 5 0.000000 0.000000 0.000000 0.000000 0.053026 0.000000
# 6 0.000000 0.000000 0.000000 0.000000 0.000000 0.040806
#
#
# Mechanical properties :
#
#
# Convention : Reuss Voigt Hill
#
# Bulk Modulus (GPa) = 36.92818 37.14032 37.03425
# Shear Modulus (GPa) = 22.70234 23.52037 23.11136
#
# Velocity S-wave (km/s) = 3.58315 3.64713 3.61528
# Velocity P-wave (km/s) = 6.16463 6.22411 6.19444
#
# Compressibility (1/GPa) = 0.02707959
#
# Stress axis : x y z
#
# Youngs Moduli (GPa) = 64.54495 64.54495 67.87822
#
# Poissons Ratio (x) = 0.31690 0.14966
# Poissons Ratio (y) = 0.31690 0.14966
# Poissons Ratio (z) = 0.14231 0.14231
#
# Static dielectric constant tensor:
#      x y z
#    x 3.493630 0.000000 0.000000 
#    y 0.000000 3.493630 0.000000 
#    z 0.000000 0.000000 3.435380 
# 
# 
# High freq. dielectric constant tensor:
#      x y z
#    x 1.641180 0.000000 0.000000 
#    y 0.000000 1.641180 0.000000 
#    z 0.000000 0.000000 1.712790 
# 
# From -- ./inp_files/714.got.cif
#   From: 2010.03.12/outbox.cif.g09.slc.cpg/sg171_1_cif.got.tgz:714.got - 2010.04.02 06:49:11.
