data_PCOD8324374
_publ_section_title
;
Structure prediction by ZEFSAII (Michael W. Deem and Ramdas Pophale) SiO2 
 PCOD8324374
Probable space group: R -3 C 
;
_chemical_formula_sum "Si O2"
_cell_formula_units_Z 144
_cell_length_a 19.573500
_cell_length_b 19.573500
_cell_length_c 22.246791
_cell_angle_alpha 90.000000
_cell_angle_beta 90.000000
_cell_angle_gamma 120.000000
_cell_volume 7381.336202
_symmetry_space_group_name_H-M "R -3 C "
_symmetry_group_IT_number 167
_symmetry_cell_setting 'hexagonal'
loop_
_space_group_symop_operation_xyz
x,y,z
-y,x-y,z
-x+y,-x,z
x-y,-y,1/2-z
-x,-x+y,1/2-z
y,x,1/2-z
-x,-y,-z
y,-x+y,-z
x-y,x,-z
-x+y,y,1/2+z
x,x-y,1/2+z
-y,-x,1/2+z
2/3+x,1/3+y,1/3+z
2/3-y,1/3+x-y,1/3+z
2/3-x+y,1/3-x,1/3+z
2/3+x-y,1/3-y,5/6-z
2/3-x,1/3-x+y,5/6-z
2/3+y,1/3+x,5/6-z
2/3-x,1/3-y,1/3-z
2/3+y,1/3-x+y,1/3-z
2/3+x-y,1/3+x,1/3-z
2/3-x+y,1/3+y,5/6+z
2/3+x,1/3+x-y,5/6+z
2/3-y,1/3-x,5/6+z
1/3+x,2/3+y,2/3+z
1/3-y,2/3+x-y,2/3+z
1/3-x+y,2/3-x,2/3+z
1/3+x-y,2/3-y,1/6-z
1/3-x,2/3-x+y,1/6-z
1/3+y,2/3+x,1/6-z
1/3-x,2/3-y,2/3-z
1/3+y,2/3-x+y,2/3-z
1/3+x-y,2/3+x,2/3-z
1/3-x+y,2/3+y,1/6+z
1/3+x,2/3+x-y,1/6+z
1/3-y,2/3-x,1/6+z
loop_
_atom_site_type_symbol
_atom_site_label
_atom_site_fract_x
_atom_site_fract_y
_atom_site_fract_z
Si Si1 0.000000 0.359164 0.250000
Si Si2 0.395728 0.873679 0.310702
Si Si3 0.910478 0.000000 0.250000
Si Si4 0.264748 0.502523 0.642973
Si Si5 0.097855 0.332851 0.013947
O O1 0.069659 0.436891 0.280962
O O2 0.031670 0.328276 0.196448
O O3 0.338339 0.811225 0.360393
O O4 0.396870 0.819744 0.257577
O O5 0.483368 0.928229 0.336673
O O6 0.922669 0.922669 0.250000
O O7 0.222746 0.531294 0.689611
O O8 0.233145 0.413305 0.663024
O O9 0.072999 0.333334 0.083334
#
# Coordination Sequence:
#
# PCOD8324374 Si02
#       5
#    18  36  18  36  36
#     4  12  22  41  69  94 126 168 210 268 324 376
#     4  11  23  44  62  93 133 162 216 265 317 384
#     4  10  28  45  63  88 134 180 212 264 326 394
#     4  11  21  37  65  95 123 164 215 265 316 369
#     4  10  22  42  65  94 129 163 211 266 318 384
#
# _framework density 19.508662999999999
#
# number of rings (size 3 to 8) (size 9 to 14) (size 15 to 20)
#    0.250    1.000    6.250    0.250    7.000    0.000 
#    0.000    1.250    0.000    0.000    0.000    0.000 
#    0.000    0.000    0.000    0.000    0.000    0.000 
#
# Total GULP energy -594954.959424 kJ/mol
# GULP energy per Si atom -12394.894988 kJ/mol
# Density = 1.946426 g / cm^3
# Si number density = 19.508663 Si / 1000 Ang^3
#
#
#
# Elastic Constant Matrix: (Units=GPa)
#
#
# Indices 1 2 3 4 5 6 
#
# 1 103.1468 53.8856 68.1946 11.2569 -0.0005 0.0000
# 2 53.8856 103.1468 68.1946 -11.2569 0.0005 0.0000
# 3 68.1946 68.1946 108.3580 0.0000 0.0000 0.0000
# 4 11.2569 -11.2569 0.0000 45.7381 0.0000 0.0005
# 5 -0.0005 0.0005 0.0000 0.0000 45.7381 11.2569
# 6 0.0000 0.0000 0.0000 0.0005 11.2569 24.6306
#
#
#
# Elastic Compliance Matrix: (Units=1/GPa)
#
#
# Indices 1 2 3 4 5 6 
#
# 1 0.018459 -0.004414 -0.008840 -0.005629 0.000000 0.000000
# 2 -0.004414 0.018459 -0.008840 0.005629 0.000000 0.000000
# 3 -0.008840 -0.008840 0.020355 0.000000 0.000000 0.000000
# 4 -0.005629 0.005629 0.000000 0.024635 0.000000 -0.000001
# 5 0.000000 0.000000 0.000000 0.000000 0.024635 -0.011259
# 6 0.000000 0.000000 0.000000 -0.000001 -0.011259 0.045745
#
#
# Mechanical properties :
#
#
# Convention : Reuss Voigt Hill
#
# Bulk Modulus (GPa) = 76.40596 77.24457 76.82527
# Shear Modulus (GPa) = 24.89594 31.51315 28.20455
#
# Velocity S-wave (km/s) = 3.57620 4.02349 3.80642
# Velocity P-wave (km/s) = 7.50349 7.82724 7.66707
#
# Compressibility (1/GPa) = 0.01308798
#
# Stress axis : x y z
#
# Youngs Moduli (GPa) = 54.17356 54.17356 49.12815
#
# Poissons Ratio (x) = 0.23910 0.43427
# Poissons Ratio (y) = 0.23910 0.43427
# Poissons Ratio (z) = 0.47887 0.47887
#
# Static dielectric constant tensor:
#      x y z
#    x 3.762180 0.000000 0.000000 
#    y 0.000000 3.762180 0.000000 
#    z 0.000000 0.000000 4.857760 
# 
# 
# High freq. dielectric constant tensor:
#      x y z
#    x 1.761400 0.000000 0.000000 
#    y 0.000000 1.761400 0.000000 
#    z 0.000000 0.000000 1.758970 
# 
# From -- ./inp_files/4342.got.cif
#   From: 2010.03.12/outbox.cif.g09.slc.cpg/sg167_3_cif.got.tgz:4342.got - 2010.04.02 06:42:56.
