data_PCOD8324508
_publ_section_title
;
Structure prediction by ZEFSAII (Michael W. Deem and Ramdas Pophale) SiO2 
 PCOD8324508
Probable space group: P 61
;
_chemical_formula_sum "Si O2"
_cell_formula_units_Z 30
_cell_length_a 6.990911
_cell_length_b 6.990911
_cell_length_c 26.060729
_cell_angle_alpha 90.000000
_cell_angle_beta 90.000000
_cell_angle_gamma 120.000000
_cell_volume 1103.023432
_symmetry_space_group_name_H-M "P 61"
_symmetry_group_IT_number 169
_symmetry_cell_setting 'hexagonal'
loop_
_space_group_symop_operation_xyz
x,y,z
x-y,x,1/6+z
-y,x-y,1/3+z
-x,-y,1/2+z
-x+y,-x,2/3+z
y,-x+y,5/6+z
loop_
_atom_site_type_symbol
_atom_site_label
_atom_site_fract_x
_atom_site_fract_y
_atom_site_fract_z
Si Si1 0.501246 0.718409 0.400890
Si Si2 0.432050 0.608130 0.518410
Si Si3 0.961537 0.216536 0.538161
Si Si4 0.733329 0.112118 0.059685
Si Si5 0.911348 0.024008 0.971080
O O1 0.506198 0.716198 0.462495
O O2 0.275841 0.509992 0.377381
O O3 0.702250 0.690101 0.382252
O O4 0.521672 0.939360 0.377824
O O5 0.182661 0.411427 0.512669
O O6 0.433827 0.792646 0.557763
O O7 0.021168 0.182310 0.595066
O O8 0.895441 0.999489 0.502543
O O9 0.726474 0.996320 0.113747
O O10 0.705078 0.960405 0.009812
#
# Coordination Sequence:
#
# PCOD8324508 Si02
#       5
#     6   6   6   6   6
#     4  11  23  44  70 112 154 209 271 329 415 490
#     4  11  23  44  71 111 157 210 269 335 405 503
#     4  10  21  42  75 109 155 200 266 334 412 479
#     4  10  23  42  70 106 157 205 262 331 403 482
#     4  10  20  44  70 110 155 206 262 335 403 490
#
# _framework density 27.197970000000002
#
# number of rings (size 3 to 8) (size 9 to 14) (size 15 to 20)
#    0.000    1.600    2.000    2.400    0.000    0.000 
#   14.400    8.000    0.000    0.000    0.000    0.000 
#    0.000    0.000    0.000    0.000    0.000    0.000 
#
# Total GULP energy -371708.012826 kJ/mol
# GULP energy per Si atom -12390.267094 kJ/mol
# Density = 2.713607 g / cm^3
# Si number density = 27.197970 Si / 1000 Ang^3
#
#
#
# Elastic Constant Matrix: (Units=GPa)
#
#
# Indices 1 2 3 4 5 6 
#
# 1 115.7942 30.9152 60.4522 0.0000 0.0000 0.0000
# 2 30.9152 115.7942 60.4522 0.0000 0.0000 0.0000
# 3 60.4522 60.4522 166.8023 0.0000 0.0000 0.0000
# 4 0.0000 0.0000 0.0000 23.3131 0.0000 0.0000
# 5 0.0000 0.0000 0.0000 0.0000 23.3131 0.0000
# 6 0.0000 0.0000 0.0000 0.0000 0.0000 42.4395
#
#
#
# Elastic Compliance Matrix: (Units=1/GPa)
#
#
# Indices 1 2 3 4 5 6 
#
# 1 0.010750 -0.001031 -0.003522 0.000000 0.000000 0.000000
# 2 -0.001031 0.010750 -0.003522 0.000000 0.000000 0.000000
# 3 -0.003522 -0.003522 0.008548 0.000000 0.000000 0.000000
# 4 0.000000 0.000000 0.000000 0.042894 0.000000 0.000000
# 5 0.000000 0.000000 0.000000 0.000000 0.042894 0.000000
# 6 0.000000 0.000000 0.000000 0.000000 0.000000 0.023563
#
#
# Mechanical properties :
#
#
# Convention : Reuss Voigt Hill
#
# Bulk Modulus (GPa) = 71.95873 78.00332 74.98102
# Shear Modulus (GPa) = 31.21398 34.25119 32.73258
#
# Velocity S-wave (km/s) = 3.39139 3.55255 3.47290
# Velocity P-wave (km/s) = 6.46917 6.75053 6.61134
#
# Compressibility (1/GPa) = 0.01389686
#
# Stress axis : x y z
#
# Youngs Moduli (GPa) = 93.02127 93.02127 116.98324
#
# Poissons Ratio (x) = 0.09593 0.41205
# Poissons Ratio (y) = 0.09593 0.41205
# Poissons Ratio (z) = 0.32765 0.32765
#
# Static dielectric constant tensor:
#      x y z
#    x 5.134610 0.000000 0.000000 
#    y 0.000000 5.134610 0.000000 
#    z 0.000000 0.000000 5.116620 
# 
# 
# High freq. dielectric constant tensor:
#      x y z
#    x 2.091490 0.000000 0.000000 
#    y 0.000000 2.091490 0.000000 
#    z 0.000000 0.000000 2.111470 
# 
# From -- ./inp_files/1611.got.cif
#   From: 2010.03.12/outbox.cif.g09.slc.cpg/sg169_cif.got.tgz:1611.got - 2010.04.02 06:46:06.
