data_PCOD8324341
_publ_section_title
;
Structure prediction by ZEFSAII (Michael W. Deem and Ramdas Pophale) SiO2 
 PCOD8324341
Probable space group: R -3 C 
;
_chemical_formula_sum "Si O2"
_cell_formula_units_Z 102
_cell_length_a 18.606060
_cell_length_b 18.606060
_cell_length_c 16.412227
_cell_angle_alpha 90.000000
_cell_angle_beta 90.000000
_cell_angle_gamma 120.000000
_cell_volume 4920.474450
_symmetry_space_group_name_H-M "R -3 C "
_symmetry_group_IT_number 167
_symmetry_cell_setting 'hexagonal'
loop_
_space_group_symop_operation_xyz
x,y,z
-y,x-y,z
-x+y,-x,z
x-y,-y,1/2-z
-x,-x+y,1/2-z
y,x,1/2-z
-x,-y,-z
y,-x+y,-z
x-y,x,-z
-x+y,y,1/2+z
x,x-y,1/2+z
-y,-x,1/2+z
2/3+x,1/3+y,1/3+z
2/3-y,1/3+x-y,1/3+z
2/3-x+y,1/3-x,1/3+z
2/3+x-y,1/3-y,5/6-z
2/3-x,1/3-x+y,5/6-z
2/3+y,1/3+x,5/6-z
2/3-x,1/3-y,1/3-z
2/3+y,1/3-x+y,1/3-z
2/3+x-y,1/3+x,1/3-z
2/3-x+y,1/3+y,5/6+z
2/3+x,1/3+x-y,5/6+z
2/3-y,1/3-x,5/6+z
1/3+x,2/3+y,2/3+z
1/3-y,2/3+x-y,2/3+z
1/3-x+y,2/3-x,2/3+z
1/3+x-y,2/3-y,1/6-z
1/3-x,2/3-x+y,1/6-z
1/3+y,2/3+x,1/6-z
1/3-x,2/3-y,2/3-z
1/3+y,2/3-x+y,2/3-z
1/3+x-y,2/3+x,2/3-z
1/3-x+y,2/3+y,1/6+z
1/3+x,2/3+x-y,1/6+z
1/3-y,2/3-x,1/6+z
loop_
_atom_site_type_symbol
_atom_site_label
_atom_site_fract_x
_atom_site_fract_y
_atom_site_fract_z
Si Si1 0.801098 0.517597 0.721809
Si Si2 0.000000 0.000000 0.096458
Si Si3 0.922981 0.589648 0.583334
Si Si4 0.388552 0.146142 0.846308
O O1 0.717678 0.428977 0.705369
O O2 0.841011 0.563043 0.637128
O O3 0.791690 0.587326 0.768997
O O4 0.859913 0.499400 0.777864
O O5 0.000000 0.000000 0.000000
O O6 0.947265 0.667102 0.523275
O O7 0.333334 0.158247 0.916667
#
# Coordination Sequence:
#
# PCOD8324341 Si02
#       4
#    36  12  18  36
#     4  11  21  40  62  90 120 161 207 251 310 360
#     4  12  21  40  68  88 117 166 203 259 300 361
#     4  10  24  38  58  92 126 158 200 256 304 378
#     4  10  21  37  60  86 120 159 203 247 307 366
#
# _framework density 20.729709
#
# number of rings (size 3 to 8) (size 9 to 14) (size 15 to 20)
#    0.000    1.412    3.529    1.059    2.471    1.412 
#    0.000    0.000    0.000    0.000    0.000    0.000 
#    0.000    0.000    0.000    0.000    0.000    0.000 
#
# Total GULP energy -421341.580923 kJ/mol
# GULP energy per Si atom -12392.399439 kJ/mol
# Density = 2.068253 g / cm^3
# Si number density = 20.729709 Si / 1000 Ang^3
#
#
#
# Elastic Constant Matrix: (Units=GPa)
#
#
# Indices 1 2 3 4 5 6 
#
# 1 73.3097 28.8652 17.0577 4.4130 0.0002 0.0000
# 2 28.8652 73.3097 17.0577 -4.4130 -0.0002 0.0000
# 3 17.0577 17.0577 81.5796 0.0000 0.0000 0.0000
# 4 4.4130 -4.4130 0.0000 23.3974 0.0000 -0.0002
# 5 0.0002 -0.0002 0.0000 0.0000 23.3974 4.4130
# 6 0.0000 0.0000 0.0000 -0.0002 4.4130 22.2223
#
#
#
# Elastic Compliance Matrix: (Units=1/GPa)
#
#
# Indices 1 2 3 4 5 6 
#
# 1 0.016949 -0.006427 -0.002200 -0.004409 0.000000 0.000000
# 2 -0.006427 0.016949 -0.002200 0.004409 0.000000 0.000000
# 3 -0.002200 -0.002200 0.013178 0.000000 0.000000 0.000000
# 4 -0.004409 0.004409 0.000000 0.044403 0.000000 0.000000
# 5 0.000000 0.000000 0.000000 0.000000 0.044403 -0.008818
# 6 0.000000 0.000000 0.000000 0.000000 -0.008818 0.046751
#
#
# Mechanical properties :
#
#
# Convention : Reuss Voigt Hill
#
# Bulk Modulus (GPa) = 39.33702 39.35113 39.34408
# Shear Modulus (GPa) = 23.50069 24.81796 24.15932
#
# Velocity S-wave (km/s) = 3.37066 3.46384 3.41756
# Velocity P-wave (km/s) = 5.84515 5.91792 5.88165
#
# Compressibility (1/GPa) = 0.02542134
#
# Stress axis : x y z
#
# Youngs Moduli (GPa) = 59.00195 59.00195 75.88418
#
# Poissons Ratio (x) = 0.37920 0.16695
# Poissons Ratio (y) = 0.37920 0.16695
# Poissons Ratio (z) = 0.12980 0.12980
#
# Static dielectric constant tensor:
#      x y z
#    x 3.816640 0.000000 0.000000 
#    y 0.000000 3.816640 0.000000 
#    z 0.000000 0.000000 3.901120 
# 
# 
# High freq. dielectric constant tensor:
#      x y z
#    x 1.801650 0.000000 0.000000 
#    y 0.000000 1.801650 0.000000 
#    z 0.000000 0.000000 1.826220 
# 
# From -- ./inp_files/2090.got.cif
#   From: 2010.03.12/outbox.cif.g09.slc.cpg/sg167_2_cif.got.tgz:2090.got - 2010.04.02 06:42:56.
