data_PCOD8324480
_publ_section_title
;
Structure prediction by ZEFSAII (Michael W. Deem and Ramdas Pophale) SiO2 
 PCOD8324480
Probable space group: P 61
;
_chemical_formula_sum "Si O2"
_cell_formula_units_Z 42
_cell_length_a 9.797710
_cell_length_b 9.797710
_cell_length_c 25.596084
_cell_angle_alpha 90.000000
_cell_angle_beta 90.000000
_cell_angle_gamma 120.000000
_cell_volume 2127.910316
_symmetry_space_group_name_H-M "P 61"
_symmetry_group_IT_number 169
_symmetry_cell_setting 'hexagonal'
loop_
_space_group_symop_operation_xyz
x,y,z
x-y,x,1/6+z
-y,x-y,1/3+z
-x,-y,1/2+z
-x+y,-x,2/3+z
y,-x+y,5/6+z
loop_
_atom_site_type_symbol
_atom_site_label
_atom_site_fract_x
_atom_site_fract_y
_atom_site_fract_z
Si Si1 0.864672 0.664646 0.151580
Si Si2 0.679483 0.504319 0.983724
Si Si3 0.364170 0.693143 0.620009
Si Si4 0.236193 0.885989 0.438047
Si Si5 0.163193 0.658576 0.530181
Si Si6 0.507174 0.684671 0.391129
Si Si7 0.982790 0.561965 0.741081
O O1 0.768111 0.488074 0.129460
O O2 0.814826 0.777472 0.121944
O O3 0.830861 0.665985 0.213576
O O4 0.050367 0.737340 0.138750
O O5 0.631588 0.390496 0.933701
O O6 0.821209 0.491797 0.011180
O O7 0.524596 0.442348 0.019562
O O8 0.311315 0.756637 0.569382
O O9 0.373769 0.796881 0.668736
O O10 0.534736 0.704770 0.608260
O O11 0.149543 0.750812 0.480674
O O12 0.417546 0.932770 0.439777
O O13 0.009229 0.611828 0.564758
O O14 0.617247 0.875792 0.397273
#
# Coordination Sequence:
#
# PCOD8324480 Si02
#       7
#     6   6   6   6   6   6   6
#     4  10  19  37  59  79 114 155 189 237 294 355
#     4  10  19  37  56  84 113 151 198 236 295 345
#     4  10  20  35  55  86 115 149 192 238 305 347
#     4  10  20  35  57  84 112 152 194 236 288 354
#     4  11  22  33  59  90 112 152 201 246 282 365
#     4  12  19  35  60  86 116 151 195 253 289 356
#     4   9  19  36  56  81 116 150 183 242 299 340
#
# _framework density 19.737673000000001
#
# number of rings (size 3 to 8) (size 9 to 14) (size 15 to 20)
#    0.000    1.714    5.714    0.857    2.000    0.000 
#    0.000    0.000    3.143    0.000    0.000    0.000 
#    0.000    0.000    0.000    0.000    0.000    0.000 
#
# Total GULP energy -520445.595400 kJ/mol
# GULP energy per Si atom -12391.561795 kJ/mol
# Density = 1.969275 g / cm^3
# Si number density = 19.737673 Si / 1000 Ang^3
#
#
#
# Elastic Constant Matrix: (Units=GPa)
#
#
# Indices 1 2 3 4 5 6 
#
# 1 72.5907 26.6624 15.5937 0.0000 0.0000 0.0000
# 2 26.6624 72.5907 15.5937 0.0000 0.0000 0.0000
# 3 15.5937 15.5937 88.5213 0.0000 0.0000 0.0000
# 4 0.0000 0.0000 0.0000 27.2471 0.0000 0.0000
# 5 0.0000 0.0000 0.0000 0.0000 27.2471 0.0000
# 6 0.0000 0.0000 0.0000 0.0000 0.0000 22.9641
#
#
#
# Elastic Compliance Matrix: (Units=1/GPa)
#
#
# Indices 1 2 3 4 5 6 
#
# 1 0.016219 -0.005554 -0.001879 0.000000 0.000000 0.000000
# 2 -0.005554 0.016219 -0.001879 0.000000 0.000000 0.000000
# 3 -0.001879 -0.001879 0.011959 0.000000 0.000000 0.000000
# 4 0.000000 0.000000 0.000000 0.036701 0.000000 0.000000
# 5 0.000000 0.000000 0.000000 0.000000 0.036701 0.000000
# 6 0.000000 0.000000 0.000000 0.000000 0.000000 0.043546
#
#
# Mechanical properties :
#
#
# Convention : Reuss Voigt Hill
#
# Bulk Modulus (GPa) = 38.79795 38.82250 38.81022
# Shear Modulus (GPa) = 26.51676 27.21521 26.86598
#
# Velocity S-wave (km/s) = 3.66930 3.71731 3.69338
# Velocity P-wave (km/s) = 6.13605 6.17547 6.15579
#
# Compressibility (1/GPa) = 0.02577456
#
# Stress axis : x y z
#
# Youngs Moduli (GPa) = 61.65477 61.65477 83.62144
#
# Poissons Ratio (x) = 0.34241 0.15711
# Poissons Ratio (y) = 0.34241 0.15711
# Poissons Ratio (z) = 0.11584 0.11584
#
# Static dielectric constant tensor:
#      x y z
#    x 3.463680 0.000000 0.000000 
#    y 0.000000 3.463680 0.000000 
#    z 0.000000 0.000000 3.791020 
# 
# 
# High freq. dielectric constant tensor:
#      x y z
#    x 1.738870 0.000000 0.000000 
#    y 0.000000 1.738870 0.000000 
#    z 0.000000 0.000000 1.788310 
# 
# From -- ./inp_files/1854.got.cif
#   From: 2010.03.12/outbox.cif.g09.slc.cpg/sg169_cif.got.tgz:1854.got - 2010.04.02 06:46:06.
