data_PCOD8324632
_publ_section_title
;
Structure prediction by ZEFSAII (Michael W. Deem and Ramdas Pophale) SiO2 
 PCOD8324632
Probable space group: P 65
;
_chemical_formula_sum "Si O2"
_cell_formula_units_Z 48
_cell_length_a 15.008011
_cell_length_b 15.008011
_cell_length_c 13.152175
_cell_angle_alpha 90.000000
_cell_angle_beta 90.000000
_cell_angle_gamma 120.000000
_cell_volume 2565.514593
_symmetry_space_group_name_H-M "P 65"
_symmetry_group_IT_number 170
_symmetry_cell_setting 'hexagonal'
loop_
_space_group_symop_operation_xyz
x,y,z
x-y,x,5/6+z
-y,x-y,2/3+z
-x,-y,1/2+z
-x+y,-x,1/3+z
y,-x+y,1/6+z
loop_
_atom_site_type_symbol
_atom_site_label
_atom_site_fract_x
_atom_site_fract_y
_atom_site_fract_z
Si Si1 0.001137 0.861259 0.896650
Si Si2 0.408604 0.568774 0.649637
Si Si3 0.847560 0.483657 0.016943
Si Si4 0.297172 0.672134 0.175495
Si Si5 0.331309 0.132564 0.491191
Si Si6 0.763640 0.623535 0.054744
Si Si7 0.417907 0.426889 0.276164
Si Si8 0.872520 0.513673 0.792187
O O1 0.898259 0.783785 0.832888
O O2 0.070873 0.963963 0.831569
O O3 0.068701 0.808606 0.929449
O O4 0.335261 0.576755 0.735700
O O5 0.436334 0.650823 0.558858
O O6 0.345357 0.450890 0.609195
O O7 0.518810 0.598692 0.694750
O O8 0.737496 0.390483 0.987065
O O9 0.840177 0.577138 0.071267
O O10 0.899784 0.442534 0.094710
O O11 0.907179 0.518999 0.909102
O O12 0.219432 0.596529 0.259912
O O13 0.375894 0.126239 0.600535
O O14 0.343089 0.046784 0.426580
O O15 0.401444 0.240785 0.437319
O O16 0.456100 0.427386 0.390072
#
# Coordination Sequence:
#
# PCOD8324632 Si02
#       8
#     6   6   6   6   6   6   6   6
#     4  10  21  39  66  88 112 148 201 265 302 339
#     4  10  22  34  57  87 122 158 193 228 294 367
#     4  10  20  35  56  83 119 157 194 238 291 361
#     4  10  18  37  54  77 120 163 187 224 290 364
#     4  10  20  37  59  87 111 148 200 253 289 340
#     4   9  21  35  61  89 118 148 200 249 294 347
#     4  11  23  33  58  87 115 151 192 246 290 352
#     4  10  19  34  53  78 115 149 193 233 290 344
#
# _framework density 18.709696999999998
#
# number of rings (size 3 to 8) (size 9 to 14) (size 15 to 20)
#    0.000    2.000    2.500    1.500    7.000    0.000 
#    0.000    0.000    2.750    0.000    0.000    0.000 
#    0.000    0.000    0.000    0.000    0.000    0.000 
#
# Total GULP energy -594921.404956 kJ/mol
# GULP energy per Si atom -12394.195937 kJ/mol
# Density = 1.866711 g / cm^3
# Si number density = 18.709697 Si / 1000 Ang^3
#
#
#
# Elastic Constant Matrix: (Units=GPa)
#
#
# Indices 1 2 3 4 5 6 
#
# 1 86.0069 37.9408 33.0064 0.0000 0.0000 0.0000
# 2 37.9408 86.0069 33.0064 0.0000 0.0000 0.0000
# 3 33.0064 33.0064 58.6271 0.0000 0.0000 0.0000
# 4 0.0000 0.0000 0.0000 28.1790 0.0000 0.0000
# 5 0.0000 0.0000 0.0000 0.0000 28.1790 0.0000
# 6 0.0000 0.0000 0.0000 0.0000 0.0000 24.0331
#
#
#
# Elastic Compliance Matrix: (Units=1/GPa)
#
#
# Indices 1 2 3 4 5 6 
#
# 1 0.016164 -0.004641 -0.006487 0.000000 0.000000 0.000000
# 2 -0.004641 0.016164 -0.006487 0.000000 0.000000 0.000000
# 3 -0.006487 -0.006487 0.024362 0.000000 0.000000 0.000000
# 4 0.000000 0.000000 0.000000 0.035487 0.000000 0.000000
# 5 0.000000 0.000000 0.000000 0.000000 0.035487 0.000000
# 6 0.000000 0.000000 0.000000 0.000000 0.000000 0.041609
#
#
# Mechanical properties :
#
#
# Convention : Reuss Voigt Hill
#
# Bulk Modulus (GPa) = 46.60215 48.72756 47.66485
# Shear Modulus (GPa) = 23.62312 24.52403 24.07357
#
# Velocity S-wave (km/s) = 3.55718 3.62438 3.59094
# Velocity P-wave (km/s) = 6.46788 6.60419 6.53639
#
# Compressibility (1/GPa) = 0.02145824
#
# Stress axis : x y z
#
# Youngs Moduli (GPa) = 61.86653 61.86653 41.04837
#
# Poissons Ratio (x) = 0.28711 0.26629
# Poissons Ratio (y) = 0.28711 0.26629
# Poissons Ratio (z) = 0.40135 0.40135
#
# Static dielectric constant tensor:
#      x y z
#    x 3.543270 0.000000 0.000000 
#    y 0.000000 3.543270 0.000000 
#    z 0.000000 0.000000 3.373490 
# 
# 
# High freq. dielectric constant tensor:
#      x y z
#    x 1.723150 0.000000 0.000000 
#    y 0.000000 1.723150 0.000000 
#    z 0.000000 0.000000 1.710480 
# 
# From -- ./inp_files/1278.got.cif
#   From: 2010.03.12/outbox.cif.g09.slc.cpg/sg170_cif.got.tgz:1278.got - 2010.04.02 06:47:37.
