data_PCOD8324519
_publ_section_title
;
Structure prediction by ZEFSAII (Michael W. Deem and Ramdas Pophale) SiO2 
 PCOD8324519
Probable space group: P 61
;
_chemical_formula_sum "Si O2"
_cell_formula_units_Z 36
_cell_length_a 8.755144
_cell_length_b 8.755144
_cell_length_c 27.788504
_cell_angle_alpha 90.000000
_cell_angle_beta 90.000000
_cell_angle_gamma 120.000000
_cell_volume 1844.685720
_symmetry_space_group_name_H-M "P 61"
_symmetry_group_IT_number 169
_symmetry_cell_setting 'hexagonal'
loop_
_space_group_symop_operation_xyz
x,y,z
x-y,x,1/6+z
-y,x-y,1/3+z
-x,-y,1/2+z
-x+y,-x,2/3+z
y,-x+y,5/6+z
loop_
_atom_site_type_symbol
_atom_site_label
_atom_site_fract_x
_atom_site_fract_y
_atom_site_fract_z
Si Si1 0.262901 0.125400 0.377710
Si Si2 0.408289 0.363285 0.812324
Si Si3 0.956273 0.512765 0.373246
Si Si4 0.284593 0.676582 0.159154
Si Si5 0.506681 0.196534 0.221433
Si Si6 0.014814 0.168764 0.815597
O O1 0.450771 0.149277 0.360798
O O2 0.280047 0.312545 0.385600
O O3 0.200639 0.011498 0.425950
O O4 0.120900 0.024580 0.335463
O O5 0.468867 0.352992 0.758449
O O6 0.403638 0.540902 0.819686
O O7 0.548117 0.360694 0.849369
O O8 0.212288 0.200791 0.822492
O O9 0.798214 0.338309 0.348160
O O10 0.122877 0.487661 0.377826
O O11 0.015743 0.688423 0.343001
O O12 0.198165 0.609852 0.106859
#
# Coordination Sequence:
#
# PCOD8324519 Si02
#       6
#     6   6   6   6   6   6
#     4  11  21  39  62  89 121 160 200 255 315 369
#     4   9  20  38  60  84 121 158 196 250 303 361
#     4  10  21  39  61  88 118 157 205 249 304 372
#     4   9  20  38  59  87 118 156 200 246 310 368
#     4  10  21  41  60  86 126 161 196 259 310 359
#     4  11  21  39  62  88 120 160 205 249 308 373
#
# _framework density 19.515521
#
# number of rings (size 3 to 8) (size 9 to 14) (size 15 to 20)
#    0.000    2.000    3.333    0.000    2.333    0.000 
#    3.000    1.667    0.000    0.000    0.000    0.000 
#    0.000    0.000    0.000    0.000    0.000    0.000 
#
# Total GULP energy -446430.648502 kJ/mol
# GULP energy per Si atom -12400.851347 kJ/mol
# Density = 1.947110 g / cm^3
# Si number density = 19.515521 Si / 1000 Ang^3
#
#
#
# Elastic Constant Matrix: (Units=GPa)
#
#
# Indices 1 2 3 4 5 6 
#
# 1 83.5729 25.2067 38.5359 0.0000 0.0000 0.0000
# 2 25.2067 83.5729 38.5359 0.0000 0.0000 0.0000
# 3 38.5359 38.5359 131.4785 0.0000 0.0000 0.0000
# 4 0.0000 0.0000 0.0000 32.1041 0.0000 0.0000
# 5 0.0000 0.0000 0.0000 0.0000 32.1041 0.0000
# 6 0.0000 0.0000 0.0000 0.0000 0.0000 29.1831
#
#
#
# Elastic Compliance Matrix: (Units=1/GPa)
#
#
# Indices 1 2 3 4 5 6 
#
# 1 0.014368 -0.002765 -0.003401 0.000000 0.000000 0.000000
# 2 -0.002765 0.014368 -0.003401 0.000000 0.000000 0.000000
# 3 -0.003401 -0.003401 0.009599 0.000000 0.000000 0.000000
# 4 0.000000 0.000000 0.000000 0.031149 0.000000 0.000000
# 5 0.000000 0.000000 0.000000 0.000000 0.031149 0.000000
# 6 0.000000 0.000000 0.000000 0.000000 0.000000 0.034266
#
#
# Mechanical properties :
#
#
# Convention : Reuss Voigt Hill
#
# Bulk Modulus (GPa) = 52.07955 55.90902 53.99429
# Shear Modulus (GPa) = 31.16585 31.76800 31.46693
#
# Velocity S-wave (km/s) = 4.00056 4.03902 4.01983
# Velocity P-wave (km/s) = 6.93422 7.10368 7.01946
#
# Compressibility (1/GPa) = 0.01920139
#
# Stress axis : x y z
#
# Youngs Moduli (GPa) = 69.60048 69.60048 104.17530
#
# Poissons Ratio (x) = 0.19248 0.35426
# Poissons Ratio (y) = 0.19248 0.35426
# Poissons Ratio (z) = 0.23668 0.23668
#
# Static dielectric constant tensor:
#      x y z
#    x 3.506410 0.000000 0.000000 
#    y 0.000000 3.506410 0.000000 
#    z 0.000000 0.000000 3.926460 
# 
# 
# High freq. dielectric constant tensor:
#      x y z
#    x 1.747860 0.000000 0.000000 
#    y 0.000000 1.747860 0.000000 
#    z 0.000000 0.000000 1.779180 
# 
# From -- ./inp_files/1723.got.cif
#   From: 2010.03.12/outbox.cif.g09.slc.cpg/sg169_cif.got.tgz:1723.got - 2010.04.02 06:46:06.
