data_PCOD8324185
_publ_section_title
;
Structure prediction by ZEFSAII (Michael W. Deem and Ramdas Pophale) SiO2 
 PCOD8324185
Probable space group: R -3 M
;
_chemical_formula_sum "Si O2"
_cell_formula_units_Z 162
_cell_length_a 20.784346
_cell_length_b 20.784346
_cell_length_c 22.689641
_cell_angle_alpha 90.000000
_cell_angle_beta 90.000000
_cell_angle_gamma 120.000000
_cell_volume 8488.500591
_symmetry_space_group_name_H-M "R -3 M"
_symmetry_group_IT_number 166
_symmetry_cell_setting 'hexagonal'
loop_
_space_group_symop_operation_xyz
x,y,z
-y,x-y,z
-x+y,-x,z
x-y,-y,-z
-x,-x+y,-z
y,x,-z
-x,-y,-z
y,-x+y,-z
x-y,x,-z
-x+y,y,z
x,x-y,z
-y,-x,z
2/3+x,1/3+y,1/3+z
2/3-y,1/3+x-y,1/3+z
2/3-x+y,1/3-x,1/3+z
2/3+x-y,1/3-y,1/3-z
2/3-x,1/3-x+y,1/3-z
2/3+y,1/3+x,1/3-z
2/3-x,1/3-y,1/3-z
2/3+y,1/3-x+y,1/3-z
2/3+x-y,1/3+x,1/3-z
2/3-x+y,1/3+y,1/3+z
2/3+x,1/3+x-y,1/3+z
2/3-y,1/3-x,1/3+z
1/3+x,2/3+y,2/3+z
1/3-y,2/3+x-y,2/3+z
1/3-x+y,2/3-x,2/3+z
1/3+x-y,2/3-y,2/3-z
1/3-x,2/3-x+y,2/3-z
1/3+y,2/3+x,2/3-z
1/3-x,2/3-y,2/3-z
1/3+y,2/3-x+y,2/3-z
1/3+x-y,2/3+x,2/3-z
1/3-x+y,2/3+y,2/3+z
1/3+x,2/3+x-y,2/3+z
1/3-y,2/3-x,2/3+z
loop_
_atom_site_type_symbol
_atom_site_label
_atom_site_fract_x
_atom_site_fract_y
_atom_site_fract_z
Si Si1 0.516188 0.182214 0.669995
Si Si2 0.585654 0.666075 0.767478
Si Si3 0.720647 0.131831 0.888232
Si Si4 0.333334 0.817135 0.666667
Si Si5 0.586650 0.869062 0.894417
O O1 0.601465 0.202930 0.671241
O O2 0.512496 0.256248 0.675339
O O3 0.471135 0.129643 0.724154
O O4 0.477492 0.141272 0.609498
O O5 0.579546 0.586576 0.758854
O O6 0.529680 0.673329 0.724650
O O7 0.562030 0.672493 0.833682
O O8 0.668195 0.730360 0.751334
O O9 0.787490 0.212511 0.870286
O O10 0.666667 0.095533 0.833334
O O11 0.403691 0.807382 0.672765
O O12 0.595205 0.797603 0.885108
#
# Coordination Sequence:
#
# PCOD8324185 Si02
#       5
#    36  36  36  18  36
#     4  10  22  39  60  86 119 160 203 246 294 351
#     4  11  21  40  61  88 117 156 192 242 301 354
#     4  11  22  39  60  88 121 155 197 245 298 355
#     4  12  25  40  60  86 119 158 200 242 288 346
#     4  10  20  38  62  89 120 153 196 241 296 361
#
# _framework density 19.084643
#
# number of rings (size 3 to 8) (size 9 to 14) (size 15 to 20)
#    0.000    1.333    2.222    5.667    0.000    3.556 
#    0.000    1.111    0.000    6.222    0.000    0.000 
#    0.000    0.000    0.000    0.000    0.000    0.000 
#
# Total GULP energy -669903.751168 kJ/mol
# GULP energy per Si atom -12405.625022 kJ/mol
# Density = 1.904121 g / cm^3
# Si number density = 19.084643 Si / 1000 Ang^3
#
#
#
# Elastic Constant Matrix: (Units=GPa)
#
#
# Indices 1 2 3 4 5 6 
#
# 1 -235.0481 275.7182 30.6881 -152.5918 0.0074 0.0000
# 2 275.7182 -235.0481 30.6881 152.5918 -0.0074 0.0000
# 3 30.6881 30.6881 92.8678 0.0000 0.0000 0.0000
# 4 -152.5918 152.5918 0.0000 -53.3747 0.0000 -0.0074
# 5 0.0074 -0.0074 0.0000 0.0000 -53.3747 -152.5918
# 6 0.0000 0.0000 0.0000 -0.0074 -152.5918 -255.3831
#
#
#
# Elastic Compliance Matrix: (Units=1/GPa)
#
#
# Indices 1 2 3 4 5 6 
#
# 1 0.025906 0.023141 -0.016208 -0.007904 0.000000 0.000000
# 2 0.023141 0.025906 -0.016208 0.007904 0.000000 0.000000
# 3 -0.016208 -0.016208 0.021480 0.000000 0.000000 0.000000
# 4 -0.007904 0.007904 0.000000 0.026456 0.000000 -0.000001
# 5 0.000000 0.000000 0.000000 0.000000 0.026456 -0.015807
# 6 0.000000 0.000000 0.000000 -0.000001 -0.015807 0.005529
#
#
# Mechanical properties :
#
#
# Convention : Reuss Voigt Hill
#
# Bulk Modulus (GPa) = 18.26695 32.99562 25.63129
# Shear Modulus (GPa) = 29.66868 -120.04803 -45.18967
#
# Velocity S-wave (km/s) = 3.94710 -7.93974 -4.87134
# Velocity P-wave (km/s) = 5.51045 8.16860 4.26386
#
# Compressibility (1/GPa) = 0.05474368
#
# Stress axis : x y z
#
# Youngs Moduli (GPa) = 38.60112 38.60112 46.55576
#
# Poissons Ratio (x) = -0.89328 0.75456
# Poissons Ratio (y) = -0.89328 0.75456
# Poissons Ratio (z) = 0.62563 0.62563
#
# Static dielectric constant tensor:
#      x y z
#    x 3.506230 0.000000 0.000000 
#    y 0.000000 3.506230 0.000000 
#    z 0.000000 0.000000 3.606630 
# 
# 
# High freq. dielectric constant tensor:
#      x y z
#    x 1.747900 0.000000 0.000000 
#    y 0.000000 1.747900 0.000000 
#    z 0.000000 0.000000 1.755530 
# 
# From -- ./inp_files/6735.got.cif
#   From: 2010.03.12/outbox.cif.g09.slc.cpg/sg166_4_cif.got.tgz:6735.got - 2010.04.02 06:38:31.
