data_PCOD8324875
_publ_section_title
;
Structure prediction by ZEFSAII (Michael W. Deem and Ramdas Pophale) SiO2 
 PCOD8324875
Probable space group: P 63
;
_chemical_formula_sum "Si O2"
_cell_formula_units_Z 34
_cell_length_a 14.828437
_cell_length_b 14.828437
_cell_length_c 7.451465
_cell_angle_alpha 90.000000
_cell_angle_beta 90.000000
_cell_angle_gamma 120.000000
_cell_volume 1418.936794
_symmetry_space_group_name_H-M "P 63"
_symmetry_group_IT_number 173
_symmetry_cell_setting 'hexagonal'
loop_
_space_group_symop_operation_xyz
x,y,z
x-y,x,1/2+z
-y,x-y,z
-x,-y,1/2+z
-x+y,-x,z
y,-x+y,1/2+z
loop_
_atom_site_type_symbol
_atom_site_label
_atom_site_fract_x
_atom_site_fract_y
_atom_site_fract_z
Si Si1 0.769041 0.202699 0.737450
Si Si2 0.333334 0.666668 0.810397
Si Si3 0.732791 0.992303 0.819629
Si Si4 0.893221 0.017029 0.524870
Si Si5 0.732793 0.992303 0.230108
Si Si6 0.666667 0.333334 0.739339
Si Si7 0.797302 0.566342 0.312290
O O1 0.704981 0.084378 0.810430
O O2 0.718266 0.267886 0.816641
O O3 0.764119 0.203690 0.524870
O O4 0.887941 0.252879 0.808935
O O5 0.281741 0.732121 0.733096
O O6 0.333334 0.666667 0.024868
O O7 0.837523 0.029206 0.701802
O O8 0.635059 0.887940 0.740805
O O9 0.751189 0.969971 0.024868
O O10 0.891104 0.906705 0.524871
O O11 0.837527 0.029206 0.347933
O O12 0.704982 0.084377 0.239310
#
# Coordination Sequence:
#
# PCOD8324875 Si02
#       7
#     6   2   6   6   6   2   6
#     4  10  23  43  71 100 140 180 238 284 356 411
#     4   9  21  48  76 101 127 181 239 313 349 404
#     4  11  25  41  69 103 142 187 227 284 340 422
#     4  10  26  46  68 100 148 192 230 266 334 420
#     4  11  25  41  69 103 142 187 227 284 340 422
#     4   9  21  48  76 101 127 181 239 313 349 404
#     4  10  23  43  71 100 140 180 238 284 356 411
#
# _framework density 23.961603
#
# number of rings (size 3 to 8) (size 9 to 14) (size 15 to 20)
#    0.353    1.412    1.765    0.000    7.412    2.824 
#    0.000    3.529    0.000    0.000    0.000    0.000 
#    0.000    0.000    0.000    0.000    0.000    0.000 
#
# Total GULP energy -421507.111800 kJ/mol
# GULP energy per Si atom -12397.267994 kJ/mol
# Density = 2.390707 g / cm^3
# Si number density = 23.961603 Si / 1000 Ang^3
#
#
#
# Elastic Constant Matrix: (Units=GPa)
#
#
# Indices 1 2 3 4 5 6 
#
# 1 133.6612 77.8629 16.9241 0.0000 0.0000 -0.0002
# 2 77.8629 133.6597 16.9242 0.0000 0.0000 -0.0005
# 3 16.9241 16.9242 94.6313 0.0000 0.0000 0.0000
# 4 0.0000 0.0000 0.0000 21.2792 -0.0001 0.0000
# 5 0.0000 0.0000 0.0000 -0.0001 21.2790 0.0000
# 6 -0.0002 -0.0005 0.0000 0.0000 0.0000 27.8988
#
#
#
# Elastic Compliance Matrix: (Units=1/GPa)
#
#
# Indices 1 2 3 4 5 6 
#
# 1 0.011394 -0.006528 -0.000870 0.000000 0.000000 0.000000
# 2 -0.006528 0.011394 -0.000870 0.000000 0.000000 0.000000
# 3 -0.000870 -0.000870 0.010879 0.000000 0.000000 0.000000
# 4 0.000000 0.000000 0.000000 0.046994 0.000000 0.000000
# 5 0.000000 0.000000 0.000000 0.000000 0.046995 0.000000
# 6 0.000000 0.000000 0.000000 0.000000 0.000000 0.035844
#
#
# Mechanical properties :
#
#
# Convention : Reuss Voigt Hill
#
# Bulk Modulus (GPa) = 58.37432 65.04159 61.70795
# Shear Modulus (GPa) = 26.91828 30.77412 28.84620
#
# Velocity S-wave (km/s) = 3.35534 3.58761 3.47342
# Velocity P-wave (km/s) = 6.27898 6.66065 6.47263
#
# Compressibility (1/GPa) = 0.01713082
#
# Stress axis : x y z
#
# Youngs Moduli (GPa) = 87.76280 87.76181 91.92303
#
# Poissons Ratio (x) = 0.57287 0.08001
# Poissons Ratio (y) = 0.57287 0.08001
# Poissons Ratio (z) = 0.07639 0.07639
#
# Static dielectric constant tensor:
#      x y z
#    x 4.547950 0.000000 0.000000 
#    y 0.000000 4.547950 0.000000 
#    z 0.000000 0.000000 4.153200 
# 
# 
# High freq. dielectric constant tensor:
#      x y z
#    x 1.944800 0.000000 0.000000 
#    y 0.000000 1.944800 0.000000 
#    z 0.000000 0.000000 1.948600 
# 
# From -- ./inp_files/867.got.cif
#   From: 2010.03.12/outbox.cif.g09.slc.cpg/sg173_cif.got.tgz:867.got - 2010.04.02 06:54:12.
