data_PCOD8324675
_publ_section_title
;
Structure prediction by ZEFSAII (Michael W. Deem and Ramdas Pophale) SiO2 
 PCOD8324675
Probable space group: P 65
;
_chemical_formula_sum "Si O2"
_cell_formula_units_Z 48
_cell_length_a 17.687861
_cell_length_b 17.687861
_cell_length_c 8.317984
_cell_angle_alpha 90.000000
_cell_angle_beta 90.000000
_cell_angle_gamma 120.000000
_cell_volume 2253.716819
_symmetry_space_group_name_H-M "P 65"
_symmetry_group_IT_number 170
_symmetry_cell_setting 'hexagonal'
loop_
_space_group_symop_operation_xyz
x,y,z
x-y,x,5/6+z
-y,x-y,2/3+z
-x,-y,1/2+z
-x+y,-x,1/3+z
y,-x+y,1/6+z
loop_
_atom_site_type_symbol
_atom_site_label
_atom_site_fract_x
_atom_site_fract_y
_atom_site_fract_z
Si Si1 0.819524 0.562234 0.095920
Si Si2 0.835832 0.969870 0.512773
Si Si3 0.619706 0.272456 0.824787
Si Si4 0.598696 0.085002 0.900738
Si Si5 0.570904 0.581263 0.400877
Si Si6 0.724165 0.072233 0.135670
Si Si7 0.266620 0.337365 0.713677
Si Si8 0.114475 0.939719 0.507217
O O1 0.729141 0.472852 0.098691
O O2 0.895499 0.546641 0.162574
O O3 0.805163 0.633103 0.193905
O O4 0.844462 0.600317 0.917660
O O5 0.860637 0.921562 0.378435
O O6 0.762398 0.986313 0.437139
O O7 0.799356 0.914512 0.675738
O O8 0.682287 0.325718 0.670798
O O9 0.613695 0.178928 0.844658
O O10 0.582011 0.020126 0.755761
O O11 0.683917 0.096159 0.986543
O O12 0.517552 0.027700 0.014673
O O13 0.668265 0.604332 0.354338
O O14 0.804698 0.064492 0.075471
O O15 0.655967 0.979815 0.222074
O O16 0.038550 0.900325 0.639896
#
# Coordination Sequence:
#
# PCOD8324675 Si02
#       8
#     6   6   6   6   6   6   6   6
#     4  11  23  45  69 104 142 188 242 303 368 453
#     4  10  22  41  63  93 138 185 239 295 366 430
#     4  12  26  48  76 112 153 196 252 314 386 459
#     4  12  26  47  71 111 140 196 242 305 382 447
#     4  11  24  45  73  99 146 182 239 299 366 453
#     4  11  25  43  72 101 143 187 249 304 366 447
#     4  11  23  43  70 100 135 188 237 300 365 438
#     4  10  23  44  64 102 141 188 242 304 365 439
#
# _framework density 21.29815
#
# number of rings (size 3 to 8) (size 9 to 14) (size 15 to 20)
#    0.000    1.000    2.500    4.500    5.250    0.000 
#   13.500    0.000    0.000    0.000    0.000    0.000 
#    0.000    0.000    0.000    0.000    0.000    0.000 
#
# Total GULP energy -595053.885697 kJ/mol
# GULP energy per Si atom -12396.955952 kJ/mol
# Density = 2.124967 g / cm^3
# Si number density = 21.298150 Si / 1000 Ang^3
#
#
#
# Elastic Constant Matrix: (Units=GPa)
#
#
# Indices 1 2 3 4 5 6 
#
# 1 102.1945 13.9027 57.3300 0.0000 0.0000 0.0000
# 2 13.9027 102.1945 57.3300 0.0000 0.0000 0.0000
# 3 57.3300 57.3300 124.6755 0.0000 0.0000 0.0000
# 4 0.0000 0.0000 0.0000 -2.8673 0.0000 0.0000
# 5 0.0000 0.0000 0.0000 0.0000 -2.8673 0.0000
# 6 0.0000 0.0000 0.0000 0.0000 0.0000 44.1459
#
#
#
# Elastic Compliance Matrix: (Units=1/GPa)
#
#
# Indices 1 2 3 4 5 6 
#
# 1 0.013553 0.002227 -0.007256 0.000000 0.000000 0.000000
# 2 0.002227 0.013553 -0.007256 0.000000 0.000000 0.000000
# 3 -0.007256 -0.007256 0.014694 0.000000 0.000000 0.000000
# 4 0.000000 0.000000 0.000000 -0.348762 0.000000 0.000000
# 5 0.000000 0.000000 0.000000 0.000000 -0.348762 0.000000
# 6 0.000000 0.000000 0.000000 0.000000 0.000000 0.022652
#
#
# Mechanical properties :
#
#
# Convention : Reuss Voigt Hill
#
# Bulk Modulus (GPa) = 58.04099 65.13220 61.58659
# Shear Modulus (GPa) = -8.29519 21.04905 6.37693
#
# Velocity S-wave (km/s) = -1.97566 3.14714 1.73223
# Velocity P-wave (km/s) = 4.70175 6.62220 5.74282
#
# Compressibility (1/GPa) = 0.01722920
#
# Stress axis : x y z
#
# Youngs Moduli (GPa) = 73.78504 73.78504 68.05516
#
# Poissons Ratio (x) = -0.16430 0.49381
# Poissons Ratio (y) = -0.16430 0.49381
# Poissons Ratio (z) = 0.53539 0.53539
#
# Static dielectric constant tensor:
#      x y z
#    x 4.662910 0.000000 0.000000 
#    y 0.000000 4.662910 0.000000 
#    z 0.000000 0.000000 4.161590 
# 
# 
# High freq. dielectric constant tensor:
#      x y z
#    x 1.843680 0.000000 0.000000 
#    y 0.000000 1.843680 0.000000 
#    z 0.000000 0.000000 1.844140 
# 
# From -- ./inp_files/773.got.cif
#   From: 2010.03.12/outbox.cif.g09.slc.cpg/sg170_cif.got.tgz:773.got - 2010.04.02 06:47:37.
