data_PCOD8324647
_publ_section_title
;
Structure prediction by ZEFSAII (Michael W. Deem and Ramdas Pophale) SiO2 
 PCOD8324647
Probable space group: P 65
;
_chemical_formula_sum "Si O2"
_cell_formula_units_Z 48
_cell_length_a 12.744913
_cell_length_b 12.744913
_cell_length_c 18.877205
_cell_angle_alpha 90.000000
_cell_angle_beta 90.000000
_cell_angle_gamma 120.000000
_cell_volume 2655.474127
_symmetry_space_group_name_H-M "P 65"
_symmetry_group_IT_number 170
_symmetry_cell_setting 'hexagonal'
loop_
_space_group_symop_operation_xyz
x,y,z
x-y,x,5/6+z
-y,x-y,2/3+z
-x,-y,1/2+z
-x+y,-x,1/3+z
y,-x+y,1/6+z
loop_
_atom_site_type_symbol
_atom_site_label
_atom_site_fract_x
_atom_site_fract_y
_atom_site_fract_z
Si Si1 0.153359 0.621223 0.929260
Si Si2 0.939876 0.578611 0.708723
Si Si3 0.561080 0.754378 0.513852
Si Si4 0.193298 0.754377 0.651764
Si Si5 0.588828 0.468719 0.254434
Si Si6 0.411173 0.879891 0.744515
Si Si7 0.846641 0.467865 0.069688
Si Si8 0.638736 0.578612 0.456893
O O1 0.211189 0.561738 0.880254
O O2 0.234344 0.765656 0.916140
O O3 0.017547 0.579798 0.906658
O O4 0.157215 0.577202 0.008742
O O5 0.862967 0.618704 0.759464
O O6 0.863009 0.503164 0.639597
O O7 0.976828 0.488414 0.749474
O O8 0.055163 0.701777 0.678268
O O9 0.524804 0.797532 0.443466
O O10 0.646615 0.701777 0.487348
O O11 0.618705 0.862967 0.572818
O O12 0.272728 0.797532 0.722149
O O13 0.211189 0.649450 0.618695
O O14 0.562252 0.579799 0.258957
O O15 0.422799 0.842785 0.823540
O O16 0.503165 0.863009 0.692685
#
# Coordination Sequence:
#
# PCOD8324647 Si02
#       8
#     6   6   6   6   6   6   6   6
#     4  10  20  32  51  74 106 142 170 215 260 313
#     4   9  19  34  49  77 108 144 174 214 261 317
#     4  10  20  32  51  74 109 140 174 214 262 316
#     4  10  20  32  51  74 109 140 174 214 262 316
#     4   9  20  33  46  75 109 133 181 203 257 324
#     4   9  20  33  46  75 109 133 181 203 257 324
#     4  10  20  32  51  74 106 142 170 215 260 313
#     4   9  19  34  49  77 108 144 174 214 261 317
#
# _framework density 18.075869000000001
#
# number of rings (size 3 to 8) (size 9 to 14) (size 15 to 20)
#    0.000    2.500    0.000    2.250   10.500    3.000 
#    0.000    0.000    0.000    0.000    0.000    0.000 
#   60.000    0.000    0.000    0.000    0.000    0.000 
#
# Total GULP energy -594778.947161 kJ/mol
# GULP energy per Si atom -12391.228066 kJ/mol
# Density = 1.803473 g / cm^3
# Si number density = 18.075869 Si / 1000 Ang^3
#
#
#
# Elastic Constant Matrix: (Units=GPa)
#
#
# Indices 1 2 3 4 5 6 
#
# 1 75.0444 34.9375 24.1567 0.0000 0.0000 0.0000
# 2 34.9375 75.0444 24.1567 0.0000 0.0000 0.0000
# 3 24.1567 24.1567 78.0719 0.0000 0.0000 0.0000
# 4 0.0000 0.0000 0.0000 23.9443 0.0000 0.0000
# 5 0.0000 0.0000 0.0000 0.0000 23.9443 0.0000
# 6 0.0000 0.0000 0.0000 0.0000 0.0000 20.0535
#
#
#
# Elastic Compliance Matrix: (Units=1/GPa)
#
#
# Indices 1 2 3 4 5 6 
#
# 1 0.017728 -0.007205 -0.003256 0.000000 0.000000 0.000000
# 2 -0.007205 0.017728 -0.003256 0.000000 0.000000 0.000000
# 3 -0.003256 -0.003256 0.014824 0.000000 0.000000 0.000000
# 4 0.000000 0.000000 0.000000 0.041764 0.000000 0.000000
# 5 0.000000 0.000000 0.000000 0.000000 0.041764 0.000000
# 6 0.000000 0.000000 0.000000 0.000000 0.000000 0.049867
#
#
# Mechanical properties :
#
#
# Convention : Reuss Voigt Hill
#
# Bulk Modulus (GPa) = 43.77256 43.85138 43.81197
# Shear Modulus (GPa) = 22.86001 23.24909 23.05455
#
# Velocity S-wave (km/s) = 3.56008 3.59025 3.57519
# Velocity P-wave (km/s) = 6.41619 6.44195 6.42908
#
# Compressibility (1/GPa) = 0.02284536
#
# Stress axis : x y z
#
# Youngs Moduli (GPa) = 56.40797 56.40797 67.46025
#
# Poissons Ratio (x) = 0.40644 0.21964
# Poissons Ratio (y) = 0.40644 0.21964
# Poissons Ratio (z) = 0.18366 0.18366
#
# Static dielectric constant tensor:
#      x y z
#    x 3.183400 0.000000 0.000000 
#    y 0.000000 3.183400 0.000000 
#    z 0.000000 0.000000 3.735320 
# 
# 
# High freq. dielectric constant tensor:
#      x y z
#    x 1.669640 0.000000 0.000000 
#    y 0.000000 1.669640 0.000000 
#    z 0.000000 0.000000 1.731430 
# 
# From -- ./inp_files/1585.got.cif
#   From: 2010.03.12/outbox.cif.g09.slc.cpg/sg170_cif.got.tgz:1585.got - 2010.04.02 06:47:37.
