data_PCOD8324877
_publ_section_title
;
Structure prediction by ZEFSAII (Michael W. Deem and Ramdas Pophale) SiO2 
 PCOD8324877
Probable space group: P 63
;
_chemical_formula_sum "Si O2"
_cell_formula_units_Z 30
_cell_length_a 8.246529
_cell_length_b 8.246529
_cell_length_c 23.946031
_cell_angle_alpha 90.000000
_cell_angle_beta 90.000000
_cell_angle_gamma 120.000000
_cell_volume 1410.283917
_symmetry_space_group_name_H-M "P 63"
_symmetry_group_IT_number 173
_symmetry_cell_setting 'hexagonal'
loop_
_space_group_symop_operation_xyz
x,y,z
x-y,x,1/2+z
-y,x-y,z
-x,-y,1/2+z
-x+y,-x,z
y,-x+y,1/2+z
loop_
_atom_site_type_symbol
_atom_site_label
_atom_site_fract_x
_atom_site_fract_y
_atom_site_fract_z
Si Si1 0.332439 0.333678 0.208020
Si Si2 0.001241 0.333678 0.256059
Si Si3 0.327097 0.872935 0.376560
Si Si4 0.327105 0.454165 0.087520
Si Si5 0.791033 0.791034 0.482041
O O1 0.457767 0.542231 0.232041
O O2 0.415133 0.207566 0.232040
O O3 0.327912 0.337682 0.141087
O O4 0.124502 0.249005 0.232038
O O5 0.009780 0.337678 0.322993
O O6 0.146442 0.660827 0.377109
O O7 0.322446 0.992269 0.428705
O O8 0.514388 0.660834 0.086972
O O9 0.322456 0.330184 0.035374
O O10 0.815921 0.000001 0.482041
#
# Coordination Sequence:
#
# PCOD8324877 Si02
#       5
#     6   6   6   6   6
#     4  12  24  44  69 103 137 180 233 293 357 429
#     4  12  24  44  69 103 137 180 233 293 357 429
#     4  10  23  44  70  90 135 183 223 279 355 418
#     4  10  23  44  70  90 135 183 223 279 355 418
#     4  10  26  40  66 100 134 170 240 290 340 412
#
# _framework density 21.272314999999999
#
# number of rings (size 3 to 8) (size 9 to 14) (size 15 to 20)
#    1.200    0.000    4.000    1.200    8.400    0.000 
#    0.000    0.000    0.000    0.000    0.000    0.000 
#    0.000    0.000    0.000    0.000    0.000    0.000 
#
# Total GULP energy -371871.133257 kJ/mol
# GULP energy per Si atom -12395.704442 kJ/mol
# Density = 2.122390 g / cm^3
# Si number density = 21.272315 Si / 1000 Ang^3
#
#
#
# Elastic Constant Matrix: (Units=GPa)
#
#
# Indices 1 2 3 4 5 6 
#
# 1 77.4853 31.8504 60.1854 0.0000 0.0000 0.0000
# 2 31.8504 77.4853 60.1854 0.0000 0.0000 0.0000
# 3 60.1854 60.1854 237.6327 0.0000 0.0000 0.0000
# 4 0.0000 0.0000 0.0000 37.8968 0.0000 0.0000
# 5 0.0000 0.0000 0.0000 0.0000 37.8968 0.0000
# 6 0.0000 0.0000 0.0000 0.0000 0.0000 22.8175
#
#
#
# Elastic Compliance Matrix: (Units=1/GPa)
#
#
# Indices 1 2 3 4 5 6 
#
# 1 0.017298 -0.004615 -0.003212 0.000000 0.000000 0.000000
# 2 -0.004615 0.017298 -0.003212 0.000000 0.000000 0.000000
# 3 -0.003212 -0.003212 0.005835 0.000000 0.000000 0.000000
# 4 0.000000 0.000000 0.000000 0.026387 0.000000 0.000000
# 5 0.000000 0.000000 0.000000 0.000000 0.026387 0.000000
# 6 0.000000 0.000000 0.000000 0.000000 0.000000 0.043826
#
#
# Mechanical properties :
#
#
# Convention : Reuss Voigt Hill
#
# Bulk Modulus (GPa) = 54.49075 77.44948 65.97012
# Shear Modulus (GPa) = 30.26122 35.74767 33.00445
#
# Velocity S-wave (km/s) = 3.77578 4.10381 3.94321
# Velocity P-wave (km/s) = 6.68432 7.67741 7.19801
#
# Compressibility (1/GPa) = 0.01835174
#
# Stress axis : x y z
#
# Youngs Moduli (GPa) = 57.81103 57.81103 171.37289
#
# Poissons Ratio (x) = 0.26682 0.55046
# Poissons Ratio (y) = 0.26682 0.55046
# Poissons Ratio (z) = 0.18569 0.18569
#
# Static dielectric constant tensor:
#      x y z
#    x 3.500290 0.000000 0.000000 
#    y 0.000000 3.500290 0.000000 
#    z 0.000000 0.000000 3.704550 
# 
# 
# High freq. dielectric constant tensor:
#      x y z
#    x 1.818560 0.000000 0.000000 
#    y 0.000000 1.818560 0.000000 
#    z 0.000000 0.000000 1.842910 
# 
# From -- ./inp_files/1425.got.cif
#   From: 2010.03.12/outbox.cif.g09.slc.cpg/sg173_cif.got.tgz:1425.got - 2010.04.02 06:54:12.
