data_PCOD8324305
_publ_section_title
;
Structure prediction by ZEFSAII (Michael W. Deem and Ramdas Pophale) SiO2 
 PCOD8324305
Probable space group: R -3 C 
;
_chemical_formula_sum "Si O2"
_cell_formula_units_Z 270
_cell_length_a 24.744796
_cell_length_b 24.744796
_cell_length_c 26.853554
_cell_angle_alpha 90.000000
_cell_angle_beta 90.000000
_cell_angle_gamma 120.000000
_cell_volume 14239.677675
_symmetry_space_group_name_H-M "R -3 C "
_symmetry_group_IT_number 167
_symmetry_cell_setting 'hexagonal'
loop_
_space_group_symop_operation_xyz
x,y,z
-y,x-y,z
-x+y,-x,z
x-y,-y,1/2-z
-x,-x+y,1/2-z
y,x,1/2-z
-x,-y,-z
y,-x+y,-z
x-y,x,-z
-x+y,y,1/2+z
x,x-y,1/2+z
-y,-x,1/2+z
2/3+x,1/3+y,1/3+z
2/3-y,1/3+x-y,1/3+z
2/3-x+y,1/3-x,1/3+z
2/3+x-y,1/3-y,5/6-z
2/3-x,1/3-x+y,5/6-z
2/3+y,1/3+x,5/6-z
2/3-x,1/3-y,1/3-z
2/3+y,1/3-x+y,1/3-z
2/3+x-y,1/3+x,1/3-z
2/3-x+y,1/3+y,5/6+z
2/3+x,1/3+x-y,5/6+z
2/3-y,1/3-x,5/6+z
1/3+x,2/3+y,2/3+z
1/3-y,2/3+x-y,2/3+z
1/3-x+y,2/3-x,2/3+z
1/3+x-y,2/3-y,1/6-z
1/3-x,2/3-x+y,1/6-z
1/3+y,2/3+x,1/6-z
1/3-x,2/3-y,2/3-z
1/3+y,2/3-x+y,2/3-z
1/3+x-y,2/3+x,2/3-z
1/3-x+y,2/3+y,1/6+z
1/3+x,2/3+x-y,1/6+z
1/3-y,2/3-x,1/6+z
loop_
_atom_site_type_symbol
_atom_site_label
_atom_site_fract_x
_atom_site_fract_y
_atom_site_fract_z
Si Si1 0.020083 0.623708 0.057849
Si Si2 0.000000 0.184623 0.750000
Si Si3 0.416190 0.268899 0.300641
Si Si4 0.255372 0.208548 0.646941
Si Si5 0.212413 0.276761 0.163259
Si Si6 0.070471 0.256466 0.983144
Si Si7 0.199238 0.069251 0.237455
Si Si8 0.240174 0.847834 0.000208
O O1 0.051243 0.595440 0.094096
O O2 0.964805 0.631472 0.083334
O O3 0.078726 0.691997 0.048879
O O4 0.989941 0.587229 0.005841
O O5 0.015221 0.230579 0.703702
O O6 0.057069 0.173021 0.759469
O O7 0.408098 0.262995 0.241505
O O8 0.346008 0.241567 0.316859
O O9 0.442616 0.222907 0.316731
O O10 0.460423 0.337011 0.325017
O O11 0.222038 0.147595 0.681085
O O12 0.210343 0.237385 0.640647
O O13 0.141390 0.253341 0.145063
O O14 0.105228 0.320403 0.014426
O O15 0.258705 0.087120 0.273818
O O16 0.143304 0.000000 0.250000
#
# Coordination Sequence:
#
# PCOD8324305 Si02
#       8
#    36  18  36  36  36  36  36  36
#     4  12  20  36  59  84 126 159 192 241 305 354
#     4  10  20  34  54  86 120 150 194 252 296 356
#     4  11  25  39  60  86 120 154 209 239 299 355
#     4  11  20  35  60  85 110 161 197 243 286 368
#     4  10  21  34  52  85 116 152 187 239 288 365
#     4  11  23  41  57  87 119 160 197 252 297 358
#     4   9  18  35  55  81 117 157 194 241 312 357
#     4   9  18  36  55  80 118 151 191 237 304 353
#
# _framework density 18.961103000000001
#
# number of rings (size 3 to 8) (size 9 to 14) (size 15 to 20)
#    0.000    1.600    4.000    1.200    1.867    3.200 
#    0.400    0.000    0.000    0.267    0.000    0.000 
#    0.000    0.000    0.000    0.000    0.000    0.000 
#
# Total GULP energy -1115181.859992 kJ/mol
# GULP energy per Si atom -12390.909555 kJ/mol
# Density = 1.891795 g / cm^3
# Si number density = 18.961103 Si / 1000 Ang^3
#
#
#
# Elastic Constant Matrix: (Units=GPa)
#
#
# Indices 1 2 3 4 5 6 
#
# 1 100.9581 52.1806 22.0343 -3.4765 -0.0001 0.0000
# 2 52.1806 100.9581 22.0343 3.4765 0.0001 0.0000
# 3 22.0343 22.0343 44.9220 0.0000 0.0000 0.0000
# 4 -3.4765 3.4765 0.0000 18.8721 0.0000 0.0001
# 5 -0.0001 0.0001 0.0000 0.0000 18.8721 -3.4765
# 6 0.0000 0.0000 0.0000 0.0001 -3.4765 24.3887
#
#
#
# Elastic Compliance Matrix: (Units=1/GPa)
#
#
# Indices 1 2 3 4 5 6 
#
# 1 0.014329 -0.006725 -0.003729 0.003879 0.000000 0.000000
# 2 -0.006725 0.014329 -0.003729 -0.003879 0.000000 0.000000
# 3 -0.003729 -0.003729 0.025919 0.000000 0.000000 0.000000
# 4 0.003879 -0.003879 0.000000 0.054417 0.000000 0.000000
# 5 0.000000 0.000000 0.000000 0.000000 0.054417 0.007757
# 6 0.000000 0.000000 0.000000 0.000000 0.007757 0.042108
#
#
# Mechanical properties :
#
#
# Convention : Reuss Voigt Hill
#
# Bulk Modulus (GPa) = 38.15597 48.81518 43.48558
# Shear Modulus (GPa) = 20.60801 22.46585 21.53693
#
# Velocity S-wave (km/s) = 3.30033 3.44588 3.37389
# Velocity P-wave (km/s) = 5.88981 6.45236 6.17749
#
# Compressibility (1/GPa) = 0.02620822
#
# Stress axis : x y z
#
# Youngs Moduli (GPa) = 69.79009 69.79009 38.58123
#
# Poissons Ratio (x) = 0.46937 0.14388
# Poissons Ratio (y) = 0.46937 0.14388
# Poissons Ratio (z) = 0.26028 0.26028
#
# Static dielectric constant tensor:
#      x y z
#    x 3.648050 0.000000 0.000000 
#    y 0.000000 3.648050 0.000000 
#    z 0.000000 0.000000 3.266130 
# 
# 
# High freq. dielectric constant tensor:
#      x y z
#    x 1.731420 0.000000 0.000000 
#    y 0.000000 1.731420 0.000000 
#    z 0.000000 0.000000 1.726780 
# 
# From -- ./inp_files/7270.got.cif
#   From: 2010.03.12/outbox.cif.g09.slc.cpg/sg167_4_cif.got.tgz:7270.got - 2010.04.02 06:42:56.
