data_PCOD8324058
_publ_section_title
;
Structure prediction by ZEFSAII (Michael W. Deem and Ramdas Pophale) SiO2 
 PCOD8324058
Probable space group: R -3 M
;
_chemical_formula_sum "Si O2"
_cell_formula_units_Z 252
_cell_length_a 30.888144
_cell_length_b 30.888144
_cell_length_c 16.746741
_cell_angle_alpha 90.000000
_cell_angle_beta 90.000000
_cell_angle_gamma 120.000000
_cell_volume 13837.083509
_symmetry_space_group_name_H-M "R -3 M"
_symmetry_group_IT_number 166
_symmetry_cell_setting 'hexagonal'
loop_
_space_group_symop_operation_xyz
x,y,z
-y,x-y,z
-x+y,-x,z
x-y,-y,-z
-x,-x+y,-z
y,x,-z
-x,-y,-z
y,-x+y,-z
x-y,x,-z
-x+y,y,z
x,x-y,z
-y,-x,z
2/3+x,1/3+y,1/3+z
2/3-y,1/3+x-y,1/3+z
2/3-x+y,1/3-x,1/3+z
2/3+x-y,1/3-y,1/3-z
2/3-x,1/3-x+y,1/3-z
2/3+y,1/3+x,1/3-z
2/3-x,1/3-y,1/3-z
2/3+y,1/3-x+y,1/3-z
2/3+x-y,1/3+x,1/3-z
2/3-x+y,1/3+y,1/3+z
2/3+x,1/3+x-y,1/3+z
2/3-y,1/3-x,1/3+z
1/3+x,2/3+y,2/3+z
1/3-y,2/3+x-y,2/3+z
1/3-x+y,2/3-x,2/3+z
1/3+x-y,2/3-y,2/3-z
1/3-x,2/3-x+y,2/3-z
1/3+y,2/3+x,2/3-z
1/3-x,2/3-y,2/3-z
1/3+y,2/3-x+y,2/3-z
1/3+x-y,2/3+x,2/3-z
1/3-x+y,2/3+y,2/3+z
1/3+x,2/3+x-y,2/3+z
1/3-y,2/3-x,2/3+z
loop_
_atom_site_type_symbol
_atom_site_label
_atom_site_fract_x
_atom_site_fract_y
_atom_site_fract_z
Si Si1 0.324569 0.435528 0.079730
Si Si2 0.512911 0.386525 0.604787
Si Si3 0.022111 0.326074 0.087133
Si Si4 0.569812 0.333405 0.110513
Si Si5 0.644324 0.095420 0.168835
Si Si6 0.492283 0.698383 0.592521
Si Si7 0.853643 0.244133 0.645250
O O1 0.333334 0.460967 0.166667
O O2 0.300009 0.375798 0.089754
O O3 0.284542 0.442018 0.026695
O O4 0.379461 0.465335 0.042583
O O5 0.555809 0.444192 0.586183
O O6 0.536679 0.350484 0.606028
O O7 0.467852 0.365290 0.538682
O O8 0.991216 0.324549 0.166667
O O9 0.020857 0.273506 0.095540
O O10 0.000000 0.327940 0.000000
O O11 0.589739 0.294870 0.099773
O O12 0.612259 0.387742 0.079356
O O13 0.559029 0.335413 0.204464
O O14 0.620732 0.126001 0.207303
O O15 0.604115 0.059920 0.104555
O O16 0.496846 0.748423 0.627460
O O17 0.492219 0.666667 0.666667
O O18 0.793460 0.206541 0.641401
O O19 0.879363 0.212696 0.666667
#
# Coordination Sequence:
#
# PCOD8324058 Si02
#       7
#    36  36  36  36  36  36  36
#     4  10  20  34  53  78 107 138 175 221 273 328
#     4   9  19  35  53  75 108 148 183 221 273 330
#     4  11  21  36  59  83 107 140 183 227 276 330
#     4   9  17  30  50  74 100 134 177 221 262 307
#     4  10  20  35  54  76 104 140 181 220 263 319
#     4  10  19  31  47  70 102 137 173 212 258 310
#     4  10  19  33  54  80 107 133 166 215 273 327
#
# _framework density 18.211929999999999
#
# number of rings (size 3 to 8) (size 9 to 14) (size 15 to 20)
#    0.000    2.143    0.000    5.286    0.000    4.571 
#    0.000    1.429    0.000    6.143    0.000    0.000 
#    0.000    2.857    0.000    0.000    0.000    0.000 
#
# Total GULP energy -1040975.343554 kJ/mol
# GULP energy per Si atom -12392.563614 kJ/mol
# Density = 1.817048 g / cm^3
# Si number density = 18.211930 Si / 1000 Ang^3
#
#
#
# Elastic Constant Matrix: (Units=GPa)
#
#
# Indices 1 2 3 4 5 6 
#
# 1 77.7644 33.6942 26.5960 0.5820 -0.0001 0.0000
# 2 33.6942 77.7644 26.5960 -0.5820 0.0001 0.0000
# 3 26.5960 26.5960 101.8291 0.0000 -0.0001 0.0000
# 4 0.5820 -0.5820 0.0000 22.8184 0.0000 0.0001
# 5 -0.0001 0.0001 -0.0001 0.0000 22.8184 0.5820
# 6 0.0000 0.0000 0.0000 0.0001 0.5820 22.0351
#
#
#
# Elastic Compliance Matrix: (Units=1/GPa)
#
#
# Indices 1 2 3 4 5 6 
#
# 1 0.016478 -0.006228 -0.002677 -0.000579 0.000000 0.000000
# 2 -0.006228 0.016478 -0.002677 0.000579 0.000000 0.000000
# 3 -0.002677 -0.002677 0.011219 0.000000 0.000000 0.000000
# 4 -0.000579 0.000579 0.000000 0.043854 0.000000 0.000000
# 5 0.000000 0.000000 0.000000 0.000000 0.043854 -0.001158
# 6 0.000000 0.000000 0.000000 0.000000 -0.001158 0.045413
#
#
# Mechanical properties :
#
#
# Convention : Reuss Voigt Hill
#
# Bulk Modulus (GPa) = 47.59690 47.90337 47.75013
# Shear Modulus (GPa) = 24.10068 24.89917 24.49992
#
# Velocity S-wave (km/s) = 3.64173 3.70156 3.67177
# Velocity P-wave (km/s) = 6.62380 6.68051 6.65221
#
# Compressibility (1/GPa) = 0.02100977
#
# Stress axis : x y z
#
# Youngs Moduli (GPa) = 60.68722 60.68722 89.13656
#
# Poissons Ratio (x) = 0.37799 0.23862
# Poissons Ratio (y) = 0.37799 0.23862
# Poissons Ratio (z) = 0.16246 0.16246
#
# Static dielectric constant tensor:
#      x y z
#    x 3.417460 0.000000 0.000000 
#    y 0.000000 3.417460 0.000000 
#    z 0.000000 0.000000 3.441520 
# 
# 
# High freq. dielectric constant tensor:
#      x y z
#    x 1.700610 0.000000 0.000000 
#    y 0.000000 1.700610 0.000000 
#    z 0.000000 0.000000 1.701840 
# 
# From -- ./inp_files/5811.got.cif
#   From: 2010.03.12/outbox.cif.g09.slc.cpg/sg166_3_cif.got.tgz:5811.got - 2010.04.02 06:38:31.
