data_PCOD8324125
_publ_section_title
;
Structure prediction by ZEFSAII (Michael W. Deem and Ramdas Pophale) SiO2 
 PCOD8324125
Probable space group: R -3 M
;
_chemical_formula_sum "Si O2"
_cell_formula_units_Z 216
_cell_length_a 23.011452
_cell_length_b 23.011452
_cell_length_c 24.554169
_cell_angle_alpha 90.000000
_cell_angle_beta 90.000000
_cell_angle_gamma 120.000000
_cell_volume 11260.143326
_symmetry_space_group_name_H-M "R -3 M"
_symmetry_group_IT_number 166
_symmetry_cell_setting 'hexagonal'
loop_
_space_group_symop_operation_xyz
x,y,z
-y,x-y,z
-x+y,-x,z
x-y,-y,-z
-x,-x+y,-z
y,x,-z
-x,-y,-z
y,-x+y,-z
x-y,x,-z
-x+y,y,z
x,x-y,z
-y,-x,z
2/3+x,1/3+y,1/3+z
2/3-y,1/3+x-y,1/3+z
2/3-x+y,1/3-x,1/3+z
2/3+x-y,1/3-y,1/3-z
2/3-x,1/3-x+y,1/3-z
2/3+y,1/3+x,1/3-z
2/3-x,1/3-y,1/3-z
2/3+y,1/3-x+y,1/3-z
2/3+x-y,1/3+x,1/3-z
2/3-x+y,1/3+y,1/3+z
2/3+x,1/3+x-y,1/3+z
2/3-y,1/3-x,1/3+z
1/3+x,2/3+y,2/3+z
1/3-y,2/3+x-y,2/3+z
1/3-x+y,2/3-x,2/3+z
1/3+x-y,2/3-y,2/3-z
1/3-x,2/3-x+y,2/3-z
1/3+y,2/3+x,2/3-z
1/3-x,2/3-y,2/3-z
1/3+y,2/3-x+y,2/3-z
1/3+x-y,2/3+x,2/3-z
1/3-x+y,2/3+y,2/3+z
1/3+x,2/3+x-y,2/3+z
1/3-y,2/3-x,2/3+z
loop_
_atom_site_type_symbol
_atom_site_label
_atom_site_fract_x
_atom_site_fract_y
_atom_site_fract_z
Si Si1 0.667344 0.199155 0.679964
Si Si2 0.950449 0.235176 0.617878
Si Si3 0.507265 0.621979 0.421945
Si Si4 0.785800 0.694660 0.043887
Si Si5 0.920424 0.206638 0.810313
Si Si6 0.300080 0.051449 0.929311
O O1 0.593723 0.187446 0.700325
O O2 0.722414 0.277587 0.686629
O O3 0.695300 0.155773 0.711572
O O4 0.661413 0.179790 0.616295
O O5 0.902354 0.235687 0.666667
O O6 0.912046 0.227575 0.561249
O O7 0.015857 0.306109 0.616841
O O8 0.443096 0.556905 0.449018
O O9 0.548997 0.600262 0.382549
O O10 0.559123 0.670729 0.467234
O O11 0.855814 0.711627 0.071433
O O12 0.763115 0.739922 0.076568
O O13 0.800952 0.712877 0.979603
O O14 0.872523 0.127478 0.802324
O O15 0.911600 0.224931 0.872040
#
# Coordination Sequence:
#
# PCOD8324125 Si02
#       6
#    36  36  36  36  36  36
#     4  11  22  37  59  83 111 149 197 243 282 333
#     4  12  21  39  59  81 115 154 193 234 285 351
#     4  10  20  35  56  80 111 148 184 227 285 346
#     4  10  19  36  58  81 111 152 188 225 283 344
#     4  12  24  35  54  86 117 147 189 240 287 340
#     4  11  20  36  55  83 117 147 187 233 280 341
#
# _framework density 19.182704000000001
#
# number of rings (size 3 to 8) (size 9 to 14) (size 15 to 20)
#    0.000    1.000    6.667    2.167    0.000    2.000 
#    0.000    1.667    0.000    0.333    0.000    0.000 
#    0.000    6.667    0.000    8.500    0.000    0.000 
#
# Total GULP energy -892055.041271 kJ/mol
# GULP energy per Si atom -12389.653351 kJ/mol
# Density = 1.913904 g / cm^3
# Si number density = 19.182704 Si / 1000 Ang^3
#
#
#
# Elastic Constant Matrix: (Units=GPa)
#
#
# Indices 1 2 3 4 5 6 
#
# 1 90.9985 45.7475 16.9179 -4.9245 -0.0002 0.0000
# 2 45.7475 90.9985 16.9179 4.9245 0.0002 0.0000
# 3 16.9179 16.9179 63.4400 0.0000 0.0000 0.0000
# 4 -4.9245 4.9245 0.0000 0.7625 0.0000 0.0002
# 5 -0.0002 0.0002 0.0000 0.0000 0.7625 -4.9245
# 6 0.0000 0.0000 0.0000 0.0002 -4.9245 22.6255
#
#
#
# Elastic Compliance Matrix: (Units=1/GPa)
#
#
# Indices 1 2 3 4 5 6 
#
# 1 -0.023318 0.031148 -0.002088 -0.351777 -0.000011 0.000000
# 2 0.031148 -0.023318 -0.002088 0.351777 0.000011 0.000000
# 3 -0.002088 -0.002088 0.016877 0.000000 0.000000 0.000000
# 4 -0.351777 0.351777 0.000000 -3.232455 0.000000 0.000022
# 5 -0.000011 0.000011 0.000000 0.000000 -3.232455 -0.703554
# 6 0.000000 0.000000 0.000000 0.000022 -0.703554 -0.108933
#
#
# Mechanical properties :
#
#
# Convention : Reuss Voigt Hill
#
# Bulk Modulus (GPa) = 41.35010 44.95596 43.15303
# Shear Modulus (GPa) = -0.75194 15.88699 7.56753
#
# Velocity S-wave (km/s) = -0.62677 2.88096 1.98835
# Velocity P-wave (km/s) = 4.59118 5.87819 5.27409
#
# Compressibility (1/GPa) = 0.02418374
#
# Stress axis : x y z
#
# Youngs Moduli (GPa) = -42.88446 -42.88446 59.25389
#
# Poissons Ratio (x) = 1.33576 0.12372
# Poissons Ratio (y) = 1.33576 0.12372
# Poissons Ratio (z) = -0.08954 -0.08954
#
# Static dielectric constant tensor:
#      x y z
#    x 3.606680 0.000000 0.000000 
#    y 0.000000 3.606680 0.000000 
#    z 0.000000 0.000000 3.350240 
# 
# 
# High freq. dielectric constant tensor:
#      x y z
#    x 1.744240 0.000000 0.000000 
#    y 0.000000 1.744240 0.000000 
#    z 0.000000 0.000000 1.723760 
# 
# From -- ./inp_files/8443.got.cif
#   From: 2010.03.12/outbox.cif.g09.slc.cpg/sg166_5_cif.got.tgz:8443.got - 2010.04.02 06:38:31.
