data_PCOD8324197
_publ_section_title
;
Structure prediction by ZEFSAII (Michael W. Deem and Ramdas Pophale) SiO2 
 PCOD8324197
Probable space group: R -3 M
;
_chemical_formula_sum "Si O2"
_cell_formula_units_Z 162
_cell_length_a 20.628359
_cell_length_b 20.628359
_cell_length_c 21.003329
_cell_angle_alpha 90.000000
_cell_angle_beta 90.000000
_cell_angle_gamma 120.000000
_cell_volume 7740.127752
_symmetry_space_group_name_H-M "R -3 M"
_symmetry_group_IT_number 166
_symmetry_cell_setting 'hexagonal'
loop_
_space_group_symop_operation_xyz
x,y,z
-y,x-y,z
-x+y,-x,z
x-y,-y,-z
-x,-x+y,-z
y,x,-z
-x,-y,-z
y,-x+y,-z
x-y,x,-z
-x+y,y,z
x,x-y,z
-y,-x,z
2/3+x,1/3+y,1/3+z
2/3-y,1/3+x-y,1/3+z
2/3-x+y,1/3-x,1/3+z
2/3+x-y,1/3-y,1/3-z
2/3-x,1/3-x+y,1/3-z
2/3+y,1/3+x,1/3-z
2/3-x,1/3-y,1/3-z
2/3+y,1/3-x+y,1/3-z
2/3+x-y,1/3+x,1/3-z
2/3-x+y,1/3+y,1/3+z
2/3+x,1/3+x-y,1/3+z
2/3-y,1/3-x,1/3+z
1/3+x,2/3+y,2/3+z
1/3-y,2/3+x-y,2/3+z
1/3-x+y,2/3-x,2/3+z
1/3+x-y,2/3-y,2/3-z
1/3-x,2/3-x+y,2/3-z
1/3+y,2/3+x,2/3-z
1/3-x,2/3-y,2/3-z
1/3+y,2/3-x+y,2/3-z
1/3+x-y,2/3+x,2/3-z
1/3-x+y,2/3+y,2/3+z
1/3+x,2/3+x-y,2/3+z
1/3-y,2/3-x,2/3+z
loop_
_atom_site_type_symbol
_atom_site_label
_atom_site_fract_x
_atom_site_fract_y
_atom_site_fract_z
Si Si1 0.861955 0.288782 0.027006
Si Si2 0.726186 0.791108 0.904772
Si Si3 0.522246 0.897889 0.102121
Si Si4 0.333334 0.524682 0.666667
Si Si5 0.940579 0.736472 0.801215
O O1 0.777350 0.222651 0.033407
O O2 0.920928 0.262321 0.048140
O O3 0.874644 0.355691 0.074413
O O4 0.875742 0.315801 0.954333
O O5 0.711649 0.855825 0.875858
O O6 0.739864 0.746576 0.848524
O O7 0.802228 0.830030 0.942270
O O8 0.435885 0.871769 0.086321
O O9 0.523900 0.857233 0.166667
O O10 0.569151 0.986273 0.109322
O O11 0.268332 0.536663 0.638149
O O12 0.875756 0.751512 0.830521
#
# Coordination Sequence:
#
# PCOD8324197 Si02
#       5
#    36  36  36  18  36
#     4  11  23  40  63  89 123 162 205 258 313 370
#     4  10  22  38  61  90 121 160 203 250 306 368
#     4  11  24  41  64  92 123 161 205 258 318 374
#     4  10  21  36  56  84 121 162 206 248 298 360
#     4  11  23  38  62  92 125 161 202 251 311 374
#
# _framework density 20.929887000000001
#
# number of rings (size 3 to 8) (size 9 to 14) (size 15 to 20)
#    0.000    1.333    0.000    5.444    6.222    3.556 
#    0.000    0.000    0.000   14.222    0.000    0.000 
#    0.000    0.000    0.000    0.000    0.000    0.000 
#
# Total GULP energy -669471.564477 kJ/mol
# GULP energy per Si atom -12397.621564 kJ/mol
# Density = 2.088225 g / cm^3
# Si number density = 20.929887 Si / 1000 Ang^3
#
#
#
# Elastic Constant Matrix: (Units=GPa)
#
#
# Indices 1 2 3 4 5 6 
#
# 1 91.5363 66.5319 40.6777 14.0177 -0.0010 0.0000
# 2 66.5319 91.5363 40.6777 -14.0177 0.0010 0.0000
# 3 40.6777 40.6777 115.9692 0.0000 0.0000 0.0000
# 4 14.0177 -14.0177 0.0000 26.4938 0.0000 0.0010
# 5 -0.0010 0.0010 0.0000 0.0000 26.4938 14.0177
# 6 0.0000 0.0000 0.0000 0.0010 14.0177 12.5022
#
#
#
# Elastic Compliance Matrix: (Units=1/GPa)
#
#
# Indices 1 2 3 4 5 6 
#
# 1 0.053019 -0.045299 -0.002708 -0.052020 0.000004 0.000000
# 2 -0.045299 0.053019 -0.002708 0.052020 -0.000004 0.000000
# 3 -0.002708 -0.002708 0.010523 0.000000 0.000000 0.000000
# 4 -0.052020 0.052020 0.000000 0.092791 0.000000 -0.000007
# 5 0.000004 -0.000004 0.000000 0.000000 0.092791 -0.104039
# 6 0.000000 0.000000 0.000000 -0.000007 -0.104039 0.196636
#
#
# Mechanical properties :
#
#
# Convention : Reuss Voigt Hill
#
# Bulk Modulus (GPa) = 66.08874 66.09072 66.08973
# Shear Modulus (GPa) = 8.26100 23.17496 15.71798
#
# Velocity S-wave (km/s) = 1.98886 3.33117 2.74338
# Velocity P-wave (km/s) = 6.07609 6.81479 6.45601
#
# Compressibility (1/GPa) = 0.01513117
#
# Stress axis : x y z
#
# Youngs Moduli (GPa) = 18.86110 18.86110 95.03301
#
# Poissons Ratio (x) = 0.85439 0.25734
# Poissons Ratio (y) = 0.85439 0.25734
# Poissons Ratio (z) = 0.05107 0.05107
#
# Static dielectric constant tensor:
#      x y z
#    x 4.137250 0.000000 0.000000 
#    y 0.000000 4.137250 0.000000 
#    z 0.000000 0.000000 3.699270 
# 
# 
# High freq. dielectric constant tensor:
#      x y z
#    x 1.824200 0.000000 0.000000 
#    y 0.000000 1.824200 0.000000 
#    z 0.000000 0.000000 1.821520 
# 
# From -- ./inp_files/6788.got.cif
#   From: 2010.03.12/outbox.cif.g09.slc.cpg/sg166_4_cif.got.tgz:6788.got - 2010.04.02 06:38:31.
