data_PCOD8324095
_publ_section_title
;
Structure prediction by ZEFSAII (Michael W. Deem and Ramdas Pophale) SiO2 
 PCOD8324095
Probable space group: R -3 M
;
_chemical_formula_sum "Si O2"
_cell_formula_units_Z 216
_cell_length_a 26.551858
_cell_length_b 26.551858
_cell_length_c 20.386398
_cell_angle_alpha 90.000000
_cell_angle_beta 90.000000
_cell_angle_gamma 120.000000
_cell_volume 12446.893222
_symmetry_space_group_name_H-M "R -3 M"
_symmetry_group_IT_number 166
_symmetry_cell_setting 'hexagonal'
loop_
_space_group_symop_operation_xyz
x,y,z
-y,x-y,z
-x+y,-x,z
x-y,-y,-z
-x,-x+y,-z
y,x,-z
-x,-y,-z
y,-x+y,-z
x-y,x,-z
-x+y,y,z
x,x-y,z
-y,-x,z
2/3+x,1/3+y,1/3+z
2/3-y,1/3+x-y,1/3+z
2/3-x+y,1/3-x,1/3+z
2/3+x-y,1/3-y,1/3-z
2/3-x,1/3-x+y,1/3-z
2/3+y,1/3+x,1/3-z
2/3-x,1/3-y,1/3-z
2/3+y,1/3-x+y,1/3-z
2/3+x-y,1/3+x,1/3-z
2/3-x+y,1/3+y,1/3+z
2/3+x,1/3+x-y,1/3+z
2/3-y,1/3-x,1/3+z
1/3+x,2/3+y,2/3+z
1/3-y,2/3+x-y,2/3+z
1/3-x+y,2/3-x,2/3+z
1/3+x-y,2/3-y,2/3-z
1/3-x,2/3-x+y,2/3-z
1/3+y,2/3+x,2/3-z
1/3-x,2/3-y,2/3-z
1/3+y,2/3-x+y,2/3-z
1/3+x-y,2/3+x,2/3-z
1/3-x+y,2/3+y,2/3+z
1/3+x,2/3+x-y,2/3+z
1/3-y,2/3-x,2/3+z
loop_
_atom_site_type_symbol
_atom_site_label
_atom_site_fract_x
_atom_site_fract_y
_atom_site_fract_z
Si Si1 0.452580 0.018811 0.743714
Si Si2 0.999733 0.761966 0.923870
Si Si3 0.102502 0.785543 0.741280
Si Si4 0.547650 0.333651 0.023323
Si Si5 0.521660 0.820330 0.102949
Si Si6 0.176699 0.706818 0.855325
O O1 0.501911 0.003821 0.766553
O O2 0.461357 0.077879 0.776983
O O3 0.390625 0.964591 0.761944
O O4 0.458940 0.033978 0.667335
O O5 0.054089 0.753393 0.908506
O O6 0.003786 0.813579 0.877815
O O7 0.000000 0.779456 0.000000
O O8 0.170358 0.829643 0.758770
O O9 0.061488 0.800896 0.783098
O O10 0.554209 0.277105 0.019097
O O11 0.610720 0.389281 0.020450
O O12 0.517086 0.334420 0.091338
O O13 0.509530 0.335611 0.962379
O O14 0.521154 0.760577 0.098262
O O15 0.486505 0.819838 0.166667
O O16 0.239572 0.760429 0.837357
#
# Coordination Sequence:
#
# PCOD8324095 Si02
#       6
#    36  36  36  36  36  36
#     4   9  18  33  49  69 101 137 166 198 246 304
#     4  10  20  30  48  78 104 132 171 214 253 294
#     4   9  16  31  52  74  98 125 164 211 255 298
#     4  10  20  35  55  78 102 131 170 215 263 312
#     4  10  19  33  53  75 100 131 168 210 260 313
#     4  10  19  33  53  75 101 134 169 211 260 306
#
# _framework density 17.353728
#
# number of rings (size 3 to 8) (size 9 to 14) (size 15 to 20)
#    0.000    2.333    1.667    1.667    0.000    4.000 
#    0.000    0.000    0.000    2.667    0.000    4.667 
#    0.000    3.333    0.000    0.000    0.000    0.000 
#
# Total GULP energy -892617.874349 kJ/mol
# GULP energy per Si atom -12397.470477 kJ/mol
# Density = 1.731423 g / cm^3
# Si number density = 17.353728 Si / 1000 Ang^3
#
#
#
# Elastic Constant Matrix: (Units=GPa)
#
#
# Indices 1 2 3 4 5 6 
#
# 1 69.5513 43.3542 41.2251 1.0252 -0.0001 0.0000
# 2 43.3542 69.5513 41.2251 -1.0252 0.0001 0.0000
# 3 41.2251 41.2251 83.5146 0.0000 0.0000 0.0000
# 4 1.0252 -1.0252 0.0000 21.1066 0.0000 0.0001
# 5 -0.0001 0.0001 0.0000 0.0000 21.1066 1.0252
# 6 0.0000 0.0000 0.0000 0.0001 1.0252 13.0986
#
#
#
# Elastic Compliance Matrix: (Units=1/GPa)
#
#
# Indices 1 2 3 4 5 6 
#
# 1 0.026084 -0.012234 -0.006836 -0.001861 0.000000 0.000000
# 2 -0.012234 0.026084 -0.006836 0.001861 0.000000 0.000000
# 3 -0.006836 -0.006836 0.018723 0.000000 0.000000 0.000000
# 4 -0.001861 0.001861 0.000000 0.047559 0.000000 0.000000
# 5 0.000000 0.000000 0.000000 0.000000 0.047559 -0.003722
# 6 0.000000 0.000000 0.000000 0.000000 -0.003722 0.076636
#
#
# Mechanical properties :
#
#
# Convention : Reuss Voigt Hill
#
# Bulk Modulus (GPa) = 52.42122 52.69176 52.55649
# Shear Modulus (GPa) = 16.62139 17.51656 17.06898
#
# Velocity S-wave (km/s) = 3.09819 3.18053 3.13963
# Velocity P-wave (km/s) = 6.56288 6.62699 6.59501
#
# Compressibility (1/GPa) = 0.01907625
#
# Stress axis : x y z
#
# Youngs Moduli (GPa) = 38.33837 38.33837 53.40963
#
# Poissons Ratio (x) = 0.46904 0.36513
# Poissons Ratio (y) = 0.46904 0.36513
# Poissons Ratio (z) = 0.26210 0.26210
#
# Static dielectric constant tensor:
#      x y z
#    x 3.144850 0.000000 0.000000 
#    y 0.000000 3.144850 0.000000 
#    z 0.000000 0.000000 3.453160 
# 
# 
# High freq. dielectric constant tensor:
#      x y z
#    x 1.658270 0.000000 0.000000 
#    y 0.000000 1.658270 0.000000 
#    z 0.000000 0.000000 1.676230 
# 
# From -- ./inp_files/8648.got.cif
#   From: 2010.03.12/outbox.cif.g09.slc.cpg/sg166_5_cif.got.tgz:8648.got - 2010.04.02 06:38:31.
