data_PCOD8324419
_publ_section_title
;
Structure prediction by ZEFSAII (Michael W. Deem and Ramdas Pophale) SiO2 
 PCOD8324419
Probable space group: R -3 C 
;
_chemical_formula_sum "Si O2"
_cell_formula_units_Z 54
_cell_length_a 19.548074
_cell_length_b 19.548074
_cell_length_c 6.497721
_cell_angle_alpha 90.000000
_cell_angle_beta 90.000000
_cell_angle_gamma 120.000000
_cell_volume 2150.302897
_symmetry_space_group_name_H-M "R -3 C "
_symmetry_group_IT_number 167
_symmetry_cell_setting 'hexagonal'
loop_
_space_group_symop_operation_xyz
x,y,z
-y,x-y,z
-x+y,-x,z
x-y,-y,1/2-z
-x,-x+y,1/2-z
y,x,1/2-z
-x,-y,-z
y,-x+y,-z
x-y,x,-z
-x+y,y,1/2+z
x,x-y,1/2+z
-y,-x,1/2+z
2/3+x,1/3+y,1/3+z
2/3-y,1/3+x-y,1/3+z
2/3-x+y,1/3-x,1/3+z
2/3+x-y,1/3-y,5/6-z
2/3-x,1/3-x+y,5/6-z
2/3+y,1/3+x,5/6-z
2/3-x,1/3-y,1/3-z
2/3+y,1/3-x+y,1/3-z
2/3+x-y,1/3+x,1/3-z
2/3-x+y,1/3+y,5/6+z
2/3+x,1/3+x-y,5/6+z
2/3-y,1/3-x,5/6+z
1/3+x,2/3+y,2/3+z
1/3-y,2/3+x-y,2/3+z
1/3-x+y,2/3-x,2/3+z
1/3+x-y,2/3-y,1/6-z
1/3-x,2/3-x+y,1/6-z
1/3+y,2/3+x,1/6-z
1/3-x,2/3-y,2/3-z
1/3+y,2/3-x+y,2/3-z
1/3+x-y,2/3+x,2/3-z
1/3-x+y,2/3+y,1/6+z
1/3+x,2/3+x-y,1/6+z
1/3-y,2/3-x,1/6+z
loop_
_atom_site_type_symbol
_atom_site_label
_atom_site_fract_x
_atom_site_fract_y
_atom_site_fract_z
Si Si1 0.166580 0.639724 0.197957
Si Si2 0.400434 0.333334 0.583334
O O1 0.149192 0.666667 0.416667
O O2 0.239841 0.716730 0.092351
O O3 0.088810 0.610322 0.054296
O O4 0.383898 0.383898 0.750000
#
# Coordination Sequence:
#
# PCOD8324419 Si02
#       2
#    36  18
#     4  12  24  47  78 114 144 182 235 306 376 430
#     4  12  28  50  70 104 150 196 250 292 348 428
#
# _framework density 25.112741
#
# number of rings (size 3 to 8) (size 9 to 14) (size 15 to 20)
#    0.000    0.000    6.667    2.667    0.000    2.667 
#    6.000    0.000    0.000    0.000    0.000    0.000 
#    0.000    0.000    0.000    0.000    0.000    0.000 
#
# Total GULP energy -223067.504795 kJ/mol
# GULP energy per Si atom -12392.639155 kJ/mol
# Density = 2.505558 g / cm^3
# Si number density = 25.112741 Si / 1000 Ang^3
#
#
#
# Elastic Constant Matrix: (Units=GPa)
#
#
# Indices 1 2 3 4 5 6 
#
# 1 113.0329 60.4855 59.6856 8.5861 -0.0020 -0.0075
# 2 60.4855 113.0259 59.7096 -8.5690 0.0136 0.0065
# 3 59.6856 59.7096 172.2222 0.0235 -0.0459 0.0000
# 4 8.5861 -8.5690 0.0235 55.4998 0.0200 0.0011
# 5 -0.0020 0.0136 -0.0459 0.0200 55.4668 8.5709
# 6 -0.0075 0.0065 0.0000 0.0011 8.5709 26.2653
#
#
#
# Elastic Compliance Matrix: (Units=1/GPa)
#
#
# Indices 1 2 3 4 5 6 
#
# 1 0.013804 -0.006237 -0.002621 -0.003097 0.000000 0.000006
# 2 -0.006237 0.013807 -0.002626 0.003098 -0.000006 -0.000003
# 3 -0.002621 -0.002626 0.007625 -0.000003 0.000007 -0.000002
# 4 -0.003097 0.003098 -0.000003 0.018976 -0.000008 0.000000
# 5 0.000000 -0.000006 0.000007 -0.000008 0.018986 -0.006196
# 6 0.000006 -0.000003 -0.000002 0.000000 -0.006196 0.040095
#
#
# Mechanical properties :
#
#
# Convention : Reuss Voigt Hill
#
# Bulk Modulus (GPa) = 81.51164 84.22695 82.86929
# Shear Modulus (GPa) = 35.62496 42.00638 38.81567
#
# Velocity S-wave (km/s) = 3.77052 4.09432 3.93575
# Velocity P-wave (km/s) = 7.17527 7.48088 7.32967
#
# Compressibility (1/GPa) = 0.01226819
#
# Stress axis : x y z
#
# Youngs Moduli (GPa) = 72.44305 72.42445 131.14430
#
# Poissons Ratio (x) = 0.45174 0.34373
# Poissons Ratio (y) = 0.45185 0.34437
# Poissons Ratio (z) = 0.18987 0.19018
#
# Static dielectric constant tensor:
#      x y z
#    x 4.323150 -0.000010 -0.000140 
#    y -0.000010 4.323190 -0.000030 
#    z -0.000140 -0.000030 5.187300 
# 
# 
# High freq. dielectric constant tensor:
#      x y z
#    x 1.973830 0.000000 -0.000020 
#    y 0.000000 1.973840 0.000000 
#    z -0.000020 0.000000 2.058220 
# 
# From -- ./inp_files/222.got.cif
#   From: 2010.03.12/outbox.cif.g09.slc.cpg/sg167_1_cif.got.tgz:222.got - 2010.04.02 06:42:56.
