data_PCOD8324015
_publ_section_title
;
Structure prediction by ZEFSAII (Michael W. Deem and Ramdas Pophale) SiO2 
 PCOD8324015
Probable space group: R -3 M
;
_chemical_formula_sum "Si O2"
_cell_formula_units_Z 162
_cell_length_a 21.402880
_cell_length_b 21.402880
_cell_length_c 24.051209
_cell_angle_alpha 90.000000
_cell_angle_beta 90.000000
_cell_angle_gamma 120.000000
_cell_volume 9541.397233
_symmetry_space_group_name_H-M "R -3 M"
_symmetry_group_IT_number 166
_symmetry_cell_setting 'hexagonal'
loop_
_space_group_symop_operation_xyz
x,y,z
-y,x-y,z
-x+y,-x,z
x-y,-y,-z
-x,-x+y,-z
y,x,-z
-x,-y,-z
y,-x+y,-z
x-y,x,-z
-x+y,y,z
x,x-y,z
-y,-x,z
2/3+x,1/3+y,1/3+z
2/3-y,1/3+x-y,1/3+z
2/3-x+y,1/3-x,1/3+z
2/3+x-y,1/3-y,1/3-z
2/3-x,1/3-x+y,1/3-z
2/3+y,1/3+x,1/3-z
2/3-x,1/3-y,1/3-z
2/3+y,1/3-x+y,1/3-z
2/3+x-y,1/3+x,1/3-z
2/3-x+y,1/3+y,1/3+z
2/3+x,1/3+x-y,1/3+z
2/3-y,1/3-x,1/3+z
1/3+x,2/3+y,2/3+z
1/3-y,2/3+x-y,2/3+z
1/3-x+y,2/3-x,2/3+z
1/3+x-y,2/3-y,2/3-z
1/3-x,2/3-x+y,2/3-z
1/3+y,2/3+x,2/3-z
1/3-x,2/3-y,2/3-z
1/3+y,2/3-x+y,2/3-z
1/3+x-y,2/3+x,2/3-z
1/3-x+y,2/3+y,2/3+z
1/3+x,2/3+x-y,2/3+z
1/3-y,2/3-x,2/3+z
loop_
_atom_site_type_symbol
_atom_site_label
_atom_site_fract_x
_atom_site_fract_y
_atom_site_fract_z
Si Si1 0.445100 0.030689 0.228815
Si Si2 0.035675 0.447845 0.559313
Si Si3 0.855312 0.002474 0.607256
Si Si4 0.000000 0.774442 0.500000
Si Si5 0.210010 0.277455 0.673690
O O1 0.529126 0.058252 0.220075
O O2 0.436284 0.100884 0.222308
O O3 0.400100 0.969840 0.182900
O O4 0.419386 0.999075 0.289956
O O5 0.061471 0.530736 0.577603
O O6 0.000000 0.434185 0.500000
O O7 0.978603 0.388907 0.603619
O O8 0.935848 0.064153 0.622646
O O9 0.830622 0.022725 0.550413
O O10 0.851865 0.925933 0.599968
O O11 0.801036 0.998959 0.656255
O O12 0.132166 0.264332 0.688457
#
# Coordination Sequence:
#
# PCOD8324015 Si02
#       5
#    36  36  36  18  36
#     4  10  18  31  51  73  98 129 164 202 247 297
#     4  10  19  33  52  73  95 123 161 206 251 298
#     4  10  18  29  46  69 100 137 176 211 249 294
#     4  10  18  30  46  70 102 138 172 212 244 282
#     4   8  17  31  48  67  92 126 161 201 248 294
#
# _framework density 16.978645
#
# number of rings (size 3 to 8) (size 9 to 14) (size 15 to 20)
#    0.000    2.444    1.111    4.222    0.000    0.000 
#    0.000    2.222    0.000    3.111    0.000    0.000 
#    0.000    5.333    0.000    0.000    0.000    0.000 
#
# Total GULP energy -669180.797933 kJ/mol
# GULP energy per Si atom -12392.236999 kJ/mol
# Density = 1.694000 g / cm^3
# Si number density = 16.978645 Si / 1000 Ang^3
#
#
#
# Elastic Constant Matrix: (Units=GPa)
#
#
# Indices 1 2 3 4 5 6 
#
# 1 98.5133 51.2717 37.1793 0.2627 0.0000 0.0000
# 2 51.2717 98.5133 37.1793 -0.2627 0.0000 0.0000
# 3 37.1793 37.1793 83.5053 0.0000 0.0000 0.0000
# 4 0.2627 -0.2627 0.0000 16.8418 0.0000 0.0000
# 5 0.0000 0.0000 0.0000 0.0000 16.8418 0.2627
# 6 0.0000 0.0000 0.0000 0.0000 0.2627 23.6208
#
#
#
# Elastic Compliance Matrix: (Units=1/GPa)
#
#
# Indices 1 2 3 4 5 6 
#
# 1 0.014871 -0.006300 -0.003816 -0.000330 0.000000 0.000000
# 2 -0.006300 0.014871 -0.003816 0.000330 0.000000 0.000000
# 3 -0.003816 -0.003816 0.015373 0.000000 0.000000 0.000000
# 4 -0.000330 0.000330 0.000000 0.059386 0.000000 0.000000
# 5 0.000000 0.000000 0.000000 0.000000 0.059386 -0.000660
# 6 0.000000 0.000000 0.000000 0.000000 -0.000660 0.042343
#
#
# Mechanical properties :
#
#
# Convention : Reuss Voigt Hill
#
# Bulk Modulus (GPa) = 57.96841 59.08803 58.52822
# Shear Modulus (GPa) = 20.84675 21.78766 21.31721
#
# Velocity S-wave (km/s) = 3.50783 3.58612 3.54719
# Velocity P-wave (km/s) = 7.11495 7.21276 7.16402
#
# Compressibility (1/GPa) = 0.01725078
#
# Stress axis : x y z
#
# Youngs Moduli (GPa) = 67.24488 67.24488 65.04814
#
# Poissons Ratio (x) = 0.42367 0.24822
# Poissons Ratio (y) = 0.42367 0.24822
# Poissons Ratio (z) = 0.25660 0.25660
#
# Static dielectric constant tensor:
#      x y z
#    x 3.201060 0.000000 0.000000 
#    y 0.000000 3.201060 0.000000 
#    z 0.000000 0.000000 3.315740 
# 
# 
# High freq. dielectric constant tensor:
#      x y z
#    x 1.639370 0.000000 0.000000 
#    y 0.000000 1.639370 0.000000 
#    z 0.000000 0.000000 1.655590 
# 
# From -- ./inp_files/8162.got.cif
#   From: 2010.03.12/outbox.cif.g09.slc.cpg/sg166_5_cif.got.tgz:8162.got - 2010.04.02 06:38:31.
