data_PCOD8324702
_publ_section_title
;
Structure prediction by ZEFSAII (Michael W. Deem and Ramdas Pophale) SiO2 
 PCOD8324702
Probable space group: P 65
;
_chemical_formula_sum "Si O2"
_cell_formula_units_Z 48
_cell_length_a 14.571444
_cell_length_b 14.571444
_cell_length_c 12.791251
_cell_angle_alpha 90.000000
_cell_angle_beta 90.000000
_cell_angle_gamma 120.000000
_cell_volume 2352.062382
_symmetry_space_group_name_H-M "P 65"
_symmetry_group_IT_number 170
_symmetry_cell_setting 'hexagonal'
loop_
_space_group_symop_operation_xyz
x,y,z
x-y,x,5/6+z
-y,x-y,2/3+z
-x,-y,1/2+z
-x+y,-x,1/3+z
y,-x+y,1/6+z
loop_
_atom_site_type_symbol
_atom_site_label
_atom_site_fract_x
_atom_site_fract_y
_atom_site_fract_z
Si Si1 0.218513 0.613164 0.156550
Si Si2 0.987246 0.660220 0.198014
Si Si3 0.629899 0.962677 0.171563
Si Si4 0.499919 0.441445 0.149487
Si Si5 0.870005 0.625828 0.988423
Si Si6 0.580371 0.315556 0.544810
Si Si7 0.081046 0.570907 0.659001
Si Si8 0.407042 0.229336 0.028048
O O1 0.196127 0.563465 0.273110
O O2 0.263905 0.739147 0.158083
O O3 0.111420 0.557902 0.092085
O O4 0.305493 0.600511 0.090934
O O5 0.970281 0.543558 0.217475
O O6 0.900732 0.668530 0.270399
O O7 0.105452 0.753411 0.231027
O O8 0.960265 0.663446 0.076377
O O9 0.521551 0.933523 0.235437
O O10 0.668143 0.876770 0.183310
O O11 0.604325 0.969366 0.050509
O O12 0.733451 0.068743 0.211045
O O13 0.430425 0.490154 0.199399
O O14 0.424053 0.320136 0.112459
O O15 0.798672 0.499289 0.972726
O O16 0.574117 0.206636 0.510009
#
# Coordination Sequence:
#
# PCOD8324702 Si02
#       8
#     6   6   6   6   6   6   6   6
#     4  12  21  35  54  88 121 170 207 249 300 370
#     4  12  22  40  61  87 124 165 209 265 311 377
#     4  11  23  39  62  90 123 167 209 260 313 377
#     4  12  23  37  56  87 124 164 207 250 311 378
#     4  11  22  39  60  89 121 166 210 261 310 370
#     4  11  24  34  59  88 129 170 210 249 303 382
#     4  11  22  37  58  85 123 164 205 247 308 372
#     4  12  25  39  60  88 123 166 215 259 318 378
#
# _framework density 20.407623000000001
#
# number of rings (size 3 to 8) (size 9 to 14) (size 15 to 20)
#    0.000    0.500    6.250    3.750    0.000    1.000 
#    0.000    0.000    0.000    0.000    0.000   17.500 
#    0.000    0.000    0.000    0.000    0.000    0.000 
#
# Total GULP energy -594688.498676 kJ/mol
# GULP energy per Si atom -12389.343722 kJ/mol
# Density = 2.036117 g / cm^3
# Si number density = 20.407623 Si / 1000 Ang^3
#
#
#
# Elastic Constant Matrix: (Units=GPa)
#
#
# Indices 1 2 3 4 5 6 
#
# 1 70.6024 23.3442 4.3921 0.0000 0.0000 0.0000
# 2 23.3442 70.6024 4.3921 0.0000 0.0000 0.0000
# 3 4.3921 4.3921 48.8713 0.0000 0.0000 0.0000
# 4 0.0000 0.0000 0.0000 32.5291 0.0000 0.0000
# 5 0.0000 0.0000 0.0000 0.0000 32.5291 0.0000
# 6 0.0000 0.0000 0.0000 0.0000 0.0000 23.6291
#
#
#
# Elastic Compliance Matrix: (Units=1/GPa)
#
#
# Indices 1 2 3 4 5 6 
#
# 1 0.015947 -0.005213 -0.000965 0.000000 0.000000 0.000000
# 2 -0.005213 0.015947 -0.000965 0.000000 0.000000 0.000000
# 3 -0.000965 -0.000965 0.020635 0.000000 0.000000 0.000000
# 4 0.000000 0.000000 0.000000 0.030742 0.000000 0.000000
# 5 0.000000 0.000000 0.000000 0.000000 0.030742 0.000000
# 6 0.000000 0.000000 0.000000 0.000000 0.000000 0.042321
#
#
# Mechanical properties :
#
#
# Convention : Reuss Voigt Hill
#
# Bulk Modulus (GPa) = 26.14688 28.25923 27.20305
# Shear Modulus (GPa) = 27.26763 28.26729 27.76746
#
# Velocity S-wave (km/s) = 3.65930 3.72578 3.69269
# Velocity P-wave (km/s) = 5.54023 5.69087 5.61605
#
# Compressibility (1/GPa) = 0.03824548
#
# Stress axis : x y z
#
# Youngs Moduli (GPa) = 62.70590 62.70590 48.46064
#
# Poissons Ratio (x) = 0.32688 0.04675
# Poissons Ratio (y) = 0.32688 0.04675
# Poissons Ratio (z) = 0.06049 0.06049
#
# Static dielectric constant tensor:
#      x y z
#    x 3.629190 0.000000 0.000000 
#    y 0.000000 3.629190 0.000000 
#    z 0.000000 0.000000 3.787390 
# 
# 
# High freq. dielectric constant tensor:
#      x y z
#    x 1.777250 0.000000 0.000000 
#    y 0.000000 1.777250 0.000000 
#    z 0.000000 0.000000 1.805350 
# 
# From -- ./inp_files/1061.got.cif
#   From: 2010.03.12/outbox.cif.g09.slc.cpg/sg170_cif.got.tgz:1061.got - 2010.04.02 06:47:37.
