data_PCOD8324907
_publ_section_title
;
Structure prediction by ZEFSAII (Michael W. Deem and Ramdas Pophale) SiO2 
 PCOD8324907
Probable space group: P -6
;
_chemical_formula_sum "Si O2"
_cell_formula_units_Z 38
_cell_length_a 13.625169
_cell_length_b 13.625169
_cell_length_c 12.663183
_cell_angle_alpha 90.000000
_cell_angle_beta 90.000000
_cell_angle_gamma 120.000000
_cell_volume 2035.904069
_symmetry_space_group_name_H-M "P -6"
_symmetry_group_IT_number 174
_symmetry_cell_setting 'hexagonal'
loop_
_space_group_symop_operation_xyz
x,y,z
-x+y,-x,-z
-y,x-y,z
x,y,-z
-x+y,-x,z
-y,x-y,-z
loop_
_atom_site_type_symbol
_atom_site_label
_atom_site_fract_x
_atom_site_fract_y
_atom_site_fract_z
Si Si1 0.666667 0.333334 0.372439
Si Si2 0.156033 0.418951 0.879745
Si Si3 0.524119 0.440640 0.692707
Si Si4 0.305012 0.003195 0.300791
Si Si5 0.944951 0.086380 0.620171
Si Si6 0.147672 0.411929 0.500000
Si Si7 0.406518 0.482079 0.878571
Si Si8 0.518772 0.925526 0.500000
O O1 0.666667 0.333334 0.500000
O O2 0.785216 0.436077 0.327847
O O3 0.060039 0.320879 0.809875
O O4 0.277605 0.438046 0.845719
O O5 0.149716 0.532596 0.860915
O O6 0.129349 0.378390 0.000000
O O7 0.639479 0.560935 0.691235
O O8 0.460759 0.424009 0.805182
O O9 0.438865 0.433697 0.602315
O O10 0.251475 0.086372 0.308878
O O11 0.255121 0.913694 0.395986
O O12 0.927839 0.109844 0.500000
O O13 0.079457 0.127440 0.642596
O O14 0.274425 0.435553 0.500000
O O15 0.146814 0.529611 0.500000
O O16 0.417609 0.452583 0.000000
#
# Coordination Sequence:
#
# PCOD8324907 Si02
#       8
#     2   6   6   6   6   3   6   3
#     4  12  24  45  58  74 103 153 207 259 278 328
#     4   9  17  29  53  80 112 146 173 211 263 325
#     4  10  22  37  54  75 107 143 192 235 284 315
#     4  10  18  33  51  76 107 135 170 223 268 325
#     4   8  16  31  49  72  99 124 161 210 262 320
#     4  10  19  28  50  74 110 137 164 204 278 330
#     4   9  17  33  55  85 116 145 181 222 270 338
#     4  10  19  34  48  80 112 143 170 218 276 356
#
# _framework density 18.664926000000001
#
# number of rings (size 3 to 8) (size 9 to 14) (size 15 to 20)
#    0.316    2.211    1.579    1.421    0.000    1.263 
#    5.684    3.947    0.000    0.947    0.000    0.000 
#    0.000    0.000    0.000    0.000    0.000    0.000 
#
# Total GULP energy -470919.861916 kJ/mol
# GULP energy per Si atom -12392.627945 kJ/mol
# Density = 1.862244 g / cm^3
# Si number density = 18.664926 Si / 1000 Ang^3
#
#
#
# Elastic Constant Matrix: (Units=GPa)
#
#
# Indices 1 2 3 4 5 6 
#
# 1 44.4633 8.1829 19.4582 0.0000 0.0000 0.0004
# 2 8.1829 44.4635 19.4584 0.0000 0.0000 0.0006
# 3 19.4582 19.4584 83.7865 0.0000 0.0000 0.0002
# 4 0.0000 0.0000 0.0000 22.2593 0.0000 0.0000
# 5 0.0000 0.0000 0.0000 0.0000 22.2592 0.0000
# 6 0.0004 0.0006 0.0002 0.0000 0.0000 18.1406
#
#
#
# Elastic Compliance Matrix: (Units=1/GPa)
#
#
# Indices 1 2 3 4 5 6 
#
# 1 0.025247 -0.002316 -0.005325 0.000000 0.000000 0.000000
# 2 -0.002316 0.025247 -0.005326 0.000000 0.000000 -0.000001
# 3 -0.005325 -0.005326 0.014409 0.000000 0.000000 0.000000
# 4 0.000000 0.000000 0.000000 0.044925 0.000000 0.000000
# 5 0.000000 0.000000 0.000000 0.000000 0.044925 0.000000
# 6 0.000000 -0.000001 0.000000 0.000000 0.000000 0.055125
#
#
# Mechanical properties :
#
#
# Convention : Reuss Voigt Hill
#
# Bulk Modulus (GPa) = 25.66122 29.65693 27.65908
# Shear Modulus (GPa) = 20.09630 20.90605 20.50117
#
# Velocity S-wave (km/s) = 3.28485 3.35038 3.31778
# Velocity P-wave (km/s) = 5.30709 5.55791 5.43395
#
# Compressibility (1/GPa) = 0.03896930
#
# Stress axis : x y z
#
# Youngs Moduli (GPa) = 39.60829 39.60845 69.40270
#
# Poissons Ratio (x) = 0.09173 0.36960
# Poissons Ratio (y) = 0.09173 0.36961
# Poissons Ratio (z) = 0.21093 0.21094
#
# Static dielectric constant tensor:
#      x y z
#    x 3.276370 0.000000 0.000000 
#    y 0.000000 3.276380 0.000000 
#    z 0.000000 0.000000 3.494490 
# 
# 
# High freq. dielectric constant tensor:
#      x y z
#    x 1.710390 0.000000 0.000000 
#    y 0.000000 1.710390 0.000000 
#    z 0.000000 0.000000 1.718310 
# 
# From -- ./inp_files/746.got.cif
#   From: 2010.03.12/outbox.cif.g09.slc.cpg/sg174_cif.got.tgz:746.got - 2010.04.02 06:54:58.
