data_PCOD8324433
_publ_section_title
;
Structure prediction by ZEFSAII (Michael W. Deem and Ramdas Pophale) SiO2 
 PCOD8324433
Probable space group: P 6
;
_chemical_formula_sum "Si O2"
_cell_formula_units_Z 36
_cell_length_a 11.281390
_cell_length_b 11.281390
_cell_length_c 15.724208
_cell_angle_alpha 90.000000
_cell_angle_beta 90.000000
_cell_angle_gamma 120.000000
_cell_volume 1733.104053
_symmetry_space_group_name_H-M "P 6"
_symmetry_group_IT_number 168
_symmetry_cell_setting 'hexagonal'
loop_
_space_group_symop_operation_xyz
x,y,z
x-y,x,z
-y,x-y,z
-x,-y,z
-x+y,-x,z
y,-x+y,z
loop_
_atom_site_type_symbol
_atom_site_label
_atom_site_fract_x
_atom_site_fract_y
_atom_site_fract_z
Si Si1 0.781640 0.683569 0.259570
Si Si2 0.309946 0.095954 0.075581
Si Si3 0.316433 0.098076 0.891592
Si Si4 0.313488 0.091313 0.575580
Si Si5 0.496697 0.803028 0.416822
Si Si6 0.693674 0.496699 0.734339
O O1 0.748243 0.804800 0.272531
O O2 0.730704 0.610168 0.165683
O O3 0.698700 0.565905 0.327367
O O4 0.240035 0.185942 0.075581
O O5 0.389833 0.120539 0.985479
O O6 0.251756 0.195203 0.878631
O O7 0.434099 0.132805 0.823797
O O8 0.250145 0.189131 0.575576
O O9 0.404175 0.112996 0.492951
O O10 0.404161 0.112994 0.658215
O O11 0.357746 0.812407 0.422655
O O12 0.545343 0.357751 0.728502
#
# Coordination Sequence:
#
# PCOD8324433 Si02
#       6
#     6   6   6   6   6   6
#     4  10  19  34  58  86 117 148 188 242 294 342
#     4   8  15  28  50  82 114 148 185 230 292 346
#     4  10  19  34  58  86 117 148 188 242 294 342
#     4  12  25  42  66  92 117 140 176 234 292 342
#     4  10  24  42  57  85 111 159 197 226 266 326
#     4  10  24  42  57  85 111 159 197 226 266 326
#
# _framework density 20.771977
#
# number of rings (size 3 to 8) (size 9 to 14) (size 15 to 20)
#    0.667    1.333    0.000    3.667    0.000    9.333 
#    0.000    5.000    0.000    6.000    0.000    0.000 
#    0.000    0.000    0.000    0.000    0.000    0.000 
#
# Total GULP energy -446056.388961 kJ/mol
# GULP energy per Si atom -12390.455249 kJ/mol
# Density = 2.072470 g / cm^3
# Si number density = 20.771977 Si / 1000 Ang^3
#
#
#
# Elastic Constant Matrix: (Units=GPa)
#
#
# Indices 1 2 3 4 5 6 
#
# 1 51.2914 -22.1542 17.8763 0.0000 0.0000 0.0000
# 2 -22.1542 51.2914 17.8763 0.0000 0.0000 0.0000
# 3 17.8763 17.8763 172.0664 0.0000 0.0000 0.0000
# 4 0.0000 0.0000 0.0000 -13.5533 0.0000 0.0000
# 5 0.0000 0.0000 0.0000 0.0000 -13.5533 0.0000
# 6 0.0000 0.0000 0.0000 0.0000 0.0000 36.7228
#
#
#
# Elastic Compliance Matrix: (Units=1/GPa)
#
#
# Indices 1 2 3 4 5 6 
#
# 1 0.026475 0.012860 -0.004087 0.000000 0.000000 0.000000
# 2 0.012860 0.026475 -0.004087 0.000000 0.000000 0.000000
# 3 -0.004087 -0.004087 0.006661 0.000000 0.000000 0.000000
# 4 0.000000 0.000000 0.000000 -0.073783 0.000000 0.000000
# 5 0.000000 0.000000 0.000000 0.000000 -0.073783 0.000000
# 6 0.000000 0.000000 0.000000 0.000000 0.000000 0.027231
#
#
# Mechanical properties :
#
#
# Convention : Reuss Voigt Hill
#
# Bulk Modulus (GPa) = 14.49610 33.53847 24.01729
# Shear Modulus (GPa) = -106.15388 19.32661 -43.41363
#
# Velocity S-wave (km/s) = -7.15649 3.05358 -4.57662
# Velocity P-wave (km/s) = 7.82900 5.34917 4.04226
#
# Compressibility (1/GPa) = 0.06898405
#
# Stress axis : x y z
#
# Youngs Moduli (GPa) = 37.77129 37.77129 150.13136
#
# Poissons Ratio (x) = -0.48572 0.61352
# Poissons Ratio (y) = -0.48572 0.61352
# Poissons Ratio (z) = 0.15435 0.15435
#
# Static dielectric constant tensor:
#      x y z
#    x 3.560430 0.000000 0.000000 
#    y 0.000000 3.560430 0.000000 
#    z 0.000000 0.000000 4.422750 
# 
# 
# High freq. dielectric constant tensor:
#      x y z
#    x 1.798930 0.000000 0.000000 
#    y 0.000000 1.798930 0.000000 
#    z 0.000000 0.000000 1.840080 
# 
# From -- ./inp_files/443.got.cif
#   From: 2010.03.12/outbox.cif.g09.slc.cpg/sg168_cif.got.tgz:443.got - 2010.04.02 06:45:48.
