data_PCOD8324121
_publ_section_title
;
Structure prediction by ZEFSAII (Michael W. Deem and Ramdas Pophale) SiO2 
 PCOD8324121
Probable space group: R -3 M
;
_chemical_formula_sum "Si O2"
_cell_formula_units_Z 216
_cell_length_a 22.666059
_cell_length_b 22.666059
_cell_length_c 28.319977
_cell_angle_alpha 90.000000
_cell_angle_beta 90.000000
_cell_angle_gamma 120.000000
_cell_volume 12600.145432
_symmetry_space_group_name_H-M "R -3 M"
_symmetry_group_IT_number 166
_symmetry_cell_setting 'hexagonal'
loop_
_space_group_symop_operation_xyz
x,y,z
-y,x-y,z
-x+y,-x,z
x-y,-y,-z
-x,-x+y,-z
y,x,-z
-x,-y,-z
y,-x+y,-z
x-y,x,-z
-x+y,y,z
x,x-y,z
-y,-x,z
2/3+x,1/3+y,1/3+z
2/3-y,1/3+x-y,1/3+z
2/3-x+y,1/3-x,1/3+z
2/3+x-y,1/3-y,1/3-z
2/3-x,1/3-x+y,1/3-z
2/3+y,1/3+x,1/3-z
2/3-x,1/3-y,1/3-z
2/3+y,1/3-x+y,1/3-z
2/3+x-y,1/3+x,1/3-z
2/3-x+y,1/3+y,1/3+z
2/3+x,1/3+x-y,1/3+z
2/3-y,1/3-x,1/3+z
1/3+x,2/3+y,2/3+z
1/3-y,2/3+x-y,2/3+z
1/3-x+y,2/3-x,2/3+z
1/3+x-y,2/3-y,2/3-z
1/3-x,2/3-x+y,2/3-z
1/3+y,2/3+x,2/3-z
1/3-x,2/3-y,2/3-z
1/3+y,2/3-x+y,2/3-z
1/3+x-y,2/3+x,2/3-z
1/3-x+y,2/3+y,2/3+z
1/3+x,2/3+x-y,2/3+z
1/3-y,2/3-x,2/3+z
loop_
_atom_site_type_symbol
_atom_site_label
_atom_site_fract_x
_atom_site_fract_y
_atom_site_fract_z
Si Si1 0.821644 0.774192 0.545028
Si Si2 0.202006 0.264446 0.116204
Si Si3 0.466162 0.065565 0.728151
Si Si4 0.105556 0.482588 0.619545
Si Si5 0.934603 0.305464 0.031824
Si Si6 0.793267 0.718879 0.778109
O O1 0.791833 0.791833 0.500000
O O2 0.903150 0.806300 0.541083
O O3 0.802329 0.803657 0.589947
O O4 0.786496 0.694686 0.553026
O O5 0.133965 0.267930 0.113408
O O6 0.260754 0.331592 0.087705
O O7 0.189277 0.195010 0.091159
O O8 0.220244 0.259155 0.170426
O O9 0.534832 0.069663 0.744820
O O10 0.460961 0.064411 0.671681
O O11 0.115727 0.557864 0.619793
O O12 0.136802 0.470135 0.666667
O O13 0.027346 0.424926 0.611494
O O14 0.922495 0.349616 0.071294
O O15 0.000000 0.354416 0.000000
O O16 0.874339 0.748677 0.768065
#
# Coordination Sequence:
#
# PCOD8324121 Si02
#       6
#    36  36  36  36  36  36
#     4  11  20  31  50  78 107 138 178 223 271 321
#     4  10  19  35  57  77 105 142 182 224 267 323
#     4  11  20  34  54  76 104 145 186 219 266 323
#     4  11  21  34  54  81 111 145 180 217 270 329
#     4  11  20  32  50  77 112 141 172 219 270 323
#     4  10  21  34  53  79 107 141 180 222 270 320
#
# _framework density 17.142659999999999
#
# number of rings (size 3 to 8) (size 9 to 14) (size 15 to 20)
#    0.000    1.333    6.667    1.500    0.000    1.000 
#    0.000    2.500    0.000    6.000    0.000    0.000 
#    0.000    1.333    0.000    0.000    0.000    0.000 
#
# Total GULP energy -892292.777961 kJ/mol
# GULP energy per Si atom -12392.955249 kJ/mol
# Density = 1.710364 g / cm^3
# Si number density = 17.142660 Si / 1000 Ang^3
#
#
#
# Elastic Constant Matrix: (Units=GPa)
#
#
# Indices 1 2 3 4 5 6 
#
# 1 26.3283 54.0591 34.1406 -18.0617 0.0010 0.0000
# 2 54.0591 26.3283 34.1406 18.0617 -0.0010 0.0000
# 3 34.1406 34.1406 109.2554 0.0000 0.0000 0.0000
# 4 -18.0617 18.0617 0.0000 32.4782 0.0000 -0.0010
# 5 0.0010 -0.0010 0.0000 0.0000 32.4782 -18.0617
# 6 0.0000 0.0000 0.0000 -0.0010 -18.0617 -13.8654
#
#
#
# Elastic Compliance Matrix: (Units=1/GPa)
#
#
# Indices 1 2 3 4 5 6 
#
# 1 -0.001989 0.018923 -0.005292 -0.011629 0.000001 0.000000
# 2 0.018923 -0.001989 -0.005292 0.011629 -0.000001 0.000000
# 3 -0.005292 -0.005292 0.012460 0.000000 0.000000 0.000000
# 4 -0.011629 0.011629 0.000000 0.017855 0.000000 -0.000001
# 5 0.000001 -0.000001 0.000000 0.000000 0.017855 -0.023259
# 6 0.000000 0.000000 0.000000 -0.000001 -0.023259 -0.041824
#
#
# Mechanical properties :
#
#
# Convention : Reuss Voigt Hill
#
# Bulk Modulus (GPa) = 39.74230 45.17695 42.45962
# Shear Modulus (GPa) = -844.24806 12.85629 -415.69588
#
# Velocity S-wave (km/s) = -22.21605 2.74151 -15.58905
# Velocity P-wave (km/s) = 25.19597 6.03588 17.29747
#
# Compressibility (1/GPa) = 0.02516211
#
# Stress axis : x y z
#
# Youngs Moduli (GPa) = -502.86161 -502.86155 80.25636
#
# Poissons Ratio (x) = 9.51576 0.42470
# Poissons Ratio (y) = 9.51576 0.42470
# Poissons Ratio (z) = -2.66104 -2.66104
#
# Static dielectric constant tensor:
#      x y z
#    x 3.148460 0.000000 0.000000 
#    y 0.000000 3.148460 0.000000 
#    z 0.000000 0.000000 3.447900 
# 
# 
# High freq. dielectric constant tensor:
#      x y z
#    x 1.638020 0.000000 0.000000 
#    y 0.000000 1.638020 0.000000 
#    z 0.000000 0.000000 1.669050 
# 
# From -- ./inp_files/9710.got.cif
#   From: 2010.03.12/outbox.cif.g09.slc.cpg/sg166_5_cif.got.tgz:9710.got - 2010.04.02 06:38:31.
