data_PCOD8324947
_publ_section_title
;
Structure prediction by ZEFSAII (Michael W. Deem and Ramdas Pophale) SiO2 
 PCOD8324947
Probable space group: P -6
;
_chemical_formula_sum "Si O2"
_cell_formula_units_Z 23
_cell_length_a 11.334418
_cell_length_b 11.334418
_cell_length_c 11.262578
_cell_angle_alpha 90.000000
_cell_angle_beta 90.000000
_cell_angle_gamma 120.000000
_cell_volume 1253.045650
_symmetry_space_group_name_H-M "P -6"
_symmetry_group_IT_number 174
_symmetry_cell_setting 'hexagonal'
loop_
_space_group_symop_operation_xyz
x,y,z
-x+y,-x,-z
-y,x-y,z
x,y,-z
-x+y,-x,z
-y,x-y,-z
loop_
_atom_site_type_symbol
_atom_site_label
_atom_site_fract_x
_atom_site_fract_y
_atom_site_fract_z
Si Si1 0.639329 0.831187 0.139035
Si Si2 0.333335 0.666668 0.859327
Si Si3 0.417996 0.337154 0.752647
Si Si4 0.825566 0.477980 0.500000
Si Si5 0.417679 0.087146 0.861525
O O1 0.486238 0.747217 0.188070
O O2 0.707782 0.738353 0.164025
O O3 0.711315 0.972517 0.212787
O O4 0.647117 0.866605 0.000000
O O5 0.333334 0.666668 0.000000
O O6 0.440786 0.357722 0.612259
O O7 0.453393 0.222414 0.790686
O O8 0.515495 0.477567 0.821394
O O9 0.793941 0.320852 0.500000
O O10 0.438613 0.120827 0.000000
#
# Coordination Sequence:
#
# PCOD8324947 Si02
#       5
#     6   2   6   3   6
#     4  10  20  34  56  86 119 150 183 243 306 358
#     4   9  15  30  54  76 110 151 177 219 304 359
#     4  12  21  38  59  85 117 158 204 239 295 353
#     4  10  20  40  58  84 116 162 196 256 296 322
#     4  11  21  34  59  89 117 149 194 252 305 358
#
# _framework density 18.355277999999998
#
# number of rings (size 3 to 8) (size 9 to 14) (size 15 to 20)
#    0.261    1.043    5.217    2.870    0.000    0.000 
#    1.565    2.609    0.000    0.000    0.000    0.000 
#    0.000    0.000    0.000    0.000    0.000    0.000 
#
# Total GULP energy -285198.720340 kJ/mol
# GULP energy per Si atom -12399.944363 kJ/mol
# Density = 1.831350 g / cm^3
# Si number density = 18.355278 Si / 1000 Ang^3
#
#
#
# Elastic Constant Matrix: (Units=GPa)
#
#
# Indices 1 2 3 4 5 6 
#
# 1 71.1552 10.8431 28.1656 0.0000 0.0000 0.0002
# 2 10.8431 71.1542 28.1657 0.0000 0.0000 0.0000
# 3 28.1656 28.1657 82.0141 0.0000 0.0000 0.0000
# 4 0.0000 0.0000 0.0000 19.0090 0.0000 0.0000
# 5 0.0000 0.0000 0.0000 0.0000 19.0095 0.0000
# 6 0.0002 0.0000 0.0000 0.0000 0.0000 30.1561
#
#
#
# Elastic Compliance Matrix: (Units=1/GPa)
#
#
# Indices 1 2 3 4 5 6 
#
# 1 0.016271 -0.000310 -0.005481 0.000000 0.000000 0.000000
# 2 -0.000310 0.016271 -0.005481 0.000000 0.000000 0.000000
# 3 -0.005481 -0.005481 0.015958 0.000000 0.000000 0.000000
# 4 0.000000 0.000000 0.000000 0.052607 0.000000 0.000000
# 5 0.000000 0.000000 0.000000 0.000000 0.052605 0.000000
# 6 0.000000 0.000000 0.000000 0.000000 0.000000 0.033161
#
#
# Mechanical properties :
#
#
# Convention : Reuss Voigt Hill
#
# Bulk Modulus (GPa) = 38.52908 39.85249 39.19078
# Shear Modulus (GPa) = 22.92852 24.11152 23.52002
#
# Velocity S-wave (km/s) = 3.53817 3.62830 3.58352
# Velocity P-wave (km/s) = 6.14230 6.26989 6.20642
#
# Compressibility (1/GPa) = 0.02595442
#
# Stress axis : x y z
#
# Youngs Moduli (GPa) = 61.46012 61.45914 62.66475
#
# Poissons Ratio (x) = 0.01904 0.34349
# Poissons Ratio (y) = 0.01904 0.34350
# Poissons Ratio (z) = 0.33689 0.33689
#
# Static dielectric constant tensor:
#      x y z
#    x 3.289980 0.000000 0.000000 
#    y 0.000000 3.289990 0.000000 
#    z 0.000000 0.000000 3.086520 
# 
# 
# High freq. dielectric constant tensor:
#      x y z
#    x 1.704310 0.000000 0.000000 
#    y 0.000000 1.704310 0.000000 
#    z 0.000000 0.000000 1.687750 
# 
# From -- ./inp_files/658.got.cif
#   From: 2010.03.12/outbox.cif.g09.slc.cpg/sg174_cif.got.tgz:658.got - 2010.04.02 06:54:58.
