data_PCOD8324585
_publ_section_title
;
Structure prediction by ZEFSAII (Michael W. Deem and Ramdas Pophale) SiO2 
 PCOD8324585
Probable space group: P 61
;
_chemical_formula_sum "Si O2"
_cell_formula_units_Z 48
_cell_length_a 17.263397
_cell_length_b 17.263397
_cell_length_c 9.033128
_cell_angle_alpha 90.000000
_cell_angle_beta 90.000000
_cell_angle_gamma 120.000000
_cell_volume 2331.424263
_symmetry_space_group_name_H-M "P 61"
_symmetry_group_IT_number 169
_symmetry_cell_setting 'hexagonal'
loop_
_space_group_symop_operation_xyz
x,y,z
x-y,x,1/6+z
-y,x-y,1/3+z
-x,-y,1/2+z
-x+y,-x,2/3+z
y,-x+y,5/6+z
loop_
_atom_site_type_symbol
_atom_site_label
_atom_site_fract_x
_atom_site_fract_y
_atom_site_fract_z
Si Si1 0.363637 0.217006 0.409070
Si Si2 0.410900 0.261796 0.736270
Si Si3 0.262233 0.707767 0.201562
Si Si4 0.994321 0.574914 0.553128
Si Si5 0.652998 0.946007 0.740456
Si Si6 0.373316 0.752867 0.571712
Si Si7 0.853781 0.297571 0.271384
Si Si8 0.497320 0.920808 0.935425
O O1 0.359934 0.209730 0.587932
O O2 0.469105 0.277231 0.357741
O O3 0.320432 0.119705 0.329966
O O4 0.304970 0.262595 0.362911
O O5 0.374081 0.323863 0.803258
O O6 0.516531 0.324618 0.699813
O O7 0.392005 0.192315 0.867158
O O8 0.348508 0.701589 0.248181
O O9 0.180804 0.649998 0.316592
O O10 0.219254 0.651057 0.053323
O O11 0.922582 0.498526 0.660974
O O12 0.075893 0.640070 0.651753
O O13 0.026219 0.533003 0.420996
O O14 0.602079 0.897937 0.591578
O O15 0.591521 0.967025 0.847856
O O16 0.450954 0.778325 0.449561
#
# Coordination Sequence:
#
# PCOD8324585 Si02
#       8
#     6   6   6   6   6   6   6   6
#     4  11  25  44  70  96 131 175 220 279 349 421
#     4  12  25  42  60  92 131 176 228 279 343 396
#     4  11  23  38  61  84 129 171 223 270 325 382
#     4  12  24  40  64  86 130 177 224 292 332 401
#     4  11  24  44  68  97 127 168 224 279 347 420
#     4  12  21  41  56  91 133 180 236 279 315 383
#     4  12  25  40  64  93 130 174 235 281 338 395
#     4  11  21  41  57  91 121 171 222 267 331 392
#
# _framework density 20.588274999999999
#
# number of rings (size 3 to 8) (size 9 to 14) (size 15 to 20)
#    0.000    0.500    6.250    3.750    1.750    2.000 
#    0.000    0.000    0.000    0.000    0.000    1.750 
#    0.000    0.000    0.000    0.000    0.000    0.000 
#
# Total GULP energy -594867.993200 kJ/mol
# GULP energy per Si atom -12393.083192 kJ/mol
# Density = 2.054141 g / cm^3
# Si number density = 20.588275 Si / 1000 Ang^3
#
#
#
# Elastic Constant Matrix: (Units=GPa)
#
#
# Indices 1 2 3 4 5 6 
#
# 1 84.0547 37.2017 34.2785 0.0000 0.0000 0.0000
# 2 37.2017 84.0547 34.2785 0.0000 0.0000 0.0000
# 3 34.2785 34.2785 111.8491 0.0000 0.0000 0.0000
# 4 0.0000 0.0000 0.0000 32.3896 0.0000 0.0000
# 5 0.0000 0.0000 0.0000 0.0000 32.3896 0.0000
# 6 0.0000 0.0000 0.0000 0.0000 0.0000 23.4265
#
#
#
# Elastic Compliance Matrix: (Units=1/GPa)
#
#
# Indices 1 2 3 4 5 6 
#
# 1 0.015659 -0.005684 -0.003057 0.000000 0.000000 0.000000
# 2 -0.005684 0.015659 -0.003057 0.000000 0.000000 0.000000
# 3 -0.003057 -0.003057 0.010815 0.000000 0.000000 0.000000
# 4 0.000000 0.000000 0.000000 0.030874 0.000000 0.000000
# 5 0.000000 0.000000 0.000000 0.000000 0.030874 0.000000
# 6 0.000000 0.000000 0.000000 0.000000 0.000000 0.042687
#
#
# Mechanical properties :
#
#
# Convention : Reuss Voigt Hill
#
# Bulk Modulus (GPa) = 53.94706 54.60844 54.27775
# Shear Modulus (GPa) = 28.35369 29.25444 28.80407
#
# Velocity S-wave (km/s) = 3.71506 3.77361 3.74445
# Velocity P-wave (km/s) = 6.68296 6.75044 6.71678
#
# Compressibility (1/GPa) = 0.01853669
#
# Stress axis : x y z
#
# Youngs Moduli (GPa) = 63.85930 63.85930 92.46832
#
# Poissons Ratio (x) = 0.36297 0.28269
# Poissons Ratio (y) = 0.36297 0.28269
# Poissons Ratio (z) = 0.19523 0.19523
#
# Static dielectric constant tensor:
#      x y z
#    x 3.618790 0.000000 0.000000 
#    y 0.000000 3.618790 0.000000 
#    z 0.000000 0.000000 4.173330 
# 
# 
# High freq. dielectric constant tensor:
#      x y z
#    x 1.775530 0.000000 0.000000 
#    y 0.000000 1.775530 0.000000 
#    z 0.000000 0.000000 1.836210 
# 
# From -- ./inp_files/735.got.cif
#   From: 2010.03.12/outbox.cif.g09.slc.cpg/sg169_cif.got.tgz:735.got - 2010.04.02 06:46:06.
