data_PCOD8324182
_publ_section_title
;
Structure prediction by ZEFSAII (Michael W. Deem and Ramdas Pophale) SiO2 
 PCOD8324182
Probable space group: R -3 M
;
_chemical_formula_sum "Si O2"
_cell_formula_units_Z 126
_cell_length_a 20.700124
_cell_length_b 20.700124
_cell_length_c 16.530409
_cell_angle_alpha 90.000000
_cell_angle_beta 90.000000
_cell_angle_gamma 120.000000
_cell_volume 6134.230978
_symmetry_space_group_name_H-M "R -3 M"
_symmetry_group_IT_number 166
_symmetry_cell_setting 'hexagonal'
loop_
_space_group_symop_operation_xyz
x,y,z
-y,x-y,z
-x+y,-x,z
x-y,-y,-z
-x,-x+y,-z
y,x,-z
-x,-y,-z
y,-x+y,-z
x-y,x,-z
-x+y,y,z
x,x-y,z
-y,-x,z
2/3+x,1/3+y,1/3+z
2/3-y,1/3+x-y,1/3+z
2/3-x+y,1/3-x,1/3+z
2/3+x-y,1/3-y,1/3-z
2/3-x,1/3-x+y,1/3-z
2/3+y,1/3+x,1/3-z
2/3-x,1/3-y,1/3-z
2/3+y,1/3-x+y,1/3-z
2/3+x-y,1/3+x,1/3-z
2/3-x+y,1/3+y,1/3+z
2/3+x,1/3+x-y,1/3+z
2/3-y,1/3-x,1/3+z
1/3+x,2/3+y,2/3+z
1/3-y,2/3+x-y,2/3+z
1/3-x+y,2/3-x,2/3+z
1/3+x-y,2/3-y,2/3-z
1/3-x,2/3-x+y,2/3-z
1/3+y,2/3+x,2/3-z
1/3-x,2/3-y,2/3-z
1/3+y,2/3-x+y,2/3-z
1/3+x-y,2/3+x,2/3-z
1/3-x+y,2/3+y,2/3+z
1/3+x,2/3+x-y,2/3+z
1/3-y,2/3-x,2/3+z
loop_
_atom_site_type_symbol
_atom_site_label
_atom_site_fract_x
_atom_site_fract_y
_atom_site_fract_z
Si Si1 0.667336 0.187645 0.207839
Si Si2 0.395802 0.454016 0.235891
Si Si3 0.916145 0.582812 0.333334
Si Si4 0.810449 0.476936 0.026713
O O1 0.586475 0.172950 0.237407
O O2 0.724197 0.275804 0.211602
O O3 0.699165 0.146155 0.263145
O O4 0.661053 0.156728 0.116678
O O5 0.476271 0.523730 0.204342
O O6 0.333334 0.410032 0.166667
O O7 0.408378 0.397152 0.289634
O O8 0.359387 0.484256 0.297370
O O9 0.721953 0.443905 0.028246
O O10 0.826315 0.413158 0.996262
#
# Coordination Sequence:
#
# PCOD8324182 Si02
#       4
#    36  36  18  36
#     4  10  20  37  63  93 125 160 204 258 315 371
#     4  11  25  44  65  91 125 167 215 261 310 372
#     4  12  26  40  58  90 124 168 208 252 304 366
#     4   9  19  37  64  95 124 157 202 260 319 370
#
# _framework density 20.540472000000001
#
# number of rings (size 3 to 8) (size 9 to 14) (size 15 to 20)
#    0.000    1.714    0.000    4.000    4.000    2.286 
#    0.000    7.143    0.000    4.571    0.000    0.000 
#    0.000    0.000    0.000    0.000    0.000    0.000 
#
# Total GULP energy -520408.682642 kJ/mol
# GULP energy per Si atom -12390.682920 kJ/mol
# Density = 2.049372 g / cm^3
# Si number density = 20.540472 Si / 1000 Ang^3
#
#
#
# Elastic Constant Matrix: (Units=GPa)
#
#
# Indices 1 2 3 4 5 6 
#
# 1 96.5316 50.7782 43.5733 -10.9502 -0.0001 0.0000
# 2 50.7782 96.5316 43.5733 10.9502 0.0001 0.0000
# 3 43.5733 43.5733 81.7418 0.0000 0.0000 0.0000
# 4 -10.9502 10.9502 0.0000 34.1704 0.0000 0.0001
# 5 -0.0001 0.0001 0.0000 0.0000 34.1704 -10.9502
# 6 0.0000 0.0000 0.0000 0.0001 -10.9502 22.8767
#
#
#
# Elastic Compliance Matrix: (Units=1/GPa)
#
#
# Indices 1 2 3 4 5 6 
#
# 1 0.017866 -0.007951 -0.005285 0.008273 0.000000 0.000000
# 2 -0.007951 0.017866 -0.005285 -0.008273 0.000000 0.000000
# 3 -0.005285 -0.005285 0.017869 0.000000 0.000000 0.000000
# 4 0.008273 -0.008273 0.000000 0.034567 0.000000 0.000000
# 5 0.000000 0.000000 0.000000 0.000000 0.034567 0.016546
# 6 0.000000 0.000000 0.000000 0.000000 0.016546 0.051633
#
#
# Mechanical properties :
#
#
# Convention : Reuss Voigt Hill
#
# Bulk Modulus (GPa) = 60.39629 61.18386 60.79007
# Shear Modulus (GPa) = 23.04900 27.36883 25.20891
#
# Velocity S-wave (km/s) = 3.35345 3.65421 3.50706
# Velocity P-wave (km/s) = 6.66795 6.90333 6.78666
#
# Compressibility (1/GPa) = 0.01655731
#
# Stress axis : x y z
#
# Youngs Moduli (GPa) = 55.97311 55.97311 55.96434
#
# Poissons Ratio (x) = 0.44502 0.29579
# Poissons Ratio (y) = 0.44502 0.29579
# Poissons Ratio (z) = 0.29584 0.29584
#
# Static dielectric constant tensor:
#      x y z
#    x 4.184620 0.000000 0.000000 
#    y 0.000000 4.184620 0.000000 
#    z 0.000000 0.000000 4.462330 
# 
# 
# High freq. dielectric constant tensor:
#      x y z
#    x 1.804230 0.000000 0.000000 
#    y 0.000000 1.804230 0.000000 
#    z 0.000000 0.000000 1.813110 
# 
# From -- ./inp_files/4950.got.cif
#   From: 2010.03.12/outbox.cif.g09.slc.cpg/sg166_3_cif.got.tgz:4950.got - 2010.04.02 06:38:31.
