data_PCOD8324992
_publ_section_title
;
Structure prediction by ZEFSAII (Michael W. Deem and Ramdas Pophale) SiO2 
 PCOD8324992
Probable space group: P -6
;
_chemical_formula_sum "Si O2"
_cell_formula_units_Z 24
_cell_length_a 8.683975
_cell_length_b 8.683975
_cell_length_c 18.999275
_cell_angle_alpha 90.000000
_cell_angle_beta 90.000000
_cell_angle_gamma 120.000000
_cell_volume 1240.808585
_symmetry_space_group_name_H-M "P -6"
_symmetry_group_IT_number 174
_symmetry_cell_setting 'hexagonal'
loop_
_space_group_symop_operation_xyz
x,y,z
-x+y,-x,-z
-y,x-y,z
x,y,-z
-x+y,-x,z
-y,x-y,-z
loop_
_atom_site_type_symbol
_atom_site_label
_atom_site_fract_x
_atom_site_fract_y
_atom_site_fract_z
Si Si1 0.134246 0.663669 0.577477
Si Si2 0.332935 0.333448 0.722596
Si Si3 0.994048 0.194594 0.077533
Si Si4 0.666849 0.665470 0.777469
O O1 0.160413 0.491110 0.585004
O O2 0.054446 0.662659 0.500000
O O3 0.002854 0.659784 0.637551
O O4 0.525148 0.467517 0.754752
O O5 0.275576 0.134596 0.744543
O O6 0.195102 0.391114 0.750843
O O7 0.991024 0.322613 0.137507
O O8 0.171525 0.176715 0.085258
O O9 0.991678 0.272297 0.000000
#
# Coordination Sequence:
#
# PCOD8324992 Si02
#       4
#     6   6   6   6
#     4   8  15  33  59  85 114 154 192 236 300 352
#     4  12  22  38  59  89 120 154 200 244 294 347
#     4   8  15  33  59  85 114 154 192 236 300 352
#     4  12  22  38  59  89 120 154 200 244 294 347
#
# _framework density 19.342226
#
# number of rings (size 3 to 8) (size 9 to 14) (size 15 to 20)
#    1.000    1.000    5.000    1.500    0.000    0.000 
#    0.000    5.000    0.000    0.000    0.000    0.000 
#    0.000    0.000    0.000    0.000    0.000    0.000 
#
# Total GULP energy -297432.015927 kJ/mol
# GULP energy per Si atom -12393.000664 kJ/mol
# Density = 1.929820 g / cm^3
# Si number density = 19.342226 Si / 1000 Ang^3
#
#
#
# Elastic Constant Matrix: (Units=GPa)
#
#
# Indices 1 2 3 4 5 6 
#
# 1 48.7777 5.6728 31.8341 0.0000 0.0000 0.0000
# 2 5.6728 48.7777 31.8341 0.0000 0.0000 0.0000
# 3 31.8341 31.8341 204.6918 0.0000 0.0000 0.0000
# 4 0.0000 0.0000 0.0000 24.0949 0.0000 0.0000
# 5 0.0000 0.0000 0.0000 0.0000 24.0949 0.0000
# 6 0.0000 0.0000 0.0000 0.0000 0.0000 21.5525
#
#
#
# Elastic Compliance Matrix: (Units=1/GPa)
#
#
# Indices 1 2 3 4 5 6 
#
# 1 0.022823 -0.000376 -0.003491 0.000000 0.000000 0.000000
# 2 -0.000376 0.022823 -0.003491 0.000000 0.000000 0.000000
# 3 -0.003491 -0.003491 0.005971 0.000000 0.000000 0.000000
# 4 0.000000 0.000000 0.000000 0.041503 0.000000 0.000000
# 5 0.000000 0.000000 0.000000 0.000000 0.041503 0.000000
# 6 0.000000 0.000000 0.000000 0.000000 0.000000 0.046398
#
#
# Mechanical properties :
#
#
# Convention : Reuss Voigt Hill
#
# Bulk Modulus (GPa) = 27.09903 48.99213 38.04558
# Shear Modulus (GPa) = 24.03406 29.47553 26.75480
#
# Velocity S-wave (km/s) = 3.52883 3.90795 3.72322
# Velocity P-wave (km/s) = 5.53573 6.76364 6.18025
#
# Compressibility (1/GPa) = 0.03690169
#
# Stress axis : x y z
#
# Youngs Moduli (GPa) = 43.81496 43.81496 167.46882
#
# Poissons Ratio (x) = 0.01647 0.58464
# Poissons Ratio (y) = 0.01647 0.58464
# Poissons Ratio (z) = 0.15296 0.15296
#
# Static dielectric constant tensor:
#      x y z
#    x 3.069120 0.000000 0.000000 
#    y 0.000000 3.069120 0.000000 
#    z 0.000000 0.000000 3.662430 
# 
# 
# High freq. dielectric constant tensor:
#      x y z
#    x 1.714760 0.000000 0.000000 
#    y 0.000000 1.714760 0.000000 
#    z 0.000000 0.000000 1.774170 
# 
# From -- ./inp_files/1030.got.cif
#   From: 2010.03.12/outbox.cif.g09.slc.cpg/sg174_cif.got.tgz:1030.got - 2010.04.02 06:54:58.
