data_PCOD8324337
_publ_section_title
;
Structure prediction by ZEFSAII (Michael W. Deem and Ramdas Pophale) SiO2 
 PCOD8324337
Probable space group: R -3 C 
;
_chemical_formula_sum "Si O2"
_cell_formula_units_Z 216
_cell_length_a 25.743575
_cell_length_b 25.743575
_cell_length_c 21.239495
_cell_angle_alpha 90.000000
_cell_angle_beta 90.000000
_cell_angle_gamma 120.000000
_cell_volume 12190.247756
_symmetry_space_group_name_H-M "R -3 C "
_symmetry_group_IT_number 167
_symmetry_cell_setting 'hexagonal'
loop_
_space_group_symop_operation_xyz
x,y,z
-y,x-y,z
-x+y,-x,z
x-y,-y,1/2-z
-x,-x+y,1/2-z
y,x,1/2-z
-x,-y,-z
y,-x+y,-z
x-y,x,-z
-x+y,y,1/2+z
x,x-y,1/2+z
-y,-x,1/2+z
2/3+x,1/3+y,1/3+z
2/3-y,1/3+x-y,1/3+z
2/3-x+y,1/3-x,1/3+z
2/3+x-y,1/3-y,5/6-z
2/3-x,1/3-x+y,5/6-z
2/3+y,1/3+x,5/6-z
2/3-x,1/3-y,1/3-z
2/3+y,1/3-x+y,1/3-z
2/3+x-y,1/3+x,1/3-z
2/3-x+y,1/3+y,5/6+z
2/3+x,1/3+x-y,5/6+z
2/3-y,1/3-x,5/6+z
1/3+x,2/3+y,2/3+z
1/3-y,2/3+x-y,2/3+z
1/3-x+y,2/3-x,2/3+z
1/3+x-y,2/3-y,1/6-z
1/3-x,2/3-x+y,1/6-z
1/3+y,2/3+x,1/6-z
1/3-x,2/3-y,2/3-z
1/3+y,2/3-x+y,2/3-z
1/3+x-y,2/3+x,2/3-z
1/3-x+y,2/3+y,1/6+z
1/3+x,2/3+x-y,1/6+z
1/3-y,2/3-x,1/6+z
loop_
_atom_site_type_symbol
_atom_site_label
_atom_site_fract_x
_atom_site_fract_y
_atom_site_fract_z
Si Si1 0.214126 0.862328 0.515611
Si Si2 0.838089 0.279725 0.794572
Si Si3 0.549789 0.972818 0.379049
Si Si4 0.220390 0.054122 0.557829
Si Si5 0.769479 0.756823 0.681893
Si Si6 0.754828 0.717612 0.156615
O O1 0.183901 0.850568 0.583334
O O2 0.202115 0.908333 0.478749
O O3 0.183792 0.796848 0.482320
O O4 0.285185 0.893200 0.521261
O O5 0.849670 0.330097 0.846170
O O6 0.766176 0.237462 0.788168
O O7 0.868048 0.302792 0.726222
O O8 0.539642 0.946875 0.449560
O O9 0.594438 0.958642 0.340519
O O10 0.582321 0.043946 0.373031
O O11 0.217061 0.042259 0.633374
O O12 0.789648 0.789648 0.750000
O O13 0.737703 0.685625 0.697741
#
# Coordination Sequence:
#
# PCOD8324337 Si02
#       6
#    36  36  36  36  36  36
#     4  11  21  32  50  77 105 139 183 217 255 308
#     4  11  22  36  54  76 106 139 176 219 266 308
#     4   9  22  34  51  76 107 138 184 214 262 315
#     4  10  23  36  53  79 106 139 179 218 260 318
#     4  11  21  32  52  75 108 143 180 215 259 311
#     4  10  21  35  51  74 106 146 173 219 264 316
#
# _framework density 17.719082
#
# number of rings (size 3 to 8) (size 9 to 14) (size 15 to 20)
#    0.000    1.667    3.333    1.000    9.333    2.000 
#    0.000    0.000    0.000    0.333    0.000    0.000 
#    0.000    0.000    5.667    0.000    0.000    0.000 
#
# Total GULP energy -892229.567189 kJ/mol
# GULP energy per Si atom -12392.077322 kJ/mol
# Density = 1.767875 g / cm^3
# Si number density = 17.719082 Si / 1000 Ang^3
#
#
#
# Elastic Constant Matrix: (Units=GPa)
#
#
# Indices 1 2 3 4 5 6 
#
# 1 65.8865 22.9290 34.7169 -6.2337 -0.0002 0.0000
# 2 22.9290 65.8865 34.7169 6.2337 0.0002 0.0000
# 3 34.7169 34.7169 122.0812 0.0000 0.0000 0.0000
# 4 -6.2337 6.2337 0.0000 23.7725 0.0000 0.0002
# 5 -0.0002 0.0002 0.0000 0.0000 23.7725 -6.2337
# 6 0.0000 0.0000 0.0000 0.0002 -6.2337 21.4787
#
#
#
# Elastic Compliance Matrix: (Units=1/GPa)
#
#
# Indices 1 2 3 4 5 6 
#
# 1 0.019837 -0.005359 -0.004117 0.006607 0.000000 0.000000
# 2 -0.005359 0.019837 -0.004117 -0.006607 0.000000 0.000000
# 3 -0.004117 -0.004117 0.010533 0.000000 0.000000 0.000000
# 4 0.006607 -0.006607 0.000000 0.045531 0.000000 0.000000
# 5 0.000000 0.000000 0.000000 0.000000 0.045531 0.013214
# 6 0.000000 0.000000 0.000000 0.000000 0.013214 0.050393
#
#
# Mechanical properties :
#
#
# Convention : Reuss Voigt Hill
#
# Bulk Modulus (GPa) = 43.44012 48.73110 46.08561
# Shear Modulus (GPa) = 22.07295 24.57082 23.32188
#
# Velocity S-wave (km/s) = 3.53330 3.72786 3.63189
# Velocity P-wave (km/s) = 6.41988 6.78904 6.60704
#
# Compressibility (1/GPa) = 0.02302020
#
# Stress axis : x y z
#
# Youngs Moduli (GPa) = 50.41033 50.41033 94.94030
#
# Poissons Ratio (x) = 0.27016 0.39089
# Poissons Ratio (y) = 0.27016 0.39089
# Poissons Ratio (z) = 0.20755 0.20755
#
# Static dielectric constant tensor:
#      x y z
#    x 2.462700 0.000000 0.000000 
#    y 0.000000 2.462700 0.000000 
#    z 0.000000 0.000000 3.114340 
# 
# 
# High freq. dielectric constant tensor:
#      x y z
#    x 1.656850 0.000000 0.000000 
#    y 0.000000 1.656850 0.000000 
#    z 0.000000 0.000000 1.709730 
# 
# From -- ./inp_files/4614.got.cif
#   From: 2010.03.12/outbox.cif.g09.slc.cpg/sg167_3_cif.got.tgz:4614.got - 2010.04.02 06:42:56.
