data_PCOD8324738
_publ_section_title
;
Structure prediction by ZEFSAII (Michael W. Deem and Ramdas Pophale) SiO2 
 PCOD8324738
Probable space group: P 62
;
_chemical_formula_sum "Si O2"
_cell_formula_units_Z 30
_cell_length_a 7.637391
_cell_length_b 7.637391
_cell_length_c 22.616816
_cell_angle_alpha 90.000000
_cell_angle_beta 90.000000
_cell_angle_gamma 120.000000
_cell_volume 1142.489314
_symmetry_space_group_name_H-M "P 62"
_symmetry_group_IT_number 171
_symmetry_cell_setting 'hexagonal'
loop_
_space_group_symop_operation_xyz
x,y,z
x-y,x,1/3+z
-y,x-y,2/3+z
-x,-y,z
-x+y,-x,1/3+z
y,-x+y,2/3+z
loop_
_atom_site_type_symbol
_atom_site_label
_atom_site_fract_x
_atom_site_fract_y
_atom_site_fract_z
Si Si1 0.947015 0.219315 0.595500
Si Si2 0.307341 0.795108 0.121535
Si Si3 0.734496 0.444148 0.653421
Si Si4 0.259607 0.350057 0.007764
Si Si5 0.186741 0.849682 0.469079
O O1 0.816371 0.322305 0.615158
O O2 0.961897 0.208437 0.524922
O O3 0.175672 0.339494 0.620944
O O4 0.829382 0.999601 0.626487
O O5 0.289596 0.581803 0.140373
O O6 0.090654 0.762700 0.140393
O O7 0.500000 0.000000 0.150050
O O8 0.342696 0.826013 0.051970
O O9 0.490368 0.328484 0.658110
O O10 0.500000 0.500000 0.004750
O O11 0.200559 0.262145 0.074428
#
# Coordination Sequence:
#
# PCOD8324738 Si02
#       5
#     6   6   6   6   6
#     4  10  19  38  67 102 136 190 245 303 361 468
#     4  10  20  42  66  98 140 188 239 315 366 454
#     4   9  19  37  66  92 134 188 230 290 384 418
#     4   9  20  37  64 100 138 188 237 305 373 448
#     4  10  23  37  70 107 133 189 257 290 386 457
#
# _framework density 26.258448999999999
#
# number of rings (size 3 to 8) (size 9 to 14) (size 15 to 20)
#    0.000    2.400    2.000    0.000   11.200    0.000 
#    0.000    3.000    0.000    2.400    0.000    0.000 
#    0.000    0.000    0.000    0.000    0.000    0.000 
#
# Total GULP energy -371647.470641 kJ/mol
# GULP energy per Si atom -12388.249021 kJ/mol
# Density = 2.619868 g / cm^3
# Si number density = 26.258449 Si / 1000 Ang^3
#
#
#
# Elastic Constant Matrix: (Units=GPa)
#
#
# Indices 1 2 3 4 5 6 
#
# 1 106.6088 37.2202 42.4515 0.0000 0.0000 0.0000
# 2 37.2202 106.6088 42.4515 0.0000 0.0000 0.0000
# 3 42.4515 42.4515 179.4465 0.0000 0.0000 0.0000
# 4 0.0000 0.0000 0.0000 127.7710 0.0000 0.0000
# 5 0.0000 0.0000 0.0000 0.0000 127.7710 0.0000
# 6 0.0000 0.0000 0.0000 0.0000 0.0000 34.6943
#
#
#
# Elastic Compliance Matrix: (Units=1/GPa)
#
#
# Indices 1 2 3 4 5 6 
#
# 1 0.011246 -0.003165 -0.001912 0.000000 0.000000 0.000000
# 2 -0.003165 0.011246 -0.001912 0.000000 0.000000 0.000000
# 3 -0.001912 -0.001912 0.006477 0.000000 0.000000 0.000000
# 4 0.000000 0.000000 0.000000 0.007826 0.000000 0.000000
# 5 0.000000 0.000000 0.000000 0.000000 0.007826 0.000000
# 6 0.000000 0.000000 0.000000 0.000000 0.000000 0.028823
#
#
# Mechanical properties :
#
#
# Convention : Reuss Voigt Hill
#
# Bulk Modulus (GPa) = 66.69956 70.76784 68.73370
# Shear Modulus (GPa) = 54.10014 76.08333 65.09174
#
# Velocity S-wave (km/s) = 4.54397 5.38866 4.98424
# Velocity P-wave (km/s) = 7.27919 8.10715 7.70430
#
# Compressibility (1/GPa) = 0.01499260
#
# Stress axis : x y z
#
# Youngs Moduli (GPa) = 88.91726 88.91726 154.38715
#
# Poissons Ratio (x) = 0.28144 0.29515
# Poissons Ratio (y) = 0.28144 0.29515
# Poissons Ratio (z) = 0.16999 0.16999
#
# Static dielectric constant tensor:
#      x y z
#    x 2.592430 0.000000 0.000000 
#    y 0.000000 2.592430 0.000000 
#    z 0.000000 0.000000 4.530600 
# 
# 
# High freq. dielectric constant tensor:
#      x y z
#    x 2.054920 0.000000 0.000000 
#    y 0.000000 2.054920 0.000000 
#    z 0.000000 0.000000 2.034960 
# 
# From -- ./inp_files/5382.got.cif
#   From: 2010.03.12/outbox.cif.g09.slc.cpg/sg171_3_cif.got.tgz:5382.got - 2010.04.02 06:49:11.
