data_PCOD8324972
_publ_section_title
;
Structure prediction by ZEFSAII (Michael W. Deem and Ramdas Pophale) SiO2 
 PCOD8324972
Probable space group: P -6
;
_chemical_formula_sum "Si O2"
_cell_formula_units_Z 30
_cell_length_a 8.568489
_cell_length_b 8.568489
_cell_length_c 24.045575
_cell_angle_alpha 90.000000
_cell_angle_beta 90.000000
_cell_angle_gamma 120.000000
_cell_volume 1528.883119
_symmetry_space_group_name_H-M "P -6"
_symmetry_group_IT_number 174
_symmetry_cell_setting 'hexagonal'
loop_
_space_group_symop_operation_xyz
x,y,z
-x+y,-x,-z
-y,x-y,z
x,y,-z
-x+y,-x,z
-y,x-y,-z
loop_
_atom_site_type_symbol
_atom_site_label
_atom_site_fract_x
_atom_site_fract_y
_atom_site_fract_z
Si Si1 0.661306 0.665802 0.324699
Si Si2 0.806910 0.013713 0.162897
Si Si3 0.994494 0.668071 0.280299
Si Si4 0.793111 0.806489 0.438609
Si Si5 0.694256 0.148984 0.938018
O O1 0.800801 0.601667 0.307489
O O2 0.465594 0.529395 0.300314
O O3 0.654690 0.676002 0.391941
O O4 0.733111 0.863876 0.299681
O O5 0.689824 0.023314 0.213622
O O6 0.711646 0.019039 0.106130
O O7 0.012745 0.183563 0.165302
O O8 0.711856 0.730541 0.500000
O O9 0.829691 0.011667 0.432183
O O10 0.854266 0.358112 0.930458
O O11 0.705030 0.081138 0.000000
#
# Coordination Sequence:
#
# PCOD8324972 Si02
#       5
#     6   6   6   6   6
#     4  12  22  41  59  89 123 163 203 256 320 379
#     4  10  21  36  56  86 117 159 209 261 300 352
#     4  12  24  39  60  88 128 162 208 260 315 377
#     4   8  15  33  64  88 111 154 197 252 320 375
#     4   8  18  35  57  85 117 152 197 251 309 371
#
# _framework density 19.622169
#
# number of rings (size 3 to 8) (size 9 to 14) (size 15 to 20)
#    1.200    0.800    4.000    1.200    2.800    0.800 
#    0.000    2.000    0.000    0.800    0.000    0.000 
#    0.000    0.000    0.000    0.000    0.000    0.000 
#
# Total GULP energy -371776.724322 kJ/mol
# GULP energy per Si atom -12392.557477 kJ/mol
# Density = 1.957751 g / cm^3
# Si number density = 19.622169 Si / 1000 Ang^3
#
#
#
# Elastic Constant Matrix: (Units=GPa)
#
#
# Indices 1 2 3 4 5 6 
#
# 1 56.2505 10.9548 41.3974 0.0000 0.0000 0.0000
# 2 10.9548 56.2505 41.3974 0.0000 0.0000 0.0000
# 3 41.3974 41.3974 200.5279 0.0000 0.0000 0.0000
# 4 0.0000 0.0000 0.0000 33.1193 0.0000 0.0000
# 5 0.0000 0.0000 0.0000 0.0000 33.1193 0.0000
# 6 0.0000 0.0000 0.0000 0.0000 0.0000 22.6478
#
#
#
# Elastic Compliance Matrix: (Units=1/GPa)
#
#
# Indices 1 2 3 4 5 6 
#
# 1 0.021016 -0.001061 -0.004120 0.000000 0.000000 0.000000
# 2 -0.001061 0.021016 -0.004120 0.000000 0.000000 0.000000
# 3 -0.004120 -0.004120 0.006688 0.000000 0.000000 0.000000
# 4 0.000000 0.000000 0.000000 0.030194 0.000000 0.000000
# 5 0.000000 0.000000 0.000000 0.000000 0.030194 0.000000
# 6 0.000000 0.000000 0.000000 0.000000 0.000000 0.044154
#
#
# Mechanical properties :
#
#
# Convention : Reuss Voigt Hill
#
# Bulk Modulus (GPa) = 33.20115 55.61425 44.40770
# Shear Modulus (GPa) = 27.48730 32.39589 29.94160
#
# Velocity S-wave (km/s) = 3.74683 4.06764 3.91052
# Velocity P-wave (km/s) = 5.97287 7.10387 6.56278
#
# Compressibility (1/GPa) = 0.03011944
#
# Stress axis : x y z
#
# Youngs Moduli (GPa) = 47.58269 47.58269 149.52752
#
# Poissons Ratio (x) = 0.05049 0.61599
# Poissons Ratio (y) = 0.05049 0.61599
# Poissons Ratio (z) = 0.19602 0.19602
#
# Static dielectric constant tensor:
#      x y z
#    x 3.114640 0.000000 0.000000 
#    y 0.000000 3.114640 0.000000 
#    z 0.000000 0.000000 3.573780 
# 
# 
# High freq. dielectric constant tensor:
#      x y z
#    x 1.730120 0.000000 0.000000 
#    y 0.000000 1.730120 0.000000 
#    z 0.000000 0.000000 1.780900 
# 
# From -- ./inp_files/1069.got.cif
#   From: 2010.03.12/outbox.cif.g09.slc.cpg/sg174_cif.got.tgz:1069.got - 2010.04.02 06:54:58.
