data_PCOD8324919
_publ_section_title
;
Structure prediction by ZEFSAII (Michael W. Deem and Ramdas Pophale) SiO2 
 PCOD8324919
Probable space group: P -6
;
_chemical_formula_sum "Si O2"
_cell_formula_units_Z 26
_cell_length_a 12.845539
_cell_length_b 12.845539
_cell_length_c 10.769752
_cell_angle_alpha 90.000000
_cell_angle_beta 90.000000
_cell_angle_gamma 120.000000
_cell_volume 1539.008429
_symmetry_space_group_name_H-M "P -6"
_symmetry_group_IT_number 174
_symmetry_cell_setting 'hexagonal'
loop_
_space_group_symop_operation_xyz
x,y,z
-x+y,-x,-z
-y,x-y,z
x,y,-z
-x+y,-x,z
-y,x-y,-z
loop_
_atom_site_type_symbol
_atom_site_label
_atom_site_fract_x
_atom_site_fract_y
_atom_site_fract_z
Si Si1 0.759968 0.758161 0.359323
Si Si2 0.668768 0.085620 0.133890
Si Si3 0.869278 0.340009 0.209406
Si Si4 0.666668 0.333335 0.641498
Si Si5 0.240674 0.243069 0.642386
O O1 0.716325 0.717882 0.500000
O O2 0.674396 0.651722 0.266227
O O3 0.751008 0.873914 0.323646
O O4 0.897347 0.791047 0.343605
O O5 0.776752 0.223482 0.131605
O O6 0.538614 0.077055 0.129599
O O7 0.675305 0.015254 0.255191
O O8 0.678556 0.030815 0.000000
O O9 0.796361 0.356910 0.320218
O O10 0.666667 0.333334 0.500000
O O11 0.284532 0.288128 0.500000
#
# Coordination Sequence:
#
# PCOD8324919 Si02
#       5
#     6   6   6   2   6
#     4   9  16  29  48  71  96 124 155 190 230 275
#     4  10  19  32  47  69  97 125 154 190 231 278
#     4   9  18  28  46  68  93 127 157 184 228 280
#     4   9  15  24  40  71 103 120 145 191 232 267
#     4   9  18  31  49  71  96 124 156 191 230 274
#
# _framework density 16.893995
#
# number of rings (size 3 to 8) (size 9 to 14) (size 15 to 20)
#    0.000    2.769    0.000    2.308    0.000    8.308 
#    0.000    5.769    0.000    0.923    0.000    0.000 
#    0.000    0.000    0.000    0.000    0.000    0.000 
#
# Total GULP energy -322171.120237 kJ/mol
# GULP energy per Si atom -12391.196932 kJ/mol
# Density = 1.685554 g / cm^3
# Si number density = 16.893995 Si / 1000 Ang^3
#
#
#
# Elastic Constant Matrix: (Units=GPa)
#
#
# Indices 1 2 3 4 5 6 
#
# 1 81.2708 26.6353 40.6938 0.0000 0.0000 0.0000
# 2 26.6353 81.2703 40.6933 0.0000 0.0000 -0.0001
# 3 40.6938 40.6933 120.1843 0.0000 0.0000 0.0003
# 4 0.0000 0.0000 0.0000 8.3063 0.0000 0.0000
# 5 0.0000 0.0000 0.0000 0.0000 8.3066 0.0000
# 6 0.0000 -0.0001 0.0003 0.0000 0.0000 27.3175
#
#
#
# Elastic Compliance Matrix: (Units=1/GPa)
#
#
# Indices 1 2 3 4 5 6 
#
# 1 0.015374 -0.002929 -0.004214 0.000000 0.000000 0.000000
# 2 -0.002929 0.015375 -0.004214 0.000000 0.000000 0.000000
# 3 -0.004214 -0.004214 0.011174 0.000000 0.000000 0.000000
# 4 0.000000 0.000000 0.000000 0.120390 0.000000 0.000000
# 5 0.000000 0.000000 0.000000 0.000000 0.120387 0.000000
# 6 0.000000 0.000000 0.000000 0.000000 0.000000 0.036607
#
#
# Mechanical properties :
#
#
# Convention : Reuss Voigt Hill
#
# Bulk Modulus (GPa) = 52.05739 55.41891 53.73815
# Shear Modulus (GPa) = 14.35034 20.43294 17.39164
#
# Velocity S-wave (km/s) = 2.91767 3.48153 3.21200
# Velocity P-wave (km/s) = 6.49857 7.00261 6.75529
#
# Compressibility (1/GPa) = 0.01920957
#
# Stress axis : x y z
#
# Youngs Moduli (GPa) = 65.04301 65.04274 89.49150
#
# Poissons Ratio (x) = 0.19049 0.37712
# Poissons Ratio (y) = 0.19049 0.37712
# Poissons Ratio (z) = 0.27410 0.27409
#
# Static dielectric constant tensor:
#      x y z
#    x 2.997370 0.000000 0.000000 
#    y 0.000000 2.997390 0.000000 
#    z 0.000000 0.000000 3.179920 
# 
# 
# High freq. dielectric constant tensor:
#      x y z
#    x 1.628030 0.000000 0.000000 
#    y 0.000000 1.628030 0.000000 
#    z 0.000000 0.000000 1.657170 
# 
# From -- ./inp_files/668.got.cif
#   From: 2010.03.12/outbox.cif.g09.slc.cpg/sg174_cif.got.tgz:668.got - 2010.04.02 06:54:58.
