data_PCOD8324861
_publ_section_title
;
Structure prediction by ZEFSAII (Michael W. Deem and Ramdas Pophale) SiO2 
 PCOD8324861
Probable space group: P 63
;
_chemical_formula_sum "Si O2"
_cell_formula_units_Z 30
_cell_length_a 8.555209
_cell_length_b 8.555209
_cell_length_c 23.838465
_cell_angle_alpha 90.000000
_cell_angle_beta 90.000000
_cell_angle_gamma 120.000000
_cell_volume 1511.019837
_symmetry_space_group_name_H-M "P 63"
_symmetry_group_IT_number 173
_symmetry_cell_setting 'hexagonal'
loop_
_space_group_symop_operation_xyz
x,y,z
x-y,x,1/2+z
-y,x-y,z
-x,-y,1/2+z
-x+y,-x,z
y,-x+y,1/2+z
loop_
_atom_site_type_symbol
_atom_site_label
_atom_site_fract_x
_atom_site_fract_y
_atom_site_fract_z
Si Si1 0.307431 0.454283 0.056590
Si Si2 0.323473 0.336077 0.934612
Si Si3 0.326636 0.339457 0.390016
Si Si4 0.786671 0.971692 0.162337
Si Si5 0.305385 0.453446 0.268403
O O1 0.498275 0.643518 0.058618
O O2 0.290553 0.328777 0.108341
O O3 0.298732 0.349524 0.000481
O O4 0.526148 0.466487 0.913557
O O5 0.272396 0.132016 0.923031
O O6 0.195393 0.390128 0.900452
O O7 0.292426 0.345307 0.324302
O O8 0.671950 0.960552 0.216622
O O9 0.836428 0.810836 0.162227
O O10 0.497224 0.641675 0.266361
#
# Coordination Sequence:
#
# PCOD8324861 Si02
#       5
#     6   6   6   6   6
#     4  10  21  42  65  89 128 178 216 272 341 394
#     4  12  24  42  65 101 136 178 227 284 346 412
#     4  12  24  42  65 101 136 178 227 284 346 412
#     4  10  24  36  62  96 122 164 230 270 322 394
#     4  10  21  42  65  89 128 178 216 272 341 394
#
# _framework density 19.854142
#
# number of rings (size 3 to 8) (size 9 to 14) (size 15 to 20)
#    1.200    0.000    4.000    2.400    5.600    0.000 
#    0.000    0.000    0.000    6.400    0.000    0.000 
#    0.000    0.000    0.000    0.000    0.000    0.000 
#
# Total GULP energy -371970.704249 kJ/mol
# GULP energy per Si atom -12399.023475 kJ/mol
# Density = 1.980895 g / cm^3
# Si number density = 19.854142 Si / 1000 Ang^3
#
#
#
# Elastic Constant Matrix: (Units=GPa)
#
#
# Indices 1 2 3 4 5 6 
#
# 1 58.1666 1.0664 43.2719 0.0000 0.0000 0.0000
# 2 1.0664 58.1666 43.2719 0.0000 0.0000 0.0000
# 3 43.2719 43.2719 200.3180 0.0000 0.0000 0.0000
# 4 0.0000 0.0000 0.0000 25.7332 0.0000 0.0000
# 5 0.0000 0.0000 0.0000 0.0000 25.7332 0.0000
# 6 0.0000 0.0000 0.0000 0.0000 0.0000 28.5501
#
#
#
# Elastic Compliance Matrix: (Units=1/GPa)
#
#
# Indices 1 2 3 4 5 6 
#
# 1 0.021091 0.003578 -0.005329 0.000000 0.000000 0.000000
# 2 0.003578 0.021091 -0.005329 0.000000 0.000000 0.000000
# 3 -0.005329 -0.005329 0.007294 0.000000 0.000000 0.000000
# 4 0.000000 0.000000 0.000000 0.038860 0.000000 0.000000
# 5 0.000000 0.000000 0.000000 0.000000 0.038860 0.000000
# 6 0.000000 0.000000 0.000000 0.000000 0.000000 0.035026
#
#
# Mechanical properties :
#
#
# Convention : Reuss Voigt Hill
#
# Bulk Modulus (GPa) = 28.31610 54.65241 41.48426
# Shear Modulus (GPa) = 26.57400 31.27269 28.92334
#
# Velocity S-wave (km/s) = 3.66247 3.97309 3.82093
# Velocity P-wave (km/s) = 5.67256 6.97380 6.35657
#
# Compressibility (1/GPa) = 0.03531560
#
# Stress axis : x y z
#
# Youngs Moduli (GPa) = 47.41454 47.41454 137.09455
#
# Poissons Ratio (x) = -0.16963 0.73054
# Poissons Ratio (y) = -0.16963 0.73054
# Poissons Ratio (z) = 0.25266 0.25266
#
# Static dielectric constant tensor:
#      x y z
#    x 3.418390 0.000000 0.000000 
#    y 0.000000 3.418390 0.000000 
#    z 0.000000 0.000000 3.506900 
# 
# 
# High freq. dielectric constant tensor:
#      x y z
#    x 1.762140 0.000000 0.000000 
#    y 0.000000 1.762140 0.000000 
#    z 0.000000 0.000000 1.785680 
# 
# From -- ./inp_files/1421.got.cif
#   From: 2010.03.12/outbox.cif.g09.slc.cpg/sg173_cif.got.tgz:1421.got - 2010.04.02 06:54:12.
