data_PCOD8324196
_publ_section_title
;
Structure prediction by ZEFSAII (Michael W. Deem and Ramdas Pophale) SiO2 
 PCOD8324196
Probable space group: R -3 M
;
_chemical_formula_sum "Si O2"
_cell_formula_units_Z 162
_cell_length_a 20.179360
_cell_length_b 20.179360
_cell_length_c 22.340372
_cell_angle_alpha 90.000000
_cell_angle_beta 90.000000
_cell_angle_gamma 120.000000
_cell_volume 7878.359759
_symmetry_space_group_name_H-M "R -3 M"
_symmetry_group_IT_number 166
_symmetry_cell_setting 'hexagonal'
loop_
_space_group_symop_operation_xyz
x,y,z
-y,x-y,z
-x+y,-x,z
x-y,-y,-z
-x,-x+y,-z
y,x,-z
-x,-y,-z
y,-x+y,-z
x-y,x,-z
-x+y,y,z
x,x-y,z
-y,-x,z
2/3+x,1/3+y,1/3+z
2/3-y,1/3+x-y,1/3+z
2/3-x+y,1/3-x,1/3+z
2/3+x-y,1/3-y,1/3-z
2/3-x,1/3-x+y,1/3-z
2/3+y,1/3+x,1/3-z
2/3-x,1/3-y,1/3-z
2/3+y,1/3-x+y,1/3-z
2/3+x-y,1/3+x,1/3-z
2/3-x+y,1/3+y,1/3+z
2/3+x,1/3+x-y,1/3+z
2/3-y,1/3-x,1/3+z
1/3+x,2/3+y,2/3+z
1/3-y,2/3+x-y,2/3+z
1/3-x+y,2/3-x,2/3+z
1/3+x-y,2/3-y,2/3-z
1/3-x,2/3-x+y,2/3-z
1/3+y,2/3+x,2/3-z
1/3-x,2/3-y,2/3-z
1/3+y,2/3-x+y,2/3-z
1/3+x-y,2/3+x,2/3-z
1/3-x+y,2/3+y,2/3+z
1/3+x,2/3+x-y,2/3+z
1/3-y,2/3-x,2/3+z
loop_
_atom_site_type_symbol
_atom_site_label
_atom_site_fract_x
_atom_site_fract_y
_atom_site_fract_z
Si Si1 0.802942 0.047734 0.180282
Si Si2 0.740797 0.946583 0.604178
Si Si3 0.462916 0.078946 0.037893
Si Si4 0.000000 0.843602 0.500000
Si Si5 0.136951 0.430371 0.604429
O O1 0.889505 0.110495 0.201830
O O2 0.757492 0.090825 0.166667
O O3 0.752412 0.980268 0.227924
O O4 0.811066 0.010993 0.118602
O O5 0.732530 0.866265 0.588519
O O6 0.656080 0.935901 0.602012
O O7 0.782091 0.976044 0.668076
O O8 0.797665 0.007953 0.555965
O O9 0.551118 0.102235 0.039512
O O10 0.413773 0.000000 0.000000
O O11 0.926967 0.853934 0.496678
O O12 0.214862 0.429723 0.601474
O O13 0.135675 0.469009 0.666667
#
# Coordination Sequence:
#
# PCOD8324196 Si02
#       5
#    36  36  36  18  36
#     4  11  23  40  64  91 122 160 203 253 315 378
#     4  10  21  36  57  84 116 153 199 246 298 358
#     4  11  23  37  58  87 121 157 197 246 303 366
#     4  10  21  36  56  82 117 160 204 248 298 362
#     4  11  23  40  64  92 123 160 204 260 319 377
#
# _framework density 20.562656
#
# number of rings (size 3 to 8) (size 9 to 14) (size 15 to 20)
#    0.000    1.333    0.000    6.111    4.667    3.556 
#    0.000    0.000    0.000   14.222    0.000    0.000 
#    0.000    0.000    0.000    0.000    0.000    0.000 
#
# Total GULP energy -669248.314432 kJ/mol
# GULP energy per Si atom -12393.487304 kJ/mol
# Density = 2.051585 g / cm^3
# Si number density = 20.562656 Si / 1000 Ang^3
#
#
#
# Elastic Constant Matrix: (Units=GPa)
#
#
# Indices 1 2 3 4 5 6 
#
# 1 85.7977 30.4231 33.2887 -1.8081 -0.0002 0.0000
# 2 30.4231 85.7977 33.2887 1.8081 0.0002 0.0000
# 3 33.2887 33.2887 142.8179 0.0000 0.0000 0.0000
# 4 -1.8081 1.8081 0.0000 36.3549 0.0000 0.0002
# 5 -0.0002 0.0002 0.0000 0.0000 36.3549 -1.8081
# 6 0.0000 0.0000 0.0000 0.0002 -1.8081 27.6873
#
#
#
# Elastic Compliance Matrix: (Units=1/GPa)
#
#
# Indices 1 2 3 4 5 6 
#
# 1 0.014024 -0.004094 -0.002315 0.000901 0.000000 0.000000
# 2 -0.004094 0.014024 -0.002315 -0.000901 0.000000 0.000000
# 3 -0.002315 -0.002315 0.008081 0.000000 0.000000 0.000000
# 4 0.000901 -0.000901 0.000000 0.027596 0.000000 0.000000
# 5 0.000000 0.000000 0.000000 0.000000 0.027596 0.001802
# 6 0.000000 0.000000 0.000000 0.000000 0.001802 0.036235
#
#
# Mechanical properties :
#
#
# Convention : Reuss Voigt Hill
#
# Bulk Modulus (GPa) = 53.52450 56.49047 55.00749
# Shear Modulus (GPa) = 33.06219 34.57358 33.81788
#
# Velocity S-wave (km/s) = 4.01418 4.10491 4.05980
# Velocity P-wave (km/s) = 6.89720 7.07100 6.98464
#
# Compressibility (1/GPa) = 0.01868303
#
# Stress axis : x y z
#
# Youngs Moduli (GPa) = 71.30658 71.30658 123.74835
#
# Poissons Ratio (x) = 0.29191 0.28643
# Poissons Ratio (y) = 0.29191 0.28643
# Poissons Ratio (z) = 0.16505 0.16505
#
# Static dielectric constant tensor:
#      x y z
#    x 3.767250 0.000000 0.000000 
#    y 0.000000 3.767250 0.000000 
#    z 0.000000 0.000000 3.909260 
# 
# 
# High freq. dielectric constant tensor:
#      x y z
#    x 1.799300 0.000000 0.000000 
#    y 0.000000 1.799300 0.000000 
#    z 0.000000 0.000000 1.819030 
# 
# From -- ./inp_files/6773.got.cif
#   From: 2010.03.12/outbox.cif.g09.slc.cpg/sg166_4_cif.got.tgz:6773.got - 2010.04.02 06:38:31.
