data_PCOD8324048
_publ_section_title
;
Structure prediction by ZEFSAII (Michael W. Deem and Ramdas Pophale) SiO2 
 PCOD8324048
Probable space group: R -3 M
;
_chemical_formula_sum "Si O2"
_cell_formula_units_Z 216
_cell_length_a 22.991320
_cell_length_b 22.991320
_cell_length_c 25.397877
_cell_angle_alpha 90.000000
_cell_angle_beta 90.000000
_cell_angle_gamma 120.000000
_cell_volume 11626.683747
_symmetry_space_group_name_H-M "R -3 M"
_symmetry_group_IT_number 166
_symmetry_cell_setting 'hexagonal'
loop_
_space_group_symop_operation_xyz
x,y,z
-y,x-y,z
-x+y,-x,z
x-y,-y,-z
-x,-x+y,-z
y,x,-z
-x,-y,-z
y,-x+y,-z
x-y,x,-z
-x+y,y,z
x,x-y,z
-y,-x,z
2/3+x,1/3+y,1/3+z
2/3-y,1/3+x-y,1/3+z
2/3-x+y,1/3-x,1/3+z
2/3+x-y,1/3-y,1/3-z
2/3-x,1/3-x+y,1/3-z
2/3+y,1/3+x,1/3-z
2/3-x,1/3-y,1/3-z
2/3+y,1/3-x+y,1/3-z
2/3+x-y,1/3+x,1/3-z
2/3-x+y,1/3+y,1/3+z
2/3+x,1/3+x-y,1/3+z
2/3-y,1/3-x,1/3+z
1/3+x,2/3+y,2/3+z
1/3-y,2/3+x-y,2/3+z
1/3-x+y,2/3-x,2/3+z
1/3+x-y,2/3-y,2/3-z
1/3-x,2/3-x+y,2/3-z
1/3+y,2/3+x,2/3-z
1/3-x,2/3-y,2/3-z
1/3+y,2/3-x+y,2/3-z
1/3+x-y,2/3+x,2/3-z
1/3-x+y,2/3+y,2/3+z
1/3+x,2/3+x-y,2/3+z
1/3-y,2/3-x,2/3+z
loop_
_atom_site_type_symbol
_atom_site_label
_atom_site_fract_x
_atom_site_fract_y
_atom_site_fract_z
Si Si1 0.636520 0.975235 0.606981
Si Si2 0.666667 0.195433 0.833334
Si Si3 0.171044 0.211449 0.894347
Si Si4 0.796065 0.333334 0.333334
Si Si5 0.851879 0.276977 0.042586
Si Si6 0.610367 0.522499 0.743145
Si Si7 0.536339 0.332905 0.128557
O O1 0.614047 0.947381 0.666667
O O2 0.578709 0.940000 0.563768
O O3 0.697103 0.964972 0.585846
O O4 0.647033 0.049930 0.608382
O O5 0.601858 0.203715 0.843569
O O6 0.655262 0.148179 0.782941
O O7 0.117840 0.235680 0.880316
O O8 0.171293 0.164251 0.848225
O O9 0.156492 0.178370 0.951138
O O10 0.785592 0.392796 0.312576
O O11 0.805653 0.194348 0.049206
O O12 0.820779 0.309988 0.078651
O O13 0.844938 0.294946 0.982501
O O14 0.530121 0.469880 0.754069
O O15 0.562884 0.281442 0.140488
O O16 0.595960 0.404041 0.112631
#
# Coordination Sequence:
#
# PCOD8324048 Si02
#       7
#    36  18  36  18  36  36  36
#     4  10  19  35  56  78 107 149 182 221 273 320
#     4  10  21  40  64  90 115 140 172 216 272 336
#     4  10  20  32  49  75 102 137 185 229 264 313
#     4  10  19  30  44  66  98 134 175 222 270 314
#     4   9  19  36  56  79 108 144 187 229 268 315
#     4   9  20  36  56  83 114 143 175 219 271 326
#     4  10  21  36  53  74 103 138 178 226 276 325
#
# _framework density 18.577954999999999
#
# number of rings (size 3 to 8) (size 9 to 14) (size 15 to 20)
#    0.000    2.333    0.833    1.333    0.000    4.667 
#    0.000    6.667    0.000    5.000    0.000    0.000 
#    0.000    0.000    0.000    0.000    0.000    0.000 
#
# Total GULP energy -892044.873976 kJ/mol
# GULP energy per Si atom -12389.512139 kJ/mol
# Density = 1.853567 g / cm^3
# Si number density = 18.577955 Si / 1000 Ang^3
#
#
#
# Elastic Constant Matrix: (Units=GPa)
#
#
# Indices 1 2 3 4 5 6 
#
# 1 109.0415 55.9447 52.0848 0.7816 -0.0002 0.0000
# 2 55.9447 109.0415 52.0848 -0.7816 0.0002 0.0000
# 3 52.0848 52.0848 88.1110 0.0000 0.0000 0.0000
# 4 0.7816 -0.7816 0.0000 27.1664 0.0000 0.0002
# 5 -0.0002 0.0002 0.0000 0.0000 27.1664 0.7816
# 6 0.0000 0.0000 0.0000 0.0002 0.7816 26.5484
#
#
#
# Elastic Compliance Matrix: (Units=1/GPa)
#
#
# Indices 1 2 3 4 5 6 
#
# 1 0.014260 -0.004590 -0.005716 -0.000542 0.000000 0.000000
# 2 -0.004590 0.014260 -0.005716 0.000542 0.000000 0.000000
# 3 -0.005716 -0.005716 0.018108 0.000000 0.000000 0.000000
# 4 -0.000542 0.000542 0.000000 0.036841 0.000000 0.000000
# 5 0.000000 0.000000 0.000000 0.000000 0.036841 -0.001085
# 6 0.000000 0.000000 0.000000 0.000000 -0.001085 0.037699
#
#
# Mechanical properties :
#
#
# Convention : Reuss Voigt Hill
#
# Bulk Modulus (GPa) = 68.57467 69.60251 69.08859
# Shear Modulus (GPa) = 25.65223 25.91489 25.78356
#
# Velocity S-wave (km/s) = 3.71993 3.73892 3.72944
# Velocity P-wave (km/s) = 7.44597 7.49572 7.47089
#
# Compressibility (1/GPa) = 0.01458264
#
# Stress axis : x y z
#
# Youngs Moduli (GPa) = 70.12655 70.12655 55.22554
#
# Poissons Ratio (x) = 0.32185 0.31569
# Poissons Ratio (y) = 0.32185 0.31569
# Poissons Ratio (z) = 0.40087 0.40087
#
# Static dielectric constant tensor:
#      x y z
#    x 3.399810 0.000000 0.000000 
#    y 0.000000 3.399810 0.000000 
#    z 0.000000 0.000000 3.450720 
# 
# 
# High freq. dielectric constant tensor:
#      x y z
#    x 1.711710 0.000000 0.000000 
#    y 0.000000 1.711710 0.000000 
#    z 0.000000 0.000000 1.729830 
# 
# From -- ./inp_files/8503.got.cif
#   From: 2010.03.12/outbox.cif.g09.slc.cpg/sg166_5_cif.got.tgz:8503.got - 2010.04.02 06:38:31.
