data_PCOD8324652
_publ_section_title
;
Structure prediction by ZEFSAII (Michael W. Deem and Ramdas Pophale) SiO2 
 PCOD8324652
Probable space group: P 65
;
_chemical_formula_sum "Si O2"
_cell_formula_units_Z 48
_cell_length_a 15.279230
_cell_length_b 15.279230
_cell_length_c 13.395109
_cell_angle_alpha 90.000000
_cell_angle_beta 90.000000
_cell_angle_gamma 120.000000
_cell_volume 2708.194305
_symmetry_space_group_name_H-M "P 65"
_symmetry_group_IT_number 170
_symmetry_cell_setting 'hexagonal'
loop_
_space_group_symop_operation_xyz
x,y,z
x-y,x,5/6+z
-y,x-y,2/3+z
-x,-y,1/2+z
-x+y,-x,1/3+z
y,-x+y,1/6+z
loop_
_atom_site_type_symbol
_atom_site_label
_atom_site_fract_x
_atom_site_fract_y
_atom_site_fract_z
Si Si1 0.277554 0.545224 0.667950
Si Si2 0.110099 0.611582 0.445017
Si Si3 0.498518 0.388418 0.154142
Si Si4 0.732330 0.454776 0.931210
Si Si5 0.616047 0.763369 0.483948
Si Si6 0.679403 0.917013 0.645277
Si Si7 0.616046 0.852678 0.948545
Si Si8 0.320598 0.237611 0.287216
O O1 0.390340 0.572785 0.695627
O O2 0.254039 0.627019 0.716248
O O3 0.270018 0.540041 0.549580
O O4 0.196976 0.435553 0.712071
O O5 0.182445 0.572786 0.403530
O O6 0.105660 0.679194 0.357111
O O7 0.149106 0.678159 0.545368
O O8 1.000000 0.515316 0.466246
O O9 0.426468 0.320807 0.242049
O O10 0.470945 0.321840 0.053792
O O11 0.761423 0.564446 0.887089
O O12 0.659476 0.872908 0.534028
O O13 0.714272 0.751242 0.470964
O O14 0.726049 0.863024 0.716246
O O15 0.659476 0.786569 0.898465
O O16 0.714270 0.963030 0.961529
#
# Coordination Sequence:
#
# PCOD8324652 Si02
#       8
#     6   6   6   6   6   6   6   6
#     4  12  23  35  52  77 120 158 195 230 282 346
#     4   9  19  34  53  78 109 151 196 233 277 337
#     4   9  19  34  53  78 109 151 196 233 277 337
#     4  12  23  35  52  77 120 158 195 230 282 346
#     4  10  20  36  54  86 110 148 193 239 293 339
#     4   9  18  35  61  83 112 139 192 245 286 345
#     4  10  20  36  54  86 110 148 193 239 293 339
#     4   9  18  35  61  83 112 139 192 245 286 345
#
# _framework density 17.723986
#
# number of rings (size 3 to 8) (size 9 to 14) (size 15 to 20)
#    0.000    2.000    2.500    4.500    0.000    2.000 
#    0.000    0.000    0.000    0.000    0.000   15.750 
#    0.000    0.000    0.000    0.000    0.000    0.000 
#
# Total GULP energy -595066.806753 kJ/mol
# GULP energy per Si atom -12397.225141 kJ/mol
# Density = 1.768365 g / cm^3
# Si number density = 17.723986 Si / 1000 Ang^3
#
#
#
# Elastic Constant Matrix: (Units=GPa)
#
#
# Indices 1 2 3 4 5 6 
#
# 1 94.9849 50.6042 46.3765 0.0000 0.0000 0.0000
# 2 50.6042 94.9849 46.3765 0.0000 0.0000 0.0000
# 3 46.3765 46.3765 118.2909 0.0000 0.0000 0.0000
# 4 0.0000 0.0000 0.0000 20.2757 0.0000 0.0000
# 5 0.0000 0.0000 0.0000 0.0000 20.2757 0.0000
# 6 0.0000 0.0000 0.0000 0.0000 0.0000 22.1903
#
#
#
# Elastic Compliance Matrix: (Units=1/GPa)
#
#
# Indices 1 2 3 4 5 6 
#
# 1 0.015844 -0.006688 -0.003589 0.000000 0.000000 0.000000
# 2 -0.006688 0.015844 -0.003589 0.000000 0.000000 0.000000
# 3 -0.003589 -0.003589 0.011268 0.000000 0.000000 0.000000
# 4 0.000000 0.000000 0.000000 0.049320 0.000000 0.000000
# 5 0.000000 0.000000 0.000000 0.000000 0.049320 0.000000
# 6 0.000000 0.000000 0.000000 0.000000 0.000000 0.045065
#
#
# Mechanical properties :
#
#
# Convention : Reuss Voigt Hill
#
# Bulk Modulus (GPa) = 65.69704 66.10832 65.90268
# Shear Modulus (GPa) = 22.78223 23.54191 23.16207
#
# Velocity S-wave (km/s) = 3.58912 3.64847 3.61892
# Velocity P-wave (km/s) = 7.37041 7.42484 7.39767
#
# Compressibility (1/GPa) = 0.01522139
#
# Stress axis : x y z
#
# Youngs Moduli (GPa) = 63.11585 63.11585 88.74499
#
# Poissons Ratio (x) = 0.42215 0.31854
# Poissons Ratio (y) = 0.42215 0.31854
# Poissons Ratio (z) = 0.22655 0.22655
#
# Static dielectric constant tensor:
#      x y z
#    x 3.379750 0.000000 0.000000 
#    y 0.000000 3.379750 0.000000 
#    z 0.000000 0.000000 3.198050 
# 
# 
# High freq. dielectric constant tensor:
#      x y z
#    x 1.672740 0.000000 0.000000 
#    y 0.000000 1.672740 0.000000 
#    z 0.000000 0.000000 1.676080 
# 
# From -- ./inp_files/1272.got.cif
#   From: 2010.03.12/outbox.cif.g09.slc.cpg/sg170_cif.got.tgz:1272.got - 2010.04.02 06:47:37.
