data_PCOD8324642
_publ_section_title
;
Structure prediction by ZEFSAII (Michael W. Deem and Ramdas Pophale) SiO2 
 PCOD8324642
Probable space group: P 65
;
_chemical_formula_sum "Si O2"
_cell_formula_units_Z 42
_cell_length_a 16.883696
_cell_length_b 16.883696
_cell_length_c 8.500151
_cell_angle_alpha 90.000000
_cell_angle_beta 90.000000
_cell_angle_gamma 120.000000
_cell_volume 2098.419533
_symmetry_space_group_name_H-M "P 65"
_symmetry_group_IT_number 170
_symmetry_cell_setting 'hexagonal'
loop_
_space_group_symop_operation_xyz
x,y,z
x-y,x,5/6+z
-y,x-y,2/3+z
-x,-y,1/2+z
-x+y,-x,1/3+z
y,-x+y,1/6+z
loop_
_atom_site_type_symbol
_atom_site_label
_atom_site_fract_x
_atom_site_fract_y
_atom_site_fract_z
Si Si1 0.347057 0.236024 0.488920
Si Si2 0.663418 0.172312 0.914430
Si Si3 0.990062 0.607046 0.373787
Si Si4 0.117497 0.933129 0.187380
Si Si5 0.152281 0.362386 0.683697
Si Si6 0.823638 0.321761 0.705652
Si Si7 0.274017 0.033418 0.431872
O O1 0.440358 0.295678 0.394186
O O2 0.371453 0.236557 0.668799
O O3 0.279258 0.274549 0.441360
O O4 0.285808 0.131871 0.435686
O O5 0.599896 0.084681 0.799878
O O6 0.751492 0.255258 0.833226
O O7 0.599142 0.210900 0.973312
O O8 0.928630 0.629325 0.262297
O O9 0.043925 0.683598 0.503685
O O10 0.073175 0.609676 0.273866
O O11 0.127072 0.861264 0.075064
O O12 0.183105 0.962353 0.338491
O O13 0.015281 0.884373 0.246548
O O14 0.256114 0.436093 0.730707
#
# Coordination Sequence:
#
# PCOD8324642 Si02
#       7
#     6   6   6   6   6   6   6
#     4  11  22  38  61 100 124 166 218 262 323 378
#     4  10  24  42  68  93 126 171 210 268 336 391
#     4   9  20  41  63  90 120 168 207 258 321 385
#     4  11  22  41  58  87 127 179 215 265 325 381
#     4  10  23  38  67  93 124 171 218 268 316 389
#     4  11  22  45  65  92 132 167 215 268 332 400
#     4  10  19  37  64  85 127 164 209 261 313 382
#
# _framework density 20.015063000000001
#
# number of rings (size 3 to 8) (size 9 to 14) (size 15 to 20)
#    0.000    1.714    2.857    2.571    4.000    2.286 
#    5.143    2.857    0.000    0.000    0.000    0.000 
#    0.000    0.000    0.000    0.000    0.000    0.000 
#
# Total GULP energy -520363.579712 kJ/mol
# GULP energy per Si atom -12389.609041 kJ/mol
# Density = 1.996951 g / cm^3
# Si number density = 20.015063 Si / 1000 Ang^3
#
#
#
# Elastic Constant Matrix: (Units=GPa)
#
#
# Indices 1 2 3 4 5 6 
#
# 1 78.0190 42.4531 36.7819 0.0000 0.0000 0.0000
# 2 42.4531 78.0190 36.7819 0.0000 0.0000 0.0000
# 3 36.7819 36.7819 123.0460 0.0000 0.0000 0.0000
# 4 0.0000 0.0000 0.0000 20.6481 0.0000 0.0000
# 5 0.0000 0.0000 0.0000 0.0000 20.6481 0.0000
# 6 0.0000 0.0000 0.0000 0.0000 0.0000 17.7829
#
#
#
# Elastic Compliance Matrix: (Units=1/GPa)
#
#
# Indices 1 2 3 4 5 6 
#
# 1 0.019135 -0.008981 -0.003035 0.000000 0.000000 0.000000
# 2 -0.008981 0.019135 -0.003035 0.000000 0.000000 0.000000
# 3 -0.003035 -0.003035 0.009942 0.000000 0.000000 0.000000
# 4 0.000000 0.000000 0.000000 0.048431 0.000000 0.000000
# 5 0.000000 0.000000 0.000000 0.000000 0.048431 0.000000
# 6 0.000000 0.000000 0.000000 0.000000 0.000000 0.056234
#
#
# Mechanical properties :
#
#
# Convention : Reuss Voigt Hill
#
# Bulk Modulus (GPa) = 55.22231 56.79084 56.00658
# Shear Modulus (GPa) = 21.05723 22.68696 21.87210
#
# Velocity S-wave (km/s) = 3.24708 3.37039 3.30931
# Velocity P-wave (km/s) = 6.45820 6.60164 6.53032
#
# Compressibility (1/GPa) = 0.01810862
#
# Stress axis : x y z
#
# Youngs Moduli (GPa) = 52.25890 52.25890 100.58592
#
# Poissons Ratio (x) = 0.46936 0.30531
# Poissons Ratio (y) = 0.46936 0.30531
# Poissons Ratio (z) = 0.15862 0.15862
#
# Static dielectric constant tensor:
#      x y z
#    x 3.562430 0.000000 0.000000 
#    y 0.000000 3.562430 0.000000 
#    z 0.000000 0.000000 3.834140 
# 
# 
# High freq. dielectric constant tensor:
#      x y z
#    x 1.775260 0.000000 0.000000 
#    y 0.000000 1.775260 0.000000 
#    z 0.000000 0.000000 1.785340 
# 
# From -- ./inp_files/692.got.cif
#   From: 2010.03.12/outbox.cif.g09.slc.cpg/sg170_cif.got.tgz:692.got - 2010.04.02 06:47:37.
