data_PCOD8324678
_publ_section_title
;
Structure prediction by ZEFSAII (Michael W. Deem and Ramdas Pophale) SiO2 
 PCOD8324678
Probable space group: P 65
;
_chemical_formula_sum "Si O2"
_cell_formula_units_Z 36
_cell_length_a 9.213233
_cell_length_b 9.213233
_cell_length_c 22.460182
_cell_angle_alpha 90.000000
_cell_angle_beta 90.000000
_cell_angle_gamma 120.000000
_cell_volume 1651.079601
_symmetry_space_group_name_H-M "P 65"
_symmetry_group_IT_number 170
_symmetry_cell_setting 'hexagonal'
loop_
_space_group_symop_operation_xyz
x,y,z
x-y,x,5/6+z
-y,x-y,2/3+z
-x,-y,1/2+z
-x+y,-x,1/3+z
y,-x+y,1/6+z
loop_
_atom_site_type_symbol
_atom_site_label
_atom_site_fract_x
_atom_site_fract_y
_atom_site_fract_z
Si Si1 0.435281 0.739061 0.796570
Si Si2 0.879694 0.999217 0.716875
Si Si3 0.581856 0.692978 0.676172
Si Si4 0.192333 0.090610 0.490422
Si Si5 0.165515 0.690565 0.235798
Si Si6 0.579356 0.907227 0.087722
O O1 0.503456 0.671781 0.742175
O O2 0.356926 0.600678 0.847628
O O3 0.288249 0.762142 0.768323
O O4 0.563392 0.917161 0.827209
O O5 0.739651 0.882093 0.668742
O O6 0.822711 0.879198 0.774843
O O7 0.061411 0.025970 0.698612
O O8 0.885685 0.173647 0.716957
O O9 0.462573 0.695695 0.622860
O O10 0.330052 0.062640 0.524094
O O11 0.277288 0.279734 0.470533
O O12 0.993611 0.527945 0.255724
#
# Coordination Sequence:
#
# PCOD8324678 Si02
#       6
#     6   6   6   6   6   6
#     4  12  28  45  76 112 156 202 258 325 395 458
#     4  11  20  42  72 103 133 199 245 300 373 462
#     4  12  24  47  73 105 151 200 248 309 393 465
#     4  10  22  42  72  93 150 189 247 300 385 449
#     4  12  25  42  77 106 149 191 265 310 382 462
#     4  11  25  44  68 109 143 195 251 316 372 450
#
# _framework density 21.803915
#
# number of rings (size 3 to 8) (size 9 to 14) (size 15 to 20)
#    0.000    0.667    3.333    5.000    2.333    2.667 
#    3.000    0.000    0.000    0.000    0.000    0.000 
#    0.000    0.000    0.000    0.000    0.000    0.000 
#
# Total GULP energy -446059.852041 kJ/mol
# GULP energy per Si atom -12390.551446 kJ/mol
# Density = 2.175429 g / cm^3
# Si number density = 21.803915 Si / 1000 Ang^3
#
#
#
# Elastic Constant Matrix: (Units=GPa)
#
#
# Indices 1 2 3 4 5 6 
#
# 1 150.3730 70.3644 60.5977 0.0000 0.0000 0.0000
# 2 70.3644 150.3730 60.5977 0.0000 0.0000 0.0000
# 3 60.5977 60.5977 131.8423 0.0000 0.0000 0.0000
# 4 0.0000 0.0000 0.0000 32.9486 0.0000 0.0000
# 5 0.0000 0.0000 0.0000 0.0000 32.9486 0.0000
# 6 0.0000 0.0000 0.0000 0.0000 0.0000 40.0043
#
#
#
# Elastic Compliance Matrix: (Units=1/GPa)
#
#
# Indices 1 2 3 4 5 6 
#
# 1 0.009279 -0.003220 -0.002785 0.000000 0.000000 0.000000
# 2 -0.003220 0.009279 -0.002785 0.000000 0.000000 0.000000
# 3 -0.002785 -0.002785 0.010145 0.000000 0.000000 0.000000
# 4 0.000000 0.000000 0.000000 0.030350 0.000000 0.000000
# 5 0.000000 0.000000 0.000000 0.000000 0.030350 0.000000
# 6 0.000000 0.000000 0.000000 0.000000 0.000000 0.024997
#
#
# Mechanical properties :
#
#
# Convention : Reuss Voigt Hill
#
# Bulk Modulus (GPa) = 89.89902 90.63423 90.26663
# Shear Modulus (GPa) = 36.84918 37.24885 37.04902
#
# Velocity S-wave (km/s) = 4.11545 4.13771 4.12660
# Velocity P-wave (km/s) = 7.99392 8.03030 8.01213
#
# Compressibility (1/GPa) = 0.01112359
#
# Stress axis : x y z
#
# Youngs Moduli (GPa) = 107.77001 107.77001 98.57126
#
# Poissons Ratio (x) = 0.34698 0.27452
# Poissons Ratio (y) = 0.34698 0.27452
# Poissons Ratio (z) = 0.30014 0.30014
#
# Static dielectric constant tensor:
#      x y z
#    x 3.995510 0.000000 0.000000 
#    y 0.000000 3.995510 0.000000 
#    z 0.000000 0.000000 4.358710 
# 
# 
# High freq. dielectric constant tensor:
#      x y z
#    x 1.854640 0.000000 0.000000 
#    y 0.000000 1.854640 0.000000 
#    z 0.000000 0.000000 1.880750 
# 
# From -- ./inp_files/1798.got.cif
#   From: 2010.03.12/outbox.cif.g09.slc.cpg/sg170_cif.got.tgz:1798.got - 2010.04.02 06:47:37.
