data_PCOD8324750
_publ_section_title
;
Structure prediction by ZEFSAII (Michael W. Deem and Ramdas Pophale) SiO2 
 PCOD8324750
Probable space group: P 62
;
_chemical_formula_sum "Si O2"
_cell_formula_units_Z 30
_cell_length_a 16.310879
_cell_length_b 16.310879
_cell_length_c 5.852083
_cell_angle_alpha 90.000000
_cell_angle_beta 90.000000
_cell_angle_gamma 120.000000
_cell_volume 1348.328892
_symmetry_space_group_name_H-M "P 62"
_symmetry_group_IT_number 171
_symmetry_cell_setting 'hexagonal'
loop_
_space_group_symop_operation_xyz
x,y,z
x-y,x,1/3+z
-y,x-y,2/3+z
-x,-y,z
-x+y,-x,1/3+z
y,-x+y,2/3+z
loop_
_atom_site_type_symbol
_atom_site_label
_atom_site_fract_x
_atom_site_fract_y
_atom_site_fract_z
Si Si1 0.676259 0.096605 0.750000
Si Si2 0.234887 0.615375 0.233795
Si Si3 0.010626 0.276386 0.785176
Si Si4 0.159804 0.303685 0.124471
Si Si5 0.668220 0.582335 0.825809
O O1 0.656799 0.183819 0.743274
O O2 0.773706 0.117653 0.638929
O O3 0.593611 0.009317 0.607825
O O4 0.688366 0.070764 0.009777
O O5 0.291901 0.593749 0.045270
O O6 0.156411 0.629247 0.097228
O O7 0.955617 0.194238 0.592995
O O8 0.078130 0.248633 0.931330
O O9 0.933242 0.284139 0.940613
O O10 0.251245 0.390509 0.014438
#
# Coordination Sequence:
#
# PCOD8324750 Si02
#       5
#     6   6   6   6   6
#     4  10  22  42  64  93 130 177 227 280 338 399
#     4  12  27  40  64  94 136 184 230 284 333 394
#     4  10  22  38  73  88 140 169 228 282 336 409
#     4  10  20  40  62 100 130 173 219 282 330 400
#     4  10  22  42  64  93 130 177 227 280 338 399
#
# _framework density 22.249766000000001
#
# number of rings (size 3 to 8) (size 9 to 14) (size 15 to 20)
#    0.000    1.600    2.000    1.800    5.600    0.000 
#    0.000    8.000    0.000    0.000    0.000    0.000 
#    0.000  944.000    0.000    0.000    0.000    0.000 
#
# Total GULP energy -371867.176453 kJ/mol
# GULP energy per Si atom -12395.572548 kJ/mol
# Density = 2.219912 g / cm^3
# Si number density = 22.249766 Si / 1000 Ang^3
#
#
#
# Elastic Constant Matrix: (Units=GPa)
#
#
# Indices 1 2 3 4 5 6 
#
# 1 102.1269 29.5159 27.2469 0.0000 0.0000 0.0000
# 2 29.5159 102.1269 27.2469 0.0000 0.0000 0.0000
# 3 27.2469 27.2469 81.1121 0.0000 0.0000 0.0000
# 4 0.0000 0.0000 0.0000 29.9191 0.0000 0.0000
# 5 0.0000 0.0000 0.0000 0.0000 29.9191 0.0000
# 6 0.0000 0.0000 0.0000 0.0000 0.0000 36.3055
#
#
#
# Elastic Compliance Matrix: (Units=1/GPa)
#
#
# Indices 1 2 3 4 5 6 
#
# 1 0.011298 -0.002474 -0.002964 0.000000 0.000000 0.000000
# 2 -0.002474 0.011298 -0.002964 0.000000 0.000000 0.000000
# 3 -0.002964 -0.002964 0.014320 0.000000 0.000000 0.000000
# 4 0.000000 0.000000 0.000000 0.033423 0.000000 0.000000
# 5 0.000000 0.000000 0.000000 0.000000 0.033423 0.000000
# 6 0.000000 0.000000 0.000000 0.000000 0.000000 0.027544
#
#
# Mechanical properties :
#
#
# Convention : Reuss Voigt Hill
#
# Bulk Modulus (GPa) = 49.72453 50.37616 50.05035
# Shear Modulus (GPa) = 32.29684 32.65248 32.47466
#
# Velocity S-wave (km/s) = 3.81407 3.83501 3.82455
# Velocity P-wave (km/s) = 6.46475 6.50385 6.48433
#
# Compressibility (1/GPa) = 0.02011080
#
# Stress axis : x y z
#
# Youngs Moduli (GPa) = 88.51423 88.51423 69.83320
#
# Poissons Ratio (x) = 0.21902 0.20698
# Poissons Ratio (y) = 0.21902 0.20698
# Poissons Ratio (z) = 0.26234 0.26234
#
# Static dielectric constant tensor:
#      x y z
#    x 4.055500 0.000000 0.000000 
#    y 0.000000 4.055500 0.000000 
#    z 0.000000 0.000000 4.059440 
# 
# 
# High freq. dielectric constant tensor:
#      x y z
#    x 1.866270 0.000000 0.000000 
#    y 0.000000 1.866270 0.000000 
#    z 0.000000 0.000000 1.878060 
# 
# From -- ./inp_files/615.got.cif
#   From: 2010.03.12/outbox.cif.g09.slc.cpg/sg171_1_cif.got.tgz:615.got - 2010.04.02 06:49:11.
