data_PCOD8324692
_publ_section_title
;
Structure prediction by ZEFSAII (Michael W. Deem and Ramdas Pophale) SiO2 
 PCOD8324692
Probable space group: P 65
;
_chemical_formula_sum "Si O2"
_cell_formula_units_Z 42
_cell_length_a 8.703250
_cell_length_b 8.703250
_cell_length_c 28.794899
_cell_angle_alpha 90.000000
_cell_angle_beta 90.000000
_cell_angle_gamma 120.000000
_cell_volume 1888.900618
_symmetry_space_group_name_H-M "P 65"
_symmetry_group_IT_number 170
_symmetry_cell_setting 'hexagonal'
loop_
_space_group_symop_operation_xyz
x,y,z
x-y,x,5/6+z
-y,x-y,2/3+z
-x,-y,1/2+z
-x+y,-x,1/3+z
y,-x+y,1/6+z
loop_
_atom_site_type_symbol
_atom_site_label
_atom_site_fract_x
_atom_site_fract_y
_atom_site_fract_z
Si Si1 0.388892 0.832558 0.539250
Si Si2 0.269951 0.052039 0.155047
Si Si3 0.245665 0.371525 0.125903
Si Si4 0.230088 0.972749 0.048292
Si Si5 0.213389 0.122350 0.420479
Si Si6 0.867879 0.806507 0.020404
Si Si7 0.950750 0.481999 0.382116
O O1 0.290187 0.777402 0.490004
O O2 0.267972 0.850065 0.578233
O O3 0.445074 0.692995 0.557057
O O4 0.583060 0.015595 0.534237
O O5 0.211239 0.979363 0.103464
O O6 0.449210 0.050586 0.169690
O O7 0.131733 0.919491 0.192429
O O8 0.284491 0.244035 0.159138
O O9 0.415813 0.484639 0.093480
O O10 0.070680 0.262106 0.094572
O O11 0.049268 0.798317 0.030730
O O12 0.148921 0.182789 0.465524
O O13 0.102844 0.121627 0.375947
O O14 0.705860 0.641089 0.044015
#
# Coordination Sequence:
#
# PCOD8324692 Si02
#       7
#     6   6   6   6   6   6   6
#     4  11  24  45  68 106 143 187 246 301 369 451
#     4  11  19  45  75  96 138 193 239 296 375 441
#     4  12  22  45  73 101 142 198 241 301 377 446
#     4  11  21  42  72 102 138 190 242 297 367 446
#     4  12  23  47  72 103 137 191 249 296 366 457
#     4  12  24  43  73 101 141 188 245 298 368 442
#     4  11  27  43  69 107 149 185 236 317 370 449
#
# _framework density 22.235157000000001
#
# number of rings (size 3 to 8) (size 9 to 14) (size 15 to 20)
#    0.000    0.571    7.143    1.714    2.000    0.000 
#    7.714    1.429    0.000    0.000    0.000    0.000 
#    0.000    0.000    0.000    0.000    0.000    0.000 
#
# Total GULP energy -520583.458359 kJ/mol
# GULP energy per Si atom -12394.844247 kJ/mol
# Density = 2.218455 g / cm^3
# Si number density = 22.235157 Si / 1000 Ang^3
#
#
#
# Elastic Constant Matrix: (Units=GPa)
#
#
# Indices 1 2 3 4 5 6 
#
# 1 127.9807 47.1346 36.8934 0.0000 0.0000 0.0000
# 2 47.1346 127.9807 36.8934 0.0000 0.0000 0.0000
# 3 36.8934 36.8934 111.0499 0.0000 0.0000 0.0000
# 4 0.0000 0.0000 0.0000 29.2475 0.0000 0.0000
# 5 0.0000 0.0000 0.0000 0.0000 29.2475 0.0000
# 6 0.0000 0.0000 0.0000 0.0000 0.0000 40.4230
#
#
#
# Elastic Compliance Matrix: (Units=1/GPa)
#
#
# Indices 1 2 3 4 5 6 
#
# 1 0.009505 -0.002865 -0.002206 0.000000 0.000000 0.000000
# 2 -0.002865 0.009505 -0.002206 0.000000 0.000000 0.000000
# 3 -0.002206 -0.002206 0.010471 0.000000 0.000000 0.000000
# 4 0.000000 0.000000 0.000000 0.034191 0.000000 0.000000
# 5 0.000000 0.000000 0.000000 0.000000 0.034191 0.000000
# 6 0.000000 0.000000 0.000000 0.000000 0.000000 0.024738
#
#
# Mechanical properties :
#
#
# Convention : Reuss Voigt Hill
#
# Bulk Modulus (GPa) = 66.99322 67.65045 67.32183
# Shear Modulus (GPa) = 35.17934 36.18960 35.68447
#
# Velocity S-wave (km/s) = 3.98194 4.03871 4.01043
# Velocity P-wave (km/s) = 7.16491 7.22767 7.19636
#
# Compressibility (1/GPa) = 0.01492688
#
# Stress axis : x y z
#
# Youngs Moduli (GPa) = 105.21205 105.21205 95.50443
#
# Poissons Ratio (x) = 0.30139 0.21068
# Poissons Ratio (y) = 0.30139 0.21068
# Poissons Ratio (z) = 0.23210 0.23210
#
# Static dielectric constant tensor:
#      x y z
#    x 4.556630 0.000000 0.000000 
#    y 0.000000 4.556630 0.000000 
#    z 0.000000 0.000000 4.109640 
# 
# 
# High freq. dielectric constant tensor:
#      x y z
#    x 1.867550 0.000000 0.000000 
#    y 0.000000 1.867550 0.000000 
#    z 0.000000 0.000000 1.890210 
# 
# From -- ./inp_files/1910.got.cif
#   From: 2010.03.12/outbox.cif.g09.slc.cpg/sg170_cif.got.tgz:1910.got - 2010.04.02 06:47:37.
