data_PCOD8324056
_publ_section_title
;
Structure prediction by ZEFSAII (Michael W. Deem and Ramdas Pophale) SiO2 
 PCOD8324056
Probable space group: R -3 M
;
_chemical_formula_sum "Si O2"
_cell_formula_units_Z 198
_cell_length_a 21.645244
_cell_length_b 21.645244
_cell_length_c 31.315672
_cell_angle_alpha 90.000000
_cell_angle_beta 90.000000
_cell_angle_gamma 120.000000
_cell_volume 12706.248333
_symmetry_space_group_name_H-M "R -3 M"
_symmetry_group_IT_number 166
_symmetry_cell_setting 'hexagonal'
loop_
_space_group_symop_operation_xyz
x,y,z
-y,x-y,z
-x+y,-x,z
x-y,-y,-z
-x,-x+y,-z
y,x,-z
-x,-y,-z
y,-x+y,-z
x-y,x,-z
-x+y,y,z
x,x-y,z
-y,-x,z
2/3+x,1/3+y,1/3+z
2/3-y,1/3+x-y,1/3+z
2/3-x+y,1/3-x,1/3+z
2/3+x-y,1/3-y,1/3-z
2/3-x,1/3-x+y,1/3-z
2/3+y,1/3+x,1/3-z
2/3-x,1/3-y,1/3-z
2/3+y,1/3-x+y,1/3-z
2/3+x-y,1/3+x,1/3-z
2/3-x+y,1/3+y,1/3+z
2/3+x,1/3+x-y,1/3+z
2/3-y,1/3-x,1/3+z
1/3+x,2/3+y,2/3+z
1/3-y,2/3+x-y,2/3+z
1/3-x+y,2/3-x,2/3+z
1/3+x-y,2/3-y,2/3-z
1/3-x,2/3-x+y,2/3-z
1/3+y,2/3+x,2/3-z
1/3-x,2/3-y,2/3-z
1/3+y,2/3-x+y,2/3-z
1/3+x-y,2/3+x,2/3-z
1/3-x+y,2/3+y,2/3+z
1/3+x,2/3+x-y,2/3+z
1/3-y,2/3-x,2/3+z
loop_
_atom_site_type_symbol
_atom_site_label
_atom_site_fract_x
_atom_site_fract_y
_atom_site_fract_z
Si Si1 0.676954 0.010288 0.666667
Si Si2 0.455932 0.051935 0.072998
Si Si3 0.856755 0.857612 0.793958
Si Si4 0.251678 0.053465 0.965893
Si Si5 0.432794 0.288938 0.463229
Si Si6 0.038186 0.447954 0.155499
O O1 0.696874 0.073444 0.633663
O O2 0.604144 0.993462 0.691716
O O3 0.525887 0.051774 0.055946
O O4 0.478474 0.127803 0.094128
O O5 0.415249 0.987728 0.106692
O O6 0.851999 0.926000 0.779750
O O7 0.820189 0.831869 0.840904
O O8 0.939092 0.878183 0.794812
O O9 0.264969 0.132485 0.970411
O O10 0.221917 0.020272 0.919222
O O11 0.192441 0.000000 0.000000
O O12 0.428110 0.214055 0.470717
O O13 0.357185 0.276228 0.480103
O O14 0.058519 0.529260 0.165010
O O15 0.107135 0.440469 0.166667
#
# Coordination Sequence:
#
# PCOD8324056 Si02
#       6
#    18  36  36  36  36  36
#     4  10  19  30  50  64  91 124 154 196 230 294
#     4   9  18  31  46  69  93 122 153 193 237 278
#     4   9  17  29  48  71  97 124 156 194 238 285
#     4   9  19  31  46  65  91 125 160 198 241 280
#     4   8  15  29  44  62  87 122 156 189 226 268
#     4   9  16  27  47  66  88 113 149 190 229 280
#
# _framework density 15.582884
#
# number of rings (size 3 to 8) (size 9 to 14) (size 15 to 20)
#    0.545    2.545    0.000    3.727    0.000    1.455 
#    0.000    0.000    0.000    3.636    0.000    0.000 
#    0.000    0.000    0.000    0.000    0.000    0.000 
#
# Total GULP energy -817835.832831 kJ/mol
# GULP energy per Si atom -12391.452013 kJ/mol
# Density = 1.554742 g / cm^3
# Si number density = 15.582884 Si / 1000 Ang^3
#
#
#
# Elastic Constant Matrix: (Units=GPa)
#
#
# Indices 1 2 3 4 5 6 
#
# 1 86.1240 45.9379 40.4203 2.1830 0.0001 0.0000
# 2 45.9379 86.1240 40.4203 -2.1830 -0.0001 0.0000
# 3 40.4203 40.4203 92.0842 0.0000 0.0000 0.0000
# 4 2.1830 -2.1830 0.0000 20.5664 0.0000 -0.0001
# 5 0.0001 -0.0001 0.0000 0.0000 20.5664 2.1830
# 6 0.0000 0.0000 0.0000 -0.0001 2.1830 20.0930
#
#
#
# Elastic Compliance Matrix: (Units=1/GPa)
#
#
# Indices 1 2 3 4 5 6 
#
# 1 0.017764 -0.007410 -0.004545 -0.002672 0.000000 0.000000
# 2 -0.007410 0.017764 -0.004545 0.002672 0.000000 0.000000
# 3 -0.004545 -0.004545 0.014850 0.000000 0.000000 0.000000
# 4 -0.002672 0.002672 0.000000 0.049190 0.000000 0.000000
# 5 0.000000 0.000000 0.000000 0.000000 0.049190 -0.005344
# 6 0.000000 0.000000 0.000000 0.000000 -0.005344 0.050349
#
#
# Mechanical properties :
#
#
# Convention : Reuss Voigt Hill
#
# Bulk Modulus (GPa) = 57.54295 57.54323 57.54309
# Shear Modulus (GPa) = 21.01710 21.41542 21.21626
#
# Velocity S-wave (km/s) = 3.67649 3.71116 3.69387
# Velocity P-wave (km/s) = 7.41817 7.44117 7.42968
#
# Compressibility (1/GPa) = 0.01737832
#
# Stress axis : x y z
#
# Youngs Moduli (GPa) = 56.29210 56.29210 67.34135
#
# Poissons Ratio (x) = 0.41713 0.30607
# Poissons Ratio (y) = 0.41713 0.30607
# Poissons Ratio (z) = 0.25585 0.25585
#
# Static dielectric constant tensor:
#      x y z
#    x 2.775860 0.000000 0.000000 
#    y 0.000000 2.775860 0.000000 
#    z 0.000000 0.000000 3.004880 
# 
# 
# High freq. dielectric constant tensor:
#      x y z
#    x 1.580410 0.000000 0.000000 
#    y 0.000000 1.580410 0.000000 
#    z 0.000000 0.000000 1.601020 
# 
# From -- ./inp_files/10759.got.cif
#   From: 2010.03.12/outbox.cif.g09.slc.cpg/sg166_6_cif.got.tgz:10759.got - 2010.04.02 06:38:31.
