data_PCOD8324954
_publ_section_title
;
Structure prediction by ZEFSAII (Michael W. Deem and Ramdas Pophale) SiO2 
 PCOD8324954
Probable space group: P -6
;
_chemical_formula_sum "Si O2"
_cell_formula_units_Z 32
_cell_length_a 14.501580
_cell_length_b 14.501580
_cell_length_c 8.545180
_cell_angle_alpha 90.000000
_cell_angle_beta 90.000000
_cell_angle_gamma 120.000000
_cell_volume 1556.261210
_symmetry_space_group_name_H-M "P -6"
_symmetry_group_IT_number 174
_symmetry_cell_setting 'hexagonal'
loop_
_space_group_symop_operation_xyz
x,y,z
-x+y,-x,-z
-y,x-y,z
x,y,-z
-x+y,-x,z
-y,x-y,-z
loop_
_atom_site_type_symbol
_atom_site_label
_atom_site_fract_x
_atom_site_fract_y
_atom_site_fract_z
Si Si1 0.646943 0.533387 0.686059
Si Si2 0.159047 0.220594 0.319667
Si Si3 0.829118 0.762228 0.312925
Si Si4 0.104620 0.508280 0.818583
Si Si5 0.666666 0.333333 0.314020
Si Si6 0.188846 0.729623 0.321290
O O1 0.637572 0.530277 0.500000
O O2 0.747035 0.643488 0.747648
O O3 0.539439 0.523907 0.756377
O O4 0.658565 0.434413 0.748040
O O5 0.133767 0.188403 0.500000
O O6 0.201394 0.147356 0.243160
O O7 0.252232 0.341519 0.299677
O O8 0.049149 0.202556 0.243952
O O9 0.827379 0.759569 0.500000
O O10 0.171654 0.634754 0.791539
O O11 0.160930 0.454853 0.723206
O O12 0.105137 0.483862 0.000000
O O13 0.666667 0.333334 0.500000
O O14 0.197952 0.699811 0.500000
#
# Coordination Sequence:
#
# PCOD8324954 Si02
#       6
#     6   6   6   6   2   6
#     4  10  20  38  61  88 119 158 208 262 311 359
#     4   9  17  29  53  89 120 147 182 238 301 355
#     4   9  16  29  52  87 123 148 185 241 304 360
#     4  12  25  41  60  87 124 163 199 245 305 374
#     4   9  21  36  61  92 118 156 217 281 313 342
#     4  11  22  39  63  91 118 152 199 249 302 358
#
# _framework density 20.562103
#
# number of rings (size 3 to 8) (size 9 to 14) (size 15 to 20)
#    0.000    1.875    1.875    3.000    2.625    1.500 
#    0.000    0.938    0.000    0.000    0.000    0.000 
#    0.000    0.000    0.000    0.000    0.000    0.000 
#
# Total GULP energy -396835.306199 kJ/mol
# GULP energy per Si atom -12401.103319 kJ/mol
# Density = 2.051530 g / cm^3
# Si number density = 20.562103 Si / 1000 Ang^3
#
#
#
# Elastic Constant Matrix: (Units=GPa)
#
#
# Indices 1 2 3 4 5 6 
#
# 1 122.5330 45.3241 19.4564 0.0000 0.0000 0.0000
# 2 45.3241 122.5332 19.4565 0.0000 0.0000 -0.0001
# 3 19.4564 19.4565 38.3919 0.0000 0.0000 0.0001
# 4 0.0000 0.0000 0.0000 7.6887 0.0000 0.0000
# 5 0.0000 0.0000 0.0000 0.0000 7.6887 0.0000
# 6 0.0000 -0.0001 0.0001 0.0000 0.0000 38.6046
#
#
#
# Elastic Compliance Matrix: (Units=1/GPa)
#
#
# Indices 1 2 3 4 5 6 
#
# 1 0.009851 -0.003101 -0.003421 0.000000 0.000000 0.000000
# 2 -0.003101 0.009851 -0.003421 0.000000 0.000000 0.000000
# 3 -0.003421 -0.003421 0.029515 0.000000 0.000000 0.000000
# 4 0.000000 0.000000 0.000000 0.130061 -0.000001 0.000000
# 5 0.000000 0.000000 0.000000 -0.000001 0.130060 0.000000
# 6 0.000000 0.000000 0.000000 0.000000 0.000000 0.025904
#
#
# Mechanical properties :
#
#
# Convention : Reuss Voigt Hill
#
# Bulk Modulus (GPa) = 34.09313 50.21466 42.15390
# Shear Modulus (GPa) = 13.70219 24.07782 18.89001
#
# Velocity S-wave (km/s) = 2.58424 3.42567 3.03426
# Velocity P-wave (km/s) = 5.05182 6.33411 5.72896
#
# Compressibility (1/GPa) = 0.02933142
#
# Stress axis : x y z
#
# Youngs Moduli (GPa) = 101.51053 101.51068 33.88152
#
# Poissons Ratio (x) = 0.31475 0.11591
# Poissons Ratio (y) = 0.31475 0.11591
# Poissons Ratio (z) = 0.34727 0.34727
#
# Static dielectric constant tensor:
#      x y z
#    x 3.838340 0.000000 0.000000 
#    y 0.000000 3.838330 0.000000 
#    z 0.000000 0.000000 3.117460 
# 
# 
# High freq. dielectric constant tensor:
#      x y z
#    x 1.815100 0.000000 0.000000 
#    y 0.000000 1.815100 0.000000 
#    z 0.000000 0.000000 1.746890 
# 
# From -- ./inp_files/306.got.cif
#   From: 2010.03.12/outbox.cif.g09.slc.cpg/sg174_cif.got.tgz:306.got - 2010.04.02 06:54:58.
