data_PCOD8324291
_publ_section_title
;
Structure prediction by ZEFSAII (Michael W. Deem and Ramdas Pophale) SiO2 
 PCOD8324291
Probable space group: R -3 C 
;
_chemical_formula_sum "Si O2"
_cell_formula_units_Z 144
_cell_length_a 20.851026
_cell_length_b 20.851026
_cell_length_c 20.238542
_cell_angle_alpha 90.000000
_cell_angle_beta 90.000000
_cell_angle_gamma 120.000000
_cell_volume 7620.170939
_symmetry_space_group_name_H-M "R -3 C "
_symmetry_group_IT_number 167
_symmetry_cell_setting 'hexagonal'
loop_
_space_group_symop_operation_xyz
x,y,z
-y,x-y,z
-x+y,-x,z
x-y,-y,1/2-z
-x,-x+y,1/2-z
y,x,1/2-z
-x,-y,-z
y,-x+y,-z
x-y,x,-z
-x+y,y,1/2+z
x,x-y,1/2+z
-y,-x,1/2+z
2/3+x,1/3+y,1/3+z
2/3-y,1/3+x-y,1/3+z
2/3-x+y,1/3-x,1/3+z
2/3+x-y,1/3-y,5/6-z
2/3-x,1/3-x+y,5/6-z
2/3+y,1/3+x,5/6-z
2/3-x,1/3-y,1/3-z
2/3+y,1/3-x+y,1/3-z
2/3+x-y,1/3+x,1/3-z
2/3-x+y,1/3+y,5/6+z
2/3+x,1/3+x-y,5/6+z
2/3-y,1/3-x,5/6+z
1/3+x,2/3+y,2/3+z
1/3-y,2/3+x-y,2/3+z
1/3-x+y,2/3-x,2/3+z
1/3+x-y,2/3-y,1/6-z
1/3-x,2/3-x+y,1/6-z
1/3+y,2/3+x,1/6-z
1/3-x,2/3-y,2/3-z
1/3+y,2/3-x+y,2/3-z
1/3+x-y,2/3+x,2/3-z
1/3-x+y,2/3+y,1/6+z
1/3+x,2/3+x-y,1/6+z
1/3-y,2/3-x,1/6+z
loop_
_atom_site_type_symbol
_atom_site_label
_atom_site_fract_x
_atom_site_fract_y
_atom_site_fract_z
Si Si1 0.378274 0.460992 0.355386
Si Si2 0.748199 0.798808 0.438869
Si Si3 0.527349 0.945987 0.809892
Si Si4 0.528614 0.615815 0.609416
O O1 0.333334 0.469036 0.416667
O O2 0.322384 0.418860 0.296003
O O3 0.442110 0.542307 0.333023
O O4 0.413692 0.412253 0.378851
O O5 0.663738 0.750785 0.464450
O O6 0.770343 0.883704 0.427524
O O7 0.805634 0.798436 0.491942
O O8 0.552938 0.888538 0.787778
O O9 0.532811 0.000000 0.750000
#
# Coordination Sequence:
#
# PCOD8324291 Si02
#       4
#    36  36  36  36
#     4  11  21  34  53  80 112 142 175 218 267 322
#     4  10  19  34  55  78 108 142 177 222 271 320
#     4   9  19  35  54  78 107 141 178 221 271 316
#     4  10  20  34  57  83 107 140 179 221 274 322
#
# _framework density 18.897213000000001
#
# number of rings (size 3 to 8) (size 9 to 14) (size 15 to 20)
#    0.000    2.000    0.000    7.500    0.000    4.000 
#    0.000    6.250    0.000    9.000    0.000    0.000 
#    0.000    0.000    0.000    0.000    0.000    0.000 
#
# Total GULP energy -595302.811940 kJ/mol
# GULP energy per Si atom -12402.141915 kJ/mol
# Density = 1.885420 g / cm^3
# Si number density = 18.897213 Si / 1000 Ang^3
#
#
#
# Elastic Constant Matrix: (Units=GPa)
#
#
# Indices 1 2 3 4 5 6 
#
# 1 94.8864 47.6062 37.2069 9.5170 0.0001 0.0000
# 2 47.6062 94.8864 37.2069 -9.5170 -0.0001 0.0000
# 3 37.2069 37.2069 93.8103 0.0000 0.0000 0.0000
# 4 9.5170 -9.5170 0.0000 27.0384 0.0000 -0.0001
# 5 0.0001 -0.0001 0.0000 0.0000 27.0384 9.5170
# 6 0.0000 0.0000 0.0000 -0.0001 9.5170 23.6401
#
#
#
# Elastic Compliance Matrix: (Units=1/GPa)
#
#
# Indices 1 2 3 4 5 6 
#
# 1 0.016747 -0.007896 -0.003511 -0.008674 0.000000 0.000000
# 2 -0.007896 0.016747 -0.003511 0.008674 0.000000 0.000000
# 3 -0.003511 -0.003511 0.013445 0.000000 0.000000 0.000000
# 4 -0.008674 0.008674 0.000000 0.043090 0.000000 0.000000
# 5 0.000000 0.000000 0.000000 0.000000 0.043090 -0.017347
# 6 0.000000 0.000000 0.000000 0.000000 -0.017347 0.049285
#
#
# Mechanical properties :
#
#
# Convention : Reuss Voigt Hill
#
# Bulk Modulus (GPa) = 58.46334 58.62476 58.54405
# Shear Modulus (GPa) = 22.94227 26.31427 24.62827
#
# Velocity S-wave (km/s) = 3.48811 3.73566 3.61401
# Velocity P-wave (km/s) = 6.87221 7.04963 6.96148
#
# Compressibility (1/GPa) = 0.01710474
#
# Stress axis : x y z
#
# Youngs Moduli (GPa) = 59.71297 59.71297 74.37983
#
# Poissons Ratio (x) = 0.47147 0.26111
# Poissons Ratio (y) = 0.47147 0.26111
# Poissons Ratio (z) = 0.20963 0.20963
#
# Static dielectric constant tensor:
#      x y z
#    x 3.401330 0.000000 0.000000 
#    y 0.000000 3.401330 0.000000 
#    z 0.000000 0.000000 3.597300 
# 
# 
# High freq. dielectric constant tensor:
#      x y z
#    x 1.717900 0.000000 0.000000 
#    y 0.000000 1.717900 0.000000 
#    z 0.000000 0.000000 1.742090 
# 
# From -- ./inp_files/3295.got.cif
#   From: 2010.03.12/outbox.cif.g09.slc.cpg/sg167_2_cif.got.tgz:3295.got - 2010.04.02 06:42:56.
