data_PCOD8324347
_publ_section_title
;
Structure prediction by ZEFSAII (Michael W. Deem and Ramdas Pophale) SiO2 
 PCOD8324347
Probable space group: R -3 C 
;
_chemical_formula_sum "Si O2"
_cell_formula_units_Z 162
_cell_length_a 20.342551
_cell_length_b 20.342551
_cell_length_c 21.386308
_cell_angle_alpha 90.000000
_cell_angle_beta 90.000000
_cell_angle_gamma 120.000000
_cell_volume 7664.384356
_symmetry_space_group_name_H-M "R -3 C "
_symmetry_group_IT_number 167
_symmetry_cell_setting 'hexagonal'
loop_
_space_group_symop_operation_xyz
x,y,z
-y,x-y,z
-x+y,-x,z
x-y,-y,1/2-z
-x,-x+y,1/2-z
y,x,1/2-z
-x,-y,-z
y,-x+y,-z
x-y,x,-z
-x+y,y,1/2+z
x,x-y,1/2+z
-y,-x,1/2+z
2/3+x,1/3+y,1/3+z
2/3-y,1/3+x-y,1/3+z
2/3-x+y,1/3-x,1/3+z
2/3+x-y,1/3-y,5/6-z
2/3-x,1/3-x+y,5/6-z
2/3+y,1/3+x,5/6-z
2/3-x,1/3-y,1/3-z
2/3+y,1/3-x+y,1/3-z
2/3+x-y,1/3+x,1/3-z
2/3-x+y,1/3+y,5/6+z
2/3+x,1/3+x-y,5/6+z
2/3-y,1/3-x,5/6+z
1/3+x,2/3+y,2/3+z
1/3-y,2/3+x-y,2/3+z
1/3-x+y,2/3-x,2/3+z
1/3+x-y,2/3-y,1/6-z
1/3-x,2/3-x+y,1/6-z
1/3+y,2/3+x,1/6-z
1/3-x,2/3-y,2/3-z
1/3+y,2/3-x+y,2/3-z
1/3+x-y,2/3+x,2/3-z
1/3-x+y,2/3+y,1/6+z
1/3+x,2/3+x-y,1/6+z
1/3-y,2/3-x,1/6+z
loop_
_atom_site_type_symbol
_atom_site_label
_atom_site_fract_x
_atom_site_fract_y
_atom_site_fract_z
Si Si1 0.333334 0.889670 0.916667
Si Si2 0.797433 0.312811 0.255636
Si Si3 0.620881 0.693296 0.790368
Si Si4 0.106000 0.513152 0.457329
Si Si5 0.530893 0.178320 0.773624
O O1 0.341601 0.944900 0.859775
O O2 0.407405 0.881530 0.930451
O O3 0.818639 0.277924 0.197160
O O4 0.706953 0.268676 0.269401
O O5 0.832746 0.402696 0.243706
O O6 0.828564 0.303638 0.323444
O O7 0.640643 0.640643 0.750000
O O8 0.684686 0.781678 0.785386
O O9 0.542705 0.685493 0.768903
O O10 0.159493 0.492826 0.416667
#
# Coordination Sequence:
#
# PCOD8324347 Si02
#       5
#    18  36  36  36  36
#     4  12  24  44  74  94 138 178 220 284 338 398
#     4  10  21  39  66  95 133 164 218 272 336 402
#     4  11  26  43  65  96 133 179 232 272 334 398
#     4  11  25  44  64 100 135 176 225 275 336 404
#     4  10  21  40  67  98 128 173 214 277 337 398
#
# _framework density 21.136725999999999
#
# number of rings (size 3 to 8) (size 9 to 14) (size 15 to 20)
#    0.000    1.333    2.222    2.444    3.111    3.556 
#    0.667    0.000    0.000    0.000    0.000    0.000 
#    0.000    0.000    0.000    0.000    0.000    0.000 
#
# Total GULP energy -669018.567420 kJ/mol
# GULP energy per Si atom -12389.232730 kJ/mol
# Density = 2.108862 g / cm^3
# Si number density = 21.136726 Si / 1000 Ang^3
#
#
#
# Elastic Constant Matrix: (Units=GPa)
#
#
# Indices 1 2 3 4 5 6 
#
# 1 108.4961 58.4774 54.3653 2.3802 0.0002 0.0000
# 2 58.4774 108.4961 54.3653 -2.3802 -0.0002 0.0000
# 3 54.3653 54.3653 146.6338 0.0000 0.0000 0.0000
# 4 2.3802 -2.3802 0.0000 37.7083 0.0000 -0.0002
# 5 0.0002 -0.0002 0.0000 0.0000 37.7083 2.3802
# 6 0.0000 0.0000 0.0000 -0.0002 2.3802 25.0093
#
#
#
# Elastic Compliance Matrix: (Units=1/GPa)
#
#
# Indices 1 2 3 4 5 6 
#
# 1 0.014004 -0.006109 -0.002927 -0.001270 0.000000 0.000000
# 2 -0.006109 0.014004 -0.002927 0.001270 0.000000 0.000000
# 3 -0.002927 -0.002927 0.008990 0.000000 0.000000 0.000000
# 4 -0.001270 0.001270 0.000000 0.026680 0.000000 0.000000
# 5 0.000000 0.000000 0.000000 0.000000 0.026680 -0.002539
# 6 0.000000 0.000000 0.000000 0.000000 -0.002539 0.040227
#
#
# Mechanical properties :
#
#
# Convention : Reuss Voigt Hill
#
# Bulk Modulus (GPa) = 76.50052 77.56022 77.03037
# Shear Modulus (GPa) = 31.47250 33.17971 32.32610
#
# Velocity S-wave (km/s) = 3.86294 3.96633 3.91497
# Velocity P-wave (km/s) = 7.49454 7.59933 7.54712
#
# Compressibility (1/GPa) = 0.01307181
#
# Stress axis : x y z
#
# Youngs Moduli (GPa) = 71.40704 71.40704 111.23203
#
# Poissons Ratio (x) = 0.43624 0.32559
# Poissons Ratio (y) = 0.43624 0.32559
# Poissons Ratio (z) = 0.20902 0.20902
#
# Static dielectric constant tensor:
#      x y z
#    x 3.751730 0.000000 0.000000 
#    y 0.000000 3.751730 0.000000 
#    z 0.000000 0.000000 4.180660 
# 
# 
# High freq. dielectric constant tensor:
#      x y z
#    x 1.823270 0.000000 0.000000 
#    y 0.000000 1.823270 0.000000 
#    z 0.000000 0.000000 1.850140 
# 
# From -- ./inp_files/4408.got.cif
#   From: 2010.03.12/outbox.cif.g09.slc.cpg/sg167_3_cif.got.tgz:4408.got - 2010.04.02 06:42:56.
