data_PCOD8324601
_publ_section_title
;
Structure prediction by ZEFSAII (Michael W. Deem and Ramdas Pophale) SiO2 
 PCOD8324601
Probable space group: P 61
;
_chemical_formula_sum "Si O2"
_cell_formula_units_Z 48
_cell_length_a 14.542352
_cell_length_b 14.542352
_cell_length_c 12.193460
_cell_angle_alpha 90.000000
_cell_angle_beta 90.000000
_cell_angle_gamma 120.000000
_cell_volume 2233.196275
_symmetry_space_group_name_H-M "P 61"
_symmetry_group_IT_number 169
_symmetry_cell_setting 'hexagonal'
loop_
_space_group_symop_operation_xyz
x,y,z
x-y,x,1/6+z
-y,x-y,1/3+z
-x,-y,1/2+z
-x+y,-x,2/3+z
y,-x+y,5/6+z
loop_
_atom_site_type_symbol
_atom_site_label
_atom_site_fract_x
_atom_site_fract_y
_atom_site_fract_z
Si Si1 0.867228 0.542285 0.887140
Si Si2 0.309044 0.590759 0.662394
Si Si3 0.329003 0.965841 0.823381
Si Si4 0.160388 0.160623 0.638372
Si Si5 0.388209 0.131625 0.360706
Si Si6 0.154123 0.332055 0.971510
Si Si7 0.440103 0.490593 0.360476
Si Si8 0.555045 0.339361 0.716119
O O1 0.762423 0.428730 0.871366
O O2 0.911680 0.603367 0.774093
O O3 0.842179 0.618665 0.961437
O O4 0.949563 0.519052 0.950076
O O5 0.301399 0.485592 0.612349
O O6 0.216131 0.561129 0.751515
O O7 0.284486 0.659436 0.577206
O O8 0.221499 0.906847 0.752470
O O9 0.424609 0.960320 0.766600
O O10 0.356709 0.085951 0.835824
O O11 0.134074 0.082373 0.534350
O O12 0.220970 0.281430 0.595285
O O13 0.232978 0.140823 0.723709
O O14 0.408239 0.060269 0.273807
O O15 0.162412 0.432809 0.911476
O O16 0.396882 0.547672 0.277364
#
# Coordination Sequence:
#
# PCOD8324601 Si02
#       8
#     6   6   6   6   6   6   6   6
#     4  12  26  42  66 104 144 185 237 291 356 433
#     4  12  23  43  67 103 148 191 230 285 363 443
#     4  11  26  44  71 100 139 186 235 298 361 437
#     4  12  27  55  79 107 140 190 255 325 381 442
#     4  12  26  47  72 104 149 190 245 300 367 442
#     4  11  25  47  71 102 135 181 243 296 365 436
#     4  11  25  42  66 106 144 191 235 290 361 434
#     4  11  24  38  70 100 145 186 232 281 348 435
#
# _framework density 21.493856000000001
#
# number of rings (size 3 to 8) (size 9 to 14) (size 15 to 20)
#    0.000    0.500    5.000    2.250    8.750    0.000 
#    2.250    0.000    0.000    0.000    0.000    0.000 
#    0.000    0.000    0.000    0.000    0.000    0.000 
#
# Total GULP energy -595290.846044 kJ/mol
# GULP energy per Si atom -12401.892626 kJ/mol
# Density = 2.144493 g / cm^3
# Si number density = 21.493856 Si / 1000 Ang^3
#
#
#
# Elastic Constant Matrix: (Units=GPa)
#
#
# Indices 1 2 3 4 5 6 
#
# 1 76.1936 8.3740 16.5951 0.0000 0.0000 0.0000
# 2 8.3740 76.1936 16.5951 0.0000 0.0000 0.0000
# 3 16.5951 16.5951 93.2235 0.0000 0.0000 0.0000
# 4 0.0000 0.0000 0.0000 32.9702 0.0000 0.0000
# 5 0.0000 0.0000 0.0000 0.0000 32.9702 0.0000
# 6 0.0000 0.0000 0.0000 0.0000 0.0000 33.9098
#
#
#
# Elastic Compliance Matrix: (Units=1/GPa)
#
#
# Indices 1 2 3 4 5 6 
#
# 1 0.013729 -0.001016 -0.002263 0.000000 0.000000 0.000000
# 2 -0.001016 0.013729 -0.002263 0.000000 0.000000 0.000000
# 3 -0.002263 -0.002263 0.011533 0.000000 0.000000 0.000000
# 4 0.000000 0.000000 0.000000 0.030330 0.000000 0.000000
# 5 0.000000 0.000000 0.000000 0.000000 0.030330 0.000000
# 6 0.000000 0.000000 0.000000 0.000000 0.000000 0.029490
#
#
# Mechanical properties :
#
#
# Convention : Reuss Voigt Hill
#
# Bulk Modulus (GPa) = 35.83417 36.52659 36.18038
# Shear Modulus (GPa) = 33.43855 33.57314 33.50585
#
# Velocity S-wave (km/s) = 3.94855 3.95649 3.95252
# Velocity P-wave (km/s) = 6.12340 6.15651 6.13998
#
# Compressibility (1/GPa) = 0.02790632
#
# Stress axis : x y z
#
# Youngs Moduli (GPa) = 72.83834 72.83834 86.71045
#
# Poissons Ratio (x) = 0.07400 0.19623
# Poissons Ratio (y) = 0.07400 0.19623
# Poissons Ratio (z) = 0.16484 0.16484
#
# Static dielectric constant tensor:
#      x y z
#    x 3.816600 0.000000 0.000000 
#    y 0.000000 3.816600 0.000000 
#    z 0.000000 0.000000 4.087530 
# 
# 
# High freq. dielectric constant tensor:
#      x y z
#    x 1.841630 0.000000 0.000000 
#    y 0.000000 1.841630 0.000000 
#    z 0.000000 0.000000 1.861140 
# 
# From -- ./inp_files/1045.got.cif
#   From: 2010.03.12/outbox.cif.g09.slc.cpg/sg169_cif.got.tgz:1045.got - 2010.04.02 06:46:06.
