data_PCOD8324957
_publ_section_title
;
Structure prediction by ZEFSAII (Michael W. Deem and Ramdas Pophale) SiO2 
 PCOD8324957
Probable space group: P -6
;
_chemical_formula_sum "Si O2"
_cell_formula_units_Z 30
_cell_length_a 8.505725
_cell_length_b 8.505725
_cell_length_c 23.901923
_cell_angle_alpha 90.000000
_cell_angle_beta 90.000000
_cell_angle_gamma 120.000000
_cell_volume 1497.566613
_symmetry_space_group_name_H-M "P -6"
_symmetry_group_IT_number 174
_symmetry_cell_setting 'hexagonal'
loop_
_space_group_symop_operation_xyz
x,y,z
-x+y,-x,-z
-y,x-y,z
x,y,-z
-x+y,-x,z
-y,x-y,-z
loop_
_atom_site_type_symbol
_atom_site_label
_atom_site_fract_x
_atom_site_fract_y
_atom_site_fract_z
Si Si1 0.784246 0.968620 0.891633
Si Si2 0.008736 0.669124 0.335741
Si Si3 0.214850 0.026352 0.500000
Si Si4 0.551174 0.848241 0.000000
Si Si5 0.676845 0.666638 0.619149
Si Si6 0.311935 0.455180 0.785680
O O1 0.668231 0.962249 0.838176
O O2 0.837116 0.808893 0.891309
O O3 0.668224 0.950609 0.946102
O O4 0.799622 0.603027 0.347551
O O5 0.063438 0.529865 0.362749
O O6 0.128879 0.863228 0.364703
O O7 0.041122 0.692267 0.269664
O O8 0.339038 0.044237 0.552896
O O9 0.023058 0.833964 0.500000
O O10 0.365682 0.859140 0.000000
O O11 0.501741 0.647363 0.787118
#
# Coordination Sequence:
#
# PCOD8324957 Si02
#       6
#     6   6   3   3   6   6
#     4  10  22  35  62  98 125 166 220 275 318 388
#     4  12  24  43  64 101 127 181 213 288 330 423
#     4  10  20  42  66  96 122 170 214 276 338 428
#     4  10  20  38  66  88 128 180 212 258 336 400
#     4  12  24  42  68  92 134 166 224 270 353 400
#     4  10  21  40  63  90 130 169 223 262 331 404
#
# _framework density 20.032495999999998
#
# number of rings (size 3 to 8) (size 9 to 14) (size 15 to 20)
#    1.200    0.000    4.000    3.000    2.800    1.600 
#    0.000    0.000    0.000   11.200    0.000    0.000 
#    0.000    0.000    0.000    0.000    0.000    0.000 
#
# Total GULP energy -371957.168368 kJ/mol
# GULP energy per Si atom -12398.572279 kJ/mol
# Density = 1.998690 g / cm^3
# Si number density = 20.032496 Si / 1000 Ang^3
#
#
#
# Elastic Constant Matrix: (Units=GPa)
#
#
# Indices 1 2 3 4 5 6 
#
# 1 65.7515 -0.9352 39.0156 0.0000 0.0000 0.0000
# 2 -0.9352 65.7515 39.0156 0.0000 0.0000 0.0000
# 3 39.0156 39.0156 192.4603 0.0000 0.0000 0.0000
# 4 0.0000 0.0000 0.0000 26.4148 0.0000 0.0000
# 5 0.0000 0.0000 0.0000 0.0000 26.4148 0.0000
# 6 0.0000 0.0000 0.0000 0.0000 0.0000 33.3433
#
#
#
# Elastic Compliance Matrix: (Units=1/GPa)
#
#
# Indices 1 2 3 4 5 6 
#
# 1 0.017702 0.002707 -0.004137 0.000000 0.000000 0.000000
# 2 0.002707 0.017702 -0.004137 0.000000 0.000000 0.000000
# 3 -0.004137 -0.004137 0.006873 0.000000 0.000000 0.000000
# 4 0.000000 0.000000 0.000000 0.037858 0.000000 0.000000
# 5 0.000000 0.000000 0.000000 0.000000 0.037858 0.000000
# 6 0.000000 0.000000 0.000000 0.000000 0.000000 0.029991
#
#
# Mechanical properties :
#
#
# Convention : Reuss Voigt Hill
#
# Bulk Modulus (GPa) = 32.11082 53.12838 42.61960
# Shear Modulus (GPa) = 29.49843 33.69239 31.59541
#
# Velocity S-wave (km/s) = 3.84152 4.10553 3.97572
# Velocity P-wave (km/s) = 5.97834 7.00375 6.51126
#
# Compressibility (1/GPa) = 0.03114215
#
# Stress axis : x y z
#
# Youngs Moduli (GPa) = 56.48984 56.48984 145.49000
#
# Poissons Ratio (x) = -0.15291 0.60194
# Poissons Ratio (y) = -0.15291 0.60194
# Poissons Ratio (z) = 0.23372 0.23372
#
# Static dielectric constant tensor:
#      x y z
#    x 3.378180 0.000000 0.000000 
#    y 0.000000 3.378180 0.000000 
#    z 0.000000 0.000000 3.652700 
# 
# 
# High freq. dielectric constant tensor:
#      x y z
#    x 1.766210 0.000000 0.000000 
#    y 0.000000 1.766210 0.000000 
#    z 0.000000 0.000000 1.794850 
# 
# From -- ./inp_files/1078.got.cif
#   From: 2010.03.12/outbox.cif.g09.slc.cpg/sg174_cif.got.tgz:1078.got - 2010.04.02 06:54:58.
