data_PCOD8324516
_publ_section_title
;
Structure prediction by ZEFSAII (Michael W. Deem and Ramdas Pophale) SiO2 
 PCOD8324516
Probable space group: P 61
;
_chemical_formula_sum "Si O2"
_cell_formula_units_Z 42
_cell_length_a 15.169155
_cell_length_b 15.169155
_cell_length_c 9.583059
_cell_angle_alpha 90.000000
_cell_angle_beta 90.000000
_cell_angle_gamma 120.000000
_cell_volume 1909.666685
_symmetry_space_group_name_H-M "P 61"
_symmetry_group_IT_number 169
_symmetry_cell_setting 'hexagonal'
loop_
_space_group_symop_operation_xyz
x,y,z
x-y,x,1/6+z
-y,x-y,1/3+z
-x,-y,1/2+z
-x+y,-x,2/3+z
y,-x+y,5/6+z
loop_
_atom_site_type_symbol
_atom_site_label
_atom_site_fract_x
_atom_site_fract_y
_atom_site_fract_z
Si Si1 0.822374 0.432308 0.781830
Si Si2 0.435899 0.868450 0.400802
Si Si3 0.358480 0.993580 0.035440
Si Si4 0.384313 0.033779 0.349673
Si Si5 0.816388 0.968411 0.910521
Si Si6 0.152729 0.976629 0.983841
Si Si7 0.402582 0.673296 0.326770
O O1 0.882561 0.534095 0.875923
O O2 0.797218 0.459431 0.628830
O O3 0.716607 0.370132 0.864926
O O4 0.881237 0.368042 0.759479
O O5 0.374277 0.922891 0.352166
O O6 0.441985 0.791861 0.288792
O O7 0.383017 0.805634 0.538067
O O8 0.551139 0.950673 0.427338
O O9 0.380774 0.052680 0.183640
O O10 0.263262 0.991237 0.960030
O O11 0.286587 0.025880 0.429124
O O12 0.796291 0.894328 0.781325
O O13 0.915519 0.080048 0.879868
O O14 0.157549 0.083973 0.013505
#
# Coordination Sequence:
#
# PCOD8324516 Si02
#       7
#     6   6   6   6   6   6   6
#     4  10  24  36  63  93 127 172 209 260 310 382
#     4  10  24  40  59  90 133 161 211 258 309 390
#     4  11  22  39  64  93 127 163 214 264 310 384
#     4  11  22  39  63  95 125 166 212 261 317 379
#     4  10  21  37  65  92 119 152 209 265 312 380
#     4  10  21  37  66  92 116 155 208 265 314 376
#     4  10  22  40  62  89 129 167 207 253 316 383
#
# _framework density 21.993366000000002
#
# number of rings (size 3 to 8) (size 9 to 14) (size 15 to 20)
#    0.000    1.714    4.286    0.000   12.000    0.000 
#    0.000    0.000   15.714    0.000    0.000    0.000 
#    0.000    0.000    0.000    0.000    0.000    0.000 
#
# Total GULP energy -520535.838638 kJ/mol
# GULP energy per Si atom -12393.710444 kJ/mol
# Density = 2.194331 g / cm^3
# Si number density = 21.993366 Si / 1000 Ang^3
#
#
#
# Elastic Constant Matrix: (Units=GPa)
#
#
# Indices 1 2 3 4 5 6 
#
# 1 96.8232 33.1820 17.1832 0.0000 0.0000 0.0000
# 2 33.1820 96.8232 17.1832 0.0000 0.0000 0.0000
# 3 17.1832 17.1832 20.2278 0.0000 0.0000 0.0000
# 4 0.0000 0.0000 0.0000 23.6350 0.0000 0.0000
# 5 0.0000 0.0000 0.0000 0.0000 23.6350 0.0000
# 6 0.0000 0.0000 0.0000 0.0000 0.0000 31.8206
#
#
#
# Elastic Compliance Matrix: (Units=1/GPa)
#
#
# Indices 1 2 3 4 5 6 
#
# 1 0.012816 -0.002897 -0.008426 0.000000 0.000000 0.000000
# 2 -0.002897 0.012816 -0.008426 0.000000 0.000000 0.000000
# 3 -0.008426 -0.008426 0.063753 0.000000 0.000000 0.000000
# 4 0.000000 0.000000 0.000000 0.042310 0.000000 0.000000
# 5 0.000000 0.000000 0.000000 0.000000 0.042310 0.000000
# 6 0.000000 0.000000 0.000000 0.000000 0.000000 0.031426
#
#
# Mechanical properties :
#
#
# Convention : Reuss Voigt Hill
#
# Bulk Modulus (GPa) = 20.04553 38.77455 29.41004
# Shear Modulus (GPa) = 19.11603 25.57317 22.34460
#
# Velocity S-wave (km/s) = 2.95137 3.41364 3.19089
# Velocity P-wave (km/s) = 4.55503 5.76243 5.19393
#
# Compressibility (1/GPa) = 0.04988643
#
# Stress axis : x y z
#
# Youngs Moduli (GPa) = 78.02571 78.02571 15.68547
#
# Poissons Ratio (x) = 0.22602 0.13217
# Poissons Ratio (y) = 0.22602 0.13217
# Poissons Ratio (z) = 0.65748 0.65748
#
# Static dielectric constant tensor:
#      x y z
#    x 4.225710 0.000000 0.000000 
#    y 0.000000 4.225710 0.000000 
#    z 0.000000 0.000000 3.648770 
# 
# 
# High freq. dielectric constant tensor:
#      x y z
#    x 1.872680 0.000000 0.000000 
#    y 0.000000 1.872680 0.000000 
#    z 0.000000 0.000000 1.832660 
# 
# From -- ./inp_files/947.got.cif
#   From: 2010.03.12/outbox.cif.g09.slc.cpg/sg169_cif.got.tgz:947.got - 2010.04.02 06:46:06.
