data_PCOD8324420
_publ_section_title
;
Structure prediction by ZEFSAII (Michael W. Deem and Ramdas Pophale) SiO2 
 PCOD8324420
Probable space group: R -3 C 
;
_chemical_formula_sum "Si O2"
_cell_formula_units_Z 138
_cell_length_a 17.810108
_cell_length_b 17.810108
_cell_length_c 21.405724
_cell_angle_alpha 90.000000
_cell_angle_beta 90.000000
_cell_angle_gamma 120.000000
_cell_volume 5880.221141
_symmetry_space_group_name_H-M "R -3 C "
_symmetry_group_IT_number 167
_symmetry_cell_setting 'hexagonal'
loop_
_space_group_symop_operation_xyz
x,y,z
-y,x-y,z
-x+y,-x,z
x-y,-y,1/2-z
-x,-x+y,1/2-z
y,x,1/2-z
-x,-y,-z
y,-x+y,-z
x-y,x,-z
-x+y,y,1/2+z
x,x-y,1/2+z
-y,-x,1/2+z
2/3+x,1/3+y,1/3+z
2/3-y,1/3+x-y,1/3+z
2/3-x+y,1/3-x,1/3+z
2/3+x-y,1/3-y,5/6-z
2/3-x,1/3-x+y,5/6-z
2/3+y,1/3+x,5/6-z
2/3-x,1/3-y,1/3-z
2/3+y,1/3-x+y,1/3-z
2/3+x-y,1/3+x,1/3-z
2/3-x+y,1/3+y,5/6+z
2/3+x,1/3+x-y,5/6+z
2/3-y,1/3-x,5/6+z
1/3+x,2/3+y,2/3+z
1/3-y,2/3+x-y,2/3+z
1/3-x+y,2/3-x,2/3+z
1/3+x-y,2/3-y,1/6-z
1/3-x,2/3-x+y,1/6-z
1/3+y,2/3+x,1/6-z
1/3-x,2/3-y,2/3-z
1/3+y,2/3-x+y,2/3-z
1/3+x-y,2/3+x,2/3-z
1/3-x+y,2/3+y,1/6+z
1/3+x,2/3+x-y,1/6+z
1/3-y,2/3-x,1/6+z
loop_
_atom_site_type_symbol
_atom_site_label
_atom_site_fract_x
_atom_site_fract_y
_atom_site_fract_z
Si Si1 0.000000 0.000000 0.678296
Si Si2 0.521945 0.738063 0.005080
Si Si3 0.898850 0.565517 0.583334
Si Si4 0.345583 0.316499 0.015214
Si Si5 0.182563 0.135465 0.977408
O O1 0.083374 0.086991 0.656375
O O2 0.000000 0.000000 0.750000
O O3 0.542204 0.765146 0.077784
O O4 0.548309 0.813621 0.954058
O O5 0.565523 0.684359 0.981722
O O6 0.972685 0.602483 0.530371
O O7 0.319509 0.333334 0.083334
O O8 0.269050 0.222939 0.995131
O O9 0.103451 0.156810 0.976594
#
# Coordination Sequence:
#
# PCOD8324420 Si02
#       5
#    12  36  18  36  36
#     4  12  24  48  70 113 151 198 255 334 395 484
#     4  12  26  48  77 112 159 206 271 334 406 483
#     4  12  26  50  78 114 162 214 266 336 412 484
#     4  12  27  48  77 114 159 214 270 338 410 487
#     4  12  25  49  78 118 162 213 275 336 409 488
#
# _framework density 23.468505
#
# number of rings (size 3 to 8) (size 9 to 14) (size 15 to 20)
#    0.000    0.000    3.913    5.739    0.000    1.043 
#    0.000    0.000    0.000    0.000    0.000    0.000 
#    0.000    0.000    0.000    0.000    0.000    0.000 
#
# Total GULP energy -569884.603418 kJ/mol
# GULP energy per Si atom -12388.795726 kJ/mol
# Density = 2.341509 g / cm^3
# Si number density = 23.468505 Si / 1000 Ang^3
#
#
#
# Elastic Constant Matrix: (Units=GPa)
#
#
# Indices 1 2 3 4 5 6 
#
# 1 100.2219 32.2123 34.9875 5.0172 0.0002 0.0000
# 2 32.2123 100.2219 34.9875 -5.0172 -0.0002 0.0000
# 3 34.9875 34.9875 194.4756 0.0000 0.0000 0.0000
# 4 5.0172 -5.0172 0.0000 41.1978 0.0000 -0.0002
# 5 0.0002 -0.0002 0.0000 0.0000 41.1978 5.0172
# 6 0.0000 0.0000 0.0000 -0.0002 5.0172 34.0048
#
#
#
# Elastic Compliance Matrix: (Units=1/GPa)
#
#
# Indices 1 2 3 4 5 6 
#
# 1 0.011658 -0.003314 -0.001501 -0.001823 0.000000 0.000000
# 2 -0.003314 0.011658 -0.001501 0.001823 0.000000 0.000000
# 3 -0.001501 -0.001501 0.005682 0.000000 0.000000 0.000000
# 4 -0.001823 0.001823 0.000000 0.024717 0.000000 0.000000
# 5 0.000000 0.000000 0.000000 0.000000 0.024717 -0.003647
# 6 0.000000 0.000000 0.000000 0.000000 -0.003647 0.029946
#
#
# Mechanical properties :
#
#
# Convention : Reuss Voigt Hill
#
# Bulk Modulus (GPa) = 61.10330 66.58821 63.84575
# Shear Modulus (GPa) = 39.53570 42.79555 41.16562
#
# Velocity S-wave (km/s) = 4.10887 4.27491 4.19272
# Velocity P-wave (km/s) = 6.97161 7.26647 7.12056
#
# Compressibility (1/GPa) = 0.01636573
#
# Stress axis : x y z
#
# Youngs Moduli (GPa) = 85.77454 85.77454 175.98909
#
# Poissons Ratio (x) = 0.28429 0.26419
# Poissons Ratio (y) = 0.28429 0.26419
# Poissons Ratio (z) = 0.12876 0.12876
#
# Static dielectric constant tensor:
#      x y z
#    x 4.269360 0.000000 0.000000 
#    y 0.000000 4.269360 0.000000 
#    z 0.000000 0.000000 5.084320 
# 
# 
# High freq. dielectric constant tensor:
#      x y z
#    x 1.932970 0.000000 0.000000 
#    y 0.000000 1.932970 0.000000 
#    z 0.000000 0.000000 1.952980 
# 
# From -- ./inp_files/6059.got.cif
#   From: 2010.03.12/outbox.cif.g09.slc.cpg/sg167_4_cif.got.tgz:6059.got - 2010.04.02 06:42:56.
