data_PCOD8324674
_publ_section_title
;
Structure prediction by ZEFSAII (Michael W. Deem and Ramdas Pophale) SiO2 
 PCOD8324674
Probable space group: P 65
;
_chemical_formula_sum "Si O2"
_cell_formula_units_Z 42
_cell_length_a 19.017656
_cell_length_b 19.017656
_cell_length_c 6.303783
_cell_angle_alpha 90.000000
_cell_angle_beta 90.000000
_cell_angle_gamma 120.000000
_cell_volume 1974.448731
_symmetry_space_group_name_H-M "P 65"
_symmetry_group_IT_number 170
_symmetry_cell_setting 'hexagonal'
loop_
_space_group_symop_operation_xyz
x,y,z
x-y,x,5/6+z
-y,x-y,2/3+z
-x,-y,1/2+z
-x+y,-x,1/3+z
y,-x+y,1/6+z
loop_
_atom_site_type_symbol
_atom_site_label
_atom_site_fract_x
_atom_site_fract_y
_atom_site_fract_z
Si Si1 0.246839 0.991368 0.567370
Si Si2 0.411481 0.010616 0.604371
Si Si3 0.169483 0.042686 0.913670
Si Si4 0.114469 0.560552 0.075346
Si Si5 0.180273 0.309615 0.057909
Si Si6 0.477786 0.154352 0.285384
Si Si7 0.254792 0.645661 0.770325
O O1 0.326787 0.001809 0.687823
O O2 0.202859 0.901720 0.477214
O O3 0.182613 0.002818 0.705291
O O4 0.274155 0.055073 0.382289
O O5 0.397444 0.924204 0.521421
O O6 0.471523 0.042681 0.804771
O O7 0.444405 0.068459 0.400186
O O8 0.133799 0.102732 0.885676
O O9 0.259250 0.094909 0.009731
O O10 0.162186 0.627981 0.254596
O O11 0.178967 0.571196 0.892923
O O12 0.240417 0.405125 0.022676
O O13 0.529331 0.225028 0.456982
O O14 0.294137 0.608059 0.616057
#
# Coordination Sequence:
#
# PCOD8324674 Si02
#       7
#     6   6   6   6   6   6   6
#     4  11  23  41  64  91 133 168 216 264 329 388
#     4  10  22  39  66 100 130 177 217 277 331 401
#     4  12  25  42  68  97 131 175 221 274 336 398
#     4  11  21  43  69  96 138 174 224 276 340 406
#     4  11  23  43  65  94 128 169 214 273 325 397
#     4  10  23  42  67  95 131 175 224 275 340 401
#     4  11  25  44  67  97 137 178 226 283 339 405
#
# _framework density 21.27176
#
# number of rings (size 3 to 8) (size 9 to 14) (size 15 to 20)
#    0.000    1.143    4.286    1.714    0.000    4.571 
#    0.000    0.000    3.143    0.000    0.000    0.000 
#    0.000    0.000    0.000    0.000    0.000    0.000 
#
# Total GULP energy -520823.094680 kJ/mol
# GULP energy per Si atom -12400.549873 kJ/mol
# Density = 2.122334 g / cm^3
# Si number density = 21.271760 Si / 1000 Ang^3
#
#
#
# Elastic Constant Matrix: (Units=GPa)
#
#
# Indices 1 2 3 4 5 6 
#
# 1 99.4534 41.1721 28.6674 0.0000 0.0000 0.0000
# 2 41.1721 99.4534 28.6674 0.0000 0.0000 0.0000
# 3 28.6674 28.6674 79.8038 0.0000 0.0000 0.0000
# 4 0.0000 0.0000 0.0000 37.6044 0.0000 0.0000
# 5 0.0000 0.0000 0.0000 0.0000 37.6044 0.0000
# 6 0.0000 0.0000 0.0000 0.0000 0.0000 29.1407
#
#
#
# Elastic Compliance Matrix: (Units=1/GPa)
#
#
# Indices 1 2 3 4 5 6 
#
# 1 0.012745 -0.004413 -0.002993 0.000000 0.000000 0.000000
# 2 -0.004413 0.012745 -0.002993 0.000000 0.000000 0.000000
# 3 -0.002993 -0.002993 0.014681 0.000000 0.000000 0.000000
# 4 0.000000 0.000000 0.000000 0.026593 0.000000 0.000000
# 5 0.000000 0.000000 0.000000 0.000000 0.026593 0.000000
# 6 0.000000 0.000000 0.000000 0.000000 0.000000 0.034316
#
#
# Mechanical properties :
#
#
# Convention : Reuss Voigt Hill
#
# Bulk Modulus (GPa) = 51.62011 52.85827 52.23919
# Shear Modulus (GPa) = 32.27320 32.88349 32.57835
#
# Velocity S-wave (km/s) = 3.89933 3.93603 3.91772
# Velocity P-wave (km/s) = 6.67778 6.74977 6.71387
#
# Compressibility (1/GPa) = 0.01937229
#
# Stress axis : x y z
#
# Youngs Moduli (GPa) = 78.46389 78.46389 68.11575
#
# Poissons Ratio (x) = 0.34630 0.20386
# Poissons Ratio (y) = 0.34630 0.20386
# Poissons Ratio (z) = 0.23483 0.23483
#
# Static dielectric constant tensor:
#      x y z
#    x 3.931130 0.000000 0.000000 
#    y 0.000000 3.931130 0.000000 
#    z 0.000000 0.000000 3.797390 
# 
# 
# High freq. dielectric constant tensor:
#      x y z
#    x 1.838780 0.000000 0.000000 
#    y 0.000000 1.838780 0.000000 
#    z 0.000000 0.000000 1.832650 
# 
# From -- ./inp_files/259.got.cif
#   From: 2010.03.12/outbox.cif.g09.slc.cpg/sg170_cif.got.tgz:259.got - 2010.04.02 06:47:37.
