data_PCOD8324163
_publ_section_title
;
Structure prediction by ZEFSAII (Michael W. Deem and Ramdas Pophale) SiO2 
 PCOD8324163
Probable space group: R -3 M
;
_chemical_formula_sum "Si O2"
_cell_formula_units_Z 162
_cell_length_a 20.735985
_cell_length_b 20.735985
_cell_length_c 22.591589
_cell_angle_alpha 90.000000
_cell_angle_beta 90.000000
_cell_angle_gamma 120.000000
_cell_volume 8412.532407
_symmetry_space_group_name_H-M "R -3 M"
_symmetry_group_IT_number 166
_symmetry_cell_setting 'hexagonal'
loop_
_space_group_symop_operation_xyz
x,y,z
-y,x-y,z
-x+y,-x,z
x-y,-y,-z
-x,-x+y,-z
y,x,-z
-x,-y,-z
y,-x+y,-z
x-y,x,-z
-x+y,y,z
x,x-y,z
-y,-x,z
2/3+x,1/3+y,1/3+z
2/3-y,1/3+x-y,1/3+z
2/3-x+y,1/3-x,1/3+z
2/3+x-y,1/3-y,1/3-z
2/3-x,1/3-x+y,1/3-z
2/3+y,1/3+x,1/3-z
2/3-x,1/3-y,1/3-z
2/3+y,1/3-x+y,1/3-z
2/3+x-y,1/3+x,1/3-z
2/3-x+y,1/3+y,1/3+z
2/3+x,1/3+x-y,1/3+z
2/3-y,1/3-x,1/3+z
1/3+x,2/3+y,2/3+z
1/3-y,2/3+x-y,2/3+z
1/3-x+y,2/3-x,2/3+z
1/3+x-y,2/3-y,2/3-z
1/3-x,2/3-x+y,2/3-z
1/3+y,2/3+x,2/3-z
1/3-x,2/3-y,2/3-z
1/3+y,2/3-x+y,2/3-z
1/3+x-y,2/3+x,2/3-z
1/3-x+y,2/3+y,2/3+z
1/3+x,2/3+x-y,2/3+z
1/3-y,2/3-x,2/3+z
loop_
_atom_site_type_symbol
_atom_site_label
_atom_site_fract_x
_atom_site_fract_y
_atom_site_fract_z
Si Si1 0.558968 0.656854 0.778250
Si Si2 0.151505 0.997730 0.769477
Si Si3 0.703880 0.782328 0.485699
Si Si4 0.478856 0.812189 0.666667
Si Si5 0.337023 0.380821 0.392134
O O1 0.526206 0.681292 0.832895
O O2 0.559279 0.581300 0.793890
O O3 0.507573 0.639535 0.721451
O O4 0.645051 0.718611 0.762277
O O5 0.158583 0.079292 0.764693
O O6 0.202647 0.985863 0.719903
O O7 0.065649 0.934352 0.760005
O O8 0.775005 0.775005 0.500000
O O9 0.737474 0.868737 0.475403
O O10 0.663608 0.739712 0.426777
O O11 0.400810 0.801619 0.644644
O O12 0.326655 0.333334 0.333334
#
# Coordination Sequence:
#
# PCOD8324163 Si02
#       5
#    36  36  36  18  36
#     4  10  20  36  56  81 110 147 190 241 286 322
#     4  11  23  39  59  83 116 157 195 233 281 347
#     4   9  18  33  55  78 106 139 180 227 285 348
#     4  12  23  34  50  74 113 156 194 230 272 330
#     4  10  20  37  58  86 108 139 187 244 303 334
#
# _framework density 19.256983000000002
#
# number of rings (size 3 to 8) (size 9 to 14) (size 15 to 20)
#    0.000    1.778    1.111    7.000    0.000    4.444 
#    0.000    3.333    0.000    0.222    0.000    0.000 
#    0.000    0.000    0.000    0.000    0.000    1.333 
#
# Total GULP energy -669068.239927 kJ/mol
# GULP energy per Si atom -12390.152591 kJ/mol
# Density = 1.921315 g / cm^3
# Si number density = 19.256983 Si / 1000 Ang^3
#
#
#
# Elastic Constant Matrix: (Units=GPa)
#
#
# Indices 1 2 3 4 5 6 
#
# 1 101.3355 58.6139 13.9607 -0.2408 0.0004 0.0000
# 2 58.6139 101.3355 13.9607 0.2408 -0.0004 0.0000
# 3 13.9607 13.9607 70.1290 0.0000 0.0000 0.0000
# 4 -0.2408 0.2408 0.0000 14.7659 0.0000 -0.0004
# 5 0.0004 -0.0004 0.0000 0.0000 14.7659 -0.2408
# 6 0.0000 0.0000 0.0000 -0.0004 -0.2408 21.3608
#
#
#
# Elastic Compliance Matrix: (Units=1/GPa)
#
#
# Indices 1 2 3 4 5 6 
#
# 1 0.014944 -0.008467 -0.001289 0.000382 -0.000001 0.000000
# 2 -0.008467 0.014944 -0.001289 -0.000382 0.000001 0.000000
# 3 -0.001289 -0.001289 0.014773 0.000000 0.000000 0.000000
# 4 0.000382 -0.000382 0.000000 0.067736 0.000000 0.000001
# 5 -0.000001 0.000001 0.000000 0.000000 0.067736 0.000764
# 6 0.000000 0.000000 0.000000 0.000001 0.000764 0.046823
#
#
# Mechanical properties :
#
#
# Convention : Reuss Voigt Hill
#
# Bulk Modulus (GPa) = 44.30792 49.54118 46.92455
# Shear Modulus (GPa) = 19.48765 22.59614 21.04190
#
# Velocity S-wave (km/s) = 3.18461 3.42921 3.30917
# Velocity P-wave (km/s) = 6.04823 6.43906 6.24670
#
# Compressibility (1/GPa) = 0.02256933
#
# Stress axis : x y z
#
# Youngs Moduli (GPa) = 66.91480 66.91480 67.69194
#
# Poissons Ratio (x) = 0.56659 0.08728
# Poissons Ratio (y) = 0.56659 0.08728
# Poissons Ratio (z) = 0.08628 0.08628
#
# Static dielectric constant tensor:
#      x y z
#    x 3.549520 0.000000 0.000000 
#    y 0.000000 3.549520 0.000000 
#    z 0.000000 0.000000 3.595040 
# 
# 
# High freq. dielectric constant tensor:
#      x y z
#    x 1.743460 0.000000 0.000000 
#    y 0.000000 1.743460 0.000000 
#    z 0.000000 0.000000 1.730110 
# 
# From -- ./inp_files/6744.got.cif
#   From: 2010.03.12/outbox.cif.g09.slc.cpg/sg166_4_cif.got.tgz:6744.got - 2010.04.02 06:38:31.
