data_PCOD8324607
_publ_section_title
;
Structure prediction by ZEFSAII (Michael W. Deem and Ramdas Pophale) SiO2 
 PCOD8324607
Probable space group: P 61
;
_chemical_formula_sum "Si O2"
_cell_formula_units_Z 36
_cell_length_a 14.904199
_cell_length_b 14.904199
_cell_length_c 8.034907
_cell_angle_alpha 90.000000
_cell_angle_beta 90.000000
_cell_angle_gamma 120.000000
_cell_volume 1545.712672
_symmetry_space_group_name_H-M "P 61"
_symmetry_group_IT_number 169
_symmetry_cell_setting 'hexagonal'
loop_
_space_group_symop_operation_xyz
x,y,z
x-y,x,1/6+z
-y,x-y,1/3+z
-x,-y,1/2+z
-x+y,-x,2/3+z
y,-x+y,5/6+z
loop_
_atom_site_type_symbol
_atom_site_label
_atom_site_fract_x
_atom_site_fract_y
_atom_site_fract_z
Si Si1 0.801552 0.837431 0.023050
Si Si2 0.888841 0.246242 0.489994
Si Si3 0.050981 0.370921 0.224614
Si Si4 0.502971 0.910495 0.922558
Si Si5 0.312669 0.587105 0.817953
Si Si6 0.901976 0.603996 0.372019
O O1 0.887126 0.842662 0.147177
O O2 0.686027 0.794996 0.091445
O O3 0.791611 0.759665 0.877014
O O4 0.777073 0.144864 0.482356
O O5 0.867399 0.318187 0.615097
O O6 0.940032 0.308291 0.318127
O O7 0.083947 0.489519 0.189210
O O8 0.045321 0.329182 0.039058
O O9 0.591460 0.026162 0.957714
O O10 0.468301 0.844941 0.094183
O O11 0.300028 0.635979 0.642191
O O12 0.206626 0.498850 0.895523
#
# Coordination Sequence:
#
# PCOD8324607 Si02
#       6
#     6   6   6   6   6   6
#     4  11  24  50  73 105 143 195 243 311 381 454
#     4  11  25  46  76 103 148 192 247 305 381 452
#     4  12  26  45  72 110 143 192 246 309 383 454
#     4  11  26  44  73 106 146 196 237 310 371 463
#     4  12  28  50  76 112 155 198 256 316 390 466
#     4  11  27  45  74 106 147 193 247 307 374 461
#
# _framework density 23.290226000000001
#
# number of rings (size 3 to 8) (size 9 to 14) (size 15 to 20)
#    0.000    0.667    1.667    5.000   14.000    2.667 
#    3.000    0.000    0.000    0.000    0.000    0.000 
#    0.000    0.000    0.000    0.000    0.000    0.000 
#
# Total GULP energy -446172.665619 kJ/mol
# GULP energy per Si atom -12393.685156 kJ/mol
# Density = 2.323722 g / cm^3
# Si number density = 23.290226 Si / 1000 Ang^3
#
#
#
# Elastic Constant Matrix: (Units=GPa)
#
#
# Indices 1 2 3 4 5 6 
#
# 1 73.5478 47.2963 14.8681 0.0000 0.0000 0.0000
# 2 47.2963 73.5478 14.8681 0.0000 0.0000 0.0000
# 3 14.8681 14.8681 87.0793 0.0000 0.0000 0.0000
# 4 0.0000 0.0000 0.0000 29.8073 0.0000 0.0000
# 5 0.0000 0.0000 0.0000 0.0000 29.8073 0.0000
# 6 0.0000 0.0000 0.0000 0.0000 0.0000 13.1258
#
#
#
# Elastic Compliance Matrix: (Units=1/GPa)
#
#
# Indices 1 2 3 4 5 6 
#
# 1 0.023366 -0.014727 -0.001475 0.000000 0.000000 0.000000
# 2 -0.014727 0.023366 -0.001475 0.000000 0.000000 0.000000
# 3 -0.001475 -0.001475 0.011987 0.000000 0.000000 0.000000
# 4 0.000000 0.000000 0.000000 0.033549 0.000000 0.000000
# 5 0.000000 0.000000 0.000000 0.000000 0.033549 0.000000
# 6 0.000000 0.000000 0.000000 0.000000 0.000000 0.076186
#
#
# Mechanical properties :
#
#
# Convention : Reuss Voigt Hill
#
# Bulk Modulus (GPa) = 42.80087 43.13777 42.96932
# Shear Modulus (GPa) = 20.39612 25.02424 22.71018
#
# Velocity S-wave (km/s) = 2.96250 3.28144 3.12604
# Velocity P-wave (km/s) = 5.48807 5.73752 5.61418
#
# Compressibility (1/GPa) = 0.02336401
#
# Stress axis : x y z
#
# Youngs Moduli (GPa) = 42.79806 42.79806 83.42067
#
# Poissons Ratio (x) = 0.63031 0.12304
# Poissons Ratio (y) = 0.63031 0.12304
# Poissons Ratio (z) = 0.06312 0.06312
#
# Static dielectric constant tensor:
#      x y z
#    x 4.337050 0.000000 0.000000 
#    y 0.000000 4.337050 0.000000 
#    z 0.000000 0.000000 4.383840 
# 
# 
# High freq. dielectric constant tensor:
#      x y z
#    x 1.929750 0.000000 0.000000 
#    y 0.000000 1.929750 0.000000 
#    z 0.000000 0.000000 1.925400 
# 
# From -- ./inp_files/599.got.cif
#   From: 2010.03.12/outbox.cif.g09.slc.cpg/sg169_cif.got.tgz:599.got - 2010.04.02 06:46:06.
