data_PCOD8324598
_publ_section_title
;
Structure prediction by ZEFSAII (Michael W. Deem and Ramdas Pophale) SiO2 
 PCOD8324598
Probable space group: P 61
;
_chemical_formula_sum "Si O2"
_cell_formula_units_Z 24
_cell_length_a 13.971810
_cell_length_b 13.971810
_cell_length_c 6.571781
_cell_angle_alpha 90.000000
_cell_angle_beta 90.000000
_cell_angle_gamma 120.000000
_cell_volume 1111.012784
_symmetry_space_group_name_H-M "P 61"
_symmetry_group_IT_number 169
_symmetry_cell_setting 'hexagonal'
loop_
_space_group_symop_operation_xyz
x,y,z
x-y,x,1/6+z
-y,x-y,1/3+z
-x,-y,1/2+z
-x+y,-x,2/3+z
y,-x+y,5/6+z
loop_
_atom_site_type_symbol
_atom_site_label
_atom_site_fract_x
_atom_site_fract_y
_atom_site_fract_z
Si Si1 0.834216 0.073835 0.355730
Si Si2 0.547914 0.731785 0.801496
Si Si3 0.459975 0.881000 0.849571
Si Si4 0.670500 0.062386 0.028941
O O1 0.805343 0.146062 0.506581
O O2 0.755535 0.040856 0.157557
O O3 0.962378 0.146645 0.294864
O O4 0.457224 0.770081 0.776541
O O5 0.481587 0.606243 0.720405
O O6 0.576509 0.739215 0.040463
O O7 0.410322 0.915745 0.666177
O O8 0.590999 0.959080 0.887893
#
# Coordination Sequence:
#
# PCOD8324598 Si02
#       4
#     6   6   6   6
#     4  11  26  49  72 102 138 183 238 293 350 416
#     4  11  25  41  69 101 141 180 229 280 346 413
#     4  11  24  40  67 100 137 178 225 278 339 418
#     4  11  23  44  70  99 142 179 224 281 349 411
#
# _framework density 21.601911000000001
#
# number of rings (size 3 to 8) (size 9 to 14) (size 15 to 20)
#    0.000    1.000    2.500    3.000    7.000    2.000 
#    9.000    0.000    0.000    0.000    0.000    0.000 
#    0.000    0.000    0.000    0.000    0.000    0.000 
#
# Total GULP energy -297578.417263 kJ/mol
# GULP energy per Si atom -12399.100719 kJ/mol
# Density = 2.155274 g / cm^3
# Si number density = 21.601911 Si / 1000 Ang^3
#
#
#
# Elastic Constant Matrix: (Units=GPa)
#
#
# Indices 1 2 3 4 5 6 
#
# 1 117.7045 47.2968 38.3679 0.0000 0.0000 0.0000
# 2 47.2968 117.7045 38.3679 0.0000 0.0000 0.0000
# 3 38.3679 38.3679 108.1344 0.0000 0.0000 0.0000
# 4 0.0000 0.0000 0.0000 24.8084 0.0000 0.0000
# 5 0.0000 0.0000 0.0000 0.0000 24.8084 0.0000
# 6 0.0000 0.0000 0.0000 0.0000 0.0000 35.2038
#
#
#
# Elastic Compliance Matrix: (Units=1/GPa)
#
#
# Indices 1 2 3 4 5 6 
#
# 1 0.010731 -0.003472 -0.002575 0.000000 0.000000 0.000000
# 2 -0.003472 0.010731 -0.002575 0.000000 0.000000 0.000000
# 3 -0.002575 -0.002575 0.011075 0.000000 0.000000 0.000000
# 4 0.000000 0.000000 0.000000 0.040309 0.000000 0.000000
# 5 0.000000 0.000000 0.000000 0.000000 0.040309 0.000000
# 6 0.000000 0.000000 0.000000 0.000000 0.000000 0.028406
#
#
# Mechanical properties :
#
#
# Convention : Reuss Voigt Hill
#
# Bulk Modulus (GPa) = 65.40045 65.73429 65.56737
# Shear Modulus (GPa) = 30.50579 31.59818 31.05199
#
# Velocity S-wave (km/s) = 3.76198 3.82874 3.79550
# Velocity P-wave (km/s) = 7.01505 7.07401 7.04459
#
# Compressibility (1/GPa) = 0.01529041
#
# Stress axis : x y z
#
# Youngs Moduli (GPa) = 93.19120 93.19120 90.29092
#
# Poissons Ratio (x) = 0.32359 0.23253
# Poissons Ratio (y) = 0.32359 0.23253
# Poissons Ratio (z) = 0.24000 0.24000
#
# Static dielectric constant tensor:
#      x y z
#    x 3.829470 0.000000 0.000000 
#    y 0.000000 3.829470 0.000000 
#    z 0.000000 0.000000 3.891730 
# 
# 
# High freq. dielectric constant tensor:
#      x y z
#    x 1.851680 0.000000 0.000000 
#    y 0.000000 1.851680 0.000000 
#    z 0.000000 0.000000 1.857220 
# 
# From -- ./inp_files/58.got.cif
#   From: 2010.03.12/outbox.cif.g09.slc.cpg/sg169_cif.got.tgz:58.got - 2010.04.02 06:46:06.
