data_PCOD8324301
_publ_section_title
;
Structure prediction by ZEFSAII (Michael W. Deem and Ramdas Pophale) SiO2 
 PCOD8324301
Probable space group: R -3 C 
;
_chemical_formula_sum "Si O2"
_cell_formula_units_Z 216
_cell_length_a 23.054497
_cell_length_b 23.054497
_cell_length_c 25.235013
_cell_angle_alpha 90.000000
_cell_angle_beta 90.000000
_cell_angle_gamma 120.000000
_cell_volume 11615.702143
_symmetry_space_group_name_H-M "R -3 C "
_symmetry_group_IT_number 167
_symmetry_cell_setting 'hexagonal'
loop_
_space_group_symop_operation_xyz
x,y,z
-y,x-y,z
-x+y,-x,z
x-y,-y,1/2-z
-x,-x+y,1/2-z
y,x,1/2-z
-x,-y,-z
y,-x+y,-z
x-y,x,-z
-x+y,y,1/2+z
x,x-y,1/2+z
-y,-x,1/2+z
2/3+x,1/3+y,1/3+z
2/3-y,1/3+x-y,1/3+z
2/3-x+y,1/3-x,1/3+z
2/3+x-y,1/3-y,5/6-z
2/3-x,1/3-x+y,5/6-z
2/3+y,1/3+x,5/6-z
2/3-x,1/3-y,1/3-z
2/3+y,1/3-x+y,1/3-z
2/3+x-y,1/3+x,1/3-z
2/3-x+y,1/3+y,5/6+z
2/3+x,1/3+x-y,5/6+z
2/3-y,1/3-x,5/6+z
1/3+x,2/3+y,2/3+z
1/3-y,2/3+x-y,2/3+z
1/3-x+y,2/3-x,2/3+z
1/3+x-y,2/3-y,1/6-z
1/3-x,2/3-x+y,1/6-z
1/3+y,2/3+x,1/6-z
1/3-x,2/3-y,2/3-z
1/3+y,2/3-x+y,2/3-z
1/3+x-y,2/3+x,2/3-z
1/3-x+y,2/3+y,1/6+z
1/3+x,2/3+x-y,1/6+z
1/3-y,2/3-x,1/6+z
loop_
_atom_site_type_symbol
_atom_site_label
_atom_site_fract_x
_atom_site_fract_y
_atom_site_fract_z
Si Si1 0.979429 0.610097 0.635380
Si Si2 0.371682 0.185410 0.279442
Si Si3 0.327045 0.737173 0.857191
Si Si4 0.732901 0.608415 0.381575
Si Si5 0.686435 0.942070 0.791669
Si Si6 0.837563 0.303079 0.711002
O O1 0.936389 0.603056 0.583334
O O2 0.940051 0.618790 0.685708
O O3 0.990773 0.546364 0.636128
O O4 0.050118 0.677832 0.634971
O O5 0.401883 0.165102 0.328172
O O6 0.329996 0.126203 0.237667
O O7 0.437554 0.239664 0.249274
O O8 0.265047 0.661085 0.848271
O O9 0.333334 0.765043 0.916667
O O10 0.315588 0.784587 0.818997
O O11 0.790914 0.666667 0.416667
O O12 0.701265 0.543222 0.418536
O O13 0.737519 0.957504 0.840020
O O14 0.722836 0.000000 0.750000
#
# Coordination Sequence:
#
# PCOD8324301 Si02
#       6
#    36  36  36  36  36  36
#     4  10  20  40  59  80 127 158 188 257 303 360
#     4  11  23  37  62  93 119 162 211 248 314 375
#     4   8  18  40  63  86 118 156 204 260 309 354
#     4  10  19  40  57  82 119 162 193 238 299 371
#     4  12  21  38  66  87 122 165 203 252 324 371
#     4  11  21  38  62  88 124 156 204 255 311 365
#
# _framework density 18.595517999999998
#
# number of rings (size 3 to 8) (size 9 to 14) (size 15 to 20)
#    0.333    1.333    6.667    1.000    0.000    0.667 
#    6.000    5.000    0.000    1.000    0.000    0.000 
#    0.000    0.000    0.000    0.000    0.000    0.000 
#
# Total GULP energy -892191.301776 kJ/mol
# GULP energy per Si atom -12391.545858 kJ/mol
# Density = 1.855319 g / cm^3
# Si number density = 18.595518 Si / 1000 Ang^3
#
#
#
# Elastic Constant Matrix: (Units=GPa)
#
#
# Indices 1 2 3 4 5 6 
#
# 1 76.7175 54.8293 56.9494 -7.2658 -0.0007 0.0000
# 2 54.8293 76.7175 56.9494 7.2658 0.0007 0.0000
# 3 56.9494 56.9494 129.3907 0.0000 0.0000 0.0000
# 4 -7.2658 7.2658 0.0000 31.3985 0.0000 0.0007
# 5 -0.0007 0.0007 0.0000 0.0000 31.3985 -7.2658
# 6 0.0000 0.0000 0.0000 0.0007 -7.2658 10.9441
#
#
#
# Elastic Compliance Matrix: (Units=1/GPa)
#
#
# Indices 1 2 3 4 5 6 
#
# 1 0.033131 -0.020848 -0.005406 0.012491 0.000001 0.000000
# 2 -0.020848 0.033131 -0.005406 -0.012491 -0.000001 0.000000
# 3 -0.005406 -0.005406 0.012487 0.000000 0.000000 0.000000
# 4 0.012491 -0.012491 0.000000 0.037630 0.000000 -0.000003
# 5 0.000001 -0.000001 0.000000 0.000000 0.037630 0.024982
# 6 0.000000 0.000000 0.000000 -0.000003 0.024982 0.107959
#
#
# Mechanical properties :
#
#
# Convention : Reuss Voigt Hill
#
# Bulk Modulus (GPa) = 64.81524 68.92018 66.86771
# Shear Modulus (GPa) = 15.13171 22.35471 18.74321
#
# Velocity S-wave (km/s) = 2.85569 3.47097 3.17826
# Velocity P-wave (km/s) = 6.76788 7.29430 7.03602
#
# Compressibility (1/GPa) = 0.01542847
#
# Stress axis : x y z
#
# Youngs Moduli (GPa) = 30.18313 30.18313 80.08153
#
# Poissons Ratio (x) = 0.62927 0.43292
# Poissons Ratio (y) = 0.62927 0.43292
# Poissons Ratio (z) = 0.16317 0.16317
#
# Static dielectric constant tensor:
#      x y z
#    x 3.249120 0.000000 0.000000 
#    y 0.000000 3.249120 0.000000 
#    z 0.000000 0.000000 3.520220 
# 
# 
# High freq. dielectric constant tensor:
#      x y z
#    x 1.707110 0.000000 0.000000 
#    y 0.000000 1.707110 0.000000 
#    z 0.000000 0.000000 1.736270 
# 
# From -- ./inp_files/4662.got.cif
#   From: 2010.03.12/outbox.cif.g09.slc.cpg/sg167_3_cif.got.tgz:4662.got - 2010.04.02 06:42:56.
