data_PCOD8324308
_publ_section_title
;
Structure prediction by ZEFSAII (Michael W. Deem and Ramdas Pophale) SiO2 
 PCOD8324308
Probable space group: R -3 C 
;
_chemical_formula_sum "Si O2"
_cell_formula_units_Z 126
_cell_length_a 24.286828
_cell_length_b 24.286828
_cell_length_c 11.833292
_cell_angle_alpha 90.000000
_cell_angle_beta 90.000000
_cell_angle_gamma 120.000000
_cell_volume 6044.742531
_symmetry_space_group_name_H-M "R -3 C "
_symmetry_group_IT_number 167
_symmetry_cell_setting 'hexagonal'
loop_
_space_group_symop_operation_xyz
x,y,z
-y,x-y,z
-x+y,-x,z
x-y,-y,1/2-z
-x,-x+y,1/2-z
y,x,1/2-z
-x,-y,-z
y,-x+y,-z
x-y,x,-z
-x+y,y,1/2+z
x,x-y,1/2+z
-y,-x,1/2+z
2/3+x,1/3+y,1/3+z
2/3-y,1/3+x-y,1/3+z
2/3-x+y,1/3-x,1/3+z
2/3+x-y,1/3-y,5/6-z
2/3-x,1/3-x+y,5/6-z
2/3+y,1/3+x,5/6-z
2/3-x,1/3-y,1/3-z
2/3+y,1/3-x+y,1/3-z
2/3+x-y,1/3+x,1/3-z
2/3-x+y,1/3+y,5/6+z
2/3+x,1/3+x-y,5/6+z
2/3-y,1/3-x,5/6+z
1/3+x,2/3+y,2/3+z
1/3-y,2/3+x-y,2/3+z
1/3-x+y,2/3-x,2/3+z
1/3+x-y,2/3-y,1/6-z
1/3-x,2/3-x+y,1/6-z
1/3+y,2/3+x,1/6-z
1/3-x,2/3-y,2/3-z
1/3+y,2/3-x+y,2/3-z
1/3+x-y,2/3+x,2/3-z
1/3-x+y,2/3+y,1/6+z
1/3+x,2/3+x-y,1/6+z
1/3-y,2/3-x,1/6+z
loop_
_atom_site_type_symbol
_atom_site_label
_atom_site_fract_x
_atom_site_fract_y
_atom_site_fract_z
Si Si1 0.733539 0.659885 0.623113
Si Si2 0.897290 0.495513 0.872443
Si Si3 0.666667 0.814091 0.083334
Si Si4 0.964880 0.801534 0.140010
O O1 0.666667 0.652973 0.583334
O O2 0.717607 0.608477 0.720879
O O3 0.766766 0.644263 0.521653
O O4 0.779932 0.730413 0.667882
O O5 0.939277 0.487092 0.777458
O O6 0.844965 0.505533 0.807676
O O7 0.863445 0.433162 0.952161
O O8 0.000000 0.844252 0.250000
#
# Coordination Sequence:
#
# PCOD8324308 Si02
#       4
#    36  36  18  36
#     4  11  22  34  57  86 121 162 200 243 297 371
#     4  11  22  39  57  86 119 159 205 253 303 365
#     4  10  20  36  50  82 118 154 206 246 296 350
#     4  11  24  38  62  86 124 161 203 250 305 362
#
# _framework density 20.844560000000001
#
# number of rings (size 3 to 8) (size 9 to 14) (size 15 to 20)
#    0.000    1.143    0.000   10.286    8.000    0.000 
#    0.000    0.000    0.000    0.571    0.000    2.000 
#    0.000    0.000    0.000    0.000    0.000    0.000 
#
# Total GULP energy -520976.080037 kJ/mol
# GULP energy per Si atom -12404.192382 kJ/mol
# Density = 2.079712 g / cm^3
# Si number density = 20.844560 Si / 1000 Ang^3
#
#
#
# Elastic Constant Matrix: (Units=GPa)
#
#
# Indices 1 2 3 4 5 6 
#
# 1 64.7576 20.2226 14.5231 -2.0444 0.0009 0.0000
# 2 20.2226 64.7575 14.5233 2.0445 -0.0008 0.0000
# 3 14.5231 14.5233 91.1471 0.0006 0.0000 0.0001
# 4 -2.0444 2.0445 0.0006 28.3545 0.0003 -0.0008
# 5 0.0009 -0.0008 0.0000 0.0003 28.3543 -2.0444
# 6 0.0000 0.0000 0.0001 -0.0008 -2.0444 22.2675
#
#
#
# Elastic Compliance Matrix: (Units=1/GPa)
#
#
# Indices 1 2 3 4 5 6 
#
# 1 0.017525 -0.005079 -0.001983 0.001630 -0.000001 0.000000
# 2 -0.005079 0.017525 -0.001983 -0.001630 0.000001 0.000000
# 3 -0.001983 -0.001983 0.011603 0.000000 0.000000 0.000000
# 4 0.001630 -0.001630 0.000000 0.035503 0.000000 0.000001
# 5 -0.000001 0.000001 0.000000 0.000000 0.035503 0.003260
# 6 0.000000 0.000000 0.000000 0.000001 0.003260 0.045208
#
#
# Mechanical properties :
#
#
# Convention : Reuss Voigt Hill
#
# Bulk Modulus (GPa) = 35.01193 35.46670 35.23931
# Shear Modulus (GPa) = 26.24985 27.22147 26.73566
#
# Velocity S-wave (km/s) = 3.55253 3.61768 3.58525
# Velocity P-wave (km/s) = 5.80176 5.87384 5.83791
#
# Compressibility (1/GPa) = 0.02856169
#
# Stress axis : x y z
#
# Youngs Moduli (GPa) = 57.06274 57.06266 86.18305
#
# Poissons Ratio (x) = 0.28984 0.17090
# Poissons Ratio (y) = 0.28984 0.17090
# Poissons Ratio (z) = 0.11316 0.11316
#
# Static dielectric constant tensor:
#      x y z
#    x 3.738420 0.000000 0.000000 
#    y 0.000000 3.738420 0.000000 
#    z 0.000000 0.000000 3.920500 
# 
# 
# High freq. dielectric constant tensor:
#      x y z
#    x 1.795720 0.000000 0.000000 
#    y 0.000000 1.795720 0.000000 
#    z 0.000000 0.000000 1.835080 
# 
# From -- ./inp_files/1403.got.cif
#   From: 2010.03.12/outbox.cif.g09.slc.cpg/sg167_1_cif.got.tgz:1403.got - 2010.04.02 06:42:56.
