data_PCOD8324302
_publ_section_title
;
Structure prediction by ZEFSAII (Michael W. Deem and Ramdas Pophale) SiO2 
 PCOD8324302
Probable space group: R -3 C 
;
_chemical_formula_sum "Si O2"
_cell_formula_units_Z 180
_cell_length_a 25.536018
_cell_length_b 25.536018
_cell_length_c 20.232106
_cell_angle_alpha 90.000000
_cell_angle_beta 90.000000
_cell_angle_gamma 120.000000
_cell_volume 11425.575251
_symmetry_space_group_name_H-M "R -3 C "
_symmetry_group_IT_number 167
_symmetry_cell_setting 'hexagonal'
loop_
_space_group_symop_operation_xyz
x,y,z
-y,x-y,z
-x+y,-x,z
x-y,-y,1/2-z
-x,-x+y,1/2-z
y,x,1/2-z
-x,-y,-z
y,-x+y,-z
x-y,x,-z
-x+y,y,1/2+z
x,x-y,1/2+z
-y,-x,1/2+z
2/3+x,1/3+y,1/3+z
2/3-y,1/3+x-y,1/3+z
2/3-x+y,1/3-x,1/3+z
2/3+x-y,1/3-y,5/6-z
2/3-x,1/3-x+y,5/6-z
2/3+y,1/3+x,5/6-z
2/3-x,1/3-y,1/3-z
2/3+y,1/3-x+y,1/3-z
2/3+x-y,1/3+x,1/3-z
2/3-x+y,1/3+y,5/6+z
2/3+x,1/3+x-y,5/6+z
2/3-y,1/3-x,5/6+z
1/3+x,2/3+y,2/3+z
1/3-y,2/3+x-y,2/3+z
1/3-x+y,2/3-x,2/3+z
1/3+x-y,2/3-y,1/6-z
1/3-x,2/3-x+y,1/6-z
1/3+y,2/3+x,1/6-z
1/3-x,2/3-y,2/3-z
1/3+y,2/3-x+y,2/3-z
1/3+x-y,2/3+x,2/3-z
1/3-x+y,2/3+y,1/6+z
1/3+x,2/3+x-y,1/6+z
1/3-y,2/3-x,1/6+z
loop_
_atom_site_type_symbol
_atom_site_label
_atom_site_fract_x
_atom_site_fract_y
_atom_site_fract_z
Si Si1 0.666667 0.118045 0.083334
Si Si2 0.735184 0.667675 0.338560
Si Si3 0.667483 0.736416 0.510660
Si Si4 0.889029 0.333334 0.083334
Si Si5 0.966974 0.483212 0.901364
Si Si6 0.094302 0.547159 0.969856
O O1 0.617381 0.132354 0.050778
O O2 0.636928 0.068300 0.141622
O O3 0.729588 0.666667 0.416667
O O4 0.668589 0.629466 0.309866
O O5 0.770796 0.632426 0.320346
O O6 0.666667 0.762636 0.583334
O O7 0.602647 0.689328 0.478108
O O8 0.702266 0.793996 0.463485
O O9 0.876308 0.385724 0.059182
O O10 0.027679 0.504964 0.942219
O O11 0.909793 0.450003 0.950532
#
# Coordination Sequence:
#
# PCOD8324302 Si02
#       6
#    18  36  36  18  36  36
#     4  10  20  32  48  70  90 126 156 196 236 276
#     4  11  19  29  45  66  94 128 162 192 231 277
#     4  11  19  29  45  66  94 128 162 192 231 277
#     4  10  20  32  48  70  90 126 156 196 236 276
#     4   9  19  30  44  66  93 124 157 194 229 276
#     4   9  18  32  48  65  92 119 156 194 237 279
#
# _framework density 15.75413
#
# number of rings (size 3 to 8) (size 9 to 14) (size 15 to 20)
#    0.000    2.000    2.000    3.000    5.600    0.000 
#    0.000    0.000    0.000    0.400    0.000    0.000 
#    0.000    0.000    0.000    7.600    0.000    0.000 
#
# Total GULP energy -743786.014437 kJ/mol
# GULP energy per Si atom -12396.433574 kJ/mol
# Density = 1.571827 g / cm^3
# Si number density = 15.754130 Si / 1000 Ang^3
#
#
#
# Elastic Constant Matrix: (Units=GPa)
#
#
# Indices 1 2 3 4 5 6 
#
# 1 69.0361 44.5807 17.7437 -0.3609 -0.0001 0.0000
# 2 44.5807 69.0361 17.7437 0.3609 0.0001 0.0000
# 3 17.7437 17.7437 84.4182 0.0000 0.0000 0.0000
# 4 -0.3609 0.3609 0.0000 16.6308 0.0000 0.0001
# 5 -0.0001 0.0001 0.0000 0.0000 16.6308 -0.3609
# 6 0.0000 0.0000 0.0000 0.0001 -0.3609 12.2277
#
#
#
# Elastic Compliance Matrix: (Units=1/GPa)
#
#
# Indices 1 2 3 4 5 6 
#
# 1 0.025168 -0.015749 -0.001980 0.000888 0.000000 0.000000
# 2 -0.015749 0.025168 -0.001980 -0.000888 0.000000 0.000000
# 3 -0.001980 -0.001980 0.012678 0.000000 0.000000 0.000000
# 4 0.000888 -0.000888 0.000000 0.060168 0.000000 -0.000001
# 5 0.000000 0.000000 0.000000 0.000000 0.060168 0.001776
# 6 0.000000 0.000000 0.000000 -0.000001 0.001776 0.081834
#
#
# Mechanical properties :
#
#
# Convention : Reuss Voigt Hill
#
# Bulk Modulus (GPa) = 42.37618 42.51406 42.44512
# Shear Modulus (GPa) = 16.00164 18.59267 17.29715
#
# Velocity S-wave (km/s) = 3.19048 3.43910 3.31712
# Velocity P-wave (km/s) = 6.36624 6.54327 6.45537
#
# Compressibility (1/GPa) = 0.02359817
#
# Stress axis : x y z
#
# Youngs Moduli (GPa) = 39.73222 39.73222 78.87604
#
# Poissons Ratio (x) = 0.62572 0.15617
# Poissons Ratio (y) = 0.62572 0.15617
# Poissons Ratio (z) = 0.07867 0.07867
#
# Static dielectric constant tensor:
#      x y z
#    x 2.887910 0.000000 0.000000 
#    y 0.000000 2.887910 0.000000 
#    z 0.000000 0.000000 3.180390 
# 
# 
# High freq. dielectric constant tensor:
#      x y z
#    x 1.580570 0.000000 0.000000 
#    y 0.000000 1.580570 0.000000 
#    z 0.000000 0.000000 1.622210 
# 
# From -- ./inp_files/3600.got.cif
#   From: 2010.03.12/outbox.cif.g09.slc.cpg/sg167_2_cif.got.tgz:3600.got - 2010.04.02 06:42:56.
