data_PCOD8324680
_publ_section_title
;
Structure prediction by ZEFSAII (Michael W. Deem and Ramdas Pophale) SiO2 
 PCOD8324680
Probable space group: P 65
;
_chemical_formula_sum "Si O2"
_cell_formula_units_Z 36
_cell_length_a 14.454263
_cell_length_b 14.454263
_cell_length_c 7.510607
_cell_angle_alpha 90.000000
_cell_angle_beta 90.000000
_cell_angle_gamma 120.000000
_cell_volume 1358.931528
_symmetry_space_group_name_H-M "P 65"
_symmetry_group_IT_number 170
_symmetry_cell_setting 'hexagonal'
loop_
_space_group_symop_operation_xyz
x,y,z
x-y,x,5/6+z
-y,x-y,2/3+z
-x,-y,1/2+z
-x+y,-x,1/3+z
y,-x+y,1/6+z
loop_
_atom_site_type_symbol
_atom_site_label
_atom_site_fract_x
_atom_site_fract_y
_atom_site_fract_z
Si Si1 0.189773 0.995420 0.108340
Si Si2 0.516946 0.980097 0.025449
Si Si3 0.255215 0.653728 0.819652
Si Si4 0.120556 0.899039 0.736594
Si Si5 0.669321 0.573367 0.521697
Si Si6 0.436206 0.262928 0.412806
O O1 0.299985 0.024374 0.200053
O O2 0.099250 0.920236 0.245696
O O3 0.182727 0.937950 0.922828
O O4 0.450795 0.874528 0.151137
O O5 0.467148 0.060333 0.013773
O O6 0.643671 0.051555 0.067864
O O7 0.510160 0.935846 0.829501
O O8 0.318861 0.609658 0.695281
O O9 0.293860 0.766730 0.724079
O O10 0.153142 0.818665 0.648555
O O11 0.994928 0.843049 0.766237
O O12 0.758464 0.536249 0.555917
#
# Coordination Sequence:
#
# PCOD8324680 Si02
#       6
#     6   6   6   6   6   6
#     4  10  23  46  71 110 151 205 252 316 386 470
#     4  11  26  48  78 111 151 206 255 334 400 474
#     4  11  27  51  77 115 155 202 267 333 403 484
#     4  10  22  43  68 103 152 201 257 315 386 471
#     4  11  25  46  75 112 150 200 262 322 396 472
#     4  11  23  48  73 109 145 202 263 322 397 473
#
# _framework density 26.491402999999998
#
# number of rings (size 3 to 8) (size 9 to 14) (size 15 to 20)
#    0.000    1.333    0.000    5.000    7.000    0.000 
#   21.000    0.000    0.000    0.000    0.000    0.000 
#    0.000    0.000    0.000    0.000    0.000    0.000 
#
# Total GULP energy -446054.653000 kJ/mol
# GULP energy per Si atom -12390.407028 kJ/mol
# Density = 2.643111 g / cm^3
# Si number density = 26.491403 Si / 1000 Ang^3
#
#
#
# Elastic Constant Matrix: (Units=GPa)
#
#
# Indices 1 2 3 4 5 6 
#
# 1 129.4525 33.1326 16.9181 0.0000 0.0000 0.0000
# 2 33.1326 129.4525 16.9181 0.0000 0.0000 0.0000
# 3 16.9181 16.9181 58.1529 0.0000 0.0000 0.0000
# 4 0.0000 0.0000 0.0000 28.9338 0.0000 0.0000
# 5 0.0000 0.0000 0.0000 0.0000 28.9338 0.0000
# 6 0.0000 0.0000 0.0000 0.0000 0.0000 48.1600
#
#
#
# Elastic Compliance Matrix: (Units=1/GPa)
#
#
# Indices 1 2 3 4 5 6 
#
# 1 0.008465 -0.001918 -0.001905 0.000000 0.000000 0.000000
# 2 -0.001918 0.008465 -0.001905 0.000000 0.000000 0.000000
# 3 -0.001905 -0.001905 0.018304 0.000000 0.000000 0.000000
# 4 0.000000 0.000000 0.000000 0.034562 0.000000 0.000000
# 5 0.000000 0.000000 0.000000 0.000000 0.034562 0.000000
# 6 0.000000 0.000000 0.000000 0.000000 0.000000 0.020764
#
#
# Mechanical properties :
#
#
# Convention : Reuss Voigt Hill
#
# Bulk Modulus (GPa) = 42.05288 50.11059 46.08174
# Shear Modulus (GPa) = 34.60181 37.87813 36.23997
#
# Velocity S-wave (km/s) = 3.61799 3.78541 3.70265
# Velocity P-wave (km/s) = 5.77597 6.16949 5.97597
#
# Compressibility (1/GPa) = 0.02377958
#
# Stress axis : x y z
#
# Youngs Moduli (GPa) = 118.13991 118.13991 54.63202
#
# Poissons Ratio (x) = 0.22654 0.10406
# Poissons Ratio (y) = 0.22654 0.10406
# Poissons Ratio (z) = 0.22502 0.22502
#
# Static dielectric constant tensor:
#      x y z
#    x 4.998110 0.000000 0.000000 
#    y 0.000000 4.998110 0.000000 
#    z 0.000000 0.000000 4.758900 
# 
# 
# High freq. dielectric constant tensor:
#      x y z
#    x 2.071050 0.000000 0.000000 
#    y 0.000000 2.071050 0.000000 
#    z 0.000000 0.000000 2.057670 
# 
# From -- ./inp_files/596.got.cif
#   From: 2010.03.12/outbox.cif.g09.slc.cpg/sg170_cif.got.tgz:596.got - 2010.04.02 06:47:37.
