data_PCOD8324211
_publ_section_title
;
Structure prediction by ZEFSAII (Michael W. Deem and Ramdas Pophale) SiO2 
 PCOD8324211
Probable space group: R -3 M
;
_chemical_formula_sum "Si O2"
_cell_formula_units_Z 126
_cell_length_a 16.784277
_cell_length_b 16.784277
_cell_length_c 27.272625
_cell_angle_alpha 90.000000
_cell_angle_beta 90.000000
_cell_angle_gamma 120.000000
_cell_volume 6653.694387
_symmetry_space_group_name_H-M "R -3 M"
_symmetry_group_IT_number 166
_symmetry_cell_setting 'hexagonal'
loop_
_space_group_symop_operation_xyz
x,y,z
-y,x-y,z
-x+y,-x,z
x-y,-y,-z
-x,-x+y,-z
y,x,-z
-x,-y,-z
y,-x+y,-z
x-y,x,-z
-x+y,y,z
x,x-y,z
-y,-x,z
2/3+x,1/3+y,1/3+z
2/3-y,1/3+x-y,1/3+z
2/3-x+y,1/3-x,1/3+z
2/3+x-y,1/3-y,1/3-z
2/3-x,1/3-x+y,1/3-z
2/3+y,1/3+x,1/3-z
2/3-x,1/3-y,1/3-z
2/3+y,1/3-x+y,1/3-z
2/3+x-y,1/3+x,1/3-z
2/3-x+y,1/3+y,1/3+z
2/3+x,1/3+x-y,1/3+z
2/3-y,1/3-x,1/3+z
1/3+x,2/3+y,2/3+z
1/3-y,2/3+x-y,2/3+z
1/3-x+y,2/3-x,2/3+z
1/3+x-y,2/3-y,2/3-z
1/3-x,2/3-x+y,2/3-z
1/3+y,2/3+x,2/3-z
1/3-x,2/3-y,2/3-z
1/3+y,2/3-x+y,2/3-z
1/3+x-y,2/3+x,2/3-z
1/3-x+y,2/3+y,2/3+z
1/3+x,2/3+x-y,2/3+z
1/3-y,2/3-x,2/3+z
loop_
_atom_site_type_symbol
_atom_site_label
_atom_site_fract_x
_atom_site_fract_y
_atom_site_fract_z
Si Si1 0.385568 0.950915 0.844292
Si Si2 0.977932 0.333334 0.333334
Si Si3 0.520342 0.853441 0.387051
Si Si4 0.334307 0.848350 0.746145
O O1 0.495214 0.990427 0.845084
O O2 0.339121 0.903628 0.895246
O O3 0.336984 0.872871 0.803091
O O4 0.369241 0.035908 0.833334
O O5 0.936539 0.357667 0.286487
O O6 0.077300 0.421662 0.343484
O O7 0.418625 0.837250 0.388317
O O8 0.513728 0.756864 0.376733
O O9 0.408292 0.816584 0.734990
O O10 0.233812 0.766189 0.732153
#
# Coordination Sequence:
#
# PCOD8324211 Si02
#       4
#    36  18  36  36
#     4  10  21  38  62  87 115 149 190 236 288 341
#     4  12  23  36  57  80 116 158 194 230 281 340
#     4  11  23  40  61  86 115 150 194 243 289 336
#     4  11  22  36  56  85 118 153 189 232 286 348
#
# _framework density 18.936848000000001
#
# number of rings (size 3 to 8) (size 9 to 14) (size 15 to 20)
#    0.000    1.143    2.857    4.429    0.000    1.143 
#    0.000    4.286    0.000    0.286    0.000    0.000 
#    0.000    0.000    0.000    0.000    0.000    0.000 
#
# Total GULP energy -521000.070393 kJ/mol
# GULP energy per Si atom -12404.763581 kJ/mol
# Density = 1.889375 g / cm^3
# Si number density = 18.936848 Si / 1000 Ang^3
#
#
#
# Elastic Constant Matrix: (Units=GPa)
#
#
# Indices 1 2 3 4 5 6 
#
# 1 131.2715 80.3821 50.8866 1.6620 -0.0007 0.0000
# 2 80.3821 131.2715 50.8866 -1.6620 0.0007 0.0000
# 3 50.8866 50.8866 88.1312 0.0000 0.0000 0.0000
# 4 1.6620 -1.6620 0.0000 24.7557 0.0000 0.0007
# 5 -0.0007 0.0007 0.0000 0.0000 24.7557 1.6620
# 6 0.0000 0.0000 0.0000 0.0007 1.6620 25.4447
#
#
#
# Elastic Compliance Matrix: (Units=1/GPa)
#
#
# Indices 1 2 3 4 5 6 
#
# 1 0.013139 -0.006598 -0.003777 -0.001325 0.000001 0.000000
# 2 -0.006598 0.013139 -0.003777 0.001325 -0.000001 0.000000
# 3 -0.003777 -0.003777 0.015708 0.000000 0.000000 0.000000
# 4 -0.001325 0.001325 0.000000 0.040573 0.000000 -0.000001
# 5 0.000001 -0.000001 0.000000 0.000000 0.040573 -0.002650
# 6 0.000000 0.000000 0.000000 -0.000001 -0.002650 0.039474
#
#
# Mechanical properties :
#
#
# Convention : Reuss Voigt Hill
#
# Bulk Modulus (GPa) = 73.08363 79.44277 76.26320
# Shear Modulus (GPa) = 25.57957 26.22579 25.90268
#
# Velocity S-wave (km/s) = 3.67929 3.72547 3.70245
# Velocity P-wave (km/s) = 7.53171 7.78126 7.65750
#
# Compressibility (1/GPa) = 0.01368296
#
# Stress axis : x y z
#
# Youngs Moduli (GPa) = 76.11028 76.11028 63.66248
#
# Poissons Ratio (x) = 0.50219 0.24042
# Poissons Ratio (y) = 0.50219 0.24042
# Poissons Ratio (z) = 0.28743 0.28743
#
# Static dielectric constant tensor:
#      x y z
#    x 3.474110 0.000000 0.000000 
#    y 0.000000 3.474110 0.000000 
#    z 0.000000 0.000000 3.592940 
# 
# 
# High freq. dielectric constant tensor:
#      x y z
#    x 1.736110 0.000000 0.000000 
#    y 0.000000 1.736110 0.000000 
#    z 0.000000 0.000000 1.743290 
# 
# From -- ./inp_files/9179.got.cif
#   From: 2010.03.12/outbox.cif.g09.slc.cpg/sg166_5_cif.got.tgz:9179.got - 2010.04.02 06:38:31.
