data_PCOD8324952
_publ_section_title
;
Structure prediction by ZEFSAII (Michael W. Deem and Ramdas Pophale) SiO2 
 PCOD8324952
Probable space group: P -6
;
_chemical_formula_sum "Si O2"
_cell_formula_units_Z 45
_cell_length_a 17.960347
_cell_length_b 17.960347
_cell_length_c 8.016745
_cell_angle_alpha 90.000000
_cell_angle_beta 90.000000
_cell_angle_gamma 120.000000
_cell_volume 2239.536513
_symmetry_space_group_name_H-M "P -6"
_symmetry_group_IT_number 174
_symmetry_cell_setting 'hexagonal'
loop_
_space_group_symop_operation_xyz
x,y,z
-x+y,-x,-z
-y,x-y,z
x,y,-z
-x+y,-x,z
-y,x-y,-z
loop_
_atom_site_type_symbol
_atom_site_label
_atom_site_fract_x
_atom_site_fract_y
_atom_site_fract_z
Si Si1 0.760123 0.750166 0.310208
Si Si2 0.167023 0.280267 0.812403
Si Si3 0.745209 0.164186 0.805584
Si Si4 0.541479 0.875003 0.807471
Si Si5 0.565207 0.048848 0.689222
Si Si6 0.835197 0.067469 0.689449
Si Si7 0.335069 0.571870 0.500000
Si Si8 0.434168 0.096131 0.810977
O O1 0.755349 0.719413 0.500000
O O2 0.732172 0.821521 0.303237
O O3 0.858596 0.787897 0.246590
O O4 0.696203 0.667359 0.202717
O O5 0.252824 0.366621 0.758761
O O6 0.180227 0.198289 0.798365
O O7 0.141027 0.286687 0.000000
O O8 0.647592 0.135382 0.758604
O O9 0.769016 0.102589 0.703076
O O10 0.808542 0.263484 0.755370
O O11 0.755735 0.151395 0.000000
O O12 0.473789 0.811252 0.671388
O O13 0.547619 0.967190 0.799620
O O14 0.515505 0.841229 0.000000
O O15 0.579035 0.029844 0.500000
O O16 0.485262 0.064929 0.694795
O O17 0.838708 0.041181 0.500000
O O18 0.249241 0.580908 0.500000
O O19 0.463631 0.097055 0.000000
#
# Coordination Sequence:
#
# PCOD8324952 Si02
#       8
#     6   6   6   6   6   6   3   6
#     4  10  22  39  60  89 123 159 200 253 315 376
#     4  11  23  38  62  93 122 164 213 259 312 377
#     4  10  20  37  61  88 120 160 202 251 309 372
#     4  11  24  43  69 101 131 170 224 273 327 394
#     4  12  23  38  64  94 127 167 216 267 315 382
#     4  10  20  36  60  88 119 158 198 247 306 365
#     4  10  26  48  68  98 132 170 216 268 342 400
#     4  10  22  40  61  88 124 162 204 256 317 380
#
# _framework density 20.093443000000001
#
# number of rings (size 3 to 8) (size 9 to 14) (size 15 to 20)
#    0.133    1.333    2.000    3.200    1.867    4.800 
#    1.600    1.333    0.000    0.000    0.000    0.000 
#    0.000    0.000    0.000    0.000    0.000    0.000 
#
# Total GULP energy -558057.955747 kJ/mol
# GULP energy per Si atom -12401.287905 kJ/mol
# Density = 2.004771 g / cm^3
# Si number density = 20.093443 Si / 1000 Ang^3
#
#
#
# Elastic Constant Matrix: (Units=GPa)
#
#
# Indices 1 2 3 4 5 6 
#
# 1 117.3439 59.9346 31.3913 0.0000 0.0000 0.0000
# 2 59.9346 117.3439 31.3913 0.0000 0.0000 0.0000
# 3 31.3913 31.3913 83.7410 0.0000 0.0000 0.0000
# 4 0.0000 0.0000 0.0000 30.0443 0.0000 0.0000
# 5 0.0000 0.0000 0.0000 0.0000 30.0443 0.0000
# 6 0.0000 0.0000 0.0000 0.0000 0.0000 28.7046
#
#
#
# Elastic Compliance Matrix: (Units=1/GPa)
#
#
# Indices 1 2 3 4 5 6 
#
# 1 0.011962 -0.005457 -0.002438 0.000000 0.000000 0.000000
# 2 -0.005457 0.011962 -0.002438 0.000000 0.000000 0.000000
# 3 -0.002438 -0.002438 0.013770 0.000000 0.000000 0.000000
# 4 0.000000 0.000000 0.000000 0.033284 0.000000 0.000000
# 5 0.000000 0.000000 0.000000 0.000000 0.033284 0.000000
# 6 0.000000 0.000000 0.000000 0.000000 0.000000 0.034838
#
#
# Mechanical properties :
#
#
# Convention : Reuss Voigt Hill
#
# Bulk Modulus (GPa) = 58.73596 62.65145 60.69370
# Shear Modulus (GPa) = 30.22224 30.80609 30.51417
#
# Velocity S-wave (km/s) = 3.88246 3.91978 3.90117
# Velocity P-wave (km/s) = 7.02801 7.19264 7.11080
#
# Compressibility (1/GPa) = 0.01702534
#
# Stress axis : x y z
#
# Youngs Moduli (GPa) = 83.60115 83.60115 72.62388
#
# Poissons Ratio (x) = 0.45623 0.17707
# Poissons Ratio (y) = 0.45623 0.17707
# Poissons Ratio (z) = 0.20384 0.20384
#
# Static dielectric constant tensor:
#      x y z
#    x 3.534550 0.000000 0.000000 
#    y 0.000000 3.534550 0.000000 
#    z 0.000000 0.000000 3.583460 
# 
# 
# High freq. dielectric constant tensor:
#      x y z
#    x 1.775680 0.000000 0.000000 
#    y 0.000000 1.775680 0.000000 
#    z 0.000000 0.000000 1.794920 
# 
# From -- ./inp_files/526.got.cif
#   From: 2010.03.12/outbox.cif.g09.slc.cpg/sg174_cif.got.tgz:526.got - 2010.04.02 06:54:58.
