data_PCOD8324445
_publ_section_title
;
Structure prediction by ZEFSAII (Michael W. Deem and Ramdas Pophale) SiO2 
 PCOD8324445
Probable space group: P 6
;
_chemical_formula_sum "Si O2"
_cell_formula_units_Z 24
_cell_length_a 13.600046
_cell_length_b 13.600046
_cell_length_c 8.309592
_cell_angle_alpha 90.000000
_cell_angle_beta 90.000000
_cell_angle_gamma 120.000000
_cell_volume 1331.039938
_symmetry_space_group_name_H-M "P 6"
_symmetry_group_IT_number 168
_symmetry_cell_setting 'hexagonal'
loop_
_space_group_symop_operation_xyz
x,y,z
x-y,x,z
-y,x-y,z
-x,-y,z
-x+y,-x,z
y,-x+y,z
loop_
_atom_site_type_symbol
_atom_site_label
_atom_site_fract_x
_atom_site_fract_y
_atom_site_fract_z
Si Si1 0.129093 0.666643 0.429690
Si Si2 0.667219 0.114788 0.929478
Si Si3 0.129093 0.666643 0.055060
Si Si4 0.447569 0.332781 0.555273
O O1 0.153982 0.664987 0.242375
O O2 0.157506 0.579086 0.519352
O O3 0.207738 0.790932 0.502119
O O4 0.999003 0.632954 0.456108
O O5 0.664676 0.087489 0.742375
O O6 0.578420 0.157506 0.965398
O O7 0.792262 0.209068 0.982631
O O8 0.633950 0.000997 0.028642
#
# Coordination Sequence:
#
# PCOD8324445 Si02
#       4
#     6   6   6   6
#     4  11  21  35  53  77 105 137 172 212 256 305
#     4  11  21  35  53  77 105 137 172 212 256 305
#     4  11  21  35  53  77 105 137 172 212 256 305
#     4  11  21  35  53  77 105 137 172 212 256 305
#
# _framework density 18.031013999999999
#
# number of rings (size 3 to 8) (size 9 to 14) (size 15 to 20)
#    0.000    1.000    0.000   13.000    0.000    0.000 
#    0.000    0.000    0.000    1.000    0.000    7.000 
#    0.000    0.000    0.000    0.000    0.000    0.000 
#
# Total GULP energy -297774.342091 kJ/mol
# GULP energy per Si atom -12407.264254 kJ/mol
# Density = 1.798998 g / cm^3
# Si number density = 18.031014 Si / 1000 Ang^3
#
#
#
# Elastic Constant Matrix: (Units=GPa)
#
#
# Indices 1 2 3 4 5 6 
#
# 1 86.1739 36.8278 2.2537 0.0000 0.0000 0.0000
# 2 36.8278 86.1739 2.2537 0.0000 0.0000 0.0000
# 3 2.2537 2.2537 92.2988 0.0000 0.0000 0.0000
# 4 0.0000 0.0000 0.0000 30.2806 0.0000 0.0000
# 5 0.0000 0.0000 0.0000 0.0000 30.2806 0.0000
# 6 0.0000 0.0000 0.0000 0.0000 0.0000 24.6731
#
#
#
# Elastic Compliance Matrix: (Units=1/GPa)
#
#
# Indices 1 2 3 4 5 6 
#
# 1 0.014201 -0.006064 -0.000199 0.000000 0.000000 0.000000
# 2 -0.006064 0.014201 -0.000199 0.000000 0.000000 0.000000
# 3 -0.000199 -0.000199 0.010844 0.000000 0.000000 0.000000
# 4 0.000000 0.000000 0.000000 0.033024 0.000000 0.000000
# 5 0.000000 0.000000 0.000000 0.000000 0.033024 0.000000
# 6 0.000000 0.000000 0.000000 0.000000 0.000000 0.040530
#
#
# Mechanical properties :
#
#
# Convention : Reuss Voigt Hill
#
# Bulk Modulus (GPa) = 37.98842 38.59079 38.28960
# Shear Modulus (GPa) = 29.84678 31.93430 30.89054
#
# Velocity S-wave (km/s) = 4.07295 4.21298 4.14356
# Velocity P-wave (km/s) = 6.57516 6.71673 6.64632
#
# Compressibility (1/GPa) = 0.02632381
#
# Stress axis : x y z
#
# Youngs Moduli (GPa) = 70.41695 70.41695 92.21624
#
# Poissons Ratio (x) = 0.42700 0.01832
# Poissons Ratio (y) = 0.42700 0.01832
# Poissons Ratio (z) = 0.01399 0.01399
#
# Static dielectric constant tensor:
#      x y z
#    x 3.297610 0.000000 0.000000 
#    y 0.000000 3.297610 0.000000 
#    z 0.000000 0.000000 3.540570 
# 
# 
# High freq. dielectric constant tensor:
#      x y z
#    x 1.685720 0.000000 0.000000 
#    y 0.000000 1.685720 0.000000 
#    z 0.000000 0.000000 1.724180 
# 
# From -- ./inp_files/199.got.cif
#   From: 2010.03.12/outbox.cif.g09.slc.cpg/sg168_cif.got.tgz:199.got - 2010.04.02 06:45:48.
