data_PCOD8324578
_publ_section_title
;
Structure prediction by ZEFSAII (Michael W. Deem and Ramdas Pophale) SiO2 
 PCOD8324578
Probable space group: P 61
;
_chemical_formula_sum "Si O2"
_cell_formula_units_Z 42
_cell_length_a 14.334790
_cell_length_b 14.334790
_cell_length_c 14.233211
_cell_angle_alpha 90.000000
_cell_angle_beta 90.000000
_cell_angle_gamma 120.000000
_cell_volume 2532.889184
_symmetry_space_group_name_H-M "P 61"
_symmetry_group_IT_number 169
_symmetry_cell_setting 'hexagonal'
loop_
_space_group_symop_operation_xyz
x,y,z
x-y,x,1/6+z
-y,x-y,1/3+z
-x,-y,1/2+z
-x+y,-x,2/3+z
y,-x+y,5/6+z
loop_
_atom_site_type_symbol
_atom_site_label
_atom_site_fract_x
_atom_site_fract_y
_atom_site_fract_z
Si Si1 0.518545 0.550815 0.025520
Si Si2 0.492182 0.767957 0.556461
Si Si3 0.596102 0.881495 0.277219
Si Si4 0.888319 0.603113 0.560606
Si Si5 0.445785 0.480167 0.323038
Si Si6 0.425434 0.853242 0.007330
Si Si7 0.531562 0.293542 0.622723
O O1 0.566621 0.488754 0.083250
O O2 0.538789 0.652650 0.088605
O O3 0.389400 0.478319 0.009099
O O4 0.578421 0.580498 0.924024
O O5 0.566403 0.741933 0.490848
O O6 0.550562 0.891205 0.593859
O O7 0.479241 0.699861 0.649627
O O8 0.381780 0.736786 0.501410
O O9 0.647004 0.821692 0.333154
O O10 0.528778 0.803222 0.194370
O O11 0.695871 0.992290 0.240584
O O12 0.898179 0.507510 0.508565
O O13 0.517435 0.443863 0.264728
O O14 0.457231 0.762836 0.029522
#
# Coordination Sequence:
#
# PCOD8324578 Si02
#       7
#     6   6   6   6   6   6   6
#     4  11  22  38  52  82 116 149 192 236 275 349
#     4  12  22  34  56  80 114 158 190 225 286 342
#     4  11  20  37  56  82 113 147 194 233 277 337
#     4  11  20  37  56  82 113 147 194 233 277 337
#     4  11  22  38  52  82 116 149 192 236 275 349
#     4  12  22  34  54  78 112 156 190 234 272 330
#     4  12  22  34  56  80 114 158 190 225 286 342
#
# _framework density 16.581854
#
# number of rings (size 3 to 8) (size 9 to 14) (size 15 to 20)
#    0.000    0.571   10.000    1.714    0.000    0.000 
#    0.000    0.000    0.000    0.000    0.000    2.000 
#    0.000    0.000    0.000    0.000    0.000    0.000 
#
# Total GULP energy -520474.777040 kJ/mol
# GULP energy per Si atom -12392.256596 kJ/mol
# Density = 1.654411 g / cm^3
# Si number density = 16.581854 Si / 1000 Ang^3
#
#
#
# Elastic Constant Matrix: (Units=GPa)
#
#
# Indices 1 2 3 4 5 6 
#
# 1 46.5829 9.9103 5.5967 0.0000 0.0000 0.0000
# 2 9.9103 46.5829 5.5967 0.0000 0.0000 0.0000
# 3 5.5967 5.5967 65.7304 0.0000 0.0000 0.0000
# 4 0.0000 0.0000 0.0000 43.4755 0.0000 0.0000
# 5 0.0000 0.0000 0.0000 0.0000 43.4755 0.0000
# 6 0.0000 0.0000 0.0000 0.0000 0.0000 18.3363
#
#
#
# Elastic Compliance Matrix: (Units=1/GPa)
#
#
# Indices 1 2 3 4 5 6 
#
# 1 0.022637 -0.004632 -0.001533 0.000000 0.000000 0.000000
# 2 -0.004632 0.022637 -0.001533 0.000000 0.000000 0.000000
# 3 -0.001533 -0.001533 0.015475 0.000000 0.000000 0.000000
# 4 0.000000 0.000000 0.000000 0.023001 0.000000 0.000000
# 5 0.000000 0.000000 0.000000 0.000000 0.023001 0.000000
# 6 0.000000 0.000000 0.000000 0.000000 0.000000 0.054537
#
#
# Mechanical properties :
#
#
# Convention : Reuss Voigt Hill
#
# Bulk Modulus (GPa) = 22.04947 22.34482 22.19714
# Shear Modulus (GPa) = 26.06872 30.24360 28.15616
#
# Velocity S-wave (km/s) = 3.96930 4.27534 4.12516
# Velocity P-wave (km/s) = 5.85947 6.15436 6.00872
#
# Compressibility (1/GPa) = 0.04535256
#
# Stress axis : x y z
#
# Youngs Moduli (GPa) = 44.17609 44.17609 64.62148
#
# Poissons Ratio (x) = 0.20461 0.09907
# Poissons Ratio (y) = 0.20461 0.09907
# Poissons Ratio (z) = 0.06772 0.06772
#
# Static dielectric constant tensor:
#      x y z
#    x 3.136730 0.000000 0.000000 
#    y 0.000000 3.136730 0.000000 
#    z 0.000000 0.000000 3.445080 
# 
# 
# High freq. dielectric constant tensor:
#      x y z
#    x 1.617330 0.000000 0.000000 
#    y 0.000000 1.617330 0.000000 
#    z 0.000000 0.000000 1.664870 
# 
# From -- ./inp_files/1222.got.cif
#   From: 2010.03.12/outbox.cif.g09.slc.cpg/sg169_cif.got.tgz:1222.got - 2010.04.02 06:46:06.
