data_PCOD8324138
_publ_section_title
;
Structure prediction by ZEFSAII (Michael W. Deem and Ramdas Pophale) SiO2 
 PCOD8324138
Probable space group: R -3 M
;
_chemical_formula_sum "Si O2"
_cell_formula_units_Z 216
_cell_length_a 23.228735
_cell_length_b 23.228735
_cell_length_c 21.645682
_cell_angle_alpha 90.000000
_cell_angle_beta 90.000000
_cell_angle_gamma 120.000000
_cell_volume 10114.700426
_symmetry_space_group_name_H-M "R -3 M"
_symmetry_group_IT_number 166
_symmetry_cell_setting 'hexagonal'
loop_
_space_group_symop_operation_xyz
x,y,z
-y,x-y,z
-x+y,-x,z
x-y,-y,-z
-x,-x+y,-z
y,x,-z
-x,-y,-z
y,-x+y,-z
x-y,x,-z
-x+y,y,z
x,x-y,z
-y,-x,z
2/3+x,1/3+y,1/3+z
2/3-y,1/3+x-y,1/3+z
2/3-x+y,1/3-x,1/3+z
2/3+x-y,1/3-y,1/3-z
2/3-x,1/3-x+y,1/3-z
2/3+y,1/3+x,1/3-z
2/3-x,1/3-y,1/3-z
2/3+y,1/3-x+y,1/3-z
2/3+x-y,1/3+x,1/3-z
2/3-x+y,1/3+y,1/3+z
2/3+x,1/3+x-y,1/3+z
2/3-y,1/3-x,1/3+z
1/3+x,2/3+y,2/3+z
1/3-y,2/3+x-y,2/3+z
1/3-x+y,2/3-x,2/3+z
1/3+x-y,2/3-y,2/3-z
1/3-x,2/3-x+y,2/3-z
1/3+y,2/3+x,2/3-z
1/3-x,2/3-y,2/3-z
1/3+y,2/3-x+y,2/3-z
1/3+x-y,2/3+x,2/3-z
1/3-x+y,2/3+y,2/3+z
1/3+x,2/3+x-y,2/3+z
1/3-y,2/3-x,2/3+z
loop_
_atom_site_type_symbol
_atom_site_label
_atom_site_fract_x
_atom_site_fract_y
_atom_site_fract_z
Si Si1 0.000072 0.130575 0.379743
Si Si2 0.288668 0.208737 0.253195
Si Si3 0.127762 0.000101 0.889099
Si Si4 0.389971 0.258811 0.935042
Si Si5 0.481628 0.642731 0.909198
Si Si6 0.745162 0.005434 0.926948
O O1 0.071146 0.142291 0.403538
O O2 0.996354 0.130701 0.305405
O O3 0.987694 0.188861 0.407431
O O4 0.941535 0.058466 0.401799
O O5 0.279286 0.139643 0.225118
O O6 0.292868 0.206409 0.326340
O O7 0.227630 0.220561 0.234198
O O8 0.356772 0.270574 0.227682
O O9 0.071293 0.928708 0.915555
O O10 0.114970 0.057485 0.916226
O O11 0.121840 0.998771 0.814905
O O12 0.201564 0.018853 0.908682
O O13 0.386464 0.193232 0.906161
O O14 0.332495 0.268415 0.903219
O O15 0.438846 0.561154 0.910514
O O16 0.737783 0.000000 0.000000
#
# Coordination Sequence:
#
# PCOD8324138 Si02
#       6
#    36  36  36  36  36  36
#     4   9  15  25  44  69  96 121 145 174 212 261
#     4   9  16  29  48  67  87 110 144 188 225 261
#     4  11  22  34  48  66  89 116 148 186 227 270
#     4   8  15  28  44  62  87 118 149 182 217 257
#     4   9  18  31  46  67  94 120 143 173 219 269
#     4  10  20  33  48  64  83 114 154 192 228 260
#
# _framework density 21.355056000000001
#
# number of rings (size 3 to 8) (size 9 to 14) (size 15 to 20)
#    0.000    2.667    0.000    3.833    0.000    2.667 
#    0.000    4.167    0.000    6.333    0.000    0.000 
#    0.000    0.000    0.000    0.000    0.000    0.167 
#
# Total GULP energy -892062.566257 kJ/mol
# GULP energy per Si atom -12389.757865 kJ/mol
# Density = 2.130645 g / cm^3
# Si number density = 21.355056 Si / 1000 Ang^3
#
#
#
# Elastic Constant Matrix: (Units=GPa)
#
#
# Indices 1 2 3 4 5 6 
#
# 1 172.9681 95.6550 8.9125 2.3815 0.0000 0.0000
# 2 95.6550 172.9681 8.9125 -2.3815 0.0000 0.0000
# 3 8.9125 8.9125 5.0008 0.0000 0.0000 0.0000
# 4 2.3815 -2.3815 0.0000 14.1666 0.0000 0.0000
# 5 0.0000 0.0000 0.0000 0.0000 14.1666 2.3815
# 6 0.0000 0.0000 0.0000 0.0000 2.3815 38.6566
#
#
#
# Elastic Compliance Matrix: (Units=1/GPa)
#
#
# Indices 1 2 3 4 5 6 
#
# 1 0.008646 -0.004424 -0.007524 -0.002197 0.000000 0.000000
# 2 -0.004424 0.008646 -0.007524 0.002197 0.000000 0.000000
# 3 -0.007524 -0.007524 0.226788 0.000000 0.000000 0.000000
# 4 -0.002197 0.002197 0.000000 0.071327 0.000000 0.000000
# 5 0.000000 0.000000 0.000000 0.000000 0.071327 -0.004394
# 6 0.000000 0.000000 0.000000 0.000000 -0.004394 0.026140
#
#
# Mechanical properties :
#
#
# Convention : Reuss Voigt Hill
#
# Bulk Modulus (GPa) = 4.87485 64.21075 34.54280
# Shear Modulus (GPa) = 9.61172 29.22841 19.42007
#
# Velocity S-wave (km/s) = 2.12384 3.70359 3.01888
# Velocity P-wave (km/s) = 2.88131 6.95861 5.32561
#
# Compressibility (1/GPa) = 0.20513460
#
# Stress axis : x y z
#
# Youngs Moduli (GPa) = 115.66201 115.66201 4.40940
#
# Poissons Ratio (x) = 0.51168 0.03318
# Poissons Ratio (y) = 0.51168 0.03318
# Poissons Ratio (z) = 0.87029 0.87029
#
# Static dielectric constant tensor:
#      x y z
#    x 4.046270 0.000000 0.000000 
#    y 0.000000 4.046270 0.000000 
#    z 0.000000 0.000000 3.369970 
# 
# 
# High freq. dielectric constant tensor:
#      x y z
#    x 1.834260 0.000000 0.000000 
#    y 0.000000 1.834260 0.000000 
#    z 0.000000 0.000000 1.794190 
# 
# From -- ./inp_files/8431.got.cif
#   From: 2010.03.12/outbox.cif.g09.slc.cpg/sg166_5_cif.got.tgz:8431.got - 2010.04.02 06:38:31.
