data_PCOD8324359
_publ_section_title
;
Structure prediction by ZEFSAII (Michael W. Deem and Ramdas Pophale) SiO2 
 PCOD8324359
Probable space group: R -3 C 
;
_chemical_formula_sum "Si O2"
_cell_formula_units_Z 252
_cell_length_a 29.090814
_cell_length_b 29.090814
_cell_length_c 16.343255
_cell_angle_alpha 90.000000
_cell_angle_beta 90.000000
_cell_angle_gamma 120.000000
_cell_volume 11977.906972
_symmetry_space_group_name_H-M "R -3 C "
_symmetry_group_IT_number 167
_symmetry_cell_setting 'hexagonal'
loop_
_space_group_symop_operation_xyz
x,y,z
-y,x-y,z
-x+y,-x,z
x-y,-y,1/2-z
-x,-x+y,1/2-z
y,x,1/2-z
-x,-y,-z
y,-x+y,-z
x-y,x,-z
-x+y,y,1/2+z
x,x-y,1/2+z
-y,-x,1/2+z
2/3+x,1/3+y,1/3+z
2/3-y,1/3+x-y,1/3+z
2/3-x+y,1/3-x,1/3+z
2/3+x-y,1/3-y,5/6-z
2/3-x,1/3-x+y,5/6-z
2/3+y,1/3+x,5/6-z
2/3-x,1/3-y,1/3-z
2/3+y,1/3-x+y,1/3-z
2/3+x-y,1/3+x,1/3-z
2/3-x+y,1/3+y,5/6+z
2/3+x,1/3+x-y,5/6+z
2/3-y,1/3-x,5/6+z
1/3+x,2/3+y,2/3+z
1/3-y,2/3+x-y,2/3+z
1/3-x+y,2/3-x,2/3+z
1/3+x-y,2/3-y,1/6-z
1/3-x,2/3-x+y,1/6-z
1/3+y,2/3+x,1/6-z
1/3-x,2/3-y,2/3-z
1/3+y,2/3-x+y,2/3-z
1/3+x-y,2/3+x,2/3-z
1/3-x+y,2/3+y,1/6+z
1/3+x,2/3+x-y,1/6+z
1/3-y,2/3-x,1/6+z
loop_
_atom_site_type_symbol
_atom_site_label
_atom_site_fract_x
_atom_site_fract_y
_atom_site_fract_z
Si Si1 0.212644 0.110855 0.415004
Si Si2 0.678502 0.726403 0.384738
Si Si3 0.254347 0.552679 0.180588
Si Si4 0.075169 0.278583 0.908306
Si Si5 0.552105 0.614206 0.753021
Si Si6 0.165276 0.006934 0.658868
Si Si7 0.538212 0.512451 0.340933
O O1 0.159823 0.061555 0.447719
O O2 0.244079 0.083735 0.370877
O O3 0.204933 0.151359 0.358298
O O4 0.244434 0.147313 0.492649
O O5 0.646255 0.666667 0.416667
O O6 0.655648 0.729709 0.297145
O O7 0.740448 0.743855 0.371387
O O8 0.671594 0.764354 0.449710
O O9 0.244430 0.595183 0.133851
O O10 0.224475 0.534710 0.266692
O O11 0.051702 0.227877 0.846821
O O12 0.041129 0.253495 0.990997
O O13 0.138554 0.312326 0.928651
O O14 0.573730 0.573730 0.750000
O O15 0.142822 0.000000 0.750000
O O16 0.519123 0.519123 0.250000
#
# Coordination Sequence:
#
# PCOD8324359 Si02
#       7
#    36  36  36  36  36  36  36
#     4  10  21  41  68  90 123 179 217 260 329 392
#     4  11  26  39  64  98 134 176 220 278 335 382
#     4  10  21  41  70  99 126 167 211 263 328 396
#     4  11  22  43  62  97 132 167 227 278 321 394
#     4  10  22  42  63  89 129 174 222 269 323 397
#     4  11  23  39  67  98 133 163 222 276 321 393
#     4  11  24  41  68  90 130 180 223 267 330 394
#
# _framework density 21.038734000000002
#
# number of rings (size 3 to 8) (size 9 to 14) (size 15 to 20)
#    0.000    1.429    2.857    3.571    8.000    1.714 
#    2.571    2.857    6.286    0.000    0.000    0.000 
#    0.000    0.000    0.000    0.000    0.000    0.000 
#
# Total GULP energy -1040625.618891 kJ/mol
# GULP energy per Si atom -12388.400225 kJ/mol
# Density = 2.099085 g / cm^3
# Si number density = 21.038734 Si / 1000 Ang^3
#
#
#
# Elastic Constant Matrix: (Units=GPa)
#
#
# Indices 1 2 3 4 5 6 
#
# 1 123.9012 44.3370 22.0417 -3.5093 0.0000 0.0000
# 2 44.3370 123.9012 22.0417 3.5093 0.0000 0.0000
# 3 22.0417 22.0417 46.5594 0.0000 0.0000 0.0000
# 4 -3.5093 3.5093 0.0000 27.7372 0.0000 0.0000
# 5 0.0000 0.0000 0.0000 0.0000 27.7372 -3.5093
# 6 0.0000 0.0000 0.0000 0.0000 -3.5093 39.7821
#
#
#
# Elastic Compliance Matrix: (Units=1/GPa)
#
#
# Indices 1 2 3 4 5 6 
#
# 1 0.009748 -0.002962 -0.003212 0.001608 0.000000 0.000000
# 2 -0.002962 0.009748 -0.003212 -0.001608 0.000000 0.000000
# 3 -0.003212 -0.003212 0.024520 0.000000 0.000000 0.000000
# 4 0.001608 -0.001608 0.000000 0.036460 0.000000 0.000000
# 5 0.000000 0.000000 0.000000 0.000000 0.036460 0.003216
# 6 0.000000 0.000000 0.000000 0.000000 0.003216 0.025421
#
#
# Mechanical properties :
#
#
# Convention : Reuss Voigt Hill
#
# Bulk Modulus (GPa) = 39.61767 52.35583 45.98675
# Shear Modulus (GPa) = 29.49099 32.78074 31.13586
#
# Velocity S-wave (km/s) = 3.74805 3.95158 3.85116
# Velocity P-wave (km/s) = 6.13207 6.76457 6.45607
#
# Compressibility (1/GPa) = 0.02524126
#
# Stress axis : x y z
#
# Youngs Moduli (GPa) = 102.58499 102.58499 40.78380
#
# Poissons Ratio (x) = 0.30389 0.13101
# Poissons Ratio (y) = 0.30389 0.13101
# Poissons Ratio (z) = 0.32955 0.32955
#
# Static dielectric constant tensor:
#      x y z
#    x 4.079580 0.000000 0.000000 
#    y 0.000000 4.079580 0.000000 
#    z 0.000000 0.000000 3.713920 
# 
# 
# High freq. dielectric constant tensor:
#      x y z
#    x 1.833720 0.000000 0.000000 
#    y 0.000000 1.833720 0.000000 
#    z 0.000000 0.000000 1.797110 
# 
# From -- ./inp_files/3680.got.cif
#   From: 2010.03.12/outbox.cif.g09.slc.cpg/sg167_2_cif.got.tgz:3680.got - 2010.04.02 06:42:56.
