data_PCOD8324189
_publ_section_title
;
Structure prediction by ZEFSAII (Michael W. Deem and Ramdas Pophale) SiO2 
 PCOD8324189
Probable space group: R -3 M
;
_chemical_formula_sum "Si O2"
_cell_formula_units_Z 162
_cell_length_a 29.247818
_cell_length_b 29.247818
_cell_length_c 12.356407
_cell_angle_alpha 90.000000
_cell_angle_beta 90.000000
_cell_angle_gamma 120.000000
_cell_volume 9153.976216
_symmetry_space_group_name_H-M "R -3 M"
_symmetry_group_IT_number 166
_symmetry_cell_setting 'hexagonal'
loop_
_space_group_symop_operation_xyz
x,y,z
-y,x-y,z
-x+y,-x,z
x-y,-y,-z
-x,-x+y,-z
y,x,-z
-x,-y,-z
y,-x+y,-z
x-y,x,-z
-x+y,y,z
x,x-y,z
-y,-x,z
2/3+x,1/3+y,1/3+z
2/3-y,1/3+x-y,1/3+z
2/3-x+y,1/3-x,1/3+z
2/3+x-y,1/3-y,1/3-z
2/3-x,1/3-x+y,1/3-z
2/3+y,1/3+x,1/3-z
2/3-x,1/3-y,1/3-z
2/3+y,1/3-x+y,1/3-z
2/3+x-y,1/3+x,1/3-z
2/3-x+y,1/3+y,1/3+z
2/3+x,1/3+x-y,1/3+z
2/3-y,1/3-x,1/3+z
1/3+x,2/3+y,2/3+z
1/3-y,2/3+x-y,2/3+z
1/3-x+y,2/3-x,2/3+z
1/3+x-y,2/3-y,2/3-z
1/3-x,2/3-x+y,2/3-z
1/3+y,2/3+x,2/3-z
1/3-x,2/3-y,2/3-z
1/3+y,2/3-x+y,2/3-z
1/3+x-y,2/3+x,2/3-z
1/3-x+y,2/3+y,2/3+z
1/3+x,2/3+x-y,2/3+z
1/3-y,2/3-x,2/3+z
loop_
_atom_site_type_symbol
_atom_site_label
_atom_site_fract_x
_atom_site_fract_y
_atom_site_fract_z
Si Si1 0.666667 0.637174 0.333334
Si Si2 0.524409 0.666667 0.166667
Si Si3 0.252841 0.126421 0.803743
Si Si4 0.953524 0.729629 0.304604
Si Si5 0.820820 0.641639 0.939405
Si Si6 0.317296 0.442197 0.552864
Si Si7 0.442175 0.884349 0.102366
O O1 0.713200 0.692266 0.287041
O O2 0.693403 0.617311 0.424343
O O3 0.546909 0.643815 0.255398
O O4 0.469600 0.621394 0.113209
O O5 0.310624 0.155312 0.854959
O O6 0.222302 0.156135 0.842099
O O7 0.252800 0.126400 0.673460
O O8 0.890198 0.692313 0.315002
O O9 0.968747 0.769253 0.202124
O O10 0.794408 0.588815 0.871032
O O11 0.333334 0.474436 0.666667
#
# Coordination Sequence:
#
# PCOD8324189 Si02
#       7
#    18  18  18  36  18  36  18
#     4  10  22  34  50  73 110 148 198 235 272 320
#     4  10  22  36  58  85 110 147 178 234 294 342
#     4  12  19  39  56  77 114 148 198 237 279 337
#     4  11  21  35  52  78 112 146 191 237 282 327
#     4  10  21  35  54  81 110 151 192 237 289 332
#     4  10  23  36  52  77 104 150 193 236 280 324
#     4  10  21  36  58  83 116 143 182 233 290 350
#
# _framework density 17.697227999999999
#
# number of rings (size 3 to 8) (size 9 to 14) (size 15 to 20)
#    0.667    0.889    4.444    1.000    3.111    0.889 
#    0.000    2.222    0.000    0.222    0.000    0.000 
#    0.000    0.000    0.000    2.556    0.000    0.111 
#
# Total GULP energy -669119.405077 kJ/mol
# GULP energy per Si atom -12391.100094 kJ/mol
# Density = 1.765695 g / cm^3
# Si number density = 17.697228 Si / 1000 Ang^3
#
#
#
# Elastic Constant Matrix: (Units=GPa)
#
#
# Indices 1 2 3 4 5 6 
#
# 1 85.7408 41.8554 26.3114 -6.3600 -0.0050 0.0002
# 2 41.8554 85.7427 26.3174 6.3597 -0.0018 0.0001
# 3 26.3114 26.3174 96.1526 -0.0029 -0.0173 0.0006
# 4 -6.3600 6.3597 -0.0029 23.7526 -0.0011 0.0007
# 5 -0.0050 -0.0018 -0.0173 -0.0011 23.7427 -6.3595
# 6 0.0002 0.0001 0.0006 0.0007 -6.3595 21.9443
#
#
#
# Elastic Compliance Matrix: (Units=1/GPa)
#
#
# Indices 1 2 3 4 5 6 
#
# 1 0.016769 -0.007934 -0.002417 0.006614 0.000002 0.000000
# 2 -0.007934 0.016769 -0.002419 -0.006615 -0.000003 0.000000
# 3 -0.002417 -0.002419 0.011723 0.000002 0.000008 0.000002
# 4 0.006614 -0.006615 0.000002 0.045643 0.000003 -0.000001
# 5 0.000002 -0.000003 0.000008 0.000003 0.045663 0.013233
# 6 0.000000 0.000000 0.000002 -0.000001 0.013233 0.049405
#
#
# Mechanical properties :
#
#
# Convention : Reuss Voigt Hill
#
# Bulk Modulus (GPa) = 50.70658 50.73383 50.72020
# Shear Modulus (GPa) = 22.92685 25.43138 24.17912
#
# Velocity S-wave (km/s) = 3.60322 3.79493 3.70031
# Velocity P-wave (km/s) = 6.78420 6.92328 6.85409
#
# Compressibility (1/GPa) = 0.01972131
#
# Stress axis : x y z
#
# Youngs Moduli (GPa) = 59.63536 59.63380 85.29892
#
# Poissons Ratio (x) = 0.47316 0.20614
# Poissons Ratio (y) = 0.47317 0.20632
# Poissons Ratio (z) = 0.14412 0.14424
#
# Static dielectric constant tensor:
#      x y z
#    x 3.230430 0.000000 0.000000 
#    y 0.000000 3.230430 0.000000 
#    z 0.000000 0.000000 3.383110 
# 
# 
# High freq. dielectric constant tensor:
#      x y z
#    x 1.657190 0.000000 0.000000 
#    y 0.000000 1.657190 0.000000 
#    z 0.000000 0.000000 1.700960 
# 
# From -- ./inp_files/3158.got.cif
#   From: 2010.03.12/outbox.cif.g09.slc.cpg/sg166_2_cif.got.tgz:3158.got - 2010.04.02 06:38:31.
