data_PCOD8324007
_publ_section_title
;
Structure prediction by ZEFSAII (Michael W. Deem and Ramdas Pophale) SiO2 
 PCOD8324007
Probable space group: R -3 M
;
_chemical_formula_sum "Si O2"
_cell_formula_units_Z 216
_cell_length_a 25.033581
_cell_length_b 25.033581
_cell_length_c 25.470720
_cell_angle_alpha 90.000000
_cell_angle_beta 90.000000
_cell_angle_gamma 120.000000
_cell_volume 13823.493455
_symmetry_space_group_name_H-M "R -3 M"
_symmetry_group_IT_number 166
_symmetry_cell_setting 'hexagonal'
loop_
_space_group_symop_operation_xyz
x,y,z
-y,x-y,z
-x+y,-x,z
x-y,-y,-z
-x,-x+y,-z
y,x,-z
-x,-y,-z
y,-x+y,-z
x-y,x,-z
-x+y,y,z
x,x-y,z
-y,-x,z
2/3+x,1/3+y,1/3+z
2/3-y,1/3+x-y,1/3+z
2/3-x+y,1/3-x,1/3+z
2/3+x-y,1/3-y,1/3-z
2/3-x,1/3-x+y,1/3-z
2/3+y,1/3+x,1/3-z
2/3-x,1/3-y,1/3-z
2/3+y,1/3-x+y,1/3-z
2/3+x-y,1/3+x,1/3-z
2/3-x+y,1/3+y,1/3+z
2/3+x,1/3+x-y,1/3+z
2/3-y,1/3-x,1/3+z
1/3+x,2/3+y,2/3+z
1/3-y,2/3+x-y,2/3+z
1/3-x+y,2/3-x,2/3+z
1/3+x-y,2/3-y,2/3-z
1/3-x,2/3-x+y,2/3-z
1/3+y,2/3+x,2/3-z
1/3-x,2/3-y,2/3-z
1/3+y,2/3-x+y,2/3-z
1/3+x-y,2/3+x,2/3-z
1/3-x+y,2/3+y,2/3+z
1/3+x,2/3+x-y,2/3+z
1/3-y,2/3-x,2/3+z
loop_
_atom_site_type_symbol
_atom_site_label
_atom_site_fract_x
_atom_site_fract_y
_atom_site_fract_z
Si Si1 0.947898 0.662324 0.873790
Si Si2 0.561666 0.561142 0.695707
Si Si3 0.493461 0.631303 0.716307
Si Si4 0.791052 0.457088 0.182825
Si Si5 0.667516 0.623616 0.047851
Si Si6 0.086593 0.481546 0.873008
O O1 0.891685 0.631070 0.916137
O O2 0.946695 0.718068 0.843454
O O3 0.943457 0.610124 0.833334
O O4 0.011238 0.685865 0.906678
O O5 0.500517 0.499484 0.683456
O O6 0.550514 0.619158 0.706649
O O7 0.602429 0.570371 0.644456
O O8 0.434236 0.565765 0.725063
O O9 0.486676 0.666667 0.666667
O O10 0.499176 0.672727 0.766499
O O11 0.731134 0.462267 0.169809
O O12 0.770772 0.385386 0.191968
O O13 0.839746 0.485569 0.135242
O O14 0.628050 0.555900 0.072793
O O15 0.627684 0.627684 0.000000
O O16 0.065741 0.532871 0.877674
#
# Coordination Sequence:
#
# PCOD8324007 Si02
#       6
#    36  36  36  36  36  36
#     4   9  16  29  47  65  89 116 148 187 228 266
#     4  10  18  29  46  66  91 119 150 181 224 278
#     4  10  18  28  43  62  85 116 153 191 226 265
#     4  10  20  32  46  64  89 122 159 198 232 262
#     4   9  19  32  47  68  92 118 143 185 231 272
#     4  10  19  32  49  67  88 118 155 189 225 273
#
# _framework density 15.625572999999999
#
# number of rings (size 3 to 8) (size 9 to 14) (size 15 to 20)
#    0.000    2.333    1.667    2.667    0.000    1.000 
#    0.000    0.000    0.000    5.667    0.000    0.000 
#    0.000    0.000    0.000    0.000    0.000    0.833 
#
# Total GULP energy -892109.365829 kJ/mol
# GULP energy per Si atom -12390.407859 kJ/mol
# Density = 1.559001 g / cm^3
# Si number density = 15.625573 Si / 1000 Ang^3
#
#
#
# Elastic Constant Matrix: (Units=GPa)
#
#
# Indices 1 2 3 4 5 6 
#
# 1 77.1381 43.7879 42.5358 1.9779 0.0000 0.0000
# 2 43.7879 77.1381 42.5358 -1.9779 0.0000 0.0000
# 3 42.5358 42.5358 90.9230 0.0000 0.0000 0.0000
# 4 1.9779 -1.9779 0.0000 18.3525 0.0000 0.0000
# 5 0.0000 0.0000 0.0000 0.0000 18.3525 1.9779
# 6 0.0000 0.0000 0.0000 0.0000 1.9779 16.6751
#
#
#
# Elastic Compliance Matrix: (Units=1/GPa)
#
#
# Indices 1 2 3 4 5 6 
#
# 1 0.021350 -0.009023 -0.005766 -0.003273 0.000000 0.000000
# 2 -0.009023 0.021350 -0.005766 0.003273 0.000000 0.000000
# 3 -0.005766 -0.005766 0.016394 0.000000 0.000000 0.000000
# 4 -0.003273 0.003273 0.000000 0.055194 0.000000 0.000000
# 5 0.000000 0.000000 0.000000 0.000000 0.055194 -0.006547
# 6 0.000000 0.000000 0.000000 0.000000 -0.006547 0.060746
#
#
# Mechanical properties :
#
#
# Convention : Reuss Voigt Hill
#
# Bulk Modulus (GPa) = 55.61662 55.87980 55.74821
# Shear Modulus (GPa) = 18.02884 18.43202 18.23043
#
# Velocity S-wave (km/s) = 3.40045 3.43826 3.41941
# Velocity P-wave (km/s) = 7.14759 7.18343 7.16553
#
# Compressibility (1/GPa) = 0.01798024
#
# Stress axis : x y z
#
# Youngs Moduli (GPa) = 46.83911 46.83911 60.99908
#
# Poissons Ratio (x) = 0.42265 0.35175
# Poissons Ratio (y) = 0.42265 0.35175
# Poissons Ratio (z) = 0.27010 0.27010
#
# Static dielectric constant tensor:
#      x y z
#    x 2.886400 0.000000 0.000000 
#    y 0.000000 2.886400 0.000000 
#    z 0.000000 0.000000 3.336530 
# 
# 
# High freq. dielectric constant tensor:
#      x y z
#    x 1.580050 0.000000 0.000000 
#    y 0.000000 1.580050 0.000000 
#    z 0.000000 0.000000 1.604750 
# 
# From -- ./inp_files/8601.got.cif
#   From: 2010.03.12/outbox.cif.g09.slc.cpg/sg166_5_cif.got.tgz:8601.got - 2010.04.02 06:38:31.
