data_PCOD8324744
_publ_section_title
;
Structure prediction by ZEFSAII (Michael W. Deem and Ramdas Pophale) SiO2 
 PCOD8324744
Probable space group: P 62
;
_chemical_formula_sum "Si O2"
_cell_formula_units_Z 36
_cell_length_a 8.612369
_cell_length_b 8.612369
_cell_length_c 25.891910
_cell_angle_alpha 90.000000
_cell_angle_beta 90.000000
_cell_angle_gamma 120.000000
_cell_volume 1663.182775
_symmetry_space_group_name_H-M "P 62"
_symmetry_group_IT_number 171
_symmetry_cell_setting 'hexagonal'
loop_
_space_group_symop_operation_xyz
x,y,z
x-y,x,1/3+z
-y,x-y,2/3+z
-x,-y,z
-x+y,-x,1/3+z
y,-x+y,2/3+z
loop_
_atom_site_type_symbol
_atom_site_label
_atom_site_fract_x
_atom_site_fract_y
_atom_site_fract_z
Si Si1 0.665798 0.482350 0.956420
Si Si2 0.324026 0.307123 0.233125
Si Si3 0.200240 0.157022 0.818221
Si Si4 0.367319 0.311856 0.532812
Si Si5 0.884228 0.306191 0.672649
Si Si6 0.306318 0.343782 0.060730
O O1 0.500000 0.500000 0.933365
O O2 0.825817 0.536210 0.916688
O O3 0.588931 0.280167 0.976148
O O4 0.747359 0.609873 0.006207
O O5 0.500000 0.500000 0.221632
O O6 0.160972 0.304005 0.201538
O O7 0.276952 0.280785 0.293896
O O8 0.328974 0.133333 0.213944
O O9 0.180338 0.332479 0.826386
O O10 0.307855 0.158420 0.767251
O O11 0.000000 0.000000 0.813405
O O12 0.500000 0.500000 0.505466
O O13 0.000000 0.500000 0.699350
O O14 0.830973 0.158546 0.717507
O O15 0.500000 0.500000 0.081229
#
# Coordination Sequence:
#
# PCOD8324744 Si02
#       6
#     6   6   6   6   6   6
#     4   9  19  37  62  90 115 147 193 244 298 350
#     4  10  20  36  60  88 116 151 193 240 294 351
#     4  10  21  36  56  84 116 155 196 235 291 352
#     4  11  22  36  59  87 117 154 201 248 288 343
#     4   9  17  33  60  89 116 148 187 236 294 351
#     4   9  19  36  59  84 116 155 191 237 295 355
#
# _framework density 21.645243000000001
#
# number of rings (size 3 to 8) (size 9 to 14) (size 15 to 20)
#    0.000    2.667    0.000    4.500    0.000    1.333 
#    0.000    3.333    0.000   38.000    0.000    0.000 
#    0.000    0.000    0.000    0.000    0.000    0.000 
#
# Total GULP energy -446029.991549 kJ/mol
# GULP energy per Si atom -12389.721987 kJ/mol
# Density = 2.159598 g / cm^3
# Si number density = 21.645243 Si / 1000 Ang^3
#
#
#
# Elastic Constant Matrix: (Units=GPa)
#
#
# Indices 1 2 3 4 5 6 
#
# 1 113.0721 45.2259 34.7125 0.0000 0.0000 0.0000
# 2 45.2259 113.0721 34.7125 0.0000 0.0000 0.0000
# 3 34.7125 34.7125 74.4550 0.0000 0.0000 0.0000
# 4 0.0000 0.0000 0.0000 14.9892 0.0000 0.0000
# 5 0.0000 0.0000 0.0000 0.0000 14.9892 0.0000
# 6 0.0000 0.0000 0.0000 0.0000 0.0000 33.9231
#
#
#
# Elastic Compliance Matrix: (Units=1/GPa)
#
#
# Indices 1 2 3 4 5 6 
#
# 1 0.011340 -0.003399 -0.003702 0.000000 0.000000 0.000000
# 2 -0.003399 0.011340 -0.003702 0.000000 0.000000 0.000000
# 3 -0.003702 -0.003702 0.016883 0.000000 0.000000 0.000000
# 4 0.000000 0.000000 0.000000 0.066715 0.000000 0.000000
# 5 0.000000 0.000000 0.000000 0.000000 0.066715 0.000000
# 6 0.000000 0.000000 0.000000 0.000000 0.000000 0.029478
#
#
# Mechanical properties :
#
#
# Convention : Reuss Voigt Hill
#
# Bulk Modulus (GPa) = 55.69183 58.87791 57.28487
# Shear Modulus (GPa) = 21.73312 25.17684 23.45498
#
# Velocity S-wave (km/s) = 3.17213 3.41421 3.29539
# Velocity P-wave (km/s) = 6.26113 6.54239 6.40330
#
# Compressibility (1/GPa) = 0.01795596
#
# Stress axis : x y z
#
# Youngs Moduli (GPa) = 88.18299 88.18299 59.23105
#
# Poissons Ratio (x) = 0.29975 0.21929
# Poissons Ratio (y) = 0.29975 0.21929
# Poissons Ratio (z) = 0.32647 0.32647
#
# Static dielectric constant tensor:
#      x y z
#    x 4.081610 0.000000 0.000000 
#    y 0.000000 4.081610 0.000000 
#    z 0.000000 0.000000 3.696440 
# 
# 
# High freq. dielectric constant tensor:
#      x y z
#    x 1.849850 0.000000 0.000000 
#    y 0.000000 1.849850 0.000000 
#    z 0.000000 0.000000 1.827100 
# 
# From -- ./inp_files/5731.got.cif
#   From: 2010.03.12/outbox.cif.g09.slc.cpg/sg171_3_cif.got.tgz:5731.got - 2010.04.02 06:49:11.
