data_PCOD8324117
_publ_section_title
;
Structure prediction by ZEFSAII (Michael W. Deem and Ramdas Pophale) SiO2 
 PCOD8324117
Probable space group: R -3 M
;
_chemical_formula_sum "Si O2"
_cell_formula_units_Z 126
_cell_length_a 27.646091
_cell_length_b 27.646091
_cell_length_c 9.292426
_cell_angle_alpha 90.000000
_cell_angle_beta 90.000000
_cell_angle_gamma 120.000000
_cell_volume 6150.737737
_symmetry_space_group_name_H-M "R -3 M"
_symmetry_group_IT_number 166
_symmetry_cell_setting 'hexagonal'
loop_
_space_group_symop_operation_xyz
x,y,z
-y,x-y,z
-x+y,-x,z
x-y,-y,-z
-x,-x+y,-z
y,x,-z
-x,-y,-z
y,-x+y,-z
x-y,x,-z
-x+y,y,z
x,x-y,z
-y,-x,z
2/3+x,1/3+y,1/3+z
2/3-y,1/3+x-y,1/3+z
2/3-x+y,1/3-x,1/3+z
2/3+x-y,1/3-y,1/3-z
2/3-x,1/3-x+y,1/3-z
2/3+y,1/3+x,1/3-z
2/3-x,1/3-y,1/3-z
2/3+y,1/3-x+y,1/3-z
2/3+x-y,1/3+x,1/3-z
2/3-x+y,1/3+y,1/3+z
2/3+x,1/3+x-y,1/3+z
2/3-y,1/3-x,1/3+z
1/3+x,2/3+y,2/3+z
1/3-y,2/3+x-y,2/3+z
1/3-x+y,2/3-x,2/3+z
1/3+x-y,2/3-y,2/3-z
1/3-x,2/3-x+y,2/3-z
1/3+y,2/3+x,2/3-z
1/3-x,2/3-y,2/3-z
1/3+y,2/3-x+y,2/3-z
1/3+x-y,2/3+x,2/3-z
1/3-x+y,2/3+y,2/3+z
1/3+x,2/3+x-y,2/3+z
1/3-y,2/3-x,2/3+z
loop_
_atom_site_type_symbol
_atom_site_label
_atom_site_fract_x
_atom_site_fract_y
_atom_site_fract_z
Si Si1 0.946539 0.419717 0.898811
Si Si2 0.928105 0.272923 0.328378
Si Si3 0.166813 0.445605 0.500346
Si Si4 0.553939 0.220605 0.333334
O O1 0.930836 0.465418 0.842511
O O2 0.958622 0.393170 0.759463
O O3 0.897657 0.373619 0.002955
O O4 0.000000 0.448796 0.000000
O O5 0.984696 0.333334 0.333334
O O6 0.878355 0.282719 0.384268
O O7 0.915230 0.248563 0.166667
O O8 0.214415 0.428830 0.505137
O O9 0.192041 0.511114 0.534154
O O10 0.613955 0.227910 0.374847
#
# Coordination Sequence:
#
# PCOD8324117 Si02
#       4
#    36  36  36  18
#     4   8  16  33  56  76 103 146 194 241 295 351
#     4  11  22  34  49  80 114 155 199 255 303 348
#     4   9  18  36  59  81 113 157 196 242 300 365
#     4  10  19  34  62  98 132 158 196 252 317 378
#
# _framework density 20.485347000000001
#
# number of rings (size 3 to 8) (size 9 to 14) (size 15 to 20)
#    0.000    2.571    1.429    2.714    0.000    5.714 
#    0.000    0.000    0.000    0.000    0.000    2.000 
#    0.000    1.143    0.000   24.286    0.000    0.000 
#
# Total GULP energy -520404.151930 kJ/mol
# GULP energy per Si atom -12390.575046 kJ/mol
# Density = 2.043872 g / cm^3
# Si number density = 20.485347 Si / 1000 Ang^3
#
#
#
# Elastic Constant Matrix: (Units=GPa)
#
#
# Indices 1 2 3 4 5 6 
#
# 1 92.6079 53.8498 67.1862 -2.2285 0.0239 0.0075
# 2 53.8498 92.5950 67.1476 2.2182 0.0022 -0.0013
# 3 67.1862 67.1476 175.0079 -0.0227 0.0662 0.0036
# 4 -2.2285 2.2182 -0.0227 22.1679 -0.0112 0.0026
# 5 0.0239 0.0022 0.0662 -0.0112 22.1925 -2.2329
# 6 0.0075 -0.0013 0.0036 0.0026 -2.2329 19.3778
#
#
#
# Elastic Compliance Matrix: (Units=1/GPa)
#
#
# Indices 1 2 3 4 5 6 
#
# 1 0.018324 -0.007784 -0.004048 0.002617 -0.000006 -0.000008
# 2 -0.007784 0.018320 -0.004041 -0.002620 0.000018 0.000007
# 3 -0.004048 -0.004041 0.008818 0.000006 -0.000022 -0.000003
# 4 0.002617 -0.002620 0.000006 0.045635 0.000020 -0.000005
# 5 -0.000006 0.000018 -0.000022 0.000020 0.045589 0.005253
# 6 -0.000008 0.000007 -0.000003 -0.000005 0.005253 0.052211
#
#
# Mechanical properties :
#
#
# Convention : Reuss Voigt Hill
#
# Bulk Modulus (GPa) = 72.90332 81.84200 77.37266
# Shear Modulus (GPa) = 22.20098 24.21612 23.20855
#
# Velocity S-wave (km/s) = 3.29561 3.44193 3.36956
# Velocity P-wave (km/s) = 7.08143 7.47222 7.27945
#
# Compressibility (1/GPa) = 0.01371680
#
# Stress axis : x y z
#
# Youngs Moduli (GPa) = 54.57327 54.58574 113.39832
#
# Poissons Ratio (x) = 0.42489 0.45901
# Poissons Ratio (y) = 0.42479 0.45825
# Poissons Ratio (z) = 0.22090 0.22058
#
# Static dielectric constant tensor:
#      x y z
#    x 3.828450 -0.000060 -0.000170 
#    y -0.000060 3.828560 -0.000100 
#    z -0.000170 -0.000100 4.125340 
# 
# 
# High freq. dielectric constant tensor:
#      x y z
#    x 1.790580 0.000000 -0.000010 
#    y 0.000000 1.790580 0.000000 
#    z -0.000010 0.000000 1.791320 
# 
# From -- ./inp_files/1649.got.cif
#   From: 2010.03.12/outbox.cif.g09.slc.cpg/sg166_1_cif.got.tgz:1649.got - 2010.04.02 06:38:31.
