data_PCOD8324819
_publ_section_title
;
Structure prediction by ZEFSAII (Michael W. Deem and Ramdas Pophale) SiO2 
 PCOD8324819
Probable space group: P 62
;
_chemical_formula_sum "Si O2"
_cell_formula_units_Z 21
_cell_length_a 4.976617
_cell_length_b 4.976617
_cell_length_c 38.611608
_cell_angle_alpha 90.000000
_cell_angle_beta 90.000000
_cell_angle_gamma 120.000000
_cell_volume 828.165163
_symmetry_space_group_name_H-M "P 62"
_symmetry_group_IT_number 171
_symmetry_cell_setting 'hexagonal'
loop_
_space_group_symop_operation_xyz
x,y,z
x-y,x,1/3+z
-y,x-y,2/3+z
-x,-y,z
-x+y,-x,1/3+z
y,-x+y,2/3+z
loop_
_atom_site_type_symbol
_atom_site_label
_atom_site_fract_x
_atom_site_fract_y
_atom_site_fract_z
Si Si1 0.000000 0.500000 0.054891
Si Si2 0.000000 0.000000 0.006707
Si Si3 0.500000 0.500000 0.862364
Si Si4 0.500000 0.000000 0.245191
Si Si5 0.500000 0.000000 0.961352
Si Si6 0.000000 0.000000 0.150341
Si Si7 0.000000 0.500000 0.768825
O O1 0.299249 0.700751 0.078524
O O2 0.926194 0.711403 0.030464
O O3 0.678580 0.871324 0.984976
O O4 0.779034 0.550099 0.886585
O O5 0.321420 0.192744 0.838739
O O6 0.449906 0.220969 0.270464
O O7 0.711403 0.926194 0.126584
#
# Coordination Sequence:
#
# PCOD8324819 Si02
#       7
#     3   3   3   3   3   3   3
#     4  12  30  52  80 115 156 204 257 318 384 457
#     4  12  29  51  80 114 154 204 256 317 383 456
#     4  12  27  48  78 113 154 202 256 316 382 456
#     4  12  26  48  76 112 152 200 252 314 380 452
#     4  12  27  48  78 113 154 202 256 316 382 456
#     4  12  29  51  80 114 154 204 256 317 383 456
#     4  12  30  52  80 115 156 204 257 318 384 457
#
# _framework density 25.357258999999999
#
# number of rings (size 3 to 8) (size 9 to 14) (size 15 to 20)
#    0.000    0.000    0.000    7.714    0.000   25.143 
#    0.000    0.000    0.000    0.000    0.000    0.000 
#    0.000    0.000    0.000    0.000    0.000    0.000 
#
# Total GULP energy -260273.351823 kJ/mol
# GULP energy per Si atom -12393.969134 kJ/mol
# Density = 2.529955 g / cm^3
# Si number density = 25.357259 Si / 1000 Ang^3
#
#
#
# Elastic Constant Matrix: (Units=GPa)
#
#
# Indices 1 2 3 4 5 6 
#
# 1 208.6777 91.3461 117.6506 0.0000 0.0000 0.0000
# 2 91.3461 208.6777 117.6506 0.0000 0.0000 0.0000
# 3 117.6506 117.6506 211.6811 0.0000 0.0000 0.0000
# 4 0.0000 0.0000 0.0000 66.3626 0.0000 0.0000
# 5 0.0000 0.0000 0.0000 0.0000 66.3626 0.0000
# 6 0.0000 0.0000 0.0000 0.0000 0.0000 58.6658
#
#
#
# Elastic Compliance Matrix: (Units=1/GPa)
#
#
# Indices 1 2 3 4 5 6 
#
# 1 0.007216 -0.001307 -0.003284 0.000000 0.000000 0.000000
# 2 -0.001307 0.007216 -0.003284 0.000000 0.000000 0.000000
# 3 -0.003284 -0.003284 0.008374 0.000000 0.000000 0.000000
# 4 0.000000 0.000000 0.000000 0.015069 0.000000 0.000000
# 5 0.000000 0.000000 0.000000 0.000000 0.015069 0.000000
# 6 0.000000 0.000000 0.000000 0.000000 0.000000 0.017046
#
#
# Mechanical properties :
#
#
# Convention : Reuss Voigt Hill
#
# Bulk Modulus (GPa) = 141.72613 142.48124 142.10368
# Shear Modulus (GPa) = 56.75946 58.43749 57.59847
#
# Velocity S-wave (km/s) = 4.73630 4.80580 4.77117
# Velocity P-wave (km/s) = 9.26947 9.33305 9.30131
#
# Compressibility (1/GPa) = 0.00705586
#
# Stress axis : x y z
#
# Youngs Moduli (GPa) = 138.58637 138.58637 119.41065
#
# Poissons Ratio (x) = 0.18115 0.39214
# Poissons Ratio (y) = 0.18115 0.39214
# Poissons Ratio (z) = 0.45511 0.45511
#
# Static dielectric constant tensor:
#      x y z
#    x 4.237080 0.000000 0.000000 
#    y 0.000000 4.237080 0.000000 
#    z 0.000000 0.000000 5.584820 
# 
# 
# High freq. dielectric constant tensor:
#      x y z
#    x 2.024200 0.000000 0.000000 
#    y 0.000000 2.024200 0.000000 
#    z 0.000000 0.000000 2.052420 
# 
# From -- ./inp_files/5901.got.cif
#   From: 2010.03.12/outbox.cif.g09.slc.cpg/sg171_3_cif.got.tgz:5901.got - 2010.04.02 06:49:11.
