data_PCOD8324356
_publ_section_title
;
Structure prediction by ZEFSAII (Michael W. Deem and Ramdas Pophale) SiO2 
 PCOD8324356
Probable space group: R -3 C 
;
_chemical_formula_sum "Si O2"
_cell_formula_units_Z 168
_cell_length_a 17.299332
_cell_length_b 17.299332
_cell_length_c 26.648098
_cell_angle_alpha 90.000000
_cell_angle_beta 90.000000
_cell_angle_gamma 120.000000
_cell_volume 6906.460234
_symmetry_space_group_name_H-M "R -3 C "
_symmetry_group_IT_number 167
_symmetry_cell_setting 'hexagonal'
loop_
_space_group_symop_operation_xyz
x,y,z
-y,x-y,z
-x+y,-x,z
x-y,-y,1/2-z
-x,-x+y,1/2-z
y,x,1/2-z
-x,-y,-z
y,-x+y,-z
x-y,x,-z
-x+y,y,1/2+z
x,x-y,1/2+z
-y,-x,1/2+z
2/3+x,1/3+y,1/3+z
2/3-y,1/3+x-y,1/3+z
2/3-x+y,1/3-x,1/3+z
2/3+x-y,1/3-y,5/6-z
2/3-x,1/3-x+y,5/6-z
2/3+y,1/3+x,5/6-z
2/3-x,1/3-y,1/3-z
2/3+y,1/3-x+y,1/3-z
2/3+x-y,1/3+x,1/3-z
2/3-x+y,1/3+y,5/6+z
2/3+x,1/3+x-y,5/6+z
2/3-y,1/3-x,5/6+z
1/3+x,2/3+y,2/3+z
1/3-y,2/3+x-y,2/3+z
1/3-x+y,2/3-x,2/3+z
1/3+x-y,2/3-y,1/6-z
1/3-x,2/3-x+y,1/6-z
1/3+y,2/3+x,1/6-z
1/3-x,2/3-y,2/3-z
1/3+y,2/3-x+y,2/3-z
1/3+x-y,2/3+x,2/3-z
1/3-x+y,2/3+y,1/6+z
1/3+x,2/3+x-y,1/6+z
1/3-y,2/3-x,1/6+z
loop_
_atom_site_type_symbol
_atom_site_label
_atom_site_fract_x
_atom_site_fract_y
_atom_site_fract_z
Si Si1 0.666668 0.333334 0.768474
Si Si2 0.143754 0.622704 0.499540
Si Si3 0.625011 0.729030 0.283792
Si Si4 0.666668 0.333334 0.151576
Si Si5 0.517903 0.378352 0.267918
Si Si6 0.433964 0.057818 0.311860
O O1 0.666668 0.333334 0.710000
O O2 0.763750 0.357679 0.787519
O O3 0.110827 0.537200 0.534849
O O4 0.233508 0.643995 0.467993
O O5 0.165341 0.700105 0.541106
O O6 0.063596 0.600626 0.461284
O O7 0.590211 0.637361 0.315174
O O8 0.614156 0.712311 0.223943
O O9 0.548657 0.478796 0.283672
O O10 0.428963 0.312368 0.298713
#
# Coordination Sequence:
#
# PCOD8324356 Si02
#       6
#    12  36  36  12  36  36
#     4   9  18  34  58  99 136 157 199 270 323 378
#     4  10  21  41  64  88 123 170 214 256 311 375
#     4  10  23  39  55  85 134 169 197 252 317 370
#     4   9  18  36  67  92 115 162 226 269 296 362
#     4  11  21  37  65  96 127 165 210 255 323 386
#     4  11  23  37  59  94 131 162 202 264 320 379
#
# _framework density 24.325050999999998
#
# number of rings (size 3 to 8) (size 9 to 14) (size 15 to 20)
#    0.000    1.714    0.000    6.429    0.000    6.857 
#    0.000    0.000    0.000   12.857    0.000    0.000 
#    0.000    0.000    0.000    0.000    0.000    0.000 
#
# Total GULP energy -693980.758071 kJ/mol
# GULP energy per Si atom -12392.513537 kJ/mol
# Density = 2.426969 g / cm^3
# Si number density = 24.325051 Si / 1000 Ang^3
#
#
#
# Elastic Constant Matrix: (Units=GPa)
#
#
# Indices 1 2 3 4 5 6 
#
# 1 76.7670 19.0809 -6.6046 -0.3808 0.0000 0.0000
# 2 19.0809 76.7678 -6.6032 0.3806 0.0000 0.0000
# 3 -6.6046 -6.6032 66.6921 -0.0001 0.0000 0.0000
# 4 -0.3808 0.3806 -0.0001 24.8688 0.0000 0.0000
# 5 0.0000 0.0000 0.0000 0.0000 24.8687 -0.3808
# 6 0.0000 0.0000 0.0000 0.0000 -0.3808 28.8434
#
#
#
# Elastic Compliance Matrix: (Units=1/GPa)
#
#
# Indices 1 2 3 4 5 6 
#
# 1 0.013958 -0.003381 0.001048 0.000265 0.000000 0.000000
# 2 -0.003381 0.013958 0.001047 -0.000265 0.000000 0.000000
# 3 0.001048 0.001047 0.015202 0.000000 0.000000 0.000000
# 4 0.000265 -0.000265 0.000000 0.040219 0.000000 0.000000
# 5 0.000000 0.000000 0.000000 0.000000 0.040219 0.000531
# 6 0.000000 0.000000 0.000000 0.000000 0.000531 0.034677
#
#
# Mechanical properties :
#
#
# Convention : Reuss Voigt Hill
#
# Bulk Modulus (GPa) = 24.66321 25.77480 25.21900
# Shear Modulus (GPa) = 28.68283 30.00641 29.34462
#
# Velocity S-wave (km/s) = 3.43760 3.51602 3.47703
# Velocity P-wave (km/s) = 5.09089 5.20597 5.14875
#
# Compressibility (1/GPa) = 0.04054622
#
# Stress axis : x y z
#
# Youngs Moduli (GPa) = 71.64282 71.64381 65.78207
#
# Poissons Ratio (x) = 0.24220 -0.06891
# Poissons Ratio (y) = 0.24219 -0.06889
# Poissons Ratio (z) = -0.07505 -0.07502
#
# Static dielectric constant tensor:
#      x y z
#    x 4.976370 0.000000 0.000000 
#    y 0.000000 4.976320 0.000010 
#    z 0.000000 0.000010 4.058600 
# 
# 
# High freq. dielectric constant tensor:
#      x y z
#    x 1.971200 0.000000 0.000000 
#    y 0.000000 1.971200 0.000000 
#    z 0.000000 0.000000 1.948130 
# 
# From -- ./inp_files/6996.got.cif
#   From: 2010.03.12/outbox.cif.g09.slc.cpg/sg167_4_cif.got.tgz:6996.got - 2010.04.02 06:42:56.
