data_PCOD8324682
_publ_section_title
;
Structure prediction by ZEFSAII (Michael W. Deem and Ramdas Pophale) SiO2 
 PCOD8324682
Probable space group: P 65
;
_chemical_formula_sum "Si O2"
_cell_formula_units_Z 36
_cell_length_a 13.911488
_cell_length_b 13.911488
_cell_length_c 8.980641
_cell_angle_alpha 90.000000
_cell_angle_beta 90.000000
_cell_angle_gamma 120.000000
_cell_volume 1505.168561
_symmetry_space_group_name_H-M "P 65"
_symmetry_group_IT_number 170
_symmetry_cell_setting 'hexagonal'
loop_
_space_group_symop_operation_xyz
x,y,z
x-y,x,5/6+z
-y,x-y,2/3+z
-x,-y,1/2+z
-x+y,-x,1/3+z
y,-x+y,1/6+z
loop_
_atom_site_type_symbol
_atom_site_label
_atom_site_fract_x
_atom_site_fract_y
_atom_site_fract_z
Si Si1 0.458859 0.556419 0.571270
Si Si2 0.530638 0.732392 0.800801
Si Si3 0.743576 0.424639 0.942544
Si Si4 0.202372 0.163016 0.797019
Si Si5 0.944113 0.571620 0.112006
Si Si6 0.127347 0.218479 0.100533
O O1 0.536200 0.639018 0.702028
O O2 0.367507 0.581829 0.503231
O O3 0.400672 0.436246 0.650233
O O4 0.546115 0.568409 0.441171
O O5 0.423914 0.731686 0.727173
O O6 0.649757 0.841611 0.791190
O O7 0.510150 0.707706 0.975349
O O8 0.828712 0.460676 0.078825
O O9 0.136599 0.172280 0.653604
O O10 0.332303 0.244626 0.775025
O O11 0.172069 0.203403 0.945421
O O12 0.158409 0.165340 0.241910
#
# Coordination Sequence:
#
# PCOD8324682 Si02
#       6
#     6   6   6   6   6   6
#     4  12  25  44  70 106 153 206 255 318 383 472
#     4  12  25  44  73 107 153 203 245 318 381 482
#     4  12  26  45  69 108 154 201 253 309 397 464
#     4  10  22  44  71 103 141 189 249 312 377 445
#     4  12  26  43  71 108 149 201 254 310 381 466
#     4  10  24  46  76 108 144 196 260 321 389 451
#
# _framework density 23.917586
#
# number of rings (size 3 to 8) (size 9 to 14) (size 15 to 20)
#    0.000    0.667    3.333    4.000    7.000    1.333 
#    0.000   10.000    0.000    0.000    0.000    0.000 
#    0.000    0.000    0.000    0.000    0.000    0.000 
#
# Total GULP energy -446121.123858 kJ/mol
# GULP energy per Si atom -12392.253441 kJ/mol
# Density = 2.386315 g / cm^3
# Si number density = 23.917586 Si / 1000 Ang^3
#
#
#
# Elastic Constant Matrix: (Units=GPa)
#
#
# Indices 1 2 3 4 5 6 
#
# 1 98.0161 25.4707 30.3743 0.0000 0.0000 0.0000
# 2 25.4707 98.0161 30.3743 0.0000 0.0000 0.0000
# 3 30.3743 30.3743 105.2948 0.0000 0.0000 0.0000
# 4 0.0000 0.0000 0.0000 31.3295 0.0000 0.0000
# 5 0.0000 0.0000 0.0000 0.0000 31.3295 0.0000
# 6 0.0000 0.0000 0.0000 0.0000 0.0000 36.2727
#
#
#
# Elastic Compliance Matrix: (Units=1/GPa)
#
#
# Indices 1 2 3 4 5 6 
#
# 1 0.011611 -0.002174 -0.002722 0.000000 0.000000 0.000000
# 2 -0.002174 0.011611 -0.002722 0.000000 0.000000 0.000000
# 3 -0.002722 -0.002722 0.011068 0.000000 0.000000 0.000000
# 4 0.000000 0.000000 0.000000 0.031919 0.000000 0.000000
# 5 0.000000 0.000000 0.000000 0.000000 0.031919 0.000000
# 6 0.000000 0.000000 0.000000 0.000000 0.000000 0.027569
#
#
# Mechanical properties :
#
#
# Convention : Reuss Voigt Hill
#
# Bulk Modulus (GPa) = 52.48547 52.64061 52.56304
# Shear Modulus (GPa) = 33.94808 34.12684 34.03746
#
# Velocity S-wave (km/s) = 3.77155 3.78147 3.77651
# Velocity P-wave (km/s) = 6.39985 6.41272 6.40629
#
# Compressibility (1/GPa) = 0.01905289
#
# Stress axis : x y z
#
# Youngs Moduli (GPa) = 86.12608 86.12608 90.35233
#
# Poissons Ratio (x) = 0.18720 0.24597
# Poissons Ratio (y) = 0.18720 0.24597
# Poissons Ratio (z) = 0.23447 0.23447
#
# Static dielectric constant tensor:
#      x y z
#    x 4.280580 0.000000 0.000000 
#    y 0.000000 4.280580 0.000000 
#    z 0.000000 0.000000 4.491630 
# 
# 
# High freq. dielectric constant tensor:
#      x y z
#    x 1.946030 0.000000 0.000000 
#    y 0.000000 1.946030 0.000000 
#    z 0.000000 0.000000 1.959340 
# 
# From -- ./inp_files/590.got.cif
#   From: 2010.03.12/outbox.cif.g09.slc.cpg/sg170_cif.got.tgz:590.got - 2010.04.02 06:47:37.
