data_PCOD8324564
_publ_section_title
;
Structure prediction by ZEFSAII (Michael W. Deem and Ramdas Pophale) SiO2 
 PCOD8324564
Probable space group: P 61
;
_chemical_formula_sum "Si O2"
_cell_formula_units_Z 48
_cell_length_a 14.540029
_cell_length_b 14.540029
_cell_length_c 12.479806
_cell_angle_alpha 90.000000
_cell_angle_beta 90.000000
_cell_angle_gamma 120.000000
_cell_volume 2284.909542
_symmetry_space_group_name_H-M "P 61"
_symmetry_group_IT_number 169
_symmetry_cell_setting 'hexagonal'
loop_
_space_group_symop_operation_xyz
x,y,z
x-y,x,1/6+z
-y,x-y,1/3+z
-x,-y,1/2+z
-x+y,-x,2/3+z
y,-x+y,5/6+z
loop_
_atom_site_type_symbol
_atom_site_label
_atom_site_fract_x
_atom_site_fract_y
_atom_site_fract_z
Si Si1 0.950963 0.615795 0.924840
Si Si2 0.464056 0.734804 0.869919
Si Si3 0.485251 0.449203 0.644004
Si Si4 0.998233 0.844667 0.867708
Si Si5 0.948312 0.438344 0.598799
Si Si6 0.144454 0.983158 0.696906
Si Si7 0.722705 0.261543 0.958480
Si Si8 0.044261 0.661688 0.488471
O O1 0.978453 0.554624 0.833385
O O2 0.956446 0.721093 0.880801
O O3 0.834947 0.546826 0.974564
O O4 0.039788 0.639379 0.015087
O O5 0.468310 0.841850 0.831943
O O6 0.349274 0.652406 0.828993
O O7 0.476677 0.733249 0.997210
O O8 0.475391 0.432531 0.517050
O O9 0.533806 0.375735 0.678635
O O10 0.367622 0.399645 0.695793
O O11 0.906709 0.865127 0.814957
O O12 0.093776 0.886973 0.782035
O O13 0.966801 0.546903 0.543323
O O14 0.135450 0.081385 0.749802
O O15 0.263300 0.009796 0.681655
O O16 0.831674 0.284448 0.017288
#
# Coordination Sequence:
#
# PCOD8324564 Si02
#       8
#     6   6   6   6   6   6   6   6
#     4  11  23  44  67 103 138 176 232 277 340 415
#     4  12  24  44  68  98 141 182 226 284 342 411
#     4  11  23  42  67  98 141 179 227 285 335 411
#     4  10  23  45  72 100 134 175 231 286 344 414
#     4  11  23  42  67  98 141 179 227 285 335 411
#     4  10  23  45  72 100 134 175 231 286 344 414
#     4  12  24  44  68  98 141 182 226 284 342 411
#     4  11  23  44  67 103 138 176 232 277 340 415
#
# _framework density 21.007397000000001
#
# number of rings (size 3 to 8) (size 9 to 14) (size 15 to 20)
#    0.000    1.000    5.000    1.500    7.000    1.000 
#    0.000    6.250    0.000    0.000    0.000    0.000 
#    0.000    0.000    0.000    0.000    0.000    0.000 
#
# Total GULP energy -594716.485284 kJ/mol
# GULP energy per Si atom -12389.926777 kJ/mol
# Density = 2.095958 g / cm^3
# Si number density = 21.007397 Si / 1000 Ang^3
#
#
#
# Elastic Constant Matrix: (Units=GPa)
#
#
# Indices 1 2 3 4 5 6 
#
# 1 144.4430 13.8887 23.2280 0.0000 0.0000 0.0000
# 2 13.8887 144.4430 23.2280 0.0000 0.0000 0.0000
# 3 23.2280 23.2280 72.3493 0.0000 0.0000 0.0000
# 4 0.0000 0.0000 0.0000 26.0811 0.0000 0.0000
# 5 0.0000 0.0000 0.0000 0.0000 26.0811 0.0000
# 6 0.0000 0.0000 0.0000 0.0000 0.0000 65.2772
#
#
#
# Elastic Compliance Matrix: (Units=1/GPa)
#
#
# Indices 1 2 3 4 5 6 
#
# 1 0.007316 -0.000343 -0.002239 0.000000 0.000000 0.000000
# 2 -0.000343 0.007316 -0.002239 0.000000 0.000000 0.000000
# 3 -0.002239 -0.002239 0.015259 0.000000 0.000000 0.000000
# 4 0.000000 0.000000 0.000000 0.038342 0.000000 0.000000
# 5 0.000000 0.000000 0.000000 0.000000 0.038342 0.000000
# 6 0.000000 0.000000 0.000000 0.000000 0.000000 0.015319
#
#
# Mechanical properties :
#
#
# Convention : Reuss Voigt Hill
#
# Bulk Modulus (GPa) = 49.38222 53.54720 51.46471
# Shear Modulus (GPa) = 36.15692 43.54726 39.85209
#
# Velocity S-wave (km/s) = 4.15318 4.55790 4.36024
# Velocity P-wave (km/s) = 6.82324 7.29687 7.06403
#
# Compressibility (1/GPa) = 0.02025020
#
# Stress axis : x y z
#
# Youngs Moduli (GPa) = 136.68364 136.68364 65.53394
#
# Poissons Ratio (x) = 0.04695 0.14670
# Poissons Ratio (y) = 0.04695 0.14670
# Poissons Ratio (z) = 0.30598 0.30598
#
# Static dielectric constant tensor:
#      x y z
#    x 3.832070 0.000000 0.000000 
#    y 0.000000 3.832070 0.000000 
#    z 0.000000 0.000000 4.096400 
# 
# 
# High freq. dielectric constant tensor:
#      x y z
#    x 1.824680 0.000000 0.000000 
#    y 0.000000 1.824680 0.000000 
#    z 0.000000 0.000000 1.830410 
# 
# From -- ./inp_files/1036.got.cif
#   From: 2010.03.12/outbox.cif.g09.slc.cpg/sg169_cif.got.tgz:1036.got - 2010.04.02 06:46:06.
