data_PCOD8325447
_publ_section_title
;
Structure prediction by ZEFSAII (Michael W. Deem and Ramdas Pophale) SiO2 
 PCOD8325447
Probable space group: P 63/M
;
_chemical_formula_sum "Si O2"
_cell_formula_units_Z 72
_cell_length_a 23.618347
_cell_length_b 23.618347
_cell_length_c 9.345458
_cell_angle_alpha 90.000000
_cell_angle_beta 90.000000
_cell_angle_gamma 120.000000
_cell_volume 4514.713750
_symmetry_space_group_name_H-M "P 63/M"
_symmetry_group_IT_number 176
_symmetry_cell_setting 'hexagonal'
loop_
_space_group_symop_operation_xyz
x,y,z
x-y,x,1/2+z
-y,x-y,z
-x,-y,1/2+z
-x+y,-x,z
y,-x+y,1/2+z
-x,-y,-z
-x+y,-x,1/2-z
y,-x+y,-z
x,y,1/2-z
x-y,x,-z
-y,x-y,1/2-z
loop_
_atom_site_type_symbol
_atom_site_label
_atom_site_fract_x
_atom_site_fract_y
_atom_site_fract_z
Si Si1 0.924547 0.403614 0.916744
Si Si2 0.729344 0.592516 0.082714
Si Si3 0.743849 0.937178 0.913918
Si Si4 0.065534 0.258813 0.916641
Si Si5 0.738167 0.142033 0.080798
Si Si6 0.923922 0.515435 0.416540
O O1 0.907637 0.398769 0.750000
O O2 0.000949 0.430136 0.943202
O O3 0.882924 0.333235 0.986825
O O4 0.903151 0.451370 0.990348
O O5 0.711185 0.578447 0.250000
O O6 0.757689 0.668411 0.046785
O O7 0.783232 0.572322 0.037796
O O8 0.756092 0.958727 0.750000
O O9 0.762963 0.881962 0.944768
O O10 0.791308 0.999156 0.007465
O O11 0.050536 0.257845 0.750000
O O12 0.092820 0.331713 0.981529
O O13 0.739319 0.135828 0.250000
O O14 0.665599 0.120778 0.027234
O O15 0.911571 0.495568 0.250000
#
# Coordination Sequence:
#
# PCOD8325447 Si02
#       6
#    12  12  12  12  12  12
#     4  10  19  29  44  68  94 118 146 181 223 266
#     4   9  17  30  47  66  90 118 148 183 220 262
#     4   9  18  30  45  68  94 119 149 184 222 264
#     4   9  17  30  47  67  93 121 147 181 224 265
#     4   8  15  29  48  67  87 116 151 182 216 261
#     4   9  17  30  47  65  88 119 151 181 215 260
#
# _framework density 15.947855000000001
#
# number of rings (size 3 to 8) (size 9 to 14) (size 15 to 20)
#    0.000    3.000    0.000    3.500    0.000    3.333 
#    0.000    4.167    0.000    1.000    0.000    2.333 
#    0.000    0.000    0.000    0.000    0.000    0.000 
#
# Total GULP energy -892670.605602 kJ/mol
# GULP energy per Si atom -12398.202856 kJ/mol
# Density = 1.591156 g / cm^3
# Si number density = 15.947855 Si / 1000 Ang^3
#
#
#
# Elastic Constant Matrix: (Units=GPa)
#
#
# Indices 1 2 3 4 5 6 
#
# 1 114.7679 65.8942 57.0709 0.0000 0.0000 0.0000
# 2 65.8942 114.7679 57.0709 0.0000 0.0000 0.0000
# 3 57.0709 57.0709 67.6670 0.0000 0.0000 0.0000
# 4 0.0000 0.0000 0.0000 24.8050 0.0000 0.0000
# 5 0.0000 0.0000 0.0000 0.0000 24.8050 0.0000
# 6 0.0000 0.0000 0.0000 0.0000 0.0000 24.4369
#
#
#
# Elastic Compliance Matrix: (Units=1/GPa)
#
#
# Indices 1 2 3 4 5 6 
#
# 1 0.016155 -0.004306 -0.009994 0.000000 0.000000 0.000000
# 2 -0.004306 0.016155 -0.009994 0.000000 0.000000 0.000000
# 3 -0.009994 -0.009994 0.031636 0.000000 0.000000 0.000000
# 4 0.000000 0.000000 0.000000 0.040314 0.000000 0.000000
# 5 0.000000 0.000000 0.000000 0.000000 0.040314 0.000000
# 6 0.000000 0.000000 0.000000 0.000000 0.000000 0.040922
#
#
# Mechanical properties :
#
#
# Convention : Reuss Voigt Hill
#
# Bulk Modulus (GPa) = 65.10687 73.03054 69.06870
# Shear Modulus (GPa) = 20.90275 22.62050 21.76163
#
# Velocity S-wave (km/s) = 3.62428 3.77026 3.69799
# Velocity P-wave (km/s) = 7.64378 8.05269 7.85090
#
# Compressibility (1/GPa) = 0.01535936
#
# Stress axis : x y z
#
# Youngs Moduli (GPa) = 61.90017 61.90017 31.60968
#
# Poissons Ratio (x) = 0.26653 0.31590
# Poissons Ratio (y) = 0.26653 0.31590
# Poissons Ratio (z) = 0.61861 0.61861
#
# Static dielectric constant tensor:
#      x y z
#    x 3.029140 0.000000 0.000000 
#    y 0.000000 3.029140 0.000000 
#    z 0.000000 0.000000 2.857170 
# 
# 
# High freq. dielectric constant tensor:
#      x y z
#    x 1.605010 0.000000 0.000000 
#    y 0.000000 1.605010 0.000000 
#    z 0.000000 0.000000 1.599900 
# 
# From -- ./inp_files/1161.got.cif
#   From: 2010.06.25/outbox.cif.g09.slc.cpg/sg176_1_cif.got.tgz:1161.got - 2010.06.28 12:15:01.
