data_PCOD8325055
_publ_section_title
;
Structure prediction by ZEFSAII (Michael W. Deem and Ramdas Pophale) SiO2 
 PCOD8325055
Probable space group: P 6/M
;
_chemical_formula_sum "Si O2"
_cell_formula_units_Z 48
_cell_length_a 25.389921
_cell_length_b 25.389921
_cell_length_c 7.859810
_cell_angle_alpha 90.000000
_cell_angle_beta 90.000000
_cell_angle_gamma 120.000000
_cell_volume 4387.987468
_symmetry_space_group_name_H-M "P 6/M"
_symmetry_group_IT_number 175
_symmetry_cell_setting 'hexagonal'
loop_
_space_group_symop_operation_xyz
x,y,z
x-y,x,z
-y,x-y,z
-x,-y,z
-x+y,-x,z
y,-x+y,z
-x,-y,-z
-x+y,-x,-z
y,-x+y,-z
x,y,-z
x-y,x,-z
-y,x-y,-z
loop_
_atom_site_type_symbol
_atom_site_label
_atom_site_fract_x
_atom_site_fract_y
_atom_site_fract_z
Si Si1 0.871204 0.498137 0.312214
Si Si2 0.458092 0.667407 0.000000
Si Si3 0.541908 0.209315 0.000000
Si Si4 0.498137 0.871204 0.687787
Si Si5 1.000000 0.562697 0.192152
O O1 0.848705 0.504766 0.500000
O O2 0.825736 0.496867 0.167539
O O3 0.873013 0.436507 0.298606
O O4 0.939480 0.554323 0.283795
O O5 0.393186 0.606814 0.000000
O O6 0.446777 0.723388 0.000000
O O7 0.503133 0.174264 0.832461
O O8 0.504766 0.848705 0.500000
O O9 0.554323 0.939480 0.716205
O O10 0.000000 0.500000 0.196561
O O11 1.000000 0.583440 0.000000
#
# Coordination Sequence:
#
# PCOD8325055 Si02
#       5
#    12   6   6  12  12
#     4   9  16  25  37  51  64  76  91 115 148 181
#     4  10  19  29  37  45  59  81 108 130 144 162
#     4  10  19  29  37  45  59  81 108 130 144 162
#     4   9  16  25  37  51  64  76  91 115 148 181
#     4   9  13  21  37  54  67  75  84 107 147 188
#
# _framework density 10.938955999999999
#
# number of rings (size 3 to 8) (size 9 to 14) (size 15 to 20)
#    0.000    2.750    2.500    1.000    0.000    4.000 
#    0.000    0.000    0.000    3.000    0.000    0.000 
#    0.000    0.000    0.000    0.000    0.000    0.000 
#
# Total GULP energy -594824.602833 kJ/mol
# GULP energy per Si atom -12392.179226 kJ/mol
# Density = 1.091406 g / cm^3
# Si number density = 10.938956 Si / 1000 Ang^3
#
#
#
# Elastic Constant Matrix: (Units=GPa)
#
#
# Indices 1 2 3 4 5 6 
#
# 1 27.1590 18.8171 24.6689 0.0000 0.0000 0.0000
# 2 18.8171 27.1590 24.6689 0.0000 0.0000 0.0000
# 3 24.6689 24.6689 108.7337 0.0000 0.0000 0.0000
# 4 0.0000 0.0000 0.0000 7.3909 0.0000 0.0000
# 5 0.0000 0.0000 0.0000 0.0000 7.3909 0.0000
# 6 0.0000 0.0000 0.0000 0.0000 0.0000 4.1709
#
#
#
# Elastic Compliance Matrix: (Units=1/GPa)
#
#
# Indices 1 2 3 4 5 6 
#
# 1 0.074314 -0.045564 -0.006523 0.000000 0.000000 0.000000
# 2 -0.045564 0.074314 -0.006523 0.000000 0.000000 0.000000
# 3 -0.006523 -0.006523 0.012156 0.000000 0.000000 0.000000
# 4 0.000000 0.000000 0.000000 0.135302 0.000000 0.000000
# 5 0.000000 0.000000 0.000000 0.000000 0.135302 0.000000
# 6 0.000000 0.000000 0.000000 0.000000 0.000000 0.239755
#
#
# Mechanical properties :
#
#
# Convention : Reuss Voigt Hill
#
# Bulk Modulus (GPa) = 22.95376 33.26238 28.10807
# Shear Modulus (GPa) = 6.22757 10.11699 8.17228
#
# Velocity S-wave (km/s) = 2.38859 3.04445 2.73624
# Velocity P-wave (km/s) = 5.35128 6.54458 5.97778
#
# Compressibility (1/GPa) = 0.04356585
#
# Stress axis : x y z
#
# Youngs Moduli (GPa) = 13.45648 13.45648 82.26106
#
# Poissons Ratio (x) = 0.61313 0.53656
# Poissons Ratio (y) = 0.61313 0.53656
# Poissons Ratio (z) = 0.08777 0.08777
#
# Static dielectric constant tensor:
#      x y z
#    x 2.078760 0.000000 0.000000 
#    y 0.000000 2.078760 0.000000 
#    z 0.000000 0.000000 2.653070 
# 
# 
# High freq. dielectric constant tensor:
#      x y z
#    x 1.367410 0.000000 0.000000 
#    y 0.000000 1.367410 0.000000 
#    z 0.000000 0.000000 1.438010 
# 
# From -- ./inp_files/736.got.cif
#   From: 2010.03.12/outbox.cif.g09.slc.cpg/sg175_1_cif.got.tgz:736.got - 2010.04.02 06:55:29.
