data_PCOD8325106
_publ_section_title
;
Structure prediction by ZEFSAII (Michael W. Deem and Ramdas Pophale) SiO2 
 PCOD8325106
Probable space group: P 6/M
;
_chemical_formula_sum "Si O2"
_cell_formula_units_Z 72
_cell_length_a 23.141670
_cell_length_b 23.141670
_cell_length_c 8.702997
_cell_angle_alpha 90.000000
_cell_angle_beta 90.000000
_cell_angle_gamma 120.000000
_cell_volume 4036.350374
_symmetry_space_group_name_H-M "P 6/M"
_symmetry_group_IT_number 175
_symmetry_cell_setting 'hexagonal'
loop_
_space_group_symop_operation_xyz
x,y,z
x-y,x,z
-y,x-y,z
-x,-y,z
-x+y,-x,z
y,-x+y,z
-x,-y,-z
-x+y,-x,-z
y,-x+y,-z
x,y,-z
x-y,x,-z
-y,x-y,-z
loop_
_atom_site_type_symbol
_atom_site_label
_atom_site_fract_x
_atom_site_fract_y
_atom_site_fract_z
Si Si1 0.519078 0.922148 0.318550
Si Si2 0.375142 0.250772 0.317305
Si Si3 0.740618 0.615076 0.318104
Si Si4 0.396730 0.928143 0.682647
Si Si5 0.987383 0.127228 0.677481
Si Si6 0.997405 0.253691 0.179725
O O1 0.518304 0.928161 0.500000
O O2 0.545628 0.871928 0.271242
O O3 0.443399 0.897713 0.259524
O O4 0.570217 0.996154 0.254981
O O5 0.372984 0.250405 0.500000
O O6 0.388374 0.192627 0.255971
O O7 0.435039 0.321330 0.252567
O O8 0.304026 0.236616 0.258225
O O9 0.744751 0.626520 0.500000
O O10 0.735064 0.674240 0.241468
O O11 0.392796 0.926920 0.500000
O O12 0.054721 0.127502 0.717780
O O13 0.985592 0.145723 0.500000
O O14 0.979456 0.178940 0.783449
O O15 0.004587 0.266376 0.000000
#
# Coordination Sequence:
#
# PCOD8325106 Si02
#       6
#    12  12  12  12  12  12
#     4   8  13  24  46  73  97 121 153 195 238 281
#     4  10  19  32  52  75  99 130 169 208 244 291
#     4  10  19  32  52  75  99 130 169 208 244 291
#     4   8  13  24  46  73  97 121 153 195 238 281
#     4  10  21  38  58  75  91 118 161 209 251 296
#     4  12  24  35  48  70 102 135 163 202 255 302
#
# _framework density 17.837897999999999
#
# number of rings (size 3 to 8) (size 9 to 14) (size 15 to 20)
#    0.000    2.333    1.667    3.667    0.000    6.000 
#    0.000    0.000    0.000    3.667    0.000    4.667 
#    0.000    0.000    0.000    0.000    0.000    0.000 
#
# Total GULP energy -892406.082112 kJ/mol
# GULP energy per Si atom -12394.528918 kJ/mol
# Density = 1.779730 g / cm^3
# Si number density = 17.837898 Si / 1000 Ang^3
#
#
#
# Elastic Constant Matrix: (Units=GPa)
#
#
# Indices 1 2 3 4 5 6 
#
# 1 74.1797 21.9280 13.5008 0.0000 0.0000 0.0000
# 2 21.9280 74.1797 13.5008 0.0000 0.0000 0.0000
# 3 13.5008 13.5008 17.4292 0.0000 0.0000 0.0000
# 4 0.0000 0.0000 0.0000 0.8067 0.0000 0.0000
# 5 0.0000 0.0000 0.0000 0.0000 0.8067 0.0000
# 6 0.0000 0.0000 0.0000 0.0000 0.0000 26.1258
#
#
#
# Elastic Compliance Matrix: (Units=1/GPa)
#
#
# Indices 1 2 3 4 5 6 
#
# 1 0.016219 -0.002919 -0.010302 0.000000 0.000000 0.000000
# 2 -0.002919 0.016219 -0.010302 0.000000 0.000000 0.000000
# 3 -0.010302 -0.010302 0.073335 0.000000 0.000000 0.000000
# 4 0.000000 0.000000 0.000000 1.239557 0.000000 0.000000
# 5 0.000000 0.000000 0.000000 0.000000 1.239557 0.000000
# 6 0.000000 0.000000 0.000000 0.000000 0.000000 0.038276
#
#
# Mechanical properties :
#
#
# Convention : Reuss Voigt Hill
#
# Bulk Modulus (GPa) = 17.02817 29.29421 23.16119
# Shear Modulus (GPa) = 1.85889 13.33845 7.59867
#
# Velocity S-wave (km/s) = 1.02194 2.73748 2.06618
# Velocity P-wave (km/s) = 3.31048 5.14294 4.32488
#
# Compressibility (1/GPa) = 0.05872622
#
# Stress axis : x y z
#
# Youngs Moduli (GPa) = 61.65712 61.65712 13.63611
#
# Poissons Ratio (x) = 0.18000 0.14048
# Poissons Ratio (y) = 0.18000 0.14048
# Poissons Ratio (z) = 0.63518 0.63518
#
# Static dielectric constant tensor:
#      x y z
#    x 3.623420 0.000000 0.000000 
#    y 0.000000 3.623420 0.000000 
#    z 0.000000 0.000000 2.891740 
# 
# 
# High freq. dielectric constant tensor:
#      x y z
#    x 1.689990 0.000000 0.000000 
#    y 0.000000 1.689990 0.000000 
#    z 0.000000 0.000000 1.646580 
# 
# From -- ./inp_files/1204.got.cif
#   From: 2010.03.12/outbox.cif.g09.slc.cpg/sg175_1_cif.got.tgz:1204.got - 2010.04.02 06:55:29.
