data_PCOD8325721
_publ_section_title
;
Structure prediction by ZEFSAII (Michael W. Deem and Ramdas Pophale) SiO2 
 PCOD8325721
Probable space group: P 63/M
;
_chemical_formula_sum "Si O2"
_cell_formula_units_Z 40
_cell_length_a 11.245570
_cell_length_b 11.245570
_cell_length_c 16.886773
_cell_angle_alpha 90.000000
_cell_angle_beta 90.000000
_cell_angle_gamma 120.000000
_cell_volume 1849.439988
_symmetry_space_group_name_H-M "P 63/M"
_symmetry_group_IT_number 176
_symmetry_cell_setting 'hexagonal'
loop_
_space_group_symop_operation_xyz
x,y,z
x-y,x,1/2+z
-y,x-y,z
-x,-y,1/2+z
-x+y,-x,z
y,-x+y,1/2+z
-x,-y,-z
-x+y,-x,1/2-z
y,-x+y,-z
x,y,1/2-z
x-y,x,-z
-y,x-y,1/2-z
loop_
_atom_site_type_symbol
_atom_site_label
_atom_site_fract_x
_atom_site_fract_y
_atom_site_fract_z
Si Si1 0.612357 0.783977 0.919814
Si Si2 0.670311 0.589969 0.840487
Si Si3 0.584635 0.673429 0.092694
Si Si4 0.666668 0.333335 0.157622
O O1 0.714951 0.738063 0.881023
O O2 0.474477 0.684334 0.873068
O O3 0.666834 0.943022 0.902930
O O4 0.582357 0.746141 0.011455
O O5 0.619526 0.578526 0.750000
O O6 0.549334 0.474894 0.895766
O O7 0.807534 0.578443 0.839507
O O8 0.666667 0.333334 0.250000
#
# Coordination Sequence:
#
# PCOD8325721 Si02
#       4
#    12  12  12   4
#     4  12  24  45  71 101 138 183 236 282 341 418
#     4  12  26  44  71 107 142 180 230 290 356 408
#     4  12  25  47  73 100 140 185 233 287 341 416
#     4  12  24  39  69 105 136 173 229 291 345 402
#
# _framework density 21.628167999999999
#
# number of rings (size 3 to 8) (size 9 to 14) (size 15 to 20)
#    0.000    0.000    6.000    5.100    0.000    3.600 
#    1.800    1.500    0.000    0.000    0.000    0.000 
#    0.000    0.000    0.000    0.000    0.000    0.000 
#
# Total GULP energy -496062.839063 kJ/mol
# GULP energy per Si atom -12401.570977 kJ/mol
# Density = 2.157894 g / cm^3
# Si number density = 21.628168 Si / 1000 Ang^3
#
#
#
# Elastic Constant Matrix: (Units=GPa)
#
#
# Indices 1 2 3 4 5 6 
#
# 1 128.2655 50.5907 30.3440 0.0000 0.0000 0.0005
# 2 50.5907 128.2659 30.3443 0.0000 0.0000 -0.0002
# 3 30.3440 30.3443 94.1680 0.0000 0.0000 0.0001
# 4 0.0000 0.0000 0.0000 28.4071 -0.0002 0.0000
# 5 0.0000 0.0000 0.0000 -0.0002 28.4064 0.0000
# 6 0.0005 -0.0002 0.0001 0.0000 0.0000 38.8368
#
#
#
# Elastic Compliance Matrix: (Units=1/GPa)
#
#
# Indices 1 2 3 4 5 6 
#
# 1 0.009576 -0.003298 -0.002023 0.000000 0.000000 0.000000
# 2 -0.003298 0.009576 -0.002023 0.000000 0.000000 0.000000
# 3 -0.002023 -0.002023 0.011923 0.000000 0.000000 0.000000
# 4 0.000000 0.000000 0.000000 0.035202 0.000000 0.000000
# 5 0.000000 0.000000 0.000000 0.000000 0.035203 0.000000
# 6 0.000000 0.000000 0.000000 0.000000 0.000000 0.025749
#
#
# Mechanical properties :
#
#
# Convention : Reuss Voigt Hill
#
# Bulk Modulus (GPa) = 61.02544 63.69527 62.36035
# Shear Modulus (GPa) = 33.92608 35.09142 34.50875
#
# Velocity S-wave (km/s) = 3.96486 4.03238 3.99876
# Velocity P-wave (km/s) = 7.01692 7.15501 7.08630
#
# Compressibility (1/GPa) = 0.01638661
#
# Stress axis : x y z
#
# Youngs Moduli (GPa) = 104.42984 104.43002 83.87183
#
# Poissons Ratio (x) = 0.34445 0.16965
# Poissons Ratio (y) = 0.34445 0.16966
# Poissons Ratio (z) = 0.21124 0.21124
#
# Static dielectric constant tensor:
#      x y z
#    x 3.883900 0.000000 0.000000 
#    y 0.000000 3.883890 0.000000 
#    z 0.000000 0.000000 3.829550 
# 
# 
# High freq. dielectric constant tensor:
#      x y z
#    x 1.850410 0.000000 0.000000 
#    y 0.000000 1.850410 0.000000 
#    z 0.000000 0.000000 1.860800 
# 
# From -- ./inp_files/3112.got.cif
#   From: 2010.06.25/outbox.cif.g09.slc.cpg/sg176_2_cif.got.tgz:3112.got - 2010.06.28 12:15:01.
