data_PCOD8325733
_publ_section_title
;
Structure prediction by ZEFSAII (Michael W. Deem and Ramdas Pophale) SiO2 
 PCOD8325733
Probable space group: P 6 2 2
;
_chemical_formula_sum "Si O2"
_cell_formula_units_Z 46
_cell_length_a 16.129893
_cell_length_b 16.129893
_cell_length_c 8.503478
_cell_angle_alpha 90.000000
_cell_angle_beta 90.000000
_cell_angle_gamma 120.000000
_cell_volume 1915.976584
_symmetry_space_group_name_H-M "P 6 2 2"
_symmetry_group_IT_number 177
_symmetry_cell_setting 'hexagonal'
loop_
_space_group_symop_operation_xyz
x,y,z
x-y,x,z
-y,x-y,z
-x,-y,z
-x+y,-x,z
y,-x+y,z
x-y,-y,-z
-x,-x+y,-z
y,x,-z
-y,-x,-z
-x+y,y,-z
x,x-y,-z
loop_
_atom_site_type_symbol
_atom_site_label
_atom_site_fract_x
_atom_site_fract_y
_atom_site_fract_z
Si Si1 0.604284 0.604284 0.500000
Si Si2 0.130501 0.361102 0.733192
Si Si3 0.362509 0.362509 0.000000
Si Si4 0.333334 0.666667 0.690115
Si Si5 0.503527 0.856741 0.757829
Si Si6 0.109448 0.890553 0.500000
O O1 0.622118 0.696694 0.593884
O O2 0.587338 0.517753 0.616019
O O3 0.065703 0.336385 0.889998
O O4 0.238485 0.446579 0.750797
O O5 0.143894 0.275702 0.666272
O O6 0.384619 0.459574 0.910149
O O7 0.333334 0.666667 0.500000
O O8 0.391206 0.776169 0.757072
O O9 0.000000 0.847178 0.500000
#
# Coordination Sequence:
#
# PCOD8325733 Si02
#       6
#     6  12   6   4  12   6
#     4  10  18  38  73 103 138 182 246 300 357 456
#     4  11  19  40  67 103 137 187 246 311 366 440
#     4  10  24  42  71 106 141 194 252 302 363 466
#     4  12  27  48  76 116 154 193 236 325 390 433
#     4  11  23  44  73 107 144 187 247 300 375 441
#     4  12  21  34  60  94 138 182 242 311 378 444
#
# _framework density 24.008644
#
# number of rings (size 3 to 8) (size 9 to 14) (size 15 to 20)
#    0.000    1.043    3.913    4.043    0.000    0.000 
#    0.000   18.913    0.000    9.391    0.000    1.826 
#    0.000    0.000    0.000    0.000    0.000    0.000 
#
# Total GULP energy -569859.001410 kJ/mol
# GULP energy per Si atom -12388.239161 kJ/mol
# Density = 2.395400 g / cm^3
# Si number density = 24.008644 Si / 1000 Ang^3
#
#
#
# Elastic Constant Matrix: (Units=GPa)
#
#
# Indices 1 2 3 4 5 6 
#
# 1 150.1249 24.6158 52.5472 0.0001 -0.0013 -0.0004
# 2 24.6158 150.1260 52.5476 0.0010 0.0003 0.0004
# 3 52.5472 52.5476 151.4168 0.0003 0.0000 0.0001
# 4 0.0001 0.0010 0.0003 96.1400 -0.0020 -0.0008
# 5 -0.0013 0.0003 0.0000 -0.0020 96.1437 0.0004
# 6 -0.0004 0.0004 0.0001 -0.0008 0.0004 62.7557
#
#
#
# Elastic Compliance Matrix: (Units=1/GPa)
#
#
# Indices 1 2 3 4 5 6 
#
# 1 0.007600 -0.000368 -0.002510 0.000000 0.000000 0.000000
# 2 -0.000368 0.007600 -0.002510 0.000000 0.000000 0.000000
# 3 -0.002510 -0.002510 0.008346 0.000000 0.000000 0.000000
# 4 0.000000 0.000000 0.000000 0.010402 0.000000 0.000000
# 5 0.000000 0.000000 0.000000 0.000000 0.010401 0.000000
# 6 0.000000 0.000000 0.000000 0.000000 0.000000 0.015935
#
#
# Mechanical properties :
#
#
# Convention : Reuss Voigt Hill
#
# Bulk Modulus (GPa) = 78.30011 79.00985 78.65498
# Shear Modulus (GPa) = 66.38752 72.47168 69.42960
#
# Velocity S-wave (km/s) = 5.26417 5.50011 5.38343
# Velocity P-wave (km/s) = 8.34463 8.56243 8.45423
#
# Compressibility (1/GPa) = 0.01277137
#
# Stress axis : x y z
#
# Youngs Moduli (GPa) = 131.58046 131.58131 119.81323
#
# Poissons Ratio (x) = 0.04837 0.30072
# Poissons Ratio (y) = 0.04837 0.30072
# Poissons Ratio (z) = 0.33025 0.33025
#
# Static dielectric constant tensor:
#      x y z
#    x 4.506990 0.000000 0.000000 
#    y 0.000000 4.506990 0.000000 
#    z 0.000000 0.000000 4.837360 
# 
# 
# High freq. dielectric constant tensor:
#      x y z
#    x 1.964410 0.000000 0.000000 
#    y 0.000000 1.964410 0.000000 
#    z 0.000000 0.000000 1.950720 
# 
# From -- ./inp_files/1180.got.cif
#   From: 2010.03.12/outbox.cif.g09.slc.cpg/sg177_1_cif.got.tgz:1180.got - 2010.04.02 07:00:27.
