data_PCOD8325666
_publ_section_title
;
Structure prediction by ZEFSAII (Michael W. Deem and Ramdas Pophale) SiO2 
 PCOD8325666
Probable space group: P 63/M
;
_chemical_formula_sum "Si O2"
_cell_formula_units_Z 36
_cell_length_a 16.332190
_cell_length_b 16.332190
_cell_length_c 7.800970
_cell_angle_alpha 90.000000
_cell_angle_beta 90.000000
_cell_angle_gamma 120.000000
_cell_volume 1802.055186
_symmetry_space_group_name_H-M "P 63/M"
_symmetry_group_IT_number 176
_symmetry_cell_setting 'hexagonal'
loop_
_space_group_symop_operation_xyz
x,y,z
x-y,x,1/2+z
-y,x-y,z
-x,-y,1/2+z
-x+y,-x,z
y,-x+y,1/2+z
-x,-y,-z
-x+y,-x,1/2-z
y,-x+y,-z
x,y,1/2-z
x-y,x,-z
-y,x-y,1/2-z
loop_
_atom_site_type_symbol
_atom_site_label
_atom_site_fract_x
_atom_site_fract_y
_atom_site_fract_z
Si Si1 0.025403 0.654323 0.937282
Si Si2 0.829122 0.814658 0.556621
Si Si3 0.681580 0.152017 0.750000
Si Si4 0.489767 0.136301 0.750000
O O1 0.072325 0.658912 0.750000
O O2 0.911838 0.581277 0.919422
O O3 0.045214 0.757746 0.982760
O O4 0.070434 0.619501 0.082070
O O5 0.827602 0.894646 0.441740
O O6 0.800641 0.823187 0.750000
O O7 0.602712 0.183709 0.750000
O O8 0.784381 0.243934 0.750000
#
# Coordination Sequence:
#
# PCOD8325666 Si02
#       4
#    12  12   6   6
#     4  10  23  41  64  93 121 170 219 247 320 390
#     4  12  23  38  58  88 127 168 215 269 322 384
#     4  10  25  40  71  98 124 170 214 258 337 376
#     4  12  21  48  65  96 136 160 210 282 311 386
#
# _framework density 19.977191000000001
#
# number of rings (size 3 to 8) (size 9 to 14) (size 15 to 20)
#    1.000    0.000    1.667    6.667    0.000    0.000 
#    3.000    0.000    0.000    0.000    0.000    0.000 
#    0.000    0.000    0.000    0.000    0.000    0.000 
#
# Total GULP energy -446348.068559 kJ/mol
# GULP energy per Si atom -12398.557460 kJ/mol
# Density = 1.993172 g / cm^3
# Si number density = 19.977191 Si / 1000 Ang^3
#
#
#
# Elastic Constant Matrix: (Units=GPa)
#
#
# Indices 1 2 3 4 5 6 
#
# 1 77.0551 4.3911 25.8332 0.0000 0.0000 0.0000
# 2 4.3911 77.0551 25.8332 0.0000 0.0000 0.0000
# 3 25.8332 25.8332 138.9855 0.0000 0.0000 0.0000
# 4 0.0000 0.0000 0.0000 12.1223 0.0000 0.0000
# 5 0.0000 0.0000 0.0000 0.0000 12.1223 0.0000
# 6 0.0000 0.0000 0.0000 0.0000 0.0000 36.3320
#
#
#
# Elastic Compliance Matrix: (Units=1/GPa)
#
#
# Indices 1 2 3 4 5 6 
#
# 1 0.013841 0.000079 -0.002587 0.000000 0.000000 0.000000
# 2 0.000079 0.013841 -0.002587 0.000000 0.000000 0.000000
# 3 -0.002587 -0.002587 0.008157 0.000000 0.000000 0.000000
# 4 0.000000 0.000000 0.000000 0.082493 0.000000 0.000000
# 5 0.000000 0.000000 0.000000 0.000000 0.082493 0.000000
# 6 0.000000 0.000000 0.000000 0.000000 0.000000 0.027524
#
#
# Mechanical properties :
#
#
# Convention : Reuss Voigt Hill
#
# Bulk Modulus (GPa) = 38.99156 45.02342 42.00749
# Shear Modulus (GPa) = 20.23571 27.91785 24.07678
#
# Velocity S-wave (km/s) = 3.18613 3.74235 3.47538
# Velocity P-wave (km/s) = 5.75288 6.42339 6.09736
#
# Compressibility (1/GPa) = 0.02564658
#
# Stress axis : x y z
#
# Youngs Moduli (GPa) = 72.25114 72.25114 122.59781
#
# Poissons Ratio (x) = -0.00568 0.31718
# Poissons Ratio (y) = -0.00568 0.31718
# Poissons Ratio (z) = 0.18693 0.18693
#
# Static dielectric constant tensor:
#      x y z
#    x 3.443000 0.000000 0.000000 
#    y 0.000000 3.443000 0.000000 
#    z 0.000000 0.000000 3.682900 
# 
# 
# High freq. dielectric constant tensor:
#      x y z
#    x 1.773210 0.000000 0.000000 
#    y 0.000000 1.773210 0.000000 
#    z 0.000000 0.000000 1.780970 
# 
# From -- ./inp_files/428.got.cif
#   From: 2010.06.25/outbox.cif.g09.slc.cpg/sg176_1_cif.got.tgz:428.got - 2010.06.28 12:15:01.
