data_PCOD8325081
_publ_section_title
;
Structure prediction by ZEFSAII (Michael W. Deem and Ramdas Pophale) SiO2 
 PCOD8325081
Probable space group: P 6/M
;
_chemical_formula_sum "Si O2"
_cell_formula_units_Z 96
_cell_length_a 14.594504
_cell_length_b 14.594504
_cell_length_c 31.587477
_cell_angle_alpha 90.000000
_cell_angle_beta 90.000000
_cell_angle_gamma 120.000000
_cell_volume 5826.721361
_symmetry_space_group_name_H-M "P 6/M"
_symmetry_group_IT_number 175
_symmetry_cell_setting 'hexagonal'
loop_
_space_group_symop_operation_xyz
x,y,z
x-y,x,z
-y,x-y,z
-x,-y,z
-x+y,-x,z
y,-x+y,z
-x,-y,-z
-x+y,-x,-z
y,-x+y,-z
x,y,-z
x-y,x,-z
-y,x-y,-z
loop_
_atom_site_type_symbol
_atom_site_label
_atom_site_fract_x
_atom_site_fract_y
_atom_site_fract_z
Si Si1 0.748576 0.874285 0.378600
Si Si2 0.874618 0.749229 0.226298
Si Si3 0.561728 0.123460 0.674136
Si Si4 0.249473 0.124739 0.044788
Si Si5 0.791742 0.583480 0.452133
Si Si6 0.793209 0.206788 0.698809
Si Si7 0.123706 0.561856 0.580287
Si Si8 0.752939 0.876467 0.865747
O O1 0.821784 0.821781 0.374655
O O2 0.687180 0.843585 0.422932
O O3 0.661651 0.830821 0.341920
O O4 0.822373 0.822370 0.233285
O O5 0.827131 0.654253 0.258983
O O6 0.846134 0.692261 0.179496
O O7 0.667746 0.156486 0.699860
O O8 0.488732 0.156480 0.699861
O O9 0.588101 0.176213 0.627217
O O10 0.500000 0.000000 0.668798
O O11 0.174924 0.174926 0.044700
O O12 0.316318 0.158162 0.089778
O O13 0.317016 0.158511 0.000000
O O14 0.812972 0.625933 0.500000
O O15 0.843470 0.510958 0.445251
O O16 0.667490 0.510968 0.445253
O O17 0.000000 0.500000 0.585536
O O18 0.828622 0.828620 0.866188
#
# Coordination Sequence:
#
# PCOD8325081 Si02
#       8
#    12  12  12  12  12  12  12  12
#     4  12  25  42  61  82 109 141 174 202 229 270
#     4  10  19  31  48  72 103 139 174 207 241 282
#     4  11  21  37  59  80  99 123 155 192 239 289
#     4   8  11  14  22  39  67 108 159 210 250 280
#     4  12  25  40  62  88 112 136 163 198 241 286
#     4  12  23  38  59  80 103 127 158 203 247 295
#     4  11  22  40  61  81 105 131 160 197 240 285
#     4   8  13  20  31  50  80 120 165 207 244 280
#
# _framework density 16.475819000000001
#
# number of rings (size 3 to 8) (size 9 to 14) (size 15 to 20)
#    0.000    1.500    2.500    4.375    0.000    5.000 
#    0.000    1.250    0.000    0.750    0.000    0.000 
#    0.000    0.000    0.000    1.125    0.000   23.750 
#
# Total GULP energy -1189287.650132 kJ/mol
# GULP energy per Si atom -12388.413022 kJ/mol
# Density = 1.643832 g / cm^3
# Si number density = 16.475819 Si / 1000 Ang^3
#
#
#
# Elastic Constant Matrix: (Units=GPa)
#
#
# Indices 1 2 3 4 5 6 
#
# 1 77.0664 44.7769 45.2788 0.0000 0.0000 0.0000
# 2 44.7769 77.0664 45.2788 0.0000 0.0000 0.0000
# 3 45.2788 45.2788 177.2440 0.0000 0.0000 0.0000
# 4 0.0000 0.0000 0.0000 11.8736 0.0000 0.0000
# 5 0.0000 0.0000 0.0000 0.0000 11.8736 0.0000
# 6 0.0000 0.0000 0.0000 0.0000 0.0000 16.1447
#
#
#
# Elastic Compliance Matrix: (Units=1/GPa)
#
#
# Indices 1 2 3 4 5 6 
#
# 1 0.020550 -0.010420 -0.002588 0.000000 0.000000 0.000000
# 2 -0.010420 0.020550 -0.002588 0.000000 0.000000 0.000000
# 3 -0.002588 -0.002588 0.006964 0.000000 0.000000 0.000000
# 4 0.000000 0.000000 0.000000 0.084221 0.000000 0.000000
# 5 0.000000 0.000000 0.000000 0.000000 0.084221 0.000000
# 6 0.000000 0.000000 0.000000 0.000000 0.000000 0.061940
#
#
# Mechanical properties :
#
#
# Convention : Reuss Voigt Hill
#
# Bulk Modulus (GPa) = 59.26389 66.89397 63.07893
# Shear Modulus (GPa) = 15.85985 21.04786 18.45385
#
# Velocity S-wave (km/s) = 3.10597 3.57809 3.35036
# Velocity P-wave (km/s) = 6.99364 7.59998 7.30311
#
# Compressibility (1/GPa) = 0.01687368
#
# Stress axis : x y z
#
# Youngs Moduli (GPa) = 48.66107 48.66107 143.59139
#
# Poissons Ratio (x) = 0.50703 0.37162
# Poissons Ratio (y) = 0.50703 0.37162
# Poissons Ratio (z) = 0.12594 0.12594
#
# Static dielectric constant tensor:
#      x y z
#    x 2.975720 0.000000 0.000000 
#    y 0.000000 2.975720 0.000000 
#    z 0.000000 0.000000 3.899700 
# 
# 
# High freq. dielectric constant tensor:
#      x y z
#    x 1.614380 0.000000 0.000000 
#    y 0.000000 1.614380 0.000000 
#    z 0.000000 0.000000 1.645930 
# 
# From -- ./inp_files/3414.got.cif
#   From: 2010.03.12/outbox.cif.g09.slc.cpg/sg175_2_cif.got.tgz:3414.got - 2010.04.02 06:55:29.
