data_PCOD8325706
_publ_section_title
;
Structure prediction by ZEFSAII (Michael W. Deem and Ramdas Pophale) SiO2 
 PCOD8325706
Probable space group: P 63/M
;
_chemical_formula_sum "Si O2"
_cell_formula_units_Z 72
_cell_length_a 15.625853
_cell_length_b 15.625853
_cell_length_c 17.657621
_cell_angle_alpha 90.000000
_cell_angle_beta 90.000000
_cell_angle_gamma 120.000000
_cell_volume 3733.793466
_symmetry_space_group_name_H-M "P 63/M"
_symmetry_group_IT_number 176
_symmetry_cell_setting 'hexagonal'
loop_
_space_group_symop_operation_xyz
x,y,z
x-y,x,1/2+z
-y,x-y,z
-x,-y,1/2+z
-x+y,-x,z
y,-x+y,1/2+z
-x,-y,-z
-x+y,-x,1/2-z
y,-x+y,-z
x,y,1/2-z
x-y,x,-z
-y,x-y,1/2-z
loop_
_atom_site_type_symbol
_atom_site_label
_atom_site_fract_x
_atom_site_fract_y
_atom_site_fract_z
Si Si1 0.724416 0.456987 0.339074
Si Si2 0.328904 0.858717 0.335945
Si Si3 0.243530 0.272039 0.409516
Si Si4 0.727038 0.773673 0.076728
Si Si5 0.678827 0.848097 0.662877
Si Si6 0.137276 0.662292 0.336189
O O1 0.607121 0.385799 0.361307
O O2 0.734740 0.473730 0.250000
O O3 0.775614 0.567192 0.374610
O O4 0.330031 0.895017 0.250000
O O5 0.301938 0.921039 0.392305
O O6 0.252754 0.742394 0.342582
O O7 0.435557 0.878442 0.360446
O O8 0.272244 0.241589 0.487637
O O9 0.128518 0.241360 0.405870
O O10 0.269675 0.218458 0.343256
O O11 0.311759 0.388386 0.395714
O O12 0.803799 0.749915 0.116961
O O13 0.675286 0.874779 0.750000
O O14 0.100673 0.660318 0.250000
#
# Coordination Sequence:
#
# PCOD8325706 Si02
#       6
#    12  12  12  12  12  12
#     4   7  14  32  58  91 126 155 189 236 294 362
#     4   9  18  34  59  89 120 155 196 242 293 359
#     4  11  23  41  60  81 118 159 201 253 311 368
#     4  11  23  41  60  81 118 159 201 253 311 368
#     4  11  22  38  65  91 116 155 204 258 307 362
#     4   9  18  34  59  89 120 155 196 242 293 359
#
# _framework density 19.283339000000002
#
# number of rings (size 3 to 8) (size 9 to 14) (size 15 to 20)
#    0.333    2.000    1.667    1.333    0.000    5.333 
#    1.000    4.167    0.000    0.000    0.000    0.000 
#    0.000    0.000    0.000    0.000    0.000    0.000 
#
# Total GULP energy -892339.928060 kJ/mol
# GULP energy per Si atom -12393.610112 kJ/mol
# Density = 1.923945 g / cm^3
# Si number density = 19.283339 Si / 1000 Ang^3
#
#
#
# Elastic Constant Matrix: (Units=GPa)
#
#
# Indices 1 2 3 4 5 6 
#
# 1 103.6324 56.3364 21.7968 0.0000 0.0000 0.0000
# 2 56.3364 103.6324 21.7968 0.0000 0.0000 0.0000
# 3 21.7968 21.7968 41.1804 0.0000 0.0000 0.0000
# 4 0.0000 0.0000 0.0000 25.8388 0.0000 0.0000
# 5 0.0000 0.0000 0.0000 0.0000 25.8388 0.0000
# 6 0.0000 0.0000 0.0000 0.0000 0.0000 23.6480
#
#
#
# Elastic Compliance Matrix: (Units=1/GPa)
#
#
# Indices 1 2 3 4 5 6 
#
# 1 0.014224 -0.006919 -0.003866 0.000000 0.000000 0.000000
# 2 -0.006919 0.014224 -0.003866 0.000000 0.000000 0.000000
# 3 -0.003866 -0.003866 0.028376 0.000000 0.000000 0.000000
# 4 0.000000 0.000000 0.000000 0.038701 0.000000 0.000000
# 5 0.000000 0.000000 0.000000 0.000000 0.038701 0.000000
# 6 0.000000 0.000000 0.000000 0.000000 0.000000 0.042287
#
#
# Mechanical properties :
#
#
# Convention : Reuss Voigt Hill
#
# Bulk Modulus (GPa) = 36.33683 49.81172 43.07427
# Shear Modulus (GPa) = 23.25663 24.96614 24.11138
#
# Velocity S-wave (km/s) = 3.47659 3.60210 3.53990
# Velocity P-wave (km/s) = 5.91609 6.57173 6.25251
#
# Compressibility (1/GPa) = 0.02752029
#
# Stress axis : x y z
#
# Youngs Moduli (GPa) = 70.30296 70.30296 35.24049
#
# Poissons Ratio (x) = 0.48644 0.13626
# Poissons Ratio (y) = 0.48644 0.13626
# Poissons Ratio (z) = 0.27183 0.27183
#
# Static dielectric constant tensor:
#      x y z
#    x 3.587210 0.000000 0.000000 
#    y 0.000000 3.587210 0.000000 
#    z 0.000000 0.000000 3.302200 
# 
# 
# High freq. dielectric constant tensor:
#      x y z
#    x 1.750300 0.000000 0.000000 
#    y 0.000000 1.750300 0.000000 
#    z 0.000000 0.000000 1.730940 
# 
# From -- ./inp_files/3373.got.cif
#   From: 2010.06.25/outbox.cif.g09.slc.cpg/sg176_2_cif.got.tgz:3373.got - 2010.06.28 12:15:01.
