data_PCOD8325552
_publ_section_title
;
Structure prediction by ZEFSAII (Michael W. Deem and Ramdas Pophale) SiO2 
 PCOD8325552
Probable space group: P 63/M
;
_chemical_formula_sum "Si O2"
_cell_formula_units_Z 66
_cell_length_a 21.363559
_cell_length_b 21.363559
_cell_length_c 8.143490
_cell_angle_alpha 90.000000
_cell_angle_beta 90.000000
_cell_angle_gamma 120.000000
_cell_volume 3218.758609
_symmetry_space_group_name_H-M "P 63/M"
_symmetry_group_IT_number 176
_symmetry_cell_setting 'hexagonal'
loop_
_space_group_symop_operation_xyz
x,y,z
x-y,x,1/2+z
-y,x-y,z
-x,-y,1/2+z
-x+y,-x,z
y,-x+y,1/2+z
-x,-y,-z
-x+y,-x,1/2-z
y,-x+y,-z
x,y,1/2-z
x-y,x,-z
-y,x-y,1/2-z
loop_
_atom_site_type_symbol
_atom_site_label
_atom_site_fract_x
_atom_site_fract_y
_atom_site_fract_z
Si Si1 0.121153 0.453708 0.058173
Si Si2 0.662825 0.410075 0.750000
Si Si3 0.766154 0.716944 0.937811
Si Si4 0.830842 0.396166 0.434666
Si Si5 0.198705 0.890577 0.057783
Si Si6 0.411245 0.041407 0.434938
O O1 0.140310 0.467921 0.250000
O O2 0.132413 0.388529 0.988851
O O3 0.038825 0.432000 0.022885
O O4 0.168073 0.528244 0.959317
O O5 0.592640 0.329149 0.750000
O O6 0.661172 0.446860 0.578393
O O7 0.780349 0.740607 0.750000
O O8 0.837861 0.719436 0.015575
O O9 0.749030 0.774377 0.025269
O O10 0.700037 0.634839 0.951256
O O11 0.800170 0.367200 0.250000
O O12 0.909796 0.406405 0.457398
O O13 0.195150 0.877673 0.250000
O O14 0.386069 0.044400 0.250000
#
# Coordination Sequence:
#
# PCOD8325552 Si02
#       6
#    12   6  12  12  12  12
#     4   9  17  34  56  82 122 154 182 232 296 349
#     4  10  26  46  58  74 106 152 196 248 298 338
#     4  10  20  34  57  86 114 153 194 232 286 349
#     4  11  22  38  62  87 111 151 200 244 301 356
#     4   9  20  37  55  83 120 152 188 238 287 342
#     4   9  20  35  54  86 121 149 185 239 290 344
#
# _framework density 20.504799999999999
#
# number of rings (size 3 to 8) (size 9 to 14) (size 15 to 20)
#    0.182    2.182    0.909    2.182    1.273    6.545 
#    0.000    1.818    0.000    0.364    0.000    0.000 
#    0.000    0.000    0.000    0.000    0.000    0.000 
#
# Total GULP energy -817789.067423 kJ/mol
# GULP energy per Si atom -12390.743446 kJ/mol
# Density = 2.045813 g / cm^3
# Si number density = 20.504800 Si / 1000 Ang^3
#
#
#
# Elastic Constant Matrix: (Units=GPa)
#
#
# Indices 1 2 3 4 5 6 
#
# 1 57.4566 5.4719 2.7087 0.0000 0.0000 0.0000
# 2 5.4719 57.4566 2.7087 0.0000 0.0000 0.0000
# 3 2.7087 2.7087 71.3174 0.0000 0.0000 0.0000
# 4 0.0000 0.0000 0.0000 24.4211 0.0000 0.0000
# 5 0.0000 0.0000 0.0000 0.0000 24.4211 0.0000
# 6 0.0000 0.0000 0.0000 0.0000 0.0000 25.9924
#
#
#
# Elastic Compliance Matrix: (Units=1/GPa)
#
#
# Indices 1 2 3 4 5 6 
#
# 1 0.017590 -0.001647 -0.000606 0.000000 0.000000 0.000000
# 2 -0.001647 0.017590 -0.000606 0.000000 0.000000 0.000000
# 3 -0.000606 -0.000606 0.014068 0.000000 0.000000 0.000000
# 4 0.000000 0.000000 0.000000 0.040948 0.000000 0.000000
# 5 0.000000 0.000000 0.000000 0.000000 0.040948 0.000000
# 6 0.000000 0.000000 0.000000 0.000000 0.000000 0.038473
#
#
# Mechanical properties :
#
#
# Convention : Reuss Voigt Hill
#
# Bulk Modulus (GPa) = 22.97160 23.11215 23.04187
# Shear Modulus (GPa) = 26.33759 26.65633 26.49696
#
# Velocity S-wave (km/s) = 3.58782 3.60947 3.59866
# Velocity P-wave (km/s) = 5.32829 5.35416 5.34124
#
# Compressibility (1/GPa) = 0.04353201
#
# Stress axis : x y z
#
# Youngs Moduli (GPa) = 56.85112 56.85112 71.08419
#
# Poissons Ratio (x) = 0.09361 0.04304
# Poissons Ratio (y) = 0.09361 0.04304
# Poissons Ratio (z) = 0.03443 0.03443
#
# Static dielectric constant tensor:
#      x y z
#    x 3.705480 0.000000 0.000000 
#    y 0.000000 3.705480 0.000000 
#    z 0.000000 0.000000 3.642990 
# 
# 
# High freq. dielectric constant tensor:
#      x y z
#    x 1.788220 0.000000 0.000000 
#    y 0.000000 1.788220 0.000000 
#    z 0.000000 0.000000 1.793170 
# 
# From -- ./inp_files/1012.got.cif
#   From: 2010.06.25/outbox.cif.g09.slc.cpg/sg176_1_cif.got.tgz:1012.got - 2010.06.28 12:15:01.
