data_PCOD8325153
_publ_section_title
;
Structure prediction by ZEFSAII (Michael W. Deem and Ramdas Pophale) SiO2 
 PCOD8325153
Probable space group: P 6/M
;
_chemical_formula_sum "Si O2"
_cell_formula_units_Z 72
_cell_length_a 22.669494
_cell_length_b 22.669494
_cell_length_c 8.592551
_cell_angle_alpha 90.000000
_cell_angle_beta 90.000000
_cell_angle_gamma 120.000000
_cell_volume 3824.163069
_symmetry_space_group_name_H-M "P 6/M"
_symmetry_group_IT_number 175
_symmetry_cell_setting 'hexagonal'
loop_
_space_group_symop_operation_xyz
x,y,z
x-y,x,z
-y,x-y,z
-x,-y,z
-x+y,-x,z
y,-x+y,z
-x,-y,-z
-x+y,-x,-z
y,-x+y,-z
x,y,-z
x-y,x,-z
-y,x-y,-z
loop_
_atom_site_type_symbol
_atom_site_label
_atom_site_fract_x
_atom_site_fract_y
_atom_site_fract_z
Si Si1 0.011203 0.265051 0.179925
Si Si2 0.125714 0.980363 0.320183
Si Si3 0.594733 0.082725 0.818740
Si Si4 0.597913 0.535292 0.680082
Si Si5 0.869753 0.602581 0.318018
Si Si6 0.630305 0.878489 0.318628
O O1 0.932879 0.236688 0.224999
O O2 0.030457 0.207346 0.212774
O O3 0.058384 0.330921 0.282383
O O4 0.023496 0.285810 0.000000
O O5 0.144154 0.977801 0.500000
O O6 0.050658 0.921312 0.279126
O O7 0.543972 0.101814 0.728724
O O8 0.671961 0.134634 0.767453
O O9 0.576389 0.005842 0.780146
O O10 0.586175 0.089809 0.000000
O O11 0.584395 0.542992 0.500000
O O12 0.677550 0.565794 0.713967
O O13 0.864058 0.588142 0.500000
O O14 0.807424 0.611467 0.257434
O O15 0.649966 0.886589 0.500000
#
# Coordination Sequence:
#
# PCOD8325153 Si02
#       6
#    12  12  12  12  12  12
#     4  12  24  36  53  80 113 146 181 228 288 345
#     4  10  21  38  58  76  97 133 184 236 283 336
#     4  11  21  34  55  86 117 147 180 225 281 333
#     4  10  19  35  59  84 111 147 186 230 276 327
#     4  11  22  38  58  82 113 151 193 234 276 329
#     4  10  22  38  59  83 111 149 192 234 277 326
#
# _framework density 18.827649000000001
#
# number of rings (size 3 to 8) (size 9 to 14) (size 15 to 20)
#    0.000    1.333    1.667    6.167    0.000    7.333 
#    0.000    0.000    0.000    1.667    0.000    2.333 
#    0.000    0.000    0.000    0.000    0.000    0.000 
#
# Total GULP energy -893208.886268 kJ/mol
# GULP energy per Si atom -12405.678976 kJ/mol
# Density = 1.878480 g / cm^3
# Si number density = 18.827649 Si / 1000 Ang^3
#
#
#
# Elastic Constant Matrix: (Units=GPa)
#
#
# Indices 1 2 3 4 5 6 
#
# 1 74.2468 12.9904 11.1874 0.0000 0.0000 0.0000
# 2 12.9904 74.2468 11.1874 0.0000 0.0000 0.0000
# 3 11.1874 11.1874 57.2592 0.0000 0.0000 0.0000
# 4 0.0000 0.0000 0.0000 11.3447 0.0000 0.0000
# 5 0.0000 0.0000 0.0000 0.0000 11.3447 0.0000
# 6 0.0000 0.0000 0.0000 0.0000 0.0000 30.6282
#
#
#
# Elastic Compliance Matrix: (Units=1/GPa)
#
#
# Indices 1 2 3 4 5 6 
#
# 1 0.014196 -0.002129 -0.002358 0.000000 0.000000 0.000000
# 2 -0.002129 0.014196 -0.002358 0.000000 0.000000 0.000000
# 3 -0.002358 -0.002358 0.018386 0.000000 0.000000 0.000000
# 4 0.000000 0.000000 0.000000 0.088147 0.000000 0.000000
# 5 0.000000 0.000000 0.000000 0.000000 0.088147 0.000000
# 6 0.000000 0.000000 0.000000 0.000000 0.000000 0.032650
#
#
# Mechanical properties :
#
#
# Convention : Reuss Voigt Hill
#
# Bulk Modulus (GPa) = 30.22058 30.72033 30.47046
# Shear Modulus (GPa) = 17.82914 22.02271 19.92593
#
# Velocity S-wave (km/s) = 3.08062 3.42380 3.25673
# Velocity P-wave (km/s) = 5.36094 5.65525 5.51006
#
# Compressibility (1/GPa) = 0.03309003
#
# Stress axis : x y z
#
# Youngs Moduli (GPa) = 70.44100 70.44100 54.38983
#
# Poissons Ratio (x) = 0.14994 0.12824
# Poissons Ratio (y) = 0.14994 0.12824
# Poissons Ratio (z) = 0.16609 0.16609
#
# Static dielectric constant tensor:
#      x y z
#    x 3.532530 0.000000 0.000000 
#    y 0.000000 3.532530 0.000000 
#    z 0.000000 0.000000 3.408690 
# 
# 
# High freq. dielectric constant tensor:
#      x y z
#    x 1.725050 0.000000 0.000000 
#    y 0.000000 1.725050 0.000000 
#    z 0.000000 0.000000 1.732800 
# 
# From -- ./inp_files/1202.got.cif
#   From: 2010.03.12/outbox.cif.g09.slc.cpg/sg175_1_cif.got.tgz:1202.got - 2010.04.02 06:55:29.
