data_PCOD8325110
_publ_section_title
;
Structure prediction by ZEFSAII (Michael W. Deem and Ramdas Pophale) SiO2 
 PCOD8325110
Probable space group: P 6/M
;
_chemical_formula_sum "Si O2"
_cell_formula_units_Z 78
_cell_length_a 17.348695
_cell_length_b 17.348695
_cell_length_c 17.778586
_cell_angle_alpha 90.000000
_cell_angle_beta 90.000000
_cell_angle_gamma 120.000000
_cell_volume 4634.058078
_symmetry_space_group_name_H-M "P 6/M"
_symmetry_group_IT_number 175
_symmetry_cell_setting 'hexagonal'
loop_
_space_group_symop_operation_xyz
x,y,z
x-y,x,z
-y,x-y,z
-x,-y,z
-x+y,-x,z
y,-x+y,z
-x,-y,-z
-x+y,-x,-z
y,-x+y,-z
x,y,-z
x-y,x,-z
-y,x-y,-z
loop_
_atom_site_type_symbol
_atom_site_label
_atom_site_fract_x
_atom_site_fract_y
_atom_site_fract_z
Si Si1 0.206062 0.103038 0.500000
Si Si2 0.386349 0.281938 0.000000
Si Si3 0.105490 0.210995 0.663042
Si Si4 0.201606 0.100815 0.910248
Si Si5 0.613658 0.895600 0.000000
Si Si6 0.177353 0.354714 0.792200
Si Si7 0.364288 0.467162 0.154597
Si Si8 0.532825 0.635709 0.154596
O O1 0.141345 0.141351 0.500000
O O2 0.258863 0.129440 0.579797
O O3 0.349856 0.174925 0.000000
O O4 0.301512 0.301507 0.000000
O O5 0.449932 0.327297 0.929776
O O6 0.149931 0.149938 0.675150
O O7 0.145196 0.290413 0.721805
O O8 0.149380 0.149392 0.880566
O O9 0.299049 0.149541 0.870994
O O10 0.207691 0.103859 0.000000
O O11 0.550076 0.877377 0.929776
O O12 0.283075 0.420498 0.787349
O O13 0.137444 0.420523 0.787347
O O14 0.425868 0.574121 0.167268
O O15 0.424831 0.424826 0.169192
#
# Coordination Sequence:
#
# PCOD8325110 Si02
#       8
#     6   6  12  12   6  12  12  12
#     4   8  15  28  48  76 114 154 186 214 242 278
#     4  10  19  35  55  74  95 127 172 215 261 313
#     4  10  19  32  52  82 118 154 186 212 242 286
#     4  10  21  34  48  68 100 142 182 214 244 287
#     4  10  19  35  55  74  95 127 172 215 261 313
#     4  12  22  34  51  74  98 130 172 216 265 315
#     4  10  21  36  51  68  91 122 164 215 268 316
#     4  10  21  36  51  68  91 122 164 215 268 316
#
# _framework density 16.831900000000001
#
# number of rings (size 3 to 8) (size 9 to 14) (size 15 to 20)
#    0.000    1.846    1.538    3.615    2.154    3.692 
#    0.923    1.538    0.000    0.154    0.000    1.077 
#    0.000    6.154    0.000    0.000    0.000    0.000 
#
# Total GULP energy -966369.541919 kJ/mol
# GULP energy per Si atom -12389.353102 kJ/mol
# Density = 1.679359 g / cm^3
# Si number density = 16.831900 Si / 1000 Ang^3
#
#
#
# Elastic Constant Matrix: (Units=GPa)
#
#
# Indices 1 2 3 4 5 6 
#
# 1 119.4666 54.8817 41.7198 0.0000 0.0000 0.0000
# 2 54.8817 119.4666 41.7198 0.0000 0.0000 0.0000
# 3 41.7198 41.7198 100.5577 0.0000 0.0000 0.0000
# 4 0.0000 0.0000 0.0000 16.4120 0.0000 0.0000
# 5 0.0000 0.0000 0.0000 0.0000 16.4120 0.0000
# 6 0.0000 0.0000 0.0000 0.0000 0.0000 32.2925
#
#
#
# Elastic Compliance Matrix: (Units=1/GPa)
#
#
# Indices 1 2 3 4 5 6 
#
# 1 0.011320 -0.004163 -0.002969 0.000000 0.000000 0.000000
# 2 -0.004163 0.011320 -0.002969 0.000000 0.000000 0.000000
# 3 -0.002969 -0.002969 0.012408 0.000000 0.000000 0.000000
# 4 0.000000 0.000000 0.000000 0.060931 0.000000 0.000000
# 5 0.000000 0.000000 0.000000 0.000000 0.060931 0.000000
# 6 0.000000 0.000000 0.000000 0.000000 0.000000 0.030967
#
#
# Mechanical properties :
#
#
# Convention : Reuss Voigt Hill
#
# Bulk Modulus (GPa) = 67.36345 68.45924 67.91134
# Shear Modulus (GPa) = 23.47092 26.43458 24.95275
#
# Velocity S-wave (km/s) = 3.73826 3.96726 3.85446
# Velocity P-wave (km/s) = 7.66426 7.85787 7.76167
#
# Compressibility (1/GPa) = 0.01484484
#
# Stress axis : x y z
#
# Youngs Moduli (GPa) = 88.33873 88.33873 80.59145
#
# Poissons Ratio (x) = 0.36779 0.23929
# Poissons Ratio (y) = 0.36779 0.23929
# Poissons Ratio (z) = 0.26229 0.26229
#
# Static dielectric constant tensor:
#      x y z
#    x 3.391290 0.000000 0.000000 
#    y 0.000000 3.391290 0.000000 
#    z 0.000000 0.000000 3.191420 
# 
# 
# High freq. dielectric constant tensor:
#      x y z
#    x 1.646200 0.000000 0.000000 
#    y 0.000000 1.646200 0.000000 
#    z 0.000000 0.000000 1.611220 
# 
# From -- ./inp_files/2977.got.cif
#   From: 2010.03.12/outbox.cif.g09.slc.cpg/sg175_2_cif.got.tgz:2977.got - 2010.04.02 06:55:29.
