data_PCOD8325459
_publ_section_title
;
Structure prediction by ZEFSAII (Michael W. Deem and Ramdas Pophale) SiO2 
 PCOD8325459
Probable space group: P 63/M
;
_chemical_formula_sum "Si O2"
_cell_formula_units_Z 76
_cell_length_a 19.972631
_cell_length_b 19.972631
_cell_length_c 15.529093
_cell_angle_alpha 90.000000
_cell_angle_beta 90.000000
_cell_angle_gamma 120.000000
_cell_volume 5364.722711
_symmetry_space_group_name_H-M "P 63/M"
_symmetry_group_IT_number 176
_symmetry_cell_setting 'hexagonal'
loop_
_space_group_symop_operation_xyz
x,y,z
x-y,x,1/2+z
-y,x-y,z
-x,-y,1/2+z
-x+y,-x,z
y,-x+y,1/2+z
-x,-y,-z
-x+y,-x,1/2-z
y,-x+y,-z
x,y,1/2-z
x-y,x,-z
-y,x-y,1/2-z
loop_
_atom_site_type_symbol
_atom_site_label
_atom_site_fract_x
_atom_site_fract_y
_atom_site_fract_z
Si Si1 0.158744 0.158446 0.750000
Si Si2 0.333334 0.666667 0.853213
Si Si3 0.287727 0.420652 0.649693
Si Si4 0.951196 0.744689 0.085451
Si Si5 0.158745 0.000300 0.750000
Si Si6 0.132922 0.420651 0.649693
Si Si7 0.419117 0.580884 0.852103
Si Si8 0.793494 0.744688 0.414549
O O1 0.149480 0.074740 0.750000
O O2 0.206866 0.205309 0.833673
O O3 0.074262 0.148525 0.750000
O O4 0.333334 0.666668 0.750000
O O5 0.376338 0.623670 0.891394
O O6 0.288163 0.402110 0.750000
O O7 0.221779 0.443560 0.632473
O O8 0.371503 0.490949 0.618839
O O9 0.271287 0.344888 0.597306
O O10 0.001559 0.794692 0.166327
O O11 0.926401 0.655113 0.097305
O O12 0.876639 0.753277 0.076540
O O13 0.000001 0.776293 1.000000
O O14 0.113944 0.402107 0.750000
O O15 0.119441 0.490947 0.618840
O O16 0.415526 0.584475 0.750000
#
# Coordination Sequence:
#
# PCOD8325459 Si02
#       8
#     6   4  12  12   6  12  12  12
#     4  10  19  32  48  65  82 102 134 176 218 255
#     4   9  12  18  30  63  87 111 138 169 194 250
#     4   9  15  25  40  60  86 113 140 169 203 244
#     4  10  19  31  45  62  84 111 141 172 208 251
#     4  10  19  32  48  65  82 102 134 176 218 255
#     4   9  15  25  40  60  86 113 140 169 203 244
#     4   9  14  20  37  61  89 112 139 171 204 240
#     4  10  19  31  45  62  84 111 141 172 208 251
#
# _framework density 14.166622
#
# number of rings (size 3 to 8) (size 9 to 14) (size 15 to 20)
#    0.000    2.526    3.158    1.105    0.000    0.000 
#    0.000    0.789    0.000    5.053    0.000    0.000 
#    0.000    0.000    0.000    0.000    0.000    0.000 
#
# Total GULP energy -941992.646597 kJ/mol
# GULP energy per Si atom -12394.640087 kJ/mol
# Density = 1.413438 g / cm^3
# Si number density = 14.166622 Si / 1000 Ang^3
#
#
#
# Elastic Constant Matrix: (Units=GPa)
#
#
# Indices 1 2 3 4 5 6 
#
# 1 63.5085 31.5654 35.9052 0.0000 0.0000 -0.0001
# 2 31.5654 63.5088 35.9052 0.0000 0.0000 -0.0001
# 3 35.9052 35.9052 78.0977 0.0000 0.0000 0.0000
# 4 0.0000 0.0000 0.0000 15.0444 0.0000 0.0000
# 5 0.0000 0.0000 0.0000 0.0000 15.0444 0.0000
# 6 -0.0001 -0.0001 0.0000 0.0000 0.0000 15.9716
#
#
#
# Elastic Compliance Matrix: (Units=1/GPa)
#
#
# Indices 1 2 3 4 5 6 
#
# 1 0.023710 -0.007596 -0.007408 0.000000 0.000000 0.000000
# 2 -0.007596 0.023709 -0.007408 0.000000 0.000000 0.000000
# 3 -0.007408 -0.007408 0.019616 0.000000 0.000000 0.000000
# 4 0.000000 0.000000 0.000000 0.066470 0.000000 0.000000
# 5 0.000000 0.000000 0.000000 0.000000 0.066470 0.000000
# 6 0.000000 0.000000 0.000000 0.000000 0.000000 0.062611
#
#
# Mechanical properties :
#
#
# Convention : Reuss Voigt Hill
#
# Bulk Modulus (GPa) = 45.02329 45.76294 45.39311
# Shear Modulus (GPa) = 15.88239 15.99471 15.93855
#
# Velocity S-wave (km/s) = 3.35194 3.36377 3.35786
# Velocity P-wave (km/s) = 6.84331 6.88913 6.86626
#
# Compressibility (1/GPa) = 0.02221073
#
# Stress axis : x y z
#
# Youngs Moduli (GPa) = 42.17701 42.17722 50.97816
#
# Poissons Ratio (x) = 0.32038 0.37766
# Poissons Ratio (y) = 0.32037 0.37765
# Poissons Ratio (z) = 0.31246 0.31245
#
# Static dielectric constant tensor:
#      x y z
#    x 2.780030 0.000000 0.000000 
#    y 0.000000 2.780030 0.000000 
#    z 0.000000 0.000000 2.562540 
# 
# 
# High freq. dielectric constant tensor:
#      x y z
#    x 1.536460 0.000000 0.000000 
#    y 0.000000 1.536460 0.000000 
#    z 0.000000 0.000000 1.505520 
# 
# From -- ./inp_files/2895.got.cif
#   From: 2010.06.25/outbox.cif.g09.slc.cpg/sg176_2_cif.got.tgz:2895.got - 2010.06.28 12:15:01.
