data_PCOD8325507
_publ_section_title
;
Structure prediction by ZEFSAII (Michael W. Deem and Ramdas Pophale) SiO2 
 PCOD8325507
Probable space group: P 63/M
;
_chemical_formula_sum "Si O2"
_cell_formula_units_Z 52
_cell_length_a 14.481581
_cell_length_b 14.481581
_cell_length_c 14.714759
_cell_angle_alpha 90.000000
_cell_angle_beta 90.000000
_cell_angle_gamma 120.000000
_cell_volume 2672.487858
_symmetry_space_group_name_H-M "P 63/M"
_symmetry_group_IT_number 176
_symmetry_cell_setting 'hexagonal'
loop_
_space_group_symop_operation_xyz
x,y,z
x-y,x,1/2+z
-y,x-y,z
-x,-y,1/2+z
-x+y,-x,z
y,-x+y,1/2+z
-x,-y,-z
-x+y,-x,1/2-z
y,-x+y,-z
x,y,1/2-z
x-y,x,-z
-y,x-y,1/2-z
loop_
_atom_site_type_symbol
_atom_site_label
_atom_site_fract_x
_atom_site_fract_y
_atom_site_fract_z
Si Si1 0.424552 0.905133 0.934748
Si Si2 0.237545 0.133002 0.354378
Si Si3 0.185959 0.749658 0.970229
Si Si4 0.315735 0.372544 0.349029
Si Si5 0.000000 0.000000 0.857667
O O1 0.311422 0.826974 0.981530
O O2 0.483209 0.838243 0.910864
O O3 0.402884 0.962333 0.849947
O O4 0.500000 0.000000 0.000000
O O5 0.255831 0.109793 0.250000
O O6 0.323337 0.126503 0.419063
O O7 0.243264 0.246182 0.361002
O O8 0.121043 0.046329 0.391826
O O9 0.143517 0.714678 0.072505
O O10 0.294561 0.407322 0.250000
O O11 0.000000 0.000000 0.750000
#
# Coordination Sequence:
#
# PCOD8325507 Si02
#       5
#    12  12  12  12   4
#     4   9  19  34  54  79 108 141 183 231 272 320
#     4   9  19  34  53  78 108 140 178 221 268 323
#     4  10  19  35  56  79 108 146 184 225 275 324
#     4   9  19  36  54  76 107 141 179 226 275 327
#     4   9  18  33  52  80 113 140 172 219 268 326
#
# _framework density 19.457526000000001
#
# number of rings (size 3 to 8) (size 9 to 14) (size 15 to 20)
#    0.000    2.769    0.000    0.462    0.000    6.462 
#    0.000    5.769    0.000    2.769    0.000    0.000 
#    0.000    0.000    0.000    0.000    0.000    0.000 
#
# Total GULP energy -644418.954171 kJ/mol
# GULP energy per Si atom -12392.672196 kJ/mol
# Density = 1.941324 g / cm^3
# Si number density = 19.457526 Si / 1000 Ang^3
#
#
#
# Elastic Constant Matrix: (Units=GPa)
#
#
# Indices 1 2 3 4 5 6 
#
# 1 127.3286 60.7313 40.6348 0.0000 0.0000 0.0000
# 2 60.7313 127.3286 40.6348 0.0000 0.0000 0.0000
# 3 40.6348 40.6348 77.9768 0.0000 0.0000 0.0000
# 4 0.0000 0.0000 0.0000 17.0903 0.0000 0.0000
# 5 0.0000 0.0000 0.0000 0.0000 17.0903 0.0000
# 6 0.0000 0.0000 0.0000 0.0000 0.0000 33.2987
#
#
#
# Elastic Compliance Matrix: (Units=1/GPa)
#
#
# Indices 1 2 3 4 5 6 
#
# 1 0.010939 -0.004076 -0.003576 0.000000 0.000000 0.000000
# 2 -0.004076 0.010939 -0.003576 0.000000 0.000000 0.000000
# 3 -0.003576 -0.003576 0.016552 0.000000 0.000000 0.000000
# 4 0.000000 0.000000 0.000000 0.058513 0.000000 0.000000
# 5 0.000000 0.000000 0.000000 0.000000 0.058513 0.000000
# 6 0.000000 0.000000 0.000000 0.000000 0.000000 0.030031
#
#
# Mechanical properties :
#
#
# Convention : Reuss Voigt Hill
#
# Bulk Modulus (GPa) = 62.60907 68.51510 65.56208
# Shear Modulus (GPa) = 23.44449 26.20470 24.82459
#
# Velocity S-wave (km/s) = 3.47494 3.67381 3.57576
# Velocity P-wave (km/s) = 6.95323 7.29965 7.12855
#
# Compressibility (1/GPa) = 0.01597213
#
# Stress axis : x y z
#
# Youngs Moduli (GPa) = 91.41346 91.41346 60.41649
#
# Poissons Ratio (x) = 0.37263 0.21607
# Poissons Ratio (y) = 0.37263 0.21607
# Poissons Ratio (z) = 0.32693 0.32693
#
# Static dielectric constant tensor:
#      x y z
#    x 3.812050 0.000000 0.000000 
#    y 0.000000 3.812050 0.000000 
#    z 0.000000 0.000000 3.419850 
# 
# 
# High freq. dielectric constant tensor:
#      x y z
#    x 1.760120 0.000000 0.000000 
#    y 0.000000 1.760120 0.000000 
#    z 0.000000 0.000000 1.737290 
# 
# From -- ./inp_files/2554.got.cif
#   From: 2010.06.25/outbox.cif.g09.slc.cpg/sg176_2_cif.got.tgz:2554.got - 2010.06.28 12:15:01.
