data_PCOD8325397
_publ_section_title
;
Structure prediction by ZEFSAII (Michael W. Deem and Ramdas Pophale) SiO2 
 PCOD8325397
Probable space group: P 6/M
;
_chemical_formula_sum "Si O2"
_cell_formula_units_Z 42
_cell_length_a 12.000000
_cell_length_b 12.000000
_cell_length_c 18.000000
_cell_angle_alpha 90.000000
_cell_angle_beta 90.000000
_cell_angle_gamma 120.000000
_cell_volume 2244.737847
_symmetry_space_group_name_H-M "P 6/M"
_symmetry_group_IT_number 175
_symmetry_cell_setting 'hexagonal'
loop_
_space_group_symop_operation_xyz
x,y,z
x-y,x,z
-y,x-y,z
-x,-y,z
-x+y,-x,z
y,-x+y,z
-x,-y,-z
-x+y,-x,-z
y,-x+y,-z
x,y,-z
x-y,x,-z
-y,x-y,-z
loop_
_atom_site_type_symbol
_atom_site_label
_atom_site_fract_x
_atom_site_fract_y
_atom_site_fract_z
Si Si1 0.499930 0.249965 0.782168
Si Si2 0.844735 0.155265 0.641587
Si Si3 0.848931 0.151069 0.914044
Si Si4 0.501147 0.750573 0.500000
O O1 0.593665 0.187330 0.777240
O O2 0.395875 0.197938 0.716190
O O3 0.426824 0.213412 0.861098
O O4 0.795980 0.204020 0.572138
O O5 1.000000 0.220064 0.639223
O O6 1.000000 0.215641 0.896750
O O7 0.825702 0.174298 0.000000
O O8 0.406214 0.812429 0.500000
#
# Coordination Sequence:
#
# PCOD8325397 Si02
#       4
#    12  12  12   6
#     4  10  24  42  59  90 121 160 205 250 305 360
#     4  12  25  42  66  93 125 161 201 253 305 357
#     4  10  21  38  62  90 121 158 200 250 304 362
#     4  10  24  44  64 100 122 164 206 242 294 356
#
# _framework density 18.710425000000001
#
# number of rings (size 3 to 8) (size 9 to 14) (size 15 to 20)
#    0.857    0.571    0.000    4.857    0.000   11.429 
#    0.000    7.143    0.000    0.000    0.000    0.000 
#    0.000    0.000    0.000    0.000    0.000    0.000 
#
# Total GULP energy -520597.259528 kJ/mol
# GULP energy per Si atom -12395.172846 kJ/mol
# Density = 1.866784 g / cm^3
# Si number density = 18.710425 Si / 1000 Ang^3
#
#
#
# Elastic Constant Matrix: (Units=GPa)
#
#
# Indices 1 2 3 4 5 6 
#
# 1 172.7896 71.9335 75.0157 0.0000 0.0000 0.0000
# 2 71.9335 172.7896 75.0157 0.0000 0.0000 0.0000
# 3 75.0157 75.0157 159.0781 0.0000 0.0000 0.0000
# 4 0.0000 0.0000 0.0000 42.3134 0.0000 0.0000
# 5 0.0000 0.0000 0.0000 0.0000 42.3134 0.0000
# 6 0.0000 0.0000 0.0000 0.0000 0.0000 50.4281
#
#
#
# Elastic Compliance Matrix: (Units=1/GPa)
#
#
# Indices 1 2 3 4 5 6 
#
# 1 0.007832 -0.002084 -0.002711 0.000000 0.000000 0.000000
# 2 -0.002084 0.007832 -0.002711 0.000000 0.000000 0.000000
# 3 -0.002711 -0.002711 0.008843 0.000000 0.000000 0.000000
# 4 0.000000 0.000000 0.000000 0.023633 0.000000 0.000000
# 5 0.000000 0.000000 0.000000 0.000000 0.023633 0.000000
# 6 0.000000 0.000000 0.000000 0.000000 0.000000 0.019830
#
#
# Mechanical properties :
#
#
# Convention : Reuss Voigt Hill
#
# Bulk Modulus (GPa) = 105.30302 105.39855 105.35078
# Shear Modulus (GPa) = 45.54682 45.85713 45.70198
#
# Velocity S-wave (km/s) = 4.93922 4.95601 4.94762
# Velocity P-wave (km/s) = 9.43029 9.44474 9.43752
#
# Compressibility (1/GPa) = 0.00949640
#
# Stress axis : x y z
#
# Youngs Moduli (GPa) = 127.68854 127.68854 113.08851
#
# Poissons Ratio (x) = 0.26605 0.30653
# Poissons Ratio (y) = 0.26605 0.30653
# Poissons Ratio (z) = 0.34611 0.34611
#
# Static dielectric constant tensor:
#      x y z
#    x 3.739930 0.000000 0.000000 
#    y 0.000000 3.739930 0.000000 
#    z 0.000000 0.000000 3.789440 
# 
# 
# High freq. dielectric constant tensor:
#      x y z
#    x 1.750910 0.000000 0.000000 
#    y 0.000000 1.750910 0.000000 
#    z 0.000000 0.000000 1.760410 
# 
# From -- ./inp_files/2765.got.cif
#   From: 2010.03.12/outbox.ucp.g09.slc.cvg/sg175_2_cif.got.tgz:2765.got - 2010.05.04 20:42:25.
