data_PCOD8325573
_publ_section_title
;
Structure prediction by ZEFSAII (Michael W. Deem and Ramdas Pophale) SiO2 
 PCOD8325573
Probable space group: P 63/M
;
_chemical_formula_sum "Si O2"
_cell_formula_units_Z 44
_cell_length_a 12.737934
_cell_length_b 12.737934
_cell_length_c 15.444843
_cell_angle_alpha 90.000000
_cell_angle_beta 90.000000
_cell_angle_gamma 120.000000
_cell_volume 2170.261760
_symmetry_space_group_name_H-M "P 63/M"
_symmetry_group_IT_number 176
_symmetry_cell_setting 'hexagonal'
loop_
_space_group_symop_operation_xyz
x,y,z
x-y,x,1/2+z
-y,x-y,z
-x,-y,1/2+z
-x+y,-x,z
y,-x+y,1/2+z
-x,-y,-z
-x+y,-x,1/2-z
y,-x+y,-z
x,y,1/2-z
x-y,x,-z
-y,x-y,1/2-z
loop_
_atom_site_type_symbol
_atom_site_label
_atom_site_fract_x
_atom_site_fract_y
_atom_site_fract_z
Si Si1 0.580128 0.516918 0.414722
Si Si2 0.333335 0.666668 0.855903
Si Si3 0.333334 0.666668 0.146324
Si Si4 0.440431 0.097833 0.654250
Si Si5 0.964312 0.226687 0.996265
O O1 0.500000 0.500000 0.500000
O O2 0.616950 0.415891 0.396448
O O3 0.489675 0.506430 0.337848
O O4 0.701428 0.648045 0.423188
O O5 0.333334 0.666668 0.750000
O O6 0.333334 0.666668 0.250000
O O7 0.309036 0.536850 0.112229
O O8 0.400647 0.113065 0.750000
O O9 0.322328 0.035411 0.595134
O O10 0.089380 0.229722 0.004680
#
# Coordination Sequence:
#
# PCOD8325573 Si02
#       5
#    12   4   4  12  12
#     4  10  21  36  58  87 121 157 197 247 309 373
#     4  12  24  40  62  94 127 161 208 267 321 376
#     4   9  18  31  53  82 114 147 187 239 295 346
#     4  10  20  37  59  88 119 152 194 244 296 358
#     4  11  23  40  60  83 116 159 202 245 296 357
#
# _framework density 20.274052999999999
#
# number of rings (size 3 to 8) (size 9 to 14) (size 15 to 20)
#    0.000    1.636    0.000    6.000    0.000    6.545 
#    0.000    4.091    0.000    0.000    0.000    0.000 
#    0.000    0.000    0.000    0.000    0.000    0.000 
#
# Total GULP energy -545263.415251 kJ/mol
# GULP energy per Si atom -12392.350347 kJ/mol
# Density = 2.022791 g / cm^3
# Si number density = 20.274053 Si / 1000 Ang^3
#
#
#
# Elastic Constant Matrix: (Units=GPa)
#
#
# Indices 1 2 3 4 5 6 
#
# 1 141.2435 49.6359 39.1997 0.0000 0.0000 -0.0006
# 2 49.6359 141.2424 39.2002 0.0000 0.0000 0.0003
# 3 39.1997 39.2002 85.1742 0.0000 0.0000 0.0001
# 4 0.0000 0.0000 0.0000 24.0675 0.0001 0.0000
# 5 0.0000 0.0000 0.0000 0.0001 24.0675 0.0000
# 6 -0.0006 0.0003 0.0001 0.0000 0.0000 45.8033
#
#
#
# Elastic Compliance Matrix: (Units=1/GPa)
#
#
# Indices 1 2 3 4 5 6 
#
# 1 0.008688 -0.002228 -0.002973 0.000000 0.000000 0.000000
# 2 -0.002228 0.008688 -0.002973 0.000000 0.000000 0.000000
# 3 -0.002973 -0.002973 0.014477 0.000000 0.000000 0.000000
# 4 0.000000 0.000000 0.000000 0.041550 0.000000 0.000000
# 5 0.000000 0.000000 0.000000 0.000000 0.041550 0.000000
# 6 0.000000 0.000000 0.000000 0.000000 0.000000 0.021833
#
#
# Mechanical properties :
#
#
# Convention : Reuss Voigt Hill
#
# Bulk Modulus (GPa) = 64.49565 69.30353 66.89959
# Shear Modulus (GPa) = 31.58505 34.76260 33.17383
#
# Velocity S-wave (km/s) = 3.95131 4.14531 4.04947
# Velocity P-wave (km/s) = 7.25935 7.56102 7.41172
#
# Compressibility (1/GPa) = 0.01550492
#
# Stress axis : x y z
#
# Youngs Moduli (GPa) = 115.10016 115.09871 69.07355
#
# Poissons Ratio (x) = 0.25645 0.20536
# Poissons Ratio (y) = 0.25645 0.20537
# Poissons Ratio (z) = 0.34220 0.34221
#
# Static dielectric constant tensor:
#      x y z
#    x 3.879500 -0.000010 0.000000 
#    y -0.000010 3.879480 0.000000 
#    z 0.000000 0.000000 3.764850 
# 
# 
# High freq. dielectric constant tensor:
#      x y z
#    x 1.797770 0.000000 0.000000 
#    y 0.000000 1.797770 0.000000 
#    z 0.000000 0.000000 1.780860 
# 
# From -- ./inp_files/3183.got.cif
#   From: 2010.06.25/outbox.cif.g09.slc.cpg/sg176_2_cif.got.tgz:3183.got - 2010.06.28 12:15:01.
