data_PCOD8325570
_publ_section_title
;
Structure prediction by ZEFSAII (Michael W. Deem and Ramdas Pophale) SiO2 
 PCOD8325570
Probable space group: P 63/M
;
_chemical_formula_sum "Si O2"
_cell_formula_units_Z 76
_cell_length_a 17.984129
_cell_length_b 17.984129
_cell_length_c 13.545822
_cell_angle_alpha 90.000000
_cell_angle_beta 90.000000
_cell_angle_gamma 120.000000
_cell_volume 3794.152776
_symmetry_space_group_name_H-M "P 63/M"
_symmetry_group_IT_number 176
_symmetry_cell_setting 'hexagonal'
loop_
_space_group_symop_operation_xyz
x,y,z
x-y,x,1/2+z
-y,x-y,z
-x,-y,1/2+z
-x+y,-x,z
y,-x+y,1/2+z
-x,-y,-z
-x+y,-x,1/2-z
y,-x+y,-z
x,y,1/2-z
x-y,x,-z
-y,x-y,1/2-z
loop_
_atom_site_type_symbol
_atom_site_label
_atom_site_fract_x
_atom_site_fract_y
_atom_site_fract_z
Si Si1 0.046632 0.186824 0.485119
Si Si2 0.830889 0.662091 0.864712
Si Si3 0.419755 0.414373 0.862560
Si Si4 0.675498 0.178938 0.556949
Si Si5 0.678437 0.994047 0.450922
Si Si6 0.385355 0.889536 0.640130
Si Si7 0.333334 0.666667 0.364186
O O1 0.105650 0.153352 0.538668
O O2 0.096010 0.238901 0.386115
O O3 0.038755 0.256542 0.552512
O O4 0.830644 0.642745 0.750000
O O5 0.848137 0.595796 0.926682
O O6 0.737631 0.639818 0.900309
O O7 0.391206 0.381083 0.750000
O O8 0.504029 0.407165 0.893421
O O9 0.446950 0.512971 0.871187
O O10 0.340619 0.358652 0.937121
O O11 0.659232 0.186081 0.440668
O O12 0.699758 0.269670 0.602393
O O13 0.647212 0.044145 0.381192
O O14 0.356549 0.851156 0.750000
O O15 0.333334 0.666668 0.250000
#
# Coordination Sequence:
#
# PCOD8325570 Si02
#       7
#    12  12  12  12  12  12   4
#     4  10  21  39  63  89 125 162 197 249 313 375
#     4  11  22  38  62  87 119 157 201 255 310 365
#     4  10  20  37  63  89 120 159 203 255 308 360
#     4  11  23  40  58  87 124 158 205 255 301 366
#     4  10  20  36  61  91 123 158 203 257 305 365
#     4  10  21  39  62  88 120 161 207 255 310 362
#     4  12  27  39  58  86 124 168 204 249 313 371
#
# _framework density 20.030822000000001
#
# number of rings (size 3 to 8) (size 9 to 14) (size 15 to 20)
#    0.000    1.579    3.158    3.947    4.421    0.000 
#    0.000    5.526    0.000    0.000    0.000    0.000 
#    0.000    0.000    0.000    0.000    0.000    0.000 
#
# Total GULP energy -941879.081491 kJ/mol
# GULP energy per Si atom -12393.145809 kJ/mol
# Density = 1.998523 g / cm^3
# Si number density = 20.030822 Si / 1000 Ang^3
#
#
#
# Elastic Constant Matrix: (Units=GPa)
#
#
# Indices 1 2 3 4 5 6 
#
# 1 94.9873 33.7426 42.2125 0.0000 0.0000 -0.0002
# 2 33.7426 94.9863 42.2113 0.0000 0.0000 0.0007
# 3 42.2125 42.2113 120.9230 0.0000 0.0000 0.0006
# 4 0.0000 0.0000 0.0000 19.6722 0.0000 0.0000
# 5 0.0000 0.0000 0.0000 0.0000 19.6724 0.0000
# 6 -0.0002 0.0007 0.0006 0.0000 0.0000 30.6234
#
#
#
# Elastic Compliance Matrix: (Units=1/GPa)
#
#
# Indices 1 2 3 4 5 6 
#
# 1 0.013201 -0.003127 -0.003517 0.000000 0.000000 0.000000
# 2 -0.003127 0.013201 -0.003517 0.000000 0.000000 0.000000
# 3 -0.003517 -0.003517 0.010725 0.000000 0.000000 0.000000
# 4 0.000000 0.000000 0.000000 0.050833 0.000000 0.000000
# 5 0.000000 0.000000 0.000000 0.000000 0.050833 0.000000
# 6 0.000000 0.000000 0.000000 0.000000 0.000000 0.032655
#
#
# Mechanical properties :
#
#
# Convention : Reuss Voigt Hill
#
# Bulk Modulus (GPa) = 59.49927 60.80327 60.15127
# Shear Modulus (GPa) = 25.33291 26.84227 26.08759
#
# Velocity S-wave (km/s) = 3.56012 3.66464 3.61275
# Velocity P-wave (km/s) = 6.83137 6.95175 6.89182
#
# Compressibility (1/GPa) = 0.01680693
#
# Stress axis : x y z
#
# Youngs Moduli (GPa) = 75.74970 75.74954 93.23945
#
# Poissons Ratio (x) = 0.23685 0.32792
# Poissons Ratio (y) = 0.23685 0.32790
# Poissons Ratio (z) = 0.26641 0.26640
#
# Static dielectric constant tensor:
#      x y z
#    x 3.818060 0.000020 0.000000 
#    y 0.000020 3.817930 0.000000 
#    z 0.000000 0.000000 3.696530 
# 
# 
# High freq. dielectric constant tensor:
#      x y z
#    x 1.780740 0.000000 0.000000 
#    y 0.000000 1.780740 0.000000 
#    z 0.000000 0.000000 1.772650 
# 
# From -- ./inp_files/2885.got.cif
#   From: 2010.06.25/outbox.cif.g09.slc.cpg/sg176_2_cif.got.tgz:2885.got - 2010.06.28 12:15:01.
