data_PCOD8325234
_publ_section_title
;
Structure prediction by ZEFSAII (Michael W. Deem and Ramdas Pophale) SiO2 
 PCOD8325234
Probable space group: P 6/M
;
_chemical_formula_sum "Si O2"
_cell_formula_units_Z 76
_cell_length_a 18.039269
_cell_length_b 18.039269
_cell_length_c 13.535853
_cell_angle_alpha 90.000000
_cell_angle_beta 90.000000
_cell_angle_gamma 120.000000
_cell_volume 3814.645025
_symmetry_space_group_name_H-M "P 6/M"
_symmetry_group_IT_number 175
_symmetry_cell_setting 'hexagonal'
loop_
_space_group_symop_operation_xyz
x,y,z
x-y,x,z
-y,x-y,z
-x,-y,z
-x+y,-x,z
y,-x+y,z
-x,-y,-z
-x+y,-x,-z
y,-x+y,-z
x,y,-z
x-y,x,-z
-y,x-y,-z
loop_
_atom_site_type_symbol
_atom_site_label
_atom_site_fract_x
_atom_site_fract_y
_atom_site_fract_z
Si Si1 0.837554 0.006893 0.616644
Si Si2 0.136715 0.690352 0.769638
Si Si3 0.794350 0.519024 0.382906
Si Si4 0.703261 0.040420 0.713529
Si Si5 0.537903 0.437047 0.888756
Si Si6 0.333335 0.666667 0.615824
Si Si7 0.243757 0.853325 0.887664
O O1 0.844727 0.006825 0.500000
O O2 0.751878 0.008061 0.642795
O O3 0.921166 0.089408 0.660908
O O4 0.184024 0.732713 0.667562
O O5 0.150365 0.613842 0.809472
O O6 0.170108 0.758656 0.859129
O O7 0.036880 0.650442 0.748231
O O8 0.793018 0.531896 0.500000
O O9 0.890800 0.575866 0.342823
O O10 0.753552 0.419272 0.350977
O O11 0.762235 0.081058 0.811480
O O12 0.500000 0.500000 0.876026
O O13 0.470816 0.338169 0.868238
O O14 0.573946 0.446403 0.000000
O O15 0.333334 0.666668 0.500000
O O16 0.231112 0.873701 0.000000
#
# Coordination Sequence:
#
# PCOD8325234 Si02
#       7
#    12  12  12  12  12   4  12
#     4  10  20  36  60  88 121 157 198 250 309 374
#     4  11  23  36  63  90 121 158 207 258 310 368
#     4  10  23  40  60  86 119 162 207 255 315 373
#     4  11  22  37  57  90 123 159 200 255 310 371
#     4  10  20  38  61  85 122 162 199 252 315 373
#     4   9  21  42  60  78 112 158 205 258 306 363
#     4  10  22  39  58  86 119 156 200 248 306 369
#
# _framework density 19.923217999999999
#
# number of rings (size 3 to 8) (size 9 to 14) (size 15 to 20)
#    0.000    1.737    1.579    3.000    4.421    3.789 
#    0.947    0.000    0.000    3.316    0.000    0.000 
#    0.000    2.526    0.000    0.000    0.000    0.000 
#
# Total GULP energy -942033.625134 kJ/mol
# GULP energy per Si atom -12395.179278 kJ/mol
# Density = 1.987787 g / cm^3
# Si number density = 19.923218 Si / 1000 Ang^3
#
#
#
# Elastic Constant Matrix: (Units=GPa)
#
#
# Indices 1 2 3 4 5 6 
#
# 1 81.9143 21.8762 21.3609 0.0000 0.0000 0.0004
# 2 21.8762 81.9137 21.3609 0.0000 0.0000 -0.0002
# 3 21.3609 21.3609 94.9059 0.0000 0.0000 -0.0002
# 4 0.0000 0.0000 0.0000 24.8040 0.0000 0.0000
# 5 0.0000 0.0000 0.0000 0.0000 24.8040 0.0000
# 6 0.0004 -0.0002 -0.0002 0.0000 0.0000 30.0190
#
#
#
# Elastic Compliance Matrix: (Units=1/GPa)
#
#
# Indices 1 2 3 4 5 6 
#
# 1 0.013637 -0.003019 -0.002390 0.000000 0.000000 0.000000
# 2 -0.003019 0.013637 -0.002390 0.000000 0.000000 0.000000
# 3 -0.002390 -0.002390 0.011613 0.000000 0.000000 0.000000
# 4 0.000000 0.000000 0.000000 0.040316 0.000000 0.000000
# 5 0.000000 0.000000 0.000000 0.000000 0.040316 0.000000
# 6 0.000000 0.000000 0.000000 0.000000 0.000000 0.033312
#
#
# Mechanical properties :
#
#
# Convention : Reuss Voigt Hill
#
# Bulk Modulus (GPa) = 42.93715 43.10333 43.02024
# Shear Modulus (GPa) = 28.37806 28.86780 28.62293
#
# Velocity S-wave (km/s) = 3.77818 3.81064 3.79444
# Velocity P-wave (km/s) = 6.37424 6.40648 6.39038
#
# Compressibility (1/GPa) = 0.02328986
#
# Stress axis : x y z
#
# Youngs Moduli (GPa) = 73.32821 73.32765 86.11344
#
# Poissons Ratio (x) = 0.22136 0.20581
# Poissons Ratio (y) = 0.22136 0.20581
# Poissons Ratio (z) = 0.17525 0.17525
#
# Static dielectric constant tensor:
#      x y z
#    x 3.682820 0.000000 0.000000 
#    y 0.000000 3.682810 0.000000 
#    z 0.000000 0.000000 3.756900 
# 
# 
# High freq. dielectric constant tensor:
#      x y z
#    x 1.772290 0.000000 0.000000 
#    y 0.000000 1.772290 0.000000 
#    z 0.000000 0.000000 1.781030 
# 
# From -- ./inp_files/2550.got.cif
#   From: 2010.03.12/outbox.cif.g09.slc.cpg/sg175_2_cif.got.tgz:2550.got - 2010.04.02 06:55:29.
