data_PCOD8325188
_publ_section_title
;
Structure prediction by ZEFSAII (Michael W. Deem and Ramdas Pophale) SiO2 
 PCOD8325188
Probable space group: P 6/M
;
_chemical_formula_sum "Si O2"
_cell_formula_units_Z 72
_cell_length_a 21.987181
_cell_length_b 21.987181
_cell_length_c 9.172805
_cell_angle_alpha 90.000000
_cell_angle_beta 90.000000
_cell_angle_gamma 120.000000
_cell_volume 3840.359632
_symmetry_space_group_name_H-M "P 6/M"
_symmetry_group_IT_number 175
_symmetry_cell_setting 'hexagonal'
loop_
_space_group_symop_operation_xyz
x,y,z
x-y,x,z
-y,x-y,z
-x,-y,z
-x+y,-x,z
y,-x+y,z
-x,-y,-z
-x+y,-x,-z
y,-x+y,-z
x,y,-z
x-y,x,-z
-y,x-y,-z
loop_
_atom_site_type_symbol
_atom_site_label
_atom_site_fract_x
_atom_site_fract_y
_atom_site_fract_z
Si Si1 0.694981 0.789116 0.328524
Si Si2 0.372425 0.999422 0.329701
Si Si3 0.761672 0.198320 0.833795
Si Si4 0.109619 0.949665 0.170564
Si Si5 0.650135 0.522940 0.833169
Si Si6 0.395999 0.891884 0.829404
O O1 0.700143 0.803359 0.500000
O O2 0.674474 0.709508 0.290373
O O3 0.633445 0.800899 0.264240
O O4 0.769268 0.842133 0.258435
O O5 0.384218 0.999358 0.500000
O O6 0.410916 0.077438 0.266918
O O7 0.410990 0.961762 0.254285
O O8 0.796621 0.281694 0.815702
O O9 0.681555 0.169210 0.785317
O O10 0.765947 0.177026 0.000000
O O11 0.028620 0.898478 0.213812
O O12 0.121676 0.944255 0.000000
O O13 0.582799 0.451303 0.778344
O O14 0.640010 0.539143 0.000000
O O15 0.402961 0.908481 0.000000
#
# Coordination Sequence:
#
# PCOD8325188 Si02
#       6
#    12  12  12  12  12  12
#     4  10  22  38  56  81 114 147 182 225 275 323
#     4  10  21  35  53  79 109 142 178 222 271 320
#     4   9  19  36  55  78 110 146 184 224 272 328
#     4  10  22  40  62  86 112 145 184 226 273 329
#     4  10  20  33  54  82 108 139 180 223 268 320
#     4   9  18  35  54  76 107 141 176 221 270 319
#
# _framework density 18.748244
#
# number of rings (size 3 to 8) (size 9 to 14) (size 15 to 20)
#    0.000    2.333    0.000    1.667    2.333    6.667 
#    1.000    0.000    0.000    1.000    0.000    0.000 
#    0.000    0.000    0.000    0.000    0.000    0.000 
#
# Total GULP energy -892887.251901 kJ/mol
# GULP energy per Si atom -12401.211832 kJ/mol
# Density = 1.870557 g / cm^3
# Si number density = 18.748244 Si / 1000 Ang^3
#
#
#
# Elastic Constant Matrix: (Units=GPa)
#
#
# Indices 1 2 3 4 5 6 
#
# 1 108.5547 55.8704 40.3323 0.0000 0.0000 0.0000
# 2 55.8704 108.5547 40.3323 0.0000 0.0000 0.0000
# 3 40.3323 40.3323 56.4380 0.0000 0.0000 0.0000
# 4 0.0000 0.0000 0.0000 17.3789 0.0000 0.0000
# 5 0.0000 0.0000 0.0000 0.0000 17.3789 0.0000
# 6 0.0000 0.0000 0.0000 0.0000 0.0000 26.3422
#
#
#
# Elastic Compliance Matrix: (Units=1/GPa)
#
#
# Indices 1 2 3 4 5 6 
#
# 1 0.014173 -0.004808 -0.006693 0.000000 0.000000 0.000000
# 2 -0.004808 0.014173 -0.006693 0.000000 0.000000 0.000000
# 3 -0.006693 -0.006693 0.027284 0.000000 0.000000 0.000000
# 4 0.000000 0.000000 0.000000 0.057541 0.000000 0.000000
# 5 0.000000 0.000000 0.000000 0.000000 0.057541 0.000000
# 6 0.000000 0.000000 0.000000 0.000000 0.000000 0.037962
#
#
# Mechanical properties :
#
#
# Convention : Reuss Voigt Hill
#
# Bulk Modulus (GPa) = 51.96463 60.73529 56.34996
# Shear Modulus (GPa) = 19.88271 21.35416 20.61844
#
# Velocity S-wave (km/s) = 3.26008 3.37856 3.31985
# Velocity P-wave (km/s) = 6.47673 6.90544 6.69452
#
# Compressibility (1/GPa) = 0.01924386
#
# Stress axis : x y z
#
# Youngs Moduli (GPa) = 70.55657 70.55657 36.65154
#
# Poissons Ratio (x) = 0.33923 0.24529
# Poissons Ratio (y) = 0.33923 0.24529
# Poissons Ratio (z) = 0.47220 0.47220
#
# Static dielectric constant tensor:
#      x y z
#    x 3.485880 0.000000 0.000000 
#    y 0.000000 3.485880 0.000000 
#    z 0.000000 0.000000 3.399890 
# 
# 
# High freq. dielectric constant tensor:
#      x y z
#    x 1.729580 0.000000 0.000000 
#    y 0.000000 1.729580 0.000000 
#    z 0.000000 0.000000 1.722130 
# 
# From -- ./inp_files/1199.got.cif
#   From: 2010.03.12/outbox.cif.g09.slc.cpg/sg175_1_cif.got.tgz:1199.got - 2010.04.02 06:55:29.
