data_PCOD8325873
_publ_section_title
;
Structure prediction by ZEFSAII (Michael W. Deem and Ramdas Pophale) SiO2 
 PCOD8325873
Probable space group: P 61 2 2
;
_chemical_formula_sum "Si O2"
_cell_formula_units_Z 54
_cell_length_a 16.967600
_cell_length_b 16.967600
_cell_length_c 11.967611
_cell_angle_alpha 90.000000
_cell_angle_beta 90.000000
_cell_angle_gamma 120.000000
_cell_volume 2983.863354
_symmetry_space_group_name_H-M "P 61 2 2"
_symmetry_group_IT_number 178
_symmetry_cell_setting 'hexagonal'
loop_
_space_group_symop_operation_xyz
x,y,z
x-y,x,1/6+z
-y,x-y,1/3+z
-x,-y,1/2+z
-x+y,-x,2/3+z
y,-x+y,5/6+z
x-y,-y,-z
-x,-x+y,2/3-z
y,x,1/3-z
-y,-x,5/6-z
-x+y,y,1/2-z
x,x-y,1/6-z
loop_
_atom_site_type_symbol
_atom_site_label
_atom_site_fract_x
_atom_site_fract_y
_atom_site_fract_z
Si Si1 0.427612 0.427612 0.666667
Si Si2 0.595581 0.403597 0.157391
Si Si3 0.772128 0.494052 0.021584
Si Si4 0.025176 0.418804 0.593463
Si Si5 0.719368 0.150373 0.339535
O O1 0.438383 0.525940 0.682093
O O2 0.375165 0.379574 0.551759
O O3 0.583880 0.352356 0.274684
O O4 0.531679 0.338674 0.059320
O O5 0.700330 0.448309 0.121313
O O6 0.747591 0.559731 0.952234
O O7 0.871813 0.555281 0.073171
O O8 0.008764 0.504382 0.583334
O O9 0.959246 0.341053 0.504037
O O10 0.811354 0.188647 0.416667
#
# Coordination Sequence:
#
# PCOD8325873 Si02
#       5
#     6  12  12  12  12
#     4  12  22  40  56  70 110 144 186 232 284 344
#     4  11  21  38  54  78 107 149 186 240 282 321
#     4  11  23  36  56  78 108 146 192 235 283 334
#     4  12  22  38  55  77 105 144 184 230 289 336
#     4  10  21  38  58  75 109 145 187 238 276 328
#
# _framework density 18.097342999999999
#
# number of rings (size 3 to 8) (size 9 to 14) (size 15 to 20)
#    0.000    0.889    6.667    0.667    0.000    8.000 
#    4.000    0.000    0.000    0.000    0.000    0.000 
#    0.000    0.000    0.000    8.000    0.000    0.000 
#
# Total GULP energy -669302.537664 kJ/mol
# GULP energy per Si atom -12394.491438 kJ/mol
# Density = 1.805615 g / cm^3
# Si number density = 18.097343 Si / 1000 Ang^3
#
#
#
# Elastic Constant Matrix: (Units=GPa)
#
#
# Indices 1 2 3 4 5 6 
#
# 1 85.6985 45.4580 32.3964 0.0000 0.0000 0.0000
# 2 45.4580 85.6985 32.3964 0.0000 0.0000 0.0000
# 3 32.3964 32.3964 81.9615 0.0000 0.0000 0.0000
# 4 0.0000 0.0000 0.0000 30.4266 0.0000 0.0000
# 5 0.0000 0.0000 0.0000 0.0000 30.4266 0.0000
# 6 0.0000 0.0000 0.0000 0.0000 0.0000 20.1203
#
#
#
# Elastic Compliance Matrix: (Units=1/GPa)
#
#
# Indices 1 2 3 4 5 6 
#
# 1 0.017163 -0.007688 -0.003745 0.000000 0.000000 0.000000
# 2 -0.007688 0.017163 -0.003745 0.000000 0.000000 0.000000
# 3 -0.003745 -0.003745 0.015161 0.000000 0.000000 0.000000
# 4 0.000000 0.000000 0.000000 0.032866 0.000000 0.000000
# 5 0.000000 0.000000 0.000000 0.000000 0.032866 0.000000
# 6 0.000000 0.000000 0.000000 0.000000 0.000000 0.049701
#
#
# Mechanical properties :
#
#
# Convention : Reuss Voigt Hill
#
# Bulk Modulus (GPa) = 52.27219 52.65111 52.46165
# Shear Modulus (GPa) = 24.79517 25.73521 25.26519
#
# Velocity S-wave (km/s) = 3.70550 3.77509 3.74046
# Velocity P-wave (km/s) = 6.87417 6.93961 6.90697
#
# Compressibility (1/GPa) = 0.01913063
#
# Stress axis : x y z
#
# Youngs Moduli (GPa) = 58.26638 58.26638 65.95732
#
# Poissons Ratio (x) = 0.44795 0.24701
# Poissons Ratio (y) = 0.44795 0.24701
# Poissons Ratio (z) = 0.21820 0.21820
#
# Static dielectric constant tensor:
#      x y z
#    x 3.218830 0.000000 0.000000 
#    y 0.000000 3.218830 0.000000 
#    z 0.000000 0.000000 3.792340 
# 
# 
# High freq. dielectric constant tensor:
#      x y z
#    x 1.665410 0.000000 0.000000 
#    y 0.000000 1.665410 0.000000 
#    z 0.000000 0.000000 1.731670 
# 
# From -- ./inp_files/4376.got.cif
#   From: 2010.03.12/outbox.cif.g09.slc.cpg/sg178_3_cif.got.tgz:4376.got - 2010.04.02 07:02:38.
