data_PCOD8325095
_publ_section_title
;
Structure prediction by ZEFSAII (Michael W. Deem and Ramdas Pophale) SiO2 
 PCOD8325095
Probable space group: P 6/M
;
_chemical_formula_sum "Si O2"
_cell_formula_units_Z 96
_cell_length_a 21.780112
_cell_length_b 21.780112
_cell_length_c 13.015235
_cell_angle_alpha 90.000000
_cell_angle_beta 90.000000
_cell_angle_gamma 120.000000
_cell_volume 5346.909866
_symmetry_space_group_name_H-M "P 6/M"
_symmetry_group_IT_number 175
_symmetry_cell_setting 'hexagonal'
loop_
_space_group_symop_operation_xyz
x,y,z
x-y,x,z
-y,x-y,z
-x,-y,z
-x+y,-x,z
y,-x+y,z
-x,-y,-z
-x+y,-x,-z
y,-x+y,-z
x,y,-z
x-y,x,-z
-y,x-y,-z
loop_
_atom_site_type_symbol
_atom_site_label
_atom_site_fract_x
_atom_site_fract_y
_atom_site_fract_z
Si Si1 0.140067 0.663798 0.290441
Si Si2 0.557654 0.574407 0.260212
Si Si3 0.852845 0.459633 0.618743
Si Si4 0.744310 0.612812 0.886846
Si Si5 0.930630 0.833967 0.618973
Si Si6 0.347073 0.313424 0.886750
Si Si7 0.305198 0.185118 0.244479
Si Si8 0.804136 0.564468 0.384634
O O1 0.168125 0.608589 0.308764
O O2 0.163615 0.703161 0.179046
O O3 0.172942 0.725389 0.375348
O O4 0.055062 0.625101 0.302178
O O5 0.500000 0.500000 0.207416
O O6 0.521409 0.588337 0.358241
O O7 0.580737 0.636891 0.176559
O O8 0.847240 0.436820 0.500000
O O9 0.801559 0.490938 0.646316
O O10 0.693011 0.643669 0.900815
O O11 0.813056 0.673158 0.828860
O O12 0.763441 0.595594 0.000000
O O13 0.887574 0.874559 0.642685
O O14 0.920096 0.808993 0.500000
O O15 0.901249 0.766177 0.693259
O O16 0.296268 0.240446 0.826884
O O17 0.366870 0.297216 0.000000
O O18 0.369586 0.231680 0.320693
O O19 0.831124 0.583889 0.500000
#
# Coordination Sequence:
#
# PCOD8325095 Si02
#       8
#    12  12  12  12  12  12  12  12
#     4   9  19  33  53  71 100 135 175 213 257 322
#     4   9  18  33  51  74 101 132 171 215 264 315
#     4  10  19  33  51  74 104 136 173 214 260 316
#     4   9  19  34  52  76 104 137 173 219 274 322
#     4  10  21  37  57  82 115 155 196 234 278 336
#     4  10  19  32  50  74 102 132 172 217 269 326
#     4  11  19  33  54  78 109 139 180 226 277 334
#     4  10  20  33  50  74 106 137 169 219 269 321
#
# _framework density 17.954294999999998
#
# number of rings (size 3 to 8) (size 9 to 14) (size 15 to 20)
#    0.000    2.250    1.250    2.000    0.000    3.500 
#    0.750    1.875    0.000    0.000    0.000    0.000 
#    0.000    6.000    0.000    0.000    0.000    0.000 
#
# Total GULP energy -1189785.427520 kJ/mol
# GULP energy per Si atom -12393.598203 kJ/mol
# Density = 1.791343 g / cm^3
# Si number density = 17.954295 Si / 1000 Ang^3
#
#
#
# Elastic Constant Matrix: (Units=GPa)
#
#
# Indices 1 2 3 4 5 6 
#
# 1 86.1072 35.7277 53.5605 0.0000 0.0000 0.0000
# 2 35.7277 86.1072 53.5605 0.0000 0.0000 0.0000
# 3 53.5605 53.5605 107.0462 0.0000 0.0000 0.0000
# 4 0.0000 0.0000 0.0000 22.6693 0.0000 0.0000
# 5 0.0000 0.0000 0.0000 0.0000 22.6693 0.0000
# 6 0.0000 0.0000 0.0000 0.0000 0.0000 25.1898
#
#
#
# Elastic Compliance Matrix: (Units=1/GPa)
#
#
# Indices 1 2 3 4 5 6 
#
# 1 0.017252 -0.002597 -0.007333 0.000000 0.000000 0.000000
# 2 -0.002597 0.017252 -0.007333 0.000000 0.000000 0.000000
# 3 -0.007333 -0.007333 0.016679 0.000000 0.000000 0.000000
# 4 0.000000 0.000000 0.000000 0.044113 0.000000 0.000000
# 5 0.000000 0.000000 0.000000 0.000000 0.044113 0.000000
# 6 0.000000 0.000000 0.000000 0.000000 0.000000 0.039699
#
#
# Mechanical properties :
#
#
# Convention : Reuss Voigt Hill
#
# Bulk Modulus (GPa) = 60.02784 62.77309 61.40047
# Shear Modulus (GPa) = 22.81179 23.19980 23.00580
#
# Velocity S-wave (km/s) = 3.56834 3.59856 3.58348
# Velocity P-wave (km/s) = 7.10519 7.23221 7.16898
#
# Compressibility (1/GPa) = 0.01665894
#
# Stress axis : x y z
#
# Youngs Moduli (GPa) = 57.96403 57.96403 59.95413
#
# Poissons Ratio (x) = 0.15055 0.43962
# Poissons Ratio (y) = 0.15055 0.43962
# Poissons Ratio (z) = 0.42502 0.42502
#
# Static dielectric constant tensor:
#      x y z
#    x 3.318080 0.000000 0.000000 
#    y 0.000000 3.318080 0.000000 
#    z 0.000000 0.000000 3.603980 
# 
# 
# High freq. dielectric constant tensor:
#      x y z
#    x 1.689630 0.000000 0.000000 
#    y 0.000000 1.689630 0.000000 
#    z 0.000000 0.000000 1.691920 
# 
# From -- ./inp_files/2167.got.cif
#   From: 2010.03.12/outbox.cif.g09.slc.cpg/sg175_2_cif.got.tgz:2167.got - 2010.04.02 06:55:29.
