data_PCOD8325400
_publ_section_title
;
Structure prediction by ZEFSAII (Michael W. Deem and Ramdas Pophale) SiO2 
 PCOD8325400
Probable space group: P 63/M
;
_chemical_formula_sum "Si O2"
_cell_formula_units_Z 54
_cell_length_a 22.300027
_cell_length_b 22.300027
_cell_length_c 10.455785
_cell_angle_alpha 90.000000
_cell_angle_beta 90.000000
_cell_angle_gamma 120.000000
_cell_volume 4502.959634
_symmetry_space_group_name_H-M "P 63/M"
_symmetry_group_IT_number 176
_symmetry_cell_setting 'hexagonal'
loop_
_space_group_symop_operation_xyz
x,y,z
x-y,x,1/2+z
-y,x-y,z
-x,-y,1/2+z
-x+y,-x,z
y,-x+y,1/2+z
-x,-y,-z
-x+y,-x,1/2-z
y,-x+y,-z
x,y,1/2-z
x-y,x,-z
-y,x-y,1/2-z
loop_
_atom_site_type_symbol
_atom_site_label
_atom_site_fract_x
_atom_site_fract_y
_atom_site_fract_z
Si Si1 0.463976 0.792238 0.985487
Si Si2 0.945211 0.402627 0.394375
Si Si3 0.049989 0.452977 0.606198
Si Si4 0.662435 0.201714 0.105876
Si Si5 0.417208 0.735732 0.250000
O O1 0.520632 0.868981 0.944822
O O2 0.385469 0.776070 0.970618
O O3 0.480013 0.741602 0.901706
O O4 0.468210 0.776007 0.133196
O O5 0.956389 0.382146 0.250000
O O6 0.956318 0.478783 0.390013
O O7 0.998507 0.400556 0.497840
O O8 0.032885 0.419468 0.750000
O O9 0.127977 0.474707 0.561347
O O10 0.634569 0.190743 0.250000
O O11 0.346228 0.740355 0.250000
#
# Coordination Sequence:
#
# PCOD8325400 Si02
#       5
#    12  12  12  12   6
#     4  11  18  27  38  52  69  86 109 139 166 208
#     4   9  17  28  39  53  64  85 112 134 161 197
#     4   8  16  28  38  51  67  86 107 131 163 200
#     4  10  17  27  40  53  68  86 108 136 171 204
#     4  10  18  30  32  50  74  88 106 124 176 220
#
# _framework density 11.992113
#
# number of rings (size 3 to 8) (size 9 to 14) (size 15 to 20)
#    0.222    2.222    2.222    3.778    1.556    0.000 
#    8.000    0.000    0.000    0.000    0.000    0.000 
#    0.000    0.000    0.000    0.000    0.000    0.000 
#
# Total GULP energy -669160.931346 kJ/mol
# GULP energy per Si atom -12391.869099 kJ/mol
# Density = 1.196482 g / cm^3
# Si number density = 11.992113 Si / 1000 Ang^3
#
#
#
# Elastic Constant Matrix: (Units=GPa)
#
#
# Indices 1 2 3 4 5 6 
#
# 1 43.0241 27.5178 23.2862 0.0000 0.0000 0.0000
# 2 27.5178 43.0241 23.2862 0.0000 0.0000 0.0000
# 3 23.2862 23.2862 74.8632 0.0000 0.0000 0.0000
# 4 0.0000 0.0000 0.0000 13.0164 0.0000 0.0000
# 5 0.0000 0.0000 0.0000 0.0000 13.0164 0.0000
# 6 0.0000 0.0000 0.0000 0.0000 0.0000 7.7532
#
#
#
# Elastic Compliance Matrix: (Units=1/GPa)
#
#
# Indices 1 2 3 4 5 6 
#
# 1 0.041165 -0.023325 -0.005549 0.000000 0.000000 0.000000
# 2 -0.023325 0.041165 -0.005549 0.000000 0.000000 0.000000
# 3 -0.005549 -0.005549 0.016810 0.000000 0.000000 0.000000
# 4 0.000000 0.000000 0.000000 0.076826 0.000000 0.000000
# 5 0.000000 0.000000 0.000000 0.000000 0.076826 0.000000
# 6 0.000000 0.000000 0.000000 0.000000 0.000000 0.128980
#
#
# Mechanical properties :
#
#
# Convention : Reuss Voigt Hill
#
# Bulk Modulus (GPa) = 33.01120 34.34355 33.67737
# Shear Modulus (GPa) = 10.85269 12.54525 11.69897
#
# Velocity S-wave (km/s) = 3.01156 3.23789 3.12678
# Velocity P-wave (km/s) = 6.29919 6.53293 6.41713
#
# Compressibility (1/GPa) = 0.03029275
#
# Stress axis : x y z
#
# Youngs Moduli (GPa) = 24.29271 24.29271 59.48940
#
# Poissons Ratio (x) = 0.56663 0.33011
# Poissons Ratio (y) = 0.56663 0.33011
# Poissons Ratio (z) = 0.13480 0.13480
#
# Static dielectric constant tensor:
#      x y z
#    x 2.278000 0.000000 0.000000 
#    y 0.000000 2.278000 0.000000 
#    z 0.000000 0.000000 2.746610 
# 
# 
# High freq. dielectric constant tensor:
#      x y z
#    x 1.411240 0.000000 0.000000 
#    y 0.000000 1.411240 0.000000 
#    z 0.000000 0.000000 1.476980 
# 
# From -- ./inp_files/1076.got.cif
#   From: 2010.06.25/outbox.cif.g09.slc.cpg/sg176_1_cif.got.tgz:1076.got - 2010.06.28 12:15:01.
