data_PCOD8325484
_publ_section_title
;
Structure prediction by ZEFSAII (Michael W. Deem and Ramdas Pophale) SiO2 
 PCOD8325484
Probable space group: P 63/M
;
_chemical_formula_sum "Si O2"
_cell_formula_units_Z 72
_cell_length_a 23.057465
_cell_length_b 23.057465
_cell_length_c 9.254350
_cell_angle_alpha 90.000000
_cell_angle_beta 90.000000
_cell_angle_gamma 120.000000
_cell_volume 4260.883582
_symmetry_space_group_name_H-M "P 63/M"
_symmetry_group_IT_number 176
_symmetry_cell_setting 'hexagonal'
loop_
_space_group_symop_operation_xyz
x,y,z
x-y,x,1/2+z
-y,x-y,z
-x,-y,1/2+z
-x+y,-x,z
y,-x+y,1/2+z
-x,-y,-z
-x+y,-x,1/2-z
y,-x+y,-z
x,y,1/2-z
x-y,x,-z
-y,x-y,1/2-z
loop_
_atom_site_type_symbol
_atom_site_label
_atom_site_fract_x
_atom_site_fract_y
_atom_site_fract_z
Si Si1 0.277341 0.409992 0.908955
Si Si2 0.799423 0.467685 0.919984
Si Si3 0.199458 0.663579 0.418425
Si Si4 0.193428 0.263834 0.917384
Si Si5 0.136922 0.403745 0.587820
Si Si6 0.727892 0.809615 0.081722
O O1 0.309819 0.422811 0.750000
O O2 0.257263 0.335606 0.964671
O O3 0.209495 0.412230 0.905644
O O4 0.330182 0.468864 0.011356
O O5 0.813104 0.480478 0.750000
O O6 0.803547 0.403695 0.974127
O O7 0.725595 0.453920 0.959457
O O8 0.856828 0.531870 0.004749
O O9 0.186915 0.660133 0.250000
O O10 0.176166 0.269477 0.750000
O O11 0.212026 0.206145 0.938752
O O12 0.128999 0.246257 0.014200
O O13 0.108551 0.399226 0.750000
O O14 0.088572 0.337027 0.498638
O O15 0.710422 0.810097 0.250000
#
# Coordination Sequence:
#
# PCOD8325484 Si02
#       6
#    12  12  12  12  12  12
#     4   8  15  28  43  60  87 119 148 185 231 272
#     4   9  16  26  40  60  88 121 157 199 247 293
#     4   9  16  25  39  60  86 117 155 197 239 286
#     4   9  19  34  51  75 103 125 150 186 224 264
#     4   9  17  29  44  64  91 121 155 196 236 275
#     4  10  19  32  53  77  99 125 153 183 223 267
#
# _framework density 16.897902999999999
#
# number of rings (size 3 to 8) (size 9 to 14) (size 15 to 20)
#    0.000    3.000    0.000    2.333    0.000    7.333 
#    0.000    0.000    0.000    3.333    0.000    0.000 
#    0.000    0.000    0.000    0.000    0.000    0.000 
#
# Total GULP energy -892504.826531 kJ/mol
# GULP energy per Si atom -12395.900368 kJ/mol
# Density = 1.685944 g / cm^3
# Si number density = 16.897903 Si / 1000 Ang^3
#
#
#
# Elastic Constant Matrix: (Units=GPa)
#
#
# Indices 1 2 3 4 5 6 
#
# 1 79.6686 41.5038 47.2591 0.0000 0.0000 0.0000
# 2 41.5038 79.6686 47.2591 0.0000 0.0000 0.0000
# 3 47.2591 47.2591 85.6469 0.0000 0.0000 0.0000
# 4 0.0000 0.0000 0.0000 23.9123 0.0000 0.0000
# 5 0.0000 0.0000 0.0000 0.0000 23.9123 0.0000
# 6 0.0000 0.0000 0.0000 0.0000 0.0000 19.0824
#
#
#
# Elastic Compliance Matrix: (Units=1/GPa)
#
#
# Indices 1 2 3 4 5 6 
#
# 1 0.020346 -0.005857 -0.007995 0.000000 0.000000 0.000000
# 2 -0.005857 0.020346 -0.007995 0.000000 0.000000 0.000000
# 3 -0.007995 -0.007995 0.020499 0.000000 0.000000 0.000000
# 4 0.000000 0.000000 0.000000 0.041820 0.000000 0.000000
# 5 0.000000 0.000000 0.000000 0.000000 0.041820 0.000000
# 6 0.000000 0.000000 0.000000 0.000000 0.000000 0.052404
#
#
# Mechanical properties :
#
#
# Convention : Reuss Voigt Hill
#
# Bulk Modulus (GPa) = 57.15175 57.44756 57.29966
# Shear Modulus (GPa) = 20.26275 20.64554 20.45415
#
# Velocity S-wave (km/s) = 3.46660 3.49919 3.48293
# Velocity P-wave (km/s) = 7.06529 7.09904 7.08219
#
# Compressibility (1/GPa) = 0.01749728
#
# Stress axis : x y z
#
# Youngs Moduli (GPa) = 49.15084 49.15084 48.78333
#
# Poissons Ratio (x) = 0.28786 0.39002
# Poissons Ratio (y) = 0.28786 0.39002
# Poissons Ratio (z) = 0.39295 0.39295
#
# Static dielectric constant tensor:
#      x y z
#    x 3.054710 0.000000 0.000000 
#    y 0.000000 3.054710 0.000000 
#    z 0.000000 0.000000 3.296520 
# 
# 
# High freq. dielectric constant tensor:
#      x y z
#    x 1.628110 0.000000 0.000000 
#    y 0.000000 1.628110 0.000000 
#    z 0.000000 0.000000 1.656160 
# 
# From -- ./inp_files/1151.got.cif
#   From: 2010.06.25/outbox.cif.g09.slc.cpg/sg176_1_cif.got.tgz:1151.got - 2010.06.28 12:15:01.
