data_PCOD8325522
_publ_section_title
;
Structure prediction by ZEFSAII (Michael W. Deem and Ramdas Pophale) SiO2 
 PCOD8325522
Probable space group: P 63/M
;
_chemical_formula_sum "Si O2"
_cell_formula_units_Z 40
_cell_length_a 16.233495
_cell_length_b 16.233495
_cell_length_c 9.523746
_cell_angle_alpha 90.000000
_cell_angle_beta 90.000000
_cell_angle_gamma 120.000000
_cell_volume 2173.514286
_symmetry_space_group_name_H-M "P 63/M"
_symmetry_group_IT_number 176
_symmetry_cell_setting 'hexagonal'
loop_
_space_group_symop_operation_xyz
x,y,z
x-y,x,1/2+z
-y,x-y,z
-x,-y,1/2+z
-x+y,-x,z
y,-x+y,1/2+z
-x,-y,-z
-x+y,-x,1/2-z
y,-x+y,-z
x,y,1/2-z
x-y,x,-z
-y,x-y,1/2-z
loop_
_atom_site_type_symbol
_atom_site_label
_atom_site_fract_x
_atom_site_fract_y
_atom_site_fract_z
Si Si1 0.075111 0.359171 0.409376
Si Si2 0.628123 0.898781 0.412860
Si Si3 0.153811 0.570814 0.090668
Si Si4 0.333334 0.666667 0.582627
O O1 0.055433 0.322336 0.250000
O O2 0.175105 0.370743 0.461403
O O3 0.076620 0.459474 0.421449
O O4 0.989337 0.281058 0.502920
O O5 0.652394 0.918870 0.250000
O O6 0.526887 0.889703 0.447732
O O7 0.195876 0.593385 0.250000
O O8 0.233362 0.585827 0.977947
O O9 0.333334 0.666668 0.750000
#
# Coordination Sequence:
#
# PCOD8325522 Si02
#       4
#    12  12  12   4
#     4  10  21  36  57  81 108 145 181 221 273 322
#     4  10  21  36  57  81 108 145 181 221 273 322
#     4  10  19  37  57  74 110 154 184 215 267 329
#     4  12  22  29  49  84 115 146 187 231 262 299
#
# _framework density 18.403373999999999
#
# number of rings (size 3 to 8) (size 9 to 14) (size 15 to 20)
#    0.000    1.800    3.000    1.800    0.000    3.600 
#    0.000    0.000    0.000    0.600    0.000    0.000 
#    0.000    0.000    0.000    0.000    0.000    0.000 
#
# Total GULP energy -495950.635387 kJ/mol
# GULP energy per Si atom -12398.765885 kJ/mol
# Density = 1.836149 g / cm^3
# Si number density = 18.403374 Si / 1000 Ang^3
#
#
#
# Elastic Constant Matrix: (Units=GPa)
#
#
# Indices 1 2 3 4 5 6 
#
# 1 90.4611 53.8227 42.1192 0.0000 0.0000 -0.0001
# 2 53.8227 90.4610 42.1191 0.0000 0.0000 0.0000
# 3 42.1192 42.1191 79.8469 0.0000 0.0000 -0.0001
# 4 0.0000 0.0000 0.0000 31.0016 0.0000 0.0000
# 5 0.0000 0.0000 0.0000 0.0000 31.0016 0.0000
# 6 -0.0001 0.0000 -0.0001 0.0000 0.0000 18.3191
#
#
#
# Elastic Compliance Matrix: (Units=1/GPa)
#
#
# Indices 1 2 3 4 5 6 
#
# 1 0.018655 -0.008639 -0.005283 0.000000 0.000000 0.000000
# 2 -0.008639 0.018655 -0.005283 0.000000 0.000000 0.000000
# 3 -0.005283 -0.005283 0.018098 0.000000 0.000000 0.000000
# 4 0.000000 0.000000 0.000000 0.032256 0.000000 0.000000
# 5 0.000000 0.000000 0.000000 0.000000 0.032256 0.000000
# 6 0.000000 0.000000 0.000000 0.000000 0.000000 0.054588
#
#
# Mechanical properties :
#
#
# Convention : Reuss Voigt Hill
#
# Bulk Modulus (GPa) = 58.83769 59.65454 59.24612
# Shear Modulus (GPa) = 22.87459 24.24499 23.55979
#
# Velocity S-wave (km/s) = 3.52938 3.63357 3.58185
# Velocity P-wave (km/s) = 6.97490 7.07737 7.02632
#
# Compressibility (1/GPa) = 0.01699591
#
# Stress axis : x y z
#
# Youngs Moduli (GPa) = 53.60632 53.60635 55.25612
#
# Poissons Ratio (x) = 0.46312 0.29192
# Poissons Ratio (y) = 0.46312 0.29192
# Poissons Ratio (z) = 0.28320 0.28320
#
# Static dielectric constant tensor:
#      x y z
#    x 3.196730 0.000000 0.000000 
#    y 0.000000 3.196740 0.000000 
#    z 0.000000 0.000000 3.307400 
# 
# 
# High freq. dielectric constant tensor:
#      x y z
#    x 1.696460 0.000000 0.000000 
#    y 0.000000 1.696460 0.000000 
#    z 0.000000 0.000000 1.707660 
# 
# From -- ./inp_files/476.got.cif
#   From: 2010.06.25/outbox.cif.g09.slc.cpg/sg176_1_cif.got.tgz:476.got - 2010.06.28 12:15:01.
