data_PCOD8325189
_publ_section_title
;
Structure prediction by ZEFSAII (Michael W. Deem and Ramdas Pophale) SiO2 
 PCOD8325189
Probable space group: P 6/M
;
_chemical_formula_sum "Si O2"
_cell_formula_units_Z 72
_cell_length_a 23.955294
_cell_length_b 23.955294
_cell_length_c 8.539363
_cell_angle_alpha 90.000000
_cell_angle_beta 90.000000
_cell_angle_gamma 120.000000
_cell_volume 4243.841131
_symmetry_space_group_name_H-M "P 6/M"
_symmetry_group_IT_number 175
_symmetry_cell_setting 'hexagonal'
loop_
_space_group_symop_operation_xyz
x,y,z
x-y,x,z
-y,x-y,z
-x,-y,z
-x+y,-x,z
y,-x+y,z
-x,-y,-z
-x+y,-x,-z
y,-x+y,-z
x,y,-z
x-y,x,-z
-y,x-y,-z
loop_
_atom_site_type_symbol
_atom_site_label
_atom_site_fract_x
_atom_site_fract_y
_atom_site_fract_z
Si Si1 0.621871 0.810406 0.320048
Si Si2 0.632371 0.938867 0.321276
Si Si3 0.252649 0.513839 0.821503
Si Si4 0.488216 0.627152 0.317785
Si Si5 0.630564 0.704992 0.817268
Si Si6 0.135713 0.627587 0.816793
O O1 0.598333 0.791854 0.500000
O O2 0.657937 0.887699 0.299887
O O3 0.562708 0.780280 0.200130
O O4 0.662297 0.775754 0.267476
O O5 0.640237 0.962284 0.500000
O O6 0.557360 0.906598 0.278056
O O7 0.676391 0.999047 0.212167
O O8 0.215632 0.540769 0.715007
O O9 0.327286 0.539693 0.776259
O O10 0.246120 0.530795 0.000000
O O11 0.487345 0.614042 0.500000
O O12 0.560170 0.656829 0.252743
O O13 0.444764 0.559100 0.232514
O O14 0.624530 0.712844 0.000000
O O15 0.123425 0.631318 0.000000
#
# Coordination Sequence:
#
# PCOD8325189 Si02
#       6
#    12  12  12  12  12  12
#     4   9  17  31  51  71  94 122 151 188 228 272
#     4  10  20  34  52  74  98 125 159 195 236 285
#     4   9  17  31  49  65  84 113 148 188 236 291
#     4  11  21  33  49  67  91 120 155 199 246 295
#     4  11  21  33  51  73  98 127 160 194 233 285
#     4  10  20  34  50  68  91 119 154 198 249 298
#
# _framework density 16.965762000000002
#
# number of rings (size 3 to 8) (size 9 to 14) (size 15 to 20)
#    0.000    2.000    0.000    7.000    0.000    4.667 
#    1.000    3.333    0.000    0.000    0.000    0.000 
#    0.000    0.000    0.000    0.500    0.000    9.667 
#
# Total GULP energy -892356.797015 kJ/mol
# GULP energy per Si atom -12393.844403 kJ/mol
# Density = 1.692715 g / cm^3
# Si number density = 16.965762 Si / 1000 Ang^3
#
#
#
# Elastic Constant Matrix: (Units=GPa)
#
#
# Indices 1 2 3 4 5 6 
#
# 1 68.4825 37.2979 21.0948 0.0000 0.0000 0.0000
# 2 37.2979 68.4825 21.0948 0.0000 0.0000 0.0000
# 3 21.0948 21.0948 72.8128 0.0000 0.0000 0.0000
# 4 0.0000 0.0000 0.0000 24.5368 0.0000 0.0000
# 5 0.0000 0.0000 0.0000 0.0000 24.5368 0.0000
# 6 0.0000 0.0000 0.0000 0.0000 0.0000 15.5923
#
#
#
# Elastic Compliance Matrix: (Units=1/GPa)
#
#
# Indices 1 2 3 4 5 6 
#
# 1 0.021378 -0.010689 -0.003097 0.000000 0.000000 0.000000
# 2 -0.010689 0.021378 -0.003097 0.000000 0.000000 0.000000
# 3 -0.003097 -0.003097 0.015528 0.000000 0.000000 0.000000
# 4 0.000000 0.000000 0.000000 0.040755 0.000000 0.000000
# 5 0.000000 0.000000 0.000000 0.000000 0.040755 0.000000
# 6 0.000000 0.000000 0.000000 0.000000 0.000000 0.064134
#
#
# Mechanical properties :
#
#
# Convention : Reuss Voigt Hill
#
# Bulk Modulus (GPa) = 40.78498 40.97253 40.87876
# Shear Modulus (GPa) = 20.33624 21.61918 20.97771
#
# Velocity S-wave (km/s) = 3.46593 3.57358 3.52017
# Velocity P-wave (km/s) = 6.33314 6.42105 6.37725
#
# Compressibility (1/GPa) = 0.02451883
#
# Stress axis : x y z
#
# Youngs Moduli (GPa) = 46.77731 46.77731 64.39930
#
# Poissons Ratio (x) = 0.50002 0.19942
# Poissons Ratio (y) = 0.50002 0.19942
# Poissons Ratio (z) = 0.14485 0.14485
#
# Static dielectric constant tensor:
#      x y z
#    x 3.208380 0.000000 0.000000 
#    y 0.000000 3.208380 0.000000 
#    z 0.000000 0.000000 3.254630 
# 
# 
# High freq. dielectric constant tensor:
#      x y z
#    x 1.625230 0.000000 0.000000 
#    y 0.000000 1.625230 0.000000 
#    z 0.000000 0.000000 1.674330 
# 
# From -- ./inp_files/1192.got.cif
#   From: 2010.03.12/outbox.cif.g09.slc.cpg/sg175_1_cif.got.tgz:1192.got - 2010.04.02 06:55:29.
