data_PCOD8325129
_publ_section_title
;
Structure prediction by ZEFSAII (Michael W. Deem and Ramdas Pophale) SiO2 
 PCOD8325129
Probable space group: P 6/M
;
_chemical_formula_sum "Si O2"
_cell_formula_units_Z 54
_cell_length_a 20.179732
_cell_length_b 20.179732
_cell_length_c 7.746115
_cell_angle_alpha 90.000000
_cell_angle_beta 90.000000
_cell_angle_gamma 120.000000
_cell_volume 2731.777731
_symmetry_space_group_name_H-M "P 6/M"
_symmetry_group_IT_number 175
_symmetry_cell_setting 'hexagonal'
loop_
_space_group_symop_operation_xyz
x,y,z
x-y,x,z
-y,x-y,z
-x,-y,z
-x+y,-x,z
y,-x+y,z
-x,-y,-z
-x+y,-x,-z
y,-x+y,-z
x,y,-z
x-y,x,-z
-y,x-y,-z
loop_
_atom_site_type_symbol
_atom_site_label
_atom_site_fract_x
_atom_site_fract_y
_atom_site_fract_z
Si Si1 0.182545 0.083112 0.500000
Si Si2 0.411140 0.097909 0.693360
Si Si3 0.325767 0.931450 0.802710
Si Si4 0.460501 0.546693 0.703991
Si Si5 0.697019 0.847932 0.804919
O O1 0.133326 0.125535 0.500000
O O2 0.233874 0.104083 0.672826
O O3 0.412190 0.128129 0.500000
O O4 0.498764 0.128303 0.762050
O O5 0.363105 0.121869 0.815429
O O6 0.369325 0.005900 0.683958
O O7 0.366877 0.879350 0.778758
O O8 0.238696 0.886752 0.738911
O O9 0.328659 0.955534 0.000000
O O10 0.500000 0.500000 0.776632
O O11 0.461549 0.550444 0.500000
O O12 0.729878 0.854888 0.000000
#
# Coordination Sequence:
#
# PCOD8325129 Si02
#       5
#     6  12  12  12  12
#     4  12  27  46  68  88 116 156 200 256 328 402
#     4  10  19  33  54  81 112 150 191 236 291 346
#     4  10  20  32  51  81 115 149 188 237 292 345
#     4   8  16  29  49  77 109 143 181 219 262 325
#     4  11  24  39  60  91 121 154 201 254 305 364
#
# _framework density 19.767347999999998
#
# number of rings (size 3 to 8) (size 9 to 14) (size 15 to 20)
#    0.000    2.000    1.111    4.111    3.111    7.556 
#    0.000    0.000    0.000    2.222    0.000    0.000 
#    0.000    0.000    0.000    0.000    0.000    0.000 
#
# Total GULP energy -668981.320726 kJ/mol
# GULP energy per Si atom -12388.542976 kJ/mol
# Density = 1.972236 g / cm^3
# Si number density = 19.767348 Si / 1000 Ang^3
#
#
#
# Elastic Constant Matrix: (Units=GPa)
#
#
# Indices 1 2 3 4 5 6 
#
# 1 68.9737 5.5135 7.9085 0.0000 0.0000 0.0000
# 2 5.5135 68.9737 7.9085 0.0000 0.0000 0.0000
# 3 7.9085 7.9085 63.7320 0.0000 0.0000 0.0000
# 4 0.0000 0.0000 0.0000 20.3330 0.0000 0.0000
# 5 0.0000 0.0000 0.0000 0.0000 20.3330 0.0000
# 6 0.0000 0.0000 0.0000 0.0000 0.0000 31.7301
#
#
#
# Elastic Compliance Matrix: (Units=1/GPa)
#
#
# Indices 1 2 3 4 5 6 
#
# 1 0.014773 -0.000985 -0.001711 0.000000 0.000000 0.000000
# 2 -0.000985 0.014773 -0.001711 0.000000 0.000000 0.000000
# 3 -0.001711 -0.001711 0.016115 0.000000 0.000000 0.000000
# 4 0.000000 0.000000 0.000000 0.049181 0.000000 0.000000
# 5 0.000000 0.000000 0.000000 0.000000 0.049181 0.000000
# 6 0.000000 0.000000 0.000000 0.000000 0.000000 0.031516
#
#
# Mechanical properties :
#
#
# Convention : Reuss Voigt Hill
#
# Bulk Modulus (GPa) = 27.13835 27.14892 27.14363
# Shear Modulus (GPa) = 25.42772 26.50251 25.96511
#
# Velocity S-wave (km/s) = 3.59046 3.66556 3.62820
# Velocity P-wave (km/s) = 5.56302 5.62842 5.59582
#
# Compressibility (1/GPa) = 0.03684823
#
# Stress axis : x y z
#
# Youngs Moduli (GPa) = 67.69029 67.69029 62.05267
#
# Poissons Ratio (x) = 0.06666 0.10617
# Poissons Ratio (y) = 0.06666 0.10617
# Poissons Ratio (z) = 0.11582 0.11582
#
# Static dielectric constant tensor:
#      x y z
#    x 3.693610 0.000000 0.000000 
#    y 0.000000 3.693610 0.000000 
#    z 0.000000 0.000000 3.414430 
# 
# 
# High freq. dielectric constant tensor:
#      x y z
#    x 1.751330 0.000000 0.000000 
#    y 0.000000 1.751330 0.000000 
#    z 0.000000 0.000000 1.774600 
# 
# From -- ./inp_files/784.got.cif
#   From: 2010.03.12/outbox.cif.g09.slc.cpg/sg175_1_cif.got.tgz:784.got - 2010.04.02 06:55:29.
