data_PCOD8325851
_publ_section_title
;
Structure prediction by ZEFSAII (Michael W. Deem and Ramdas Pophale) SiO2 
 PCOD8325851
Probable space group: P 61 2 2
;
_chemical_formula_sum "Si O2"
_cell_formula_units_Z 66
_cell_length_a 11.087364
_cell_length_b 11.087364
_cell_length_c 30.574362
_cell_angle_alpha 90.000000
_cell_angle_beta 90.000000
_cell_angle_gamma 120.000000
_cell_volume 3254.952434
_symmetry_space_group_name_H-M "P 61 2 2"
_symmetry_group_IT_number 178
_symmetry_cell_setting 'hexagonal'
loop_
_space_group_symop_operation_xyz
x,y,z
x-y,x,1/6+z
-y,x-y,1/3+z
-x,-y,1/2+z
-x+y,-x,2/3+z
y,-x+y,5/6+z
x-y,-y,-z
-x,-x+y,2/3-z
y,x,1/3-z
-y,-x,5/6-z
-x+y,y,1/2-z
x,x-y,1/6-z
loop_
_atom_site_type_symbol
_atom_site_label
_atom_site_fract_x
_atom_site_fract_y
_atom_site_fract_z
Si Si1 0.037056 0.866558 0.784228
Si Si2 0.312300 0.687701 0.416667
Si Si3 0.547863 0.705869 0.930817
Si Si4 0.604566 0.845855 0.019131
Si Si5 0.818205 0.068454 0.131857
Si Si6 0.392608 0.151252 0.274949
O O1 0.128942 0.806422 0.763567
O O2 0.000000 0.805274 0.833334
O O3 0.910561 0.821121 0.750000
O O4 0.120200 0.032656 0.788073
O O5 0.184557 0.662280 0.384941
O O6 0.272856 0.550520 0.445371
O O7 0.388461 0.611540 0.916667
O O8 0.625862 0.847623 0.902651
O O9 0.623959 0.615013 0.926804
O O10 0.535584 0.738259 0.980314
O O11 0.713767 0.808938 0.041764
O O12 0.679409 0.000000 0.000000
O O13 0.818094 0.126266 0.180064
#
# Coordination Sequence:
#
# PCOD8325851 Si02
#       6
#    12   6  12  12  12  12
#     4  11  21  37  64  96 129 159 209 276 321 370
#     4  12  24  42  60  84 132 172 210 250 324 398
#     4  10  20  38  61  87 122 160 208 256 311 385
#     4  11  24  38  63  93 121 159 206 273 325 372
#     4  10  21  37  63  93 123 156 211 268 328 371
#     4  10  22  38  60  86 124 172 206 254 311 392
#
# _framework density 20.276793000000001
#
# number of rings (size 3 to 8) (size 9 to 14) (size 15 to 20)
#    0.000    1.455    2.727    2.727    6.364    0.727 
#    0.000    0.000    0.000    1.091    0.000    0.000 
#    0.000    0.000    0.000    0.000    0.000    0.000 
#
# Total GULP energy -818228.783237 kJ/mol
# GULP energy per Si atom -12397.405807 kJ/mol
# Density = 2.023064 g / cm^3
# Si number density = 20.276793 Si / 1000 Ang^3
#
#
#
# Elastic Constant Matrix: (Units=GPa)
#
#
# Indices 1 2 3 4 5 6 
#
# 1 76.5469 32.1997 13.1735 0.0000 0.0000 0.0000
# 2 32.1997 76.5469 13.1735 0.0000 0.0000 0.0000
# 3 13.1735 13.1735 82.2933 0.0000 0.0000 0.0000
# 4 0.0000 0.0000 0.0000 25.4568 0.0000 0.0000
# 5 0.0000 0.0000 0.0000 0.0000 25.4568 0.0000
# 6 0.0000 0.0000 0.0000 0.0000 0.0000 22.1736
#
#
#
# Elastic Compliance Matrix: (Units=1/GPa)
#
#
# Indices 1 2 3 4 5 6 
#
# 1 0.016058 -0.006491 -0.001531 0.000000 0.000000 0.000000
# 2 -0.006491 0.016058 -0.001531 0.000000 0.000000 0.000000
# 3 -0.001531 -0.001531 0.012642 0.000000 0.000000 0.000000
# 4 0.000000 0.000000 0.000000 0.039282 0.000000 0.000000
# 5 0.000000 0.000000 0.000000 0.000000 0.039282 0.000000
# 6 0.000000 0.000000 0.000000 0.000000 0.000000 0.045099
#
#
# Mechanical properties :
#
#
# Convention : Reuss Voigt Hill
#
# Bulk Modulus (GPa) = 38.98687 39.16449 39.07568
# Shear Modulus (GPa) = 25.49987 26.40680 25.95333
#
# Velocity S-wave (km/s) = 3.55010 3.61268 3.58152
# Velocity P-wave (km/s) = 6.00611 6.06290 6.03457
#
# Compressibility (1/GPa) = 0.02564966
#
# Stress axis : x y z
#
# Youngs Moduli (GPa) = 62.27407 62.27407 79.10167
#
# Poissons Ratio (x) = 0.40424 0.12114
# Poissons Ratio (y) = 0.40424 0.12114
# Poissons Ratio (z) = 0.09537 0.09537
#
# Static dielectric constant tensor:
#      x y z
#    x 3.514330 0.000000 0.000000 
#    y 0.000000 3.514330 0.000000 
#    z 0.000000 0.000000 3.925510 
# 
# 
# High freq. dielectric constant tensor:
#      x y z
#    x 1.779110 0.000000 0.000000 
#    y 0.000000 1.779110 0.000000 
#    z 0.000000 0.000000 1.810430 
# 
# From -- ./inp_files/9508.got.cif
#   From: 2010.03.12/outbox.cif.g09.slc.cpg/sg178_5_cif.got.tgz:9508.got - 2010.04.02 07:02:38.
