data_PCOD8325608
_publ_section_title
;
Structure prediction by ZEFSAII (Michael W. Deem and Ramdas Pophale) SiO2 
 PCOD8325608
Probable space group: P 63/M
;
_chemical_formula_sum "Si O2"
_cell_formula_units_Z 36
_cell_length_a 8.791668
_cell_length_b 8.791668
_cell_length_c 28.827861
_cell_angle_alpha 90.000000
_cell_angle_beta 90.000000
_cell_angle_gamma 120.000000
_cell_volume 1929.681396
_symmetry_space_group_name_H-M "P 63/M"
_symmetry_group_IT_number 176
_symmetry_cell_setting 'hexagonal'
loop_
_space_group_symop_operation_xyz
x,y,z
x-y,x,1/2+z
-y,x-y,z
-x,-y,1/2+z
-x+y,-x,z
y,-x+y,1/2+z
-x,-y,-z
-x+y,-x,1/2-z
y,-x+y,-z
x,y,1/2-z
x-y,x,-z
-y,x-y,1/2-z
loop_
_atom_site_type_symbol
_atom_site_label
_atom_site_fract_x
_atom_site_fract_y
_atom_site_fract_z
Si Si1 0.034574 0.824145 0.386374
Si Si2 0.663518 0.986634 0.482062
Si Si3 0.453883 0.165053 0.801793
O O1 0.061844 0.715311 0.427621
O O2 0.045271 0.740238 0.338135
O O3 0.844800 0.813964 0.389278
O O4 0.671450 0.840554 0.512570
O O5 0.500000 0.000000 0.500000
O O6 0.627057 0.144849 0.808291
O O7 0.376209 0.103727 0.750000
#
# Coordination Sequence:
#
# PCOD8325608 Si02
#       3
#    12  12  12
#     4  10  21  36  58  86 119 155 200 265 308 366
#     4  12  24  42  60  88 125 165 211 266 321 382
#     4   8  18  35  57  86 116 150 199 246 296 376
#
# _framework density 18.655930000000001
#
# number of rings (size 3 to 8) (size 9 to 14) (size 15 to 20)
#    1.333    0.667    3.333    1.000    4.667    1.333 
#    0.000    0.000    0.000    1.333    0.000    0.000 
#    0.000    0.000    0.000    0.000    0.000    0.000 
#
# Total GULP energy -446045.800247 kJ/mol
# GULP energy per Si atom -12390.161118 kJ/mol
# Density = 1.861347 g / cm^3
# Si number density = 18.655930 Si / 1000 Ang^3
#
#
#
# Elastic Constant Matrix: (Units=GPa)
#
#
# Indices 1 2 3 4 5 6 
#
# 1 91.1771 40.3967 52.5770 0.0000 0.0000 0.0000
# 2 40.3967 91.1771 52.5770 0.0000 0.0000 0.0000
# 3 52.5770 52.5770 176.3874 0.0000 0.0000 0.0000
# 4 0.0000 0.0000 0.0000 37.3656 0.0000 0.0000
# 5 0.0000 0.0000 0.0000 0.0000 37.3656 0.0000
# 6 0.0000 0.0000 0.0000 0.0000 0.0000 25.3902
#
#
#
# Elastic Compliance Matrix: (Units=1/GPa)
#
#
# Indices 1 2 3 4 5 6 
#
# 1 0.014835 -0.004858 -0.002974 0.000000 0.000000 0.000000
# 2 -0.004858 0.014835 -0.002974 0.000000 0.000000 0.000000
# 3 -0.002974 -0.002974 0.007442 0.000000 0.000000 0.000000
# 4 0.000000 0.000000 0.000000 0.026763 0.000000 0.000000
# 5 0.000000 0.000000 0.000000 0.000000 0.026763 0.000000
# 6 0.000000 0.000000 0.000000 0.000000 0.000000 0.039385
#
#
# Mechanical properties :
#
#
# Convention : Reuss Voigt Hill
#
# Bulk Modulus (GPa) = 64.51333 72.20477 68.35905
# Shear Modulus (GPa) = 31.88762 34.23700 33.06231
#
# Velocity S-wave (km/s) = 4.13879 4.28855 4.21433
# Velocity P-wave (km/s) = 7.58255 7.95673 7.77190
#
# Compressibility (1/GPa) = 0.01550067
#
# Stress axis : x y z
#
# Youngs Moduli (GPa) = 67.40878 67.40878 134.36772
#
# Poissons Ratio (x) = 0.32746 0.39960
# Poissons Ratio (y) = 0.32746 0.39960
# Poissons Ratio (z) = 0.20047 0.20047
#
# Static dielectric constant tensor:
#      x y z
#    x 3.245180 0.000000 0.000000 
#    y 0.000000 3.245180 0.000000 
#    z 0.000000 0.000000 3.351410 
# 
# 
# High freq. dielectric constant tensor:
#      x y z
#    x 1.700370 0.000000 0.000000 
#    y 0.000000 1.700370 0.000000 
#    z 0.000000 0.000000 1.738890 
# 
# From -- ./inp_files/4173.got.cif
#   From: 2010.06.25/outbox.cif.g09.slc.cpg/sg176_3_cif.got.tgz:4173.got - 2010.06.28 12:15:01.
