data_PCOD8325546
_publ_section_title
;
Structure prediction by ZEFSAII (Michael W. Deem and Ramdas Pophale) SiO2 
 PCOD8325546
Probable space group: P 63/M
;
_chemical_formula_sum "Si O2"
_cell_formula_units_Z 46
_cell_length_a 13.723613
_cell_length_b 13.723613
_cell_length_c 14.329236
_cell_angle_alpha 90.000000
_cell_angle_beta 90.000000
_cell_angle_gamma 120.000000
_cell_volume 2337.171557
_symmetry_space_group_name_H-M "P 63/M"
_symmetry_group_IT_number 176
_symmetry_cell_setting 'hexagonal'
loop_
_space_group_symop_operation_xyz
x,y,z
x-y,x,1/2+z
-y,x-y,z
-x,-y,1/2+z
-x+y,-x,z
y,-x+y,1/2+z
-x,-y,-z
-x+y,-x,1/2-z
y,-x+y,-z
x,y,1/2-z
x-y,x,-z
-y,x-y,1/2-z
loop_
_atom_site_type_symbol
_atom_site_label
_atom_site_fract_x
_atom_site_fract_y
_atom_site_fract_z
Si Si1 0.898463 0.101537 0.250000
Si Si2 0.000000 0.000000 0.114253
Si Si3 0.935834 0.284700 0.750000
Si Si4 0.715300 0.064166 0.750000
Si Si5 0.109324 0.443674 0.052810
Si Si6 0.443674 0.109324 0.552810
O O1 0.936473 0.063527 0.344487
O O2 0.944814 0.234883 0.250000
O O3 0.765117 0.055186 0.250000
O O4 0.000000 0.000000 0.000000
O O5 0.847766 0.152234 0.750000
O O6 0.917482 0.345141 0.662154
O O7 0.654859 0.082518 0.662154
O O8 0.214850 0.429699 0.024738
O O9 0.135606 0.567803 0.023547
O O10 1.000000 0.347901 1.000000
#
# Coordination Sequence:
#
# PCOD8325546 Si02
#       6
#     6   4   6   6  12  12
#     4  10  20  36  48  84 120 154 202 244 276 378
#     4  10  20  34  52  74 124 172 194 232 289 356
#     4  10  20  36  55  81 115 150 196 241 294 347
#     4  10  20  36  55  81 115 150 196 241 294 347
#     4  10  22  39  61  88 117 155 199 246 298 356
#     4  10  22  39  61  88 117 155 199 246 298 356
#
# _framework density 19.681909000000001
#
# number of rings (size 3 to 8) (size 9 to 14) (size 15 to 20)
#    0.000    2.087    2.609    1.304    3.652    2.087 
#    0.000    2.609    0.000    0.522    0.000    0.000 
#    0.000    0.000    0.000    0.000    0.000    0.000 
#
# Total GULP energy -570417.463171 kJ/mol
# GULP energy per Si atom -12400.379634 kJ/mol
# Density = 1.963711 g / cm^3
# Si number density = 19.681909 Si / 1000 Ang^3
#
#
#
# Elastic Constant Matrix: (Units=GPa)
#
#
# Indices 1 2 3 4 5 6 
#
# 1 111.5147 57.8449 29.1138 0.0000 0.0000 0.0000
# 2 57.8449 111.5147 29.1138 0.0000 0.0000 0.0000
# 3 29.1138 29.1138 105.3258 0.0000 0.0000 0.0000
# 4 0.0000 0.0000 0.0000 21.0823 0.0000 0.0000
# 5 0.0000 0.0000 0.0000 0.0000 21.0823 0.0000
# 6 0.0000 0.0000 0.0000 0.0000 0.0000 26.8349
#
#
#
# Elastic Compliance Matrix: (Units=1/GPa)
#
#
# Indices 1 2 3 4 5 6 
#
# 1 0.012579 -0.006054 -0.001804 0.000000 0.000000 0.000000
# 2 -0.006054 0.012579 -0.001804 0.000000 0.000000 0.000000
# 3 -0.001804 -0.001804 0.010491 0.000000 0.000000 0.000000
# 4 0.000000 0.000000 0.000000 0.047433 0.000000 0.000000
# 5 0.000000 0.000000 0.000000 0.000000 0.047433 0.000000
# 6 0.000000 0.000000 0.000000 0.000000 0.000000 0.037265
#
#
# Mechanical properties :
#
#
# Convention : Reuss Voigt Hill
#
# Bulk Modulus (GPa) = 61.24964 62.27781 61.76372
# Shear Modulus (GPa) = 25.96810 27.95207 26.96009
#
# Velocity S-wave (km/s) = 3.63628 3.77263 3.70508
# Velocity P-wave (km/s) = 6.98694 7.11954 7.05355
#
# Compressibility (1/GPa) = 0.01632663
#
# Stress axis : x y z
#
# Youngs Moduli (GPa) = 79.50042 79.50042 95.31613
#
# Poissons Ratio (x) = 0.48129 0.17191
# Poissons Ratio (y) = 0.48129 0.17191
# Poissons Ratio (z) = 0.14338 0.14338
#
# Static dielectric constant tensor:
#      x y z
#    x 3.401630 0.000000 0.000000 
#    y 0.000000 3.401630 0.000000 
#    z 0.000000 0.000000 3.606520 
# 
# 
# High freq. dielectric constant tensor:
#      x y z
#    x 1.762580 0.000000 0.000000 
#    y 0.000000 1.762580 0.000000 
#    z 0.000000 0.000000 1.759840 
# 
# From -- ./inp_files/2531.got.cif
#   From: 2010.06.25/outbox.cif.g09.slc.cpg/sg176_2_cif.got.tgz:2531.got - 2010.06.28 12:15:01.
