data_PCOD8325109
_publ_section_title
;
Structure prediction by ZEFSAII (Michael W. Deem and Ramdas Pophale) SiO2 
 PCOD8325109
Probable space group: P 6/M
;
_chemical_formula_sum "Si O2"
_cell_formula_units_Z 66
_cell_length_a 14.610361
_cell_length_b 14.610361
_cell_length_c 20.389435
_cell_angle_alpha 90.000000
_cell_angle_beta 90.000000
_cell_angle_gamma 120.000000
_cell_volume 3769.274070
_symmetry_space_group_name_H-M "P 6/M"
_symmetry_group_IT_number 175
_symmetry_cell_setting 'hexagonal'
loop_
_space_group_symop_operation_xyz
x,y,z
x-y,x,z
-y,x-y,z
-x,-y,z
-x+y,-x,z
y,-x+y,z
-x,-y,-z
-x+y,-x,-z
y,-x+y,-z
x,y,-z
x-y,x,-z
-y,x-y,-z
loop_
_atom_site_type_symbol
_atom_site_label
_atom_site_fract_x
_atom_site_fract_y
_atom_site_fract_z
Si Si1 0.755140 0.903426 0.069172
Si Si2 0.089588 0.848813 0.576713
Si Si3 0.250477 0.098844 0.212109
Si Si4 0.800777 0.415557 0.500000
Si Si5 0.422973 0.881779 0.642853
Si Si6 0.230381 0.420114 0.676480
O O1 0.818140 0.842060 0.068583
O O2 0.695006 0.879693 0.139143
O O3 0.686904 0.876521 0.000000
O O4 0.097301 0.833619 0.500000
O O5 0.130148 0.778579 0.612533
O O6 0.970257 0.810449 0.598369
O O7 0.190985 0.165904 0.223701
O O8 0.349410 0.135767 0.259991
O O9 0.712663 0.452607 0.500000
O O10 0.871554 0.461271 0.564304
O O11 0.471717 0.814130 0.673568
O O12 0.313266 0.854302 0.676558
O O13 0.500000 0.000000 0.663046
#
# Coordination Sequence:
#
# PCOD8325109 Si02
#       6
#    12  12  12   6  12  12
#     4   8  13  22  40  70 108 146 175 196 224 272
#     4  10  21  36  54  76 104 133 161 193 238 303
#     4  10  19  32  52  80 114 145 171 199 237 295
#     4  10  19  40  56  72  92 118 152 214 257 306
#     4  12  24  38  56  71  93 126 160 209 269 305
#     4  12  24  40  51  74  97 125 171 218 257 309
#
# _framework density 17.510000999999999
#
# number of rings (size 3 to 8) (size 9 to 14) (size 15 to 20)
#    0.182    1.455    1.818    4.455    2.545    2.909 
#    0.000    1.818    0.000    0.000    0.000    1.273 
#    0.000    7.273    0.000    0.000    0.000    0.000 
#
# Total GULP energy -817789.816003 kJ/mol
# GULP energy per Si atom -12390.754788 kJ/mol
# Density = 1.747015 g / cm^3
# Si number density = 17.510001 Si / 1000 Ang^3
#
#
#
# Elastic Constant Matrix: (Units=GPa)
#
#
# Indices 1 2 3 4 5 6 
#
# 1 52.9100 -9.4280 27.3410 0.0000 0.0000 0.0000
# 2 -9.4280 52.9100 27.3410 0.0000 0.0000 0.0000
# 3 27.3410 27.3410 105.5058 0.0000 0.0000 0.0000
# 4 0.0000 0.0000 0.0000 7.8806 0.0000 0.0000
# 5 0.0000 0.0000 0.0000 0.0000 7.8806 0.0000
# 6 0.0000 0.0000 0.0000 0.0000 0.0000 31.1690
#
#
#
# Elastic Compliance Matrix: (Units=1/GPa)
#
#
# Indices 1 2 3 4 5 6 
#
# 1 0.025079 0.009037 -0.008841 0.000000 0.000000 0.000000
# 2 0.009037 0.025079 -0.008841 0.000000 0.000000 0.000000
# 3 -0.008841 -0.008841 0.014060 0.000000 0.000000 0.000000
# 4 0.000000 0.000000 0.000000 0.126893 0.000000 0.000000
# 5 0.000000 0.000000 0.000000 0.000000 0.126893 0.000000
# 6 0.000000 0.000000 0.000000 0.000000 0.000000 0.032083
#
#
# Mechanical properties :
#
#
# Convention : Reuss Voigt Hill
#
# Bulk Modulus (GPa) = 21.30886 33.53711 27.42298
# Shear Modulus (GPa) = 13.05417 20.45752 16.75584
#
# Velocity S-wave (km/s) = 2.73339 3.42180 3.09678
# Velocity P-wave (km/s) = 4.70722 5.89969 5.33686
#
# Compressibility (1/GPa) = 0.04692885
#
# Stress axis : x y z
#
# Youngs Moduli (GPa) = 39.87420 39.87420 71.12231
#
# Poissons Ratio (x) = -0.36036 0.62879
# Poissons Ratio (y) = -0.36036 0.62879
# Poissons Ratio (z) = 0.35253 0.35253
#
# Static dielectric constant tensor:
#      x y z
#    x 3.189680 0.000000 0.000000 
#    y 0.000000 3.189680 0.000000 
#    z 0.000000 0.000000 3.754970 
# 
# 
# High freq. dielectric constant tensor:
#      x y z
#    x 1.662410 0.000000 0.000000 
#    y 0.000000 1.662410 0.000000 
#    z 0.000000 0.000000 1.673170 
# 
# From -- ./inp_files/3112.got.cif
#   From: 2010.03.12/outbox.cif.g09.slc.cpg/sg175_2_cif.got.tgz:3112.got - 2010.04.02 06:55:29.
