data_PCOD8325374
_publ_section_title
;
Structure prediction by ZEFSAII (Michael W. Deem and Ramdas Pophale) SiO2 
 PCOD8325374
Probable space group: P 6/M
;
_chemical_formula_sum "Si O2"
_cell_formula_units_Z 40
_cell_length_a 16.286882
_cell_length_b 16.286882
_cell_length_c 8.745394
_cell_angle_alpha 90.000000
_cell_angle_beta 90.000000
_cell_angle_gamma 120.000000
_cell_volume 2009.027640
_symmetry_space_group_name_H-M "P 6/M"
_symmetry_group_IT_number 175
_symmetry_cell_setting 'hexagonal'
loop_
_space_group_symop_operation_xyz
x,y,z
x-y,x,z
-y,x-y,z
-x,-y,z
-x+y,-x,z
y,-x+y,z
-x,-y,-z
-x+y,-x,-z
y,-x+y,-z
x,y,-z
x-y,x,-z
-y,x-y,-z
loop_
_atom_site_type_symbol
_atom_site_label
_atom_site_fract_x
_atom_site_fract_y
_atom_site_fract_z
Si Si1 0.666667 0.333334 0.321734
Si Si2 0.715409 0.626094 0.318368
Si Si3 0.366771 0.266776 0.175532
Si Si4 0.438379 0.865965 0.175306
O O1 0.666667 0.333334 0.500000
O O2 0.615881 0.386029 0.262385
O O3 0.719855 0.626327 0.500000
O O4 0.715681 0.721051 0.259163
O O5 0.805253 0.620258 0.255000
O O6 0.615159 0.538989 0.259821
O O7 0.460068 0.370693 0.185949
O O8 0.338612 0.237074 0.000000
O O9 0.459081 0.852851 0.000000
#
# Coordination Sequence:
#
# PCOD8325374 Si02
#       4
#     4  12  12  12
#     4  12  22  32  55  87 124 164 205 252 298 341
#     4  12  25  40  62  91 124 156 201 256 306 351
#     4  11  24  42  64  87 120 162 206 246 300 366
#     4  11  22  38  60  86 122 167 209 244 293 360
#
# _framework density 19.910129000000001
#
# number of rings (size 3 to 8) (size 9 to 14) (size 15 to 20)
#    0.000    0.600    3.000    6.300    0.000    7.200 
#    0.000    0.000    0.000    0.600    0.000    4.200 
#    0.000    0.000    0.000    0.000    0.000    0.000 
#
# Total GULP energy -495722.974670 kJ/mol
# GULP energy per Si atom -12393.074367 kJ/mol
# Density = 1.986481 g / cm^3
# Si number density = 19.910129 Si / 1000 Ang^3
#
#
#
# Elastic Constant Matrix: (Units=GPa)
#
#
# Indices 1 2 3 4 5 6 
#
# 1 73.7379 43.3481 59.3969 0.0000 0.0000 0.0002
# 2 43.3481 73.7368 59.3966 0.0000 0.0000 0.0000
# 3 59.3969 59.3966 203.4221 0.0000 0.0000 0.0000
# 4 0.0000 0.0000 0.0000 28.4918 0.0002 0.0000
# 5 0.0000 0.0000 0.0000 0.0002 28.4923 0.0000
# 6 0.0002 0.0000 0.0000 0.0000 0.0000 15.1948
#
#
#
# Elastic Compliance Matrix: (Units=1/GPa)
#
#
# Indices 1 2 3 4 5 6 
#
# 1 0.022521 -0.010385 -0.003544 0.000000 0.000000 0.000000
# 2 -0.010385 0.022521 -0.003544 0.000000 0.000000 0.000000
# 3 -0.003544 -0.003544 0.006985 0.000000 0.000000 0.000000
# 4 0.000000 0.000000 0.000000 0.035098 0.000000 0.000000
# 5 0.000000 0.000000 0.000000 0.000000 0.035097 0.000000
# 6 0.000000 0.000000 0.000000 0.000000 0.000000 0.065812
#
#
# Mechanical properties :
#
#
# Convention : Reuss Voigt Hill
#
# Bulk Modulus (GPa) = 58.53763 75.02001 66.77882
# Shear Modulus (GPa) = 21.86524 27.01946 24.44235
#
# Velocity S-wave (km/s) = 3.31750 3.68784 3.50756
# Velocity P-wave (km/s) = 6.64373 7.47627 7.07226
#
# Compressibility (1/GPa) = 0.01708303
#
# Stress axis : x y z
#
# Youngs Moduli (GPa) = 44.40299 44.40226 143.15880
#
# Poissons Ratio (x) = 0.46112 0.50729
# Poissons Ratio (y) = 0.46113 0.50730
# Poissons Ratio (z) = 0.15734 0.15734
#
# Static dielectric constant tensor:
#      x y z
#    x 3.711350 0.000000 0.000000 
#    y 0.000000 3.711370 0.000000 
#    z 0.000000 0.000000 3.824470 
# 
# 
# High freq. dielectric constant tensor:
#      x y z
#    x 1.771300 0.000000 0.000000 
#    y 0.000000 1.771300 0.000000 
#    z 0.000000 0.000000 1.795300 
# 
# From -- ./inp_files/438.got.cif
#   From: 2010.03.12/outbox.cif.g09.slc.cpg/sg175_1_cif.got.tgz:438.got - 2010.04.02 06:55:29.
