data_PCOD8325689
_publ_section_title
;
Structure prediction by ZEFSAII (Michael W. Deem and Ramdas Pophale) SiO2 
 PCOD8325689
Probable space group: P 63/M
;
_chemical_formula_sum "Si O2"
_cell_formula_units_Z 80
_cell_length_a 18.852831
_cell_length_b 18.852831
_cell_length_c 18.003381
_cell_angle_alpha 90.000000
_cell_angle_beta 90.000000
_cell_angle_gamma 120.000000
_cell_volume 5541.634177
_symmetry_space_group_name_H-M "P 63/M"
_symmetry_group_IT_number 176
_symmetry_cell_setting 'hexagonal'
loop_
_space_group_symop_operation_xyz
x,y,z
x-y,x,1/2+z
-y,x-y,z
-x,-y,1/2+z
-x+y,-x,z
y,-x+y,1/2+z
-x,-y,-z
-x+y,-x,1/2-z
y,-x+y,-z
x,y,1/2-z
x-y,x,-z
-y,x-y,1/2-z
loop_
_atom_site_type_symbol
_atom_site_label
_atom_site_fract_x
_atom_site_fract_y
_atom_site_fract_z
Si Si1 0.205428 0.965671 0.584196
Si Si2 0.879466 0.593232 0.335059
Si Si3 0.847409 0.422950 0.162419
Si Si4 0.878098 0.283344 0.335074
Si Si5 0.666668 0.333334 0.160774
Si Si6 0.094233 0.911518 0.162849
Si Si7 0.038692 0.797189 0.922261
Si Si8 0.000000 0.000000 0.661647
O O1 0.264717 0.932747 0.610389
O O2 0.235959 0.009312 0.505774
O O3 0.110878 0.892099 0.583904
O O4 0.220589 0.037615 0.641357
O O5 0.908613 0.619211 0.250000
O O6 0.893568 0.518640 0.361480
O O7 0.783329 0.564948 0.341370
O O8 0.836372 0.419179 0.250000
O O9 0.893567 0.373017 0.140331
O O10 0.757556 0.377515 0.126785
O O11 0.907009 0.284674 0.250000
O O12 0.930274 0.261957 0.391010
O O13 0.666667 0.333334 0.250000
O O14 0.107785 0.919663 0.250000
O O15 0.182687 0.957937 0.125080
O O16 0.048061 0.956989 0.130646
O O17 0.000000 0.000000 0.750000
#
# Coordination Sequence:
#
# PCOD8325689 Si02
#       8
#    12  12  12  12   4  12  12   4
#     4  11  21  32  44  61  86 116 152 188 225 262
#     4   9  17  28  44  66  90 114 141 174 216 263
#     4   9  14  24  43  67  92 113 135 168 205 256
#     4   9  17  28  44  66  90 114 141 174 216 263
#     4   9  12  18  36  66  93 108 129 153 193 251
#     4  11  20  31  46  63  85 113 152 196 229 260
#     4  11  21  32  44  61  86 116 152 188 225 262
#     4   9  18  27  40  62  79 102 142 188 229 255
#
# _framework density 14.436176
#
# number of rings (size 3 to 8) (size 9 to 14) (size 15 to 20)
#    0.000    2.100    4.500    0.900    0.000    1.200 
#    0.000    2.250    0.000    0.000    0.000    0.000 
#    0.000    0.000    0.000    0.900    0.000   12.150 
#
# Total GULP energy -991524.850320 kJ/mol
# GULP energy per Si atom -12394.060629 kJ/mol
# Density = 1.440332 g / cm^3
# Si number density = 14.436176 Si / 1000 Ang^3
#
#
#
# Elastic Constant Matrix: (Units=GPa)
#
#
# Indices 1 2 3 4 5 6 
#
# 1 74.1279 32.0177 18.2953 0.0000 0.0000 0.0001
# 2 32.0177 74.1275 18.2952 0.0000 0.0000 0.0000
# 3 18.2953 18.2952 41.6296 0.0000 0.0000 -0.0001
# 4 0.0000 0.0000 0.0000 15.8747 -0.0001 0.0000
# 5 0.0000 0.0000 0.0000 -0.0001 15.8746 0.0000
# 6 0.0001 0.0000 -0.0001 0.0000 0.0000 21.0551
#
#
#
# Elastic Compliance Matrix: (Units=1/GPa)
#
#
# Indices 1 2 3 4 5 6 
#
# 1 0.017425 -0.006322 -0.004880 0.000000 0.000000 0.000000
# 2 -0.006322 0.017425 -0.004880 0.000000 0.000000 0.000000
# 3 -0.004880 -0.004880 0.028310 0.000000 0.000000 0.000000
# 4 0.000000 0.000000 0.000000 0.062993 0.000000 0.000000
# 5 0.000000 0.000000 0.000000 0.000000 0.062994 0.000000
# 6 0.000000 0.000000 0.000000 0.000000 0.000000 0.047495
#
#
# Mechanical properties :
#
#
# Convention : Reuss Voigt Hill
#
# Bulk Modulus (GPa) = 32.25988 36.34461 34.30224
# Shear Modulus (GPa) = 17.91233 18.64600 18.27917
#
# Velocity S-wave (km/s) = 3.52631 3.59781 3.56224
# Velocity P-wave (km/s) = 6.24299 6.51841 6.38218
#
# Compressibility (1/GPa) = 0.03099826
#
# Stress axis : x y z
#
# Youngs Moduli (GPa) = 57.38822 57.38790 35.32288
#
# Poissons Ratio (x) = 0.36281 0.17236
# Poissons Ratio (y) = 0.36281 0.17236
# Poissons Ratio (z) = 0.28003 0.28003
#
# Static dielectric constant tensor:
#      x y z
#    x 2.811240 0.000000 0.000000 
#    y 0.000000 2.811240 0.000000 
#    z 0.000000 0.000000 2.548140 
# 
# 
# High freq. dielectric constant tensor:
#      x y z
#    x 1.541190 0.000000 0.000000 
#    y 0.000000 1.541190 0.000000 
#    z 0.000000 0.000000 1.525660 
# 
# From -- ./inp_files/3520.got.cif
#   From: 2010.06.25/outbox.cif.g09.slc.cpg/sg176_2_cif.got.tgz:3520.got - 2010.06.28 12:15:01.
