data_PCOD8325919
_publ_section_title
;
Structure prediction by ZEFSAII (Michael W. Deem and Ramdas Pophale) SiO2 
 PCOD8325919
Probable space group: P 61 2 2
;
_chemical_formula_sum "Si O2"
_cell_formula_units_Z 54
_cell_length_a 12.255534
_cell_length_b 12.255534
_cell_length_c 19.417329
_cell_angle_alpha 90.000000
_cell_angle_beta 90.000000
_cell_angle_gamma 120.000000
_cell_volume 2525.716487
_symmetry_space_group_name_H-M "P 61 2 2"
_symmetry_group_IT_number 178
_symmetry_cell_setting 'hexagonal'
loop_
_space_group_symop_operation_xyz
x,y,z
x-y,x,1/6+z
-y,x-y,1/3+z
-x,-y,1/2+z
-x+y,-x,2/3+z
y,-x+y,5/6+z
x-y,-y,-z
-x,-x+y,2/3-z
y,x,1/3-z
-y,-x,5/6-z
-x+y,y,1/2-z
x,x-y,1/6-z
loop_
_atom_site_type_symbol
_atom_site_label
_atom_site_fract_x
_atom_site_fract_y
_atom_site_fract_z
Si Si1 0.172598 0.827403 0.416667
Si Si2 0.327279 0.288161 0.965836
Si Si3 0.112106 0.556053 0.583334
Si Si4 0.504682 0.190638 0.464044
Si Si5 0.234252 0.468503 0.250000
Si Si6 0.300199 0.211415 0.815851
O O1 0.131968 0.702764 0.368958
O O2 0.056569 0.802133 0.466538
O O3 0.409751 0.439100 0.966195
O O4 0.348736 0.238161 0.893901
O O5 0.178290 0.240383 0.971393
O O6 0.374798 0.238472 0.027931
O O7 0.198709 0.532163 0.636007
O O8 0.633654 0.186910 0.456770
O O9 0.421796 0.125932 0.397176
#
# Coordination Sequence:
#
# PCOD8325919 Si02
#       6
#     6  12   6  12   6  12
#     4  12  22  43  71 111 125 176 246 300 332 400
#     4  11  24  44  68  97 141 185 226 288 346 420
#     4   9  18  41  64  98 137 167 218 290 356 393
#     4  10  23  39  71 105 134 177 230 288 351 412
#     4  11  26  44  65 107 142 191 222 272 374 433
#     4  11  23  45  68  98 136 180 238 293 343 397
#
# _framework density 21.380071999999998
#
# number of rings (size 3 to 8) (size 9 to 14) (size 15 to 20)
#    0.000    1.333    4.444    2.000    0.000    7.111 
#    4.000    3.333    0.000    0.000    0.000    0.000 
#    0.000    0.000    0.000    0.000    0.000    0.000 
#
# Total GULP energy -669591.817256 kJ/mol
# GULP energy per Si atom -12399.848468 kJ/mol
# Density = 2.133141 g / cm^3
# Si number density = 21.380072 Si / 1000 Ang^3
#
#
#
# Elastic Constant Matrix: (Units=GPa)
#
#
# Indices 1 2 3 4 5 6 
#
# 1 91.4697 41.8917 50.6456 0.0000 0.0000 0.0000
# 2 41.8917 91.4697 50.6456 0.0000 0.0000 0.0000
# 3 50.6456 50.6456 150.5015 0.0000 0.0000 0.0000
# 4 0.0000 0.0000 0.0000 33.6176 0.0000 0.0000
# 5 0.0000 0.0000 0.0000 0.0000 33.6176 0.0000
# 6 0.0000 0.0000 0.0000 0.0000 0.0000 24.7890
#
#
#
# Elastic Compliance Matrix: (Units=1/GPa)
#
#
# Indices 1 2 3 4 5 6 
#
# 1 0.015122 -0.005049 -0.003390 0.000000 0.000000 0.000000
# 2 -0.005049 0.015122 -0.003390 0.000000 0.000000 0.000000
# 3 -0.003390 -0.003390 0.008926 0.000000 0.000000 0.000000
# 4 0.000000 0.000000 0.000000 0.029746 0.000000 0.000000
# 5 0.000000 0.000000 0.000000 0.000000 0.029746 0.000000
# 6 0.000000 0.000000 0.000000 0.000000 0.000000 0.040340
#
#
# Mechanical properties :
#
#
# Convention : Reuss Voigt Hill
#
# Bulk Modulus (GPa) = 64.46201 68.86740 66.66471
# Shear Modulus (GPa) = 29.79223 31.08873 30.44048
#
# Velocity S-wave (km/s) = 3.73695 3.81740 3.77739
# Velocity P-wave (km/s) = 6.98826 7.19104 7.09037
#
# Compressibility (1/GPa) = 0.01551301
#
# Stress axis : x y z
#
# Youngs Moduli (GPa) = 66.13058 66.13058 112.03501
#
# Poissons Ratio (x) = 0.33387 0.37976
# Poissons Ratio (y) = 0.33387 0.37976
# Poissons Ratio (z) = 0.22416 0.22416
#
# Static dielectric constant tensor:
#      x y z
#    x 3.952320 0.000000 0.000000 
#    y 0.000000 3.952320 0.000000 
#    z 0.000000 0.000000 3.887720 
# 
# 
# High freq. dielectric constant tensor:
#      x y z
#    x 1.833880 0.000000 0.000000 
#    y 0.000000 1.833880 0.000000 
#    z 0.000000 0.000000 1.841990 
# 
# From -- ./inp_files/7472.got.cif
#   From: 2010.03.12/outbox.cif.g09.slc.cpg/sg178_4_cif.got.tgz:7472.got - 2010.04.02 07:02:38.
