data_PCOD8325349
_publ_section_title
;
Structure prediction by ZEFSAII (Michael W. Deem and Ramdas Pophale) SiO2 
 PCOD8325349
Probable space group: P 6/M
;
_chemical_formula_sum "Si O2"
_cell_formula_units_Z 60
_cell_length_a 22.149036
_cell_length_b 22.149036
_cell_length_c 7.569566
_cell_angle_alpha 90.000000
_cell_angle_beta 90.000000
_cell_angle_gamma 120.000000
_cell_volume 3215.964675
_symmetry_space_group_name_H-M "P 6/M"
_symmetry_group_IT_number 175
_symmetry_cell_setting 'hexagonal'
loop_
_space_group_symop_operation_xyz
x,y,z
x-y,x,z
-y,x-y,z
-x,-y,z
-x+y,-x,z
y,-x+y,z
-x,-y,-z
-x+y,-x,-z
y,-x+y,-z
x,y,-z
x-y,x,-z
-y,x-y,-z
loop_
_atom_site_type_symbol
_atom_site_label
_atom_site_fract_x
_atom_site_fract_y
_atom_site_fract_z
Si Si1 0.431495 0.224063 0.795617
Si Si2 0.862306 0.354716 0.697681
Si Si3 0.839080 0.684247 0.500000
Si Si4 0.368116 0.369190 0.195803
Si Si5 0.269365 0.996265 0.500000
Si Si6 0.125093 0.506387 0.795345
O O1 0.492623 0.205435 0.771319
O O2 0.363614 0.176962 0.675898
O O3 0.470066 0.302636 0.726151
O O4 0.407423 0.217181 0.000000
O O5 0.878664 0.341145 0.500000
O O6 0.852464 0.421615 0.697061
O O7 0.923317 0.359367 0.818855
O O8 0.802184 0.732936 0.500000
O O9 0.924691 0.731886 0.500000
O O10 0.315452 0.309581 0.326155
O O11 0.449080 0.403166 0.250847
O O12 0.355681 0.334826 0.000000
O O13 0.138343 0.525171 0.000000
#
# Coordination Sequence:
#
# PCOD8325349 Si02
#       6
#    12  12   6  12   6  12
#     4  11  22  40  61  82 119 163 211 264 309 353
#     4  12  23  35  57  85 119 161 204 255 304 356
#     4  12  24  42  64  97 122 156 192 244 308 373
#     4  11  21  37  60  88 119 157 197 247 301 353
#     4  12  24  40  65  95 126 152 194 242 308 376
#     4  10  23  37  55  82 114 160 205 253 305 355
#
# _framework density 18.656922000000002
#
# number of rings (size 3 to 8) (size 9 to 14) (size 15 to 20)
#    0.000    0.800    6.000    2.400    2.800    2.400 
#    1.200    0.000    0.000    0.200    0.000    0.000 
#    0.000    0.000    0.000    3.600    0.000    0.000 
#
# Total GULP energy -743657.695523 kJ/mol
# GULP energy per Si atom -12394.294925 kJ/mol
# Density = 1.861446 g / cm^3
# Si number density = 18.656922 Si / 1000 Ang^3
#
#
#
# Elastic Constant Matrix: (Units=GPa)
#
#
# Indices 1 2 3 4 5 6 
#
# 1 89.6143 30.8889 33.7694 0.0000 0.0000 0.0000
# 2 30.8889 89.6143 33.7694 0.0000 0.0000 0.0000
# 3 33.7694 33.7694 88.4646 0.0000 0.0000 0.0000
# 4 0.0000 0.0000 0.0000 19.1033 0.0000 0.0000
# 5 0.0000 0.0000 0.0000 0.0000 19.1033 0.0000
# 6 0.0000 0.0000 0.0000 0.0000 0.0000 29.3627
#
#
#
# Elastic Compliance Matrix: (Units=1/GPa)
#
#
# Indices 1 2 3 4 5 6 
#
# 1 0.013793 -0.003236 -0.004030 0.000000 0.000000 0.000000
# 2 -0.003236 0.013793 -0.004030 0.000000 0.000000 0.000000
# 3 -0.004030 -0.004030 0.014381 0.000000 0.000000 0.000000
# 4 0.000000 0.000000 0.000000 0.052347 0.000000 0.000000
# 5 0.000000 0.000000 0.000000 0.000000 0.052347 0.000000
# 6 0.000000 0.000000 0.000000 0.000000 0.000000 0.034057
#
#
# Mechanical properties :
#
#
# Convention : Reuss Voigt Hill
#
# Bulk Modulus (GPa) = 51.61242 51.61652 51.61447
# Shear Modulus (GPa) = 23.83600 24.79822 24.31711
#
# Velocity S-wave (km/s) = 3.57822 3.64973 3.61416
# Velocity P-wave (km/s) = 6.69295 6.74440 6.71873
#
# Compressibility (1/GPa) = 0.01937518
#
# Stress axis : x y z
#
# Youngs Moduli (GPa) = 72.50147 72.50147 69.53778
#
# Poissons Ratio (x) = 0.23458 0.28024
# Poissons Ratio (y) = 0.23458 0.28024
# Poissons Ratio (z) = 0.29218 0.29218
#
# Static dielectric constant tensor:
#      x y z
#    x 3.507050 0.000000 0.000000 
#    y 0.000000 3.507050 0.000000 
#    z 0.000000 0.000000 3.566650 
# 
# 
# High freq. dielectric constant tensor:
#      x y z
#    x 1.706850 0.000000 0.000000 
#    y 0.000000 1.706850 0.000000 
#    z 0.000000 0.000000 1.742520 
# 
# From -- ./inp_files/918.got.cif
#   From: 2010.03.12/outbox.cif.g09.slc.cpg/sg175_1_cif.got.tgz:918.got - 2010.04.02 06:55:29.
