data_PCOD8325266
_publ_section_title
;
Structure prediction by ZEFSAII (Michael W. Deem and Ramdas Pophale) SiO2 
 PCOD8325266
Probable space group: P 6/M
;
_chemical_formula_sum "Si O2"
_cell_formula_units_Z 66
_cell_length_a 20.323305
_cell_length_b 20.323305
_cell_length_c 9.739297
_cell_angle_alpha 90.000000
_cell_angle_beta 90.000000
_cell_angle_gamma 120.000000
_cell_volume 3483.749435
_symmetry_space_group_name_H-M "P 6/M"
_symmetry_group_IT_number 175
_symmetry_cell_setting 'hexagonal'
loop_
_space_group_symop_operation_xyz
x,y,z
x-y,x,z
-y,x-y,z
-x,-y,z
-x+y,-x,z
y,-x+y,z
-x,-y,-z
-x+y,-x,-z
y,-x+y,-z
x,y,-z
x-y,x,-z
-y,x-y,-z
loop_
_atom_site_type_symbol
_atom_site_label
_atom_site_fract_x
_atom_site_fract_y
_atom_site_fract_z
Si Si1 0.825319 0.278248 0.844434
Si Si2 0.230367 0.933193 0.349535
Si Si3 0.911007 0.455914 0.158625
Si Si4 0.306480 0.838483 0.665008
Si Si5 0.095558 0.177265 0.000000
Si Si6 0.809752 0.718344 0.231444
O O1 0.876241 0.367093 0.815462
O O2 0.756124 0.240493 0.735559
O O3 0.883023 0.246837 0.828722
O O4 0.792409 0.262577 0.000000
O O5 0.254495 0.968065 0.500000
O O6 0.286478 0.903895 0.298006
O O7 0.145391 0.859476 0.357088
O O8 0.239047 0.001980 0.257719
O O9 0.865479 0.478693 0.264600
O O10 0.000000 0.500000 0.196355
O O11 0.899614 0.472985 0.000000
O O12 0.308547 0.826958 0.500000
O O13 0.127082 0.120446 0.000000
O O14 0.122773 0.232155 0.871277
#
# Coordination Sequence:
#
# PCOD8325266 Si02
#       6
#    12  12  12  12   6  12
#     4  10  21  37  61  89 118 153 198 249 296 358
#     4  10  21  36  55  80 113 149 193 241 291 355
#     4  10  21  39  61  91 123 155 196 248 310 362
#     4  10  22  39  59  86 118 157 198 244 299 359
#     4  12  23  38  56  86 119 155 195 245 295 349
#     4  11  20  35  58  83 111 148 195 239 296 348
#
# _framework density 18.945105000000002
#
# number of rings (size 3 to 8) (size 9 to 14) (size 15 to 20)
#    0.000    1.636    2.727    2.273    0.000    1.818 
#    2.727    0.000    0.000    0.000    0.000    2.545 
#    0.000    0.000    0.000    0.000    0.000    0.000 
#
# Total GULP energy -818070.122707 kJ/mol
# GULP energy per Si atom -12395.001859 kJ/mol
# Density = 1.890199 g / cm^3
# Si number density = 18.945105 Si / 1000 Ang^3
#
#
#
# Elastic Constant Matrix: (Units=GPa)
#
#
# Indices 1 2 3 4 5 6 
#
# 1 118.0742 55.2369 45.0161 0.0000 0.0000 0.0000
# 2 55.2369 118.0742 45.0161 0.0000 0.0000 0.0000
# 3 45.0161 45.0161 88.9288 0.0000 0.0000 0.0000
# 4 0.0000 0.0000 0.0000 25.3794 0.0000 0.0000
# 5 0.0000 0.0000 0.0000 0.0000 25.3794 0.0000
# 6 0.0000 0.0000 0.0000 0.0000 0.0000 31.4186
#
#
#
# Elastic Compliance Matrix: (Units=1/GPa)
#
#
# Indices 1 2 3 4 5 6 
#
# 1 0.011871 -0.004043 -0.003963 0.000000 0.000000 0.000000
# 2 -0.004043 0.011871 -0.003963 0.000000 0.000000 0.000000
# 3 -0.003963 -0.003963 0.015257 0.000000 0.000000 0.000000
# 4 0.000000 0.000000 0.000000 0.039402 0.000000 0.000000
# 5 0.000000 0.000000 0.000000 0.000000 0.039402 0.000000
# 6 0.000000 0.000000 0.000000 0.000000 0.000000 0.031828
#
#
# Mechanical properties :
#
#
# Convention : Reuss Voigt Hill
#
# Bulk Modulus (GPa) = 66.38906 68.40173 67.39539
# Shear Modulus (GPa) = 27.99709 28.42269 28.20989
#
# Velocity S-wave (km/s) = 3.84839 3.87753 3.86299
# Velocity P-wave (km/s) = 7.40714 7.49870 7.45306
#
# Compressibility (1/GPa) = 0.01506272
#
# Stress axis : x y z
#
# Youngs Moduli (GPa) = 84.23626 84.23626 65.54371
#
# Poissons Ratio (x) = 0.34055 0.25974
# Poissons Ratio (y) = 0.34055 0.25974
# Poissons Ratio (z) = 0.33382 0.33382
#
# Static dielectric constant tensor:
#      x y z
#    x 3.385350 0.000000 0.000000 
#    y 0.000000 3.385350 0.000000 
#    z 0.000000 0.000000 3.496370 
# 
# 
# High freq. dielectric constant tensor:
#      x y z
#    x 1.739420 0.000000 0.000000 
#    y 0.000000 1.739420 0.000000 
#    z 0.000000 0.000000 1.738130 
# 
# From -- ./inp_files/992.got.cif
#   From: 2010.03.12/outbox.cif.g09.slc.cpg/sg175_1_cif.got.tgz:992.got - 2010.04.02 06:55:29.
