data_PCOD8325834
_publ_section_title
;
Structure prediction by ZEFSAII (Michael W. Deem and Ramdas Pophale) SiO2 
 PCOD8325834
Probable space group: P 61 2 2
;
_chemical_formula_sum "Si O2"
_cell_formula_units_Z 66
_cell_length_a 19.602070
_cell_length_b 19.602070
_cell_length_c 11.685279
_cell_angle_alpha 90.000000
_cell_angle_beta 90.000000
_cell_angle_gamma 120.000000
_cell_volume 3888.423770
_symmetry_space_group_name_H-M "P 61 2 2"
_symmetry_group_IT_number 178
_symmetry_cell_setting 'hexagonal'
loop_
_space_group_symop_operation_xyz
x,y,z
x-y,x,1/6+z
-y,x-y,1/3+z
-x,-y,1/2+z
-x+y,-x,2/3+z
y,-x+y,5/6+z
x-y,-y,-z
-x,-x+y,2/3-z
y,x,1/3-z
-y,-x,5/6-z
-x+y,y,1/2-z
x,x-y,1/6-z
loop_
_atom_site_type_symbol
_atom_site_label
_atom_site_fract_x
_atom_site_fract_y
_atom_site_fract_z
Si Si1 0.711119 0.000000 0.500000
Si Si2 0.333084 0.166542 0.083334
Si Si3 0.601748 0.300874 0.083334
Si Si4 0.532376 0.767552 0.758325
Si Si5 0.521325 0.578039 0.072137
Si Si6 0.688527 0.212281 0.014852
Si Si7 0.566405 0.633906 0.827321
O O1 0.795119 0.075066 0.459445
O O2 0.672159 0.018722 0.608148
O O3 0.389387 0.172512 0.188313
O O4 0.545856 0.251060 0.188482
O O5 0.663768 0.274404 0.052610
O O6 0.534306 0.811095 0.875883
O O7 0.527620 0.684821 0.785652
O O8 0.582719 0.582719 0.166667
O O9 0.471310 0.611239 0.131941
O O10 0.570836 0.632005 0.965050
O O11 0.457407 0.487748 0.041909
O O12 0.754256 0.245745 0.916667
#
# Coordination Sequence:
#
# PCOD8325834 Si02
#       7
#     6   6   6  12  12  12  12
#     4  10  20  40  58  84 106 142 168 220 264 330
#     4   9  22  36  62  78 110 136 174 212 268 318
#     4  11  22  32  48  70 100 138 186 240 284 318
#     4  10  20  36  49  73 100 140 179 227 275 319
#     4  11  23  35  51  71  99 143 183 233 280 320
#     4  12  22  34  52  73 101 136 185 237 282 319
#     4  10  20  38  51  70 107 135 182 227 273 321
#
# _framework density 16.973459999999999
#
# number of rings (size 3 to 8) (size 9 to 14) (size 15 to 20)
#    0.000    1.455    4.545    1.636    2.545    0.000 
#    3.273    0.000    0.000    0.000    0.000    0.000 
#    0.000    5.818    0.000    0.000    0.000    0.000 
#
# Total GULP energy -818182.264748 kJ/mol
# GULP energy per Si atom -12396.700981 kJ/mol
# Density = 1.693483 g / cm^3
# Si number density = 16.973460 Si / 1000 Ang^3
#
#
#
# Elastic Constant Matrix: (Units=GPa)
#
#
# Indices 1 2 3 4 5 6 
#
# 1 61.5133 27.2895 33.3725 0.0000 0.0000 0.0000
# 2 27.2895 61.5133 33.3725 0.0000 0.0000 0.0000
# 3 33.3725 33.3725 126.0874 0.0000 0.0000 0.0000
# 4 0.0000 0.0000 0.0000 56.8229 0.0000 0.0000
# 5 0.0000 0.0000 0.0000 0.0000 56.8229 0.0000
# 6 0.0000 0.0000 0.0000 0.0000 0.0000 17.1119
#
#
#
# Elastic Compliance Matrix: (Units=1/GPa)
#
#
# Indices 1 2 3 4 5 6 
#
# 1 0.021638 -0.007581 -0.003721 0.000000 0.000000 0.000000
# 2 -0.007581 0.021638 -0.003721 0.000000 0.000000 0.000000
# 3 -0.003721 -0.003721 0.009901 0.000000 0.000000 0.000000
# 4 0.000000 0.000000 0.000000 0.017599 0.000000 0.000000
# 5 0.000000 0.000000 0.000000 0.000000 0.017599 0.000000
# 6 0.000000 0.000000 0.000000 0.000000 0.000000 0.058439
#
#
# Mechanical properties :
#
#
# Convention : Reuss Voigt Hill
#
# Bulk Modulus (GPa) = 43.22894 48.57590 45.90242
# Shear Modulus (GPa) = 27.09017 36.49020 31.79018
#
# Velocity S-wave (km/s) = 3.99937 4.64167 4.33244
# Velocity P-wave (km/s) = 6.84474 7.57678 7.22004
#
# Compressibility (1/GPa) = 0.02313265
#
# Stress axis : x y z
#
# Youngs Moduli (GPa) = 46.21414 46.21414 101.00435
#
# Poissons Ratio (x) = 0.35035 0.37580
# Poissons Ratio (y) = 0.35035 0.37580
# Poissons Ratio (z) = 0.17195 0.17195
#
# Static dielectric constant tensor:
#      x y z
#    x 2.647270 0.000000 0.000000 
#    y 0.000000 2.647270 0.000000 
#    z 0.000000 0.000000 3.538480 
# 
# 
# High freq. dielectric constant tensor:
#      x y z
#    x 1.621960 0.000000 0.000000 
#    y 0.000000 1.621960 0.000000 
#    z 0.000000 0.000000 1.678160 
# 
# From -- ./inp_files/4706.got.cif
#   From: 2010.03.12/outbox.cif.g09.slc.cpg/sg178_3_cif.got.tgz:4706.got - 2010.04.02 07:02:38.
