data_PCOD8325628
_publ_section_title
;
Structure prediction by ZEFSAII (Michael W. Deem and Ramdas Pophale) SiO2 
 PCOD8325628
Probable space group: P 63/M
;
_chemical_formula_sum "Si O2"
_cell_formula_units_Z 64
_cell_length_a 14.616944
_cell_length_b 14.616944
_cell_length_c 18.094097
_cell_angle_alpha 90.000000
_cell_angle_beta 90.000000
_cell_angle_gamma 120.000000
_cell_volume 3347.963481
_symmetry_space_group_name_H-M "P 63/M"
_symmetry_group_IT_number 176
_symmetry_cell_setting 'hexagonal'
loop_
_space_group_symop_operation_xyz
x,y,z
x-y,x,1/2+z
-y,x-y,z
-x,-y,1/2+z
-x+y,-x,z
y,-x+y,1/2+z
-x,-y,-z
-x+y,-x,1/2-z
y,-x+y,-z
x,y,1/2-z
x-y,x,-z
-y,x-y,1/2-z
loop_
_atom_site_type_symbol
_atom_site_label
_atom_site_fract_x
_atom_site_fract_y
_atom_site_fract_z
Si Si1 0.880581 0.116263 0.373366
Si Si2 0.333334 0.666667 0.837363
Si Si3 0.167699 0.821898 0.018612
Si Si4 0.406198 0.392817 0.027838
Si Si5 0.448281 0.313223 0.165894
Si Si6 0.117420 0.237116 0.167410
O O1 0.875022 0.119003 0.463457
O O2 0.806750 0.159037 0.339835
O O3 0.994118 0.191485 0.340752
O O4 0.850968 0.000672 0.346712
O O5 0.333334 0.666668 0.750000
O O6 0.444922 0.681074 0.865123
O O7 0.152467 0.827131 0.105620
O O8 0.094250 0.697467 0.001457
O O9 0.293419 0.877818 0.004440
O O10 0.416814 0.386111 0.116687
O O11 0.500000 0.500000 0.000000
O O12 0.462701 0.353864 0.250000
O O13 0.152869 0.284520 0.250000
#
# Coordination Sequence:
#
# PCOD8325628 Si02
#       6
#    12   4  12  12  12  12
#     4  11  22  37  56  85 127 166 205 244 302 373
#     4   9  21  36  60  96 120 150 202 263 334 372
#     4  11  22  42  62  87 124 162 204 260 310 368
#     4  11  25  42  65  90 123 164 215 251 316 383
#     4  10  21  39  63  90 125 159 203 266 318 369
#     4  12  21  34  58  89 124 162 204 248 301 366
#
# _framework density 19.116098000000001
#
# number of rings (size 3 to 8) (size 9 to 14) (size 15 to 20)
#    0.000    1.125    5.625    2.062    5.250    0.000 
#    1.125    2.812    0.000    0.000    0.000    0.000 
#    0.000    0.000    0.000    0.000    0.000    0.000 
#
# Total GULP energy -793029.738818 kJ/mol
# GULP energy per Si atom -12391.089669 kJ/mol
# Density = 1.907259 g / cm^3
# Si number density = 19.116098 Si / 1000 Ang^3
#
#
#
# Elastic Constant Matrix: (Units=GPa)
#
#
# Indices 1 2 3 4 5 6 
#
# 1 101.9110 48.1116 23.3828 0.0000 0.0000 -0.0002
# 2 48.1116 101.9110 23.3826 0.0000 0.0000 -0.0004
# 3 23.3828 23.3826 137.4134 0.0000 0.0000 0.0001
# 4 0.0000 0.0000 0.0000 19.8793 0.0000 0.0000
# 5 0.0000 0.0000 0.0000 0.0000 19.8792 0.0000
# 6 -0.0002 -0.0004 0.0001 0.0000 0.0000 26.8996
#
#
#
# Elastic Compliance Matrix: (Units=1/GPa)
#
#
# Indices 1 2 3 4 5 6 
#
# 1 0.012813 -0.005774 -0.001198 0.000000 0.000000 0.000000
# 2 -0.005774 0.012813 -0.001198 0.000000 0.000000 0.000000
# 3 -0.001198 -0.001198 0.007685 0.000000 0.000000 0.000000
# 4 0.000000 0.000000 0.000000 0.050304 0.000000 0.000000
# 5 0.000000 0.000000 0.000000 0.000000 0.050304 0.000000
# 6 0.000000 0.000000 0.000000 0.000000 0.000000 0.037175
#
#
# Mechanical properties :
#
#
# Convention : Reuss Voigt Hill
#
# Bulk Modulus (GPa) = 58.92097 58.99882 58.95989
# Shear Modulus (GPa) = 25.89448 29.75550 27.82499
#
# Velocity S-wave (km/s) = 3.68447 3.94962 3.81934
# Velocity P-wave (km/s) = 6.99929 7.19234 7.09647
#
# Compressibility (1/GPa) = 0.01697189
#
# Stress axis : x y z
#
# Youngs Moduli (GPa) = 78.04383 78.04385 130.12449
#
# Poissons Ratio (x) = 0.45065 0.15586
# Poissons Ratio (y) = 0.45065 0.15586
# Poissons Ratio (z) = 0.09348 0.09348
#
# Static dielectric constant tensor:
#      x y z
#    x 3.568510 0.000000 0.000000 
#    y 0.000000 3.568520 0.000000 
#    z 0.000000 0.000000 3.837510 
# 
# 
# High freq. dielectric constant tensor:
#      x y z
#    x 1.729000 0.000000 0.000000 
#    y 0.000000 1.729000 0.000000 
#    z 0.000000 0.000000 1.754760 
# 
# From -- ./inp_files/3304.got.cif
#   From: 2010.06.25/outbox.cif.g09.slc.cpg/sg176_2_cif.got.tgz:3304.got - 2010.06.28 12:15:01.
