data_PCOD8325171
_publ_section_title
;
Structure prediction by ZEFSAII (Michael W. Deem and Ramdas Pophale) SiO2 
 PCOD8325171
Probable space group: P 6/M
;
_chemical_formula_sum "Si O2"
_cell_formula_units_Z 72
_cell_length_a 26.057182
_cell_length_b 26.057182
_cell_length_c 7.751268
_cell_angle_alpha 90.000000
_cell_angle_beta 90.000000
_cell_angle_gamma 120.000000
_cell_volume 4557.831623
_symmetry_space_group_name_H-M "P 6/M"
_symmetry_group_IT_number 175
_symmetry_cell_setting 'hexagonal'
loop_
_space_group_symop_operation_xyz
x,y,z
x-y,x,z
-y,x-y,z
-x,-y,z
-x+y,-x,z
y,-x+y,z
-x,-y,-z
-x+y,-x,-z
y,-x+y,-z
x,y,-z
x-y,x,-z
-y,x-y,-z
loop_
_atom_site_type_symbol
_atom_site_label
_atom_site_fract_x
_atom_site_fract_y
_atom_site_fract_z
Si Si1 0.885382 0.657511 0.300101
Si Si2 0.931678 0.749584 0.000000
Si Si3 0.888382 0.231076 0.699264
Si Si4 0.571949 0.934364 0.297821
Si Si5 0.535968 0.066060 0.801571
Si Si6 0.934194 0.576391 0.697003
Si Si7 0.065313 0.814836 0.000000
O O1 0.905339 0.676342 0.500000
O O2 0.815903 0.634951 0.279688
O O3 0.894487 0.603579 0.232957
O O4 0.923230 0.712638 0.174571
O O5 0.885339 0.773769 0.000000
O O6 0.998851 0.804362 0.000000
O O7 0.909500 0.233088 0.500000
O O8 0.896169 0.294060 0.757794
O O9 0.926557 0.214737 0.826715
O O10 0.570778 0.939167 0.500000
O O11 0.503020 0.902317 0.234339
O O12 0.609406 0.000412 0.213905
O O13 0.602521 0.097775 0.721294
O O14 0.500000 0.000000 0.719260
O O15 0.546577 0.063033 0.000000
O O16 0.944009 0.593757 0.500000
#
# Coordination Sequence:
#
# PCOD8325171 Si02
#       7
#    12   6  12  12  12  12   6
#     4   9  18  31  46  66  91 118 149 183 220 265
#     4  10  20  32  48  68  91 119 149 183 221 265
#     4   9  18  31  46  66  91 118 149 183 220 265
#     4   9  16  26  40  57  81 113 143 172 209 252
#     4   9  17  25  35  55  81 109 141 175 205 243
#     4   9  16  26  40  57  81 113 143 172 209 252
#     4  10  20  32  48  68  91 119 149 183 221 265
#
# _framework density 15.796987
#
# number of rings (size 3 to 8) (size 9 to 14) (size 15 to 20)
#    0.000    2.833    0.000    1.500    2.333    4.000 
#    0.000    0.000    0.000    0.167    0.000    0.000 
#    1.667    0.000    3.000    8.333    1.000    0.000 
#
# Total GULP energy -891960.411742 kJ/mol
# GULP energy per Si atom -12388.339052 kJ/mol
# Density = 1.576103 g / cm^3
# Si number density = 15.796987 Si / 1000 Ang^3
#
#
#
# Elastic Constant Matrix: (Units=GPa)
#
#
# Indices 1 2 3 4 5 6 
#
# 1 106.1413 56.7016 27.6581 0.0000 0.0000 0.0000
# 2 56.7016 106.1413 27.6581 0.0000 0.0000 0.0000
# 3 27.6581 27.6581 54.3157 0.0000 0.0000 0.0000
# 4 0.0000 0.0000 0.0000 15.8737 0.0000 0.0000
# 5 0.0000 0.0000 0.0000 0.0000 15.8737 0.0000
# 6 0.0000 0.0000 0.0000 0.0000 0.0000 24.7199
#
#
#
# Elastic Compliance Matrix: (Units=1/GPa)
#
#
# Indices 1 2 3 4 5 6 
#
# 1 0.013826 -0.006401 -0.003781 0.000000 0.000000 0.000000
# 2 -0.006401 0.013826 -0.003781 0.000000 0.000000 0.000000
# 3 -0.003781 -0.003781 0.022262 0.000000 0.000000 0.000000
# 4 0.000000 0.000000 0.000000 0.062997 0.000000 0.000000
# 5 0.000000 0.000000 0.000000 0.000000 0.062997 0.000000
# 6 0.000000 0.000000 0.000000 0.000000 0.000000 0.040453
#
#
# Mechanical properties :
#
#
# Convention : Reuss Voigt Hill
#
# Bulk Modulus (GPa) = 45.47934 54.51487 49.99711
# Shear Modulus (GPa) = 19.87155 21.59884 20.73519
#
# Velocity S-wave (km/s) = 3.55058 3.70168 3.62692
# Velocity P-wave (km/s) = 6.75731 7.27011 7.01839
#
# Compressibility (1/GPa) = 0.02198800
#
# Stress axis : x y z
#
# Youngs Moduli (GPa) = 72.32779 72.32779 44.92052
#
# Poissons Ratio (x) = 0.46295 0.16985
# Poissons Ratio (y) = 0.46295 0.16985
# Poissons Ratio (z) = 0.27347 0.27347
#
# Static dielectric constant tensor:
#      x y z
#    x 3.010680 0.000000 0.000000 
#    y 0.000000 3.010680 0.000000 
#    z 0.000000 0.000000 3.070250 
# 
# 
# High freq. dielectric constant tensor:
#      x y z
#    x 1.579010 0.000000 0.000000 
#    y 0.000000 1.579010 0.000000 
#    z 0.000000 0.000000 1.619120 
# 
# From -- ./inp_files/1252.got.cif
#   From: 2010.03.12/outbox.cif.g09.slc.cpg/sg175_1_cif.got.tgz:1252.got - 2010.04.02 06:55:29.
