data_PCOD8325819
_publ_section_title
;
Structure prediction by ZEFSAII (Michael W. Deem and Ramdas Pophale) SiO2 
 PCOD8325819
Probable space group: P 61 2 2
;
_chemical_formula_sum "Si O2"
_cell_formula_units_Z 42
_cell_length_a 16.529923
_cell_length_b 16.529923
_cell_length_c 9.876977
_cell_angle_alpha 90.000000
_cell_angle_beta 90.000000
_cell_angle_gamma 120.000000
_cell_volume 2337.202463
_symmetry_space_group_name_H-M "P 61 2 2"
_symmetry_group_IT_number 178
_symmetry_cell_setting 'hexagonal'
loop_
_space_group_symop_operation_xyz
x,y,z
x-y,x,1/6+z
-y,x-y,1/3+z
-x,-y,1/2+z
-x+y,-x,2/3+z
y,-x+y,5/6+z
x-y,-y,-z
-x,-x+y,2/3-z
y,x,1/3-z
-y,-x,5/6-z
-x+y,y,1/2-z
x,x-y,1/6-z
loop_
_atom_site_type_symbol
_atom_site_label
_atom_site_fract_x
_atom_site_fract_y
_atom_site_fract_z
Si Si1 0.235988 0.859917 0.111096
Si Si2 0.558626 0.117252 0.250000
Si Si3 0.942155 0.643199 0.649074
Si Si4 0.548293 0.283649 0.736950
O O1 0.283387 0.802400 0.166656
O O2 0.267060 0.954023 0.198183
O O3 0.271533 0.895481 0.961917
O O4 0.123957 0.787512 0.117013
O O5 0.602455 0.051958 0.284541
O O6 0.618280 0.178136 0.120837
O O7 0.649550 0.299099 0.750000
O O8 0.510868 0.255434 0.583334
#
# Coordination Sequence:
#
# PCOD8325819 Si02
#       4
#    12   6  12  12
#     4   9  19  33  51  73 101 134 175 217 267 305
#     4  10  20  32  44  70 102 138 174 216 242 302
#     4   9  18  34  52  72 103 134 174 220 263 309
#     4  11  20  31  49  71 103 144 177 211 250 301
#
# _framework density 17.970202
#
# number of rings (size 3 to 8) (size 9 to 14) (size 15 to 20)
#    0.000    2.286    1.429    1.714    6.000    0.000 
#    0.000    4.286    0.000    0.000    0.000    0.000 
#   51.429    0.000    0.000    0.000    0.000    0.000 
#
# Total GULP energy -520348.841461 kJ/mol
# GULP energy per Si atom -12389.258130 kJ/mol
# Density = 1.792930 g / cm^3
# Si number density = 17.970202 Si / 1000 Ang^3
#
#
#
# Elastic Constant Matrix: (Units=GPa)
#
#
# Indices 1 2 3 4 5 6 
#
# 1 95.1833 65.3131 13.5793 0.0000 0.0000 0.0000
# 2 65.3131 95.1833 13.5793 0.0000 0.0000 0.0000
# 3 13.5793 13.5793 38.6453 0.0000 0.0000 0.0000
# 4 0.0000 0.0000 0.0000 21.6926 0.0000 0.0000
# 5 0.0000 0.0000 0.0000 0.0000 21.6926 0.0000
# 6 0.0000 0.0000 0.0000 0.0000 0.0000 14.9351
#
#
#
# Elastic Compliance Matrix: (Units=1/GPa)
#
#
# Indices 1 2 3 4 5 6 
#
# 1 0.020051 -0.013427 -0.002328 0.000000 0.000000 0.000000
# 2 -0.013427 0.020051 -0.002328 0.000000 0.000000 0.000000
# 3 -0.002328 -0.002328 0.027512 0.000000 0.000000 0.000000
# 4 0.000000 0.000000 0.000000 0.046099 0.000000 0.000000
# 5 0.000000 0.000000 0.000000 0.000000 0.046099 0.000000
# 6 0.000000 0.000000 0.000000 0.000000 0.000000 0.066956
#
#
# Mechanical properties :
#
#
# Convention : Reuss Voigt Hill
#
# Bulk Modulus (GPa) = 31.79620 45.99506 38.89563
# Shear Modulus (GPa) = 18.28709 20.76673 19.52691
#
# Velocity S-wave (km/s) = 3.19350 3.40313 3.29998
# Velocity P-wave (km/s) = 5.59734 6.41034 6.01758
#
# Compressibility (1/GPa) = 0.03145030
#
# Stress axis : x y z
#
# Youngs Moduli (GPa) = 49.87186 49.87186 36.34750
#
# Poissons Ratio (x) = 0.66962 0.08461
# Poissons Ratio (y) = 0.66962 0.08461
# Poissons Ratio (z) = 0.11609 0.11609
#
# Static dielectric constant tensor:
#      x y z
#    x 3.513480 0.000000 0.000000 
#    y 0.000000 3.513480 0.000000 
#    z 0.000000 0.000000 4.012570 
# 
# 
# High freq. dielectric constant tensor:
#      x y z
#    x 1.683680 0.000000 0.000000 
#    y 0.000000 1.683680 0.000000 
#    z 0.000000 0.000000 1.684270 
# 
# From -- ./inp_files/3984.got.cif
#   From: 2010.03.12/outbox.cif.g09.slc.cpg/sg178_2_cif.got.tgz:3984.got - 2010.04.02 07:02:38.
