data_PCOD8325981
_publ_section_title
;
Structure prediction by ZEFSAII (Michael W. Deem and Ramdas Pophale) SiO2 
 PCOD8325981
Probable space group: P 61 2 2
;
_chemical_formula_sum "Si O2"
_cell_formula_units_Z 54
_cell_length_a 12.996251
_cell_length_b 12.996251
_cell_length_c 15.720272
_cell_angle_alpha 90.000000
_cell_angle_beta 90.000000
_cell_angle_gamma 120.000000
_cell_volume 2299.465344
_symmetry_space_group_name_H-M "P 61 2 2"
_symmetry_group_IT_number 178
_symmetry_cell_setting 'hexagonal'
loop_
_space_group_symop_operation_xyz
x,y,z
x-y,x,1/6+z
-y,x-y,1/3+z
-x,-y,1/2+z
-x+y,-x,2/3+z
y,-x+y,5/6+z
x-y,-y,-z
-x,-x+y,2/3-z
y,x,1/3-z
-y,-x,5/6-z
-x+y,y,1/2-z
x,x-y,1/6-z
loop_
_atom_site_type_symbol
_atom_site_label
_atom_site_fract_x
_atom_site_fract_y
_atom_site_fract_z
Si Si1 0.348564 0.083183 0.326892
Si Si2 0.458970 0.509776 0.759713
Si Si3 0.537651 0.846207 0.653877
Si Si4 0.665134 0.330267 0.250000
Si Si5 0.142851 0.863124 0.508667
O O1 0.408134 0.162310 0.244402
O O2 0.369959 0.161340 0.412369
O O3 0.390072 0.986035 0.340393
O O4 0.207634 0.999124 0.309167
O O5 0.454532 0.454532 0.666667
O O6 0.596019 0.575859 0.792306
O O7 0.401295 0.593832 0.760769
O O8 0.587164 0.793582 0.583334
O O9 0.394468 0.758303 0.667762
O O10 0.175287 0.824714 0.416667
O O11 0.181088 0.000000 0.500000
#
# Coordination Sequence:
#
# PCOD8325981 Si02
#       5
#    12  12  12   6  12
#     4  11  24  41  71 106 142 199 242 308 396 449
#     4  12  26  43  73 104 149 195 248 319 384 465
#     4  12  27  50  69 107 158 205 258 310 389 482
#     4  12  28  48  72 112 154 200 268 322 392 476
#     4   9  20  39  68 104 141 178 242 311 369 453
#
# _framework density 23.483720000000002
#
# number of rings (size 3 to 8) (size 9 to 14) (size 15 to 20)
#    0.000    0.889    4.444    2.000   10.889    1.778 
#    0.000    0.000    0.000   28.000    0.000    0.000 
#    0.000    0.000    0.000    0.000    0.000    0.000 
#
# Total GULP energy -669031.700407 kJ/mol
# GULP energy per Si atom -12389.475933 kJ/mol
# Density = 2.343027 g / cm^3
# Si number density = 23.483720 Si / 1000 Ang^3
#
#
#
# Elastic Constant Matrix: (Units=GPa)
#
#
# Indices 1 2 3 4 5 6 
#
# 1 102.9296 49.4051 63.2691 0.0000 0.0000 0.0000
# 2 49.4051 102.9296 63.2691 0.0000 0.0000 0.0000
# 3 63.2691 63.2691 204.1794 0.0000 0.0000 0.0000
# 4 0.0000 0.0000 0.0000 39.2075 0.0000 0.0000
# 5 0.0000 0.0000 0.0000 0.0000 39.2075 0.0000
# 6 0.0000 0.0000 0.0000 0.0000 0.0000 26.7622
#
#
#
# Elastic Compliance Matrix: (Units=1/GPa)
#
#
# Indices 1 2 3 4 5 6 
#
# 1 0.013761 -0.004922 -0.002739 0.000000 0.000000 0.000000
# 2 -0.004922 0.013761 -0.002739 0.000000 0.000000 0.000000
# 3 -0.002739 -0.002739 0.006595 0.000000 0.000000 0.000000
# 4 0.000000 0.000000 0.000000 0.025505 0.000000 0.000000
# 5 0.000000 0.000000 0.000000 0.000000 0.025505 0.000000
# 6 0.000000 0.000000 0.000000 0.000000 0.000000 0.037366
#
#
# Mechanical properties :
#
#
# Convention : Reuss Voigt Hill
#
# Bulk Modulus (GPa) = 75.08571 84.65836 79.87203
# Shear Modulus (GPa) = 33.84456 36.64180 35.24318
#
# Velocity S-wave (km/s) = 3.80042 3.95436 3.87815
# Velocity P-wave (km/s) = 7.16244 7.54833 7.35792
#
# Compressibility (1/GPa) = 0.01331811
#
# Stress axis : x y z
#
# Youngs Moduli (GPa) = 72.66679 72.66679 151.62436
#
# Poissons Ratio (x) = 0.35764 0.41533
# Poissons Ratio (y) = 0.35764 0.41533
# Poissons Ratio (z) = 0.19905 0.19905
#
# Static dielectric constant tensor:
#      x y z
#    x 4.322090 0.000000 0.000000 
#    y 0.000000 4.322090 0.000000 
#    z 0.000000 0.000000 4.547320 
# 
# 
# High freq. dielectric constant tensor:
#      x y z
#    x 1.914570 0.000000 0.000000 
#    y 0.000000 1.914570 0.000000 
#    z 0.000000 0.000000 1.942350 
# 
# From -- ./inp_files/5563.got.cif
#   From: 2010.03.12/outbox.cif.g09.slc.cpg/sg178_3_cif.got.tgz:5563.got - 2010.04.02 07:02:38.
