data_PCOD8325118
_publ_section_title
;
Structure prediction by ZEFSAII (Michael W. Deem and Ramdas Pophale) SiO2 
 PCOD8325118
Probable space group: P 6/M
;
_chemical_formula_sum "Si O2"
_cell_formula_units_Z 78
_cell_length_a 23.846636
_cell_length_b 23.846636
_cell_length_c 8.380516
_cell_angle_alpha 90.000000
_cell_angle_beta 90.000000
_cell_angle_gamma 120.000000
_cell_volume 4127.201155
_symmetry_space_group_name_H-M "P 6/M"
_symmetry_group_IT_number 175
_symmetry_cell_setting 'hexagonal'
loop_
_space_group_symop_operation_xyz
x,y,z
x-y,x,z
-y,x-y,z
-x,-y,z
-x+y,-x,z
y,-x+y,z
-x,-y,-z
-x+y,-x,-z
y,-x+y,-z
x,y,-z
x-y,x,-z
-y,x-y,-z
loop_
_atom_site_type_symbol
_atom_site_label
_atom_site_fract_x
_atom_site_fract_y
_atom_site_fract_z
Si Si1 0.639728 0.153240 0.320661
Si Si2 0.045525 0.676030 0.185458
Si Si3 0.375924 0.280563 0.183989
Si Si4 0.834537 0.213202 0.322242
Si Si5 0.495316 0.931788 0.813852
Si Si6 0.713821 0.467933 0.322175
Si Si7 0.738060 0.333418 0.000000
O O1 0.646390 0.132857 0.500000
O O2 0.669969 0.122276 0.202839
O O3 0.564797 0.125977 0.278507
O O4 0.678153 0.231501 0.308211
O O5 0.100846 0.749757 0.216083
O O6 0.065710 0.625415 0.257145
O O7 0.977193 0.663045 0.257769
O O8 0.033954 0.660467 0.000000
O O9 0.350952 0.211524 0.268475
O O10 0.360172 0.264575 0.000000
O O11 0.858266 0.213118 0.500000
O O12 0.794684 0.250146 0.309243
O O13 0.500000 0.000000 0.779196
O O14 0.485417 0.914217 0.000000
O O15 0.679684 0.445395 0.500000
O O16 0.667011 0.440679 0.165938
O O17 0.731109 0.397299 0.000000
#
# Coordination Sequence:
#
# PCOD8325118 Si02
#       7
#    12  12  12  12  12  12   6
#     4  10  20  32  50  75  98 130 165 206 276 329
#     4  10  21  35  54  81 107 138 178 220 264 320
#     4  10  19  35  57  77 104 139 175 215 261 318
#     4  10  22  37  55  81 106 138 174 212 274 328
#     4  10  19  33  49  74 105 132 169 214 263 314
#     4   9  21  39  55  74  99 127 169 223 271 330
#     4  10  24  38  54  76  85 125 179 210 280 338
#
# _framework density 18.899007000000001
#
# number of rings (size 3 to 8) (size 9 to 14) (size 15 to 20)
#    0.154    2.000    1.538    2.308    6.462    4.000 
#    0.000    3.077    0.000    0.000    0.000    0.000 
#    0.000    0.000    0.000    0.462    0.000    8.923 
#
# Total GULP energy -966875.356323 kJ/mol
# GULP energy per Si atom -12395.837902 kJ/mol
# Density = 1.885599 g / cm^3
# Si number density = 18.899007 Si / 1000 Ang^3
#
#
#
# Elastic Constant Matrix: (Units=GPa)
#
#
# Indices 1 2 3 4 5 6 
#
# 1 65.4734 16.3149 13.4246 0.0000 0.0000 0.0000
# 2 16.3149 65.4734 13.4246 0.0000 0.0000 0.0000
# 3 13.4246 13.4246 80.4355 0.0000 0.0000 0.0000
# 4 0.0000 0.0000 0.0000 16.9463 0.0000 0.0000
# 5 0.0000 0.0000 0.0000 0.0000 16.9463 0.0000
# 6 0.0000 0.0000 0.0000 0.0000 0.0000 24.5792
#
#
#
# Elastic Compliance Matrix: (Units=1/GPa)
#
#
# Indices 1 2 3 4 5 6 
#
# 1 0.016639 -0.003703 -0.002159 0.000000 0.000000 0.000000
# 2 -0.003703 0.016639 -0.002159 0.000000 0.000000 0.000000
# 3 -0.002159 -0.002159 0.013153 0.000000 0.000000 0.000000
# 4 0.000000 0.000000 0.000000 0.059010 0.000000 0.000000
# 5 0.000000 0.000000 0.000000 0.000000 0.059010 0.000000
# 6 0.000000 0.000000 0.000000 0.000000 0.000000 0.040685
#
#
# Mechanical properties :
#
#
# Convention : Reuss Voigt Hill
#
# Bulk Modulus (GPa) = 32.90756 33.07895 32.99326
# Shear Modulus (GPa) = 21.61627 22.90891 22.26259
#
# Velocity S-wave (km/s) = 3.38565 3.48541 3.43589
# Velocity P-wave (km/s) = 5.72133 5.80848 5.76507
#
# Compressibility (1/GPa) = 0.03038815
#
# Stress axis : x y z
#
# Youngs Moduli (GPa) = 60.10013 60.10013 76.02844
#
# Poissons Ratio (x) = 0.22258 0.16414
# Poissons Ratio (y) = 0.22258 0.16414
# Poissons Ratio (z) = 0.12975 0.12975
#
# Static dielectric constant tensor:
#      x y z
#    x 3.347080 0.000000 0.000000 
#    y 0.000000 3.347080 0.000000 
#    z 0.000000 0.000000 3.512740 
# 
# 
# High freq. dielectric constant tensor:
#      x y z
#    x 1.702530 0.000000 0.000000 
#    y 0.000000 1.702530 0.000000 
#    z 0.000000 0.000000 1.742970 
# 
# From -- ./inp_files/1360.got.cif
#   From: 2010.03.12/outbox.cif.g09.slc.cpg/sg175_1_cif.got.tgz:1360.got - 2010.04.02 06:55:29.
