data_PCOD8325637
_publ_section_title
;
Structure prediction by ZEFSAII (Michael W. Deem and Ramdas Pophale) SiO2 
 PCOD8325637
Probable space group: P 63/M
;
_chemical_formula_sum "Si O2"
_cell_formula_units_Z 70
_cell_length_a 15.004755
_cell_length_b 15.004755
_cell_length_c 17.963435
_cell_angle_alpha 90.000000
_cell_angle_beta 90.000000
_cell_angle_gamma 120.000000
_cell_volume 3502.497514
_symmetry_space_group_name_H-M "P 63/M"
_symmetry_group_IT_number 176
_symmetry_cell_setting 'hexagonal'
loop_
_space_group_symop_operation_xyz
x,y,z
x-y,x,1/2+z
-y,x-y,z
-x,-y,1/2+z
-x+y,-x,z
y,-x+y,1/2+z
-x,-y,-z
-x+y,-x,1/2-z
y,-x+y,-z
x,y,1/2-z
x-y,x,-z
-y,x-y,1/2-z
loop_
_atom_site_type_symbol
_atom_site_label
_atom_site_fract_x
_atom_site_fract_y
_atom_site_fract_z
Si Si1 0.738471 0.461131 0.091778
Si Si2 0.300706 0.972950 0.750000
Si Si3 0.431196 0.890120 0.106777
Si Si4 0.737306 0.113109 0.987947
Si Si5 0.489162 0.021513 0.250000
Si Si6 0.071676 0.728447 0.408504
Si Si7 0.213207 0.754701 0.750000
Si Si8 0.333333 0.666667 0.338863
O O1 0.615778 0.399448 0.072782
O O2 0.758996 0.481005 0.178558
O O3 0.793854 0.565703 0.046480
O O4 0.390618 0.942963 0.750000
O O5 0.200321 0.857627 0.750000
O O6 0.306225 0.037863 0.823294
O O7 0.375640 0.920481 0.043343
O O8 0.540544 0.905468 0.081235
O O9 0.352583 0.773398 0.128969
O O10 0.438786 0.956603 0.177148
O O11 0.827674 0.160118 0.925650
O O12 0.730214 0.016795 0.032766
O O13 0.454732 0.105873 0.250000
O O14 0.333334 0.666668 0.250000
#
# Coordination Sequence:
#
# PCOD8325637 Si02
#       8
#    12   6  12  12   6  12   6   4
#     4  10  22  32  55  83 118 166 206 246 314 373
#     4  10  22  43  58  89 124 176 214 263 315 386
#     4  11  23  38  58  88 128 171 217 254 311 388
#     4  12  24  39  60  89 123 163 205 272 321 378
#     4  10  24  35  58  89 118 172 220 257 302 373
#     4  11  25  41  64  88 127 164 217 262 328 383
#     4  12  20  38  56  84 122 168 218 266 309 373
#     4  12  21  39  60  87 129 184 224 253 315 378
#
# _framework density 19.985738000000001
#
# number of rings (size 3 to 8) (size 9 to 14) (size 15 to 20)
#    0.343    0.686    4.286    3.086    4.800    0.686 
#    0.514    0.000    0.000    0.343    0.000    0.000 
#    0.000    0.000    0.000    0.000    0.000    0.000 
#
# Total GULP energy -867643.956444 kJ/mol
# GULP energy per Si atom -12394.913663 kJ/mol
# Density = 1.994025 g / cm^3
# Si number density = 19.985738 Si / 1000 Ang^3
#
#
#
# Elastic Constant Matrix: (Units=GPa)
#
#
# Indices 1 2 3 4 5 6 
#
# 1 71.7612 16.0908 28.3252 0.0000 0.0000 -0.0003
# 2 16.0908 71.7616 28.3254 0.0000 0.0000 0.0004
# 3 28.3252 28.3254 89.4683 0.0000 0.0000 0.0000
# 4 0.0000 0.0000 0.0000 19.5876 0.0000 0.0000
# 5 0.0000 0.0000 0.0000 0.0000 19.5876 0.0000
# 6 -0.0003 0.0004 0.0000 0.0000 0.0000 27.8350
#
#
#
# Elastic Compliance Matrix: (Units=1/GPa)
#
#
# Indices 1 2 3 4 5 6 
#
# 1 0.016133 -0.001830 -0.004528 0.000000 0.000000 0.000000
# 2 -0.001830 0.016133 -0.004528 0.000000 0.000000 0.000000
# 3 -0.004528 -0.004528 0.014044 0.000000 0.000000 0.000000
# 4 0.000000 0.000000 0.000000 0.051053 0.000000 0.000000
# 5 0.000000 0.000000 0.000000 0.000000 0.051053 0.000000
# 6 0.000000 0.000000 0.000000 0.000000 0.000000 0.035926
#
#
# Mechanical properties :
#
#
# Convention : Reuss Voigt Hill
#
# Bulk Modulus (GPa) = 40.75470 42.05266 41.40368
# Shear Modulus (GPa) = 23.33252 24.08534 23.70893
#
# Velocity S-wave (km/s) = 3.42052 3.47526 3.44800
# Velocity P-wave (km/s) = 6.00300 6.09838 6.05088
#
# Compressibility (1/GPa) = 0.02453705
#
# Stress axis : x y z
#
# Youngs Moduli (GPa) = 61.98555 61.98579 71.20297
#
# Poissons Ratio (x) = 0.11344 0.32242
# Poissons Ratio (y) = 0.11344 0.32242
# Poissons Ratio (z) = 0.28068 0.28068
#
# Static dielectric constant tensor:
#      x y z
#    x 3.457000 0.000000 0.000000 
#    y 0.000000 3.457000 0.000000 
#    z 0.000000 0.000000 3.828760 
# 
# 
# High freq. dielectric constant tensor:
#      x y z
#    x 1.750490 0.000000 0.000000 
#    y 0.000000 1.750490 0.000000 
#    z 0.000000 0.000000 1.802720 
# 
# From -- ./inp_files/3428.got.cif
#   From: 2010.06.25/outbox.cif.g09.slc.cpg/sg176_2_cif.got.tgz:3428.got - 2010.06.28 12:15:01.
