data_PCOD8325142
_publ_section_title
;
Structure prediction by ZEFSAII (Michael W. Deem and Ramdas Pophale) SiO2 
 PCOD8325142
Probable space group: P 6/M
;
_chemical_formula_sum "Si O2"
_cell_formula_units_Z 66
_cell_length_a 22.088319
_cell_length_b 22.088319
_cell_length_c 7.684908
_cell_angle_alpha 90.000000
_cell_angle_beta 90.000000
_cell_angle_gamma 120.000000
_cell_volume 3247.092316
_symmetry_space_group_name_H-M "P 6/M"
_symmetry_group_IT_number 175
_symmetry_cell_setting 'hexagonal'
loop_
_space_group_symop_operation_xyz
x,y,z
x-y,x,z
-y,x-y,z
-x,-y,z
-x+y,-x,z
y,-x+y,z
-x,-y,-z
-x+y,-x,-z
y,-x+y,-z
x,y,-z
x-y,x,-z
-y,x-y,-z
loop_
_atom_site_type_symbol
_atom_site_label
_atom_site_fract_x
_atom_site_fract_y
_atom_site_fract_z
Si Si1 0.804572 0.466211 0.207372
Si Si2 0.757363 0.618866 0.299894
Si Si3 0.617607 0.729637 0.806495
Si Si4 0.141044 0.992876 0.000000
Si Si5 0.529038 0.199300 0.794008
Si Si6 0.760346 0.757821 0.695838
O O1 0.870391 0.541369 0.267214
O O2 0.731737 0.457857 0.277506
O O3 0.814318 0.403634 0.283546
O O4 0.802161 0.464949 0.000000
O O5 0.780201 0.627270 0.500000
O O6 0.814097 0.614961 0.179464
O O7 0.683944 0.546738 0.270515
O O8 0.753563 0.685974 0.237393
O O9 0.681199 0.742459 0.684126
O O10 0.630942 0.710345 0.000000
O O11 0.179889 0.988398 0.826926
O O12 0.063243 0.926535 0.000000
O O13 0.533054 0.199389 0.000000
O O14 0.791905 0.778478 0.500000
#
# Coordination Sequence:
#
# PCOD8325142 Si02
#       6
#    12  12  12   6  12  12
#     4   8  15  27  48  79 109 147 198 253 305 354
#     4  10  21  35  53  80 115 151 195 246 297 351
#     4  10  19  34  58  84 112 149 198 249 297 350
#     4  12  27  46  72 100 129 158 192 232 282 346
#     4   9  16  29  51  76 110 152 200 253 307 360
#     4  11  24  41  64  93 125 160 197 240 290 348
#
# _framework density 20.325876000000001
#
# number of rings (size 3 to 8) (size 9 to 14) (size 15 to 20)
#    0.000    2.182    0.909    3.727    2.545    3.636 
#    0.000    5.455    0.000    6.545    0.000    0.000 
#    0.000    0.000    0.000    0.000    0.000    0.000 
#
# Total GULP energy -818028.503653 kJ/mol
# GULP energy per Si atom -12394.371267 kJ/mol
# Density = 2.027961 g / cm^3
# Si number density = 20.325876 Si / 1000 Ang^3
#
#
#
# Elastic Constant Matrix: (Units=GPa)
#
#
# Indices 1 2 3 4 5 6 
#
# 1 81.2578 13.7591 5.7726 0.0000 0.0000 0.0000
# 2 13.7591 81.2578 5.7726 0.0000 0.0000 0.0000
# 3 5.7726 5.7726 55.4463 0.0000 0.0000 0.0000
# 4 0.0000 0.0000 0.0000 15.0647 0.0000 0.0000
# 5 0.0000 0.0000 0.0000 0.0000 15.0647 0.0000
# 6 0.0000 0.0000 0.0000 0.0000 0.0000 33.7494
#
#
#
# Elastic Compliance Matrix: (Units=1/GPa)
#
#
# Indices 1 2 3 4 5 6 
#
# 1 0.012737 -0.002078 -0.001110 0.000000 0.000000 0.000000
# 2 -0.002078 0.012737 -0.001110 0.000000 0.000000 0.000000
# 3 -0.001110 -0.001110 0.018267 0.000000 0.000000 0.000000
# 4 0.000000 0.000000 0.000000 0.066380 0.000000 0.000000
# 5 0.000000 0.000000 0.000000 0.000000 0.066380 0.000000
# 6 0.000000 0.000000 0.000000 0.000000 0.000000 0.029630
#
#
# Mechanical properties :
#
#
# Convention : Reuss Voigt Hill
#
# Bulk Modulus (GPa) = 28.45264 29.84115 29.14690
# Shear Modulus (GPa) = 22.08072 25.61959 23.85016
#
# Velocity S-wave (km/s) = 3.29954 3.55412 3.42919
# Velocity P-wave (km/s) = 5.34271 5.61744 5.48180
#
# Compressibility (1/GPa) = 0.03514612
#
# Stress axis : x y z
#
# Youngs Moduli (GPa) = 78.51021 78.51021 54.74487
#
# Poissons Ratio (x) = 0.16314 0.06075
# Poissons Ratio (y) = 0.16314 0.06075
# Poissons Ratio (z) = 0.08713 0.08713
#
# Static dielectric constant tensor:
#      x y z
#    x 3.796580 0.000000 0.000000 
#    y 0.000000 3.796580 0.000000 
#    z 0.000000 0.000000 3.398810 
# 
# 
# High freq. dielectric constant tensor:
#      x y z
#    x 1.784790 0.000000 0.000000 
#    y 0.000000 1.784790 0.000000 
#    z 0.000000 0.000000 1.784760 
# 
# From -- ./inp_files/997.got.cif
#   From: 2010.03.12/outbox.cif.g09.slc.cpg/sg175_1_cif.got.tgz:997.got - 2010.04.02 06:55:29.
