data_PCOD8325671
_publ_section_title
;
Structure prediction by ZEFSAII (Michael W. Deem and Ramdas Pophale) SiO2 
 PCOD8325671
Probable space group: P 63/M
;
_chemical_formula_sum "Si O2"
_cell_formula_units_Z 52
_cell_length_a 18.379149
_cell_length_b 18.379149
_cell_length_c 8.628771
_cell_angle_alpha 90.000000
_cell_angle_beta 90.000000
_cell_angle_gamma 120.000000
_cell_volume 2524.238418
_symmetry_space_group_name_H-M "P 63/M"
_symmetry_group_IT_number 176
_symmetry_cell_setting 'hexagonal'
loop_
_space_group_symop_operation_xyz
x,y,z
x-y,x,1/2+z
-y,x-y,z
-x,-y,1/2+z
-x+y,-x,z
y,-x+y,1/2+z
-x,-y,-z
-x+y,-x,1/2-z
y,-x+y,-z
x,y,1/2-z
x-y,x,-z
-y,x-y,1/2-z
loop_
_atom_site_type_symbol
_atom_site_label
_atom_site_fract_x
_atom_site_fract_y
_atom_site_fract_z
Si Si1 0.275852 0.489166 0.431764
Si Si2 0.907809 0.655529 0.928961
Si Si3 0.953171 0.827161 0.071330
Si Si4 0.445651 0.036860 0.430184
Si Si5 0.666668 0.333335 0.067978
O O1 0.282599 0.504785 0.250000
O O2 0.185730 0.412543 0.479932
O O3 0.346858 0.469240 0.484317
O O4 0.284760 0.571466 0.510665
O O5 0.910871 0.681646 0.750000
O O6 0.969087 0.619421 0.960395
O O7 0.938441 0.735451 0.037893
O O8 0.932486 0.833392 0.250000
O O9 0.894349 0.845085 0.961158
O O10 0.466088 0.056187 0.250000
O O11 0.500000 0.000000 0.500000
O O12 0.666667 0.333334 0.250000
#
# Coordination Sequence:
#
# PCOD8325671 Si02
#       5
#    12  12  12  12   4
#     4  11  23  41  64  91 126 165 205 253 309 367
#     4  10  23  42  64  92 125 162 204 250 304 364
#     4  12  25  42  65  92 125 162 204 253 305 363
#     4  11  23  40  63  92 126 164 208 256 306 365
#     4  12  25  41  64  93 124 161 208 258 310 371
#
# _framework density 20.600272
#
# number of rings (size 3 to 8) (size 9 to 14) (size 15 to 20)
#    0.000    0.923    0.000    7.154    0.000    9.231 
#    0.000    0.000    0.000    0.000    0.000    0.000 
#    0.000    0.000    0.000    0.000    0.000    0.000 
#
# Total GULP energy -645237.612479 kJ/mol
# GULP energy per Si atom -12408.415625 kJ/mol
# Density = 2.055339 g / cm^3
# Si number density = 20.600272 Si / 1000 Ang^3
#
#
#
# Elastic Constant Matrix: (Units=GPa)
#
#
# Indices 1 2 3 4 5 6 
#
# 1 133.1781 4.2354 30.1294 0.0000 0.0000 0.0156
# 2 4.2354 133.1780 30.1356 0.0000 0.0000 -0.0202
# 3 30.1294 30.1356 85.4231 0.0000 0.0000 -0.0002
# 4 0.0000 0.0000 0.0000 17.5367 0.0031 0.0000
# 5 0.0000 0.0000 0.0000 0.0031 17.5426 0.0000
# 6 0.0156 -0.0202 -0.0002 0.0000 0.0000 64.4829
#
#
#
# Elastic Compliance Matrix: (Units=1/GPa)
#
#
# Indices 1 2 3 4 5 6 
#
# 1 0.008182 0.000427 -0.003037 0.000000 0.000000 -0.000002
# 2 0.000427 0.008182 -0.003037 0.000000 0.000000 0.000002
# 3 -0.003037 -0.003037 0.013849 0.000000 0.000000 0.000000
# 4 0.000000 0.000000 0.000000 0.057023 -0.000010 0.000000
# 5 0.000000 0.000000 0.000000 -0.000010 0.057004 0.000000
# 6 -0.000002 0.000002 0.000000 0.000000 0.000000 0.015508
#
#
# Mechanical properties :
#
#
# Convention : Reuss Voigt Hill
#
# Bulk Modulus (GPa) = 52.85446 53.42000 53.13723
# Shear Modulus (GPa) = 28.19296 39.06435 33.62865
#
# Velocity S-wave (km/s) = 3.70344 4.35938 4.04473
# Velocity P-wave (km/s) = 6.63326 7.16428 6.90388
#
# Compressibility (1/GPa) = 0.01891988
#
# Stress axis : x y z
#
# Youngs Moduli (GPa) = 122.21758 122.21317 72.20794
#
# Poissons Ratio (x) = -0.05217 0.21926
# Poissons Ratio (y) = -0.05217 0.21931
# Poissons Ratio (z) = 0.37111 0.37118
#
# Static dielectric constant tensor:
#      x y z
#    x 3.880660 0.000010 0.000000 
#    y 0.000010 3.880640 0.000000 
#    z 0.000000 0.000000 3.808750 
# 
# 
# High freq. dielectric constant tensor:
#      x y z
#    x 1.824610 0.000000 0.000000 
#    y 0.000000 1.824610 0.000000 
#    z 0.000000 0.000000 1.815230 
# 
# From -- ./inp_files/678.got.cif
#   From: 2010.06.25/outbox.cif.g09.slc.cpg/sg176_1_cif.got.tgz:678.got - 2010.06.28 12:15:01.
