data_PCOD8325380
_publ_section_title
;
Structure prediction by ZEFSAII (Michael W. Deem and Ramdas Pophale) SiO2 
 PCOD8325380
Probable space group: P 6/M
;
_chemical_formula_sum "Si O2"
_cell_formula_units_Z 60
_cell_length_a 13.975428
_cell_length_b 13.975428
_cell_length_c 16.405639
_cell_angle_alpha 90.000000
_cell_angle_beta 90.000000
_cell_angle_gamma 120.000000
_cell_volume 2774.942681
_symmetry_space_group_name_H-M "P 6/M"
_symmetry_group_IT_number 175
_symmetry_cell_setting 'hexagonal'
loop_
_space_group_symop_operation_xyz
x,y,z
x-y,x,z
-y,x-y,z
-x,-y,z
-x+y,-x,z
y,-x+y,z
-x,-y,-z
-x+y,-x,-z
y,-x+y,-z
x,y,-z
x-y,x,-z
-y,x-y,-z
loop_
_atom_site_type_symbol
_atom_site_label
_atom_site_fract_x
_atom_site_fract_y
_atom_site_fract_z
Si Si1 0.821372 0.232555 0.682251
Si Si2 0.892644 0.746203 0.173238
Si Si3 0.968169 0.593216 0.404615
Si Si4 0.245543 0.782802 0.909201
Si Si5 0.460531 0.872444 0.808993
O O1 0.821501 0.144642 0.744172
O O2 0.709180 0.154713 0.631473
O O3 0.819561 0.334467 0.729215
O O4 0.933525 0.288428 0.628151
O O5 0.832209 0.814293 0.168433
O O6 0.871025 0.666266 0.095856
O O7 0.959140 0.606495 0.500000
O O8 0.000000 0.500000 0.383948
O O9 0.333525 0.805427 0.837069
O O10 0.138078 0.665134 0.886226
O O11 0.289913 0.781630 0.000000
O O12 0.500000 0.000000 0.792063
#
# Coordination Sequence:
#
# PCOD8325380 Si02
#       5
#    12  12  12  12  12
#     4  11  23  43  71 101 138 183 237 283 341 431
#     4  11  23  41  65  95 126 176 232 295 359 414
#     4  11  25  46  73 106 148 190 231 294 360 423
#     4  11  24  42  64  95 135 183 239 293 357 431
#     4  11  25  41  66  99 135 186 232 296 365 422
#
# _framework density 21.622070000000001
#
# number of rings (size 3 to 8) (size 9 to 14) (size 15 to 20)
#    0.000    1.000    2.000    4.800    8.400    4.000 
#    1.200    0.000    0.000    1.200    0.000    2.800 
#    0.000    0.000    0.000    0.000    0.000    0.000 
#
# Total GULP energy -743353.758248 kJ/mol
# GULP energy per Si atom -12389.229304 kJ/mol
# Density = 2.157286 g / cm^3
# Si number density = 21.622070 Si / 1000 Ang^3
#
#
#
# Elastic Constant Matrix: (Units=GPa)
#
#
# Indices 1 2 3 4 5 6 
#
# 1 130.9781 40.7625 66.3457 0.0000 0.0000 0.0000
# 2 40.7625 130.9781 66.3457 0.0000 0.0000 0.0000
# 3 66.3457 66.3457 122.8632 0.0000 0.0000 0.0000
# 4 0.0000 0.0000 0.0000 22.5032 0.0000 0.0000
# 5 0.0000 0.0000 0.0000 0.0000 22.5032 0.0000
# 6 0.0000 0.0000 0.0000 0.0000 0.0000 45.1078
#
#
#
# Elastic Compliance Matrix: (Units=1/GPa)
#
#
# Indices 1 2 3 4 5 6 
#
# 1 0.010538 -0.000547 -0.005395 0.000000 0.000000 0.000000
# 2 -0.000547 0.010538 -0.005395 0.000000 0.000000 0.000000
# 3 -0.005395 -0.005395 0.013966 0.000000 0.000000 0.000000
# 4 0.000000 0.000000 0.000000 0.044438 0.000000 0.000000
# 5 0.000000 0.000000 0.000000 0.000000 0.044438 0.000000
# 6 0.000000 0.000000 0.000000 0.000000 0.000000 0.022169
#
#
# Mechanical properties :
#
#
# Convention : Reuss Voigt Hill
#
# Bulk Modulus (GPa) = 80.85715 81.30301 81.08008
# Shear Modulus (GPa) = 28.92113 32.11387 30.51750
#
# Velocity S-wave (km/s) = 3.66125 3.85806 3.76094
# Velocity P-wave (km/s) = 7.43975 7.58483 7.51264
#
# Compressibility (1/GPa) = 0.01236749
#
# Stress axis : x y z
#
# Youngs Moduli (GPa) = 94.89565 94.89565 71.60277
#
# Poissons Ratio (x) = 0.05188 0.38631
# Poissons Ratio (y) = 0.05188 0.38631
# Poissons Ratio (z) = 0.51198 0.51198
#
# Static dielectric constant tensor:
#      x y z
#    x 4.172370 0.000000 0.000000 
#    y 0.000000 4.172370 0.000000 
#    z 0.000000 0.000000 3.978960 
# 
# 
# High freq. dielectric constant tensor:
#      x y z
#    x 1.854610 0.000000 0.000000 
#    y 0.000000 1.854610 0.000000 
#    z 0.000000 0.000000 1.847680 
# 
# From -- ./inp_files/2387.got.cif
#   From: 2010.03.12/outbox.cif.g09.slc.cpg/sg175_2_cif.got.tgz:2387.got - 2010.04.02 06:55:29.
