data_PCOD8325792
_publ_section_title
;
Structure prediction by ZEFSAII (Michael W. Deem and Ramdas Pophale) SiO2 
 PCOD8325792
Probable space group: P 61 2 2
;
_chemical_formula_sum "Si O2"
_cell_formula_units_Z 24
_cell_length_a 12.618334
_cell_length_b 12.618334
_cell_length_c 7.761098
_cell_angle_alpha 90.000000
_cell_angle_beta 90.000000
_cell_angle_gamma 120.000000
_cell_volume 1070.182479
_symmetry_space_group_name_H-M "P 61 2 2"
_symmetry_group_IT_number 178
_symmetry_cell_setting 'hexagonal'
loop_
_space_group_symop_operation_xyz
x,y,z
x-y,x,1/6+z
-y,x-y,1/3+z
-x,-y,1/2+z
-x+y,-x,2/3+z
y,-x+y,5/6+z
x-y,-y,-z
-x,-x+y,2/3-z
y,x,1/3-z
-y,-x,5/6-z
-x+y,y,1/2-z
x,x-y,1/6-z
loop_
_atom_site_type_symbol
_atom_site_label
_atom_site_fract_x
_atom_site_fract_y
_atom_site_fract_z
Si Si1 0.589448 0.410553 0.416667
Si Si2 0.518128 0.870206 0.887055
Si Si3 0.775343 0.775343 0.166667
O O1 0.592339 0.490950 0.250864
O O2 0.538149 0.272892 0.352109
O O3 0.462200 0.924399 0.750000
O O4 0.664601 0.933437 0.861534
O O5 0.901019 0.802038 0.250000
#
# Coordination Sequence:
#
# PCOD8325792 Si02
#       3
#     6  12   6
#     4  10  18  40  70 114 140 162 220 308 384 436
#     4  11  21  40  74 110 146 173 227 307 390 440
#     4  12  28  48  70  98 152 216 256 296 352 452
#
# _framework density 22.426082999999998
#
# number of rings (size 3 to 8) (size 9 to 14) (size 15 to 20)
#    0.000    1.000   10.000    0.000    3.500    0.000 
#    0.000    5.000    0.000    0.000    0.000    0.000 
#    0.000    0.000    0.000    0.000    0.000    0.000 
#
# Total GULP energy -297559.887844 kJ/mol
# GULP energy per Si atom -12398.328660 kJ/mol
# Density = 2.237504 g / cm^3
# Si number density = 22.426083 Si / 1000 Ang^3
#
#
#
# Elastic Constant Matrix: (Units=GPa)
#
#
# Indices 1 2 3 4 5 6 
#
# 1 159.4245 79.2590 51.8704 0.0000 0.0000 0.0000
# 2 79.2590 159.4245 51.8704 0.0000 0.0000 0.0000
# 3 51.8704 51.8704 124.3967 0.0000 0.0000 0.0000
# 4 0.0000 0.0000 0.0000 41.5080 0.0000 0.0000
# 5 0.0000 0.0000 0.0000 0.0000 41.5080 0.0000
# 6 0.0000 0.0000 0.0000 0.0000 0.0000 40.0828
#
#
#
# Elastic Compliance Matrix: (Units=1/GPa)
#
#
# Indices 1 2 3 4 5 6 
#
# 1 0.008796 -0.003679 -0.002134 0.000000 0.000000 0.000000
# 2 -0.003679 0.008796 -0.002134 0.000000 0.000000 0.000000
# 3 -0.002134 -0.002134 0.009818 0.000000 0.000000 0.000000
# 4 0.000000 0.000000 0.000000 0.024092 0.000000 0.000000
# 5 0.000000 0.000000 0.000000 0.000000 0.024092 0.000000
# 6 0.000000 0.000000 0.000000 0.000000 0.000000 0.024948
#
#
# Mechanical properties :
#
#
# Convention : Reuss Voigt Hill
#
# Bulk Modulus (GPa) = 86.82422 89.91618 88.37020
# Shear Modulus (GPa) = 41.57232 41.96947 41.77090
#
# Velocity S-wave (km/s) = 4.31019 4.33073 4.32047
# Velocity P-wave (km/s) = 7.97309 8.07394 8.02367
#
# Compressibility (1/GPa) = 0.01151752
#
# Stress axis : x y z
#
# Youngs Moduli (GPa) = 113.69311 113.69311 101.85189
#
# Poissons Ratio (x) = 0.41823 0.21732
# Poissons Ratio (y) = 0.41823 0.21732
# Poissons Ratio (z) = 0.24258 0.24258
#
# Static dielectric constant tensor:
#      x y z
#    x 4.221340 0.000000 0.000000 
#    y 0.000000 4.221340 0.000000 
#    z 0.000000 0.000000 3.500920 
# 
# 
# High freq. dielectric constant tensor:
#      x y z
#    x 1.911380 0.000000 0.000000 
#    y 0.000000 1.911380 0.000000 
#    z 0.000000 0.000000 1.852870 
# 
# From -- ./inp_files/1907.got.cif
#   From: 2010.03.12/outbox.cif.g09.slc.cpg/sg178_1_cif.got.tgz:1907.got - 2010.04.02 07:02:38.
