data_PCOD8325193
_publ_section_title
;
Structure prediction by ZEFSAII (Michael W. Deem and Ramdas Pophale) SiO2 
 PCOD8325193
Probable space group: P 6/M
;
_chemical_formula_sum "Si O2"
_cell_formula_units_Z 60
_cell_length_a 22.176714
_cell_length_b 22.176714
_cell_length_c 7.698132
_cell_angle_alpha 90.000000
_cell_angle_beta 90.000000
_cell_angle_gamma 120.000000
_cell_volume 3278.765651
_symmetry_space_group_name_H-M "P 6/M"
_symmetry_group_IT_number 175
_symmetry_cell_setting 'hexagonal'
loop_
_space_group_symop_operation_xyz
x,y,z
x-y,x,z
-y,x-y,z
-x,-y,z
-x+y,-x,z
y,-x+y,z
-x,-y,-z
-x+y,-x,-z
y,-x+y,-z
x,y,-z
x-y,x,-z
-y,x-y,-z
loop_
_atom_site_type_symbol
_atom_site_label
_atom_site_fract_x
_atom_site_fract_y
_atom_site_fract_z
Si Si1 0.333443 0.803611 0.794031
Si Si2 0.304858 0.921293 0.305054
Si Si3 0.921293 0.304858 0.305054
Si Si4 0.293604 0.213520 0.000000
Si Si5 0.213520 0.293604 0.000000
Si Si6 0.196389 0.666557 0.205969
O O1 0.338140 0.872387 0.715243
O O2 0.399612 0.799223 0.726445
O O3 0.264053 0.735947 0.725769
O O4 0.333145 0.807538 0.000000
O O5 0.274934 0.913997 0.500000
O O6 0.242651 0.900950 0.170142
O O7 0.366116 0.000000 0.268000
O O8 0.913997 0.274934 0.500000
O O9 0.872386 0.338140 0.284758
O O10 0.900950 0.242651 0.170142
O O11 0.231843 0.231843 0.000000
O O12 0.259870 0.129935 0.000000
O O13 0.192462 0.666855 0.000000
#
# Coordination Sequence:
#
# PCOD8325193 Si02
#       6
#    12  12  12   6   6  12
#     4  10  20  34  52  74 102 137 177 220 265 314
#     4  10  21  36  55  80 107 135 171 218 268 313
#     4  10  21  36  55  80 107 135 171 218 268 313
#     4  10  20  36  57  82 111 141 173 209 254 306
#     4  10  20  36  57  82 111 141 173 209 254 306
#     4  10  20  34  52  74 102 137 177 220 265 314
#
# _framework density 18.299569999999999
#
# number of rings (size 3 to 8) (size 9 to 14) (size 15 to 20)
#    0.000    2.000    2.000    1.600    0.000    6.400 
#    0.000    4.000    0.000    2.600    0.000    0.000 
#    0.000    0.000    0.000   10.000    0.000    0.000 
#
# Total GULP energy -744091.291778 kJ/mol
# GULP energy per Si atom -12401.521530 kJ/mol
# Density = 1.825792 g / cm^3
# Si number density = 18.299570 Si / 1000 Ang^3
#
#
#
# Elastic Constant Matrix: (Units=GPa)
#
#
# Indices 1 2 3 4 5 6 
#
# 1 125.1252 77.1548 37.8019 0.0000 0.0000 0.0000
# 2 77.1548 125.1252 37.8019 0.0000 0.0000 0.0000
# 3 37.8019 37.8019 87.5183 0.0000 0.0000 0.0000
# 4 0.0000 0.0000 0.0000 5.3091 0.0000 0.0000
# 5 0.0000 0.0000 0.0000 0.0000 5.3091 0.0000
# 6 0.0000 0.0000 0.0000 0.0000 0.0000 23.9852
#
#
#
# Elastic Compliance Matrix: (Units=1/GPa)
#
#
# Indices 1 2 3 4 5 6 
#
# 1 0.013371 -0.007475 -0.002546 0.000000 0.000000 0.000000
# 2 -0.007475 0.013371 -0.002546 0.000000 0.000000 0.000000
# 3 -0.002546 -0.002546 0.013626 0.000000 0.000000 0.000000
# 4 0.000000 0.000000 0.000000 0.188356 0.000000 0.000000
# 5 0.000000 0.000000 0.000000 0.000000 0.188356 0.000000
# 6 0.000000 0.000000 0.000000 0.000000 0.000000 0.041692
#
#
# Mechanical properties :
#
#
# Convention : Reuss Voigt Hill
#
# Bulk Modulus (GPa) = 65.65522 71.47622 68.56572
# Shear Modulus (GPa) = 10.22526 19.25469 14.73998
#
# Velocity S-wave (km/s) = 2.36640 3.24727 2.84118
# Velocity P-wave (km/s) = 6.58956 7.29407 6.95075
#
# Compressibility (1/GPa) = 0.01523108
#
# Stress axis : x y z
#
# Youngs Moduli (GPa) = 74.78995 74.78995 73.38954
#
# Poissons Ratio (x) = 0.55908 0.18688
# Poissons Ratio (y) = 0.55908 0.18688
# Poissons Ratio (z) = 0.19045 0.19045
#
# Static dielectric constant tensor:
#      x y z
#    x 3.318080 0.000000 0.000000 
#    y 0.000000 3.318080 0.000000 
#    z 0.000000 0.000000 3.539240 
# 
# 
# High freq. dielectric constant tensor:
#      x y z
#    x 1.697570 0.000000 0.000000 
#    y 0.000000 1.697570 0.000000 
#    z 0.000000 0.000000 1.721090 
# 
# From -- ./inp_files/897.got.cif
#   From: 2010.03.12/outbox.cif.g09.slc.cpg/sg175_1_cif.got.tgz:897.got - 2010.04.02 06:55:29.
