data_PCOD8325452
_publ_section_title
;
Structure prediction by ZEFSAII (Michael W. Deem and Ramdas Pophale) SiO2 
 PCOD8325452
Probable space group: P 63/M
;
_chemical_formula_sum "Si O2"
_cell_formula_units_Z 72
_cell_length_a 23.757861
_cell_length_b 23.757861
_cell_length_c 8.953345
_cell_angle_alpha 90.000000
_cell_angle_beta 90.000000
_cell_angle_gamma 120.000000
_cell_volume 4376.537211
_symmetry_space_group_name_H-M "P 63/M"
_symmetry_group_IT_number 176
_symmetry_cell_setting 'hexagonal'
loop_
_space_group_symop_operation_xyz
x,y,z
x-y,x,1/2+z
-y,x-y,z
-x,-y,1/2+z
-x+y,-x,z
y,-x+y,1/2+z
-x,-y,-z
-x+y,-x,1/2-z
y,-x+y,-z
x,y,1/2-z
x-y,x,-z
-y,x-y,1/2-z
loop_
_atom_site_type_symbol
_atom_site_label
_atom_site_fract_x
_atom_site_fract_y
_atom_site_fract_z
Si Si1 0.074093 0.809721 0.924795
Si Si2 0.733664 0.598497 0.925653
Si Si3 0.258964 0.184468 0.575133
Si Si4 0.518047 0.593218 0.424780
Si Si5 0.924674 0.402268 0.076323
Si Si6 0.403954 0.262987 0.575512
O O1 0.085820 0.807236 0.750000
O O2 0.000266 0.789744 0.960109
O O3 0.089897 0.758888 0.004038
O O4 0.117248 0.882515 0.987292
O O5 0.727158 0.604631 0.750000
O O6 0.784219 0.573176 0.962236
O O7 0.665212 0.546743 0.992897
O O8 0.261916 0.170988 0.750000
O O9 0.330915 0.236137 0.514945
O O10 0.500643 0.587521 0.250000
O O11 0.452468 0.548716 0.514858
O O12 0.571342 0.571695 0.455752
O O13 0.546980 0.666017 0.491713
O O14 0.908432 0.391189 0.250000
O O15 0.402880 0.274240 0.750000
#
# Coordination Sequence:
#
# PCOD8325452 Si02
#       6
#    12  12  12  12  12  12
#     4  10  19  31  49  72  97 126 159 196 237 280
#     4  10  19  31  48  70  96 126 159 194 234 280
#     4   9  18  32  48  69  98 127 155 191 236 284
#     4   9  17  31  49  67  91 123 156 190 231 280
#     4  10  19  30  46  70  97 123 153 191 236 282
#     4   8  15  29  48  67  89 120 154 187 226 274
#
# _framework density 16.451364000000002
#
# number of rings (size 3 to 8) (size 9 to 14) (size 15 to 20)
#    0.000    2.667    0.000    3.500    0.000    4.667 
#    0.000    4.167    0.000    1.000    0.000    2.333 
#    0.000    0.000    0.000    0.000    0.000    0.000 
#
# Total GULP energy -892739.422827 kJ/mol
# GULP energy per Si atom -12399.158650 kJ/mol
# Density = 1.641392 g / cm^3
# Si number density = 16.451364 Si / 1000 Ang^3
#
#
#
# Elastic Constant Matrix: (Units=GPa)
#
#
# Indices 1 2 3 4 5 6 
#
# 1 124.0617 73.8649 57.1124 0.0000 0.0000 0.0000
# 2 73.8649 124.0617 57.1124 0.0000 0.0000 0.0000
# 3 57.1124 57.1124 75.5383 0.0000 0.0000 0.0000
# 4 0.0000 0.0000 0.0000 26.5772 0.0000 0.0000
# 5 0.0000 0.0000 0.0000 0.0000 26.5772 0.0000
# 6 0.0000 0.0000 0.0000 0.0000 0.0000 25.0984
#
#
#
# Elastic Compliance Matrix: (Units=1/GPa)
#
#
# Indices 1 2 3 4 5 6 
#
# 1 0.014443 -0.005479 -0.006777 0.000000 0.000000 0.000000
# 2 -0.005479 0.014443 -0.006777 0.000000 0.000000 0.000000
# 3 -0.006777 -0.006777 0.023486 0.000000 0.000000 0.000000
# 4 0.000000 0.000000 0.000000 0.037626 0.000000 0.000000
# 5 0.000000 0.000000 0.000000 0.000000 0.037626 0.000000
# 6 0.000000 0.000000 0.000000 0.000000 0.000000 0.039843
#
#
# Mechanical properties :
#
#
# Convention : Reuss Voigt Hill
#
# Bulk Modulus (GPa) = 69.90573 77.76014 73.83293
# Shear Modulus (GPa) = 23.77540 24.68868 24.23204
#
# Velocity S-wave (km/s) = 3.80569 3.87810 3.84207
# Velocity P-wave (km/s) = 7.86738 8.21110 8.04108
#
# Compressibility (1/GPa) = 0.01430498
#
# Stress axis : x y z
#
# Youngs Moduli (GPa) = 69.24001 69.24001 42.57825
#
# Poissons Ratio (x) = 0.37937 0.28855
# Poissons Ratio (y) = 0.37937 0.28855
# Poissons Ratio (z) = 0.46924 0.46924
#
# Static dielectric constant tensor:
#      x y z
#    x 3.111760 0.000000 0.000000 
#    y 0.000000 3.111760 0.000000 
#    z 0.000000 0.000000 3.055090 
# 
# 
# High freq. dielectric constant tensor:
#      x y z
#    x 1.625000 0.000000 0.000000 
#    y 0.000000 1.625000 0.000000 
#    z 0.000000 0.000000 1.629610 
# 
# From -- ./inp_files/1181.got.cif
#   From: 2010.06.25/outbox.cif.g09.slc.cpg/sg176_1_cif.got.tgz:1181.got - 2010.06.28 12:15:01.
