data_PCOD8325672
_publ_section_title
;
Structure prediction by ZEFSAII (Michael W. Deem and Ramdas Pophale) SiO2 
 PCOD8325672
Probable space group: P 63/M
;
_chemical_formula_sum "Si O2"
_cell_formula_units_Z 36
_cell_length_a 8.649241
_cell_length_b 8.649241
_cell_length_c 26.161815
_cell_angle_alpha 90.000000
_cell_angle_beta 90.000000
_cell_angle_gamma 120.000000
_cell_volume 1694.940662
_symmetry_space_group_name_H-M "P 63/M"
_symmetry_group_IT_number 176
_symmetry_cell_setting 'hexagonal'
loop_
_space_group_symop_operation_xyz
x,y,z
x-y,x,1/2+z
-y,x-y,z
-x,-y,1/2+z
-x+y,-x,z
y,-x+y,1/2+z
-x,-y,-z
-x+y,-x,1/2-z
y,-x+y,-z
x,y,1/2-z
x-y,x,-z
-y,x-y,1/2-z
loop_
_atom_site_type_symbol
_atom_site_label
_atom_site_fract_x
_atom_site_fract_y
_atom_site_fract_z
Si Si1 0.570752 0.463719 0.448404
Si Si2 0.002486 0.362381 0.345152
Si Si3 0.316630 0.314694 0.192286
O O1 0.463776 0.247627 0.446424
O O2 0.500000 0.500000 0.500000
O O3 0.541700 0.561991 0.400108
O O4 0.024995 0.511962 0.304403
O O5 0.156484 0.313476 0.338826
O O6 0.812153 0.185515 0.337137
O O7 0.253358 0.245925 0.250000
#
# Coordination Sequence:
#
# PCOD8325672 Si02
#       3
#    12  12  12
#     4  10  23  43  69 102 132 178 228 288 359 414
#     4  12  25  45  67 102 141 180 235 290 349 424
#     4  12  24  42  68  98 137 183 230 282 349 420
#
# _framework density 21.23968
#
# number of rings (size 3 to 8) (size 9 to 14) (size 15 to 20)
#    0.667    0.000    3.333    5.000    4.667    0.000 
#    0.000    0.000    0.000    2.667    0.000    0.000 
#    0.000    0.000    0.000    0.000    0.000    0.000 
#
# Total GULP energy -446243.787010 kJ/mol
# GULP energy per Si atom -12395.660750 kJ/mol
# Density = 2.119134 g / cm^3
# Si number density = 21.239680 Si / 1000 Ang^3
#
#
#
# Elastic Constant Matrix: (Units=GPa)
#
#
# Indices 1 2 3 4 5 6 
#
# 1 98.0588 17.9252 39.3632 0.0000 0.0000 0.0000
# 2 17.9252 98.0588 39.3632 0.0000 0.0000 0.0000
# 3 39.3632 39.3632 168.7046 0.0000 0.0000 0.0000
# 4 0.0000 0.0000 0.0000 38.1637 0.0000 0.0000
# 5 0.0000 0.0000 0.0000 0.0000 38.1637 0.0000
# 6 0.0000 0.0000 0.0000 0.0000 0.0000 40.0668
#
#
#
# Elastic Compliance Matrix: (Units=1/GPa)
#
#
# Indices 1 2 3 4 5 6 
#
# 1 0.011362 -0.001117 -0.002390 0.000000 0.000000 0.000000
# 2 -0.001117 0.011362 -0.002390 0.000000 0.000000 0.000000
# 3 -0.002390 -0.002390 0.007043 0.000000 0.000000 0.000000
# 4 0.000000 0.000000 0.000000 0.026203 0.000000 0.000000
# 5 0.000000 0.000000 0.000000 0.000000 0.026203 0.000000
# 6 0.000000 0.000000 0.000000 0.000000 0.000000 0.024958
#
#
# Mechanical properties :
#
#
# Convention : Reuss Voigt Hill
#
# Bulk Modulus (GPa) = 55.64673 62.01396 58.83034
# Shear Modulus (GPa) = 40.02669 41.15688 40.59179
#
# Velocity S-wave (km/s) = 4.34582 4.40675 4.37639
# Velocity P-wave (km/s) = 7.17202 7.42652 7.30038
#
# Compressibility (1/GPa) = 0.01797051
#
# Stress axis : x y z
#
# Youngs Moduli (GPa) = 88.01468 88.01468 141.98601
#
# Poissons Ratio (x) = 0.09835 0.33939
# Poissons Ratio (y) = 0.09835 0.33939
# Poissons Ratio (z) = 0.21038 0.21038
#
# Static dielectric constant tensor:
#      x y z
#    x 3.728900 0.000000 0.000000 
#    y 0.000000 3.728900 0.000000 
#    z 0.000000 0.000000 3.749960 
# 
# 
# High freq. dielectric constant tensor:
#      x y z
#    x 1.829000 0.000000 0.000000 
#    y 0.000000 1.829000 0.000000 
#    z 0.000000 0.000000 1.840130 
# 
# From -- ./inp_files/4171.got.cif
#   From: 2010.06.25/outbox.cif.g09.slc.cpg/sg176_3_cif.got.tgz:4171.got - 2010.06.28 12:15:01.
