data_PCOD8325317
_publ_section_title
;
Structure prediction by ZEFSAII (Michael W. Deem and Ramdas Pophale) SiO2 
 PCOD8325317
Probable space group: P 6/M
;
_chemical_formula_sum "Si O2"
_cell_formula_units_Z 46
_cell_length_a 17.735168
_cell_length_b 17.735168
_cell_length_c 7.875527
_cell_angle_alpha 90.000000
_cell_angle_beta 90.000000
_cell_angle_gamma 120.000000
_cell_volume 2145.264618
_symmetry_space_group_name_H-M "P 6/M"
_symmetry_group_IT_number 175
_symmetry_cell_setting 'hexagonal'
loop_
_space_group_symop_operation_xyz
x,y,z
x-y,x,z
-y,x-y,z
-x,-y,z
-x+y,-x,z
y,-x+y,z
-x,-y,-z
-x+y,-x,-z
y,-x+y,-z
x,y,-z
x-y,x,-z
-y,x-y,-z
loop_
_atom_site_type_symbol
_atom_site_label
_atom_site_fract_x
_atom_site_fract_y
_atom_site_fract_z
Si Si1 0.333333 0.666667 0.699724
Si Si2 0.242322 0.324117 0.687817
Si Si3 0.565409 0.596437 0.197789
Si Si4 0.743654 0.220148 0.193873
Si Si5 0.148964 0.197624 0.000000
O O1 0.333334 0.666668 0.500000
O O2 0.267963 0.697603 0.767853
O O3 0.213416 0.281527 0.500000
O O4 0.344926 0.362695 0.702543
O O5 0.222018 0.402581 0.694845
O O6 0.191007 0.252592 0.830405
O O7 0.500000 0.500000 0.266537
O O8 0.519992 0.653386 0.234188
O O9 0.585932 0.594090 0.000000
O O10 0.772419 0.223731 0.000000
O O11 0.163621 0.116240 0.000000
#
# Coordination Sequence:
#
# PCOD8325317 Si02
#       5
#     4  12  12  12   6
#     4  12  25  38  58  96 142 185 232 280 326 388
#     4  12  25  43  71 103 137 178 227 283 341 406
#     4  10  21  39  65  96 132 178 228 276 330 392
#     4  11  22  40  64  91 132 180 226 274 331 395
#     4  12  27  50  75 102 134 172 220 280 352 426
#
# _framework density 21.442577
#
# number of rings (size 3 to 8) (size 9 to 14) (size 15 to 20)
#    0.000    0.783    2.609    4.826    0.000    7.826 
#    0.000    0.000    0.000    1.565    0.000    0.000 
#    0.000    0.000    0.000    0.000    0.000    0.000 
#
# Total GULP energy -570673.837827 kJ/mol
# GULP energy per Si atom -12405.952996 kJ/mol
# Density = 2.139377 g / cm^3
# Si number density = 21.442577 Si / 1000 Ang^3
#
#
#
# Elastic Constant Matrix: (Units=GPa)
#
#
# Indices 1 2 3 4 5 6 
#
# 1 135.3860 39.4028 53.0294 0.0000 0.0000 0.0010
# 2 39.4028 135.3859 53.0295 0.0000 0.0000 0.0003
# 3 53.0294 53.0295 140.2369 0.0000 0.0000 0.0002
# 4 0.0000 0.0000 0.0000 13.7020 0.0001 0.0000
# 5 0.0000 0.0000 0.0000 0.0001 13.7019 0.0000
# 6 0.0010 0.0003 0.0002 0.0000 0.0000 47.9920
#
#
#
# Elastic Compliance Matrix: (Units=1/GPa)
#
#
# Indices 1 2 3 4 5 6 
#
# 1 0.008922 -0.001497 -0.002808 0.000000 0.000000 0.000000
# 2 -0.001497 0.008922 -0.002808 0.000000 0.000000 0.000000
# 3 -0.002808 -0.002808 0.009254 0.000000 0.000000 0.000000
# 4 0.000000 0.000000 0.000000 0.072982 -0.000001 0.000000
# 5 0.000000 0.000000 0.000000 -0.000001 0.072982 0.000000
# 6 0.000000 0.000000 0.000000 0.000000 0.000000 0.020837
#
#
# Mechanical properties :
#
#
# Convention : Reuss Voigt Hill
#
# Bulk Modulus (GPa) = 77.68044 77.99248 77.83646
# Shear Modulus (GPa) = 23.53892 32.78232 28.16062
#
# Velocity S-wave (km/s) = 3.31685 3.91428 3.62788
# Velocity P-wave (km/s) = 7.13964 7.54192 7.34353
#
# Compressibility (1/GPa) = 0.01287325
#
# Stress axis : x y z
#
# Youngs Moduli (GPa) = 112.08692 112.08673 108.05949
#
# Poissons Ratio (x) = 0.16778 0.30339
# Poissons Ratio (y) = 0.16778 0.30339
# Poissons Ratio (z) = 0.31470 0.31470
#
# Static dielectric constant tensor:
#      x y z
#    x 3.780970 -0.000050 0.000000 
#    y -0.000050 3.780910 0.000000 
#    z 0.000000 0.000000 3.880580 
# 
# 
# High freq. dielectric constant tensor:
#      x y z
#    x 1.846640 0.000000 0.000000 
#    y 0.000000 1.846640 0.000000 
#    z 0.000000 0.000000 1.843820 
# 
# From -- ./inp_files/562.got.cif
#   From: 2010.03.12/outbox.cif.g09.slc.cpg/sg175_1_cif.got.tgz:562.got - 2010.04.02 06:55:29.
