data_PCOD8325559
_publ_section_title
;
Structure prediction by ZEFSAII (Michael W. Deem and Ramdas Pophale) SiO2 
 PCOD8325559
Probable space group: P 63/M
;
_chemical_formula_sum "Si O2"
_cell_formula_units_Z 96
_cell_length_a 17.790469
_cell_length_b 17.790469
_cell_length_c 18.659731
_cell_angle_alpha 90.000000
_cell_angle_beta 90.000000
_cell_angle_gamma 120.000000
_cell_volume 5114.589761
_symmetry_space_group_name_H-M "P 63/M"
_symmetry_group_IT_number 176
_symmetry_cell_setting 'hexagonal'
loop_
_space_group_symop_operation_xyz
x,y,z
x-y,x,1/2+z
-y,x-y,z
-x,-y,1/2+z
-x+y,-x,z
y,-x+y,1/2+z
-x,-y,-z
-x+y,-x,1/2-z
y,-x+y,-z
x,y,1/2-z
x-y,x,-z
-y,x-y,1/2-z
loop_
_atom_site_type_symbol
_atom_site_label
_atom_site_fract_x
_atom_site_fract_y
_atom_site_fract_z
Si Si1 0.810629 0.318272 0.526310
Si Si2 0.441655 0.943244 0.831034
Si Si3 0.759563 0.078034 0.456880
Si Si4 0.978491 0.617780 0.832426
Si Si5 0.831958 0.483213 0.038486
Si Si6 0.028632 0.698821 0.328477
Si Si7 0.668435 0.925243 0.546927
Si Si8 0.556446 0.775325 0.332472
O O1 0.734213 0.265477 0.467104
O O2 0.840945 0.419762 0.518701
O O3 0.892976 0.306458 0.507541
O O4 0.773126 0.283649 0.606821
O O5 0.425914 0.906510 0.750000
O O6 0.391133 0.858282 0.882051
O O7 0.542658 0.000759 0.849378
O O8 0.410944 0.013464 0.841700
O O9 0.687004 0.103162 0.480028
O O10 0.854270 0.157575 0.449496
O O11 0.746234 0.031028 0.381367
O O12 0.751880 0.011026 0.517173
O O13 0.991696 0.645488 0.750000
O O14 0.879094 0.584834 0.854975
O O15 0.050807 0.701302 0.874725
O O16 0.996405 0.705719 0.250000
O O17 0.129516 0.770057 0.337488
O O18 0.518370 0.758874 0.250000
#
# Coordination Sequence:
#
# PCOD8325559 Si02
#       8
#    12  12  12  12  12  12  12  12
#     4  11  21  37  54  80 116 151 194 234 278 329
#     4   9  18  35  56  82 114 150 191 234 284 340
#     4  10  22  36  57  84 110 143 183 233 281 342
#     4  10  20  35  57  84 113 147 190 239 283 329
#     4  10  21  36  55  81 113 154 191 234 276 329
#     4   9  18  34  56  80 108 145 187 228 277 336
#     4  11  21  36  56  84 111 142 181 235 286 339
#     4  10  21  37  55  80 114 150 191 234 277 325
#
# _framework density 18.769833999999999
#
# number of rings (size 3 to 8) (size 9 to 14) (size 15 to 20)
#    0.000    2.000    2.500    1.750    0.000    3.000 
#    0.000    4.375    0.000    0.750    0.000    3.500 
#    0.000    0.000    0.000    0.000    0.000    0.000 
#
# Total GULP energy -1189801.199874 kJ/mol
# GULP energy per Si atom -12393.762499 kJ/mol
# Density = 1.872711 g / cm^3
# Si number density = 18.769834 Si / 1000 Ang^3
#
#
#
# Elastic Constant Matrix: (Units=GPa)
#
#
# Indices 1 2 3 4 5 6 
#
# 1 73.8293 33.9777 47.4481 0.0000 0.0000 0.0000
# 2 33.9777 73.8293 47.4481 0.0000 0.0000 0.0000
# 3 47.4481 47.4481 110.6555 0.0000 0.0000 0.0000
# 4 0.0000 0.0000 0.0000 28.5506 0.0000 0.0000
# 5 0.0000 0.0000 0.0000 0.0000 28.5506 0.0000
# 6 0.0000 0.0000 0.0000 0.0000 0.0000 19.9258
#
#
#
# Elastic Compliance Matrix: (Units=1/GPa)
#
#
# Indices 1 2 3 4 5 6 
#
# 1 0.019996 -0.005097 -0.006389 0.000000 0.000000 0.000000
# 2 -0.005097 0.019996 -0.006389 0.000000 0.000000 0.000000
# 3 -0.006389 -0.006389 0.014516 0.000000 0.000000 0.000000
# 4 0.000000 0.000000 0.000000 0.035026 0.000000 0.000000
# 5 0.000000 0.000000 0.000000 0.000000 0.035026 0.000000
# 6 0.000000 0.000000 0.000000 0.000000 0.000000 0.050186
#
#
# Mechanical properties :
#
#
# Convention : Reuss Voigt Hill
#
# Bulk Modulus (GPa) = 53.30531 57.34023 55.32277
# Shear Modulus (GPa) = 23.06829 24.03475 23.55152
#
# Velocity S-wave (km/s) = 3.50953 3.58229 3.54609
# Velocity P-wave (km/s) = 6.69951 6.90839 6.80475
#
# Compressibility (1/GPa) = 0.01875986
#
# Stress axis : x y z
#
# Youngs Moduli (GPa) = 50.00925 50.00925 68.88963
#
# Poissons Ratio (x) = 0.25489 0.44012
# Poissons Ratio (y) = 0.25489 0.44012
# Poissons Ratio (z) = 0.31950 0.31950
#
# Static dielectric constant tensor:
#      x y z
#    x 3.315110 0.000000 0.000000 
#    y 0.000000 3.315110 0.000000 
#    z 0.000000 0.000000 3.706710 
# 
# 
# High freq. dielectric constant tensor:
#      x y z
#    x 1.709160 0.000000 0.000000 
#    y 0.000000 1.709160 0.000000 
#    z 0.000000 0.000000 1.744540 
# 
# From -- ./inp_files/3900.got.cif
#   From: 2010.06.25/outbox.cif.g09.slc.cpg/sg176_2_cif.got.tgz:3900.got - 2010.06.28 12:15:01.
