data_PCOD8325960
_publ_section_title
;
Structure prediction by ZEFSAII (Michael W. Deem and Ramdas Pophale) SiO2 
 PCOD8325960
Probable space group: P 61 2 2
;
_chemical_formula_sum "Si O2"
_cell_formula_units_Z 60
_cell_length_a 11.860999
_cell_length_b 11.860999
_cell_length_c 25.611122
_cell_angle_alpha 90.000000
_cell_angle_beta 90.000000
_cell_angle_gamma 120.000000
_cell_volume 3120.338971
_symmetry_space_group_name_H-M "P 61 2 2"
_symmetry_group_IT_number 178
_symmetry_cell_setting 'hexagonal'
loop_
_space_group_symop_operation_xyz
x,y,z
x-y,x,1/6+z
-y,x-y,1/3+z
-x,-y,1/2+z
-x+y,-x,2/3+z
y,-x+y,5/6+z
x-y,-y,-z
-x,-x+y,2/3-z
y,x,1/3-z
-y,-x,5/6-z
-x+y,y,1/2-z
x,x-y,1/6-z
loop_
_atom_site_type_symbol
_atom_site_label
_atom_site_fract_x
_atom_site_fract_y
_atom_site_fract_z
Si Si1 0.620396 0.247762 0.132145
Si Si2 0.085826 0.226631 0.649354
Si Si3 0.663703 0.829744 0.871055
Si Si4 0.496853 0.293068 0.526546
Si Si5 0.542550 0.540709 0.856836
O O1 0.549857 0.274929 0.083334
O O2 0.710833 0.187639 0.115102
O O3 0.702944 0.391282 0.154614
O O4 0.519886 0.152997 0.175333
O O5 0.109579 0.109579 0.666667
O O6 0.111192 0.245713 0.588086
O O7 0.189273 0.357955 0.679346
O O8 0.939351 0.195454 0.661080
O O9 0.637165 0.693144 0.848054
O O10 0.535548 0.267774 0.583334
O O11 0.485825 0.423073 0.518128
O O12 0.492004 0.507997 0.916667
#
# Coordination Sequence:
#
# PCOD8325960 Si02
#       5
#    12  12  12  12  12
#     4  11  21  38  62  91 124 159 205 258 309 364
#     4  12  23  38  62  91 122 159 203 254 305 360
#     4  11  21  41  61  88 124 164 207 248 305 377
#     4  11  21  35  59  92 123 154 202 257 309 356
#     4  11  21  41  64  87 123 168 206 248 311 381
#
# _framework density 19.228680000000001
#
# number of rings (size 3 to 8) (size 9 to 14) (size 15 to 20)
#    0.000    0.800    6.000    3.600    0.000    1.600 
#    0.000    2.000    0.000    1.200    0.000    0.000 
#    0.000    0.000    0.000    0.000    0.000    0.000 
#
# Total GULP energy -743707.993160 kJ/mol
# GULP energy per Si atom -12395.133219 kJ/mol
# Density = 1.918492 g / cm^3
# Si number density = 19.228680 Si / 1000 Ang^3
#
#
#
# Elastic Constant Matrix: (Units=GPa)
#
#
# Indices 1 2 3 4 5 6 
#
# 1 93.9461 35.4790 26.1399 0.0000 0.0000 0.0000
# 2 35.4790 93.9461 26.1399 0.0000 0.0000 0.0000
# 3 26.1399 26.1399 81.5401 0.0000 0.0000 0.0000
# 4 0.0000 0.0000 0.0000 24.6046 0.0000 0.0000
# 5 0.0000 0.0000 0.0000 0.0000 24.6046 0.0000
# 6 0.0000 0.0000 0.0000 0.0000 0.0000 29.2336
#
#
#
# Elastic Compliance Matrix: (Units=1/GPa)
#
#
# Indices 1 2 3 4 5 6 
#
# 1 0.012990 -0.004114 -0.002845 0.000000 0.000000 0.000000
# 2 -0.004114 0.012990 -0.002845 0.000000 0.000000 0.000000
# 3 -0.002845 -0.002845 0.014088 0.000000 0.000000 0.000000
# 4 0.000000 0.000000 0.000000 0.040643 0.000000 0.000000
# 5 0.000000 0.000000 0.000000 0.000000 0.040643 0.000000
# 6 0.000000 0.000000 0.000000 0.000000 0.000000 0.034207
#
#
# Mechanical properties :
#
#
# Convention : Reuss Voigt Hill
#
# Bulk Modulus (GPa) = 48.87978 49.43886 49.15932
# Shear Modulus (GPa) = 27.47412 27.80012 27.63712
#
# Velocity S-wave (km/s) = 3.78406 3.80644 3.79527
# Velocity P-wave (km/s) = 6.67590 6.71457 6.69526
#
# Compressibility (1/GPa) = 0.02045836
#
# Stress axis : x y z
#
# Youngs Moduli (GPa) = 76.98388 76.98388 70.98123
#
# Poissons Ratio (x) = 0.31670 0.20197
# Poissons Ratio (y) = 0.31670 0.20197
# Poissons Ratio (z) = 0.21905 0.21905
#
# Static dielectric constant tensor:
#      x y z
#    x 3.593240 0.000000 0.000000 
#    y 0.000000 3.593240 0.000000 
#    z 0.000000 0.000000 3.513380 
# 
# 
# High freq. dielectric constant tensor:
#      x y z
#    x 1.742300 0.000000 0.000000 
#    y 0.000000 1.742300 0.000000 
#    z 0.000000 0.000000 1.743710 
# 
# From -- ./inp_files/8800.got.cif
#   From: 2010.03.12/outbox.cif.g09.slc.cpg/sg178_5_cif.got.tgz:8800.got - 2010.04.02 07:02:38.
