data_PCOD8325301
_publ_section_title
;
Structure prediction by ZEFSAII (Michael W. Deem and Ramdas Pophale) SiO2 
 PCOD8325301
Probable space group: P 6/M
;
_chemical_formula_sum "Si O2"
_cell_formula_units_Z 66
_cell_length_a 20.843054
_cell_length_b 20.843054
_cell_length_c 7.827492
_cell_angle_alpha 90.000000
_cell_angle_beta 90.000000
_cell_angle_gamma 120.000000
_cell_volume 2944.936749
_symmetry_space_group_name_H-M "P 6/M"
_symmetry_group_IT_number 175
_symmetry_cell_setting 'hexagonal'
loop_
_space_group_symop_operation_xyz
x,y,z
x-y,x,z
-y,x-y,z
-x,-y,z
-x+y,-x,z
y,-x+y,z
-x,-y,-z
-x+y,-x,-z
y,-x+y,-z
x,y,-z
x-y,x,-z
-y,x-y,-z
loop_
_atom_site_type_symbol
_atom_site_label
_atom_site_fract_x
_atom_site_fract_y
_atom_site_fract_z
Si Si1 0.662091 0.815794 0.203957
Si Si2 0.432589 0.112796 0.203285
Si Si3 0.912946 0.082130 0.796710
Si Si4 0.404894 0.844127 0.805482
Si Si5 0.950704 0.603984 0.195215
Si Si6 0.250900 0.587782 0.500000
O O1 0.605172 0.841338 0.273667
O O2 0.745903 0.869771 0.270155
O O3 0.631061 0.733434 0.280313
O O4 0.660585 0.816305 0.000000
O O5 0.517717 0.146657 0.259636
O O6 0.385558 0.030749 0.284038
O O7 0.430522 0.108261 0.000000
O O8 0.997470 0.125798 0.727777
O O9 0.912881 0.081370 0.000000
O O10 0.404487 0.920839 0.793245
O O11 0.340120 0.790220 0.676370
O O12 0.385527 0.812628 0.000000
O O13 0.959509 0.629803 0.000000
O O14 0.329084 0.590968 0.500000
#
# Coordination Sequence:
#
# PCOD8325301 Si02
#       6
#    12  12  12  12  12   6
#     4   9  16  24  41  67  98 136 182 233 284 335
#     4   9  17  30  50  78 109 143 187 238 287 338
#     4   9  15  22  32  51  86 133 181 227 275 330
#     4  10  21  38  62  85 113 151 193 235 287 347
#     4   9  17  30  50  78 109 143 187 238 287 338
#     4  10  26  42  57  86 122 150 186 240 290 342
#
# _framework density 22.411348
#
# number of rings (size 3 to 8) (size 9 to 14) (size 15 to 20)
#    0.182    2.545    0.000    1.818    2.545    8.000 
#    0.000    1.818    0.000    0.000    0.000    0.000 
#    0.000    0.000    0.000    0.000    0.000    0.545 
#
# Total GULP energy -817882.469976 kJ/mol
# GULP energy per Si atom -12392.158636 kJ/mol
# Density = 2.236034 g / cm^3
# Si number density = 22.411348 Si / 1000 Ang^3
#
#
#
# Elastic Constant Matrix: (Units=GPa)
#
#
# Indices 1 2 3 4 5 6 
#
# 1 93.7498 2.4335 7.1441 0.0000 0.0000 0.0000
# 2 2.4335 93.7498 7.1441 0.0000 0.0000 0.0000
# 3 7.1441 7.1441 45.5662 0.0000 0.0000 0.0000
# 4 0.0000 0.0000 0.0000 3.2731 0.0000 0.0000
# 5 0.0000 0.0000 0.0000 0.0000 3.2731 0.0000
# 6 0.0000 0.0000 0.0000 0.0000 0.0000 45.6581
#
#
#
# Elastic Compliance Matrix: (Units=1/GPa)
#
#
# Indices 1 2 3 4 5 6 
#
# 1 0.010798 -0.000153 -0.001669 0.000000 0.000000 0.000000
# 2 -0.000153 0.010798 -0.001669 0.000000 0.000000 0.000000
# 3 -0.001669 -0.001669 0.022469 0.000000 0.000000 0.000000
# 4 0.000000 0.000000 0.000000 0.305519 0.000000 0.000000
# 5 0.000000 0.000000 0.000000 0.000000 0.305519 0.000000
# 6 0.000000 0.000000 0.000000 0.000000 0.000000 0.021902
#
#
# Mechanical properties :
#
#
# Convention : Reuss Voigt Hill
#
# Bulk Modulus (GPa) = 26.96641 29.61211 28.28926
# Shear Modulus (GPa) = 7.18031 24.86381 16.02206
#
# Velocity S-wave (km/s) = 1.79188 3.33442 2.67668
# Velocity P-wave (km/s) = 4.04224 5.29775 4.71200
#
# Compressibility (1/GPa) = 0.03708318
#
# Stress axis : x y z
#
# Youngs Moduli (GPa) = 92.61106 92.61106 44.50490
#
# Poissons Ratio (x) = 0.01418 0.07428
# Poissons Ratio (y) = 0.01418 0.07428
# Poissons Ratio (z) = 0.15456 0.15456
#
# Static dielectric constant tensor:
#      x y z
#    x 4.137170 0.000000 0.000000 
#    y 0.000000 4.137170 0.000000 
#    z 0.000000 0.000000 3.232670 
# 
# 
# High freq. dielectric constant tensor:
#      x y z
#    x 1.889160 0.000000 0.000000 
#    y 0.000000 1.889160 0.000000 
#    z 0.000000 0.000000 1.820010 
# 
# From -- ./inp_files/962.got.cif
#   From: 2010.03.12/outbox.cif.g09.slc.cpg/sg175_1_cif.got.tgz:962.got - 2010.04.02 06:55:29.
