data_PCOD8325034
_publ_section_title
;
Structure prediction by ZEFSAII (Michael W. Deem and Ramdas Pophale) SiO2 
 PCOD8325034
Probable space group: P 6/M
;
_chemical_formula_sum "Si O2"
_cell_formula_units_Z 72
_cell_length_a 23.770772
_cell_length_b 23.770772
_cell_length_c 8.383710
_cell_angle_alpha 90.000000
_cell_angle_beta 90.000000
_cell_angle_gamma 120.000000
_cell_volume 4102.545930
_symmetry_space_group_name_H-M "P 6/M"
_symmetry_group_IT_number 175
_symmetry_cell_setting 'hexagonal'
loop_
_space_group_symop_operation_xyz
x,y,z
x-y,x,z
-y,x-y,z
-x,-y,z
-x+y,-x,z
y,-x+y,z
-x,-y,-z
-x+y,-x,-z
y,-x+y,-z
x,y,-z
x-y,x,-z
-y,x-y,-z
loop_
_atom_site_type_symbol
_atom_site_label
_atom_site_fract_x
_atom_site_fract_y
_atom_site_fract_z
Si Si1 0.139965 0.401924 0.188813
Si Si2 0.261875 0.074085 0.686106
Si Si3 0.935276 0.744116 0.812532
Si Si4 0.733765 0.597036 0.188209
Si Si5 0.406247 0.925776 0.186326
Si Si6 0.065636 0.594327 0.683981
O O1 0.090612 0.329291 0.249826
O O2 0.213081 0.422880 0.242804
O O3 0.118534 0.451933 0.255910
O O4 0.136016 0.400479 0.000000
O O5 0.270722 0.090201 0.500000
O O6 0.236767 0.117584 0.773400
O O7 0.329578 0.086553 0.760383
O O8 0.208055 0.999744 0.716007
O O9 0.949950 0.751268 0.000000
O O10 0.667185 0.547364 0.274219
O O11 0.723088 0.591289 0.000000
O O12 0.452564 0.905429 0.278753
O O13 0.428627 0.001225 0.212064
O O14 0.409292 0.913372 0.000000
O O15 0.046233 0.588361 0.500000
#
# Coordination Sequence:
#
# PCOD8325034 Si02
#       6
#    12  12  12  12  12  12
#     4   8  17  31  51  74  95 121 163 206 240 284
#     4  11  21  33  50  77 106 132 164 210 256 294
#     4  10  19  34  53  74 101 137 171 202 243 301
#     4  10  19  34  52  72  98 132 168 204 246 301
#     4  10  18  32  52  73  96 129 165 202 247 297
#     4  11  21  32  46  72 103 131 162 202 247 295
#
# _framework density 17.550077000000002
#
# number of rings (size 3 to 8) (size 9 to 14) (size 15 to 20)
#    0.000    2.000    0.000    7.500    0.000    1.333 
#    0.000    9.167    0.000    1.000    0.000    4.667 
#    0.000    0.000    0.000    0.000    0.000    0.000 
#
# Total GULP energy -892918.296517 kJ/mol
# GULP energy per Si atom -12401.643007 kJ/mol
# Density = 1.751013 g / cm^3
# Si number density = 17.550077 Si / 1000 Ang^3
#
#
#
# Elastic Constant Matrix: (Units=GPa)
#
#
# Indices 1 2 3 4 5 6 
#
# 1 112.1644 58.0354 11.4818 0.0000 0.0000 0.0000
# 2 58.0354 112.1644 11.4818 0.0000 0.0000 0.0000
# 3 11.4818 11.4818 56.2705 0.0000 0.0000 0.0000
# 4 0.0000 0.0000 0.0000 18.2050 0.0000 0.0000
# 5 0.0000 0.0000 0.0000 0.0000 18.2050 0.0000
# 6 0.0000 0.0000 0.0000 0.0000 0.0000 27.0645
#
#
#
# Elastic Compliance Matrix: (Units=1/GPa)
#
#
# Indices 1 2 3 4 5 6 
#
# 1 0.012258 -0.006216 -0.001233 0.000000 0.000000 0.000000
# 2 -0.006216 0.012258 -0.001233 0.000000 0.000000 0.000000
# 3 -0.001233 -0.001233 0.018274 0.000000 0.000000 0.000000
# 4 0.000000 0.000000 0.000000 0.054930 0.000000 0.000000
# 5 0.000000 0.000000 0.000000 0.000000 0.054930 0.000000
# 6 0.000000 0.000000 0.000000 0.000000 0.000000 0.036949
#
#
# Mechanical properties :
#
#
# Convention : Reuss Voigt Hill
#
# Bulk Modulus (GPa) = 39.32868 49.17748 44.25308
# Shear Modulus (GPa) = 23.20845 26.00157 24.60501
#
# Velocity S-wave (km/s) = 3.64044 3.85329 3.74838
# Velocity P-wave (km/s) = 6.33471 6.91948 6.63354
#
# Compressibility (1/GPa) = 0.02542673
#
# Stress axis : x y z
#
# Youngs Moduli (GPa) = 81.57880 81.57880 54.72140
#
# Poissons Ratio (x) = 0.50712 0.06746
# Poissons Ratio (y) = 0.50712 0.06746
# Poissons Ratio (z) = 0.10057 0.10057
#
# Static dielectric constant tensor:
#      x y z
#    x 3.307340 0.000000 0.000000 
#    y 0.000000 3.307340 0.000000 
#    z 0.000000 0.000000 3.190560 
# 
# 
# High freq. dielectric constant tensor:
#      x y z
#    x 1.667330 0.000000 0.000000 
#    y 0.000000 1.667330 0.000000 
#    z 0.000000 0.000000 1.680720 
# 
# From -- ./inp_files/1215.got.cif
#   From: 2010.03.12/outbox.cif.g09.slc.cpg/sg175_1_cif.got.tgz:1215.got - 2010.04.02 06:55:29.
