data_PCOD8325700
_publ_section_title
;
Structure prediction by ZEFSAII (Michael W. Deem and Ramdas Pophale) SiO2 
 PCOD8325700
Probable space group: P 63/M
;
_chemical_formula_sum "Si O2"
_cell_formula_units_Z 52
_cell_length_a 11.268173
_cell_length_b 11.268173
_cell_length_c 28.721265
_cell_angle_alpha 90.000000
_cell_angle_beta 90.000000
_cell_angle_gamma 120.000000
_cell_volume 3158.211480
_symmetry_space_group_name_H-M "P 63/M"
_symmetry_group_IT_number 176
_symmetry_cell_setting 'hexagonal'
loop_
_space_group_symop_operation_xyz
x,y,z
x-y,x,1/2+z
-y,x-y,z
-x,-y,1/2+z
-x+y,-x,z
y,-x+y,1/2+z
-x,-y,-z
-x+y,-x,1/2-z
y,-x+y,-z
x,y,1/2-z
x-y,x,-z
-y,x-y,1/2-z
loop_
_atom_site_type_symbol
_atom_site_label
_atom_site_fract_x
_atom_site_fract_y
_atom_site_fract_z
Si Si1 0.704905 0.852452 0.102261
Si Si2 0.057364 0.392272 0.550534
Si Si3 0.334908 0.392272 0.949466
Si Si4 0.000000 0.000000 0.555776
Si Si5 0.087811 0.912189 0.198929
O O1 0.627669 0.693553 0.087056
O O2 0.712884 0.856442 0.158264
O O3 0.848450 0.924225 0.075588
O O4 0.627669 0.934116 0.087056
O O5 0.101898 0.550949 0.554184
O O6 0.188298 0.376597 0.561934
O O7 0.000000 0.331513 0.500000
O O8 0.000000 0.000000 0.500000
O O9 0.123905 0.876095 0.250000
O O10 0.922415 0.844829 0.194428
#
# Coordination Sequence:
#
# PCOD8325700 Si02
#       5
#    12  12  12   4  12
#     4  12  18  32  52  76  98 130 165 213 254 304
#     4  11  22  34  48  70 102 138 172 207 250 305
#     4  11  22  34  48  70 102 138 172 207 250 305
#     4  12  18  24  52  80 100 117 159 213 244 296
#     4   8  14  26  46  78 106 120 147 204 264 301
#
# _framework density 16.465015999999999
#
# number of rings (size 3 to 8) (size 9 to 14) (size 15 to 20)
#    0.462    0.923    6.923    1.846    0.000    0.000 
#    1.385    0.000    0.000    1.385    0.000    0.000 
#    0.000    3.692    0.000    0.000    0.000    0.000 
#
# Total GULP energy -644550.481351 kJ/mol
# GULP energy per Si atom -12395.201564 kJ/mol
# Density = 1.642754 g / cm^3
# Si number density = 16.465016 Si / 1000 Ang^3
#
#
#
# Elastic Constant Matrix: (Units=GPa)
#
#
# Indices 1 2 3 4 5 6 
#
# 1 56.4741 24.1668 21.1902 0.0000 0.0000 0.0000
# 2 24.1668 56.4741 21.1902 0.0000 0.0000 0.0000
# 3 21.1902 21.1902 140.2257 0.0000 0.0000 0.0000
# 4 0.0000 0.0000 0.0000 9.6544 0.0000 0.0000
# 5 0.0000 0.0000 0.0000 0.0000 9.6544 0.0000
# 6 0.0000 0.0000 0.0000 0.0000 0.0000 16.1536
#
#
#
# Elastic Compliance Matrix: (Units=1/GPa)
#
#
# Indices 1 2 3 4 5 6 
#
# 1 0.022212 -0.008741 -0.002036 0.000000 0.000000 0.000000
# 2 -0.008741 0.022212 -0.002036 0.000000 0.000000 0.000000
# 3 -0.002036 -0.002036 0.007747 0.000000 0.000000 0.000000
# 4 0.000000 0.000000 0.000000 0.103580 0.000000 0.000000
# 5 0.000000 0.000000 0.000000 0.000000 0.103580 0.000000
# 6 0.000000 0.000000 0.000000 0.000000 0.000000 0.061906
#
#
# Mechanical properties :
#
#
# Convention : Reuss Voigt Hill
#
# Bulk Modulus (GPa) = 37.67168 42.91869 40.29519
# Shear Modulus (GPa) = 14.05648 19.53427 16.79538
#
# Velocity S-wave (km/s) = 2.92502 3.44817 3.19731
# Velocity P-wave (km/s) = 5.85979 6.47891 6.17711
#
# Compressibility (1/GPa) = 0.02654514
#
# Stress axis : x y z
#
# Youngs Moduli (GPa) = 45.02151 45.02151 129.08935
#
# Poissons Ratio (x) = 0.39354 0.26277
# Poissons Ratio (y) = 0.39354 0.26277
# Poissons Ratio (z) = 0.09165 0.09165
#
# Static dielectric constant tensor:
#      x y z
#    x 3.031840 0.000000 0.000000 
#    y 0.000000 3.031840 0.000000 
#    z 0.000000 0.000000 3.018580 
# 
# 
# High freq. dielectric constant tensor:
#      x y z
#    x 1.614320 0.000000 0.000000 
#    y 0.000000 1.614320 0.000000 
#    z 0.000000 0.000000 1.620640 
# 
# From -- ./inp_files/4444.got.cif
#   From: 2010.06.25/outbox.cif.g09.slc.cpg/sg176_3_cif.got.tgz:4444.got - 2010.06.28 12:15:01.
