data_PCOD8325496
_publ_section_title
;
Structure prediction by ZEFSAII (Michael W. Deem and Ramdas Pophale) SiO2 
 PCOD8325496
Probable space group: P 63/M
;
_chemical_formula_sum "Si O2"
_cell_formula_units_Z 54
_cell_length_a 19.900667
_cell_length_b 19.900667
_cell_length_c 8.050250
_cell_angle_alpha 90.000000
_cell_angle_beta 90.000000
_cell_angle_gamma 120.000000
_cell_volume 2761.056314
_symmetry_space_group_name_H-M "P 63/M"
_symmetry_group_IT_number 176
_symmetry_cell_setting 'hexagonal'
loop_
_space_group_symop_operation_xyz
x,y,z
x-y,x,1/2+z
-y,x-y,z
-x,-y,1/2+z
-x+y,-x,z
y,-x+y,1/2+z
-x,-y,-z
-x+y,-x,1/2-z
y,-x+y,-z
x,y,1/2-z
x-y,x,-z
-y,x-y,1/2-z
loop_
_atom_site_type_symbol
_atom_site_label
_atom_site_fract_x
_atom_site_fract_y
_atom_site_fract_z
Si Si1 0.957459 0.546553 0.446948
Si Si2 0.431167 0.716912 0.750000
Si Si3 0.295193 0.013460 0.941336
Si Si4 0.799196 0.512357 0.932413
Si Si5 0.832842 0.141475 0.934799
O O1 0.948662 0.546770 0.250000
O O2 0.872203 0.501280 0.526524
O O3 0.000000 0.500000 0.500000
O O4 0.000916 0.636207 0.514145
O O5 0.377138 0.755863 0.750000
O O6 0.478598 0.742553 0.578876
O O7 0.314240 0.034450 0.750000
O O8 0.293662 0.087271 0.023585
O O9 0.210129 0.938080 0.961283
O O10 0.765580 0.474144 0.750000
O O11 0.824189 0.600812 0.924337
O O12 0.849066 0.121018 0.750000
#
# Coordination Sequence:
#
# PCOD8325496 Si02
#       5
#    12   6  12  12  12
#     4  10  19  33  54  83 115 147 190 239 286 344
#     4  10  24  40  54  80 110 146 198 232 280 350
#     4   9  19  35  55  82 114 149 185 234 290 341
#     4  10  20  38  59  78 113 151 187 243 289 338
#     4   9  19  35  56  85 114 144 192 232 285 352
#
# _framework density 19.557732000000001
#
# number of rings (size 3 to 8) (size 9 to 14) (size 15 to 20)
#    0.222    2.222    1.111    0.667    1.556    4.444 
#    0.000    2.222    0.000    0.444    0.000    0.000 
#    0.000    0.000    0.000    0.000    0.000    0.000 
#
# Total GULP energy -669073.348792 kJ/mol
# GULP energy per Si atom -12390.247200 kJ/mol
# Density = 1.951322 g / cm^3
# Si number density = 19.557732 Si / 1000 Ang^3
#
#
#
# Elastic Constant Matrix: (Units=GPa)
#
#
# Indices 1 2 3 4 5 6 
#
# 1 84.3139 33.4779 12.9894 0.0000 0.0000 0.0000
# 2 33.4779 84.3139 12.9894 0.0000 0.0000 0.0000
# 3 12.9894 12.9894 95.6558 0.0000 0.0000 0.0000
# 4 0.0000 0.0000 0.0000 19.6627 0.0000 0.0000
# 5 0.0000 0.0000 0.0000 0.0000 19.6627 0.0000
# 6 0.0000 0.0000 0.0000 0.0000 0.0000 25.4180
#
#
#
# Elastic Compliance Matrix: (Units=1/GPa)
#
#
# Indices 1 2 3 4 5 6 
#
# 1 0.014211 -0.005460 -0.001188 0.000000 0.000000 0.000000
# 2 -0.005460 0.014211 -0.001188 0.000000 0.000000 0.000000
# 3 -0.001188 -0.001188 0.010777 0.000000 0.000000 0.000000
# 4 0.000000 0.000000 0.000000 0.050858 0.000000 0.000000
# 5 0.000000 0.000000 0.000000 0.000000 0.050858 0.000000
# 6 0.000000 0.000000 0.000000 0.000000 0.000000 0.039342
#
#
# Mechanical properties :
#
#
# Convention : Reuss Voigt Hill
#
# Bulk Modulus (GPa) = 42.50512 42.57742 42.54127
# Shear Modulus (GPa) = 24.53717 26.60382 25.57050
#
# Velocity S-wave (km/s) = 3.54588 3.69219 3.61977
# Velocity P-wave (km/s) = 6.20844 6.32406 6.26651
#
# Compressibility (1/GPa) = 0.02352658
#
# Stress axis : x y z
#
# Youngs Moduli (GPa) = 70.36618 70.36618 92.79099
#
# Poissons Ratio (x) = 0.38418 0.11027
# Poissons Ratio (y) = 0.38418 0.11027
# Poissons Ratio (z) = 0.08362 0.08362
#
# Static dielectric constant tensor:
#      x y z
#    x 3.643740 0.000000 0.000000 
#    y 0.000000 3.643740 0.000000 
#    z 0.000000 0.000000 3.778440 
# 
# 
# High freq. dielectric constant tensor:
#      x y z
#    x 1.745960 0.000000 0.000000 
#    y 0.000000 1.745960 0.000000 
#    z 0.000000 0.000000 1.761420 
# 
# From -- ./inp_files/842.got.cif
#   From: 2010.06.25/outbox.cif.g09.slc.cpg/sg176_1_cif.got.tgz:842.got - 2010.06.28 12:15:01.
