data_PCOD8325250
_publ_section_title
;
Structure prediction by ZEFSAII (Michael W. Deem and Ramdas Pophale) SiO2 
 PCOD8325250
Probable space group: P 6/M
;
_chemical_formula_sum "Si O2"
_cell_formula_units_Z 30
_cell_length_a 10.011268
_cell_length_b 10.011268
_cell_length_c 14.418695
_cell_angle_alpha 90.000000
_cell_angle_beta 90.000000
_cell_angle_gamma 120.000000
_cell_volume 1251.511262
_symmetry_space_group_name_H-M "P 6/M"
_symmetry_group_IT_number 175
_symmetry_cell_setting 'hexagonal'
loop_
_space_group_symop_operation_xyz
x,y,z
x-y,x,z
-y,x-y,z
-x,-y,z
-x+y,-x,z
y,-x+y,z
-x,-y,-z
-x+y,-x,-z
y,-x+y,-z
x,y,-z
x-y,x,-z
-y,x-y,-z
loop_
_atom_site_type_symbol
_atom_site_label
_atom_site_fract_x
_atom_site_fract_y
_atom_site_fract_z
Si Si1 0.747542 0.654671 0.500000
Si Si2 0.925113 0.653140 0.000000
Si Si3 0.500000 0.000000 0.844184
Si Si4 0.260077 0.352962 0.299785
O O1 0.926968 0.726835 0.500000
O O2 0.680509 0.564726 0.402222
O O3 0.801471 0.707503 0.000000
O O4 0.901274 0.550532 0.908842
O O5 0.520331 0.880417 0.777736
O O6 0.080136 0.290378 0.285848
#
# Coordination Sequence:
#
# PCOD8325250 Si02
#       4
#     6   6   6  12
#     4   8  15  29  58  90 128 164 215 267 312 356
#     4  11  25  50  74  98 117 155 208 268 326 385
#     4  11  24  39  58 100 128 161 194 247 330 376
#     4  10  20  39  63  96 128 172 218 267 313 363
#
# _framework density 23.971018999999998
#
# number of rings (size 3 to 8) (size 9 to 14) (size 15 to 20)
#    0.000    2.000    0.000    3.200    0.000    4.000 
#   33.600    4.000    0.000    0.000    0.000    0.000 
#    0.000    0.000    0.000    0.000    0.000    0.000 
#
# Total GULP energy -371643.675906 kJ/mol
# GULP energy per Si atom -12388.122530 kJ/mol
# Density = 2.391646 g / cm^3
# Si number density = 23.971019 Si / 1000 Ang^3
#
#
#
# Elastic Constant Matrix: (Units=GPa)
#
#
# Indices 1 2 3 4 5 6 
#
# 1 94.6440 37.8121 58.3119 0.0000 0.0000 0.0000
# 2 37.8121 94.6440 58.3119 0.0000 0.0000 0.0000
# 3 58.3119 58.3119 224.5970 0.0000 0.0000 0.0000
# 4 0.0000 0.0000 0.0000 -133.5940 0.0000 0.0000
# 5 0.0000 0.0000 0.0000 0.0000 -133.5940 0.0000
# 6 0.0000 0.0000 0.0000 0.0000 0.0000 28.4159
#
#
#
# Elastic Compliance Matrix: (Units=1/GPa)
#
#
# Indices 1 2 3 4 5 6 
#
# 1 0.013691 -0.003904 -0.002541 0.000000 0.000000 0.000000
# 2 -0.003904 0.013691 -0.002541 0.000000 0.000000 0.000000
# 3 -0.002541 -0.002541 0.005772 0.000000 0.000000 0.000000
# 4 0.000000 0.000000 0.000000 -0.007485 0.000000 0.000000
# 5 0.000000 0.000000 0.000000 0.000000 -0.007485 0.000000
# 6 0.000000 0.000000 0.000000 0.000000 0.000000 0.035192
#
#
# Mechanical properties :
#
#
# Convention : Reuss Voigt Hill
#
# Bulk Modulus (GPa) = 65.86829 80.30629 73.08729
# Shear Modulus (GPa) = 65.43765 -30.45779 17.48993
#
# Velocity S-wave (km/s) = 5.23048 -3.56843 2.70409
# Velocity P-wave (km/s) = 8.00095 4.07381 6.34866
#
# Compressibility (1/GPa) = 0.01518181
#
# Stress axis : x y z
#
# Youngs Moduli (GPa) = 73.03886 73.03886 173.25508
#
# Poissons Ratio (x) = 0.28517 0.44024
# Poissons Ratio (y) = 0.28517 0.44024
# Poissons Ratio (z) = 0.18559 0.18559
#
# Static dielectric constant tensor:
#      x y z
#    x 4.040500 0.000000 0.000000 
#    y 0.000000 4.040500 0.000000 
#    z 0.000000 0.000000 5.552050 
# 
# 
# High freq. dielectric constant tensor:
#      x y z
#    x 1.929100 0.000000 0.000000 
#    y 0.000000 1.929100 0.000000 
#    z 0.000000 0.000000 1.992960 
# 
# From -- ./inp_files/2195.got.cif
#   From: 2010.03.12/outbox.cif.g09.slc.cpg/sg175_2_cif.got.tgz:2195.got - 2010.04.02 06:55:29.
