data_PCOD8325575
_publ_section_title
;
Structure prediction by ZEFSAII (Michael W. Deem and Ramdas Pophale) SiO2 
 PCOD8325575
Probable space group: P 63/M
;
_chemical_formula_sum "Si O2"
_cell_formula_units_Z 48
_cell_length_a 12.288168
_cell_length_b 12.288168
_cell_length_c 17.645822
_cell_angle_alpha 90.000000
_cell_angle_beta 90.000000
_cell_angle_gamma 120.000000
_cell_volume 2307.527079
_symmetry_space_group_name_H-M "P 63/M"
_symmetry_group_IT_number 176
_symmetry_cell_setting 'hexagonal'
loop_
_space_group_symop_operation_xyz
x,y,z
x-y,x,1/2+z
-y,x-y,z
-x,-y,1/2+z
-x+y,-x,z
y,-x+y,1/2+z
-x,-y,-z
-x+y,-x,1/2-z
y,-x+y,-z
x,y,1/2-z
x-y,x,-z
-y,x-y,1/2-z
loop_
_atom_site_type_symbol
_atom_site_label
_atom_site_fract_x
_atom_site_fract_y
_atom_site_fract_z
Si Si1 0.275954 0.180916 0.661623
Si Si2 0.432265 0.086998 0.571838
Si Si3 0.000000 0.000000 0.160831
Si Si4 0.333334 0.666667 0.616794
Si Si5 0.545977 0.922756 0.899016
Si Si6 0.333334 0.666668 0.436949
O O1 0.285922 0.158102 0.750000
O O2 0.329771 0.104115 0.616999
O O3 0.131863 0.117386 0.633079
O O4 0.347328 0.330467 0.647681
O O5 0.405442 0.087101 0.482386
O O6 0.568613 0.198705 0.595240
O O7 0.439975 0.964603 0.594923
O O8 0.000000 0.000000 0.250000
O O9 0.320631 0.533641 0.642817
O O10 0.333334 0.666667 0.526701
#
# Coordination Sequence:
#
# PCOD8325575 Si02
#       6
#    12  12   4   4  12   4
#     4  11  24  42  64  91 125 165 214 269 325 379
#     4  10  20  37  61  91 127 166 207 260 317 382
#     4   9  24  45  58  77 124 168 196 251 316 378
#     4   9  21  36  61  89 124 165 205 263 316 381
#     4  10  22  38  63  92 126 167 213 261 320 384
#     4   9  15  36  55  89 127 159 205 257 313 351
#
# _framework density 20.801489
#
# number of rings (size 3 to 8) (size 9 to 14) (size 15 to 20)
#    0.000    2.000    2.500    0.000    7.000    1.000 
#    0.000    2.500    0.000    0.000    0.000    0.000 
#    0.000    0.000    0.000    0.000    0.000    0.000 
#
# Total GULP energy -594917.510478 kJ/mol
# GULP energy per Si atom -12394.114802 kJ/mol
# Density = 2.075414 g / cm^3
# Si number density = 20.801489 Si / 1000 Ang^3
#
#
#
# Elastic Constant Matrix: (Units=GPa)
#
#
# Indices 1 2 3 4 5 6 
#
# 1 103.7474 32.1757 31.4092 0.0000 0.0000 -0.0001
# 2 32.1757 103.7483 31.4094 0.0000 0.0000 0.0007
# 3 31.4092 31.4094 61.4272 0.0000 0.0000 -0.0002
# 4 0.0000 0.0000 0.0000 26.6340 -0.0002 0.0000
# 5 0.0000 0.0000 0.0000 -0.0002 26.6341 0.0000
# 6 -0.0001 0.0007 -0.0002 0.0000 0.0000 35.7863
#
#
#
# Elastic Compliance Matrix: (Units=1/GPa)
#
#
# Indices 1 2 3 4 5 6 
#
# 1 0.011803 -0.002169 -0.004926 0.000000 0.000000 0.000000
# 2 -0.002169 0.011803 -0.004926 0.000000 0.000000 0.000000
# 3 -0.004926 -0.004926 0.021317 0.000000 0.000000 0.000000
# 4 0.000000 0.000000 0.000000 0.037546 0.000000 0.000000
# 5 0.000000 0.000000 0.000000 0.000000 0.037546 0.000000
# 6 0.000000 0.000000 0.000000 0.000000 0.000000 0.027944
#
#
# Mechanical properties :
#
#
# Convention : Reuss Voigt Hill
#
# Bulk Modulus (GPa) = 47.89154 50.99017 49.44085
# Shear Modulus (GPa) = 27.93919 29.40613 28.67266
#
# Velocity S-wave (km/s) = 3.66886 3.76394 3.71670
# Velocity P-wave (km/s) = 6.40472 6.59209 6.49908
#
# Compressibility (1/GPa) = 0.02088051
#
# Stress axis : x y z
#
# Youngs Moduli (GPa) = 84.72547 84.72612 46.91108
#
# Poissons Ratio (x) = 0.18378 0.23108
# Poissons Ratio (y) = 0.18378 0.23108
# Poissons Ratio (z) = 0.41735 0.41735
#
# Static dielectric constant tensor:
#      x y z
#    x 3.954670 -0.000010 0.000000 
#    y -0.000010 3.954650 0.000000 
#    z 0.000000 0.000000 3.396690 
# 
# 
# High freq. dielectric constant tensor:
#      x y z
#    x 1.823520 0.000000 0.000000 
#    y 0.000000 1.823520 0.000000 
#    z 0.000000 0.000000 1.775730 
# 
# From -- ./inp_files/3678.got.cif
#   From: 2010.06.25/outbox.cif.g09.slc.cpg/sg176_2_cif.got.tgz:3678.got - 2010.06.28 12:15:01.
