data_PCOD8325406
_publ_section_title
;
Structure prediction by ZEFSAII (Michael W. Deem and Ramdas Pophale) SiO2 
 PCOD8325406
Probable space group: P 63/M
;
_chemical_formula_sum "Si O2"
_cell_formula_units_Z 64
_cell_length_a 13.956101
_cell_length_b 13.956101
_cell_length_c 17.782167
_cell_angle_alpha 90.000000
_cell_angle_beta 90.000000
_cell_angle_gamma 120.000000
_cell_volume 2999.463102
_symmetry_space_group_name_H-M "P 63/M"
_symmetry_group_IT_number 176
_symmetry_cell_setting 'hexagonal'
loop_
_space_group_symop_operation_xyz
x,y,z
x-y,x,1/2+z
-y,x-y,z
-x,-y,1/2+z
-x+y,-x,z
y,-x+y,1/2+z
-x,-y,-z
-x+y,-x,1/2-z
y,-x+y,-z
x,y,1/2-z
x-y,x,-z
-y,x-y,1/2-z
loop_
_atom_site_type_symbol
_atom_site_label
_atom_site_fract_x
_atom_site_fract_y
_atom_site_fract_z
Si Si1 0.444563 0.000095 0.163314
Si Si2 0.666667 0.333334 0.339111
Si Si3 0.796697 0.134054 0.835117
Si Si4 0.425930 0.208945 0.162164
Si Si5 0.789278 0.794668 0.024919
Si Si6 0.009004 0.655122 0.401649
O O1 0.489971 0.023689 0.250000
O O2 0.328180 0.884733 0.157436
O O3 0.411693 0.091679 0.136656
O O4 0.536101 0.000427 0.108038
O O5 0.666667 0.333334 0.250000
O O6 0.758143 0.453847 0.367001
O O7 0.815185 0.106073 0.750000
O O8 0.811703 0.051630 0.890611
O O9 0.883267 0.260583 0.854241
O O10 0.411899 0.208842 0.250000
O O11 0.341235 0.241813 0.126792
O O12 0.905861 0.799417 0.027394
O O13 0.695930 0.676179 0.988246
#
# Coordination Sequence:
#
# PCOD8325406 Si02
#       6
#    12   4  12  12  12  12
#     4  10  20  34  56  88 123 160 204 255 302 362
#     4   9  15  24  45  81 120 150 184 230 301 375
#     4  10  22  40  59  85 122 164 211 254 305 373
#     4  10  17  29  53  87 124 158 195 246 312 376
#     4  10  22  41  64  90 122 163 207 261 323 374
#     4  11  21  36  61  88 121 165 209 256 316 374
#
# _framework density 21.337152
#
# number of rings (size 3 to 8) (size 9 to 14) (size 15 to 20)
#    0.000    1.875    1.875    3.000    0.000    0.750 
#    1.125    4.688    0.000    0.750    0.000    2.625 
#    0.000    0.000    0.000    0.000    0.000    0.000 
#
# Total GULP energy -793058.248196 kJ/mol
# GULP energy per Si atom -12391.535128 kJ/mol
# Density = 2.128859 g / cm^3
# Si number density = 21.337152 Si / 1000 Ang^3
#
#
#
# Elastic Constant Matrix: (Units=GPa)
#
#
# Indices 1 2 3 4 5 6 
#
# 1 102.9555 50.1467 32.6022 0.0000 0.0000 0.0004
# 2 50.1467 102.9557 32.6020 0.0000 0.0000 -0.0002
# 3 32.6022 32.6020 79.5279 0.0000 0.0000 0.0000
# 4 0.0000 0.0000 0.0000 14.8960 0.0000 0.0000
# 5 0.0000 0.0000 0.0000 0.0000 14.8959 0.0000
# 6 0.0004 -0.0002 0.0000 0.0000 0.0000 26.4033
#
#
#
# Elastic Compliance Matrix: (Units=1/GPa)
#
#
# Indices 1 2 3 4 5 6 
#
# 1 0.013425 -0.005512 -0.003244 0.000000 0.000000 0.000000
# 2 -0.005512 0.013425 -0.003244 0.000000 0.000000 0.000000
# 3 -0.003244 -0.003244 0.015234 0.000000 0.000000 0.000000
# 4 0.000000 0.000000 0.000000 0.067132 0.000000 0.000000
# 5 0.000000 0.000000 0.000000 0.000000 0.067132 0.000000
# 6 0.000000 0.000000 0.000000 0.000000 0.000000 0.037874
#
#
# Mechanical properties :
#
#
# Convention : Reuss Voigt Hill
#
# Bulk Modulus (GPa) = 55.29647 57.34901 56.32274
# Shear Modulus (GPa) = 20.47093 22.57826 21.52459
#
# Velocity S-wave (km/s) = 3.10078 3.25648 3.17958
# Velocity P-wave (km/s) = 6.22829 6.40901 6.31930
#
# Compressibility (1/GPa) = 0.01808434
#
# Stress axis : x y z
#
# Youngs Moduli (GPa) = 74.48957 74.48991 65.64313
#
# Poissons Ratio (x) = 0.41055 0.21295
# Poissons Ratio (y) = 0.41055 0.21294
# Poissons Ratio (z) = 0.24164 0.24164
#
# Static dielectric constant tensor:
#      x y z
#    x 4.026900 0.000000 0.000000 
#    y 0.000000 4.026910 0.000000 
#    z 0.000000 0.000000 3.637090 
# 
# 
# High freq. dielectric constant tensor:
#      x y z
#    x 1.835900 0.000000 0.000000 
#    y 0.000000 1.835900 0.000000 
#    z 0.000000 0.000000 1.820400 
# 
# From -- ./inp_files/3298.got.cif
#   From: 2010.06.25/outbox.cif.g09.slc.cpg/sg176_2_cif.got.tgz:3298.got - 2010.06.28 12:15:01.
