data_PCOD8325736
_publ_section_title
;
Structure prediction by ZEFSAII (Michael W. Deem and Ramdas Pophale) SiO2 
 PCOD8325736
Probable space group: P 6 2 2
;
_chemical_formula_sum "Si O2"
_cell_formula_units_Z 78
_cell_length_a 21.322931
_cell_length_b 21.322931
_cell_length_c 14.424755
_cell_angle_alpha 90.000000
_cell_angle_beta 90.000000
_cell_angle_gamma 120.000000
_cell_volume 5679.797868
_symmetry_space_group_name_H-M "P 6 2 2"
_symmetry_group_IT_number 177
_symmetry_cell_setting 'hexagonal'
loop_
_space_group_symop_operation_xyz
x,y,z
x-y,x,z
-y,x-y,z
-x,-y,z
-x+y,-x,z
y,-x+y,z
x-y,-y,-z
-x,-x+y,-z
y,x,-z
-y,-x,-z
-x+y,y,-z
x,x-y,-z
loop_
_atom_site_type_symbol
_atom_site_label
_atom_site_fract_x
_atom_site_fract_y
_atom_site_fract_z
Si Si1 0.486767 0.678769 0.641559
Si Si2 0.920258 0.386237 0.509797
Si Si3 0.526500 0.668583 0.847749
Si Si4 0.532323 0.190858 0.655788
Si Si5 0.247651 0.752350 0.000000
Si Si6 0.435599 0.008623 0.891708
Si Si7 0.368737 0.834902 0.135699
O O1 0.539202 0.668820 0.570443
O O2 0.521319 0.691824 0.744033
O O3 0.407008 0.610778 0.630371
O O4 0.479956 0.747305 0.611639
O O5 0.927596 0.463798 0.500000
O O6 0.885137 0.355678 0.611324
O O7 0.000000 0.395224 0.500000
O O8 0.585294 0.640717 0.850419
O O9 0.448992 0.601103 0.878730
O O10 0.549860 0.734081 0.922835
O O11 0.529699 0.196025 0.765631
O O12 0.320043 0.775973 0.058958
O O13 0.455487 0.091017 0.872516
O O14 0.500000 0.000000 0.845077
O O15 0.435572 0.000000 0.000000
#
# Coordination Sequence:
#
# PCOD8325736 Si02
#       7
#    12  12  12  12   6  12  12
#     4  10  19  31  43  60  80 102 129 158 204 255
#     4   9  19  32  46  60  74  95 128 168 202 238
#     4  10  20  30  41  58  77 104 131 163 197 243
#     4  10  19  31  43  60  80 102 129 158 204 255
#     4  12  18  30  38  58  84  98 128 155 206 239
#     4   9  16  28  42  51  69 101 137 162 190 231
#     4  10  20  30  41  58  77 104 131 163 197 243
#
# _framework density 13.732882999999999
#
# number of rings (size 3 to 8) (size 9 to 14) (size 15 to 20)
#    0.000    2.154    3.077    1.231    2.154    0.000 
#    3.692    1.538    0.000    0.000    0.000    0.000 
#    0.000    0.000    0.000    0.000    0.000    0.000 
#
# Total GULP energy -966320.838082 kJ/mol
# GULP energy per Si atom -12388.728693 kJ/mol
# Density = 1.370163 g / cm^3
# Si number density = 13.732883 Si / 1000 Ang^3
#
#
#
# Elastic Constant Matrix: (Units=GPa)
#
#
# Indices 1 2 3 4 5 6 
#
# 1 52.9366 28.0551 20.3579 0.0000 0.0000 0.0000
# 2 28.0551 52.9366 20.3579 0.0000 0.0000 0.0000
# 3 20.3579 20.3579 66.5846 0.0000 0.0000 0.0000
# 4 0.0000 0.0000 0.0000 15.7439 0.0000 0.0000
# 5 0.0000 0.0000 0.0000 0.0000 15.7439 0.0000
# 6 0.0000 0.0000 0.0000 0.0000 0.0000 12.4408
#
#
#
# Elastic Compliance Matrix: (Units=1/GPa)
#
#
# Indices 1 2 3 4 5 6 
#
# 1 0.027390 -0.012801 -0.004461 0.000000 0.000000 0.000000
# 2 -0.012801 0.027390 -0.004461 0.000000 0.000000 0.000000
# 3 -0.004461 -0.004461 0.017746 0.000000 0.000000 0.000000
# 4 0.000000 0.000000 0.000000 0.063517 0.000000 0.000000
# 5 0.000000 0.000000 0.000000 0.000000 0.063517 0.000000
# 6 0.000000 0.000000 0.000000 0.000000 0.000000 0.080381
#
#
# Mechanical properties :
#
#
# Convention : Reuss Voigt Hill
#
# Bulk Modulus (GPa) = 34.38511 34.44440 34.41476
# Shear Modulus (GPa) = 15.01152 15.69819 15.35485
#
# Velocity S-wave (km/s) = 3.30980 3.38466 3.34744
# Velocity P-wave (km/s) = 6.30074 6.35694 6.32890
#
# Compressibility (1/GPa) = 0.02908236
#
# Stress axis : x y z
#
# Youngs Moduli (GPa) = 36.50981 36.50981 56.35037
#
# Poissons Ratio (x) = 0.46734 0.25136
# Poissons Ratio (y) = 0.46734 0.25136
# Poissons Ratio (z) = 0.16286 0.16286
#
# Static dielectric constant tensor:
#      x y z
#    x 2.695640 0.000000 0.000000 
#    y 0.000000 2.695640 0.000000 
#    z 0.000000 0.000000 2.891600 
# 
# 
# High freq. dielectric constant tensor:
#      x y z
#    x 1.484210 0.000000 0.000000 
#    y 0.000000 1.484210 0.000000 
#    z 0.000000 0.000000 1.544970 
# 
# From -- ./inp_files/2676.got.cif
#   From: 2010.03.12/outbox.cif.g09.slc.cpg/sg177_2_cif.got.tgz:2676.got - 2010.04.02 07:00:27.
