data_PCOD8325968
_publ_section_title
;
Structure prediction by ZEFSAII (Michael W. Deem and Ramdas Pophale) SiO2 
 PCOD8325968
Probable space group: P 61 2 2
;
_chemical_formula_sum "Si O2"
_cell_formula_units_Z 36
_cell_length_a 15.146416
_cell_length_b 15.146416
_cell_length_c 9.674087
_cell_angle_alpha 90.000000
_cell_angle_beta 90.000000
_cell_angle_gamma 120.000000
_cell_volume 1922.030972
_symmetry_space_group_name_H-M "P 61 2 2"
_symmetry_group_IT_number 178
_symmetry_cell_setting 'hexagonal'
loop_
_space_group_symop_operation_xyz
x,y,z
x-y,x,1/6+z
-y,x-y,1/3+z
-x,-y,1/2+z
-x+y,-x,2/3+z
y,-x+y,5/6+z
x-y,-y,-z
-x,-x+y,2/3-z
y,x,1/3-z
-y,-x,5/6-z
-x+y,y,1/2-z
x,x-y,1/6-z
loop_
_atom_site_type_symbol
_atom_site_label
_atom_site_fract_x
_atom_site_fract_y
_atom_site_fract_z
Si Si1 0.439725 0.520334 0.561468
Si Si2 0.511474 0.274273 0.425446
Si Si3 0.610344 0.723988 0.681357
O O1 0.432832 0.432832 0.666667
O O2 0.488857 0.511144 0.416667
O O3 0.336055 0.517683 0.521520
O O4 0.507453 0.628217 0.630945
O O5 0.617467 0.382534 0.416667
O O6 0.480452 0.240226 0.583334
O O7 0.416017 0.269339 0.342674
O O8 0.705917 0.705917 0.666667
O O9 0.638418 0.819209 0.583334
#
# Coordination Sequence:
#
# PCOD8325968 Si02
#       3
#    12  12  12
#     4  11  23  36  57  84 124 157 199 238 294 357
#     4  12  23  36  57  86 118 165 204 244 292 360
#     4  11  24  40  59  85 119 158 202 251 303 361
#
# _framework density 18.730188999999999
#
# number of rings (size 3 to 8) (size 9 to 14) (size 15 to 20)
#    0.000    0.667    6.667    2.000    9.333    0.000 
#    0.000    0.000    0.000    0.000    0.000    4.667 
#    0.000    0.000    0.000    0.000    0.000    0.000 
#
# Total GULP energy -445991.762040 kJ/mol
# GULP energy per Si atom -12388.660057 kJ/mol
# Density = 1.868756 g / cm^3
# Si number density = 18.730189 Si / 1000 Ang^3
#
#
#
# Elastic Constant Matrix: (Units=GPa)
#
#
# Indices 1 2 3 4 5 6 
#
# 1 85.1665 43.8481 37.7909 0.0000 0.0000 0.0000
# 2 43.8481 85.1665 37.7909 0.0000 0.0000 0.0000
# 3 37.7909 37.7909 178.0293 0.0000 0.0000 0.0000
# 4 0.0000 0.0000 0.0000 27.0193 0.0000 0.0000
# 5 0.0000 0.0000 0.0000 0.0000 27.0193 0.0000
# 6 0.0000 0.0000 0.0000 0.0000 0.0000 20.6592
#
#
#
# Elastic Compliance Matrix: (Units=1/GPa)
#
#
# Indices 1 2 3 4 5 6 
#
# 1 0.016527 -0.007675 -0.001879 0.000000 0.000000 0.000000
# 2 -0.007675 0.016527 -0.001879 0.000000 0.000000 0.000000
# 3 -0.001879 -0.001879 0.006415 0.000000 0.000000 0.000000
# 4 0.000000 0.000000 0.000000 0.037011 0.000000 0.000000
# 5 0.000000 0.000000 0.000000 0.000000 0.037011 0.000000
# 6 0.000000 0.000000 0.000000 0.000000 0.000000 0.048405
#
#
# Mechanical properties :
#
#
# Convention : Reuss Voigt Hill
#
# Bulk Modulus (GPa) = 60.23208 65.24690 62.73949
# Shear Modulus (GPa) = 26.27496 30.20172 28.23834
#
# Velocity S-wave (km/s) = 3.74948 4.01990 3.88704
# Velocity P-wave (km/s) = 7.13949 7.51378 7.32903
#
# Compressibility (1/GPa) = 0.01660245
#
# Stress axis : x y z
#
# Youngs Moduli (GPa) = 60.50678 60.50678 155.88990
#
# Poissons Ratio (x) = 0.46440 0.29292
# Poissons Ratio (y) = 0.46440 0.29292
# Poissons Ratio (z) = 0.11369 0.11369
#
# Static dielectric constant tensor:
#      x y z
#    x 3.447680 0.000000 0.000000 
#    y 0.000000 3.447680 0.000000 
#    z 0.000000 0.000000 28.022840 
# 
# 
# High freq. dielectric constant tensor:
#      x y z
#    x 1.698410 0.000000 0.000000 
#    y 0.000000 1.698410 0.000000 
#    z 0.000000 0.000000 1.760670 
# 
# From -- ./inp_files/2224.got.cif
#   From: 2010.03.12/outbox.cif.g09.slc.cpg/sg178_2_cif.got.tgz:2224.got - 2010.04.02 07:02:38.
