data_PCOD8325166
_publ_section_title
;
Structure prediction by ZEFSAII (Michael W. Deem and Ramdas Pophale) SiO2 
 PCOD8325166
Probable space group: P 6/M
;
_chemical_formula_sum "Si O2"
_cell_formula_units_Z 72
_cell_length_a 23.148778
_cell_length_b 23.148778
_cell_length_c 9.117320
_cell_angle_alpha 90.000000
_cell_angle_beta 90.000000
_cell_angle_gamma 120.000000
_cell_volume 4231.106624
_symmetry_space_group_name_H-M "P 6/M"
_symmetry_group_IT_number 175
_symmetry_cell_setting 'hexagonal'
loop_
_space_group_symop_operation_xyz
x,y,z
x-y,x,z
-y,x-y,z
-x,-y,z
-x+y,-x,z
y,-x+y,z
-x,-y,-z
-x+y,-x,-z
y,-x+y,-z
x,y,-z
x-y,x,-z
-y,x-y,-z
loop_
_atom_site_type_symbol
_atom_site_label
_atom_site_fract_x
_atom_site_fract_y
_atom_site_fract_z
Si Si1 0.700057 0.846628 0.826007
Si Si2 0.467811 0.394662 0.835296
Si Si3 0.915201 0.399632 0.164616
Si Si4 0.065323 0.915788 0.825733
Si Si5 0.378564 0.094709 0.331763
Si Si6 0.710906 0.062574 0.331553
O O1 0.773992 0.902432 0.775475
O O2 0.646963 0.864258 0.761099
O O3 0.687292 0.776632 0.764911
O O4 0.693256 0.841928 0.000000
O O5 0.433815 0.439619 0.834119
O O6 0.545167 0.440490 0.784696
O O7 0.427976 0.332809 0.725350
O O8 0.464842 0.367388 0.000000
O O9 0.884215 0.336847 0.274192
O O10 0.888530 0.374875 0.000000
O O11 0.990612 0.882076 0.761550
O O12 0.064576 0.919564 0.000000
O O13 0.384456 0.116282 0.500000
O O14 0.328789 0.016554 0.310340
O O15 0.729337 0.083312 0.500000
#
# Coordination Sequence:
#
# PCOD8325166 Si02
#       6
#    12  12  12  12  12  12
#     4  11  21  32  47  66  92 126 164 204 248 304
#     4   8  14  26  45  68  93 120 149 180 215 260
#     4   8  14  26  45  68  93 120 149 180 215 260
#     4   9  17  29  46  67  88 112 150 206 268 322
#     4  10  20  32  46  66  94 126 158 195 241 292
#     4  10  20  32  46  66  94 126 158 195 241 292
#
# _framework density 17.016825000000001
#
# number of rings (size 3 to 8) (size 9 to 14) (size 15 to 20)
#    0.000    2.667    0.000    3.667    0.000    4.667 
#    0.000    3.333    0.000    0.000    0.000    0.000 
#    1.667    8.000    3.000    0.000    3.000    0.000 
#
# Total GULP energy -892568.634839 kJ/mol
# GULP energy per Si atom -12396.786595 kJ/mol
# Density = 1.697809 g / cm^3
# Si number density = 17.016825 Si / 1000 Ang^3
#
#
#
# Elastic Constant Matrix: (Units=GPa)
#
#
# Indices 1 2 3 4 5 6 
#
# 1 48.1720 5.1406 22.7482 0.0000 0.0000 0.0000
# 2 5.1406 48.1720 22.7482 0.0000 0.0000 0.0000
# 3 22.7482 22.7482 79.0504 0.0000 0.0000 0.0000
# 4 0.0000 0.0000 0.0000 21.0902 0.0000 0.0000
# 5 0.0000 0.0000 0.0000 0.0000 21.0902 0.0000
# 6 0.0000 0.0000 0.0000 0.0000 0.0000 21.5157
#
#
#
# Elastic Compliance Matrix: (Units=1/GPa)
#
#
# Indices 1 2 3 4 5 6 
#
# 1 0.024051 0.000812 -0.007155 0.000000 0.000000 0.000000
# 2 0.000812 0.024051 -0.007155 0.000000 0.000000 0.000000
# 3 -0.007155 -0.007155 0.016768 0.000000 0.000000 0.000000
# 4 0.000000 0.000000 0.000000 0.047415 0.000000 0.000000
# 5 0.000000 0.000000 0.000000 0.000000 0.047415 0.000000
# 6 0.000000 0.000000 0.000000 0.000000 0.000000 0.046478
#
#
# Mechanical properties :
#
#
# Convention : Reuss Voigt Hill
#
# Bulk Modulus (GPa) = 26.40264 30.74095 28.57179
# Shear Modulus (GPa) = 20.34184 21.05636 20.69910
#
# Velocity S-wave (km/s) = 3.46120 3.52146 3.49146
# Velocity P-wave (km/s) = 5.61449 5.88545 5.75157
#
# Compressibility (1/GPa) = 0.03787501
#
# Stress axis : x y z
#
# Youngs Moduli (GPa) = 41.57829 41.57829 59.63727
#
# Poissons Ratio (x) = -0.03377 0.42670
# Poissons Ratio (y) = -0.03377 0.42670
# Poissons Ratio (z) = 0.29749 0.29749
#
# Static dielectric constant tensor:
#      x y z
#    x 3.193250 0.000000 0.000000 
#    y 0.000000 3.193250 0.000000 
#    z 0.000000 0.000000 3.142940 
# 
# 
# High freq. dielectric constant tensor:
#      x y z
#    x 1.638190 0.000000 0.000000 
#    y 0.000000 1.638190 0.000000 
#    z 0.000000 0.000000 1.647410 
# 
# From -- ./inp_files/1200.got.cif
#   From: 2010.03.12/outbox.cif.g09.slc.cpg/sg175_1_cif.got.tgz:1200.got - 2010.04.02 06:55:29.
