data_PCOD8325185
_publ_section_title
;
Structure prediction by ZEFSAII (Michael W. Deem and Ramdas Pophale) SiO2 
 PCOD8325185
Probable space group: P 6/M
;
_chemical_formula_sum "Si O2"
_cell_formula_units_Z 78
_cell_length_a 25.421275
_cell_length_b 25.421275
_cell_length_c 7.816202
_cell_angle_alpha 90.000000
_cell_angle_beta 90.000000
_cell_angle_gamma 120.000000
_cell_volume 4374.425896
_symmetry_space_group_name_H-M "P 6/M"
_symmetry_group_IT_number 175
_symmetry_cell_setting 'hexagonal'
loop_
_space_group_symop_operation_xyz
x,y,z
x-y,x,z
-y,x-y,z
-x,-y,z
-x+y,-x,z
y,-x+y,z
-x,-y,-z
-x+y,-x,-z
y,-x+y,-z
x,y,-z
x-y,x,-z
-y,x-y,-z
loop_
_atom_site_type_symbol
_atom_site_label
_atom_site_fract_x
_atom_site_fract_y
_atom_site_fract_z
Si Si1 0.353812 0.935262 0.795403
Si Si2 0.534545 0.461980 0.189002
Si Si3 0.008209 0.878688 0.500000
Si Si4 0.895585 0.228006 0.309576
Si Si5 0.206264 0.208653 0.193859
Si Si6 0.779900 0.113485 0.798920
Si Si7 0.070987 0.645724 0.202725
O O1 0.396930 0.909183 0.721258
O O2 0.284727 0.896671 0.732127
O O3 0.379072 0.003595 0.728229
O O4 0.356838 0.936111 0.000000
O O5 0.500000 0.500000 0.177309
O O6 0.600254 0.506260 0.279434
O O7 0.547726 0.446548 0.000000
O O8 0.946573 0.881405 0.500000
O O9 0.012462 0.845746 0.328220
O O10 0.921559 0.236007 0.500000
O O11 0.828960 0.170782 0.303198
O O12 0.887258 0.284923 0.258440
O O13 0.941097 0.218427 0.188591
O O14 0.268258 0.211320 0.247764
O O15 0.186416 0.182739 0.000000
O O16 0.787255 0.126175 0.000000
O O17 0.070539 0.639830 0.000000
#
# Coordination Sequence:
#
# PCOD8325185 Si02
#       7
#    12  12   6  12  12  12  12
#     4   8  13  25  45  72  98 125 163 203 245 297
#     4   7  11  20  42  70  96 125 158 196 236 286
#     4  12  27  46  66  86 106 133 174 228 282 336
#     4  12  23  33  49  74 106 140 177 219 264 317
#     4  11  23  41  61  82 108 141 178 216 272 343
#     4  10  20  33  53  76 103 137 175 219 266 321
#     4   9  15  28  47  70  99 131 166 200 244 300
#
# _framework density 17.830909999999999
#
# number of rings (size 3 to 8) (size 9 to 14) (size 15 to 20)
#    0.000    2.308    2.308    4.231    1.077    1.846 
#    0.000    0.000    0.000    6.000    0.000    0.000 
#    1.538    0.000    2.769    0.000    0.923    0.000 
#
# Total GULP energy -966304.042753 kJ/mol
# GULP energy per Si atom -12388.513369 kJ/mol
# Density = 1.779033 g / cm^3
# Si number density = 17.830910 Si / 1000 Ang^3
#
#
#
# Elastic Constant Matrix: (Units=GPa)
#
#
# Indices 1 2 3 4 5 6 
#
# 1 107.2911 54.4564 21.2169 0.0000 0.0000 0.0000
# 2 54.4564 107.2911 21.2169 0.0000 0.0000 0.0000
# 3 21.2169 21.2169 49.7160 0.0000 0.0000 0.0000
# 4 0.0000 0.0000 0.0000 -1.5070 0.0000 0.0000
# 5 0.0000 0.0000 0.0000 0.0000 -1.5070 0.0000
# 6 0.0000 0.0000 0.0000 0.0000 0.0000 26.4173
#
#
#
# Elastic Compliance Matrix: (Units=1/GPa)
#
#
# Indices 1 2 3 4 5 6 
#
# 1 0.012944 -0.005983 -0.002971 0.000000 0.000000 0.000000
# 2 -0.005983 0.012944 -0.002971 0.000000 0.000000 0.000000
# 3 -0.002971 -0.002971 0.022650 0.000000 0.000000 0.000000
# 4 0.000000 0.000000 0.000000 -0.663587 0.000000 0.000000
# 5 0.000000 0.000000 0.000000 0.000000 -0.663587 0.000000
# 6 0.000000 0.000000 0.000000 0.000000 0.000000 0.037854
#
#
# Mechanical properties :
#
#
# Convention : Reuss Voigt Hill
#
# Bulk Modulus (GPa) = 40.50279 50.89764 45.70021
# Shear Modulus (GPa) = -4.13667 15.84121 5.85227
#
# Velocity S-wave (km/s) = -1.52479 2.98386 1.81362
# Velocity P-wave (km/s) = 4.43444 6.36222 5.48371
#
# Compressibility (1/GPa) = 0.02468966
#
# Stress axis : x y z
#
# Youngs Moduli (GPa) = 77.25318 77.25318 44.14980
#
# Poissons Ratio (x) = 0.46217 0.13117
# Poissons Ratio (y) = 0.46217 0.13117
# Poissons Ratio (z) = 0.22953 0.22953
#
# Static dielectric constant tensor:
#      x y z
#    x 3.413630 0.000000 0.000000 
#    y 0.000000 3.413630 0.000000 
#    z 0.000000 0.000000 3.029330 
# 
# 
# High freq. dielectric constant tensor:
#      x y z
#    x 1.671960 0.000000 0.000000 
#    y 0.000000 1.671960 0.000000 
#    z 0.000000 0.000000 1.673490 
# 
# From -- ./inp_files/1287.got.cif
#   From: 2010.03.12/outbox.cif.g09.slc.cpg/sg175_1_cif.got.tgz:1287.got - 2010.04.02 06:55:29.
