data_PCOD8325187
_publ_section_title
;
Structure prediction by ZEFSAII (Michael W. Deem and Ramdas Pophale) SiO2 
 PCOD8325187
Probable space group: P 6/M
;
_chemical_formula_sum "Si O2"
_cell_formula_units_Z 60
_cell_length_a 16.981903
_cell_length_b 16.981903
_cell_length_c 12.783749
_cell_angle_alpha 90.000000
_cell_angle_beta 90.000000
_cell_angle_gamma 120.000000
_cell_volume 3192.725482
_symmetry_space_group_name_H-M "P 6/M"
_symmetry_group_IT_number 175
_symmetry_cell_setting 'hexagonal'
loop_
_space_group_symop_operation_xyz
x,y,z
x-y,x,z
-y,x-y,z
-x,-y,z
-x+y,-x,z
y,-x+y,z
-x,-y,-z
-x+y,-x,-z
y,-x+y,-z
x,y,-z
x-y,x,-z
-y,x-y,-z
loop_
_atom_site_type_symbol
_atom_site_label
_atom_site_fract_x
_atom_site_fract_y
_atom_site_fract_z
Si Si1 0.088419 0.493150 0.385439
Si Si2 0.663889 0.018740 0.788159
Si Si3 0.702463 0.194860 0.114583
Si Si4 0.012417 0.822798 0.879080
Si Si5 0.156008 0.629536 0.791368
O O1 0.130368 0.493405 0.500000
O O2 0.158129 0.581790 0.317931
O O3 0.000000 0.500000 0.403463
O O4 0.062290 0.398612 0.325261
O O5 0.732150 0.979246 0.799350
O O6 0.561108 0.941567 0.813018
O O7 0.698802 0.099186 0.872444
O O8 0.766289 0.265086 0.204319
O O9 0.600612 0.178142 0.118701
O O10 0.743583 0.232961 0.000000
O O11 0.921411 0.825165 0.854101
O O12 0.015428 0.796119 0.000000
#
# Coordination Sequence:
#
# PCOD8325187 Si02
#       5
#    12  12  12  12  12
#     4   8  16  34  57  77 101 133 169 217 272 321
#     4  10  20  33  53  79 104 136 183 232 273 320
#     4  11  21  32  48  71 104 143 177 215 268 326
#     4  10  20  34  53  79 113 151 187 224 269 323
#     4  10  21  35  50  74 105 138 181 226 274 332
#
# _framework density 18.792722000000001
#
# number of rings (size 3 to 8) (size 9 to 14) (size 15 to 20)
#    0.000    2.200    0.000    4.800    0.000    6.400 
#    0.000    4.000    0.000    6.000    0.000    0.000 
#    0.000    1.600    0.000    0.000    0.000    0.000 
#
# Total GULP energy -743558.630137 kJ/mol
# GULP energy per Si atom -12392.643836 kJ/mol
# Density = 1.874995 g / cm^3
# Si number density = 18.792722 Si / 1000 Ang^3
#
#
#
# Elastic Constant Matrix: (Units=GPa)
#
#
# Indices 1 2 3 4 5 6 
#
# 1 91.0007 17.7291 37.3061 0.0000 0.0000 0.0000
# 2 17.7291 91.0007 37.3061 0.0000 0.0000 0.0000
# 3 37.3061 37.3061 121.8326 0.0000 0.0000 0.0000
# 4 0.0000 0.0000 0.0000 18.6108 0.0000 0.0000
# 5 0.0000 0.0000 0.0000 0.0000 18.6108 0.0000
# 6 0.0000 0.0000 0.0000 0.0000 0.0000 36.6358
#
#
#
# Elastic Compliance Matrix: (Units=1/GPa)
#
#
# Indices 1 2 3 4 5 6 
#
# 1 0.012646 -0.001002 -0.003565 0.000000 0.000000 0.000000
# 2 -0.001002 0.012646 -0.003565 0.000000 0.000000 0.000000
# 3 -0.003565 -0.003565 0.010392 0.000000 0.000000 0.000000
# 4 0.000000 0.000000 0.000000 0.053732 0.000000 0.000000
# 5 0.000000 0.000000 0.000000 0.000000 0.053732 0.000000
# 6 0.000000 0.000000 0.000000 0.000000 0.000000 0.027296
#
#
# Mechanical properties :
#
#
# Convention : Reuss Voigt Hill
#
# Bulk Modulus (GPa) = 51.50030 54.27964 52.88997
# Shear Modulus (GPa) = 25.88238 28.87099 27.37668
#
# Velocity S-wave (km/s) = 3.71517 3.92380 3.82091
# Velocity P-wave (km/s) = 6.77253 7.03380 6.90440
#
# Compressibility (1/GPa) = 0.01941736
#
# Stress axis : x y z
#
# Youngs Moduli (GPa) = 79.07765 79.07765 96.23248
#
# Poissons Ratio (x) = 0.07924 0.34311
# Poissons Ratio (y) = 0.07924 0.34311
# Poissons Ratio (z) = 0.28194 0.28194
#
# Static dielectric constant tensor:
#      x y z
#    x 3.475090 0.000000 0.000000 
#    y 0.000000 3.475090 0.000000 
#    z 0.000000 0.000000 3.493540 
# 
# 
# High freq. dielectric constant tensor:
#      x y z
#    x 1.730100 0.000000 0.000000 
#    y 0.000000 1.730100 0.000000 
#    z 0.000000 0.000000 1.700320 
# 
# From -- ./inp_files/1800.got.cif
#   From: 2010.03.12/outbox.cif.g09.slc.cpg/sg175_1_cif.got.tgz:1800.got - 2010.04.02 06:55:29.
