data_PCOD8325994
_publ_section_title
;
Structure prediction by ZEFSAII (Michael W. Deem and Ramdas Pophale) SiO2 
 PCOD8325994
Probable space group: P 61 2 2
;
_chemical_formula_sum "Si O2"
_cell_formula_units_Z 36
_cell_length_a 11.950748
_cell_length_b 11.950748
_cell_length_c 12.454524
_cell_angle_alpha 90.000000
_cell_angle_beta 90.000000
_cell_angle_gamma 120.000000
_cell_volume 1540.451194
_symmetry_space_group_name_H-M "P 61 2 2"
_symmetry_group_IT_number 178
_symmetry_cell_setting 'hexagonal'
loop_
_space_group_symop_operation_xyz
x,y,z
x-y,x,1/6+z
-y,x-y,1/3+z
-x,-y,1/2+z
-x+y,-x,2/3+z
y,-x+y,5/6+z
x-y,-y,-z
-x,-x+y,2/3-z
y,x,1/3-z
-y,-x,5/6-z
-x+y,y,1/2-z
x,x-y,1/6-z
loop_
_atom_site_type_symbol
_atom_site_label
_atom_site_fract_x
_atom_site_fract_y
_atom_site_fract_z
Si Si1 0.453273 0.453273 0.666667
Si Si2 0.853189 0.338820 0.496638
Si Si3 0.823849 0.647697 0.250000
Si Si4 0.826206 0.802097 0.908275
O O1 0.546210 0.519406 0.767776
O O2 0.440701 0.317782 0.632342
O O3 0.735388 0.264613 0.416667
O O4 0.802363 0.401182 0.583334
O O5 0.892540 0.241600 0.549675
O O6 0.828977 0.737092 0.346774
O O7 0.846901 0.882767 0.798461
#
# Coordination Sequence:
#
# PCOD8325994 Si02
#       4
#     6  12   6  12
#     4  12  26  46  80 112 152 208 266 324 396 474
#     4  12  27  52  75 113 157 205 263 328 399 476
#     4  12  22  46  72 112 150 202 258 316 378 470
#     4  12  25  51  76 112 156 200 255 319 396 468
#
# _framework density 23.369776999999999
#
# number of rings (size 3 to 8) (size 9 to 14) (size 15 to 20)
#    0.000    0.000    6.667    2.000    2.333    0.000 
#   15.000    0.000    0.000    0.000    0.000    0.000 
#    0.000    0.000    0.000    0.000    0.000    0.000 
#
# Total GULP energy -446661.463156 kJ/mol
# GULP energy per Si atom -12407.262865 kJ/mol
# Density = 2.331659 g / cm^3
# Si number density = 23.369777 Si / 1000 Ang^3
#
#
#
# Elastic Constant Matrix: (Units=GPa)
#
#
# Indices 1 2 3 4 5 6 
#
# 1 115.4258 60.2669 78.7405 0.0000 0.0000 0.0000
# 2 60.2669 115.4258 78.7405 0.0000 0.0000 0.0000
# 3 78.7405 78.7405 145.3068 0.0000 0.0000 0.0000
# 4 0.0000 0.0000 0.0000 135.8120 0.0000 0.0000
# 5 0.0000 0.0000 0.0000 0.0000 135.8120 0.0000
# 6 0.0000 0.0000 0.0000 0.0000 0.0000 27.5795
#
#
#
# Elastic Compliance Matrix: (Units=1/GPa)
#
#
# Indices 1 2 3 4 5 6 
#
# 1 0.014598 -0.003531 -0.005997 0.000000 0.000000 0.000000
# 2 -0.003531 0.014598 -0.005997 0.000000 0.000000 0.000000
# 3 -0.005997 -0.005997 0.013382 0.000000 0.000000 0.000000
# 4 0.000000 0.000000 0.000000 0.007363 0.000000 0.000000
# 5 0.000000 0.000000 0.000000 0.000000 0.007363 0.000000
# 6 0.000000 0.000000 0.000000 0.000000 0.000000 0.036259
#
#
# Mechanical properties :
#
#
# Convention : Reuss Voigt Hill
#
# Bulk Modulus (GPa) = 86.75061 90.18380 88.46720
# Shear Modulus (GPa) = 38.92335 70.40141 54.66238
#
# Velocity S-wave (km/s) = 4.08553 5.49458 4.84159
# Velocity P-wave (km/s) = 7.71083 8.88412 8.31819
#
# Compressibility (1/GPa) = 0.01152730
#
# Stress axis : x y z
#
# Youngs Moduli (GPa) = 68.50050 68.50050 74.72831
#
# Poissons Ratio (x) = 0.24187 0.44817
# Poissons Ratio (y) = 0.24187 0.44817
# Poissons Ratio (z) = 0.41082 0.41082
#
# Static dielectric constant tensor:
#      x y z
#    x 4.152790 0.000000 0.000000 
#    y 0.000000 4.152790 0.000000 
#    z 0.000000 0.000000 3.904750 
# 
# 
# High freq. dielectric constant tensor:
#      x y z
#    x 1.929480 0.000000 0.000000 
#    y 0.000000 1.929480 0.000000 
#    z 0.000000 0.000000 1.948290 
# 
# From -- ./inp_files/5153.got.cif
#   From: 2010.03.12/outbox.cif.g09.slc.cpg/sg178_3_cif.got.tgz:5153.got - 2010.04.02 07:02:38.
