data_PCOD8325446
_publ_section_title
;
Structure prediction by ZEFSAII (Michael W. Deem and Ramdas Pophale) SiO2 
 PCOD8325446
Probable space group: P 63/M
;
_chemical_formula_sum "Si O2"
_cell_formula_units_Z 84
_cell_length_a 15.532390
_cell_length_b 15.532390
_cell_length_c 22.092405
_cell_angle_alpha 90.000000
_cell_angle_beta 90.000000
_cell_angle_gamma 120.000000
_cell_volume 4615.834205
_symmetry_space_group_name_H-M "P 63/M"
_symmetry_group_IT_number 176
_symmetry_cell_setting 'hexagonal'
loop_
_space_group_symop_operation_xyz
x,y,z
x-y,x,1/2+z
-y,x-y,z
-x,-y,1/2+z
-x+y,-x,z
y,-x+y,1/2+z
-x,-y,-z
-x+y,-x,1/2-z
y,-x+y,-z
x,y,1/2-z
x-y,x,-z
-y,x-y,1/2-z
loop_
_atom_site_type_symbol
_atom_site_label
_atom_site_fract_x
_atom_site_fract_y
_atom_site_fract_z
Si Si1 0.648066 0.523093 0.912671
Si Si2 0.961623 0.313121 0.020967
Si Si3 0.114185 0.847104 0.877636
Si Si4 0.991894 0.155391 0.967531
Si Si5 0.857527 0.541965 0.595010
Si Si6 0.800319 0.086385 0.681034
Si Si7 0.712023 0.698611 0.822004
O O1 0.744692 0.511917 0.915494
O O2 0.555694 0.419369 0.892807
O O3 0.649673 0.599223 0.861830
O O4 0.633461 0.546298 0.982868
O O5 0.895920 0.241151 0.077000
O O6 0.072300 0.396325 0.038971
O O7 0.968794 0.244757 0.968489
O O8 0.022586 0.805487 0.831727
O O9 0.107183 0.933782 0.913278
O O10 0.218622 0.900099 0.840715
O O11 0.049912 0.159572 0.031485
O O12 0.900011 0.613663 0.652255
O O13 0.787199 0.099388 0.750000
O O14 0.911464 0.171253 0.660855
O O15 0.691526 0.675441 0.750000
#
# Coordination Sequence:
#
# PCOD8325446 Si02
#       7
#    12  12  12  12  12  12  12
#     4  11  21  36  57  81 113 139 185 229 287 339
#     4  10  20  35  52  78 110 147 177 219 283 335
#     4  10  19  31  54  73 105 148 184 221 268 328
#     4  10  19  28  44  73 107 142 178 217 260 317
#     4  10  21  35  56  81 107 144 178 231 283 337
#     4   9  20  37  53  73 108 147 186 227 274 323
#     4  10  21  36  53  77 108 147 188 232 270 321
#
# _framework density 18.198228
#
# number of rings (size 3 to 8) (size 9 to 14) (size 15 to 20)
#    0.000    2.000    1.429    3.000    6.000    0.571 
#    0.857    0.000    0.000    1.714    0.000    0.000 
#    0.000    0.000    0.857    0.000    0.000    0.000 
#
# Total GULP energy -1040746.983992 kJ/mol
# GULP energy per Si atom -12389.845048 kJ/mol
# Density = 1.815681 g / cm^3
# Si number density = 18.198228 Si / 1000 Ang^3
#
#
#
# Elastic Constant Matrix: (Units=GPa)
#
#
# Indices 1 2 3 4 5 6 
#
# 1 89.9220 38.4841 28.5789 0.0000 0.0000 0.0000
# 2 38.4841 89.9220 28.5789 0.0000 0.0000 0.0000
# 3 28.5789 28.5789 62.6318 0.0000 0.0000 0.0000
# 4 0.0000 0.0000 0.0000 17.9996 0.0000 0.0000
# 5 0.0000 0.0000 0.0000 0.0000 17.9996 0.0000
# 6 0.0000 0.0000 0.0000 0.0000 0.0000 25.7189
#
#
#
# Elastic Compliance Matrix: (Units=1/GPa)
#
#
# Indices 1 2 3 4 5 6 
#
# 1 0.014607 -0.004834 -0.004459 0.000000 0.000000 0.000000
# 2 -0.004834 0.014607 -0.004459 0.000000 0.000000 0.000000
# 3 -0.004459 -0.004459 0.020036 0.000000 0.000000 0.000000
# 4 0.000000 0.000000 0.000000 0.055557 0.000000 0.000000
# 5 0.000000 0.000000 0.000000 0.000000 0.055557 0.000000
# 6 0.000000 0.000000 0.000000 0.000000 0.000000 0.038882
#
#
# Mechanical properties :
#
#
# Convention : Reuss Voigt Hill
#
# Bulk Modulus (GPa) = 45.98927 48.19548 47.09237
# Shear Modulus (GPa) = 21.36767 22.13257 21.75012
#
# Velocity S-wave (km/s) = 3.43032 3.49118 3.46089
# Velocity P-wave (km/s) = 6.40435 6.54158 6.47332
#
# Compressibility (1/GPa) = 0.02174420
#
# Stress axis : x y z
#
# Youngs Moduli (GPa) = 68.46103 68.46103 49.91043
#
# Poissons Ratio (x) = 0.33095 0.22257
# Poissons Ratio (y) = 0.33095 0.22257
# Poissons Ratio (z) = 0.30529 0.30529
#
# Static dielectric constant tensor:
#      x y z
#    x 3.307440 0.000000 0.000000 
#    y 0.000000 3.307440 0.000000 
#    z 0.000000 0.000000 3.370930 
# 
# 
# High freq. dielectric constant tensor:
#      x y z
#    x 1.693080 0.000000 0.000000 
#    y 0.000000 1.693080 0.000000 
#    z 0.000000 0.000000 1.706920 
# 
# From -- ./inp_files/4087.got.cif
#   From: 2010.06.25/outbox.cif.g09.slc.cpg/sg176_3_cif.got.tgz:4087.got - 2010.06.28 12:15:01.
