data_PCOD8325120
_publ_section_title
;
Structure prediction by ZEFSAII (Michael W. Deem and Ramdas Pophale) SiO2 
 PCOD8325120
Probable space group: P 6/M
;
_chemical_formula_sum "Si O2"
_cell_formula_units_Z 52
_cell_length_a 18.380452
_cell_length_b 18.380452
_cell_length_c 9.170206
_cell_angle_alpha 90.000000
_cell_angle_beta 90.000000
_cell_angle_gamma 120.000000
_cell_volume 2683.008803
_symmetry_space_group_name_H-M "P 6/M"
_symmetry_group_IT_number 175
_symmetry_cell_setting 'hexagonal'
loop_
_space_group_symop_operation_xyz
x,y,z
x-y,x,z
-y,x-y,z
-x,-y,z
-x+y,-x,z
y,-x+y,z
-x,-y,-z
-x+y,-x,-z
y,-x+y,-z
x,y,-z
x-y,x,-z
-y,x-y,-z
loop_
_atom_site_type_symbol
_atom_site_label
_atom_site_fract_x
_atom_site_fract_y
_atom_site_fract_z
Si Si1 0.666668 0.333335 0.327999
Si Si2 0.352547 0.833290 0.671274
Si Si3 0.648698 0.695474 0.828097
Si Si4 0.176673 0.150380 0.173665
Si Si5 0.513790 0.922666 0.841902
O O1 0.666667 0.333334 0.500000
O O2 0.691979 0.264239 0.278960
O O3 0.349697 0.847340 0.500000
O O4 0.305300 0.874978 0.751745
O O5 0.449516 0.867232 0.716644
O O6 0.734354 0.774286 0.768963
O O7 0.651446 0.610500 0.790660
O O8 0.637838 0.702166 0.000000
O O9 0.101446 0.163562 0.233509
O O10 0.175589 0.150838 0.000000
O O11 0.500000 0.000000 0.869495
O O12 0.498097 0.875743 0.000000
#
# Coordination Sequence:
#
# PCOD8325120 Si02
#       5
#     4  12  12  12  12
#     4   9  21  36  46  65 100 135 166 209 256 285
#     4  10  19  33  51  69  95 133 173 208 244 291
#     4   9  18  32  50  75 104 129 159 205 252 288
#     4   9  17  30  50  76 104 132 161 196 242 296
#     4   8  15  29  47  69  99 129 158 200 249 288
#
# _framework density 19.381225000000001
#
# number of rings (size 3 to 8) (size 9 to 14) (size 15 to 20)
#    0.000    3.000    0.000    2.308    0.000    6.923 
#    0.000    6.923    0.000    1.385    0.000    0.000 
#    0.000    1.846    0.000    0.000    0.000    0.000 
#
# Total GULP energy -644239.804066 kJ/mol
# GULP energy per Si atom -12389.227001 kJ/mol
# Density = 1.933711 g / cm^3
# Si number density = 19.381225 Si / 1000 Ang^3
#
#
#
# Elastic Constant Matrix: (Units=GPa)
#
#
# Indices 1 2 3 4 5 6 
#
# 1 135.8086 77.3869 25.8787 0.0000 0.0000 -0.0009
# 2 77.3869 135.8125 25.8802 0.0000 0.0000 0.0005
# 3 25.8787 25.8802 41.8083 0.0000 0.0000 -0.0005
# 4 0.0000 0.0000 0.0000 19.5601 -0.0001 0.0000
# 5 0.0000 0.0000 0.0000 -0.0001 19.5600 0.0000
# 6 -0.0009 0.0005 -0.0005 0.0000 0.0000 29.2123
#
#
#
# Elastic Compliance Matrix: (Units=1/GPa)
#
#
# Indices 1 2 3 4 5 6 
#
# 1 0.011318 -0.005798 -0.003417 0.000000 0.000000 0.000000
# 2 -0.005798 0.011318 -0.003417 0.000000 0.000000 0.000000
# 3 -0.003417 -0.003417 0.028149 0.000000 0.000000 0.000000
# 4 0.000000 0.000000 0.000000 0.051124 0.000000 0.000000
# 5 0.000000 0.000000 0.000000 0.000000 0.051125 0.000000
# 6 0.000000 0.000000 0.000000 0.000000 0.000000 0.034232
#
#
# Mechanical properties :
#
#
# Convention : Reuss Voigt Hill
#
# Bulk Modulus (GPa) = 39.18303 63.52455 51.35379
# Shear Modulus (GPa) = 22.62057 25.95204 24.28631
#
# Velocity S-wave (km/s) = 3.42005 3.66325 3.54373
# Velocity P-wave (km/s) = 5.98803 7.12320 6.58014
#
# Compressibility (1/GPa) = 0.02552125
#
# Stress axis : x y z
#
# Youngs Moduli (GPa) = 88.35257 88.35410 35.52544
#
# Poissons Ratio (x) = 0.51229 0.12138
# Poissons Ratio (y) = 0.51228 0.12140
# Poissons Ratio (z) = 0.30187 0.30192
#
# Static dielectric constant tensor:
#      x y z
#    x 3.925020 0.000010 0.000000 
#    y 0.000010 3.924970 0.000000 
#    z 0.000000 0.000000 3.177910 
# 
# 
# High freq. dielectric constant tensor:
#      x y z
#    x 1.751790 0.000000 0.000000 
#    y 0.000000 1.751790 0.000000 
#    z 0.000000 0.000000 1.714780 
# 
# From -- ./inp_files/824.got.cif
#   From: 2010.03.12/outbox.cif.g09.slc.cpg/sg175_1_cif.got.tgz:824.got - 2010.04.02 06:55:29.
