data_PCOD8325864
_publ_section_title
;
Structure prediction by ZEFSAII (Michael W. Deem and Ramdas Pophale) SiO2 
 PCOD8325864
Probable space group: P 61 2 2
;
_chemical_formula_sum "Si O2"
_cell_formula_units_Z 42
_cell_length_a 12.086549
_cell_length_b 12.086549
_cell_length_c 12.438068
_cell_angle_alpha 90.000000
_cell_angle_beta 90.000000
_cell_angle_gamma 120.000000
_cell_volume 1573.577701
_symmetry_space_group_name_H-M "P 61 2 2"
_symmetry_group_IT_number 178
_symmetry_cell_setting 'hexagonal'
loop_
_space_group_symop_operation_xyz
x,y,z
x-y,x,1/6+z
-y,x-y,1/3+z
-x,-y,1/2+z
-x+y,-x,2/3+z
y,-x+y,5/6+z
x-y,-y,-z
-x,-x+y,2/3-z
y,x,1/3-z
-y,-x,5/6-z
-x+y,y,1/2-z
x,x-y,1/6-z
loop_
_atom_site_type_symbol
_atom_site_label
_atom_site_fract_x
_atom_site_fract_y
_atom_site_fract_z
Si Si1 0.168365 0.336729 0.750000
Si Si2 0.449592 0.063421 0.160399
Si Si3 0.987452 0.175462 0.563716
Si Si4 0.581082 0.170793 0.555145
O O1 0.105290 0.252258 0.644872
O O2 0.318600 0.426895 0.721629
O O3 0.557822 0.115643 0.250000
O O4 0.337743 0.087921 0.201363
O O5 0.389466 0.910306 0.142410
O O6 0.516894 0.150095 0.056668
O O7 0.041375 0.152227 0.452429
O O8 0.646230 0.323115 0.583334
#
# Coordination Sequence:
#
# PCOD8325864 Si02
#       4
#     6  12  12  12
#     4  10  20  42  80 122 162 212 260 322 408 490
#     4  11  20  41  75 119 170 211 263 335 404 490
#     4  12  27  48  83 118 160 219 281 347 402 479
#     4   9  21  40  74 116 161 211 257 318 409 500
#
# _framework density 26.690770000000001
#
# number of rings (size 3 to 8) (size 9 to 14) (size 15 to 20)
#    0.857    0.571    2.857    2.571    4.000    0.000 
#    0.000   15.714   40.857    0.000    0.000    0.000 
#    0.000    0.000    0.000    0.000    0.000    0.000 
#
# Total GULP energy -520705.332747 kJ/mol
# GULP energy per Si atom -12397.746018 kJ/mol
# Density = 2.663002 g / cm^3
# Si number density = 26.690770 Si / 1000 Ang^3
#
#
#
# Elastic Constant Matrix: (Units=GPa)
#
#
# Indices 1 2 3 4 5 6 
#
# 1 72.1542 87.7149 48.7873 0.0000 0.0000 0.0000
# 2 87.7149 72.1542 48.7873 0.0000 0.0000 0.0000
# 3 48.7873 48.7873 145.0381 0.0000 0.0000 0.0000
# 4 0.0000 0.0000 0.0000 47.0985 0.0000 0.0000
# 5 0.0000 0.0000 0.0000 0.0000 47.0985 0.0000
# 6 0.0000 0.0000 0.0000 0.0000 0.0000 -7.7803
#
#
#
# Elastic Compliance Matrix: (Units=1/GPa)
#
#
# Indices 1 2 3 4 5 6 
#
# 1 -0.028197 0.036068 -0.002648 0.000000 0.000000 0.000000
# 2 0.036068 -0.028197 -0.002648 0.000000 0.000000 0.000000
# 3 -0.002648 -0.002648 0.008676 0.000000 0.000000 0.000000
# 4 0.000000 0.000000 0.000000 0.021232 0.000000 0.000000
# 5 0.000000 0.000000 0.000000 0.000000 0.021232 0.000000
# 6 0.000000 0.000000 0.000000 0.000000 0.000000 -0.128529
#
#
# Mechanical properties :
#
#
# Convention : Reuss Voigt Hill
#
# Bulk Modulus (GPa) = 72.31944 73.32507 72.82225
# Shear Modulus (GPa) = -26.21665 24.22046 -0.99810
#
# Velocity S-wave (km/s) = -3.13747 3.01565 -0.61218
# Velocity P-wave (km/s) = 3.74556 6.29740 5.18105
#
# Compressibility (1/GPa) = 0.01382754
#
# Stress axis : x y z
#
# Youngs Moduli (GPa) = -35.46507 -35.46507 115.26123
#
# Poissons Ratio (x) = 1.27915 0.30517
# Poissons Ratio (y) = 1.27915 0.30517
# Poissons Ratio (z) = -0.09390 -0.09390
#
# Static dielectric constant tensor:
#      x y z
#    x 4.673010 0.000000 0.000000 
#    y 0.000000 4.673010 0.000000 
#    z 0.000000 0.000000 5.080550 
# 
# 
# High freq. dielectric constant tensor:
#      x y z
#    x 2.072970 0.000000 0.000000 
#    y 0.000000 2.072970 0.000000 
#    z 0.000000 0.000000 2.075290 
# 
# From -- ./inp_files/3996.got.cif
#   From: 2010.03.12/outbox.cif.g09.slc.cpg/sg178_2_cif.got.tgz:3996.got - 2010.04.02 07:02:38.
