data_PCOD8325796
_publ_section_title
;
Structure prediction by ZEFSAII (Michael W. Deem and Ramdas Pophale) SiO2 
 PCOD8325796
Probable space group: P 61 2 2
;
_chemical_formula_sum "Si O2"
_cell_formula_units_Z 60
_cell_length_a 14.815955
_cell_length_b 14.815955
_cell_length_c 14.575877
_cell_angle_alpha 90.000000
_cell_angle_beta 90.000000
_cell_angle_gamma 120.000000
_cell_volume 2770.924082
_symmetry_space_group_name_H-M "P 61 2 2"
_symmetry_group_IT_number 178
_symmetry_cell_setting 'hexagonal'
loop_
_space_group_symop_operation_xyz
x,y,z
x-y,x,1/6+z
-y,x-y,1/3+z
-x,-y,1/2+z
-x+y,-x,2/3+z
y,-x+y,5/6+z
x-y,-y,-z
-x,-x+y,2/3-z
y,x,1/3-z
-y,-x,5/6-z
-x+y,y,1/2-z
x,x-y,1/6-z
loop_
_atom_site_type_symbol
_atom_site_label
_atom_site_fract_x
_atom_site_fract_y
_atom_site_fract_z
Si Si1 0.268643 0.385895 0.182878
Si Si2 0.312082 0.079532 0.703529
Si Si3 0.141455 0.385734 0.019782
Si Si4 0.413070 0.524679 0.622910
Si Si5 0.243480 0.756521 0.416667
Si Si6 0.144205 0.072103 0.583334
O O1 0.292545 0.292545 0.166667
O O2 0.170212 0.340424 0.250000
O O3 0.238096 0.424871 0.089986
O O4 0.368574 0.481583 0.231856
O O5 0.308104 0.152539 0.782986
O O6 0.420201 0.146695 0.650883
O O7 0.219759 0.037038 0.629063
O O8 0.295252 0.969174 0.741051
O O9 0.138455 0.480335 0.967652
O O10 0.439310 0.439310 0.666667
O O11 0.348769 0.555640 0.693503
O O12 0.073887 0.073887 0.666667
#
# Coordination Sequence:
#
# PCOD8325796 Si02
#       6
#    12  12  12  12   6   6
#     4  11  26  47  68  95 135 181 223 276 344 426
#     4  10  19  32  62  96 124 171 218 271 333 399
#     4  11  21  39  66  94 127 177 220 277 342 406
#     4  10  21  39  63  98 133 165 220 279 333 401
#     4   9  18  32  60  98 130 154 210 284 325 372
#     4  11  20  34  56  96 140 166 226 290 343 390
#
# _framework density 21.653427000000001
#
# number of rings (size 3 to 8) (size 9 to 14) (size 15 to 20)
#    0.000    1.600    4.000    1.200    0.000    2.400 
#    0.000    4.000    0.000    0.000    0.000    0.000 
#    0.000    0.000    0.000    0.000    0.000    0.000 
#
# Total GULP energy -743367.249052 kJ/mol
# GULP energy per Si atom -12389.454151 kJ/mol
# Density = 2.160414 g / cm^3
# Si number density = 21.653427 Si / 1000 Ang^3
#
#
#
# Elastic Constant Matrix: (Units=GPa)
#
#
# Indices 1 2 3 4 5 6 
#
# 1 93.4765 59.0437 39.4466 0.0000 0.0000 0.0000
# 2 59.0437 93.4765 39.4466 0.0000 0.0000 0.0000
# 3 39.4466 39.4466 91.4914 0.0000 0.0000 0.0000
# 4 0.0000 0.0000 0.0000 33.9722 0.0000 0.0000
# 5 0.0000 0.0000 0.0000 0.0000 33.9722 0.0000
# 6 0.0000 0.0000 0.0000 0.0000 0.0000 17.2164
#
#
#
# Elastic Compliance Matrix: (Units=1/GPa)
#
#
# Indices 1 2 3 4 5 6 
#
# 1 0.018740 -0.010302 -0.003638 0.000000 0.000000 0.000000
# 2 -0.010302 0.018740 -0.003638 0.000000 0.000000 0.000000
# 3 -0.003638 -0.003638 0.014067 0.000000 0.000000 0.000000
# 4 0.000000 0.000000 0.000000 0.029436 0.000000 0.000000
# 5 0.000000 0.000000 0.000000 0.000000 0.029436 0.000000
# 6 0.000000 0.000000 0.000000 0.000000 0.000000 0.058084
#
#
# Mechanical properties :
#
#
# Convention : Reuss Voigt Hill
#
# Bulk Modulus (GPa) = 61.00848 61.59092 61.29970
# Shear Modulus (GPa) = 23.90929 26.39934 25.15432
#
# Velocity S-wave (km/s) = 3.32653 3.49546 3.41204
# Velocity P-wave (km/s) = 6.55671 6.69303 6.62522
#
# Compressibility (1/GPa) = 0.01639116
#
# Stress axis : x y z
#
# Youngs Moduli (GPa) = 53.36111 53.36111 71.08706
#
# Poissons Ratio (x) = 0.54972 0.25863
# Poissons Ratio (y) = 0.54972 0.25863
# Poissons Ratio (z) = 0.19414 0.19414
#
# Static dielectric constant tensor:
#      x y z
#    x 3.703210 0.000000 0.000000 
#    y 0.000000 3.703210 0.000000 
#    z 0.000000 0.000000 3.854060 
# 
# 
# High freq. dielectric constant tensor:
#      x y z
#    x 1.839380 0.000000 0.000000 
#    y 0.000000 1.839380 0.000000 
#    z 0.000000 0.000000 1.842540 
# 
# From -- ./inp_files/5740.got.cif
#   From: 2010.03.12/outbox.cif.g09.slc.cpg/sg178_3_cif.got.tgz:5740.got - 2010.04.02 07:02:38.
