data_PCOD8325339
_publ_section_title
;
Structure prediction by ZEFSAII (Michael W. Deem and Ramdas Pophale) SiO2 
 PCOD8325339
Probable space group: P 6/M
;
_chemical_formula_sum "Si O2"
_cell_formula_units_Z 46
_cell_length_a 17.722136
_cell_length_b 17.722136
_cell_length_c 7.852294
_cell_angle_alpha 90.000000
_cell_angle_beta 90.000000
_cell_angle_gamma 120.000000
_cell_volume 2135.793761
_symmetry_space_group_name_H-M "P 6/M"
_symmetry_group_IT_number 175
_symmetry_cell_setting 'hexagonal'
loop_
_space_group_symop_operation_xyz
x,y,z
x-y,x,z
-y,x-y,z
-x,-y,z
-x+y,-x,z
y,-x+y,z
-x,-y,-z
-x+y,-x,-z
y,-x+y,-z
x,y,-z
x-y,x,-z
-y,x-y,-z
loop_
_atom_site_type_symbol
_atom_site_label
_atom_site_fract_x
_atom_site_fract_y
_atom_site_fract_z
Si Si1 0.333335 0.666668 0.699998
Si Si2 0.243795 0.325495 0.692366
Si Si3 0.556210 0.598061 0.300361
Si Si4 0.745753 0.222089 0.191220
Si Si5 0.198223 0.052175 0.000000
O O1 0.333334 0.666668 0.500000
O O2 0.266875 0.696618 0.765709
O O3 0.226841 0.286247 0.500000
O O4 0.343508 0.364410 0.746926
O O5 0.221255 0.402961 0.688363
O O6 0.184894 0.252341 0.827207
O O7 0.500000 0.500000 0.229973
O O8 0.541319 0.600324 0.500000
O O9 0.520867 0.654595 0.209411
O O10 0.780729 0.231916 0.000000
O O11 0.162200 0.118013 0.000000
#
# Coordination Sequence:
#
# PCOD8325339 Si02
#       5
#     4  12  12  12   6
#     4  12  25  41  61  90 139 191 232 277 326 385
#     4  11  24  44  71 101 136 178 226 279 337 404
#     4  10  22  40  64  94 132 180 227 274 331 392
#     4  12  24  40  64  95 132 173 225 277 331 393
#     4  12  27  48  73 102 134 170 218 278 350 420
#
# _framework density 21.537661
#
# number of rings (size 3 to 8) (size 9 to 14) (size 15 to 20)
#    0.000    0.783    1.304    6.391    1.826    5.739 
#    0.000    0.000    0.000    1.565    0.000    0.000 
#    0.000    0.000    0.000    0.000    0.000    0.000 
#
# Total GULP energy -570705.164125 kJ/mol
# GULP energy per Si atom -12406.634003 kJ/mol
# Density = 2.148864 g / cm^3
# Si number density = 21.537661 Si / 1000 Ang^3
#
#
#
# Elastic Constant Matrix: (Units=GPa)
#
#
# Indices 1 2 3 4 5 6 
#
# 1 134.4236 40.5808 42.0577 0.0000 0.0000 0.0016
# 2 40.5808 134.4270 42.0582 0.0000 0.0000 0.0008
# 3 42.0577 42.0582 104.1065 0.0000 0.0000 0.0002
# 4 0.0000 0.0000 0.0000 -4.1149 0.0002 0.0000
# 5 0.0000 0.0000 0.0000 0.0002 -4.0988 0.0000
# 6 0.0016 0.0008 0.0002 0.0000 0.0000 46.9228
#
#
#
# Elastic Compliance Matrix: (Units=1/GPa)
#
#
# Indices 1 2 3 4 5 6 
#
# 1 0.008874 -0.001782 -0.002865 0.000000 0.000000 0.000000
# 2 -0.001782 0.008873 -0.002865 0.000000 0.000000 0.000000
# 3 -0.002865 -0.002865 0.011920 0.000000 0.000000 0.000000
# 4 0.000000 0.000000 0.000000 -0.243022 -0.000012 0.000000
# 5 0.000000 0.000000 0.000000 -0.000012 -0.243973 0.000000
# 6 0.000000 0.000000 0.000000 0.000000 0.000000 0.021312
#
#
# Mechanical properties :
#
#
# Convention : Reuss Voigt Hill
#
# Bulk Modulus (GPa) = 68.29022 69.15006 68.72014
# Shear Modulus (GPa) = -12.01602 24.29253 6.13825
#
# Velocity S-wave (km/s) = -2.36457 3.36208 1.69003
# Velocity P-wave (km/s) = 4.93166 6.87370 5.98201
#
# Compressibility (1/GPa) = 0.01464338
#
# Stress axis : x y z
#
# Youngs Moduli (GPa) = 112.69422 112.69709 83.89160
#
# Poissons Ratio (x) = 0.20088 0.24032
# Poissons Ratio (y) = 0.20087 0.24032
# Poissons Ratio (z) = 0.32284 0.32284
#
# Static dielectric constant tensor:
#      x y z
#    x 3.888610 0.000000 0.000000 
#    y 0.000000 3.888600 0.000000 
#    z 0.000000 0.000000 3.958030 
# 
# 
# High freq. dielectric constant tensor:
#      x y z
#    x 1.850490 0.000000 0.000000 
#    y 0.000000 1.850490 0.000000 
#    z 0.000000 0.000000 1.854730 
# 
# From -- ./inp_files/595.got.cif
#   From: 2010.03.12/outbox.cif.g09.slc.cpg/sg175_1_cif.got.tgz:595.got - 2010.04.02 06:55:29.
