data_PCOD8325024
_publ_section_title
;
Structure prediction by ZEFSAII (Michael W. Deem and Ramdas Pophale) SiO2 
 PCOD8325024
Probable space group: P 6/M
;
_chemical_formula_sum "Si O2"
_cell_formula_units_Z 96
_cell_length_a 25.792050
_cell_length_b 25.792050
_cell_length_c 9.456348
_cell_angle_alpha 90.000000
_cell_angle_beta 90.000000
_cell_angle_gamma 120.000000
_cell_volume 5447.858287
_symmetry_space_group_name_H-M "P 6/M"
_symmetry_group_IT_number 175
_symmetry_cell_setting 'hexagonal'
loop_
_space_group_symop_operation_xyz
x,y,z
x-y,x,z
-y,x-y,z
-x,-y,z
-x+y,-x,z
y,-x+y,z
-x,-y,-z
-x+y,-x,-z
y,-x+y,-z
x,y,-z
x-y,x,-z
-y,x-y,-z
loop_
_atom_site_type_symbol
_atom_site_label
_atom_site_fract_x
_atom_site_fract_y
_atom_site_fract_z
Si Si1 0.541914 0.322033 0.164655
Si Si2 0.339605 0.339445 0.333107
Si Si3 0.701991 0.131555 0.331934
Si Si4 0.360726 0.167165 0.659375
Si Si5 0.953638 0.208495 0.669062
Si Si6 0.655960 0.446734 0.164006
Si Si7 0.109788 0.125306 0.331492
Si Si8 0.550992 0.882557 0.659930
O O1 0.492928 0.328378 0.254889
O O2 0.605912 0.379139 0.196898
O O3 0.544927 0.264100 0.214680
O O4 0.525323 0.318066 0.000000
O O5 0.331153 0.340881 0.500000
O O6 0.397610 0.335704 0.291815
O O7 0.277331 0.282032 0.277838
O O8 0.350792 0.403005 0.273990
O O9 0.703441 0.142874 0.500000
O O10 0.768315 0.153423 0.268410
O O11 0.343346 0.172813 0.500000
O O12 0.300178 0.113617 0.729098
O O13 0.415774 0.155483 0.664948
O O14 0.952061 0.206115 0.500000
O O15 0.977159 0.165011 0.727373
O O16 0.640287 0.491272 0.247287
O O17 0.658022 0.462040 0.000000
O O18 0.117412 0.070409 0.275036
O O19 0.109921 0.125714 0.500000
O O20 0.532072 0.887246 0.500000
#
# Coordination Sequence:
#
# PCOD8325024 Si02
#       8
#    12  12  12  12  12  12  12  12
#     4  10  21  36  53  75 100 127 158 196 239 283
#     4   8  16  28  45  68  96 123 152 196 248 293
#     4  10  18  30  50  75 100 125 158 200 246 287
#     4   8  14  24  42  65  90 116 148 193 242 281
#     4   8  14  23  36  57  82 113 153 198 244 286
#     4  10  20  35  54  73  96 126 160 195 235 285
#     4   9  16  22  28  41  71 117 167 207 239 280
#     4   9  16  31  50  71  97 127 158 196 241 285
#
# _framework density 17.621604000000001
#
# number of rings (size 3 to 8) (size 9 to 14) (size 15 to 20)
#    0.000    3.000    1.250    1.875    1.750    2.000 
#    0.000    1.250    0.000    5.250    0.000    0.000 
#    0.000    0.000    0.000    0.000    0.000    0.000 
#
# Total GULP energy -1189704.830264 kJ/mol
# GULP energy per Si atom -12392.758649 kJ/mol
# Density = 1.758150 g / cm^3
# Si number density = 17.621604 Si / 1000 Ang^3
#
#
#
# Elastic Constant Matrix: (Units=GPa)
#
#
# Indices 1 2 3 4 5 6 
#
# 1 109.3695 58.2207 31.6446 0.0000 0.0000 0.0000
# 2 58.2207 109.3695 31.6446 0.0000 0.0000 0.0000
# 3 31.6446 31.6446 25.0701 0.0000 0.0000 0.0000
# 4 0.0000 0.0000 0.0000 12.8229 0.0000 0.0000
# 5 0.0000 0.0000 0.0000 0.0000 12.8229 0.0000
# 6 0.0000 0.0000 0.0000 0.0000 0.0000 25.5744
#
#
#
# Elastic Compliance Matrix: (Units=1/GPa)
#
#
# Indices 1 2 3 4 5 6 
#
# 1 0.015476 -0.004074 -0.014392 0.000000 0.000000 0.000000
# 2 -0.004074 0.015476 -0.014392 0.000000 0.000000 0.000000
# 3 -0.014392 -0.014392 0.076221 0.000000 0.000000 0.000000
# 4 0.000000 0.000000 0.000000 0.077986 0.000000 0.000000
# 5 0.000000 0.000000 0.000000 0.000000 0.077986 0.000000
# 6 0.000000 0.000000 0.000000 0.000000 0.000000 0.039102
#
#
# Mechanical properties :
#
#
# Convention : Reuss Voigt Hill
#
# Bulk Modulus (GPa) = 24.12172 54.09208 39.10690
# Shear Modulus (GPa) = 13.09645 18.39730 15.74688
#
# Velocity S-wave (km/s) = 2.72913 3.23463 2.99258
# Velocity P-wave (km/s) = 4.86306 6.68682 5.84649
#
# Compressibility (1/GPa) = 0.04145641
#
# Stress axis : x y z
#
# Youngs Moduli (GPa) = 64.61447 64.61447 13.11976
#
# Poissons Ratio (x) = 0.26326 0.18882
# Poissons Ratio (y) = 0.26326 0.18882
# Poissons Ratio (z) = 0.92994 0.92994
#
# Static dielectric constant tensor:
#      x y z
#    x 3.376950 0.000000 0.000000 
#    y 0.000000 3.376950 0.000000 
#    z 0.000000 0.000000 2.695500 
# 
# 
# High freq. dielectric constant tensor:
#      x y z
#    x 1.686040 0.000000 0.000000 
#    y 0.000000 1.686040 0.000000 
#    z 0.000000 0.000000 1.611610 
# 
# From -- ./inp_files/2140.got.cif
#   From: 2010.03.12/outbox.cif.g09.slc.cpg/sg175_2_cif.got.tgz:2140.got - 2010.04.02 06:55:29.
