data_PCOD8325865
_publ_section_title
;
Structure prediction by ZEFSAII (Michael W. Deem and Ramdas Pophale) SiO2 
 PCOD8325865
Probable space group: P 61 2 2
;
_chemical_formula_sum "Si O2"
_cell_formula_units_Z 84
_cell_length_a 16.970454
_cell_length_b 16.970454
_cell_length_c 16.409950
_cell_angle_alpha 90.000000
_cell_angle_beta 90.000000
_cell_angle_gamma 120.000000
_cell_volume 4092.840415
_symmetry_space_group_name_H-M "P 61 2 2"
_symmetry_group_IT_number 178
_symmetry_cell_setting 'hexagonal'
loop_
_space_group_symop_operation_xyz
x,y,z
x-y,x,1/6+z
-y,x-y,1/3+z
-x,-y,1/2+z
-x+y,-x,2/3+z
y,-x+y,5/6+z
x-y,-y,-z
-x,-x+y,2/3-z
y,x,1/3-z
-y,-x,5/6-z
-x+y,y,1/2-z
x,x-y,1/6-z
loop_
_atom_site_type_symbol
_atom_site_label
_atom_site_fract_x
_atom_site_fract_y
_atom_site_fract_z
Si Si1 0.816587 0.347340 0.888005
Si Si2 0.842196 0.602223 0.027073
Si Si3 0.949368 0.050633 0.416667
Si Si4 0.719020 0.264368 0.265343
Si Si5 0.049482 0.593657 0.524687
Si Si6 0.206138 0.793863 0.916667
Si Si7 0.926587 0.615884 0.401001
Si Si8 0.009135 0.753168 0.927053
O O1 0.758409 0.241592 0.916667
O O2 0.747992 0.382924 0.871984
O O3 0.868958 0.352463 0.805381
O O4 0.889826 0.414528 0.953876
O O5 0.885617 0.571220 0.095981
O O6 0.793145 0.652762 0.070461
O O7 0.765737 0.511186 0.982748
O O8 0.921996 0.671633 0.969045
O O9 0.988317 0.153233 0.448949
O O10 0.000000 0.044146 0.333334
O O11 0.608407 0.216815 0.250000
O O12 0.759077 0.233506 0.338074
O O13 0.010974 0.505487 0.583334
O O14 0.968649 0.602719 0.484159
O O15 0.101396 0.752365 0.944376
O O16 0.000000 0.683572 0.333334
O O17 0.000000 0.737266 0.833334
#
# Coordination Sequence:
#
# PCOD8325865 Si02
#       8
#    12  12   6  12  12   6  12  12
#     4  10  20  43  64  85 128 182 225 267 334 400
#     4  12  24  43  67  94 136 176 228 281 347 414
#     4   9  20  40  70 100 136 174 226 280 360 431
#     4  11  26  39  65  97 134 182 229 282 339 396
#     4  11  23  40  64  95 126 170 230 274 335 409
#     4  11  24  44  64  98 136 172 234 290 342 409
#     4  10  25  42  65  94 130 176 223 281 336 405
#     4  10  22  43  68  94 133 181 219 274 355 423
#
# _framework density 20.523644000000001
#
# number of rings (size 3 to 8) (size 9 to 14) (size 15 to 20)
#    0.000    1.429    4.286    0.000    4.000    1.714 
#    2.571    0.714    0.000    0.000    0.000    0.000 
#    0.000    0.000    0.000    0.000    0.000    0.000 
#
# Total GULP energy -1040650.937158 kJ/mol
# GULP energy per Si atom -12388.701633 kJ/mol
# Density = 2.047693 g / cm^3
# Si number density = 20.523644 Si / 1000 Ang^3
#
#
#
# Elastic Constant Matrix: (Units=GPa)
#
#
# Indices 1 2 3 4 5 6 
#
# 1 94.1636 49.0287 55.6895 0.0000 0.0000 0.0000
# 2 49.0287 94.1636 55.6895 0.0000 0.0000 0.0000
# 3 55.6895 55.6895 123.7214 0.0000 0.0000 0.0000
# 4 0.0000 0.0000 0.0000 34.1931 0.0000 0.0000
# 5 0.0000 0.0000 0.0000 0.0000 34.1931 0.0000
# 6 0.0000 0.0000 0.0000 0.0000 0.0000 22.5674
#
#
#
# Elastic Compliance Matrix: (Units=1/GPa)
#
#
# Indices 1 2 3 4 5 6 
#
# 1 0.016451 -0.005705 -0.004837 0.000000 0.000000 0.000000
# 2 -0.005705 0.016451 -0.004837 0.000000 0.000000 0.000000
# 3 -0.004837 -0.004837 0.012437 0.000000 0.000000 0.000000
# 4 0.000000 0.000000 0.000000 0.029246 0.000000 0.000000
# 5 0.000000 0.000000 0.000000 0.000000 0.029246 0.000000
# 6 0.000000 0.000000 0.000000 0.000000 0.000000 0.044312
#
#
# Mechanical properties :
#
#
# Convention : Reuss Voigt Hill
#
# Bulk Modulus (GPa) = 68.58176 70.31820 69.44998
# Shear Modulus (GPa) = 27.20941 28.30011 27.75476
#
# Velocity S-wave (km/s) = 3.64505 3.71739 3.68139
# Velocity P-wave (km/s) = 7.15567 7.26373 7.20990
#
# Compressibility (1/GPa) = 0.01458114
#
# Stress axis : x y z
#
# Youngs Moduli (GPa) = 60.78703 60.78703 80.40459
#
# Poissons Ratio (x) = 0.34679 0.38891
# Poissons Ratio (y) = 0.34679 0.38891
# Poissons Ratio (z) = 0.29402 0.29402
#
# Static dielectric constant tensor:
#      x y z
#    x 3.652790 0.000000 0.000000 
#    y 0.000000 3.652790 0.000000 
#    z 0.000000 0.000000 3.764300 
# 
# 
# High freq. dielectric constant tensor:
#      x y z
#    x 1.798250 0.000000 0.000000 
#    y 0.000000 1.798250 0.000000 
#    z 0.000000 0.000000 1.816740 
# 
# From -- ./inp_files/6064.got.cif
#   From: 2010.03.12/outbox.cif.g09.slc.cpg/sg178_4_cif.got.tgz:6064.got - 2010.04.02 07:02:38.
