data_PCOD8325975
_publ_section_title
;
Structure prediction by ZEFSAII (Michael W. Deem and Ramdas Pophale) SiO2 
 PCOD8325975
Probable space group: P 61 2 2
;
_chemical_formula_sum "Si O2"
_cell_formula_units_Z 36
_cell_length_a 10.485125
_cell_length_b 10.485125
_cell_length_c 17.321450
_cell_angle_alpha 90.000000
_cell_angle_beta 90.000000
_cell_angle_gamma 120.000000
_cell_volume 1649.157374
_symmetry_space_group_name_H-M "P 61 2 2"
_symmetry_group_IT_number 178
_symmetry_cell_setting 'hexagonal'
loop_
_space_group_symop_operation_xyz
x,y,z
x-y,x,1/6+z
-y,x-y,1/3+z
-x,-y,1/2+z
-x+y,-x,2/3+z
y,-x+y,5/6+z
x-y,-y,-z
-x,-x+y,2/3-z
y,x,1/3-z
-y,-x,5/6-z
-x+y,y,1/2-z
x,x-y,1/6-z
loop_
_atom_site_type_symbol
_atom_site_label
_atom_site_fract_x
_atom_site_fract_y
_atom_site_fract_z
Si Si1 0.396357 0.342781 0.881633
Si Si2 0.852878 0.267195 0.789328
Si Si3 0.697772 0.172950 0.495898
O O1 0.496714 0.503287 0.916667
O O2 0.235698 0.325705 0.879389
O O3 0.448962 0.334205 0.796411
O O4 0.415668 0.226576 0.933256
O O5 0.771578 0.347667 0.831386
O O6 0.000000 0.301182 0.833334
O O7 0.786410 0.213591 0.416667
O O8 0.602293 0.000000 0.500000
#
# Coordination Sequence:
#
# PCOD8325975 Si02
#       3
#    12  12  12
#     4  12  25  43  72 104 142 188 237 298 366 431
#     4  11  26  46  71 103 143 185 241 297 363 436
#     4  11  23  43  68 104 138 180 234 294 351 424
#
# _framework density 21.829329000000001
#
# number of rings (size 3 to 8) (size 9 to 14) (size 15 to 20)
#    0.000    0.667    3.333    4.000    4.667    0.000 
#    0.000   10.000    0.000    0.000    0.000    0.000 
#    0.000    0.000    0.000    0.000    0.000    0.000 
#
# Total GULP energy -446282.560071 kJ/mol
# GULP energy per Si atom -12396.737780 kJ/mol
# Density = 2.177964 g / cm^3
# Si number density = 21.829329 Si / 1000 Ang^3
#
#
#
# Elastic Constant Matrix: (Units=GPa)
#
#
# Indices 1 2 3 4 5 6 
#
# 1 118.9927 55.3382 44.7161 0.0000 0.0000 0.0000
# 2 55.3382 118.9927 44.7161 0.0000 0.0000 0.0000
# 3 44.7161 44.7161 123.6883 0.0000 0.0000 0.0000
# 4 0.0000 0.0000 0.0000 34.7685 0.0000 0.0000
# 5 0.0000 0.0000 0.0000 0.0000 34.7685 0.0000
# 6 0.0000 0.0000 0.0000 0.0000 0.0000 31.8272
#
#
#
# Elastic Compliance Matrix: (Units=1/GPa)
#
#
# Indices 1 2 3 4 5 6 
#
# 1 0.011376 -0.004334 -0.002546 0.000000 0.000000 0.000000
# 2 -0.004334 0.011376 -0.002546 0.000000 0.000000 0.000000
# 3 -0.002546 -0.002546 0.009926 0.000000 0.000000 0.000000
# 4 0.000000 0.000000 0.000000 0.028762 0.000000 0.000000
# 5 0.000000 0.000000 0.000000 0.000000 0.028762 0.000000
# 6 0.000000 0.000000 0.000000 0.000000 0.000000 0.031420
#
#
# Mechanical properties :
#
#
# Convention : Reuss Voigt Hill
#
# Bulk Modulus (GPa) = 72.32502 72.35716 72.34109
# Shear Modulus (GPa) = 34.46353 34.73307 34.59830
#
# Velocity S-wave (km/s) = 3.97769 3.99321 3.98546
# Velocity P-wave (km/s) = 7.36885 7.38104 7.37495
#
# Compressibility (1/GPa) = 0.01382647
#
# Stress axis : x y z
#
# Youngs Moduli (GPa) = 87.90391 87.90391 100.74893
#
# Poissons Ratio (x) = 0.38096 0.25650
# Poissons Ratio (y) = 0.38096 0.25650
# Poissons Ratio (z) = 0.22380 0.22380
#
# Static dielectric constant tensor:
#      x y z
#    x 4.165520 0.000000 0.000000 
#    y 0.000000 4.165520 0.000000 
#    z 0.000000 0.000000 4.316450 
# 
# 
# High freq. dielectric constant tensor:
#      x y z
#    x 1.857310 0.000000 0.000000 
#    y 0.000000 1.857310 0.000000 
#    z 0.000000 0.000000 1.880220 
# 
# From -- ./inp_files/5131.got.cif
#   From: 2010.03.12/outbox.cif.g09.slc.cpg/sg178_3_cif.got.tgz:5131.got - 2010.04.02 07:02:38.
