data_PCOD8325360
_publ_section_title
;
Structure prediction by ZEFSAII (Michael W. Deem and Ramdas Pophale) SiO2 
 PCOD8325360
Probable space group: P 6/M
;
_chemical_formula_sum "Si O2"
_cell_formula_units_Z 72
_cell_length_a 22.621724
_cell_length_b 22.621724
_cell_length_c 9.180534
_cell_angle_alpha 90.000000
_cell_angle_beta 90.000000
_cell_angle_gamma 120.000000
_cell_volume 4068.646646
_symmetry_space_group_name_H-M "P 6/M"
_symmetry_group_IT_number 175
_symmetry_cell_setting 'hexagonal'
loop_
_space_group_symop_operation_xyz
x,y,z
x-y,x,z
-y,x-y,z
-x,-y,z
-x+y,-x,z
y,-x+y,z
-x,-y,-z
-x+y,-x,-z
y,-x+y,-z
x,y,-z
x-y,x,-z
-y,x-y,-z
loop_
_atom_site_type_symbol
_atom_site_label
_atom_site_fract_x
_atom_site_fract_y
_atom_site_fract_z
Si Si1 0.611511 0.888362 0.665824
Si Si2 0.136984 0.007050 0.826597
Si Si3 0.246734 0.866867 0.334128
Si Si4 0.658494 0.460583 0.673396
Si Si5 0.793857 0.468226 0.673033
Si Si6 0.735297 0.004639 0.172395
O O1 0.622228 0.915013 0.500000
O O2 0.625092 0.825875 0.678488
O O3 0.534507 0.864395 0.720173
O O4 0.662094 0.949266 0.768400
O O5 0.134006 0.072214 0.765108
O O6 0.206560 0.011416 0.770907
O O7 0.134581 0.005997 0.000000
O O8 0.259841 0.894332 0.500000
O O9 0.305983 0.850933 0.282520
O O10 0.246159 0.921177 0.226118
O O11 0.660174 0.458305 0.500000
O O12 0.719870 0.450506 0.735244
O O13 0.586451 0.400256 0.735433
O O14 0.788985 0.463920 0.500000
O O15 0.732641 0.004001 0.000000
#
# Coordination Sequence:
#
# PCOD8325360 Si02
#       6
#    12  12  12  12  12  12
#     4   9  18  32  49  70  96 124 155 193 237 284
#     4   9  17  29  46  68  91 112 138 179 230 276
#     4   9  18  32  49  70  96 124 155 193 237 284
#     4   8  13  23  43  71  98 121 149 191 242 290
#     4   8  13  23  43  71  98 121 149 191 242 290
#     4  11  21  32  48  69  94 127 164 195 224 270
#
# _framework density 17.696301999999999
#
# number of rings (size 3 to 8) (size 9 to 14) (size 15 to 20)
#    0.000    3.000    0.000    4.000    0.000    4.000 
#    0.000    0.833    0.000    6.000    0.000    0.000 
#    0.000   10.667    0.000    0.000    0.000    0.000 
#
# Total GULP energy -892489.536241 kJ/mol
# GULP energy per Si atom -12395.688003 kJ/mol
# Density = 1.765602 g / cm^3
# Si number density = 17.696302 Si / 1000 Ang^3
#
#
#
# Elastic Constant Matrix: (Units=GPa)
#
#
# Indices 1 2 3 4 5 6 
#
# 1 60.5013 4.3254 15.8097 0.0000 0.0000 0.0000
# 2 4.3254 60.5013 15.8097 0.0000 0.0000 0.0000
# 3 15.8097 15.8097 32.8202 0.0000 0.0000 0.0000
# 4 0.0000 0.0000 0.0000 13.6914 0.0000 0.0000
# 5 0.0000 0.0000 0.0000 0.0000 13.6914 0.0000
# 6 0.0000 0.0000 0.0000 0.0000 0.0000 28.0880
#
#
#
# Elastic Compliance Matrix: (Units=1/GPa)
#
#
# Indices 1 2 3 4 5 6 
#
# 1 0.018982 0.001181 -0.009713 0.000000 0.000000 0.000000
# 2 0.001181 0.018982 -0.009713 0.000000 0.000000 0.000000
# 3 -0.009713 -0.009713 0.039826 0.000000 0.000000 0.000000
# 4 0.000000 0.000000 0.000000 0.073039 0.000000 0.000000
# 5 0.000000 0.000000 0.000000 0.000000 0.073039 0.000000
# 6 0.000000 0.000000 0.000000 0.000000 0.000000 0.035602
#
#
# Mechanical properties :
#
#
# Convention : Reuss Voigt Hill
#
# Bulk Modulus (GPa) = 24.21201 25.07916 24.64558
# Shear Modulus (GPa) = 16.14326 18.95268 17.54797
#
# Velocity S-wave (km/s) = 3.02361 3.27616 3.15241
# Velocity P-wave (km/s) = 5.08933 5.33982 5.21608
#
# Compressibility (1/GPa) = 0.04130182
#
# Stress axis : x y z
#
# Youngs Moduli (GPa) = 52.68102 52.68102 25.10900
#
# Poissons Ratio (x) = -0.06221 0.24388
# Poissons Ratio (y) = -0.06221 0.24388
# Poissons Ratio (z) = 0.51167 0.51167
#
# Static dielectric constant tensor:
#      x y z
#    x 3.495640 0.000000 0.000000 
#    y 0.000000 3.495640 0.000000 
#    z 0.000000 0.000000 2.773890 
# 
# 
# High freq. dielectric constant tensor:
#      x y z
#    x 1.689470 0.000000 0.000000 
#    y 0.000000 1.689470 0.000000 
#    z 0.000000 0.000000 1.627790 
# 
# From -- ./inp_files/1176.got.cif
#   From: 2010.03.12/outbox.cif.g09.slc.cpg/sg175_1_cif.got.tgz:1176.got - 2010.04.02 06:55:29.
