data_PCOD8325025
_publ_section_title
;
Structure prediction by ZEFSAII (Michael W. Deem and Ramdas Pophale) SiO2 
 PCOD8325025
Probable space group: P 6/M
;
_chemical_formula_sum "Si O2"
_cell_formula_units_Z 64
_cell_length_a 14.046659
_cell_length_b 14.046659
_cell_length_c 18.462570
_cell_angle_alpha 90.000000
_cell_angle_beta 90.000000
_cell_angle_gamma 120.000000
_cell_volume 3154.778451
_symmetry_space_group_name_H-M "P 6/M"
_symmetry_group_IT_number 175
_symmetry_cell_setting 'hexagonal'
loop_
_space_group_symop_operation_xyz
x,y,z
x-y,x,z
-y,x-y,z
-x,-y,z
-x+y,-x,z
y,-x+y,z
-x,-y,-z
-x+y,-x,-z
y,-x+y,-z
x,y,-z
x-y,x,-z
-y,x-y,-z
loop_
_atom_site_type_symbol
_atom_site_label
_atom_site_fract_x
_atom_site_fract_y
_atom_site_fract_z
Si Si1 0.876179 0.474572 0.274286
Si Si2 0.666668 0.333335 0.085402
Si Si3 0.562056 0.628248 0.421885
Si Si4 0.796583 0.775522 0.372406
Si Si5 0.053466 0.817600 0.799034
Si Si6 0.525671 0.790723 0.812828
O O1 0.849450 0.502242 0.355105
O O2 0.799312 0.348498 0.250898
O O3 0.854024 0.550934 0.218127
O O4 0.000000 0.500000 0.268012
O O5 0.543803 0.246764 0.113028
O O6 0.666667 0.333334 0.000000
O O7 0.500000 0.500000 0.432852
O O8 0.557028 0.680846 0.500000
O O9 0.688343 0.666963 0.400261
O O10 0.785174 0.877232 0.403142
O O11 0.808002 0.770345 0.286762
O O12 0.095503 0.734708 0.825827
O O13 0.936555 0.791523 0.830302
#
# Coordination Sequence:
#
# PCOD8325025 Si02
#       6
#    12   4  12  12  12  12
#     4  10  19  34  53  77 106 139 188 238 284 340
#     4   9  21  39  60  90 121 146 178 228 294 363
#     4  10  21  35  50  70 104 149 195 245 296 345
#     4  10  20  35  56  82 113 149 192 243 299 357
#     4  10  18  30  51  82 115 148 186 228 272 321
#     4  10  19  33  59  84 110 146 183 230 285 344
#
# _framework density 20.286688000000002
#
# number of rings (size 3 to 8) (size 9 to 14) (size 15 to 20)
#    0.000    2.062    0.000    6.375    0.000    2.250 
#    0.000    2.812    0.000   22.125    0.000    0.000 
#    0.000    1.500    0.000    0.000    0.000    0.000 
#
# Total GULP energy -792838.595461 kJ/mol
# GULP energy per Si atom -12388.103054 kJ/mol
# Density = 2.024051 g / cm^3
# Si number density = 20.286688 Si / 1000 Ang^3
#
#
#
# Elastic Constant Matrix: (Units=GPa)
#
#
# Indices 1 2 3 4 5 6 
#
# 1 99.5625 37.8316 37.4979 0.0000 0.0000 -0.0001
# 2 37.8316 99.5628 37.4982 0.0000 0.0000 -0.0001
# 3 37.4979 37.4982 115.7073 0.0000 0.0000 -0.0003
# 4 0.0000 0.0000 0.0000 3.0174 -0.0001 0.0000
# 5 0.0000 0.0000 0.0000 -0.0001 3.0172 0.0000
# 6 -0.0001 -0.0001 -0.0003 0.0000 0.0000 30.8658
#
#
#
# Elastic Compliance Matrix: (Units=1/GPa)
#
#
# Indices 1 2 3 4 5 6 
#
# 1 0.012521 -0.003678 -0.002866 0.000000 0.000000 0.000000
# 2 -0.003678 0.012521 -0.002866 0.000000 0.000000 0.000000
# 3 -0.002866 -0.002866 0.010500 0.000000 0.000000 0.000000
# 4 0.000000 0.000000 0.000000 0.331407 0.000008 0.000000
# 5 0.000000 0.000000 0.000000 0.000008 0.331430 0.000000
# 6 0.000000 0.000000 0.000000 0.000000 0.000000 0.032398
#
#
# Mechanical properties :
#
#
# Convention : Reuss Voigt Hill
#
# Bulk Modulus (GPa) = 59.80034 60.05423 59.92728
# Shear Modulus (GPa) = 6.62102 20.84708 13.73405
#
# Velocity S-wave (km/s) = 1.80854 3.20914 2.60474
# Velocity P-wave (km/s) = 5.82260 6.58775 6.21696
#
# Compressibility (1/GPa) = 0.01672231
#
# Stress axis : x y z
#
# Youngs Moduli (GPa) = 79.86634 79.86640 95.23913
#
# Poissons Ratio (x) = 0.29378 0.27292
# Poissons Ratio (y) = 0.29378 0.27292
# Poissons Ratio (z) = 0.22887 0.22887
#
# Static dielectric constant tensor:
#      x y z
#    x 3.913760 0.000000 0.000000 
#    y 0.000000 3.913760 0.000000 
#    z 0.000000 0.000000 3.329820 
# 
# 
# High freq. dielectric constant tensor:
#      x y z
#    x 1.797830 0.000000 0.000000 
#    y 0.000000 1.797830 0.000000 
#    z 0.000000 0.000000 1.733220 
# 
# From -- ./inp_files/2823.got.cif
#   From: 2010.03.12/outbox.cif.g09.slc.cpg/sg175_2_cif.got.tgz:2823.got - 2010.04.02 06:55:29.
