data_PCOD8325600
_publ_section_title
;
Structure prediction by ZEFSAII (Michael W. Deem and Ramdas Pophale) SiO2 
 PCOD8325600
Probable space group: P 63/M
;
_chemical_formula_sum "Si O2"
_cell_formula_units_Z 72
_cell_length_a 23.608263
_cell_length_b 23.608263
_cell_length_c 9.030250
_cell_angle_alpha 90.000000
_cell_angle_beta 90.000000
_cell_angle_gamma 120.000000
_cell_volume 4358.715017
_symmetry_space_group_name_H-M "P 63/M"
_symmetry_group_IT_number 176
_symmetry_cell_setting 'hexagonal'
loop_
_space_group_symop_operation_xyz
x,y,z
x-y,x,1/2+z
-y,x-y,z
-x,-y,1/2+z
-x+y,-x,z
y,-x+y,1/2+z
-x,-y,-z
-x+y,-x,1/2-z
y,-x+y,-z
x,y,1/2-z
x-y,x,-z
-y,x-y,1/2-z
loop_
_atom_site_type_symbol
_atom_site_label
_atom_site_fract_x
_atom_site_fract_y
_atom_site_fract_z
Si Si1 0.073418 0.472884 0.081109
Si Si2 0.587594 0.527206 0.580456
Si Si3 0.291838 0.141919 0.424507
Si Si4 0.066957 0.925182 0.928093
Si Si5 0.072845 0.716094 0.083218
Si Si6 0.631949 0.712871 0.579513
O O1 0.078537 0.456873 0.250000
O O2 0.103627 0.551707 0.055469
O O3 0.108871 0.440451 0.990644
O O4 0.997881 0.440764 0.036729
O O5 0.573337 0.541092 0.750000
O O6 0.666566 0.564921 0.559388
O O7 0.291448 0.146357 0.250000
O O8 0.217219 0.103505 0.479644
O O9 0.330358 0.105210 0.469675
O O10 0.329952 0.214980 0.493134
O O11 0.060446 0.927382 0.750000
O O12 0.997223 0.889648 0.006255
O O13 0.086217 0.744270 0.250000
O O14 0.995887 0.675517 0.050708
O O15 0.619649 0.718666 0.750000
#
# Coordination Sequence:
#
# PCOD8325600 Si02
#       6
#    12  12  12  12  12  12
#     4   9  15  24  42  66  88 113 147 177 202 246
#     4   8  15  27  41  61  91 120 141 169 212 253
#     4  10  21  34  48  67  93 123 154 191 236 289
#     4  11  23  39  56  72  90 116 155 204 257 307
#     4   9  17  30  47  64  88 122 153 183 225 274
#     4   9  18  32  45  61  91 124 148 180 231 276
#
# _framework density 16.518630999999999
#
# number of rings (size 3 to 8) (size 9 to 14) (size 15 to 20)
#    0.000    2.667    0.000    3.167    0.000    6.667 
#    0.000    0.000    0.000    0.000    0.000    0.000 
#    1.667    0.000    1.000    0.000    1.333    0.000 
#
# Total GULP energy -892077.107952 kJ/mol
# GULP energy per Si atom -12389.959833 kJ/mol
# Density = 1.648103 g / cm^3
# Si number density = 16.518631 Si / 1000 Ang^3
#
#
#
# Elastic Constant Matrix: (Units=GPa)
#
#
# Indices 1 2 3 4 5 6 
#
# 1 96.8790 53.2706 26.0519 0.0000 0.0000 0.0000
# 2 53.2706 96.8790 26.0519 0.0000 0.0000 0.0000
# 3 26.0519 26.0519 35.9242 0.0000 0.0000 0.0000
# 4 0.0000 0.0000 0.0000 24.1444 0.0000 0.0000
# 5 0.0000 0.0000 0.0000 0.0000 24.1444 0.0000
# 6 0.0000 0.0000 0.0000 0.0000 0.0000 21.8042
#
#
#
# Elastic Compliance Matrix: (Units=1/GPa)
#
#
# Indices 1 2 3 4 5 6 
#
# 1 0.015915 -0.007016 -0.006454 0.000000 0.000000 0.000000
# 2 -0.007016 0.015915 -0.006454 0.000000 0.000000 0.000000
# 3 -0.006454 -0.006454 0.037197 0.000000 0.000000 0.000000
# 4 0.000000 0.000000 0.000000 0.041418 0.000000 0.000000
# 5 0.000000 0.000000 0.000000 0.000000 0.041418 0.000000
# 6 0.000000 0.000000 0.000000 0.000000 0.000000 0.045863
#
#
# Mechanical properties :
#
#
# Convention : Reuss Voigt Hill
#
# Bulk Modulus (GPa) = 34.26935 48.93677 41.60306
# Shear Modulus (GPa) = 20.21835 22.30578 21.26207
#
# Velocity S-wave (km/s) = 3.50233 3.67868 3.59159
# Velocity P-wave (km/s) = 6.09475 6.90892 6.51457
#
# Compressibility (1/GPa) = 0.02918059
#
# Stress axis : x y z
#
# Youngs Moduli (GPa) = 62.83190 62.83190 26.88385
#
# Poissons Ratio (x) = 0.44082 0.17351
# Poissons Ratio (y) = 0.44082 0.17351
# Poissons Ratio (z) = 0.40551 0.40551
#
# Static dielectric constant tensor:
#      x y z
#    x 3.258940 0.000000 0.000000 
#    y 0.000000 3.258940 0.000000 
#    z 0.000000 0.000000 2.899860 
# 
# 
# High freq. dielectric constant tensor:
#      x y z
#    x 1.618920 0.000000 0.000000 
#    y 0.000000 1.618920 0.000000 
#    z 0.000000 0.000000 1.638710 
# 
# From -- ./inp_files/1142.got.cif
#   From: 2010.06.25/outbox.cif.g09.slc.cpg/sg176_1_cif.got.tgz:1142.got - 2010.06.28 12:15:01.
