data_PCOD8325989
_publ_section_title
;
Structure prediction by ZEFSAII (Michael W. Deem and Ramdas Pophale) SiO2 
 PCOD8325989
Probable space group: P 61 2 2
;
_chemical_formula_sum "Si O2"
_cell_formula_units_Z 54
_cell_length_a 11.072567
_cell_length_b 11.072567
_cell_length_c 29.101568
_cell_angle_alpha 90.000000
_cell_angle_beta 90.000000
_cell_angle_gamma 120.000000
_cell_volume 3089.894526
_symmetry_space_group_name_H-M "P 61 2 2"
_symmetry_group_IT_number 178
_symmetry_cell_setting 'hexagonal'
loop_
_space_group_symop_operation_xyz
x,y,z
x-y,x,1/6+z
-y,x-y,1/3+z
-x,-y,1/2+z
-x+y,-x,2/3+z
y,-x+y,5/6+z
x-y,-y,-z
-x,-x+y,2/3-z
y,x,1/3-z
-y,-x,5/6-z
-x+y,y,1/2-z
x,x-y,1/6-z
loop_
_atom_site_type_symbol
_atom_site_label
_atom_site_fract_x
_atom_site_fract_y
_atom_site_fract_z
Si Si1 0.371042 0.141614 0.904926
Si Si2 0.425894 0.438442 0.464721
Si Si3 0.767675 0.266724 0.504600
Si Si4 0.790671 0.331772 0.961839
Si Si5 0.662089 0.831045 0.583334
O O1 0.356673 0.260504 0.877931
O O2 0.509045 0.143632 0.887373
O O3 0.233901 0.990188 0.899089
O O4 0.381711 0.176939 0.958360
O O5 0.515556 0.484445 0.416667
O O6 0.472968 0.575980 0.495266
O O7 0.442933 0.328844 0.496810
O O8 0.629381 0.269903 0.515827
O O9 0.742741 0.184512 0.457371
O O10 0.767127 0.232874 0.916667
#
# Coordination Sequence:
#
# PCOD8325989 Si02
#       5
#    12  12  12  12   6
#     4   9  19  32  49  79 109 138 176 217 264 314
#     4   9  17  33  52  76 110 141 176 215 271 330
#     4   9  19  30  48  79 109 134 172 218 267 312
#     4   9  17  33  52  78 111 136 171 229 270 313
#     4  12  18  30  52  80 112 140 172 224 268 318
#
# _framework density 17.476326
#
# number of rings (size 3 to 8) (size 9 to 14) (size 15 to 20)
#    0.000    2.667    2.222    3.333    1.556    0.000 
#    0.000    0.000    0.000    0.000   11.556    0.000 
#    3.333    0.000    0.000    0.000    0.000    0.000 
#
# Total GULP energy -668982.611357 kJ/mol
# GULP energy per Si atom -12388.566877 kJ/mol
# Density = 1.743655 g / cm^3
# Si number density = 17.476326 Si / 1000 Ang^3
#
#
#
# Elastic Constant Matrix: (Units=GPa)
#
#
# Indices 1 2 3 4 5 6 
#
# 1 75.4896 36.8534 38.6303 0.0000 0.0000 0.0000
# 2 36.8534 75.4896 38.6303 0.0000 0.0000 0.0000
# 3 38.6303 38.6303 109.4704 0.0000 0.0000 0.0000
# 4 0.0000 0.0000 0.0000 29.2373 0.0000 0.0000
# 5 0.0000 0.0000 0.0000 0.0000 29.2373 0.0000
# 6 0.0000 0.0000 0.0000 0.0000 0.0000 19.3181
#
#
#
# Elastic Compliance Matrix: (Units=1/GPa)
#
#
# Indices 1 2 3 4 5 6 
#
# 1 0.018818 -0.007064 -0.004148 0.000000 0.000000 0.000000
# 2 -0.007064 0.018818 -0.004148 0.000000 0.000000 0.000000
# 3 -0.004148 -0.004148 0.012062 0.000000 0.000000 0.000000
# 4 0.000000 0.000000 0.000000 0.034203 0.000000 0.000000
# 5 0.000000 0.000000 0.000000 0.000000 0.034203 0.000000
# 6 0.000000 0.000000 0.000000 0.000000 0.000000 0.051765
#
#
# Mechanical properties :
#
#
# Convention : Reuss Voigt Hill
#
# Bulk Modulus (GPa) = 52.69005 54.29750 53.49378
# Shear Modulus (GPa) = 24.16450 25.31424 24.73937
#
# Velocity S-wave (km/s) = 3.72250 3.81003 3.76652
# Velocity P-wave (km/s) = 6.97788 7.10575 7.04211
#
# Compressibility (1/GPa) = 0.01897891
#
# Stress axis : x y z
#
# Youngs Moduli (GPa) = 53.14022 53.14022 82.90355
#
# Poissons Ratio (x) = 0.37540 0.34386
# Poissons Ratio (y) = 0.37540 0.34386
# Poissons Ratio (z) = 0.22041 0.22041
#
# Static dielectric constant tensor:
#      x y z
#    x 3.043530 0.000000 0.000000 
#    y 0.000000 3.043530 0.000000 
#    z 0.000000 0.000000 3.428310 
# 
# 
# High freq. dielectric constant tensor:
#      x y z
#    x 1.647780 0.000000 0.000000 
#    y 0.000000 1.647780 0.000000 
#    z 0.000000 0.000000 1.689970 
# 
# From -- ./inp_files/8114.got.cif
#   From: 2010.03.12/outbox.cif.g09.slc.cpg/sg178_5_cif.got.tgz:8114.got - 2010.04.02 07:02:38.
