data_PCOD8325137
_publ_section_title
;
Structure prediction by ZEFSAII (Michael W. Deem and Ramdas Pophale) SiO2 
 PCOD8325137
Probable space group: P 6/M
;
_chemical_formula_sum "Si O2"
_cell_formula_units_Z 84
_cell_length_a 23.689346
_cell_length_b 23.689346
_cell_length_c 9.185438
_cell_angle_alpha 90.000000
_cell_angle_beta 90.000000
_cell_angle_gamma 120.000000
_cell_volume 4464.128057
_symmetry_space_group_name_H-M "P 6/M"
_symmetry_group_IT_number 175
_symmetry_cell_setting 'hexagonal'
loop_
_space_group_symop_operation_xyz
x,y,z
x-y,x,z
-y,x-y,z
-x,-y,z
-x+y,-x,z
y,-x+y,z
-x,-y,-z
-x+y,-x,-z
y,-x+y,-z
x,y,-z
x-y,x,-z
-y,x-y,-z
loop_
_atom_site_type_symbol
_atom_site_label
_atom_site_fract_x
_atom_site_fract_y
_atom_site_fract_z
Si Si1 0.809683 0.434740 0.327112
Si Si2 0.708676 0.477667 0.326738
Si Si3 0.906052 0.051747 0.826293
Si Si4 0.335650 0.996535 0.832798
Si Si5 0.757333 0.610500 0.167466
Si Si6 0.289557 0.190548 0.827120
Si Si7 0.955256 0.529266 0.327479
O O1 0.809410 0.434246 0.500000
O O2 0.761596 0.459230 0.268386
O O3 0.784747 0.361977 0.269434
O O4 0.882185 0.482958 0.267681
O O5 0.709977 0.482682 0.500000
O O6 0.723315 0.545942 0.262749
O O7 0.859400 0.077628 0.763423
O O8 0.978911 0.098513 0.767408
O O9 0.905374 0.051812 0.000000
O O10 0.263013 0.950947 0.771972
O O11 0.384996 0.985326 0.737986
O O12 0.351401 0.069727 0.814666
O O13 0.341286 0.979835 0.000000
O O14 0.829480 0.657965 0.229425
O O15 0.759288 0.591551 0.000000
O O16 0.285437 0.186690 0.000000
O O17 0.955644 0.535301 0.500000
O O18 0.000000 0.500000 0.275340
#
# Coordination Sequence:
#
# PCOD8325137 Si02
#       7
#    12  12  12  12  12  12  12
#     4   9  18  32  52  76  97 122 159 199 238 285
#     4  10  19  34  55  75  97 126 160 198 241 288
#     4   9  15  23  38  62  92 126 164 204 244 287
#     4  10  20  33  50  72  97 128 165 200 236 283
#     4  10  20  33  49  72 100 128 163 203 239 282
#     4   9  17  30  46  64  92 130 165 198 241 289
#     4  10  20  34  51  72  99 128 158 195 241 289
#
# _framework density 18.816663999999999
#
# number of rings (size 3 to 8) (size 9 to 14) (size 15 to 20)
#    0.000    2.429    0.000    3.000    0.000    7.143 
#    0.000    1.429    0.000    0.000    0.000    0.000 
#    0.000    0.000    0.000    0.857    0.000   14.714 
#
# Total GULP energy -1041754.189476 kJ/mol
# GULP energy per Si atom -12401.835589 kJ/mol
# Density = 1.877384 g / cm^3
# Si number density = 18.816664 Si / 1000 Ang^3
#
#
#
# Elastic Constant Matrix: (Units=GPa)
#
#
# Indices 1 2 3 4 5 6 
#
# 1 121.0287 33.8658 18.9555 0.0000 0.0000 0.0000
# 2 33.8658 121.0287 18.9555 0.0000 0.0000 0.0000
# 3 18.9555 18.9555 14.6810 0.0000 0.0000 0.0000
# 4 0.0000 0.0000 0.0000 14.0488 0.0000 0.0000
# 5 0.0000 0.0000 0.0000 0.0000 14.0488 0.0000
# 6 0.0000 0.0000 0.0000 0.0000 0.0000 43.5815
#
#
#
# Elastic Compliance Matrix: (Units=1/GPa)
#
#
# Indices 1 2 3 4 5 6 
#
# 1 0.010456 -0.001017 -0.012187 0.000000 0.000000 0.000000
# 2 -0.001017 0.010456 -0.012187 0.000000 0.000000 0.000000
# 3 -0.012187 -0.012187 0.099586 0.000000 0.000000 0.000000
# 4 0.000000 0.000000 0.000000 0.071181 0.000000 0.000000
# 5 0.000000 0.000000 0.000000 0.000000 0.071181 0.000000
# 6 0.000000 0.000000 0.000000 0.000000 0.000000 0.022946
#
#
# Mechanical properties :
#
#
# Convention : Reuss Voigt Hill
#
# Bulk Modulus (GPa) = 14.34402 44.47689 29.41046
# Shear Modulus (GPa) = 13.89566 26.66658 20.28112
#
# Velocity S-wave (km/s) = 2.72044 3.76863 3.28659
# Velocity P-wave (km/s) = 4.18417 6.52878 5.48326
#
# Compressibility (1/GPa) = 0.06971545
#
# Stress axis : x y z
#
# Youngs Moduli (GPa) = 95.64075 95.64075 10.04159
#
# Poissons Ratio (x) = 0.09726 0.12238
# Poissons Ratio (y) = 0.09726 0.12238
# Poissons Ratio (z) = 1.16557 1.16557
#
# Static dielectric constant tensor:
#      x y z
#    x 3.689690 0.000000 0.000000 
#    y 0.000000 3.689690 0.000000 
#    z 0.000000 0.000000 2.912860 
# 
# 
# High freq. dielectric constant tensor:
#      x y z
#    x 1.750720 0.000000 0.000000 
#    y 0.000000 1.750720 0.000000 
#    z 0.000000 0.000000 1.670150 
# 
# From -- ./inp_files/1979.got.cif
#   From: 2010.03.12/outbox.cif.g09.slc.cpg/sg175_1_cif.got.tgz:1979.got - 2010.04.02 06:55:29.
