data_PCOD8325692
_publ_section_title
;
Structure prediction by ZEFSAII (Michael W. Deem and Ramdas Pophale) SiO2 
 PCOD8325692
Probable space group: P 63/M
;
_chemical_formula_sum "Si O2"
_cell_formula_units_Z 72
_cell_length_a 15.100989
_cell_length_b 15.100989
_cell_length_c 18.335887
_cell_angle_alpha 90.000000
_cell_angle_beta 90.000000
_cell_angle_gamma 120.000000
_cell_volume 3621.123509
_symmetry_space_group_name_H-M "P 63/M"
_symmetry_group_IT_number 176
_symmetry_cell_setting 'hexagonal'
loop_
_space_group_symop_operation_xyz
x,y,z
x-y,x,1/2+z
-y,x-y,z
-x,-y,1/2+z
-x+y,-x,z
y,-x+y,1/2+z
-x,-y,-z
-x+y,-x,1/2-z
y,-x+y,-z
x,y,1/2-z
x-y,x,-z
-y,x-y,1/2-z
loop_
_atom_site_type_symbol
_atom_site_label
_atom_site_fract_x
_atom_site_fract_y
_atom_site_fract_z
Si Si1 0.768461 0.552416 0.554275
Si Si2 0.871820 0.096421 0.407540
Si Si3 0.542732 0.106868 0.166765
Si Si4 0.129021 0.902830 0.418383
Si Si5 0.785515 0.552935 0.112845
Si Si6 0.079806 0.534415 0.068144
O O1 0.832161 0.655460 0.601013
O O2 0.751913 0.561095 0.468725
O O3 0.831356 0.493533 0.560647
O O4 0.654555 0.506033 0.585277
O O5 0.865310 0.090002 0.494576
O O6 0.795549 0.127153 0.367995
O O7 0.985703 0.179464 0.382752
O O8 0.839485 0.982620 0.382611
O O9 0.571637 0.101049 0.250000
O O10 0.485119 0.171965 0.163548
O O11 0.646182 0.166690 0.119387
O O12 0.471137 0.991897 0.137691
O O13 0.000000 0.500000 0.000000
#
# Coordination Sequence:
#
# PCOD8325692 Si02
#       6
#    12  12  12  12  12  12
#     4  11  21  35  61  91 117 151 204 259 308 354
#     4   9  17  28  48  76 115 152 185 234 289 346
#     4  12  25  40  60  91 130 171 206 251 322 395
#     4   9  17  27  47  79 117 150 183 232 295 349
#     4  11  20  36  58  86 124 154 200 255 308 369
#     4  12  23  40  63  91 125 161 208 265 316 377
#
# _framework density 19.883333
#
# number of rings (size 3 to 8) (size 9 to 14) (size 15 to 20)
#    0.000    1.333    3.333    3.500    4.667    1.333 
#    0.000    0.833    0.000    0.000    0.000    3.500 
#    0.000    0.000    0.000    0.000    0.000    0.000 
#
# Total GULP energy -892249.408021 kJ/mol
# GULP energy per Si atom -12392.352889 kJ/mol
# Density = 1.983808 g / cm^3
# Si number density = 19.883333 Si / 1000 Ang^3
#
#
#
# Elastic Constant Matrix: (Units=GPa)
#
#
# Indices 1 2 3 4 5 6 
#
# 1 106.0618 14.9963 11.6409 0.0000 0.0000 0.0000
# 2 14.9963 106.0618 11.6409 0.0000 0.0000 0.0000
# 3 11.6409 11.6409 35.4454 0.0000 0.0000 0.0000
# 4 0.0000 0.0000 0.0000 11.3483 0.0000 0.0000
# 5 0.0000 0.0000 0.0000 0.0000 11.3483 0.0000
# 6 0.0000 0.0000 0.0000 0.0000 0.0000 45.5328
#
#
#
# Elastic Compliance Matrix: (Units=1/GPa)
#
#
# Indices 1 2 3 4 5 6 
#
# 1 0.009899 -0.001082 -0.002896 0.000000 0.000000 0.000000
# 2 -0.001082 0.009899 -0.002896 0.000000 0.000000 0.000000
# 3 -0.002896 -0.002896 0.030114 0.000000 0.000000 0.000000
# 4 0.000000 0.000000 0.000000 0.088119 0.000000 0.000000
# 5 0.000000 0.000000 0.000000 0.000000 0.088119 0.000000
# 6 0.000000 0.000000 0.000000 0.000000 0.000000 0.021962
#
#
# Mechanical properties :
#
#
# Convention : Reuss Voigt Hill
#
# Bulk Modulus (GPa) = 27.65018 36.01390 31.83204
# Shear Modulus (GPa) = 18.25386 27.59863 22.92624
#
# Velocity S-wave (km/s) = 3.03322 3.72967 3.39933
# Velocity P-wave (km/s) = 5.11895 6.05798 5.60815
#
# Compressibility (1/GPa) = 0.03616613
#
# Stress axis : x y z
#
# Youngs Moduli (GPa) = 101.01770 101.01770 33.20667
#
# Poissons Ratio (x) = 0.10929 0.09616
# Poissons Ratio (y) = 0.10929 0.09616
# Poissons Ratio (z) = 0.29253 0.29253
#
# Static dielectric constant tensor:
#      x y z
#    x 3.805650 0.000000 0.000000 
#    y 0.000000 3.805650 0.000000 
#    z 0.000000 0.000000 3.087040 
# 
# 
# High freq. dielectric constant tensor:
#      x y z
#    x 1.793170 0.000000 0.000000 
#    y 0.000000 1.793170 0.000000 
#    z 0.000000 0.000000 1.706430 
# 
# From -- ./inp_files/3377.got.cif
#   From: 2010.06.25/outbox.cif.g09.slc.cpg/sg176_2_cif.got.tgz:3377.got - 2010.06.28 12:15:01.
