data_PCOD8325599
_publ_section_title
;
Structure prediction by ZEFSAII (Michael W. Deem and Ramdas Pophale) SiO2 
 PCOD8325599
Probable space group: P 63/M
;
_chemical_formula_sum "Si O2"
_cell_formula_units_Z 64
_cell_length_a 16.337084
_cell_length_b 16.337084
_cell_length_c 16.782574
_cell_angle_alpha 90.000000
_cell_angle_beta 90.000000
_cell_angle_gamma 120.000000
_cell_volume 3879.165303
_symmetry_space_group_name_H-M "P 63/M"
_symmetry_group_IT_number 176
_symmetry_cell_setting 'hexagonal'
loop_
_space_group_symop_operation_xyz
x,y,z
x-y,x,1/2+z
-y,x-y,z
-x,-y,1/2+z
-x+y,-x,z
y,-x+y,1/2+z
-x,-y,-z
-x+y,-x,1/2-z
y,-x+y,-z
x,y,1/2-z
x-y,x,-z
-y,x-y,1/2-z
loop_
_atom_site_type_symbol
_atom_site_label
_atom_site_fract_x
_atom_site_fract_y
_atom_site_fract_z
Si Si1 0.618121 0.577849 0.582889
Si Si2 0.666667 0.333334 0.843738
Si Si3 0.224816 0.452457 0.346140
Si Si4 0.424815 0.390344 0.906866
Si Si5 0.843231 0.336350 0.340544
Si Si6 0.847887 0.519062 0.155817
O O1 0.719037 0.594255 0.612798
O O2 0.618538 0.604064 0.491098
O O3 0.535526 0.470077 0.601273
O O4 0.604050 0.654914 0.630840
O O5 0.666667 0.333334 0.750000
O O6 0.718683 0.278982 0.874600
O O7 0.220021 0.439928 0.250000
O O8 0.120438 0.407561 0.384608
O O9 0.361124 0.409723 0.844754
O O10 0.811277 0.328841 0.250000
O O11 0.769978 0.235449 0.380315
O O12 0.833818 0.421021 0.381840
O O13 0.846301 0.514177 0.250000
#
# Coordination Sequence:
#
# PCOD8325599 Si02
#       6
#    12   4  12  12  12  12
#     4  10  21  33  47  72 104 135 169 215 263 305
#     4   9  18  30  51  75  99 138 184 224 256 297
#     4  11  20  34  54  75 102 141 185 224 260 308
#     4  10  21  33  47  72 104 135 169 215 263 305
#     4   9  17  30  48  69  96 132 170 203 239 293
#     4   9  17  30  48  69  96 132 170 203 239 293
#
# _framework density 16.498394000000001
#
# number of rings (size 3 to 8) (size 9 to 14) (size 15 to 20)
#    0.000    2.250    1.875    1.500    2.625    3.000 
#    0.000    0.000    0.000    0.000    0.000    0.000 
#    1.875    1.500    2.250    0.000    0.000    0.000 
#
# Total GULP energy -793120.445331 kJ/mol
# GULP energy per Si atom -12392.506958 kJ/mol
# Density = 1.646084 g / cm^3
# Si number density = 16.498394 Si / 1000 Ang^3
#
#
#
# Elastic Constant Matrix: (Units=GPa)
#
#
# Indices 1 2 3 4 5 6 
#
# 1 105.1916 46.3260 19.2794 0.0000 0.0000 0.0001
# 2 46.3260 105.1918 19.2793 0.0000 0.0000 0.0000
# 3 19.2794 19.2793 45.9938 0.0000 0.0000 0.0000
# 4 0.0000 0.0000 0.0000 20.3432 0.0000 0.0000
# 5 0.0000 0.0000 0.0000 0.0000 20.3432 0.0000
# 6 0.0001 0.0000 0.0000 0.0000 0.0000 29.4327
#
#
#
# Elastic Compliance Matrix: (Units=1/GPa)
#
#
# Indices 1 2 3 4 5 6 
#
# 1 0.012188 -0.004800 -0.003097 0.000000 0.000000 0.000000
# 2 -0.004800 0.012188 -0.003097 0.000000 0.000000 0.000000
# 3 -0.003097 -0.003097 0.024338 0.000000 0.000000 0.000000
# 4 0.000000 0.000000 0.000000 0.049157 0.000000 0.000000
# 5 0.000000 0.000000 0.000000 0.000000 0.049157 0.000000
# 6 0.000000 0.000000 0.000000 0.000000 0.000000 0.033976
#
#
# Mechanical properties :
#
#
# Convention : Reuss Voigt Hill
#
# Bulk Modulus (GPa) = 37.41549 47.34962 42.38255
# Shear Modulus (GPa) = 23.59612 25.45663 24.52637
#
# Velocity S-wave (km/s) = 3.78591 3.93233 3.85982
# Velocity P-wave (km/s) = 6.46825 7.02706 6.75344
#
# Compressibility (1/GPa) = 0.02672690
#
# Stress axis : x y z
#
# Youngs Moduli (GPa) = 82.04842 82.04870 41.08753
#
# Poissons Ratio (x) = 0.39383 0.12724
# Poissons Ratio (y) = 0.39383 0.12724
# Poissons Ratio (z) = 0.25409 0.25409
#
# Static dielectric constant tensor:
#      x y z
#    x 3.128350 0.000000 0.000000 
#    y 0.000000 3.128350 0.000000 
#    z 0.000000 0.000000 3.093680 
# 
# 
# High freq. dielectric constant tensor:
#      x y z
#    x 1.615190 0.000000 0.000000 
#    y 0.000000 1.615190 0.000000 
#    z 0.000000 0.000000 1.634380 
# 
# From -- ./inp_files/3285.got.cif
#   From: 2010.06.25/outbox.cif.g09.slc.cpg/sg176_2_cif.got.tgz:3285.got - 2010.06.28 12:15:01.
