data_PCOD8325376
_publ_section_title
;
Structure prediction by ZEFSAII (Michael W. Deem and Ramdas Pophale) SiO2 
 PCOD8325376
Probable space group: P 6/M
;
_chemical_formula_sum "Si O2"
_cell_formula_units_Z 60
_cell_length_a 22.826379
_cell_length_b 22.826379
_cell_length_c 7.393475
_cell_angle_alpha 90.000000
_cell_angle_beta 90.000000
_cell_angle_gamma 120.000000
_cell_volume 3336.209296
_symmetry_space_group_name_H-M "P 6/M"
_symmetry_group_IT_number 175
_symmetry_cell_setting 'hexagonal'
loop_
_space_group_symop_operation_xyz
x,y,z
x-y,x,z
-y,x-y,z
-x,-y,z
-x+y,-x,z
y,-x+y,z
-x,-y,-z
-x+y,-x,-z
y,-x+y,-z
x,y,-z
x-y,x,-z
-y,x-y,-z
loop_
_atom_site_type_symbol
_atom_site_label
_atom_site_fract_x
_atom_site_fract_y
_atom_site_fract_z
Si Si1 0.274374 0.073910 0.785250
Si Si2 0.147482 0.428560 0.789422
Si Si3 0.852518 0.281078 0.789422
Si Si4 0.470069 0.391459 0.500000
Si Si5 0.529931 0.921390 0.500000
Si Si6 0.725626 0.799536 0.214750
O O1 0.351222 0.102529 0.725312
O O2 0.248771 0.124386 0.714246
O O3 0.227285 0.000000 0.699167
O O4 0.271071 0.070679 0.000000
O O5 0.226674 0.453347 0.751067
O O6 0.119860 0.469341 0.676206
O O7 0.102529 0.351222 0.725312
O O8 0.136861 0.437526 0.000000
O O9 0.880140 0.349482 0.676206
O O10 0.863139 0.300665 0.000000
O O11 0.540746 0.459254 0.500000
O O12 0.409608 0.409608 0.500000
O O13 0.728929 0.799608 0.000000
#
# Coordination Sequence:
#
# PCOD8325376 Si02
#       6
#    12  12  12   6   6  12
#     4   8  13  22  39  63  89 119 156 197 238 276
#     4   9  18  34  55  74  94 127 171 215 252 286
#     4   9  18  34  55  74  94 127 171 215 252 286
#     4  11  23  34  48  76 110 139 161 189 246 320
#     4  11  23  34  48  76 110 139 161 189 246 320
#     4   8  13  22  39  63  89 119 156 197 238 276
#
# _framework density 17.984482
#
# number of rings (size 3 to 8) (size 9 to 14) (size 15 to 20)
#    0.000    3.000    0.000    4.200    0.000    3.200 
#    0.000    2.000    0.000    3.600    0.000    2.800 
#    0.000    0.000    0.000    0.000    0.000   41.600 
#
# Total GULP energy -743514.971439 kJ/mol
# GULP energy per Si atom -12391.916191 kJ/mol
# Density = 1.794355 g / cm^3
# Si number density = 17.984482 Si / 1000 Ang^3
#
#
#
# Elastic Constant Matrix: (Units=GPa)
#
#
# Indices 1 2 3 4 5 6 
#
# 1 102.2408 47.3970 37.8218 0.0000 0.0000 0.0000
# 2 47.3970 102.2408 37.8218 0.0000 0.0000 0.0000
# 3 37.8218 37.8218 80.1268 0.0000 0.0000 0.0000
# 4 0.0000 0.0000 0.0000 17.0795 0.0000 0.0000
# 5 0.0000 0.0000 0.0000 0.0000 17.0795 0.0000
# 6 0.0000 0.0000 0.0000 0.0000 0.0000 27.4219
#
#
#
# Elastic Compliance Matrix: (Units=1/GPa)
#
#
# Indices 1 2 3 4 5 6 
#
# 1 0.013505 -0.004728 -0.004143 0.000000 0.000000 0.000000
# 2 -0.004728 0.013505 -0.004143 0.000000 0.000000 0.000000
# 3 -0.004143 -0.004143 0.016391 0.000000 0.000000 0.000000
# 4 0.000000 0.000000 0.000000 0.058550 0.000000 0.000000
# 5 0.000000 0.000000 0.000000 0.000000 0.058550 0.000000
# 6 0.000000 0.000000 0.000000 0.000000 0.000000 0.036467
#
#
# Mechanical properties :
#
#
# Convention : Reuss Voigt Hill
#
# Bulk Modulus (GPa) = 57.55851 58.96551 58.26201
# Shear Modulus (GPa) = 21.85424 23.08737 22.47081
#
# Velocity S-wave (km/s) = 3.48971 3.58682 3.53860
# Velocity P-wave (km/s) = 6.95065 7.07190 7.01153
#
# Compressibility (1/GPa) = 0.01737363
#
# Stress axis : x y z
#
# Youngs Moduli (GPa) = 74.04462 74.04462 61.00740
#
# Poissons Ratio (x) = 0.35010 0.25276
# Poissons Ratio (y) = 0.35010 0.25276
# Poissons Ratio (z) = 0.30677 0.30677
#
# Static dielectric constant tensor:
#      x y z
#    x 3.404420 0.000000 0.000000 
#    y 0.000000 3.404420 0.000000 
#    z 0.000000 0.000000 3.118260 
# 
# 
# High freq. dielectric constant tensor:
#      x y z
#    x 1.680220 0.000000 0.000000 
#    y 0.000000 1.680220 0.000000 
#    z 0.000000 0.000000 1.694650 
# 
# From -- ./inp_files/934.got.cif
#   From: 2010.03.12/outbox.cif.g09.slc.cpg/sg175_1_cif.got.tgz:934.got - 2010.04.02 06:55:29.
