data_PCOD8325334
_publ_section_title
;
Structure prediction by ZEFSAII (Michael W. Deem and Ramdas Pophale) SiO2 
 PCOD8325334
Probable space group: P 6/M
;
_chemical_formula_sum "Si O2"
_cell_formula_units_Z 66
_cell_length_a 19.344744
_cell_length_b 19.344744
_cell_length_c 9.816999
_cell_angle_alpha 90.000000
_cell_angle_beta 90.000000
_cell_angle_gamma 120.000000
_cell_volume 3181.525087
_symmetry_space_group_name_H-M "P 6/M"
_symmetry_group_IT_number 175
_symmetry_cell_setting 'hexagonal'
loop_
_space_group_symop_operation_xyz
x,y,z
x-y,x,z
-y,x-y,z
-x,-y,z
-x+y,-x,z
y,-x+y,z
-x,-y,-z
-x+y,-x,-z
y,-x+y,-z
x,y,-z
x-y,x,-z
-y,x-y,-z
loop_
_atom_site_type_symbol
_atom_site_label
_atom_site_fract_x
_atom_site_fract_y
_atom_site_fract_z
Si Si1 0.175251 0.350300 0.158602
Si Si2 0.310270 0.934079 0.652032
Si Si3 0.886118 0.312526 0.351140
Si Si4 0.392244 0.620404 0.000000
Si Si5 0.938564 0.112199 0.841075
Si Si6 0.534071 0.444127 0.223874
O O1 0.097433 0.341155 0.231477
O O2 0.252890 0.420945 0.231947
O O3 0.173696 0.267117 0.180300
O O4 0.175271 0.371633 0.000000
O O5 0.276454 0.901425 0.500000
O O6 0.373695 0.907313 0.689523
O O7 0.347560 0.028326 0.654469
O O8 0.847181 0.280165 0.500000
O O9 0.895223 0.398204 0.331196
O O10 0.423205 0.717016 0.000000
O O11 0.427748 0.593998 0.124502
O O12 0.025942 0.147987 0.773813
O O13 0.943061 0.098570 0.000000
O O14 0.500000 0.500000 0.156276
#
# Coordination Sequence:
#
# PCOD8325334 Si02
#       6
#    12  12  12   6  12  12
#     4  11  23  35  56  87 127 157 194 249 313 369
#     4  10  22  40  62  87 116 156 205 255 305 363
#     4  10  22  40  62  87 116 156 205 255 305 363
#     4  10  25  40  60  92 136 164 194 250 316 362
#     4   9  17  31  51  78 113 154 196 238 287 347
#     4  10  22  40  65  89 117 161 210 253 299 366
#
# _framework density 20.744768000000001
#
# number of rings (size 3 to 8) (size 9 to 14) (size 15 to 20)
#    0.182    1.818    0.000    2.636    5.091    5.091 
#    0.000    0.000    0.000    0.000    0.000    0.000 
#    0.000    8.727    0.000    0.000    0.000    0.000 
#
# Total GULP energy -817755.457930 kJ/mol
# GULP energy per Si atom -12390.234211 kJ/mol
# Density = 2.069755 g / cm^3
# Si number density = 20.744768 Si / 1000 Ang^3
#
#
#
# Elastic Constant Matrix: (Units=GPa)
#
#
# Indices 1 2 3 4 5 6 
#
# 1 68.3851 0.7705 32.5056 0.0000 0.0000 0.0000
# 2 0.7705 68.3851 32.5056 0.0000 0.0000 0.0000
# 3 32.5056 32.5056 138.7874 0.0000 0.0000 0.0000
# 4 0.0000 0.0000 0.0000 23.9391 0.0000 0.0000
# 5 0.0000 0.0000 0.0000 0.0000 23.9391 0.0000
# 6 0.0000 0.0000 0.0000 0.0000 0.0000 33.8073
#
#
#
# Elastic Compliance Matrix: (Units=1/GPa)
#
#
# Indices 1 2 3 4 5 6 
#
# 1 0.016666 0.001877 -0.004343 0.000000 0.000000 0.000000
# 2 0.001877 0.016666 -0.004343 0.000000 0.000000 0.000000
# 3 -0.004343 -0.004343 0.009240 0.000000 0.000000 0.000000
# 4 0.000000 0.000000 0.000000 0.041773 0.000000 0.000000
# 5 0.000000 0.000000 0.000000 0.000000 0.041773 0.000000
# 6 0.000000 0.000000 0.000000 0.000000 0.000000 0.029579
#
#
# Mechanical properties :
#
#
# Convention : Reuss Voigt Hill
#
# Bulk Modulus (GPa) = 34.53819 45.23566 39.88693
# Shear Modulus (GPa) = 27.93818 30.32217 29.13018
#
# Velocity S-wave (km/s) = 3.67380 3.82734 3.75136
# Velocity P-wave (km/s) = 5.88906 6.43308 6.16707
#
# Compressibility (1/GPa) = 0.02895345
#
# Stress axis : x y z
#
# Youngs Moduli (GPa) = 60.00149 60.00149 108.22991
#
# Poissons Ratio (x) = -0.11260 0.47003
# Poissons Ratio (y) = -0.11260 0.47003
# Poissons Ratio (z) = 0.26058 0.26058
#
# Static dielectric constant tensor:
#      x y z
#    x 3.796820 0.000000 0.000000 
#    y 0.000000 3.796820 0.000000 
#    z 0.000000 0.000000 3.612500 
# 
# 
# High freq. dielectric constant tensor:
#      x y z
#    x 1.814750 0.000000 0.000000 
#    y 0.000000 1.814750 0.000000 
#    z 0.000000 0.000000 1.790660 
# 
# From -- ./inp_files/970.got.cif
#   From: 2010.03.12/outbox.cif.g09.slc.cpg/sg175_1_cif.got.tgz:970.got - 2010.04.02 06:55:29.
