data_PCOD8325362
_publ_section_title
;
Structure prediction by ZEFSAII (Michael W. Deem and Ramdas Pophale) SiO2 
 PCOD8325362
Probable space group: P 6/M
;
_chemical_formula_sum "Si O2"
_cell_formula_units_Z 78
_cell_length_a 22.404810
_cell_length_b 22.404810
_cell_length_c 10.142984
_cell_angle_alpha 90.000000
_cell_angle_beta 90.000000
_cell_angle_gamma 120.000000
_cell_volume 4409.393959
_symmetry_space_group_name_H-M "P 6/M"
_symmetry_group_IT_number 175
_symmetry_cell_setting 'hexagonal'
loop_
_space_group_symop_operation_xyz
x,y,z
x-y,x,z
-y,x-y,z
-x,-y,z
-x+y,-x,z
y,-x+y,z
-x,-y,-z
-x+y,-x,-z
y,-x+y,-z
x,y,-z
x-y,x,-z
-y,x-y,-z
loop_
_atom_site_type_symbol
_atom_site_label
_atom_site_fract_x
_atom_site_fract_y
_atom_site_fract_z
Si Si1 0.663175 0.464719 0.655622
Si Si2 0.529921 0.330507 0.342443
Si Si3 0.034292 0.156040 0.500000
Si Si4 0.794223 0.716058 0.853754
Si Si5 0.310674 0.388446 0.653354
Si Si6 0.250800 0.185423 0.752182
Si Si7 0.691994 0.078689 0.653151
O O1 0.662957 0.456932 0.500000
O O2 0.732345 0.468862 0.712203
O O3 0.596227 0.398439 0.715335
O O4 0.659770 0.532590 0.694383
O O5 0.530975 0.332072 0.500000
O O6 0.461567 0.329323 0.287516
O O7 0.089549 0.130795 0.500000
O O8 0.042525 0.202472 0.625103
O O9 0.755854 0.658782 0.741407
O O10 0.774535 0.775367 0.848195
O O11 0.875649 0.753486 0.831362
O O12 0.775531 0.682683 0.000000
O O13 0.287079 0.375255 0.500000
O O14 0.370160 0.369423 0.680385
O O15 0.330176 0.236777 0.715984
O O16 0.706057 0.093113 0.500000
#
# Coordination Sequence:
#
# PCOD8325362 Si02
#       7
#    12  12   6  12  12  12  12
#     4   9  16  27  42  68 102 140 174 210 266 327
#     4   9  16  25  40  65 103 139 170 210 263 323
#     4  12  23  38  58  86 108 143 181 225 263 317
#     4  11  23  37  53  76 105 137 174 219 268 318
#     4   9  19  32  51  75 101 133 173 217 266 321
#     4  11  21  34  56  76 105 136 177 216 266 317
#     4   9  17  28  46  75 102 130 169 215 266 315
#
# _framework density 17.689506000000002
#
# number of rings (size 3 to 8) (size 9 to 14) (size 15 to 20)
#    0.000    2.154    2.308    1.769    2.154    3.077 
#    0.000    3.077    0.000    0.000    0.000   15.077 
#    0.000    0.000    0.000    0.000    0.000    0.000 
#
# Total GULP energy -967116.751321 kJ/mol
# GULP energy per Si atom -12398.932709 kJ/mol
# Density = 1.764924 g / cm^3
# Si number density = 17.689506 Si / 1000 Ang^3
#
#
#
# Elastic Constant Matrix: (Units=GPa)
#
#
# Indices 1 2 3 4 5 6 
#
# 1 115.4870 57.9818 19.0902 0.0000 0.0000 0.0000
# 2 57.9818 115.4870 19.0902 0.0000 0.0000 0.0000
# 3 19.0902 19.0902 51.4299 0.0000 0.0000 0.0000
# 4 0.0000 0.0000 0.0000 -0.3693 0.0000 0.0000
# 5 0.0000 0.0000 0.0000 0.0000 -0.3693 0.0000
# 6 0.0000 0.0000 0.0000 0.0000 0.0000 28.7526
#
#
#
# Elastic Compliance Matrix: (Units=1/GPa)
#
#
# Indices 1 2 3 4 5 6 
#
# 1 0.011834 -0.005556 -0.002330 0.000000 0.000000 0.000000
# 2 -0.005556 0.011834 -0.002330 0.000000 0.000000 0.000000
# 3 -0.002330 -0.002330 0.021174 0.000000 0.000000 0.000000
# 4 0.000000 0.000000 0.000000 -2.707549 0.000000 0.000000
# 5 0.000000 0.000000 0.000000 0.000000 -2.707549 0.000000
# 6 0.000000 0.000000 0.000000 0.000000 0.000000 0.034779
#
#
# Mechanical properties :
#
#
# Convention : Reuss Voigt Hill
#
# Bulk Modulus (GPa) = 40.96964 52.74759 46.85862
# Shear Modulus (GPa) = -0.94217 18.01891 8.53837
#
# Velocity S-wave (km/s) = -0.73060 3.19505 2.19938
# Velocity P-wave (km/s) = 4.74331 6.59503 5.74428
#
# Compressibility (1/GPa) = 0.02440832
#
# Stress axis : x y z
#
# Youngs Moduli (GPa) = 84.50472 84.50472 47.22817
#
# Poissons Ratio (x) = 0.46951 0.11005
# Poissons Ratio (y) = 0.46951 0.11005
# Poissons Ratio (z) = 0.19691 0.19691
#
# Static dielectric constant tensor:
#      x y z
#    x 3.458280 0.000000 0.000000 
#    y 0.000000 3.458280 0.000000 
#    z 0.000000 0.000000 2.822620 
# 
# 
# High freq. dielectric constant tensor:
#      x y z
#    x 1.693950 0.000000 0.000000 
#    y 0.000000 1.693950 0.000000 
#    z 0.000000 0.000000 1.629840 
# 
# From -- ./inp_files/1371.got.cif
#   From: 2010.03.12/outbox.cif.g09.slc.cpg/sg175_1_cif.got.tgz:1371.got - 2010.04.02 06:55:29.
