data_PCOD8325277
_publ_section_title
;
Structure prediction by ZEFSAII (Michael W. Deem and Ramdas Pophale) SiO2 
 PCOD8325277
Probable space group: P 6/M
;
_chemical_formula_sum "Si O2"
_cell_formula_units_Z 54
_cell_length_a 16.477678
_cell_length_b 16.477678
_cell_length_c 12.099347
_cell_angle_alpha 90.000000
_cell_angle_beta 90.000000
_cell_angle_gamma 120.000000
_cell_volume 2845.015176
_symmetry_space_group_name_H-M "P 6/M"
_symmetry_group_IT_number 175
_symmetry_cell_setting 'hexagonal'
loop_
_space_group_symop_operation_xyz
x,y,z
x-y,x,z
-y,x-y,z
-x,-y,z
-x+y,-x,z
y,-x+y,z
-x,-y,-z
-x+y,-x,-z
y,-x+y,-z
x,y,-z
x-y,x,-z
-y,x-y,-z
loop_
_atom_site_type_symbol
_atom_site_label
_atom_site_fract_x
_atom_site_fract_y
_atom_site_fract_z
Si Si1 0.348237 0.433099 0.877603
Si Si2 0.212044 0.129691 0.631107
Si Si3 0.365768 0.869753 0.877538
Si Si4 0.789177 0.584238 0.292854
Si Si5 0.709501 0.453160 0.500000
O O1 0.420580 0.397675 0.862572
O O2 0.400639 0.545514 0.863727
O O3 0.272735 0.385747 0.780833
O O4 0.301950 0.405168 0.000000
O O5 0.147275 0.170766 0.675915
O O6 0.211380 0.128561 0.500000
O O7 0.318720 0.198046 0.670292
O O8 0.293065 0.812480 0.783002
O O9 0.321482 0.835114 0.000000
O O10 0.731291 0.520485 0.395586
O O11 0.599124 0.371039 0.500000
#
# Coordination Sequence:
#
# PCOD8325277 Si02
#       5
#    12  12  12  12   6
#     4   9  19  35  54  79 110 142 181 233 283 323
#     4  10  21  37  57  82 111 143 184 235 284 332
#     4   9  19  35  54  79 110 142 181 233 283 323
#     4  12  19  35  57  82 107 150 192 225 269 338
#     4  10  24  38  48  74 118 154 180 224 272 322
#
# _framework density 18.980568000000002
#
# number of rings (size 3 to 8) (size 9 to 14) (size 15 to 20)
#    0.222    1.778    1.111    4.889    0.000    0.889 
#    1.333    0.000    0.000    5.333    0.000    0.000 
#    0.000   10.667    0.000    0.000    0.000    0.000 
#
# Total GULP energy -669372.810876 kJ/mol
# GULP energy per Si atom -12395.792794 kJ/mol
# Density = 1.893737 g / cm^3
# Si number density = 18.980568 Si / 1000 Ang^3
#
#
#
# Elastic Constant Matrix: (Units=GPa)
#
#
# Indices 1 2 3 4 5 6 
#
# 1 51.0129 -1.4950 20.1404 0.0000 0.0000 0.0000
# 2 -1.4950 51.0129 20.1404 0.0000 0.0000 0.0000
# 3 20.1404 20.1404 101.0074 0.0000 0.0000 0.0000
# 4 0.0000 0.0000 0.0000 10.9700 0.0000 0.0000
# 5 0.0000 0.0000 0.0000 0.0000 10.9700 0.0000
# 6 0.0000 0.0000 0.0000 0.0000 0.0000 26.2540
#
#
#
# Elastic Compliance Matrix: (Units=1/GPa)
#
#
# Indices 1 2 3 4 5 6 
#
# 1 0.021575 0.002530 -0.004806 0.000000 0.000000 0.000000
# 2 0.002530 0.021575 -0.004806 0.000000 0.000000 0.000000
# 3 -0.004806 -0.004806 0.011817 0.000000 0.000000 0.000000
# 4 0.000000 0.000000 0.000000 0.091158 0.000000 0.000000
# 5 0.000000 0.000000 0.000000 0.000000 0.091158 0.000000
# 6 0.000000 0.000000 0.000000 0.000000 0.000000 0.038089
#
#
# Mechanical properties :
#
#
# Convention : Reuss Voigt Hill
#
# Bulk Modulus (GPa) = 24.50942 31.17831 27.84386
# Shear Modulus (GPa) = 16.49420 20.58863 18.54142
#
# Velocity S-wave (km/s) = 2.95109 3.29708 3.12887
# Velocity P-wave (km/s) = 4.95508 5.56385 5.26827
#
# Compressibility (1/GPa) = 0.04080064
#
# Stress axis : x y z
#
# Youngs Moduli (GPa) = 46.35081 46.35081 84.62409
#
# Poissons Ratio (x) = -0.11726 0.40673
# Poissons Ratio (y) = -0.11726 0.40673
# Poissons Ratio (z) = 0.22278 0.22278
#
# Static dielectric constant tensor:
#      x y z
#    x 3.516220 0.000000 0.000000 
#    y 0.000000 3.516220 0.000000 
#    z 0.000000 0.000000 3.558460 
# 
# 
# High freq. dielectric constant tensor:
#      x y z
#    x 1.731800 0.000000 0.000000 
#    y 0.000000 1.731800 0.000000 
#    z 0.000000 0.000000 1.737530 
# 
# From -- ./inp_files/1751.got.cif
#   From: 2010.03.12/outbox.cif.g09.slc.cpg/sg175_1_cif.got.tgz:1751.got - 2010.04.02 06:55:29.
