data_PCOD8325771
_publ_section_title
;
Structure prediction by ZEFSAII (Michael W. Deem and Ramdas Pophale) SiO2 
 PCOD8325771
Probable space group: P 61 2 2
;
_chemical_formula_sum "Si O2"
_cell_formula_units_Z 54
_cell_length_a 10.230217
_cell_length_b 10.230217
_cell_length_c 30.965935
_cell_angle_alpha 90.000000
_cell_angle_beta 90.000000
_cell_angle_gamma 120.000000
_cell_volume 2806.625853
_symmetry_space_group_name_H-M "P 61 2 2"
_symmetry_group_IT_number 178
_symmetry_cell_setting 'hexagonal'
loop_
_space_group_symop_operation_xyz
x,y,z
x-y,x,1/6+z
-y,x-y,1/3+z
-x,-y,1/2+z
-x+y,-x,2/3+z
y,-x+y,5/6+z
x-y,-y,-z
-x,-x+y,2/3-z
y,x,1/3-z
-y,-x,5/6-z
-x+y,y,1/2-z
x,x-y,1/6-z
loop_
_atom_site_type_symbol
_atom_site_label
_atom_site_fract_x
_atom_site_fract_y
_atom_site_fract_z
Si Si1 0.797879 0.617190 0.984957
Si Si2 0.265787 0.097571 0.940715
Si Si3 0.211146 0.422292 0.250000
Si Si4 0.892101 0.871296 0.296192
Si Si5 0.895315 0.367466 0.500355
O O1 0.845300 0.715604 0.941670
O O2 0.630462 0.479145 0.977346
O O3 0.783985 0.717731 0.022751
O O4 0.923234 0.568215 0.996477
O O5 0.101647 0.055415 0.957031
O O6 0.397859 0.218582 0.970589
O O7 0.267152 0.942580 0.943450
O O8 0.335128 0.518043 0.286214
O O9 0.900214 0.800428 0.250000
O O10 0.000000 0.861511 0.333334
#
# Coordination Sequence:
#
# PCOD8325771 Si02
#       5
#    12  12   6  12  12
#     4  10  21  36  55  82 115 149 191 238 293 357
#     4  10  17  33  60  82 108 142 192 247 286 337
#     4  10  18  34  56  84 112 138 194 242 286 340
#     4  11  18  33  57  85 113 139 192 246 291 331
#     4  10  21  36  55  84 114 152 192 240 292 356
#
# _framework density 19.240186000000001
#
# number of rings (size 3 to 8) (size 9 to 14) (size 15 to 20)
#    0.000    1.778    3.333    4.000    0.000    0.000 
#    8.000    4.444    0.000    0.000    0.000    0.000 
#    0.000    0.000    0.000    0.000    0.000    0.000 
#
# Total GULP energy -669376.591173 kJ/mol
# GULP energy per Si atom -12395.862800 kJ/mol
# Density = 1.919639 g / cm^3
# Si number density = 19.240186 Si / 1000 Ang^3
#
#
#
# Elastic Constant Matrix: (Units=GPa)
#
#
# Indices 1 2 3 4 5 6 
#
# 1 63.2555 22.8035 23.0262 0.0000 0.0000 0.0000
# 2 22.8035 63.2555 23.0262 0.0000 0.0000 0.0000
# 3 23.0262 23.0262 92.5600 0.0000 0.0000 0.0000
# 4 0.0000 0.0000 0.0000 17.6523 0.0000 0.0000
# 5 0.0000 0.0000 0.0000 0.0000 17.6523 0.0000
# 6 0.0000 0.0000 0.0000 0.0000 0.0000 20.2260
#
#
#
# Elastic Compliance Matrix: (Units=1/GPa)
#
#
# Indices 1 2 3 4 5 6 
#
# 1 0.019063 -0.005658 -0.003335 0.000000 0.000000 0.000000
# 2 -0.005658 0.019063 -0.003335 0.000000 0.000000 0.000000
# 3 -0.003335 -0.003335 0.012463 0.000000 0.000000 0.000000
# 4 0.000000 0.000000 0.000000 0.056650 0.000000 0.000000
# 5 0.000000 0.000000 0.000000 0.000000 0.056650 0.000000
# 6 0.000000 0.000000 0.000000 0.000000 0.000000 0.049441
#
#
# Mechanical properties :
#
#
# Convention : Reuss Voigt Hill
#
# Bulk Modulus (GPa) = 38.56062 39.64255 39.10158
# Shear Modulus (GPa) = 20.27343 21.12045 20.69694
#
# Velocity S-wave (km/s) = 3.24960 3.31679 3.28337
# Velocity P-wave (km/s) = 5.84509 5.94280 5.89415
#
# Compressibility (1/GPa) = 0.02593319
#
# Stress axis : x y z
#
# Youngs Moduli (GPa) = 52.45901 52.45901 80.23812
#
# Poissons Ratio (x) = 0.29682 0.26756
# Poissons Ratio (y) = 0.29682 0.26756
# Poissons Ratio (z) = 0.17493 0.17493
#
# Static dielectric constant tensor:
#      x y z
#    x 3.272180 0.000000 0.000000 
#    y 0.000000 3.272180 0.000000 
#    z 0.000000 0.000000 3.998680 
# 
# 
# High freq. dielectric constant tensor:
#      x y z
#    x 1.719410 0.000000 0.000000 
#    y 0.000000 1.719410 0.000000 
#    z 0.000000 0.000000 1.773680 
# 
# From -- ./inp_files/9394.got.cif
#   From: 2010.03.12/outbox.cif.g09.slc.cpg/sg178_5_cif.got.tgz:9394.got - 2010.04.02 07:02:38.
