data_PCOD8325312
_publ_section_title
;
Structure prediction by ZEFSAII (Michael W. Deem and Ramdas Pophale) SiO2 
 PCOD8325312
Probable space group: P 6/M
;
_chemical_formula_sum "Si O2"
_cell_formula_units_Z 22
_cell_length_a 13.000242
_cell_length_b 13.000242
_cell_length_c 7.382244
_cell_angle_alpha 90.000000
_cell_angle_beta 90.000000
_cell_angle_gamma 120.000000
_cell_volume 1080.492859
_symmetry_space_group_name_H-M "P 6/M"
_symmetry_group_IT_number 175
_symmetry_cell_setting 'hexagonal'
loop_
_space_group_symop_operation_xyz
x,y,z
x-y,x,z
-y,x-y,z
-x,-y,z
-x+y,-x,z
y,-x+y,z
-x,-y,-z
-x+y,-x,-z
y,-x+y,-z
x,y,-z
x-y,x,-z
-y,x-y,-z
loop_
_atom_site_type_symbol
_atom_site_label
_atom_site_fract_x
_atom_site_fract_y
_atom_site_fract_z
Si Si1 0.333335 0.666667 0.285219
Si Si2 0.036731 0.778172 0.000000
Si Si3 0.362139 0.450688 0.290012
O O1 0.333334 0.666668 0.500000
O O2 0.331739 0.549063 0.214596
O O3 0.044005 0.713335 0.180094
O O4 0.913202 0.774653 0.000000
O O5 0.500000 0.500000 0.257746
O O6 0.327639 0.421240 0.500000
#
# Coordination Sequence:
#
# PCOD8325312 Si02
#       3
#     4   6  12
#     4   9  18  34  59  91 121 149 190 244 299 358
#     4  12  26  42  60  84 117 160 206 248 290 342
#     4  10  21  39  63  91 122 154 191 240 298 357
#
# _framework density 20.361080000000001
#
# number of rings (size 3 to 8) (size 9 to 14) (size 15 to 20)
#    0.000    1.636    0.000    4.364    0.000    8.727 
#    0.000    0.000    0.000    3.273    0.000    0.000 
#    0.000    0.000    0.000    0.000    0.000    0.000 
#
# Total GULP energy -272901.884165 kJ/mol
# GULP energy per Si atom -12404.631098 kJ/mol
# Density = 2.031474 g / cm^3
# Si number density = 20.361080 Si / 1000 Ang^3
#
#
#
# Elastic Constant Matrix: (Units=GPa)
#
#
# Indices 1 2 3 4 5 6 
#
# 1 147.1673 64.2381 69.4998 0.0000 0.0000 0.0003
# 2 64.2381 147.1683 69.5003 0.0000 0.0000 0.0012
# 3 69.4998 69.5003 107.9596 0.0000 0.0000 -0.0003
# 4 0.0000 0.0000 0.0000 115.6290 0.0012 0.0000
# 5 0.0000 0.0000 0.0000 0.0012 115.6258 0.0000
# 6 0.0003 0.0012 -0.0003 0.0000 0.0000 41.4657
#
#
#
# Elastic Compliance Matrix: (Units=1/GPa)
#
#
# Indices 1 2 3 4 5 6 
#
# 1 0.010130 -0.001928 -0.005280 0.000000 0.000000 0.000000
# 2 -0.001928 0.010130 -0.005280 0.000000 0.000000 0.000000
# 3 -0.005280 -0.005280 0.016061 0.000000 0.000000 0.000000
# 4 0.000000 0.000000 0.000000 0.008648 0.000000 0.000000
# 5 0.000000 0.000000 0.000000 0.000000 0.008649 0.000000
# 6 0.000000 0.000000 0.000000 0.000000 0.000000 0.024116
#
#
# Mechanical properties :
#
#
# Convention : Reuss Voigt Hill
#
# Bulk Modulus (GPa) = 88.14861 89.86351 89.00606
# Shear Modulus (GPa) = 46.95161 67.81456 57.38309
#
# Velocity S-wave (km/s) = 4.80724 5.77739 5.31450
# Velocity P-wave (km/s) = 8.61391 9.41993 9.02592
#
# Compressibility (1/GPa) = 0.01134448
#
# Stress axis : x y z
#
# Youngs Moduli (GPa) = 98.71505 98.71549 62.26308
#
# Poissons Ratio (x) = 0.19035 0.32875
# Poissons Ratio (y) = 0.19035 0.32875
# Poissons Ratio (z) = 0.52122 0.52122
#
# Static dielectric constant tensor:
#      x y z
#    x 3.823940 0.000000 0.000000 
#    y 0.000000 3.823900 0.000000 
#    z 0.000000 0.000000 3.681580 
# 
# 
# High freq. dielectric constant tensor:
#      x y z
#    x 1.802190 0.000000 0.000000 
#    y 0.000000 1.802190 0.000000 
#    z 0.000000 0.000000 1.800100 
# 
# From -- ./inp_files/221.got.cif
#   From: 2010.03.12/outbox.cif.g09.slc.cpg/sg175_1_cif.got.tgz:221.got - 2010.04.02 06:55:29.
