data_PCOD8325382
_publ_section_title
;
Structure prediction by ZEFSAII (Michael W. Deem and Ramdas Pophale) SiO2 
 PCOD8325382
Probable space group: P 6/M
;
_chemical_formula_sum "Si O2"
_cell_formula_units_Z 42
_cell_length_a 17.002052
_cell_length_b 17.002052
_cell_length_c 7.760156
_cell_angle_alpha 90.000000
_cell_angle_beta 90.000000
_cell_angle_gamma 120.000000
_cell_volume 1942.691159
_symmetry_space_group_name_H-M "P 6/M"
_symmetry_group_IT_number 175
_symmetry_cell_setting 'hexagonal'
loop_
_space_group_symop_operation_xyz
x,y,z
x-y,x,z
-y,x-y,z
-x,-y,z
-x+y,-x,z
y,-x+y,z
-x,-y,-z
-x+y,-x,-z
y,-x+y,-z
x,y,-z
x-y,x,-z
-y,x-y,-z
loop_
_atom_site_type_symbol
_atom_site_label
_atom_site_fract_x
_atom_site_fract_y
_atom_site_fract_z
Si Si1 0.498928 0.336456 0.698145
Si Si2 0.820506 0.809548 0.000000
Si Si3 0.510787 0.842363 0.805465
Si Si4 0.306878 0.305372 0.695561
O O1 0.512432 0.365497 0.500000
O O2 0.567511 0.424722 0.805612
O O3 0.520588 0.256248 0.728284
O O4 0.396571 0.303928 0.758037
O O5 0.920780 0.826052 0.000000
O O6 0.772833 0.755924 0.825900
O O7 0.592014 0.918399 0.693526
O O8 0.545586 0.849087 0.000000
O O9 0.279928 0.267222 0.500000
#
# Coordination Sequence:
#
# PCOD8325382 Si02
#       4
#    12   6  12  12
#     4  11  24  41  63  93 137 184 229 278 335 395
#     4  12  27  48  75 104 136 170 214 272 337 404
#     4  12  24  39  64  97 136 180 230 281 335 393
#     4  11  25  45  71 100 133 178 227 276 332 398
#
# _framework density 21.619494
#
# number of rings (size 3 to 8) (size 9 to 14) (size 15 to 20)
#    0.000    0.571    1.429    6.714    4.000    6.857 
#    0.000    0.000    0.000    1.714    0.000    0.000 
#    0.000    0.000    0.000    0.000    0.000    0.000 
#
# Total GULP energy -521163.368546 kJ/mol
# GULP energy per Si atom -12408.651632 kJ/mol
# Density = 2.157029 g / cm^3
# Si number density = 21.619494 Si / 1000 Ang^3
#
#
#
# Elastic Constant Matrix: (Units=GPa)
#
#
# Indices 1 2 3 4 5 6 
#
# 1 103.6332 19.4811 42.5682 0.0000 0.0000 0.0000
# 2 19.4811 103.6332 42.5682 0.0000 0.0000 0.0000
# 3 42.5682 42.5682 96.6414 0.0000 0.0000 0.0000
# 4 0.0000 0.0000 0.0000 28.2761 0.0000 0.0000
# 5 0.0000 0.0000 0.0000 0.0000 28.2761 0.0000
# 6 0.0000 0.0000 0.0000 0.0000 0.0000 42.0760
#
#
#
# Elastic Compliance Matrix: (Units=1/GPa)
#
#
# Indices 1 2 3 4 5 6 
#
# 1 0.011782 -0.000101 -0.005145 0.000000 0.000000 0.000000
# 2 -0.000101 0.011782 -0.005145 0.000000 0.000000 0.000000
# 3 -0.005145 -0.005145 0.014880 0.000000 0.000000 0.000000
# 4 0.000000 0.000000 0.000000 0.035366 0.000000 0.000000
# 5 0.000000 0.000000 0.000000 0.000000 0.035366 0.000000
# 6 0.000000 0.000000 0.000000 0.000000 0.000000 0.023767
#
#
# Mechanical properties :
#
#
# Convention : Reuss Voigt Hill
#
# Bulk Modulus (GPa) = 56.62190 57.01587 56.81888
# Shear Modulus (GPa) = 31.32623 33.01168 32.16896
#
# Velocity S-wave (km/s) = 3.81068 3.91185 3.86159
# Velocity P-wave (km/s) = 6.75342 6.84347 6.79860
#
# Compressibility (1/GPa) = 0.01766101
#
# Stress axis : x y z
#
# Youngs Moduli (GPa) = 84.87662 84.87662 67.20453
#
# Poissons Ratio (x) = 0.00861 0.34576
# Poissons Ratio (y) = 0.00861 0.34576
# Poissons Ratio (z) = 0.43668 0.43668
#
# Static dielectric constant tensor:
#      x y z
#    x 3.878190 0.000000 0.000000 
#    y 0.000000 3.878190 0.000000 
#    z 0.000000 0.000000 3.897290 
# 
# 
# High freq. dielectric constant tensor:
#      x y z
#    x 1.851270 0.000000 0.000000 
#    y 0.000000 1.851270 0.000000 
#    z 0.000000 0.000000 1.861980 
# 
# From -- ./inp_files/428.got.cif
#   From: 2010.03.12/outbox.cif.g09.slc.cpg/sg175_1_cif.got.tgz:428.got - 2010.04.02 06:55:29.
