data_PCOD8325876
_publ_section_title
;
Structure prediction by ZEFSAII (Michael W. Deem and Ramdas Pophale) SiO2 
 PCOD8325876
Probable space group: P 61 2 2
;
_chemical_formula_sum "Si O2"
_cell_formula_units_Z 54
_cell_length_a 13.776359
_cell_length_b 13.776359
_cell_length_c 16.666880
_cell_angle_alpha 90.000000
_cell_angle_beta 90.000000
_cell_angle_gamma 120.000000
_cell_volume 2739.389857
_symmetry_space_group_name_H-M "P 61 2 2"
_symmetry_group_IT_number 178
_symmetry_cell_setting 'hexagonal'
loop_
_space_group_symop_operation_xyz
x,y,z
x-y,x,1/6+z
-y,x-y,1/3+z
-x,-y,1/2+z
-x+y,-x,2/3+z
y,-x+y,5/6+z
x-y,-y,-z
-x,-x+y,2/3-z
y,x,1/3-z
-y,-x,5/6-z
-x+y,y,1/2-z
x,x-y,1/6-z
loop_
_atom_site_type_symbol
_atom_site_label
_atom_site_fract_x
_atom_site_fract_y
_atom_site_fract_z
Si Si1 0.829685 0.325891 0.480717
Si Si2 0.065895 0.934106 0.416667
Si Si3 0.052746 0.530749 0.673822
Si Si4 0.736871 0.227686 0.180242
Si Si5 0.682157 0.981949 0.907232
O O1 0.772744 0.227257 0.416667
O O2 0.762124 0.392104 0.489669
O O3 0.828195 0.271292 0.566499
O O4 0.954705 0.412411 0.448121
O O5 0.191138 0.980553 0.382796
O O6 0.000000 0.936691 0.333334
O O7 0.009255 0.504628 0.583334
O O8 0.167318 0.644271 0.681695
O O9 0.060406 0.422779 0.701924
O O10 0.753795 0.149124 0.116581
O O11 0.676515 0.000000 0.000000
#
# Coordination Sequence:
#
# PCOD8325876 Si02
#       5
#    12   6  12  12  12
#     4  10  21  39  55  88 126 159 199 251 309 375
#     4  10  24  44  74  92 128 168 228 292 332 394
#     4  11  22  38  61  87 128 163 199 257 310 380
#     4  10  22  38  61  87 126 159 205 258 308 378
#     4  10  23  40  64  96 124 165 217 264 321 392
#
# _framework density 19.712418
#
# number of rings (size 3 to 8) (size 9 to 14) (size 15 to 20)
#    0.000    1.778    4.444    0.667   12.444    1.778 
#    0.000    0.000    9.778    0.000    0.000    0.000 
#    0.000    0.000    0.000    0.000    0.000    0.000 
#
# Total GULP energy -669072.005086 kJ/mol
# GULP energy per Si atom -12390.222316 kJ/mol
# Density = 1.966755 g / cm^3
# Si number density = 19.712418 Si / 1000 Ang^3
#
#
#
# Elastic Constant Matrix: (Units=GPa)
#
#
# Indices 1 2 3 4 5 6 
#
# 1 97.2139 34.2614 33.4857 0.0000 0.0000 0.0000
# 2 34.2614 97.2139 33.4857 0.0000 0.0000 0.0000
# 3 33.4857 33.4857 114.9529 0.0000 0.0000 0.0000
# 4 0.0000 0.0000 0.0000 34.4807 0.0000 0.0000
# 5 0.0000 0.0000 0.0000 0.0000 34.4807 0.0000
# 6 0.0000 0.0000 0.0000 0.0000 0.0000 31.4762
#
#
#
# Elastic Compliance Matrix: (Units=1/GPa)
#
#
# Indices 1 2 3 4 5 6 
#
# 1 0.012408 -0.003477 -0.002602 0.000000 0.000000 0.000000
# 2 -0.003477 0.012408 -0.002602 0.000000 0.000000 0.000000
# 3 -0.002602 -0.002602 0.010215 0.000000 0.000000 0.000000
# 4 0.000000 0.000000 0.000000 0.029002 0.000000 0.000000
# 5 0.000000 0.000000 0.000000 0.000000 0.029002 0.000000
# 6 0.000000 0.000000 0.000000 0.000000 0.000000 0.031770
#
#
# Mechanical properties :
#
#
# Convention : Reuss Voigt Hill
#
# Bulk Modulus (GPa) = 56.59066 56.87182 56.73124
# Shear Modulus (GPa) = 33.77116 33.96405 33.86760
#
# Velocity S-wave (km/s) = 4.14356 4.15538 4.14948
# Velocity P-wave (km/s) = 7.18767 7.20668 7.19718
#
# Compressibility (1/GPa) = 0.01767076
#
# Stress axis : x y z
#
# Youngs Moduli (GPa) = 80.59240 80.59240 97.89584
#
# Poissons Ratio (x) = 0.28021 0.25469
# Poissons Ratio (y) = 0.28021 0.25469
# Poissons Ratio (z) = 0.20967 0.20967
#
# Static dielectric constant tensor:
#      x y z
#    x 3.668640 0.000000 0.000000 
#    y 0.000000 3.668640 0.000000 
#    z 0.000000 0.000000 3.763680 
# 
# 
# High freq. dielectric constant tensor:
#      x y z
#    x 1.760010 0.000000 0.000000 
#    y 0.000000 1.760010 0.000000 
#    z 0.000000 0.000000 1.773930 
# 
# From -- ./inp_files/5550.got.cif
#   From: 2010.03.12/outbox.cif.g09.slc.cpg/sg178_3_cif.got.tgz:5550.got - 2010.04.02 07:02:38.
