data_PCOD8325634
_publ_section_title
;
Structure prediction by ZEFSAII (Michael W. Deem and Ramdas Pophale) SiO2 
 PCOD8325634
Probable space group: P 63/M
;
_chemical_formula_sum "Si O2"
_cell_formula_units_Z 72
_cell_length_a 15.361871
_cell_length_b 15.361871
_cell_length_c 17.316449
_cell_angle_alpha 90.000000
_cell_angle_beta 90.000000
_cell_angle_gamma 120.000000
_cell_volume 3538.976653
_symmetry_space_group_name_H-M "P 63/M"
_symmetry_group_IT_number 176
_symmetry_cell_setting 'hexagonal'
loop_
_space_group_symop_operation_xyz
x,y,z
x-y,x,1/2+z
-y,x-y,z
-x,-y,1/2+z
-x+y,-x,z
y,-x+y,1/2+z
-x,-y,-z
-x+y,-x,1/2-z
y,-x+y,-z
x,y,1/2-z
x-y,x,-z
-y,x-y,1/2-z
loop_
_atom_site_type_symbol
_atom_site_label
_atom_site_fract_x
_atom_site_fract_y
_atom_site_fract_z
Si Si1 0.707670 0.457613 0.077200
Si Si2 0.330841 0.855038 0.338691
Si Si3 0.252731 0.271775 0.414373
Si Si4 0.734581 0.784760 0.084355
Si Si5 0.667336 0.847199 0.661528
Si Si6 0.167491 0.669455 0.409156
O O1 0.591568 0.370299 0.096065
O O2 0.743763 0.559291 0.124204
O O3 0.711484 0.478027 0.986255
O O4 0.359752 0.887873 0.250000
O O5 0.297344 0.926052 0.380606
O O6 0.240008 0.739915 0.340829
O O7 0.426151 0.870430 0.387075
O O8 0.264604 0.222244 0.492285
O O9 0.137086 0.238941 0.395331
O O10 0.300734 0.237446 0.346600
O O11 0.321271 0.390759 0.420294
O O12 0.814456 0.759084 0.121455
O O13 0.659024 0.869484 0.750000
#
# Coordination Sequence:
#
# PCOD8325634 Si02
#       6
#    12  12  12  12  12  12
#     4  10  21  41  69  97 135 180 227 265 318 400
#     4  11  22  35  58  95 137 172 209 268 335 387
#     4  11  24  43  71  93 123 172 229 270 333 402
#     4  11  23  44  69  92 124 170 222 276 329 407
#     4  12  26  45  67  99 136 169 218 288 342 388
#     4  11  20  38  65  94 131 175 225 264 316 397
#
# _framework density 20.344866
#
# number of rings (size 3 to 8) (size 9 to 14) (size 15 to 20)
#    0.333    0.667    5.000    2.333    0.000    6.667 
#    1.000    0.833    0.000    0.000    0.000    0.000 
#    0.000    0.000    0.000    0.000    0.000    0.000 
#
# Total GULP energy -892693.026390 kJ/mol
# GULP energy per Si atom -12398.514255 kJ/mol
# Density = 2.029856 g / cm^3
# Si number density = 20.344866 Si / 1000 Ang^3
#
#
#
# Elastic Constant Matrix: (Units=GPa)
#
#
# Indices 1 2 3 4 5 6 
#
# 1 89.6129 27.4706 24.1492 0.0000 0.0000 0.0000
# 2 27.4706 89.6129 24.1492 0.0000 0.0000 0.0000
# 3 24.1492 24.1492 100.1807 0.0000 0.0000 0.0000
# 4 0.0000 0.0000 0.0000 21.6742 0.0000 0.0000
# 5 0.0000 0.0000 0.0000 0.0000 21.6742 0.0000
# 6 0.0000 0.0000 0.0000 0.0000 0.0000 31.0712
#
#
#
# Elastic Compliance Matrix: (Units=1/GPa)
#
#
# Indices 1 2 3 4 5 6 
#
# 1 0.012788 -0.003304 -0.002286 0.000000 0.000000 0.000000
# 2 -0.003304 0.012788 -0.002286 0.000000 0.000000 0.000000
# 3 -0.002286 -0.002286 0.011084 0.000000 0.000000 0.000000
# 4 0.000000 0.000000 0.000000 0.046138 0.000000 0.000000
# 5 0.000000 0.000000 0.000000 0.000000 0.046138 0.000000
# 6 0.000000 0.000000 0.000000 0.000000 0.000000 0.032184
#
#
# Mechanical properties :
#
#
# Convention : Reuss Voigt Hill
#
# Bulk Modulus (GPa) = 47.82988 47.88272 47.85630
# Shear Modulus (GPa) = 27.19724 28.45973 27.82849
#
# Velocity S-wave (km/s) = 3.66021 3.74420 3.70244
# Velocity P-wave (km/s) = 6.43610 6.50220 6.46924
#
# Compressibility (1/GPa) = 0.02090743
#
# Stress axis : x y z
#
# Youngs Moduli (GPa) = 78.19806 78.19806 90.21892
#
# Poissons Ratio (x) = 0.25837 0.20626
# Poissons Ratio (y) = 0.25837 0.20626
# Poissons Ratio (z) = 0.17877 0.17877
#
# Static dielectric constant tensor:
#      x y z
#    x 3.669610 0.000000 0.000000 
#    y 0.000000 3.669610 0.000000 
#    z 0.000000 0.000000 3.517600 
# 
# 
# High freq. dielectric constant tensor:
#      x y z
#    x 1.795220 0.000000 0.000000 
#    y 0.000000 1.795220 0.000000 
#    z 0.000000 0.000000 1.788740 
# 
# From -- ./inp_files/3374.got.cif
#   From: 2010.06.25/outbox.cif.g09.slc.cpg/sg176_2_cif.got.tgz:3374.got - 2010.06.28 12:15:01.
