data_PCOD8325231
_publ_section_title
;
Structure prediction by ZEFSAII (Michael W. Deem and Ramdas Pophale) SiO2 
 PCOD8325231
Probable space group: P 6/M
;
_chemical_formula_sum "Si O2"
_cell_formula_units_Z 46
_cell_length_a 14.225874
_cell_length_b 14.225874
_cell_length_c 12.905306
_cell_angle_alpha 90.000000
_cell_angle_beta 90.000000
_cell_angle_gamma 120.000000
_cell_volume 2261.813823
_symmetry_space_group_name_H-M "P 6/M"
_symmetry_group_IT_number 175
_symmetry_cell_setting 'hexagonal'
loop_
_space_group_symop_operation_xyz
x,y,z
x-y,x,z
-y,x-y,z
-x,-y,z
-x+y,-x,z
y,-x+y,z
-x,-y,-z
-x+y,-x,-z
y,-x+y,-z
x,y,-z
x-y,x,-z
-y,x-y,-z
loop_
_atom_site_type_symbol
_atom_site_label
_atom_site_fract_x
_atom_site_fract_y
_atom_site_fract_z
Si Si1 0.562160 0.124276 0.748571
Si Si2 0.126469 0.873455 0.500000
Si Si3 0.126729 0.873187 0.881242
Si Si4 0.666667 0.333334 0.120140
Si Si5 0.795010 0.205041 0.692183
O O1 0.604212 0.208352 0.843731
O O2 0.665221 0.147242 0.678602
O O3 0.482111 0.147290 0.678586
O O4 0.500000 0.000000 0.789076
O O5 0.161213 0.838678 0.603347
O O6 0.999964 0.823047 0.500000
O O7 0.178497 0.821384 0.806580
O O8 0.999960 0.819579 0.857745
O O9 0.147701 0.852200 0.000000
O O10 0.666667 0.333334 0.000000
#
# Coordination Sequence:
#
# PCOD8325231 Si02
#       5
#    12   6  12   4  12
#     4  10  21  40  60  79 113 157 200 245 290 340
#     4  12  25  42  66  96 128 154 183 232 296 362
#     4  10  20  36  59  88 123 161 201 245 297 363
#     4   9  21  36  54  88 119 145 195 249 298 356
#     4  11  24  41  61  89 119 155 202 247 292 347
#
# _framework density 20.337658999999999
#
# number of rings (size 3 to 8) (size 9 to 14) (size 15 to 20)
#    0.000    1.565    0.000    5.609    0.000    6.783 
#    0.000    5.217    0.000    0.000    0.000    0.000 
#    0.000    0.000    0.000    0.000    0.000    0.000 
#
# Total GULP energy -570510.522752 kJ/mol
# GULP energy per Si atom -12402.402669 kJ/mol
# Density = 2.029137 g / cm^3
# Si number density = 20.337659 Si / 1000 Ang^3
#
#
#
# Elastic Constant Matrix: (Units=GPa)
#
#
# Indices 1 2 3 4 5 6 
#
# 1 177.7569 77.0552 63.2430 0.0000 0.0000 -0.0003
# 2 77.0552 177.7554 63.2431 0.0000 0.0000 -0.0001
# 3 63.2430 63.2431 111.5388 0.0000 0.0000 0.0000
# 4 0.0000 0.0000 0.0000 -34.2049 -0.0003 0.0000
# 5 0.0000 0.0000 0.0000 -0.0003 -34.2044 0.0000
# 6 -0.0003 -0.0001 0.0000 0.0000 0.0000 50.3510
#
#
#
# Elastic Compliance Matrix: (Units=1/GPa)
#
#
# Indices 1 2 3 4 5 6 
#
# 1 0.007696 -0.002234 -0.003097 0.000000 0.000000 0.000000
# 2 -0.002234 0.007696 -0.003097 0.000000 0.000000 0.000000
# 3 -0.003097 -0.003097 0.012477 0.000000 0.000000 0.000000
# 4 0.000000 0.000000 0.000000 -0.029236 0.000000 0.000000
# 5 0.000000 0.000000 0.000000 0.000000 -0.029236 0.000000
# 6 0.000000 0.000000 0.000000 0.000000 0.000000 0.019861
#
#
# Mechanical properties :
#
#
# Convention : Reuss Voigt Hill
#
# Bulk Modulus (GPa) = 90.79796 97.12596 93.96196
# Shear Modulus (GPa) = 510.95880 13.95565 262.45722
#
# Velocity S-wave (km/s) = 15.86768 2.62238 11.37234
# Velocity P-wave (km/s) = 19.50521 7.55179 14.78991
#
# Compressibility (1/GPa) = 0.01101346
#
# Stress axis : x y z
#
# Youngs Moduli (GPa) = 129.93759 129.93605 80.14546
#
# Poissons Ratio (x) = 0.29032 0.24819
# Poissons Ratio (y) = 0.29033 0.24820
# Poissons Ratio (z) = 0.40239 0.40239
#
# Static dielectric constant tensor:
#      x y z
#    x 3.945660 0.000000 0.000000 
#    y 0.000000 3.945680 0.000000 
#    z 0.000000 0.000000 3.465220 
# 
# 
# High freq. dielectric constant tensor:
#      x y z
#    x 1.815670 0.000000 0.000000 
#    y 0.000000 1.815670 0.000000 
#    z 0.000000 0.000000 1.771800 
# 
# From -- ./inp_files/1633.got.cif
#   From: 2010.03.12/outbox.cif.g09.slc.cpg/sg175_1_cif.got.tgz:1633.got - 2010.04.02 06:55:29.
