data_PCOD8325807
_publ_section_title
;
Structure prediction by ZEFSAII (Michael W. Deem and Ramdas Pophale) SiO2 
 PCOD8325807
Probable space group: P 61 2 2
;
_chemical_formula_sum "Si O2"
_cell_formula_units_Z 66
_cell_length_a 18.034995
_cell_length_b 18.034995
_cell_length_c 12.857402
_cell_angle_alpha 90.000000
_cell_angle_beta 90.000000
_cell_angle_gamma 120.000000
_cell_volume 3621.728636
_symmetry_space_group_name_H-M "P 61 2 2"
_symmetry_group_IT_number 178
_symmetry_cell_setting 'hexagonal'
loop_
_space_group_symop_operation_xyz
x,y,z
x-y,x,1/6+z
-y,x-y,1/3+z
-x,-y,1/2+z
-x+y,-x,2/3+z
y,-x+y,5/6+z
x-y,-y,-z
-x,-x+y,2/3-z
y,x,1/3-z
-y,-x,5/6-z
-x+y,y,1/2-z
x,x-y,1/6-z
loop_
_atom_site_type_symbol
_atom_site_label
_atom_site_fract_x
_atom_site_fract_y
_atom_site_fract_z
Si Si1 0.109550 0.627927 0.647496
Si Si2 0.792962 0.136324 0.806778
Si Si3 0.541603 0.541603 0.666667
Si Si4 0.702216 0.288828 0.163808
Si Si5 0.603906 0.501947 0.015658
Si Si6 0.036460 0.724613 0.220825
O O1 0.077071 0.538536 0.583334
O O2 0.128166 0.706558 0.573136
O O3 0.043238 0.612606 0.741348
O O4 0.200310 0.654291 0.701605
O O5 0.874780 0.184204 0.729391
O O6 0.771409 0.037733 0.826313
O O7 0.813261 0.186740 0.916667
O O8 0.453504 0.526096 0.618293
O O9 0.631751 0.263502 0.250000
O O10 0.679475 0.339738 0.083334
O O11 0.681871 0.196373 0.121757
O O12 0.651863 0.603935 0.993941
O O13 0.546997 0.453004 0.916667
O O14 0.000000 0.686336 0.333334
#
# Coordination Sequence:
#
# PCOD8325807 Si02
#       6
#    12  12   6  12  12  12
#     4  11  23  35  54  82 111 153 192 235 283 339
#     4  10  21  36  59  83 113 141 188 240 297 346
#     4  12  22  34  52  80 116 150 192 230 286 334
#     4  10  21  36  51  73 104 144 191 235 278 317
#     4  11  21  34  53  74 109 153 194 239 278 334
#     4  10  19  35  55  82 110 140 179 237 296 345
#
# _framework density 18.223341999999999
#
# number of rings (size 3 to 8) (size 9 to 14) (size 15 to 20)
#    0.000    1.455    2.727    3.818    2.545    2.909 
#    0.000    0.000    0.000    0.000    0.000    0.000 
#   30.000    0.000    0.000    0.000    0.000    0.000 
#
# Total GULP energy -817788.934166 kJ/mol
# GULP energy per Si atom -12390.741427 kJ/mol
# Density = 1.818186 g / cm^3
# Si number density = 18.223342 Si / 1000 Ang^3
#
#
#
# Elastic Constant Matrix: (Units=GPa)
#
#
# Indices 1 2 3 4 5 6 
#
# 1 101.7941 48.9822 41.3553 0.0000 0.0000 0.0000
# 2 48.9822 101.7941 41.3553 0.0000 0.0000 0.0000
# 3 41.3553 41.3553 69.8249 0.0000 0.0000 0.0000
# 4 0.0000 0.0000 0.0000 43.4017 0.0000 0.0000
# 5 0.0000 0.0000 0.0000 0.0000 43.4017 0.0000
# 6 0.0000 0.0000 0.0000 0.0000 0.0000 26.4060
#
#
#
# Elastic Compliance Matrix: (Units=1/GPa)
#
#
# Indices 1 2 3 4 5 6 
#
# 1 0.014380 -0.004555 -0.005819 0.000000 0.000000 0.000000
# 2 -0.004555 0.014380 -0.005819 0.000000 0.000000 0.000000
# 3 -0.005819 -0.005819 0.021214 0.000000 0.000000 0.000000
# 4 0.000000 0.000000 0.000000 0.023041 0.000000 0.000000
# 5 0.000000 0.000000 0.000000 0.000000 0.023041 0.000000
# 6 0.000000 0.000000 0.000000 0.000000 0.000000 0.037870
#
#
# Mechanical properties :
#
#
# Convention : Reuss Voigt Hill
#
# Bulk Modulus (GPa) = 56.85712 59.64429 58.25071
# Shear Modulus (GPa) = 29.04063 32.08991 30.56527
#
# Velocity S-wave (km/s) = 3.99632 4.20089 4.09988
# Velocity P-wave (km/s) = 7.24996 7.50537 7.37877
#
# Compressibility (1/GPa) = 0.01758795
#
# Stress axis : x y z
#
# Youngs Moduli (GPa) = 69.54259 69.54259 47.13887
#
# Poissons Ratio (x) = 0.31680 0.27428
# Poissons Ratio (y) = 0.31680 0.27428
# Poissons Ratio (z) = 0.40464 0.40464
#
# Static dielectric constant tensor:
#      x y z
#    x 3.524150 0.000000 0.000000 
#    y 0.000000 3.524150 0.000000 
#    z 0.000000 0.000000 3.250870 
# 
# 
# High freq. dielectric constant tensor:
#      x y z
#    x 1.703110 0.000000 0.000000 
#    y 0.000000 1.703110 0.000000 
#    z 0.000000 0.000000 1.690160 
# 
# From -- ./inp_files/5900.got.cif
#   From: 2010.03.12/outbox.cif.g09.slc.cpg/sg178_3_cif.got.tgz:5900.got - 2010.04.02 07:02:38.
