data_PCOD8325222
_publ_section_title
;
Structure prediction by ZEFSAII (Michael W. Deem and Ramdas Pophale) SiO2 
 PCOD8325222
Probable space group: P 6/M
;
_chemical_formula_sum "Si O2"
_cell_formula_units_Z 72
_cell_length_a 23.710659
_cell_length_b 23.710659
_cell_length_c 7.656241
_cell_angle_alpha 90.000000
_cell_angle_beta 90.000000
_cell_angle_gamma 120.000000
_cell_volume 3727.635822
_symmetry_space_group_name_H-M "P 6/M"
_symmetry_group_IT_number 175
_symmetry_cell_setting 'hexagonal'
loop_
_space_group_symop_operation_xyz
x,y,z
x-y,x,z
-y,x-y,z
-x,-y,z
-x+y,-x,z
y,-x+y,z
-x,-y,-z
-x+y,-x,-z
y,-x+y,-z
x,y,-z
x-y,x,-z
-y,x-y,-z
loop_
_atom_site_type_symbol
_atom_site_label
_atom_site_fract_x
_atom_site_fract_y
_atom_site_fract_z
Si Si1 0.425114 0.813068 0.793815
Si Si2 0.999196 0.667326 0.702731
Si Si3 0.283832 0.156057 0.000000
Si Si4 0.240832 0.519817 0.206251
Si Si5 0.376370 0.230951 0.693826
Si Si6 0.981422 0.236170 0.000000
Si Si7 0.473417 0.043870 0.698482
O O1 0.352646 0.789523 0.725744
O O2 0.444241 0.759941 0.734821
O O3 0.473674 0.880889 0.705131
O O4 0.430316 0.822541 0.000000
O O5 0.018590 0.688948 0.500000
O O6 0.921497 0.623254 0.726517
O O7 0.025634 0.730469 0.824439
O O8 0.030167 0.625148 0.779932
O O9 0.329683 0.176965 0.169595
O O10 0.239443 0.077709 0.000000
O O11 0.236779 0.186952 0.000000
O O12 0.204453 0.449436 0.293146
O O13 0.233605 0.511386 0.000000
O O14 0.349949 0.203810 0.500000
O O15 0.456553 0.019834 0.500000
O O16 0.500000 0.000000 0.791944
#
# Coordination Sequence:
#
# PCOD8325222 Si02
#       7
#    12  12   6  12  12   6  12
#     4  10  22  35  53  74 100 140 183 234 287 338
#     4   9  20  36  55  82 114 148 186 232 283 336
#     4  10  22  40  60  91 120 152 186 224 270 332
#     4  10  20  36  52  73 105 141 190 242 295 345
#     4  10  20  36  59  83 112 149 185 231 286 336
#     4  10  22  38  63  85 122 152 186 224 270 332
#     4  10  21  36  51  72 105 138 177 232 288 340
#
# _framework density 19.315192
#
# number of rings (size 3 to 8) (size 9 to 14) (size 15 to 20)
#    0.000    2.167    0.833    1.333    3.500    5.000 
#    0.000    0.000    0.000    2.167    0.000    0.000 
#    0.000    0.000    0.000    8.333    0.000    0.000 
#
# Total GULP energy -892847.070234 kJ/mol
# GULP energy per Si atom -12400.653753 kJ/mol
# Density = 1.927123 g / cm^3
# Si number density = 19.315192 Si / 1000 Ang^3
#
#
#
# Elastic Constant Matrix: (Units=GPa)
#
#
# Indices 1 2 3 4 5 6 
#
# 1 113.5014 50.9227 30.9932 0.0000 0.0000 0.0000
# 2 50.9227 113.5014 30.9932 0.0000 0.0000 0.0000
# 3 30.9932 30.9932 74.3427 0.0000 0.0000 0.0000
# 4 0.0000 0.0000 0.0000 8.2759 0.0000 0.0000
# 5 0.0000 0.0000 0.0000 0.0000 8.2759 0.0000
# 6 0.0000 0.0000 0.0000 0.0000 0.0000 31.2894
#
#
#
# Elastic Compliance Matrix: (Units=1/GPa)
#
#
# Indices 1 2 3 4 5 6 
#
# 1 0.011598 -0.004382 -0.003008 0.000000 0.000000 0.000000
# 2 -0.004382 0.011598 -0.003008 0.000000 0.000000 0.000000
# 3 -0.003008 -0.003008 0.015960 0.000000 0.000000 0.000000
# 4 0.000000 0.000000 0.000000 0.120832 0.000000 0.000000
# 5 0.000000 0.000000 0.000000 0.000000 0.120832 0.000000
# 6 0.000000 0.000000 0.000000 0.000000 0.000000 0.031960
#
#
# Mechanical properties :
#
#
# Convention : Reuss Voigt Hill
#
# Bulk Modulus (GPa) = 54.47160 58.57377 56.52269
# Shear Modulus (GPa) = 14.71904 22.13068 18.42486
#
# Velocity S-wave (km/s) = 2.76351 3.38859 3.09189
# Velocity P-wave (km/s) = 6.20043 6.76026 6.48639
#
# Compressibility (1/GPa) = 0.01835819
#
# Stress axis : x y z
#
# Youngs Moduli (GPa) = 86.22251 86.22251 62.65853
#
# Poissons Ratio (x) = 0.37782 0.18850
# Poissons Ratio (y) = 0.37782 0.18850
# Poissons Ratio (z) = 0.25938 0.25938
#
# Static dielectric constant tensor:
#      x y z
#    x 3.411950 0.000000 0.000000 
#    y 0.000000 3.411950 0.000000 
#    z 0.000000 0.000000 3.572400 
# 
# 
# High freq. dielectric constant tensor:
#      x y z
#    x 1.738680 0.000000 0.000000 
#    y 0.000000 1.738680 0.000000 
#    z 0.000000 0.000000 1.754760 
# 
# From -- ./inp_files/1254.got.cif
#   From: 2010.03.12/outbox.cif.g09.slc.cpg/sg175_1_cif.got.tgz:1254.got - 2010.04.02 06:55:29.
