data_PCOD8325653
_publ_section_title
;
Structure prediction by ZEFSAII (Michael W. Deem and Ramdas Pophale) SiO2 
 PCOD8325653
Probable space group: P 63/M
;
_chemical_formula_sum "Si O2"
_cell_formula_units_Z 66
_cell_length_a 20.812108
_cell_length_b 20.812108
_cell_length_c 8.031435
_cell_angle_alpha 90.000000
_cell_angle_beta 90.000000
_cell_angle_gamma 120.000000
_cell_volume 3012.700242
_symmetry_space_group_name_H-M "P 63/M"
_symmetry_group_IT_number 176
_symmetry_cell_setting 'hexagonal'
loop_
_space_group_symop_operation_xyz
x,y,z
x-y,x,1/2+z
-y,x-y,z
-x,-y,1/2+z
-x+y,-x,z
y,-x+y,1/2+z
-x,-y,-z
-x+y,-x,1/2-z
y,-x+y,-z
x,y,1/2-z
x-y,x,-z
-y,x-y,1/2-z
loop_
_atom_site_type_symbol
_atom_site_label
_atom_site_fract_x
_atom_site_fract_y
_atom_site_fract_z
Si Si1 0.387779 0.425537 0.557680
Si Si2 0.484393 0.259387 0.561321
Si Si3 0.748708 0.719980 0.054672
Si Si4 0.730083 0.302390 0.250000
Si Si5 0.528105 0.423158 0.940202
Si Si6 0.319864 0.186069 0.441213
O O1 0.384497 0.408464 0.750000
O O2 0.309780 0.362193 0.484262
O O3 0.399630 0.507478 0.524360
O O4 0.454222 0.416947 0.475271
O O5 0.499207 0.239779 0.750000
O O6 0.520124 0.233745 0.414681
O O7 0.528949 0.347903 0.538574
O O8 0.396397 0.228213 0.544228
O O9 0.741335 0.729044 0.250000
O O10 0.828274 0.729151 0.007122
O O11 0.733869 0.780231 0.966231
O O12 0.749355 0.388331 0.250000
O O13 0.530350 0.445355 0.750000
O O14 0.344037 0.191935 0.250000
#
# Coordination Sequence:
#
# PCOD8325653 Si02
#       6
#    12  12  12   6  12  12
#     4   9  17  31  52  80 117 159 198 252 321 375
#     4  11  22  41  68  91 126 174 223 283 344 396
#     4  10  22  41  62  93 133 169 214 273 332 404
#     4  10  26  46  62  88 126 172 234 284 326 390
#     4   9  18  31  52  85 118 156 205 259 318 381
#     4  11  23  40  67  99 132 172 220 269 336 408
#
# _framework density 21.907257999999999
#
# number of rings (size 3 to 8) (size 9 to 14) (size 15 to 20)
#    0.182    1.818    2.727    0.545    1.273    4.364 
#    0.000    1.818    0.000    0.364    0.000    0.000 
#    0.000    0.000    0.000    0.000    0.000    0.000 
#
# Total GULP energy -817915.266280 kJ/mol
# GULP energy per Si atom -12392.655550 kJ/mol
# Density = 2.185740 g / cm^3
# Si number density = 21.907258 Si / 1000 Ang^3
#
#
#
# Elastic Constant Matrix: (Units=GPa)
#
#
# Indices 1 2 3 4 5 6 
#
# 1 91.1283 44.0821 28.7857 0.0000 0.0000 0.0000
# 2 44.0821 91.1283 28.7857 0.0000 0.0000 0.0000
# 3 28.7857 28.7857 89.1032 0.0000 0.0000 0.0000
# 4 0.0000 0.0000 0.0000 24.3659 0.0000 0.0000
# 5 0.0000 0.0000 0.0000 0.0000 24.3659 0.0000
# 6 0.0000 0.0000 0.0000 0.0000 0.0000 23.5231
#
#
#
# Elastic Compliance Matrix: (Units=1/GPa)
#
#
# Indices 1 2 3 4 5 6 
#
# 1 0.014916 -0.006340 -0.002770 0.000000 0.000000 0.000000
# 2 -0.006340 0.014916 -0.002770 0.000000 0.000000 0.000000
# 3 -0.002770 -0.002770 0.013013 0.000000 0.000000 0.000000
# 4 0.000000 0.000000 0.000000 0.041041 0.000000 0.000000
# 5 0.000000 0.000000 0.000000 0.000000 0.041041 0.000000
# 6 0.000000 0.000000 0.000000 0.000000 0.000000 0.042511
#
#
# Mechanical properties :
#
#
# Convention : Reuss Voigt Hill
#
# Bulk Modulus (GPa) = 52.40449 52.74077 52.57263
# Shear Modulus (GPa) = 25.30873 25.76470 25.53672
#
# Velocity S-wave (km/s) = 3.40261 3.43312 3.41790
# Velocity P-wave (km/s) = 6.27774 6.31205 6.29492
#
# Compressibility (1/GPa) = 0.01908233
#
# Stress axis : x y z
#
# Youngs Moduli (GPa) = 67.04383 67.04383 76.84647
#
# Poissons Ratio (x) = 0.42507 0.21290
# Poissons Ratio (y) = 0.42507 0.21290
# Poissons Ratio (z) = 0.18574 0.18574
#
# Static dielectric constant tensor:
#      x y z
#    x 3.805740 0.000000 0.000000 
#    y 0.000000 3.805740 0.000000 
#    z 0.000000 0.000000 3.828640 
# 
# 
# High freq. dielectric constant tensor:
#      x y z
#    x 1.845680 0.000000 0.000000 
#    y 0.000000 1.845680 0.000000 
#    z 0.000000 0.000000 1.853110 
# 
# From -- ./inp_files/987.got.cif
#   From: 2010.06.25/outbox.cif.g09.slc.cpg/sg176_1_cif.got.tgz:987.got - 2010.06.28 12:15:01.
