data_PCOD8325141
_publ_section_title
;
Structure prediction by ZEFSAII (Michael W. Deem and Ramdas Pophale) SiO2 
 PCOD8325141
Probable space group: P 6/M
;
_chemical_formula_sum "Si O2"
_cell_formula_units_Z 46
_cell_length_a 18.040688
_cell_length_b 18.040688
_cell_length_c 9.187504
_cell_angle_alpha 90.000000
_cell_angle_beta 90.000000
_cell_angle_gamma 120.000000
_cell_volume 2589.610006
_symmetry_space_group_name_H-M "P 6/M"
_symmetry_group_IT_number 175
_symmetry_cell_setting 'hexagonal'
loop_
_space_group_symop_operation_xyz
x,y,z
x-y,x,z
-y,x-y,z
-x,-y,z
-x+y,-x,z
y,-x+y,z
-x,-y,-z
-x+y,-x,-z
y,-x+y,-z
x,y,-z
x-y,x,-z
-y,x-y,-z
loop_
_atom_site_type_symbol
_atom_site_label
_atom_site_fract_x
_atom_site_fract_y
_atom_site_fract_z
Si Si1 0.333333 0.666667 0.828594
Si Si2 0.796089 0.276173 0.828522
Si Si3 0.353697 0.267360 0.160496
Si Si4 0.151825 0.958872 0.000000
Si Si5 0.402377 0.435510 0.670983
O O1 0.431138 0.715324 0.774174
O O2 0.333334 0.666668 0.000000
O O3 0.780994 0.183719 0.783007
O O4 0.876370 0.347993 0.745123
O O5 0.813633 0.292441 0.000000
O O6 0.252068 0.197894 0.142981
O O7 0.369920 0.340052 0.273974
O O8 0.390698 0.308303 0.000000
O O9 0.162476 0.052017 0.000000
O O10 0.500000 0.500000 0.714137
O O11 0.388047 0.430916 0.500000
#
# Coordination Sequence:
#
# PCOD8325141 Si02
#       5
#     4  12  12   6  12
#     4   9  18  30  52  80 109 141 190 227 277 318
#     4  10  19  35  56  80 107 142 183 234 274 325
#     4   9  20  35  58  81 108 141 183 235 279 331
#     4  10  19  34  57  86 112 136 170 222 282 340
#     4  11  23  36  52  78 113 151 188 226 276 332
#
# _framework density 17.763293000000001
#
# number of rings (size 3 to 8) (size 9 to 14) (size 15 to 20)
#    0.783    1.304    0.000    4.043    0.000    5.217 
#    0.000    1.304    0.000    0.000    0.000    0.000 
#    0.000    4.174    0.000    0.000    0.000    0.000 
#
# Total GULP energy -570241.723121 kJ/mol
# GULP energy per Si atom -12396.559198 kJ/mol
# Density = 1.772286 g / cm^3
# Si number density = 17.763293 Si / 1000 Ang^3
#
#
#
# Elastic Constant Matrix: (Units=GPa)
#
#
# Indices 1 2 3 4 5 6 
#
# 1 140.9172 66.8596 36.1721 0.0000 0.0000 -0.0003
# 2 66.8596 140.9160 36.1717 0.0000 0.0000 0.0001
# 3 36.1721 36.1717 41.5526 0.0000 0.0000 -0.0002
# 4 0.0000 0.0000 0.0000 4.9086 -0.0001 0.0000
# 5 0.0000 0.0000 0.0000 -0.0001 4.9084 0.0000
# 6 -0.0003 0.0001 -0.0002 0.0000 0.0000 37.0285
#
#
#
# Elastic Compliance Matrix: (Units=1/GPa)
#
#
# Indices 1 2 3 4 5 6 
#
# 1 0.010205 -0.003299 -0.006012 0.000000 0.000000 0.000000
# 2 -0.003299 0.010205 -0.006012 0.000000 0.000000 0.000000
# 3 -0.006012 -0.006012 0.034533 0.000000 0.000000 0.000000
# 4 0.000000 0.000000 0.000000 0.203726 0.000006 0.000000
# 5 0.000000 0.000000 0.000000 0.000006 0.203734 0.000000
# 6 0.000000 0.000000 0.000000 0.000000 0.000000 0.027006
#
#
# Mechanical properties :
#
#
# Convention : Reuss Voigt Hill
#
# Bulk Modulus (GPa) = 41.15649 66.86583 54.01116
# Shear Modulus (GPa) = 9.46700 21.64792 15.55746
#
# Velocity S-wave (km/s) = 2.31108 3.49476 2.96264
# Velocity P-wave (km/s) = 5.50828 7.34907 6.49423
#
# Compressibility (1/GPa) = 0.02429751
#
# Stress axis : x y z
#
# Youngs Moduli (GPa) = 97.99537 97.99499 28.95819
#
# Poissons Ratio (x) = 0.32324 0.17409
# Poissons Ratio (y) = 0.32324 0.17409
# Poissons Ratio (z) = 0.58913 0.58912
#
# Static dielectric constant tensor:
#      x y z
#    x 3.422630 0.000010 0.000000 
#    y 0.000010 3.422630 0.000000 
#    z 0.000000 0.000000 3.006860 
# 
# 
# High freq. dielectric constant tensor:
#      x y z
#    x 1.696960 0.000000 0.000000 
#    y 0.000000 1.696960 0.000000 
#    z 0.000000 0.000000 1.652460 
# 
# From -- ./inp_files/598.got.cif
#   From: 2010.03.12/outbox.cif.g09.slc.cpg/sg175_1_cif.got.tgz:598.got - 2010.04.02 06:55:29.
