data_PCOD8325125
_publ_section_title
;
Structure prediction by ZEFSAII (Michael W. Deem and Ramdas Pophale) SiO2 
 PCOD8325125
Probable space group: P 6/M
;
_chemical_formula_sum "Si O2"
_cell_formula_units_Z 74
_cell_length_a 12.697574
_cell_length_b 12.697574
_cell_length_c 28.684341
_cell_angle_alpha 90.000000
_cell_angle_beta 90.000000
_cell_angle_gamma 120.000000
_cell_volume 4005.133655
_symmetry_space_group_name_H-M "P 6/M"
_symmetry_group_IT_number 175
_symmetry_cell_setting 'hexagonal'
loop_
_space_group_symop_operation_xyz
x,y,z
x-y,x,z
-y,x-y,z
-x,-y,z
-x+y,-x,z
y,-x+y,z
-x,-y,-z
-x+y,-x,-z
y,-x+y,-z
x,y,-z
x-y,x,-z
-y,x-y,-z
loop_
_atom_site_type_symbol
_atom_site_label
_atom_site_fract_x
_atom_site_fract_y
_atom_site_fract_z
Si Si1 0.051814 0.780751 0.699716
Si Si2 0.948714 0.216400 0.598489
Si Si3 0.666668 0.333334 0.191921
Si Si4 0.218421 0.270241 0.500000
Si Si5 0.558636 0.915685 0.783941
Si Si6 0.666667 0.333334 0.918763
Si Si7 0.638545 0.555228 0.946194
Si Si8 0.737255 0.964822 0.867617
O O1 0.921039 0.768777 0.706970
O O2 0.063949 0.730215 0.648266
O O3 0.071128 0.698594 0.736236
O O4 0.076395 0.223994 0.597984
O O5 0.934213 0.277021 0.549504
O O6 0.541313 0.224618 0.210779
O O7 0.666668 0.333334 0.136455
O O8 0.077934 0.228610 0.500000
O O9 0.647361 0.958373 0.827677
O O10 0.500000 0.000000 0.781616
O O11 0.683680 0.459268 0.937804
O O12 0.500000 0.500000 0.929434
O O13 0.721336 0.677469 0.917731
O O14 0.653424 0.593241 0.000000
O O15 0.769387 0.859860 0.862085
#
# Coordination Sequence:
#
# PCOD8325125 Si02
#       8
#    12  12   4   6  12   4  12  12
#     4  10  19  33  52  78 110 148 186 225 271 328
#     4   8  13  20  35  60  96 137 179 219 263 315
#     4  12  24  40  64  87 111 139 184 228 274 326
#     4   8  11  16  28  54  91 134 176 218 261 310
#     4  12  25  41  60  83 110 142 179 230 280 328
#     4  12  22  40  66  90 117 150 187 229 271 320
#     4  11  24  41  64  93 121 149 184 225 269 318
#     4  12  25  42  63  87 116 149 183 220 265 321
#
# _framework density 18.476288
#
# number of rings (size 3 to 8) (size 9 to 14) (size 15 to 20)
#    0.000    1.459    1.622    5.432    0.000    4.541 
#    0.000    1.622    0.000    0.973    0.000    0.568 
#    0.000    1.297    0.000    0.243    0.000    0.081 
#
# Total GULP energy -916988.559332 kJ/mol
# GULP energy per Si atom -12391.737288 kJ/mol
# Density = 1.843423 g / cm^3
# Si number density = 18.476288 Si / 1000 Ang^3
#
#
#
# Elastic Constant Matrix: (Units=GPa)
#
#
# Indices 1 2 3 4 5 6 
#
# 1 82.5578 16.9267 58.5701 0.0000 0.0000 0.0000
# 2 16.9267 82.5580 58.5701 0.0000 0.0000 -0.0004
# 3 58.5701 58.5701 170.1176 0.0000 0.0000 0.0000
# 4 0.0000 0.0000 0.0000 216.3592 0.1948 0.0000
# 5 0.0000 0.0000 0.0000 0.1948 214.5384 0.0000
# 6 0.0000 -0.0004 0.0000 0.0000 0.0000 32.8153
#
#
#
# Elastic Compliance Matrix: (Units=1/GPa)
#
#
# Indices 1 2 3 4 5 6 
#
# 1 0.016071 0.000834 -0.005820 0.000000 0.000000 0.000000
# 2 0.000834 0.016071 -0.005820 0.000000 0.000000 0.000000
# 3 -0.005820 -0.005820 0.009886 0.000000 0.000000 0.000000
# 4 0.000000 0.000000 0.000000 0.004622 -0.000004 0.000000
# 5 0.000000 0.000000 0.000000 -0.000004 0.004661 0.000000
# 6 0.000000 0.000000 0.000000 0.000000 0.000000 0.030474
#
#
# Mechanical properties :
#
#
# Convention : Reuss Voigt Hill
#
# Bulk Modulus (GPa) = 48.98361 67.04080 58.01220
# Shear Modulus (GPa) = 45.37124 106.15369 75.76247
#
# Velocity S-wave (km/s) = 4.96082 7.58807 6.41048
# Velocity P-wave (km/s) = 7.70598 10.63650 9.28756
#
# Compressibility (1/GPa) = 0.02041499
#
# Stress axis : x y z
#
# Youngs Moduli (GPa) = 62.22448 62.22472 101.15303
#
# Poissons Ratio (x) = -0.05191 0.58874
# Poissons Ratio (y) = -0.05191 0.58873
# Poissons Ratio (z) = 0.36216 0.36216
#
# Static dielectric constant tensor:
#      x y z
#    x 3.160650 0.000020 0.000000 
#    y 0.000020 3.160670 0.000000 
#    z 0.000000 0.000000 4.289210 
# 
# 
# High freq. dielectric constant tensor:
#      x y z
#    x 1.698000 0.000000 0.000000 
#    y 0.000000 1.698000 0.000000 
#    z 0.000000 0.000000 1.748070 
# 
# From -- ./inp_files/3403.got.cif
#   From: 2010.03.12/outbox.cif.g09.slc.cpg/sg175_2_cif.got.tgz:3403.got - 2010.04.02 06:55:29.
