data_PCOD8325113
_publ_section_title
;
Structure prediction by ZEFSAII (Michael W. Deem and Ramdas Pophale) SiO2 
 PCOD8325113
Probable space group: P 6/M
;
_chemical_formula_sum "Si O2"
_cell_formula_units_Z 60
_cell_length_a 18.191367
_cell_length_b 18.191367
_cell_length_c 10.633387
_cell_angle_alpha 90.000000
_cell_angle_beta 90.000000
_cell_angle_gamma 120.000000
_cell_volume 3047.424278
_symmetry_space_group_name_H-M "P 6/M"
_symmetry_group_IT_number 175
_symmetry_cell_setting 'hexagonal'
loop_
_space_group_symop_operation_xyz
x,y,z
x-y,x,z
-y,x-y,z
-x,-y,z
-x+y,-x,z
y,-x+y,z
-x,-y,-z
-x+y,-x,-z
y,-x+y,-z
x,y,-z
x-y,x,-z
-y,x-y,-z
loop_
_atom_site_type_symbol
_atom_site_label
_atom_site_fract_x
_atom_site_fract_y
_atom_site_fract_z
Si Si1 0.363322 0.263665 0.363046
Si Si2 0.179017 0.048619 0.854900
Si Si3 0.668232 0.914100 0.714710
Si Si4 0.495859 0.330803 0.143732
Si Si5 0.836867 0.335780 0.142573
O O1 0.408419 0.296743 0.500000
O O2 0.334058 0.163728 0.361793
O O3 0.286359 0.284297 0.362156
O O4 0.422405 0.311873 0.243672
O O5 0.160434 0.118031 0.790622
O O6 0.276643 0.075212 0.838675
O O7 0.158873 0.043936 0.000000
O O8 0.575639 0.893991 0.760208
O O9 0.575057 0.420964 0.180241
O O10 0.524813 0.261115 0.155576
O O11 0.464592 0.331179 0.000000
O O12 0.868707 0.339076 0.000000
#
# Coordination Sequence:
#
# PCOD8325113 Si02
#       5
#    12  12  12  12  12
#     4  11  24  41  59  82 112 151 194 238 288 338
#     4  10  19  32  53  83 118 153 191 239 290 342
#     4  11  21  37  58  80 112 151 194 235 282 341
#     4   9  19  37  62  88 118 150 187 233 282 337
#     4   9  18  34  59  90 116 146 186 232 281 336
#
# _framework density 19.688758
#
# number of rings (size 3 to 8) (size 9 to 14) (size 15 to 20)
#    0.000    2.000    2.000    1.800    0.000    5.600 
#    0.000    8.000    0.000    0.000    0.000    2.800 
#    0.000    0.000    0.000    0.000    0.000    0.000 
#
# Total GULP energy -743486.779930 kJ/mol
# GULP energy per Si atom -12391.446332 kJ/mol
# Density = 1.964395 g / cm^3
# Si number density = 19.688758 Si / 1000 Ang^3
#
#
#
# Elastic Constant Matrix: (Units=GPa)
#
#
# Indices 1 2 3 4 5 6 
#
# 1 109.0806 47.5245 50.0882 0.0000 0.0000 0.0000
# 2 47.5245 109.0806 50.0882 0.0000 0.0000 0.0000
# 3 50.0882 50.0882 105.5235 0.0000 0.0000 0.0000
# 4 0.0000 0.0000 0.0000 9.6748 0.0000 0.0000
# 5 0.0000 0.0000 0.0000 0.0000 9.6748 0.0000
# 6 0.0000 0.0000 0.0000 0.0000 0.0000 30.7781
#
#
#
# Elastic Compliance Matrix: (Units=1/GPa)
#
#
# Indices 1 2 3 4 5 6 
#
# 1 0.012708 -0.003538 -0.004353 0.000000 0.000000 0.000000
# 2 -0.003538 0.012708 -0.004353 0.000000 0.000000 0.000000
# 3 -0.004353 -0.004353 0.013609 0.000000 0.000000 0.000000
# 4 0.000000 0.000000 0.000000 0.103361 0.000000 0.000000
# 5 0.000000 0.000000 0.000000 0.000000 0.103361 0.000000
# 6 0.000000 0.000000 0.000000 0.000000 0.000000 0.032491
#
#
# Mechanical properties :
#
#
# Convention : Reuss Voigt Hill
#
# Bulk Modulus (GPa) = 68.78610 68.78741 68.78675
# Shear Modulus (GPa) = 16.25654 21.75779 19.00717
#
# Velocity S-wave (km/s) = 2.87658 3.32789 3.11043
# Velocity P-wave (km/s) = 6.78568 7.05548 6.92189
#
# Compressibility (1/GPa) = 0.01453782
#
# Stress axis : x y z
#
# Youngs Moduli (GPa) = 78.69362 78.69362 73.48332
#
# Poissons Ratio (x) = 0.27840 0.31984
# Poissons Ratio (y) = 0.27840 0.31984
# Poissons Ratio (z) = 0.34252 0.34252
#
# Static dielectric constant tensor:
#      x y z
#    x 3.618690 0.000000 0.000000 
#    y 0.000000 3.618690 0.000000 
#    z 0.000000 0.000000 3.320330 
# 
# 
# High freq. dielectric constant tensor:
#      x y z
#    x 1.769620 0.000000 0.000000 
#    y 0.000000 1.769620 0.000000 
#    z 0.000000 0.000000 1.742720 
# 
# From -- ./inp_files/1804.got.cif
#   From: 2010.03.12/outbox.cif.g09.slc.cpg/sg175_1_cif.got.tgz:1804.got - 2010.04.02 06:55:29.
