data_PCOD8325585
_publ_section_title
;
Structure prediction by ZEFSAII (Michael W. Deem and Ramdas Pophale) SiO2 
 PCOD8325585
Probable space group: P 63/M
;
_chemical_formula_sum "Si O2"
_cell_formula_units_Z 76
_cell_length_a 18.052724
_cell_length_b 18.052724
_cell_length_c 14.325664
_cell_angle_alpha 90.000000
_cell_angle_beta 90.000000
_cell_angle_gamma 120.000000
_cell_volume 4043.252628
_symmetry_space_group_name_H-M "P 63/M"
_symmetry_group_IT_number 176
_symmetry_cell_setting 'hexagonal'
loop_
_space_group_symop_operation_xyz
x,y,z
x-y,x,1/2+z
-y,x-y,z
-x,-y,1/2+z
-x+y,-x,z
y,-x+y,1/2+z
-x,-y,-z
-x+y,-x,1/2-z
y,-x+y,-z
x,y,1/2-z
x-y,x,-z
-y,x-y,1/2-z
loop_
_atom_site_type_symbol
_atom_site_label
_atom_site_fract_x
_atom_site_fract_y
_atom_site_fract_z
Si Si1 0.775717 0.393121 0.854749
Si Si2 0.935381 0.800396 0.994460
Si Si3 0.333334 0.666668 0.639505
Si Si4 0.963504 0.685275 0.860110
Si Si5 0.148813 0.827841 0.852891
Si Si6 0.685425 0.178036 0.355213
Si Si7 0.924820 0.518189 0.523568
O O1 0.710327 0.430328 0.867954
O O2 0.814494 0.414548 0.750000
O O3 0.850602 0.432135 0.929904
O O4 0.921817 0.739285 0.904863
O O5 0.875367 0.842786 0.988128
O O6 0.908140 0.737092 0.082198
O O7 0.333334 0.666668 0.750000
O O8 0.320401 0.742761 0.601719
O O9 0.939984 0.670393 0.750000
O O10 0.939405 0.595742 0.908783
O O11 0.063245 0.742719 0.880638
O O12 0.141968 0.859269 0.750000
O O13 0.216741 0.796408 0.857092
O O14 0.647575 0.154987 0.250000
O O15 0.633796 0.097393 0.421033
O O16 0.000000 0.500000 0.500000
#
# Coordination Sequence:
#
# PCOD8325585 Si02
#       7
#    12  12   4  12  12  12  12
#     4   8  19  41  63  83 112 155 204 252 295 344
#     4  10  20  38  62  92 121 155 200 245 299 357
#     4   9  21  36  57  84 109 146 196 237 288 342
#     4  10  22  40  60  86 121 159 194 242 304 362
#     4   9  19  38  61  83 121 158 192 239 294 357
#     4  10  22  39  58  85 115 154 196 242 290 348
#     4  12  25  36  58  90 120 157 198 245 299 361
#
# _framework density 18.796747
#
# number of rings (size 3 to 8) (size 9 to 14) (size 15 to 20)
#    0.316    1.895    1.579    0.632    4.421    1.895 
#    0.000    0.000    0.000    1.895    0.000    0.000 
#    0.000    0.000    0.000    0.000    0.000    0.000 
#
# Total GULP energy -941767.959254 kJ/mol
# GULP energy per Si atom -12391.683674 kJ/mol
# Density = 1.875397 g / cm^3
# Si number density = 18.796747 Si / 1000 Ang^3
#
#
#
# Elastic Constant Matrix: (Units=GPa)
#
#
# Indices 1 2 3 4 5 6 
#
# 1 88.0344 44.8596 52.0276 0.0000 0.0000 -0.0001
# 2 44.8596 88.0344 52.0272 0.0000 0.0000 -0.0003
# 3 52.0276 52.0272 119.2887 0.0000 0.0000 0.0002
# 4 0.0000 0.0000 0.0000 31.2758 0.0000 0.0000
# 5 0.0000 0.0000 0.0000 0.0000 31.2756 0.0000
# 6 -0.0001 -0.0003 0.0002 0.0000 0.0000 21.5875
#
#
#
# Elastic Compliance Matrix: (Units=1/GPa)
#
#
# Indices 1 2 3 4 5 6 
#
# 1 0.017294 -0.005867 -0.004984 0.000000 0.000000 0.000000
# 2 -0.005867 0.017294 -0.004984 0.000000 0.000000 0.000000
# 3 -0.004984 -0.004984 0.012730 0.000000 0.000000 0.000000
# 4 0.000000 0.000000 0.000000 0.031974 0.000000 0.000000
# 5 0.000000 0.000000 0.000000 0.000000 0.031974 0.000000
# 6 0.000000 0.000000 0.000000 0.000000 0.000000 0.046323
#
#
# Mechanical properties :
#
#
# Convention : Reuss Voigt Hill
#
# Bulk Modulus (GPa) = 63.90142 65.90958 64.90550
# Shear Modulus (GPa) = 25.71007 26.59065 26.15036
#
# Velocity S-wave (km/s) = 3.70238 3.76525 3.73395
# Velocity P-wave (km/s) = 7.23510 7.35142 7.29349
#
# Compressibility (1/GPa) = 0.01564910
#
# Stress axis : x y z
#
# Youngs Moduli (GPa) = 57.82207 57.82234 78.55180
#
# Poissons Ratio (x) = 0.33926 0.39150
# Poissons Ratio (y) = 0.33926 0.39149
# Poissons Ratio (z) = 0.28818 0.28818
#
# Static dielectric constant tensor:
#      x y z
#    x 3.417150 0.000000 0.000000 
#    y 0.000000 3.417160 0.000000 
#    z 0.000000 0.000000 3.648510 
# 
# 
# High freq. dielectric constant tensor:
#      x y z
#    x 1.723910 0.000000 0.000000 
#    y 0.000000 1.723910 0.000000 
#    z 0.000000 0.000000 1.743660 
# 
# From -- ./inp_files/2852.got.cif
#   From: 2010.06.25/outbox.cif.g09.slc.cpg/sg176_2_cif.got.tgz:2852.got - 2010.06.28 12:15:01.
