data_PCOD8325482
_publ_section_title
;
Structure prediction by ZEFSAII (Michael W. Deem and Ramdas Pophale) SiO2 
 PCOD8325482
Probable space group: P 63/M
;
_chemical_formula_sum "Si O2"
_cell_formula_units_Z 76
_cell_length_a 18.863428
_cell_length_b 18.863428
_cell_length_c 13.730992
_cell_angle_alpha 90.000000
_cell_angle_beta 90.000000
_cell_angle_gamma 120.000000
_cell_volume 4231.299662
_symmetry_space_group_name_H-M "P 63/M"
_symmetry_group_IT_number 176
_symmetry_cell_setting 'hexagonal'
loop_
_space_group_symop_operation_xyz
x,y,z
x-y,x,1/2+z
-y,x-y,z
-x,-y,1/2+z
-x+y,-x,z
y,-x+y,1/2+z
-x,-y,-z
-x+y,-x,1/2-z
y,-x+y,-z
x,y,1/2-z
x-y,x,-z
-y,x-y,1/2-z
loop_
_atom_site_type_symbol
_atom_site_label
_atom_site_fract_x
_atom_site_fract_y
_atom_site_fract_z
Si Si1 0.333334 0.666668 0.635126
Si Si2 0.191252 0.345698 0.010800
Si Si3 0.581518 0.148125 0.137769
Si Si4 0.389416 0.060810 0.137538
Si Si5 0.327153 0.914810 0.510400
Si Si6 0.881001 0.052398 0.476158
Si Si7 0.010532 0.739275 0.138469
O O1 0.333334 0.666668 0.750000
O O2 0.388514 0.629288 0.598469
O O3 0.238067 0.350406 0.909422
O O4 0.171657 0.419727 0.024739
O O5 0.106044 0.260295 0.023512
O O6 0.247053 0.344149 0.097991
O O7 0.605237 0.140771 0.250000
O O8 0.486278 0.116742 0.130498
O O9 0.603023 0.096477 0.062119
O O10 0.360438 0.040714 0.250000
O O11 0.363161 0.976653 0.080169
O O12 0.284731 0.940398 0.593474
O O13 0.977717 0.109420 0.451790
O O14 0.821719 0.007820 0.383058
O O15 0.011254 0.725039 0.250000
#
# Coordination Sequence:
#
# PCOD8325482 Si02
#       7
#     4  12  12  12  12  12  12
#     4   9  18  30  48  78 109 134 166 204 249 306
#     4   9  19  33  49  71 100 135 171 208 252 302
#     4  10  19  32  52  79 107 133 163 206 255 306
#     4  10  21  35  52  75 104 136 171 211 258 306
#     4  10  19  33  52  75 102 133 168 208 254 303
#     4   9  17  31  48  67  95 131 168 210 253 294
#     4   9  18  32  49  71  98 132 170 207 250 301
#
# _framework density 17.961383999999999
#
# number of rings (size 3 to 8) (size 9 to 14) (size 15 to 20)
#    0.000    2.526    0.000    3.000    0.000    5.053 
#    0.000    3.158    0.000    0.000    0.000    1.105 
#    0.000    0.000    0.000    0.000    0.000    0.000 
#
# Total GULP energy -941524.903130 kJ/mol
# GULP energy per Si atom -12388.485568 kJ/mol
# Density = 1.792050 g / cm^3
# Si number density = 17.961384 Si / 1000 Ang^3
#
#
#
# Elastic Constant Matrix: (Units=GPa)
#
#
# Indices 1 2 3 4 5 6 
#
# 1 74.9472 15.9951 23.9479 0.0000 0.0000 -0.0003
# 2 15.9951 74.9468 23.9470 0.0000 0.0000 -0.0005
# 3 23.9479 23.9470 67.3362 0.0000 0.0000 -0.0007
# 4 0.0000 0.0000 0.0000 16.3159 0.0000 0.0000
# 5 0.0000 0.0000 0.0000 0.0000 16.3159 0.0000
# 6 -0.0003 -0.0005 -0.0007 0.0000 0.0000 29.4756
#
#
#
# Elastic Compliance Matrix: (Units=1/GPa)
#
#
# Indices 1 2 3 4 5 6 
#
# 1 0.015247 -0.001716 -0.004812 0.000000 0.000000 0.000000
# 2 -0.001716 0.015247 -0.004812 0.000000 0.000000 0.000000
# 3 -0.004812 -0.004812 0.018273 0.000000 0.000000 0.000000
# 4 0.000000 0.000000 0.000000 0.061290 0.000000 0.000000
# 5 0.000000 0.000000 0.000000 0.000000 0.061290 0.000000
# 6 0.000000 0.000000 0.000000 0.000000 0.000000 0.033926
#
#
# Mechanical properties :
#
#
# Convention : Reuss Voigt Hill
#
# Bulk Modulus (GPa) = 38.33428 38.33448 38.33438
# Shear Modulus (GPa) = 21.12837 22.64416 21.88626
#
# Velocity S-wave (km/s) = 3.43348 3.55450 3.49451
# Velocity P-wave (km/s) = 6.09157 6.18345 6.13768
#
# Compressibility (1/GPa) = 0.02608631
#
# Stress axis : x y z
#
# Youngs Moduli (GPa) = 65.58832 65.58853 54.72418
#
# Poissons Ratio (x) = 0.11258 0.26333
# Poissons Ratio (y) = 0.11258 0.26332
# Poissons Ratio (z) = 0.31561 0.31560
#
# Static dielectric constant tensor:
#      x y z
#    x 3.578180 0.000000 0.000000 
#    y 0.000000 3.578180 0.000000 
#    z 0.000000 0.000000 3.083140 
# 
# 
# High freq. dielectric constant tensor:
#      x y z
#    x 1.699680 0.000000 0.000000 
#    y 0.000000 1.699680 0.000000 
#    z 0.000000 0.000000 1.658420 
# 
# From -- ./inp_files/2853.got.cif
#   From: 2010.06.25/outbox.cif.g09.slc.cpg/sg176_2_cif.got.tgz:2853.got - 2010.06.28 12:15:01.
