data_PCOD8325708
_publ_section_title
;
Structure prediction by ZEFSAII (Michael W. Deem and Ramdas Pophale) SiO2 
 PCOD8325708
Probable space group: P 63/M
;
_chemical_formula_sum "Si O2"
_cell_formula_units_Z 60
_cell_length_a 14.202374
_cell_length_b 14.202374
_cell_length_c 15.701801
_cell_angle_alpha 90.000000
_cell_angle_beta 90.000000
_cell_angle_gamma 120.000000
_cell_volume 2742.849577
_symmetry_space_group_name_H-M "P 63/M"
_symmetry_group_IT_number 176
_symmetry_cell_setting 'hexagonal'
loop_
_space_group_symop_operation_xyz
x,y,z
x-y,x,1/2+z
-y,x-y,z
-x,-y,1/2+z
-x+y,-x,z
y,-x+y,1/2+z
-x,-y,-z
-x+y,-x,1/2-z
y,-x+y,-z
x,y,1/2-z
x-y,x,-z
-y,x-y,1/2-z
loop_
_atom_site_type_symbol
_atom_site_label
_atom_site_fract_x
_atom_site_fract_y
_atom_site_fract_z
Si Si1 0.591788 0.491305 0.653418
Si Si2 0.120994 0.250813 0.509304
Si Si3 0.277323 0.813594 0.418236
Si Si4 0.751868 0.579597 0.154574
Si Si5 0.127429 0.524270 0.907895
O O1 0.614295 0.534516 0.750000
O O2 0.691464 0.484377 0.613999
O O3 0.486765 0.369009 0.652359
O O4 0.570915 0.572216 0.594673
O O5 0.172220 0.179320 0.475828
O O6 0.135719 0.335925 0.435165
O O7 0.177171 0.313936 0.596760
O O8 0.345747 0.818776 0.502014
O O9 0.740875 0.615538 0.250000
O O10 0.808136 0.505066 0.161738
O O11 0.634897 0.506692 0.111739
#
# Coordination Sequence:
#
# PCOD8325708 Si02
#       5
#    12  12  12  12  12
#     4  12  24  40  62  95 131 165 207 264 318 374
#     4  11  24  43  66  89 120 166 219 271 321 373
#     4  11  22  40  62  90 126 167 208 248 315 394
#     4  11  22  40  63  94 127 163 207 257 314 381
#     4  11  23  39  62  90 127 169 208 252 310 384
#
# _framework density 21.875060999999999
#
# number of rings (size 3 to 8) (size 9 to 14) (size 15 to 20)
#    0.000    0.800    0.000   10.000    0.000    1.600 
#    0.000    3.000    0.000    0.000    0.000    0.000 
#    0.000    0.000    0.000    0.000    0.000    0.000 
#
# Total GULP energy -743940.340393 kJ/mol
# GULP energy per Si atom -12399.005673 kJ/mol
# Density = 2.182527 g / cm^3
# Si number density = 21.875061 Si / 1000 Ang^3
#
#
#
# Elastic Constant Matrix: (Units=GPa)
#
#
# Indices 1 2 3 4 5 6 
#
# 1 113.3795 37.7143 40.8082 0.0000 0.0000 0.0000
# 2 37.7143 113.3795 40.8082 0.0000 0.0000 0.0000
# 3 40.8082 40.8082 105.8594 0.0000 0.0000 0.0000
# 4 0.0000 0.0000 0.0000 18.6750 0.0000 0.0000
# 5 0.0000 0.0000 0.0000 0.0000 18.6750 0.0000
# 6 0.0000 0.0000 0.0000 0.0000 0.0000 37.8326
#
#
#
# Elastic Compliance Matrix: (Units=1/GPa)
#
#
# Indices 1 2 3 4 5 6 
#
# 1 0.010788 -0.002429 -0.003222 0.000000 0.000000 0.000000
# 2 -0.002429 0.010788 -0.003222 0.000000 0.000000 0.000000
# 3 -0.003222 -0.003222 0.011931 0.000000 0.000000 0.000000
# 4 0.000000 0.000000 0.000000 0.053548 0.000000 0.000000
# 5 0.000000 0.000000 0.000000 0.000000 0.053548 0.000000
# 6 0.000000 0.000000 0.000000 0.000000 0.000000 0.026432
#
#
# Mechanical properties :
#
#
# Convention : Reuss Voigt Hill
#
# Bulk Modulus (GPa) = 63.45373 63.47554 63.46464
# Shear Modulus (GPa) = 26.31120 29.25568 27.78344
#
# Velocity S-wave (km/s) = 3.47189 3.66101 3.56771
# Velocity P-wave (km/s) = 6.71881 6.85208 6.78577
#
# Compressibility (1/GPa) = 0.01575951
#
# Stress axis : x y z
#
# Youngs Moduli (GPa) = 92.69923 92.69923 83.81596
#
# Poissons Ratio (x) = 0.22512 0.27009
# Poissons Ratio (y) = 0.22512 0.27009
# Poissons Ratio (z) = 0.29871 0.29871
#
# Static dielectric constant tensor:
#      x y z
#    x 4.030380 0.000000 0.000000 
#    y 0.000000 4.030380 0.000000 
#    z 0.000000 0.000000 3.863960 
# 
# 
# High freq. dielectric constant tensor:
#      x y z
#    x 1.864190 0.000000 0.000000 
#    y 0.000000 1.864190 0.000000 
#    z 0.000000 0.000000 1.849610 
# 
# From -- ./inp_files/2635.got.cif
#   From: 2010.06.25/outbox.cif.g09.slc.cpg/sg176_2_cif.got.tgz:2635.got - 2010.06.28 12:15:01.
