data_PCOD8325410
_publ_section_title
;
Structure prediction by ZEFSAII (Michael W. Deem and Ramdas Pophale) SiO2 
 PCOD8325410
Probable space group: P 63/M
;
_chemical_formula_sum "Si O2"
_cell_formula_units_Z 72
_cell_length_a 22.453854
_cell_length_b 22.453854
_cell_length_c 8.451929
_cell_angle_alpha 90.000000
_cell_angle_beta 90.000000
_cell_angle_gamma 120.000000
_cell_volume 3690.355976
_symmetry_space_group_name_H-M "P 63/M"
_symmetry_group_IT_number 176
_symmetry_cell_setting 'hexagonal'
loop_
_space_group_symop_operation_xyz
x,y,z
x-y,x,1/2+z
-y,x-y,z
-x,-y,1/2+z
-x+y,-x,z
y,-x+y,1/2+z
-x,-y,-z
-x+y,-x,1/2-z
y,-x+y,-z
x,y,1/2-z
x-y,x,-z
-y,x-y,1/2-z
loop_
_atom_site_type_symbol
_atom_site_label
_atom_site_fract_x
_atom_site_fract_y
_atom_site_fract_z
Si Si1 0.390756 0.881491 0.436743
Si Si2 0.647710 0.514205 0.934672
Si Si3 0.366498 0.002516 0.435388
Si Si4 0.697645 0.788037 0.062774
Si Si5 0.901228 0.053318 0.937691
Si Si6 0.446675 0.239715 0.560703
O O1 0.392421 0.873861 0.250000
O O2 0.452868 0.874316 0.515489
O O3 0.398218 0.954271 0.480153
O O4 0.317150 0.823197 0.503582
O O5 0.643627 0.500392 0.750000
O O6 0.715542 0.516555 0.005015
O O7 0.659971 0.589537 0.964924
O O8 0.374368 0.018924 0.250000
O O9 0.287416 0.970469 0.489491
O O10 0.700397 0.792147 0.250000
O O11 0.770984 0.847711 0.996304
O O12 0.632795 0.794769 0.999886
O O13 0.910258 0.062275 0.750000
O O14 0.974168 0.100998 0.019572
O O15 0.443867 0.240319 0.750000
#
# Coordination Sequence:
#
# PCOD8325410 Si02
#       6
#    12  12  12  12  12  12
#     4   8  15  29  45  67  98 131 160 193 241 292
#     4  10  18  27  48  77  98 122 165 210 241 278
#     4   9  17  31  50  69  97 132 161 193 244 302
#     4   8  17  33  52  72  99 136 166 195 247 306
#     4  11  23  39  58  79 103 133 171 209 252 302
#     4   8  15  29  46  68 102 134 161 199 247 292
#
# _framework density 19.510314000000001
#
# number of rings (size 3 to 8) (size 9 to 14) (size 15 to 20)
#    0.000    3.000    0.000    3.167    2.333    0.000 
#    1.000    0.833    0.000    5.000    0.000    0.000 
#    0.000    0.000    0.000    0.000    0.000    0.000 
#
# Total GULP energy -892183.810118 kJ/mol
# GULP energy per Si atom -12391.441807 kJ/mol
# Density = 1.946591 g / cm^3
# Si number density = 19.510314 Si / 1000 Ang^3
#
#
#
# Elastic Constant Matrix: (Units=GPa)
#
#
# Indices 1 2 3 4 5 6 
#
# 1 104.7735 43.6232 5.0844 0.0000 0.0000 0.0000
# 2 43.6232 104.7735 5.0844 0.0000 0.0000 0.0000
# 3 5.0844 5.0844 6.1313 0.0000 0.0000 0.0000
# 4 0.0000 0.0000 0.0000 13.7704 0.0000 0.0000
# 5 0.0000 0.0000 0.0000 0.0000 13.7704 0.0000
# 6 0.0000 0.0000 0.0000 0.0000 0.0000 30.5752
#
#
#
# Elastic Compliance Matrix: (Units=1/GPa)
#
#
# Indices 1 2 3 4 5 6 
#
# 1 0.011749 -0.004604 -0.005925 0.000000 0.000000 0.000000
# 2 -0.004604 0.011749 -0.005925 0.000000 0.000000 0.000000
# 3 -0.005925 -0.005925 0.172925 0.000000 0.000000 0.000000
# 4 0.000000 0.000000 0.000000 0.072620 0.000000 0.000000
# 5 0.000000 0.000000 0.000000 0.000000 0.072620 0.000000
# 6 0.000000 0.000000 0.000000 0.000000 0.000000 0.032706
#
#
# Mechanical properties :
#
#
# Convention : Reuss Voigt Hill
#
# Bulk Modulus (GPa) = 6.11564 35.91802 21.01683
# Shear Modulus (GPa) = 10.82765 22.41560 16.62163
#
# Velocity S-wave (km/s) = 2.35834 3.39324 2.92197
# Velocity P-wave (km/s) = 3.24916 5.81393 4.70950
#
# Compressibility (1/GPa) = 0.16351512
#
# Stress axis : x y z
#
# Youngs Moduli (GPa) = 85.11428 85.11428 5.78286
#
# Poissons Ratio (x) = 0.39189 0.03426
# Poissons Ratio (y) = 0.39189 0.03426
# Poissons Ratio (z) = 0.50428 0.50428
#
# Static dielectric constant tensor:
#      x y z
#    x 3.965690 0.000000 0.000000 
#    y 0.000000 3.965690 0.000000 
#    z 0.000000 0.000000 2.957070 
# 
# 
# High freq. dielectric constant tensor:
#      x y z
#    x 1.768050 0.000000 0.000000 
#    y 0.000000 1.768050 0.000000 
#    z 0.000000 0.000000 1.703730 
# 
# From -- ./inp_files/1207.got.cif
#   From: 2010.06.25/outbox.cif.g09.slc.cpg/sg176_1_cif.got.tgz:1207.got - 2010.06.28 12:15:01.
