data_PCOD8325379
_publ_section_title
;
Structure prediction by ZEFSAII (Michael W. Deem and Ramdas Pophale) SiO2 
 PCOD8325379
Probable space group: P 6/M
;
_chemical_formula_sum "Si O2"
_cell_formula_units_Z 46
_cell_length_a 17.794321
_cell_length_b 17.794321
_cell_length_c 7.775126
_cell_angle_alpha 90.000000
_cell_angle_beta 90.000000
_cell_angle_gamma 120.000000
_cell_volume 2132.067298
_symmetry_space_group_name_H-M "P 6/M"
_symmetry_group_IT_number 175
_symmetry_cell_setting 'hexagonal'
loop_
_space_group_symop_operation_xyz
x,y,z
x-y,x,z
-y,x-y,z
-x,-y,z
-x+y,-x,z
y,-x+y,z
-x,-y,-z
-x+y,-x,-z
y,-x+y,-z
x,y,-z
x-y,x,-z
-y,x-y,-z
loop_
_atom_site_type_symbol
_atom_site_label
_atom_site_fract_x
_atom_site_fract_y
_atom_site_fract_z
Si Si1 0.957584 0.152260 0.000000
Si Si2 0.405950 0.973844 0.805271
Si Si3 0.333334 0.666668 0.202147
Si Si4 0.757172 0.673487 0.304724
Si Si5 0.270629 0.792022 0.302224
O O1 0.948717 0.196130 0.173419
O O2 0.051812 0.163400 0.000000
O O3 0.345279 0.870130 0.806020
O O4 0.500000 0.000000 0.727751
O O5 0.362900 0.017380 0.692462
O O6 0.416514 0.008476 0.000000
O O7 0.274224 0.704862 0.271058
O O8 0.333334 0.666668 0.000000
O O9 0.791149 0.704321 0.500000
O O10 0.775359 0.598040 0.241862
O O11 0.286108 0.818593 0.500000
#
# Coordination Sequence:
#
# PCOD8325379 Si02
#       5
#     6  12   4  12  12
#     4  12  27  48  75 102 134 170 216 280 348 424
#     4  11  23  39  64  97 134 177 224 275 331 391
#     4  12  25  38  61  93 136 185 232 282 325 386
#     4  11  25  44  70 102 135 178 226 278 336 402
#     4  11  24  41  63  91 131 176 223 274 331 395
#
# _framework density 21.575306000000001
#
# number of rings (size 3 to 8) (size 9 to 14) (size 15 to 20)
#    0.000    0.783    1.304    5.609    3.652    9.391 
#    0.000    0.000    0.000    1.565    0.000    0.000 
#    0.000    0.000    0.000    0.000    0.000    0.000 
#
# Total GULP energy -570743.098746 kJ/mol
# GULP energy per Si atom -12407.458668 kJ/mol
# Density = 2.152620 g / cm^3
# Si number density = 21.575306 Si / 1000 Ang^3
#
#
#
# Elastic Constant Matrix: (Units=GPa)
#
#
# Indices 1 2 3 4 5 6 
#
# 1 172.3645 20.9915 40.3473 0.0000 0.0000 0.0845
# 2 20.9915 172.3396 40.3491 0.0000 0.0000 -0.0867
# 3 40.3473 40.3491 100.3692 0.0000 0.0000 0.0003
# 4 0.0000 0.0000 0.0000 17.6903 0.0001 0.0000
# 5 0.0000 0.0000 0.0000 0.0001 17.6907 0.0000
# 6 0.0845 -0.0867 0.0003 0.0000 0.0000 75.8139
#
#
#
# Elastic Compliance Matrix: (Units=1/GPa)
#
#
# Indices 1 2 3 4 5 6 
#
# 1 0.006410 -0.000196 -0.002498 0.000000 0.000000 -0.000007
# 2 -0.000196 0.006411 -0.002499 0.000000 0.000000 0.000008
# 3 -0.002498 -0.002499 0.011972 0.000000 0.000000 0.000000
# 4 0.000000 0.000000 0.000000 0.056528 0.000000 0.000000
# 5 0.000000 0.000000 0.000000 0.000000 0.056527 0.000000
# 6 -0.000007 0.000008 0.000000 0.000000 0.000000 0.013190
#
#
# Mechanical properties :
#
#
# Convention : Reuss Voigt Hill
#
# Bulk Modulus (GPa) = 69.40498 72.04990 70.72744
# Shear Modulus (GPa) = 30.07938 45.13134 37.60536
#
# Velocity S-wave (km/s) = 3.73789 4.57859 4.17943
# Velocity P-wave (km/s) = 7.13216 7.83699 7.49287
#
# Compressibility (1/GPa) = 0.01440819
#
# Stress axis : x y z
#
# Youngs Moduli (GPa) = 155.99936 155.97308 83.52896
#
# Poissons Ratio (x) = 0.03056 0.20866
# Poissons Ratio (y) = 0.03056 0.20871
# Poissons Ratio (z) = 0.38970 0.38972
#
# Static dielectric constant tensor:
#      x y z
#    x 4.526620 0.000760 0.000000 
#    y 0.000760 4.524100 0.000000 
#    z 0.000000 0.000000 3.823590 
# 
# 
# High freq. dielectric constant tensor:
#      x y z
#    x 1.850710 0.000000 0.000000 
#    y 0.000000 1.850710 0.000000 
#    z 0.000000 0.000000 1.856550 
# 
# From -- ./inp_files/542.got.cif
#   From: 2010.03.12/outbox.cif.g09.slc.cpg/sg175_1_cif.got.tgz:542.got - 2010.04.02 06:55:29.
