data_PCOD8325617
_publ_section_title
;
Structure prediction by ZEFSAII (Michael W. Deem and Ramdas Pophale) SiO2 
 PCOD8325617
Probable space group: P 63/M
;
_chemical_formula_sum "Si O2"
_cell_formula_units_Z 48
_cell_length_a 12.769989
_cell_length_b 12.769989
_cell_length_c 17.939000
_cell_angle_alpha 90.000000
_cell_angle_beta 90.000000
_cell_angle_gamma 120.000000
_cell_volume 2533.435827
_symmetry_space_group_name_H-M "P 63/M"
_symmetry_group_IT_number 176
_symmetry_cell_setting 'hexagonal'
loop_
_space_group_symop_operation_xyz
x,y,z
x-y,x,1/2+z
-y,x-y,z
-x,-y,1/2+z
-x+y,-x,z
y,-x+y,1/2+z
-x,-y,-z
-x+y,-x,1/2-z
y,-x+y,-z
x,y,1/2-z
x-y,x,-z
-y,x-y,1/2-z
loop_
_atom_site_type_symbol
_atom_site_label
_atom_site_fract_x
_atom_site_fract_y
_atom_site_fract_z
Si Si1 0.997330 0.542750 0.166028
Si Si2 0.975655 0.655218 0.585813
Si Si3 0.641843 0.766319 0.923835
Si Si4 0.085458 0.804425 0.333433
O O1 0.962402 0.490817 0.250000
O O2 0.047568 0.470281 0.120039
O O3 0.101738 0.685136 0.166520
O O4 0.879784 0.537200 0.125822
O O5 0.909116 0.629001 0.507580
O O6 0.921869 0.715465 0.640627
O O7 0.118801 0.742920 0.577798
O O8 0.774154 0.800999 0.889364
O O9 0.054088 0.828096 0.250000
#
# Coordination Sequence:
#
# PCOD8325617 Si02
#       4
#    12  12  12  12
#     4   9  21  39  59  88 121 154 205 249 293 365
#     4  12  20  39  66  86 121 165 192 251 312 344
#     4  10  21  38  60  89 123 151 206 250 291 362
#     4   9  21  39  57  88 125 155 203 250 291 363
#
# _framework density 18.946603
#
# number of rings (size 3 to 8) (size 9 to 14) (size 15 to 20)
#    1.500    0.500    2.500    1.500    0.000    4.000 
#    4.500    1.250    5.500    0.000    0.000    0.000 
#    0.000    0.000    0.000    0.000    0.000    0.000 
#
# Total GULP energy -594711.586919 kJ/mol
# GULP energy per Si atom -12389.824727 kJ/mol
# Density = 1.890348 g / cm^3
# Si number density = 18.946603 Si / 1000 Ang^3
#
#
#
# Elastic Constant Matrix: (Units=GPa)
#
#
# Indices 1 2 3 4 5 6 
#
# 1 51.5943 11.1454 27.1658 0.0000 0.0000 0.0000
# 2 11.1454 51.5943 27.1658 0.0000 0.0000 0.0000
# 3 27.1658 27.1658 141.8655 0.0000 0.0000 0.0000
# 4 0.0000 0.0000 0.0000 25.4328 0.0000 0.0000
# 5 0.0000 0.0000 0.0000 0.0000 25.4328 0.0000
# 6 0.0000 0.0000 0.0000 0.0000 0.0000 20.2244
#
#
#
# Elastic Compliance Matrix: (Units=1/GPa)
#
#
# Indices 1 2 3 4 5 6 
#
# 1 0.021915 -0.002808 -0.003659 0.000000 0.000000 0.000000
# 2 -0.002808 0.021915 -0.003659 0.000000 0.000000 0.000000
# 3 -0.003659 -0.003659 0.008450 0.000000 0.000000 0.000000
# 4 0.000000 0.000000 0.000000 0.039319 0.000000 0.000000
# 5 0.000000 0.000000 0.000000 0.000000 0.039319 0.000000
# 6 0.000000 0.000000 0.000000 0.000000 0.000000 0.049445
#
#
# Mechanical properties :
#
#
# Convention : Reuss Voigt Hill
#
# Bulk Modulus (GPa) = 31.22117 41.77865 36.49991
# Shear Modulus (GPa) = 23.66404 26.18981 24.92692
#
# Velocity S-wave (km/s) = 3.53793 3.72196 3.63111
# Velocity P-wave (km/s) = 5.76225 6.36940 6.07342
#
# Compressibility (1/GPa) = 0.03202955
#
# Stress axis : x y z
#
# Youngs Moduli (GPa) = 45.63087 45.63087 118.34033
#
# Poissons Ratio (x) = 0.12811 0.43299
# Poissons Ratio (y) = 0.12811 0.43299
# Poissons Ratio (z) = 0.16696 0.16696
#
# Static dielectric constant tensor:
#      x y z
#    x 3.154280 0.000000 0.000000 
#    y 0.000000 3.154280 0.000000 
#    z 0.000000 0.000000 3.673100 
# 
# 
# High freq. dielectric constant tensor:
#      x y z
#    x 1.707580 0.000000 0.000000 
#    y 0.000000 1.707580 0.000000 
#    z 0.000000 0.000000 1.763070 
# 
# From -- ./inp_files/2458.got.cif
#   From: 2010.06.25/outbox.cif.g09.slc.cpg/sg176_2_cif.got.tgz:2458.got - 2010.06.28 12:15:01.
