data_PCOD8325850
_publ_section_title
;
Structure prediction by ZEFSAII (Michael W. Deem and Ramdas Pophale) SiO2 
 PCOD8325850
Probable space group: P 61 2 2
;
_chemical_formula_sum "Si O2"
_cell_formula_units_Z 60
_cell_length_a 14.416929
_cell_length_b 14.416929
_cell_length_c 16.332261
_cell_angle_alpha 90.000000
_cell_angle_beta 90.000000
_cell_angle_gamma 120.000000
_cell_volume 2939.831660
_symmetry_space_group_name_H-M "P 61 2 2"
_symmetry_group_IT_number 178
_symmetry_cell_setting 'hexagonal'
loop_
_space_group_symop_operation_xyz
x,y,z
x-y,x,1/6+z
-y,x-y,1/3+z
-x,-y,1/2+z
-x+y,-x,2/3+z
y,-x+y,5/6+z
x-y,-y,-z
-x,-x+y,2/3-z
y,x,1/3-z
-y,-x,5/6-z
-x+y,y,1/2-z
x,x-y,1/6-z
loop_
_atom_site_type_symbol
_atom_site_label
_atom_site_fract_x
_atom_site_fract_y
_atom_site_fract_z
Si Si1 0.036740 0.963261 0.416667
Si Si2 0.678329 0.125330 0.873292
Si Si3 0.238461 0.284085 0.580821
Si Si4 0.727317 0.210829 0.707233
Si Si5 0.376513 0.485751 0.125864
Si Si6 0.300576 0.699425 0.916667
O O1 0.000000 0.996774 0.333334
O O2 0.973159 0.834896 0.422901
O O3 0.779953 0.220047 0.916667
O O4 0.650006 0.161796 0.787407
O O5 0.579960 0.086095 0.935461
O O6 0.701299 0.029827 0.848745
O O7 0.299292 0.299292 0.666667
O O8 0.209866 0.375881 0.567753
O O9 0.691382 0.140910 0.624872
O O10 0.738231 0.327935 0.697092
O O11 0.390187 0.390187 0.166667
O O12 0.317430 0.524826 0.188218
#
# Coordination Sequence:
#
# PCOD8325850 Si02
#       6
#     6  12  12  12  12   6
#     4  10  20  38  60  95 128 167 218 282 340 396
#     4  12  18  37  64  98 129 164 219 277 350 398
#     4  11  20  36  64 101 131 164 216 291 347 402
#     4  12  23  39  66  95 131 177 220 281 356 408
#     4  12  26  42  62  93 137 184 226 275 335 425
#     4  12  22  44  64  91 132 177 234 282 338 408
#
# _framework density 20.409331999999999
#
# number of rings (size 3 to 8) (size 9 to 14) (size 15 to 20)
#    0.000    0.400    7.000    3.600    0.000    1.600 
#    0.000    5.000    0.000    0.000    0.000    0.000 
#    0.000    0.000    0.000    0.000    0.000    0.000 
#
# Total GULP energy -743571.533953 kJ/mol
# GULP energy per Si atom -12392.858899 kJ/mol
# Density = 2.036288 g / cm^3
# Si number density = 20.409332 Si / 1000 Ang^3
#
#
#
# Elastic Constant Matrix: (Units=GPa)
#
#
# Indices 1 2 3 4 5 6 
#
# 1 81.5639 25.5681 48.4848 0.0000 0.0000 0.0000
# 2 25.5681 81.5639 48.4848 0.0000 0.0000 0.0000
# 3 48.4848 48.4848 138.8414 0.0000 0.0000 0.0000
# 4 0.0000 0.0000 0.0000 18.8524 0.0000 0.0000
# 5 0.0000 0.0000 0.0000 0.0000 18.8524 0.0000
# 6 0.0000 0.0000 0.0000 0.0000 0.0000 27.9979
#
#
#
# Elastic Compliance Matrix: (Units=1/GPa)
#
#
# Indices 1 2 3 4 5 6 
#
# 1 0.015753 -0.002105 -0.004766 0.000000 0.000000 0.000000
# 2 -0.002105 0.015753 -0.004766 0.000000 0.000000 0.000000
# 3 -0.004766 -0.004766 0.010531 0.000000 0.000000 0.000000
# 4 0.000000 0.000000 0.000000 0.053044 0.000000 0.000000
# 5 0.000000 0.000000 0.000000 0.000000 0.053044 0.000000
# 6 0.000000 0.000000 0.000000 0.000000 0.000000 0.035717
#
#
# Mechanical properties :
#
#
# Convention : Reuss Voigt Hill
#
# Bulk Modulus (GPa) = 53.29547 60.78274 57.03910
# Shear Modulus (GPa) = 23.43333 25.10263 24.26798
#
# Velocity S-wave (km/s) = 3.39214 3.51088 3.45202
# Velocity P-wave (km/s) = 6.44299 6.80305 6.62547
#
# Compressibility (1/GPa) = 0.01876332
#
# Stress axis : x y z
#
# Youngs Moduli (GPa) = 63.47834 63.47834 94.95571
#
# Poissons Ratio (x) = 0.13363 0.45257
# Poissons Ratio (y) = 0.13363 0.45257
# Poissons Ratio (z) = 0.30255 0.30255
#
# Static dielectric constant tensor:
#      x y z
#    x 3.753200 0.000000 0.000000 
#    y 0.000000 3.753200 0.000000 
#    z 0.000000 0.000000 4.150370 
# 
# 
# High freq. dielectric constant tensor:
#      x y z
#    x 1.785650 0.000000 0.000000 
#    y 0.000000 1.785650 0.000000 
#    z 0.000000 0.000000 1.803500 
# 
# From -- ./inp_files/5741.got.cif
#   From: 2010.03.12/outbox.cif.g09.slc.cpg/sg178_3_cif.got.tgz:5741.got - 2010.04.02 07:02:38.
