data_PCOD8325667
_publ_section_title
;
Structure prediction by ZEFSAII (Michael W. Deem and Ramdas Pophale) SiO2 
 PCOD8325667
Probable space group: P 63/M
;
_chemical_formula_sum "Si O2"
_cell_formula_units_Z 70
_cell_length_a 15.210570
_cell_length_b 15.210570
_cell_length_c 18.367341
_cell_angle_alpha 90.000000
_cell_angle_beta 90.000000
_cell_angle_gamma 120.000000
_cell_volume 3680.170154
_symmetry_space_group_name_H-M "P 63/M"
_symmetry_group_IT_number 176
_symmetry_cell_setting 'hexagonal'
loop_
_space_group_symop_operation_xyz
x,y,z
x-y,x,1/2+z
-y,x-y,z
-x,-y,1/2+z
-x+y,-x,z
y,-x+y,1/2+z
-x,-y,-z
-x+y,-x,1/2-z
y,-x+y,-z
x,y,1/2-z
x-y,x,-z
-y,x-y,1/2-z
loop_
_atom_site_type_symbol
_atom_site_label
_atom_site_fract_x
_atom_site_fract_y
_atom_site_fract_z
Si Si1 0.454872 0.133054 0.386770
Si Si2 0.000000 0.000000 0.414526
Si Si3 0.108100 0.879368 0.101542
Si Si4 0.389041 0.382322 0.750000
Si Si5 0.843117 0.181644 0.750000
Si Si6 0.466596 0.343668 0.112818
Si Si7 0.007700 0.302995 0.003713
Si Si8 0.595769 0.580173 0.750000
O O1 0.392180 0.059214 0.320656
O O2 0.470894 0.242941 0.370202
O O3 0.564404 0.144506 0.395780
O O4 0.391790 0.089481 0.461166
O O5 0.078033 0.965586 0.386642
O O6 0.000000 0.000000 0.500000
O O7 0.105980 0.836296 0.180309
O O8 0.219257 0.924828 0.067168
O O9 0.025402 0.790651 0.050791
O O10 0.388430 0.277140 0.750000
O O11 0.506792 0.465023 0.750000
O O12 0.876202 0.300417 0.750000
O O13 0.409008 0.361233 0.179043
O O14 0.408566 0.334453 0.037891
#
# Coordination Sequence:
#
# PCOD8325667 Si02
#       8
#    12   4  12   6   6  12  12   6
#     4  11  23  40  63  91 124 161 207 260 317 376
#     4  12  24  40  59  97 138 166 215 253 309 358
#     4  12  24  40  65  93 129 175 211 262 307 377
#     4  10  23  41  64  93 125 161 207 261 314 384
#     4  12  24  44  68  92 128 170 216 254 320 384
#     4  11  23  40  63  91 124 161 207 260 317 376
#     4  12  21  39  64  92 124 166 210 257 315 368
#     4  10  23  41  64  93 125 161 207 261 314 384
#
# _framework density 19.020859999999999
#
# number of rings (size 3 to 8) (size 9 to 14) (size 15 to 20)
#    0.000    0.686    6.857    1.371    0.000    0.686 
#    3.600    1.714    0.000    0.000    0.000    0.000 
#    0.000    0.000    0.000    0.000    0.000    0.000 
#
# Total GULP energy -868411.743336 kJ/mol
# GULP energy per Si atom -12405.882048 kJ/mol
# Density = 1.897757 g / cm^3
# Si number density = 19.020860 Si / 1000 Ang^3
#
#
#
# Elastic Constant Matrix: (Units=GPa)
#
#
# Indices 1 2 3 4 5 6 
#
# 1 108.0805 48.8694 34.7254 0.0000 0.0000 0.0000
# 2 48.8694 108.0805 34.7254 0.0000 0.0000 0.0000
# 3 34.7254 34.7254 96.5478 0.0000 0.0000 0.0000
# 4 0.0000 0.0000 0.0000 20.6604 0.0000 0.0000
# 5 0.0000 0.0000 0.0000 0.0000 20.6604 0.0000
# 6 0.0000 0.0000 0.0000 0.0000 0.0000 29.6055
#
#
#
# Elastic Compliance Matrix: (Units=1/GPa)
#
#
# Indices 1 2 3 4 5 6 
#
# 1 0.012233 -0.004656 -0.002725 0.000000 0.000000 0.000000
# 2 -0.004656 0.012233 -0.002725 0.000000 0.000000 0.000000
# 3 -0.002725 -0.002725 0.012318 0.000000 0.000000 0.000000
# 4 0.000000 0.000000 0.000000 0.048402 0.000000 0.000000
# 5 0.000000 0.000000 0.000000 0.000000 0.048402 0.000000
# 6 0.000000 0.000000 0.000000 0.000000 0.000000 0.033777
#
#
# Mechanical properties :
#
#
# Convention : Reuss Voigt Hill
#
# Bulk Modulus (GPa) = 60.34491 61.03880 60.69186
# Shear Modulus (GPa) = 25.89309 27.14452 26.51881
#
# Velocity S-wave (km/s) = 3.69358 3.78179 3.73794
# Velocity P-wave (km/s) = 7.06998 7.15747 7.11386
#
# Compressibility (1/GPa) = 0.01657140
#
# Stress axis : x y z
#
# Youngs Moduli (GPa) = 81.74549 81.74549 81.18166
#
# Poissons Ratio (x) = 0.38058 0.22125
# Poissons Ratio (y) = 0.38058 0.22125
# Poissons Ratio (z) = 0.22279 0.22279
#
# Static dielectric constant tensor:
#      x y z
#    x 2.675100 0.000000 0.000000 
#    y 0.000000 2.675100 0.000000 
#    z 0.000000 0.000000 3.587050 
# 
# 
# High freq. dielectric constant tensor:
#      x y z
#    x 1.744070 0.000000 0.000000 
#    y 0.000000 1.744070 0.000000 
#    z 0.000000 0.000000 1.748870 
# 
# From -- ./inp_files/3425.got.cif
#   From: 2010.06.25/outbox.cif.g09.slc.cpg/sg176_2_cif.got.tgz:3425.got - 2010.06.28 12:15:01.
