data_PCOD8325132
_publ_section_title
;
Structure prediction by ZEFSAII (Michael W. Deem and Ramdas Pophale) SiO2 
 PCOD8325132
Probable space group: P 6/M
;
_chemical_formula_sum "Si O2"
_cell_formula_units_Z 84
_cell_length_a 14.726201
_cell_length_b 14.726201
_cell_length_c 21.303235
_cell_angle_alpha 90.000000
_cell_angle_beta 90.000000
_cell_angle_gamma 120.000000
_cell_volume 4000.899458
_symmetry_space_group_name_H-M "P 6/M"
_symmetry_group_IT_number 175
_symmetry_cell_setting 'hexagonal'
loop_
_space_group_symop_operation_xyz
x,y,z
x-y,x,z
-y,x-y,z
-x,-y,z
-x+y,-x,z
y,-x+y,z
-x,-y,-z
-x+y,-x,-z
y,-x+y,-z
x,y,-z
x-y,x,-z
-y,x-y,-z
loop_
_atom_site_type_symbol
_atom_site_label
_atom_site_fract_x
_atom_site_fract_y
_atom_site_fract_z
Si Si1 0.757592 0.535747 0.570655
Si Si2 0.149576 0.233365 0.593706
Si Si3 0.147537 0.233945 0.742185
Si Si4 0.122262 0.547927 0.787976
Si Si5 0.106645 0.862673 0.072816
Si Si6 0.877286 0.455718 0.356693
Si Si7 0.577784 0.805122 0.172841
O O1 0.755775 0.495159 0.500000
O O2 0.774363 0.651963 0.566768
O O3 0.852040 0.540433 0.611998
O O4 0.649442 0.458934 0.604418
O O5 0.189858 0.157455 0.568244
O O6 0.152559 0.237636 0.668228
O O7 0.189498 0.159215 0.768285
O O8 0.219931 0.351073 0.767518
O O9 0.159680 0.564967 0.715547
O O10 0.147253 0.465361 0.821102
O O11 0.178152 0.656091 0.826874
O O12 0.000000 0.500000 0.791948
O O13 0.153004 0.799721 0.110012
O O14 0.985238 0.816486 0.090706
O O15 0.119801 0.845885 0.000000
O O16 0.000000 0.500000 0.363447
#
# Coordination Sequence:
#
# PCOD8325132 Si02
#       7
#    12  12  12  12  12  12  12
#     4  12  25  40  60  84 110 145 191 240 294 360
#     4  10  21  37  57  83 116 153 191 234 291 361
#     4  10  19  33  56  86 118 150 188 241 305 369
#     4  11  23  39  61  87 114 150 196 246 301 355
#     4  10  21  39  65  98 135 171 203 237 282 338
#     4  11  24  42  62  84 112 145 186 242 305 359
#     4  12  23  38  59  87 122 159 204 251 294 342
#
# _framework density 20.995277999999999
#
# number of rings (size 3 to 8) (size 9 to 14) (size 15 to 20)
#    0.000    1.143    0.000    7.429    0.000    9.143 
#    0.000    2.143    0.000    3.429    0.000    0.000 
#    0.000    0.000    0.000    0.000    0.000    0.000 
#
# Total GULP energy -1042006.828956 kJ/mol
# GULP energy per Si atom -12404.843202 kJ/mol
# Density = 2.094749 g / cm^3
# Si number density = 20.995278 Si / 1000 Ang^3
#
#
#
# Elastic Constant Matrix: (Units=GPa)
#
#
# Indices 1 2 3 4 5 6 
#
# 1 87.3653 1.0578 34.6421 0.0000 0.0000 0.0000
# 2 1.0578 87.3653 34.6421 0.0000 0.0000 0.0000
# 3 34.6421 34.6421 109.3549 0.0000 0.0000 0.0000
# 4 0.0000 0.0000 0.0000 288.8425 0.0000 0.0000
# 5 0.0000 0.0000 0.0000 0.0000 288.8426 0.0000
# 6 0.0000 0.0000 0.0000 0.0000 0.0000 43.1537
#
#
#
# Elastic Compliance Matrix: (Units=1/GPa)
#
#
# Indices 1 2 3 4 5 6 
#
# 1 0.013315 0.001728 -0.004765 0.000000 0.000000 0.000000
# 2 0.001728 0.013315 -0.004765 0.000000 0.000000 0.000000
# 3 -0.004765 -0.004765 0.012164 0.000000 0.000000 0.000000
# 4 0.000000 0.000000 0.000000 0.003462 0.000000 0.000000
# 5 0.000000 0.000000 0.000000 0.000000 0.003462 0.000000
# 6 0.000000 0.000000 0.000000 0.000000 0.000000 0.023173
#
#
# Mechanical properties :
#
#
# Convention : Reuss Voigt Hill
#
# Bulk Modulus (GPa) = 43.12501 47.19659 45.16080
# Shear Modulus (GPa) = 54.21502 138.41734 96.31618
#
# Velocity S-wave (km/s) = 5.08710 8.12840 6.78047
# Velocity P-wave (km/s) = 7.42224 10.51775 9.10255
#
# Compressibility (1/GPa) = 0.02318840
#
# Stress axis : x y z
#
# Youngs Moduli (GPa) = 75.10394 75.10394 82.21107
#
# Poissons Ratio (x) = -0.12981 0.39178
# Poissons Ratio (y) = -0.12981 0.39178
# Poissons Ratio (z) = 0.35791 0.35791
#
# Static dielectric constant tensor:
#      x y z
#    x 3.924090 0.000000 0.000000 
#    y 0.000000 3.924090 0.000000 
#    z 0.000000 0.000000 3.711680 
# 
# 
# High freq. dielectric constant tensor:
#      x y z
#    x 1.831350 0.000000 0.000000 
#    y 0.000000 1.831350 0.000000 
#    z 0.000000 0.000000 1.811240 
# 
# From -- ./inp_files/3252.got.cif
#   From: 2010.03.12/outbox.cif.g09.slc.cpg/sg175_2_cif.got.tgz:3252.got - 2010.04.02 06:55:29.
