data_PCOD8325951
_publ_section_title
;
Structure prediction by ZEFSAII (Michael W. Deem and Ramdas Pophale) SiO2 
 PCOD8325951
Probable space group: P 61 2 2
;
_chemical_formula_sum "Si O2"
_cell_formula_units_Z 96
_cell_length_a 22.081975
_cell_length_b 22.081975
_cell_length_c 18.562176
_cell_angle_alpha 90.000000
_cell_angle_beta 90.000000
_cell_angle_gamma 120.000000
_cell_volume 7838.543009
_symmetry_space_group_name_H-M "P 61 2 2"
_symmetry_group_IT_number 178
_symmetry_cell_setting 'hexagonal'
loop_
_space_group_symop_operation_xyz
x,y,z
x-y,x,1/6+z
-y,x-y,1/3+z
-x,-y,1/2+z
-x+y,-x,2/3+z
y,-x+y,5/6+z
x-y,-y,-z
-x,-x+y,2/3-z
y,x,1/3-z
-y,-x,5/6-z
-x+y,y,1/2-z
x,x-y,1/6-z
loop_
_atom_site_type_symbol
_atom_site_label
_atom_site_fract_x
_atom_site_fract_y
_atom_site_fract_z
Si Si1 0.762739 0.477178 0.458644
Si Si2 0.908516 0.505597 0.685926
Si Si3 0.778520 0.353941 0.394850
Si Si4 0.635050 0.205720 0.603677
Si Si5 0.096669 0.461701 0.028727
Si Si6 0.439549 0.056498 0.692565
Si Si7 0.939817 0.520616 0.986632
Si Si8 0.502402 0.796319 0.148634
O O1 0.763396 0.407600 0.437309
O O2 0.707649 0.454605 0.523148
O O3 0.838599 0.537802 0.487651
O O4 0.744277 0.509175 0.390563
O O5 0.853787 0.489795 0.750068
O O6 0.891607 0.537220 0.614945
O O7 0.905311 0.434904 0.662248
O O8 0.985867 0.561287 0.716473
O O9 0.724079 0.275922 0.416667
O O10 0.770349 0.363305 0.310767
O O11 0.620470 0.126230 0.600664
O O12 0.574918 0.213488 0.644447
O O13 0.020715 0.393619 0.008115
O O14 0.508674 0.054053 0.676054
O O15 0.442379 0.072705 0.777710
O O16 0.440042 0.120222 0.648302
O O17 0.519506 0.759753 0.083334
#
# Coordination Sequence:
#
# PCOD8325951 Si02
#       8
#    12  12  12  12  12  12  12  12
#     4  11  20  29  40  54  73  91 120 148 184 233
#     4   8  15  28  41  54  69  89 117 144 174 215
#     4  11  21  28  36  53  75  94 114 145 187 228
#     4  11  20  28  40  54  70  95 116 146 188 225
#     4   8  15  28  43  54  67  94 117 142 176 219
#     4   8  14  27  43  54  68  90 119 141 176 221
#     4   8  14  26  43  54  65  89 118 145 173 215
#     4  11  19  29  39  57  72  93 116 151 186 225
#
# _framework density 12.247173999999999
#
# number of rings (size 3 to 8) (size 9 to 14) (size 15 to 20)
#    0.000    2.500    2.500    3.375    0.000    1.500 
#    0.000    0.625    0.000    0.000    0.000    0.000 
#    0.000    0.000    0.000    0.000    0.000    0.000 
#
# Total GULP energy -1189409.706649 kJ/mol
# GULP energy per Si atom -12389.684444 kJ/mol
# Density = 1.221930 g / cm^3
# Si number density = 12.247174 Si / 1000 Ang^3
#
#
#
# Elastic Constant Matrix: (Units=GPa)
#
#
# Indices 1 2 3 4 5 6 
#
# 1 56.0618 34.9920 26.9240 0.0000 0.0000 0.0000
# 2 34.9920 56.0618 26.9240 0.0000 0.0000 0.0000
# 3 26.9240 26.9240 50.7056 0.0000 0.0000 0.0000
# 4 0.0000 0.0000 0.0000 16.7503 0.0000 0.0000
# 5 0.0000 0.0000 0.0000 0.0000 16.7503 0.0000
# 6 0.0000 0.0000 0.0000 0.0000 0.0000 10.5349
#
#
#
# Elastic Compliance Matrix: (Units=1/GPa)
#
#
# Indices 1 2 3 4 5 6 
#
# 1 0.031736 -0.015726 -0.008501 0.000000 0.000000 0.000000
# 2 -0.015726 0.031736 -0.008501 0.000000 0.000000 0.000000
# 3 -0.008501 -0.008501 0.028750 0.000000 0.000000 0.000000
# 4 0.000000 0.000000 0.000000 0.059700 0.000000 0.000000
# 5 0.000000 0.000000 0.000000 0.000000 0.059700 0.000000
# 6 0.000000 0.000000 0.000000 0.000000 0.000000 0.094923
#
#
# Mechanical properties :
#
#
# Convention : Reuss Voigt Hill
#
# Bulk Modulus (GPa) = 37.36194 37.83436 37.59815
# Shear Modulus (GPa) = 13.12606 13.73971 13.43289
#
# Velocity S-wave (km/s) = 3.27733 3.35306 3.31541
# Velocity P-wave (km/s) = 6.70030 6.77865 6.73959
#
# Compressibility (1/GPa) = 0.02676520
#
# Stress axis : x y z
#
# Youngs Moduli (GPa) = 31.51032 31.51032 34.78310
#
# Poissons Ratio (x) = 0.49552 0.29569
# Poissons Ratio (y) = 0.49552 0.29569
# Poissons Ratio (z) = 0.26787 0.26787
#
# Static dielectric constant tensor:
#      x y z
#    x 2.588550 0.000000 0.000000 
#    y 0.000000 2.588550 0.000000 
#    z 0.000000 0.000000 2.541210 
# 
# 
# High freq. dielectric constant tensor:
#      x y z
#    x 1.433990 0.000000 0.000000 
#    y 0.000000 1.433990 0.000000 
#    z 0.000000 0.000000 1.466440 
# 
# From -- ./inp_files/7022.got.cif
#   From: 2010.03.12/outbox.cif.g09.slc.cpg/sg178_4_cif.got.tgz:7022.got - 2010.04.02 07:02:38.
