data_PCOD8325186
_publ_section_title
;
Structure prediction by ZEFSAII (Michael W. Deem and Ramdas Pophale) SiO2 
 PCOD8325186
Probable space group: P 6/M
;
_chemical_formula_sum "Si O2"
_cell_formula_units_Z 90
_cell_length_a 26.451818
_cell_length_b 26.451818
_cell_length_c 8.883583
_cell_angle_alpha 90.000000
_cell_angle_beta 90.000000
_cell_angle_gamma 120.000000
_cell_volume 5383.067776
_symmetry_space_group_name_H-M "P 6/M"
_symmetry_group_IT_number 175
_symmetry_cell_setting 'hexagonal'
loop_
_space_group_symop_operation_xyz
x,y,z
x-y,x,z
-y,x-y,z
-x,-y,z
-x+y,-x,z
y,-x+y,z
-x,-y,-z
-x+y,-x,-z
y,-x+y,-z
x,y,-z
x-y,x,-z
-y,x-y,-z
loop_
_atom_site_type_symbol
_atom_site_label
_atom_site_fract_x
_atom_site_fract_y
_atom_site_fract_z
Si Si1 0.215529 0.662418 0.679251
Si Si2 0.138540 0.061053 0.000000
Si Si3 0.830290 0.572752 0.326440
Si Si4 0.868238 0.748274 0.834354
Si Si5 0.239018 0.934179 0.673132
Si Si6 0.555065 0.331014 0.675422
Si Si7 0.433168 0.154738 0.176936
Si Si8 0.933676 0.252933 0.675812
O O1 0.209694 0.662436 0.500000
O O2 0.208943 0.602217 0.745673
O O3 0.278219 0.714676 0.735638
O O4 0.164831 0.671654 0.749605
O O5 0.101680 0.094086 0.000000
O O6 0.181036 0.080139 0.852303
O O7 0.810865 0.571215 0.500000
O O8 0.894563 0.625966 0.295601
O O9 0.827149 0.511202 0.288057
O O10 0.786230 0.581650 0.222680
O O11 0.916371 0.733606 0.773941
O O12 0.814045 0.722640 0.722305
O O13 0.846812 0.718931 0.000000
O O14 0.219896 0.929933 0.500000
O O15 0.287630 0.998686 0.717825
O O16 0.568231 0.337082 0.500000
O O17 0.379954 0.094134 0.235418
O O18 0.438876 0.152832 0.000000
O O19 0.921413 0.253729 0.500000
#
# Coordination Sequence:
#
# PCOD8325186 Si02
#       8
#    12   6  12  12  12  12  12  12
#     4   9  16  29  49  73 101 133 170 212 255 307
#     4  10  21  36  54  76 106 142 176 210 250 304
#     4   9  17  32  51  74 101 129 163 209 257 310
#     4  10  21  33  52  76 106 130 164 209 256 303
#     4  10  20  33  53  77 103 133 165 207 260 309
#     4   8  14  25  47  73  97 127 165 205 251 300
#     4  11  21  32  47  72 100 135 170 208 256 308
#     4  11  21  34  52  75 102 134 169 208 257 308
#
# _framework density 16.719090999999999
#
# number of rings (size 3 to 8) (size 9 to 14) (size 15 to 20)
#    0.400    1.867    1.333    3.933    0.000    1.600 
#    0.000    2.667    0.000    0.800    0.000    5.600 
#    0.000    6.400    0.000    0.000    0.000    0.000 
#
# Total GULP energy -1115641.907826 kJ/mol
# GULP energy per Si atom -12396.021198 kJ/mol
# Density = 1.668104 g / cm^3
# Si number density = 16.719091 Si / 1000 Ang^3
#
#
#
# Elastic Constant Matrix: (Units=GPa)
#
#
# Indices 1 2 3 4 5 6 
#
# 1 108.5387 51.4711 28.1498 0.0000 0.0000 0.0000
# 2 51.4711 108.5387 28.1498 0.0000 0.0000 0.0000
# 3 28.1498 28.1498 57.8150 0.0000 0.0000 0.0000
# 4 0.0000 0.0000 0.0000 15.5927 0.0000 0.0000
# 5 0.0000 0.0000 0.0000 0.0000 15.5927 0.0000
# 6 0.0000 0.0000 0.0000 0.0000 0.0000 28.5338
#
#
#
# Elastic Compliance Matrix: (Units=1/GPa)
#
#
# Indices 1 2 3 4 5 6 
#
# 1 0.012532 -0.004991 -0.003672 0.000000 0.000000 0.000000
# 2 -0.004991 0.012532 -0.003672 0.000000 0.000000 0.000000
# 3 -0.003672 -0.003672 0.020872 0.000000 0.000000 0.000000
# 4 0.000000 0.000000 0.000000 0.064133 0.000000 0.000000
# 5 0.000000 0.000000 0.000000 0.000000 0.064133 0.000000
# 6 0.000000 0.000000 0.000000 0.000000 0.000000 0.035046
#
#
# Mechanical properties :
#
#
# Convention : Reuss Voigt Hill
#
# Bulk Modulus (GPa) = 47.01984 54.49264 50.75624
# Shear Modulus (GPa) = 20.74629 23.08527 21.91578
#
# Velocity S-wave (km/s) = 3.52643 3.71991 3.62446
# Velocity P-wave (km/s) = 6.69070 7.14941 6.92385
#
# Compressibility (1/GPa) = 0.02126762
#
# Stress axis : x y z
#
# Youngs Moduli (GPa) = 79.79352 79.79352 47.91046
#
# Poissons Ratio (x) = 0.39823 0.17593
# Poissons Ratio (y) = 0.39823 0.17593
# Poissons Ratio (z) = 0.29300 0.29300
#
# Static dielectric constant tensor:
#      x y z
#    x 3.202540 0.000000 0.000000 
#    y 0.000000 3.202540 0.000000 
#    z 0.000000 0.000000 2.982150 
# 
# 
# High freq. dielectric constant tensor:
#      x y z
#    x 1.637800 0.000000 0.000000 
#    y 0.000000 1.637800 0.000000 
#    z 0.000000 0.000000 1.628590 
# 
# From -- ./inp_files/1451.got.cif
#   From: 2010.03.12/outbox.cif.g09.slc.cpg/sg175_1_cif.got.tgz:1451.got - 2010.04.02 06:55:29.
