data_PCOD8325840
_publ_section_title
;
Structure prediction by ZEFSAII (Michael W. Deem and Ramdas Pophale) SiO2 
 PCOD8325840
Probable space group: P 61 2 2
;
_chemical_formula_sum "Si O2"
_cell_formula_units_Z 54
_cell_length_a 12.265657
_cell_length_b 12.265657
_cell_length_c 16.589563
_cell_angle_alpha 90.000000
_cell_angle_beta 90.000000
_cell_angle_gamma 120.000000
_cell_volume 2161.460032
_symmetry_space_group_name_H-M "P 61 2 2"
_symmetry_group_IT_number 178
_symmetry_cell_setting 'hexagonal'
loop_
_space_group_symop_operation_xyz
x,y,z
x-y,x,1/6+z
-y,x-y,1/3+z
-x,-y,1/2+z
-x+y,-x,2/3+z
y,-x+y,5/6+z
x-y,-y,-z
-x,-x+y,2/3-z
y,x,1/3-z
-y,-x,5/6-z
-x+y,y,1/2-z
x,x-y,1/6-z
loop_
_atom_site_type_symbol
_atom_site_label
_atom_site_fract_x
_atom_site_fract_y
_atom_site_fract_z
Si Si1 0.708469 0.629909 0.916418
Si Si2 0.609600 0.084552 0.087633
Si Si3 0.730042 0.869402 0.994683
Si Si4 0.705982 0.352991 0.083334
Si Si5 0.353828 0.893201 0.117951
O O1 0.644924 0.627712 0.831638
O O2 0.610541 0.528158 0.980488
O O3 0.756213 0.767307 0.954644
O O4 0.825734 0.604143 0.902821
O O5 0.612741 0.210241 0.055875
O O6 0.480586 0.955123 0.060868
O O7 0.739252 0.094111 0.060689
O O8 0.666069 0.833035 0.083334
O O9 0.864250 0.000000 0.000000
O O10 0.793124 0.434498 0.010354
#
# Coordination Sequence:
#
# PCOD8325840 Si02
#       5
#    12  12  12   6  12
#     4  11  20  40  65  97 138 183 241 297 363 441
#     4  11  21  39  62  94 142 179 237 298 355 442
#     4  12  22  38  65 101 138 184 248 309 355 420
#     4  10  20  36  64  90 132 172 232 278 366 424
#     4  11  21  40  68  99 137 190 235 302 368 442
#
# _framework density 24.983114
#
# number of rings (size 3 to 8) (size 9 to 14) (size 15 to 20)
#    0.000    0.889    8.889    0.000    0.000    0.000 
#    4.000    0.000    7.333    0.000    0.000    0.000 
#    0.000    0.000    0.000    0.000    0.000    0.000 
#
# Total GULP energy -669035.506527 kJ/mol
# GULP energy per Si atom -12389.546417 kJ/mol
# Density = 2.492625 g / cm^3
# Si number density = 24.983114 Si / 1000 Ang^3
#
#
#
# Elastic Constant Matrix: (Units=GPa)
#
#
# Indices 1 2 3 4 5 6 
#
# 1 149.9633 38.7159 -13.6603 0.0000 0.0000 0.0000
# 2 38.7159 149.9633 -13.6603 0.0000 0.0000 0.0000
# 3 -13.6603 -13.6603 25.5992 0.0000 0.0000 0.0000
# 4 0.0000 0.0000 0.0000 15.2340 0.0000 0.0000
# 5 0.0000 0.0000 0.0000 0.0000 15.2340 0.0000
# 6 0.0000 0.0000 0.0000 0.0000 0.0000 55.6237
#
#
#
# Elastic Compliance Matrix: (Units=1/GPa)
#
#
# Indices 1 2 3 4 5 6 
#
# 1 0.007366 -0.001623 0.003065 0.000000 0.000000 0.000000
# 2 -0.001623 0.007366 0.003065 0.000000 0.000000 0.000000
# 3 0.003065 0.003065 0.042335 0.000000 0.000000 0.000000
# 4 0.000000 0.000000 0.000000 0.065642 0.000000 0.000000
# 5 0.000000 0.000000 0.000000 0.000000 0.065642 0.000000
# 6 0.000000 0.000000 0.000000 0.000000 0.000000 0.017978
#
#
# Mechanical properties :
#
#
# Convention : Reuss Voigt Hill
#
# Bulk Modulus (GPa) = 15.13259 38.70182 26.91721
# Shear Modulus (GPa) = 22.79534 38.16039 30.47787
#
# Velocity S-wave (km/s) = 3.02392 3.91250 3.49655
# Velocity P-wave (km/s) = 4.27346 5.99458 5.20564
#
# Compressibility (1/GPa) = 0.06608252
#
# Stress axis : x y z
#
# Youngs Moduli (GPa) = 135.75164 135.75164 23.62123
#
# Poissons Ratio (x) = 0.22027 -0.07240
# Poissons Ratio (y) = 0.22027 -0.07240
# Poissons Ratio (z) = -0.41608 -0.41608
#
# Static dielectric constant tensor:
#      x y z
#    x 4.950580 0.000000 0.000000 
#    y 0.000000 4.950580 0.000000 
#    z 0.000000 0.000000 4.667950 
# 
# 
# High freq. dielectric constant tensor:
#      x y z
#    x 1.994160 0.000000 0.000000 
#    y 0.000000 1.994160 0.000000 
#    z 0.000000 0.000000 1.995890 
# 
# From -- ./inp_files/7413.got.cif
#   From: 2010.03.12/outbox.cif.g09.slc.cpg/sg178_4_cif.got.tgz:7413.got - 2010.04.02 07:02:38.
