data_PCOD8325347
_publ_section_title
;
Structure prediction by ZEFSAII (Michael W. Deem and Ramdas Pophale) SiO2 
 PCOD8325347
Probable space group: P 6/M
;
_chemical_formula_sum "Si O2"
_cell_formula_units_Z 36
_cell_length_a 10.345030
_cell_length_b 10.345030
_cell_length_c 16.341296
_cell_angle_alpha 90.000000
_cell_angle_beta 90.000000
_cell_angle_gamma 120.000000
_cell_volume 1514.539614
_symmetry_space_group_name_H-M "P 6/M"
_symmetry_group_IT_number 175
_symmetry_cell_setting 'hexagonal'
loop_
_space_group_symop_operation_xyz
x,y,z
x-y,x,z
-y,x-y,z
-x,-y,z
-x+y,-x,z
y,-x+y,z
-x,-y,-z
-x+y,-x,-z
y,-x+y,-z
x,y,-z
x-y,x,-z
-y,x-y,-z
loop_
_atom_site_type_symbol
_atom_site_label
_atom_site_fract_x
_atom_site_fract_y
_atom_site_fract_z
Si Si1 0.748537 0.665268 0.829424
Si Si2 0.000000 0.500000 0.288698
Si Si3 0.696223 0.512981 0.000000
Si Si4 0.746719 0.079312 0.406317
O O1 0.719256 0.800372 0.810404
O O2 0.640227 0.531299 0.768927
O O3 0.710103 0.611727 0.922284
O O4 0.107486 0.468560 0.347294
O O5 0.534467 0.359631 0.000000
O O6 0.720654 0.916383 0.385973
O O7 0.707361 0.092650 0.500000
#
# Coordination Sequence:
#
# PCOD8325347 Si02
#       4
#    12   6   6  12
#     4  12  26  47  74 104 140 186 243 299 352 412
#     4  12  25  41  64 100 146 186 224 281 359 426
#     4  10  24  46  76 107 146 186 229 280 350 419
#     4  10  22  45  75 105 137 179 235 295 354 421
#
# _framework density 23.769597999999998
#
# number of rings (size 3 to 8) (size 9 to 14) (size 15 to 20)
#    0.333    0.667    0.000    6.167    0.000    3.333 
#   16.000    5.000    0.000    0.000    0.000    0.000 
#    0.000    0.000    0.000    0.000    0.000    0.000 
#
# Total GULP energy -446503.040447 kJ/mol
# GULP energy per Si atom -12402.862235 kJ/mol
# Density = 2.371550 g / cm^3
# Si number density = 23.769598 Si / 1000 Ang^3
#
#
#
# Elastic Constant Matrix: (Units=GPa)
#
#
# Indices 1 2 3 4 5 6 
#
# 1 133.0897 62.7033 68.7536 0.0000 0.0000 0.0000
# 2 62.7033 133.0897 68.7536 0.0000 0.0000 0.0000
# 3 68.7536 68.7536 143.0819 0.0000 0.0000 0.0000
# 4 0.0000 0.0000 0.0000 39.6926 0.0000 0.0000
# 5 0.0000 0.0000 0.0000 0.0000 39.6926 0.0000
# 6 0.0000 0.0000 0.0000 0.0000 0.0000 35.1932
#
#
#
# Elastic Compliance Matrix: (Units=1/GPa)
#
#
# Indices 1 2 3 4 5 6 
#
# 1 0.010958 -0.003249 -0.003704 0.000000 0.000000 0.000000
# 2 -0.003249 0.010958 -0.003704 0.000000 0.000000 0.000000
# 3 -0.003704 -0.003704 0.010549 0.000000 0.000000 0.000000
# 4 0.000000 0.000000 0.000000 0.025194 0.000000 0.000000
# 5 0.000000 0.000000 0.000000 0.000000 0.025194 0.000000
# 6 0.000000 0.000000 0.000000 0.000000 0.000000 0.028415
#
#
# Mechanical properties :
#
#
# Convention : Reuss Voigt Hill
#
# Bulk Modulus (GPa) = 89.68835 89.96472 89.82653
# Shear Modulus (GPa) = 36.68397 36.85239 36.76818
#
# Velocity S-wave (km/s) = 3.93277 3.94178 3.93728
# Velocity P-wave (km/s) = 7.64438 7.65818 7.65128
#
# Compressibility (1/GPa) = 0.01114972
#
# Stress axis : x y z
#
# Youngs Moduli (GPa) = 91.25620 91.25620 94.79562
#
# Poissons Ratio (x) = 0.29650 0.35115
# Poissons Ratio (y) = 0.29650 0.35115
# Poissons Ratio (z) = 0.33804 0.33804
#
# Static dielectric constant tensor:
#      x y z
#    x 4.285070 0.000000 0.000000 
#    y 0.000000 4.285070 0.000000 
#    z 0.000000 0.000000 4.548480 
# 
# 
# High freq. dielectric constant tensor:
#      x y z
#    x 1.936440 0.000000 0.000000 
#    y 0.000000 1.936440 0.000000 
#    z 0.000000 0.000000 1.973260 
# 
# From -- ./inp_files/2738.got.cif
#   From: 2010.03.12/outbox.cif.g09.slc.cpg/sg175_2_cif.got.tgz:2738.got - 2010.04.02 06:55:29.
