data_PCOD8325720
_publ_section_title
;
Structure prediction by ZEFSAII (Michael W. Deem and Ramdas Pophale) SiO2 
 PCOD8325720
Probable space group: P 63/M
;
_chemical_formula_sum "Si O2"
_cell_formula_units_Z 40
_cell_length_a 11.194206
_cell_length_b 11.194206
_cell_length_c 16.409251
_cell_angle_alpha 90.000000
_cell_angle_beta 90.000000
_cell_angle_gamma 120.000000
_cell_volume 1780.762408
_symmetry_space_group_name_H-M "P 63/M"
_symmetry_group_IT_number 176
_symmetry_cell_setting 'hexagonal'
loop_
_space_group_symop_operation_xyz
x,y,z
x-y,x,1/2+z
-y,x-y,z
-x,-y,1/2+z
-x+y,-x,z
y,-x+y,1/2+z
-x,-y,-z
-x+y,-x,1/2-z
y,-x+y,-z
x,y,1/2-z
x-y,x,-z
-y,x-y,1/2-z
loop_
_atom_site_type_symbol
_atom_site_label
_atom_site_fract_x
_atom_site_fract_y
_atom_site_fract_z
Si Si1 0.000000 0.000000 0.405180
Si Si2 0.094467 0.391400 0.413716
Si Si3 0.309245 0.179767 0.095415
Si Si4 0.447926 0.077157 0.841195
O O1 0.969760 0.849970 0.378260
O O2 0.000000 0.000000 0.500000
O O3 0.116228 0.343132 0.501554
O O4 0.210058 0.395253 0.354769
O O5 0.105927 0.540993 0.408693
O O6 0.938734 0.284411 0.383619
O O7 0.395648 0.317695 0.148761
O O8 0.508029 0.093557 0.750000
#
# Coordination Sequence:
#
# PCOD8325720 Si02
#       4
#     4  12  12  12
#     4  12  15  39  70 110 133 153 220 305 337 393
#     4  12  24  46  73 101 137 184 233 291 341 421
#     4  12  22  42  76 104 134 178 239 287 345 416
#     4  12  27  44  67 102 146 189 229 286 358 414
#
# _framework density 22.462288000000001
#
# number of rings (size 3 to 8) (size 9 to 14) (size 15 to 20)
#    0.000    0.000    9.000    2.400    0.000    2.400 
#    1.800    0.000    0.000    0.000    0.000    0.000 
#    0.000    0.000    0.000    0.000    0.000    0.000 
#
# Total GULP energy -495730.471438 kJ/mol
# GULP energy per Si atom -12393.261786 kJ/mol
# Density = 2.241116 g / cm^3
# Si number density = 22.462288 Si / 1000 Ang^3
#
#
#
# Elastic Constant Matrix: (Units=GPa)
#
#
# Indices 1 2 3 4 5 6 
#
# 1 127.4423 47.2008 33.5266 0.0000 0.0000 0.0000
# 2 47.2008 127.4423 33.5266 0.0000 0.0000 0.0000
# 3 33.5266 33.5266 67.9572 0.0000 0.0000 0.0000
# 4 0.0000 0.0000 0.0000 22.8276 0.0000 0.0000
# 5 0.0000 0.0000 0.0000 0.0000 22.8276 0.0000
# 6 0.0000 0.0000 0.0000 0.0000 0.0000 40.1207
#
#
#
# Elastic Compliance Matrix: (Units=1/GPa)
#
#
# Indices 1 2 3 4 5 6 
#
# 1 0.009763 -0.002699 -0.003485 0.000000 0.000000 0.000000
# 2 -0.002699 0.009763 -0.003485 0.000000 0.000000 0.000000
# 3 -0.003485 -0.003485 0.018154 0.000000 0.000000 0.000000
# 4 0.000000 0.000000 0.000000 0.043807 0.000000 0.000000
# 5 0.000000 0.000000 0.000000 0.000000 0.043807 0.000000
# 6 0.000000 0.000000 0.000000 0.000000 0.000000 0.024925
#
#
# Mechanical properties :
#
#
# Convention : Reuss Voigt Hill
#
# Bulk Modulus (GPa) = 54.52040 61.26108 57.89074
# Shear Modulus (GPa) = 28.46236 31.06104 29.76170
#
# Velocity S-wave (km/s) = 3.56352 3.72265 3.64395
# Velocity P-wave (km/s) = 6.42310 6.76827 6.59795
#
# Compressibility (1/GPa) = 0.01834176
#
# Stress axis : x y z
#
# Youngs Moduli (GPa) = 102.42544 102.42544 55.08485
#
# Poissons Ratio (x) = 0.27647 0.19197
# Poissons Ratio (y) = 0.27647 0.19197
# Poissons Ratio (z) = 0.35695 0.35695
#
# Static dielectric constant tensor:
#      x y z
#    x 4.140540 0.000000 0.000000 
#    y 0.000000 4.140540 0.000000 
#    z 0.000000 0.000000 3.743840 
# 
# 
# High freq. dielectric constant tensor:
#      x y z
#    x 1.893460 0.000000 0.000000 
#    y 0.000000 1.893460 0.000000 
#    z 0.000000 0.000000 1.849910 
# 
# From -- ./inp_files/3120.got.cif
#   From: 2010.06.25/outbox.cif.g09.slc.cpg/sg176_2_cif.got.tgz:3120.got - 2010.06.28 12:15:01.
