data_PCOD8325485
_publ_section_title
;
Structure prediction by ZEFSAII (Michael W. Deem and Ramdas Pophale) SiO2 
 PCOD8325485
Probable space group: P 63/M
;
_chemical_formula_sum "Si O2"
_cell_formula_units_Z 72
_cell_length_a 22.715617
_cell_length_b 22.715617
_cell_length_c 9.092429
_cell_angle_alpha 90.000000
_cell_angle_beta 90.000000
_cell_angle_gamma 120.000000
_cell_volume 4063.119779
_symmetry_space_group_name_H-M "P 63/M"
_symmetry_group_IT_number 176
_symmetry_cell_setting 'hexagonal'
loop_
_space_group_symop_operation_xyz
x,y,z
x-y,x,1/2+z
-y,x-y,z
-x,-y,1/2+z
-x+y,-x,z
y,-x+y,1/2+z
-x,-y,-z
-x+y,-x,1/2-z
y,-x+y,-z
x,y,1/2-z
x-y,x,-z
-y,x-y,1/2-z
loop_
_atom_site_type_symbol
_atom_site_label
_atom_site_fract_x
_atom_site_fract_y
_atom_site_fract_z
Si Si1 0.486432 0.402045 0.578322
Si Si2 0.402162 0.475297 0.578948
Si Si3 0.742411 0.741591 0.581625
Si Si4 0.267897 0.871737 0.575852
Si Si5 0.374868 0.124502 0.423041
Si Si6 0.870749 0.885620 0.920348
O O1 0.493998 0.394302 0.750000
O O2 0.433130 0.427056 0.541687
O O3 0.560026 0.455491 0.513688
O O4 0.460873 0.329776 0.501517
O O5 0.410998 0.494645 0.750000
O O6 0.323890 0.436041 0.529037
O O7 0.735441 0.718630 0.750000
O O8 0.671564 0.732389 0.522748
O O9 0.764841 0.696086 0.491059
O O10 0.797491 0.819936 0.561680
O O11 0.276317 0.871007 0.750000
O O12 0.198747 0.806021 0.522289
O O13 0.363853 0.117269 0.250000
O O14 0.886176 0.908462 0.750000
O O15 0.870062 0.942719 0.019769
#
# Coordination Sequence:
#
# PCOD8325485 Si02
#       6
#    12  12  12  12  12  12
#     4  10  19  32  53  80 107 137 173 216 263 311
#     4   9  18  33  53  78 106 138 175 216 262 310
#     4  10  21  35  52  77 107 139 175 218 271 320
#     4  10  20  34  53  78 110 143 176 218 263 313
#     4  10  20  35  55  79 109 145 181 219 263 314
#     4  11  23  39  56  75  98 132 177 226 276 326
#
# _framework density 17.720372999999999
#
# number of rings (size 3 to 8) (size 9 to 14) (size 15 to 20)
#    0.000    2.000    1.667    2.167    0.000    4.667 
#    0.000    0.000    0.000    0.667    0.000    2.333 
#    0.000    0.000    0.000    0.000    0.000    0.000 
#
# Total GULP energy -893097.186621 kJ/mol
# GULP energy per Si atom -12404.127592 kJ/mol
# Density = 1.768004 g / cm^3
# Si number density = 17.720373 Si / 1000 Ang^3
#
#
#
# Elastic Constant Matrix: (Units=GPa)
#
#
# Indices 1 2 3 4 5 6 
#
# 1 79.7555 22.6368 24.1684 0.0000 0.0000 0.0000
# 2 22.6368 79.7555 24.1684 0.0000 0.0000 0.0000
# 3 24.1684 24.1684 41.4057 0.0000 0.0000 0.0000
# 4 0.0000 0.0000 0.0000 27.7606 0.0000 0.0000
# 5 0.0000 0.0000 0.0000 0.0000 27.7606 0.0000
# 6 0.0000 0.0000 0.0000 0.0000 0.0000 28.5593
#
#
#
# Elastic Compliance Matrix: (Units=1/GPa)
#
#
# Indices 1 2 3 4 5 6 
#
# 1 0.015494 -0.002013 -0.007869 0.000000 0.000000 0.000000
# 2 -0.002013 0.015494 -0.007869 0.000000 0.000000 0.000000
# 3 -0.007869 -0.007869 0.033337 0.000000 0.000000 0.000000
# 4 0.000000 0.000000 0.000000 0.036022 0.000000 0.000000
# 5 0.000000 0.000000 0.000000 0.000000 0.036022 0.000000
# 6 0.000000 0.000000 0.000000 0.000000 0.000000 0.035015
#
#
# Mechanical properties :
#
#
# Convention : Reuss Voigt Hill
#
# Bulk Modulus (GPa) = 34.69332 38.09599 36.39465
# Shear Modulus (GPa) = 23.09525 25.47899 24.28712
#
# Velocity S-wave (km/s) = 3.61406 3.79599 3.70615
# Velocity P-wave (km/s) = 6.08572 6.38419 6.23674
#
# Compressibility (1/GPa) = 0.02882400
#
# Stress axis : x y z
#
# Youngs Moduli (GPa) = 64.54019 64.54019 29.99647
#
# Poissons Ratio (x) = 0.12993 0.23604
# Poissons Ratio (y) = 0.12993 0.23604
# Poissons Ratio (z) = 0.50786 0.50786
#
# Static dielectric constant tensor:
#      x y z
#    x 3.286880 0.000000 0.000000 
#    y 0.000000 3.286880 0.000000 
#    z 0.000000 0.000000 3.267800 
# 
# 
# High freq. dielectric constant tensor:
#      x y z
#    x 1.680480 0.000000 0.000000 
#    y 0.000000 1.680480 0.000000 
#    z 0.000000 0.000000 1.686130 
# 
# From -- ./inp_files/1158.got.cif
#   From: 2010.06.25/outbox.cif.g09.slc.cpg/sg176_1_cif.got.tgz:1158.got - 2010.06.28 12:15:01.
