data_PCOD8325151
_publ_section_title
;
Structure prediction by ZEFSAII (Michael W. Deem and Ramdas Pophale) SiO2 
 PCOD8325151
Probable space group: P 6/M
;
_chemical_formula_sum "Si O2"
_cell_formula_units_Z 48
_cell_length_a 11.071226
_cell_length_b 11.071226
_cell_length_c 21.407315
_cell_angle_alpha 90.000000
_cell_angle_beta 90.000000
_cell_angle_gamma 120.000000
_cell_volume 2272.397296
_symmetry_space_group_name_H-M "P 6/M"
_symmetry_group_IT_number 175
_symmetry_cell_setting 'hexagonal'
loop_
_space_group_symop_operation_xyz
x,y,z
x-y,x,z
-y,x-y,z
-x,-y,z
-x+y,-x,z
y,-x+y,z
-x,-y,-z
-x+y,-x,-z
y,-x+y,-z
x,y,-z
x-y,x,-z
-y,x-y,-z
loop_
_atom_site_type_symbol
_atom_site_label
_atom_site_fract_x
_atom_site_fract_y
_atom_site_fract_z
Si Si1 0.750247 0.697963 0.573114
Si Si2 0.044206 0.299331 0.000000
Si Si3 0.044669 0.306255 0.864798
Si Si4 0.649141 0.172339 0.236505
Si Si5 0.000000 0.500000 0.348618
O O1 0.904092 0.732784 0.592567
O O2 0.725255 0.667148 0.500000
O O3 0.637059 0.558208 0.608357
O O4 0.157515 0.254160 0.000000
O O5 0.056096 0.376973 0.933925
O O6 0.165960 0.267777 0.855438
O O7 0.062457 0.422614 0.814840
O O8 0.795545 0.316665 0.228591
O O9 0.629574 0.107755 0.305485
#
# Coordination Sequence:
#
# PCOD8325151 Si02
#       5
#    12   6  12  12   6
#     4  10  22  41  66  97 130 162 198 250 313 371
#     4   8  15  28  52  82 114 147 190 246 306 362
#     4  10  19  35  58  87 117 152 197 251 307 363
#     4  10  23  38  56  81 114 161 197 246 300 348
#     4  12  21  40  64  91 122 158 218 248 292 357
#
# _framework density 21.123066000000001
#
# number of rings (size 3 to 8) (size 9 to 14) (size 15 to 20)
#    0.500    1.500    0.000    4.000    0.000    3.000 
#    1.500    1.250    0.000    8.250    0.000    0.000 
#    0.000    0.000    0.000    0.000    0.000    0.000 
#
# Total GULP energy -594636.488000 kJ/mol
# GULP energy per Si atom -12388.260167 kJ/mol
# Density = 2.107499 g / cm^3
# Si number density = 21.123066 Si / 1000 Ang^3
#
#
#
# Elastic Constant Matrix: (Units=GPa)
#
#
# Indices 1 2 3 4 5 6 
#
# 1 87.2783 19.8565 51.4821 0.0000 0.0000 0.0000
# 2 19.8565 87.2783 51.4821 0.0000 0.0000 0.0000
# 3 51.4821 51.4821 122.2496 0.0000 0.0000 0.0000
# 4 0.0000 0.0000 0.0000 31.9543 0.0000 0.0000
# 5 0.0000 0.0000 0.0000 0.0000 31.9543 0.0000
# 6 0.0000 0.0000 0.0000 0.0000 0.0000 33.7109
#
#
#
# Elastic Compliance Matrix: (Units=1/GPa)
#
#
# Indices 1 2 3 4 5 6 
#
# 1 0.015256 0.000424 -0.006603 0.000000 0.000000 0.000000
# 2 0.000424 0.015256 -0.006603 0.000000 0.000000 0.000000
# 3 -0.006603 -0.006603 0.013742 0.000000 0.000000 0.000000
# 4 0.000000 0.000000 0.000000 0.031295 0.000000 0.000000
# 5 0.000000 0.000000 0.000000 0.000000 0.031295 0.000000
# 6 0.000000 0.000000 0.000000 0.000000 0.000000 0.029664
#
#
# Mechanical properties :
#
#
# Convention : Reuss Voigt Hill
#
# Bulk Modulus (GPa) = 53.50768 60.27194 56.88981
# Shear Modulus (GPa) = 29.70850 31.12294 30.41572
#
# Velocity S-wave (km/s) = 3.75433 3.84267 3.79876
# Velocity P-wave (km/s) = 6.64678 6.94865 6.79939
#
# Compressibility (1/GPa) = 0.01868891
#
# Stress axis : x y z
#
# Youngs Moduli (GPa) = 65.54730 65.54730 72.77165
#
# Poissons Ratio (x) = -0.02780 0.48054
# Poissons Ratio (y) = -0.02780 0.48054
# Poissons Ratio (z) = 0.43283 0.43283
#
# Static dielectric constant tensor:
#      x y z
#    x 3.614200 0.000000 0.000000 
#    y 0.000000 3.614200 0.000000 
#    z 0.000000 0.000000 4.125760 
# 
# 
# High freq. dielectric constant tensor:
#      x y z
#    x 1.819840 0.000000 0.000000 
#    y 0.000000 1.819840 0.000000 
#    z 0.000000 0.000000 1.839450 
# 
# From -- ./inp_files/3040.got.cif
#   From: 2010.03.12/outbox.cif.g09.slc.cpg/sg175_2_cif.got.tgz:3040.got - 2010.04.02 06:55:29.
