data_PCOD8325970
_publ_section_title
;
Structure prediction by ZEFSAII (Michael W. Deem and Ramdas Pophale) SiO2 
 PCOD8325970
Probable space group: P 61 2 2
;
_chemical_formula_sum "Si O2"
_cell_formula_units_Z 54
_cell_length_a 13.676970
_cell_length_b 13.676970
_cell_length_c 15.147268
_cell_angle_alpha 90.000000
_cell_angle_beta 90.000000
_cell_angle_gamma 120.000000
_cell_volume 2453.831458
_symmetry_space_group_name_H-M "P 61 2 2"
_symmetry_group_IT_number 178
_symmetry_cell_setting 'hexagonal'
loop_
_space_group_symop_operation_xyz
x,y,z
x-y,x,1/6+z
-y,x-y,1/3+z
-x,-y,1/2+z
-x+y,-x,2/3+z
y,-x+y,5/6+z
x-y,-y,-z
-x,-x+y,2/3-z
y,x,1/3-z
-y,-x,5/6-z
-x+y,y,1/2-z
x,x-y,1/6-z
loop_
_atom_site_type_symbol
_atom_site_label
_atom_site_fract_x
_atom_site_fract_y
_atom_site_fract_z
Si Si1 0.073660 0.926341 0.916667
Si Si2 0.384826 0.604416 0.815630
Si Si3 0.758075 0.174442 0.171053
Si Si4 0.698398 0.705861 0.482893
Si Si5 0.977156 0.491954 0.434667
O O1 0.000000 0.930056 0.833334
O O2 0.022415 0.796199 0.943597
O O3 0.279995 0.559989 0.750000
O O4 0.483753 0.722161 0.773614
O O5 0.414391 0.504425 0.816603
O O6 0.367219 0.632781 0.916667
O O7 0.876399 0.237533 0.116656
O O8 0.766736 0.083576 0.231722
O O9 0.646154 0.117889 0.110381
O O10 0.571229 0.626847 0.519796
O O11 0.000000 0.481993 0.333334
#
# Coordination Sequence:
#
# PCOD8325970 Si02
#       5
#     6  12  12  12  12
#     4  12  24  46  74 106 138 178 246 308 362 420
#     4  11  23  40  64  96 135 182 226 278 346 424
#     4  11  23  42  65  96 137 177 228 289 355 429
#     4  11  23  41  70  98 132 180 230 299 359 420
#     4  11  23  39  62  96 135 175 225 280 351 429
#
# _framework density 22.006402000000001
#
# number of rings (size 3 to 8) (size 9 to 14) (size 15 to 20)
#    0.000    0.889    2.222    6.667    3.111    0.000 
#    2.000    1.111    2.444    0.000    0.000    0.000 
#    0.000    0.000    0.000    0.000    0.000    0.000 
#
# Total GULP energy -669270.531940 kJ/mol
# GULP energy per Si atom -12393.898740 kJ/mol
# Density = 2.195631 g / cm^3
# Si number density = 22.006402 Si / 1000 Ang^3
#
#
#
# Elastic Constant Matrix: (Units=GPa)
#
#
# Indices 1 2 3 4 5 6 
#
# 1 111.0306 45.0573 20.9970 0.0000 0.0000 0.0000
# 2 45.0573 111.0306 20.9970 0.0000 0.0000 0.0000
# 3 20.9970 20.9970 88.5735 0.0000 0.0000 0.0000
# 4 0.0000 0.0000 0.0000 33.6117 0.0000 0.0000
# 5 0.0000 0.0000 0.0000 0.0000 33.6117 0.0000
# 6 0.0000 0.0000 0.0000 0.0000 0.0000 32.9867
#
#
#
# Elastic Compliance Matrix: (Units=1/GPa)
#
#
# Indices 1 2 3 4 5 6 
#
# 1 0.011000 -0.004157 -0.001622 0.000000 0.000000 0.000000
# 2 -0.004157 0.011000 -0.001622 0.000000 0.000000 0.000000
# 3 -0.001622 -0.001622 0.012059 0.000000 0.000000 0.000000
# 4 0.000000 0.000000 0.000000 0.029752 0.000000 0.000000
# 5 0.000000 0.000000 0.000000 0.000000 0.029752 0.000000
# 6 0.000000 0.000000 0.000000 0.000000 0.000000 0.030315
#
#
# Mechanical properties :
#
#
# Convention : Reuss Voigt Hill
#
# Bulk Modulus (GPa) = 51.93048 53.85973 52.89510
# Shear Modulus (GPa) = 34.45889 34.94758 34.70324
#
# Velocity S-wave (km/s) = 3.96138 3.98938 3.97540
# Velocity P-wave (km/s) = 6.67627 6.76372 6.72013
#
# Compressibility (1/GPa) = 0.01925651
#
# Stress axis : x y z
#
# Youngs Moduli (GPa) = 90.90608 90.90608 82.92447
#
# Poissons Ratio (x) = 0.37792 0.13452
# Poissons Ratio (y) = 0.37792 0.13452
# Poissons Ratio (z) = 0.14747 0.14747
#
# Static dielectric constant tensor:
#      x y z
#    x 4.121850 0.000000 0.000000 
#    y 0.000000 4.121850 0.000000 
#    z 0.000000 0.000000 3.715710 
# 
# 
# High freq. dielectric constant tensor:
#      x y z
#    x 1.871930 0.000000 0.000000 
#    y 0.000000 1.871930 0.000000 
#    z 0.000000 0.000000 1.847110 
# 
# From -- ./inp_files/5546.got.cif
#   From: 2010.03.12/outbox.cif.g09.slc.cpg/sg178_3_cif.got.tgz:5546.got - 2010.04.02 07:02:38.
