data_PCOD8325938
_publ_section_title
;
Structure prediction by ZEFSAII (Michael W. Deem and Ramdas Pophale) SiO2 
 PCOD8325938
Probable space group: P 61 2 2
;
_chemical_formula_sum "Si O2"
_cell_formula_units_Z 54
_cell_length_a 14.965290
_cell_length_b 14.965290
_cell_length_c 12.772297
_cell_angle_alpha 90.000000
_cell_angle_beta 90.000000
_cell_angle_gamma 120.000000
_cell_volume 2477.250443
_symmetry_space_group_name_H-M "P 61 2 2"
_symmetry_group_IT_number 178
_symmetry_cell_setting 'hexagonal'
loop_
_space_group_symop_operation_xyz
x,y,z
x-y,x,1/6+z
-y,x-y,1/3+z
-x,-y,1/2+z
-x+y,-x,2/3+z
y,-x+y,5/6+z
x-y,-y,-z
-x,-x+y,2/3-z
y,x,1/3-z
-y,-x,5/6-z
-x+y,y,1/2-z
x,x-y,1/6-z
loop_
_atom_site_type_symbol
_atom_site_label
_atom_site_fract_x
_atom_site_fract_y
_atom_site_fract_z
Si Si1 0.978159 0.670927 0.211627
Si Si2 0.112467 0.450623 0.341927
Si Si3 0.318169 0.842317 0.768049
Si Si4 0.081927 0.163853 0.750000
Si Si5 0.637461 0.184844 0.860307
O O1 0.962341 0.768750 0.194074
O O2 0.870034 0.574693 0.175121
O O3 0.000000 0.662970 0.333334
O O4 0.064522 0.669288 0.137462
O O5 0.140931 0.469102 0.223091
O O6 0.199413 0.447277 0.415471
O O7 0.105022 0.543577 0.397961
O O8 0.000000 0.347425 0.333334
O O9 0.405172 0.810343 0.750000
O O10 0.088263 0.088263 0.666667
O O11 0.705148 0.294853 0.916667
O O12 0.604059 0.208118 0.750000
#
# Coordination Sequence:
#
# PCOD8325938 Si02
#       5
#    12  12  12   6  12
#     4  11  23  43  72 101 137 181 238 293 360 428
#     4  11  25  42  64  97 140 183 229 291 365 426
#     4  11  24  43  69  98 139 184 233 293 354 439
#     4  10  24  46  72 104 136 180 236 300 362 434
#     4  12  26  40  66 100 138 186 243 291 354 431
#
# _framework density 21.798361
#
# number of rings (size 3 to 8) (size 9 to 14) (size 15 to 20)
#    0.000    0.889    1.111    6.000    9.333    3.556 
#    0.000    3.333    0.000    0.000    0.000    0.000 
#    0.000    0.000    0.000    0.000    0.000    0.000 
#
# Total GULP energy -668974.485079 kJ/mol
# GULP energy per Si atom -12388.416390 kJ/mol
# Density = 2.174875 g / cm^3
# Si number density = 21.798361 Si / 1000 Ang^3
#
#
#
# Elastic Constant Matrix: (Units=GPa)
#
#
# Indices 1 2 3 4 5 6 
#
# 1 133.1040 60.0904 58.3087 0.0000 0.0000 0.0000
# 2 60.0904 133.1040 58.3087 0.0000 0.0000 0.0000
# 3 58.3087 58.3087 129.9307 0.0000 0.0000 0.0000
# 4 0.0000 0.0000 0.0000 -28.9001 0.0000 0.0000
# 5 0.0000 0.0000 0.0000 0.0000 -28.9001 0.0000
# 6 0.0000 0.0000 0.0000 0.0000 0.0000 36.5068
#
#
#
# Elastic Compliance Matrix: (Units=1/GPa)
#
#
# Indices 1 2 3 4 5 6 
#
# 1 0.010398 -0.003298 -0.003186 0.000000 0.000000 0.000000
# 2 -0.003298 0.010398 -0.003186 0.000000 0.000000 0.000000
# 3 -0.003186 -0.003186 0.010556 0.000000 0.000000 0.000000
# 4 0.000000 0.000000 0.000000 -0.034602 0.000000 0.000000
# 5 0.000000 0.000000 0.000000 0.000000 -0.034602 0.000000
# 6 0.000000 0.000000 0.000000 0.000000 0.000000 0.027392
#
#
# Mechanical properties :
#
#
# Convention : Reuss Voigt Hill
#
# Bulk Modulus (GPa) = 83.25902 83.28384 83.27143
# Shear Modulus (GPa) = 388.09586 10.37005 199.23296
#
# Velocity S-wave (km/s) = 13.35760 2.18348 9.57061
# Velocity P-wave (km/s) = 16.61862 6.68178 12.66540
#
# Compressibility (1/GPa) = 0.01201071
#
# Stress axis : x y z
#
# Youngs Moduli (GPa) = 96.17550 96.17550 94.73391
#
# Poissons Ratio (x) = 0.31723 0.30181
# Poissons Ratio (y) = 0.31723 0.30181
# Poissons Ratio (z) = 0.30641 0.30641
#
# Static dielectric constant tensor:
#      x y z
#    x 8.140210 0.000000 0.000000 
#    y 0.000000 8.140210 0.000000 
#    z 0.000000 0.000000 3.966890 
# 
# 
# High freq. dielectric constant tensor:
#      x y z
#    x 1.856420 0.000000 0.000000 
#    y 0.000000 1.856420 0.000000 
#    z 0.000000 0.000000 1.870280 
# 
# From -- ./inp_files/5574.got.cif
#   From: 2010.03.12/outbox.cif.g09.slc.cpg/sg178_3_cif.got.tgz:5574.got - 2010.04.02 07:02:38.
