data_PCOD8325991
_publ_section_title
;
Structure prediction by ZEFSAII (Michael W. Deem and Ramdas Pophale) SiO2 
 PCOD8325991
Probable space group: P 61 2 2
;
_chemical_formula_sum "Si O2"
_cell_formula_units_Z 66
_cell_length_a 17.466023
_cell_length_b 17.466023
_cell_length_c 13.955702
_cell_angle_alpha 90.000000
_cell_angle_beta 90.000000
_cell_angle_gamma 120.000000
_cell_volume 3686.976541
_symmetry_space_group_name_H-M "P 61 2 2"
_symmetry_group_IT_number 178
_symmetry_cell_setting 'hexagonal'
loop_
_space_group_symop_operation_xyz
x,y,z
x-y,x,1/6+z
-y,x-y,1/3+z
-x,-y,1/2+z
-x+y,-x,2/3+z
y,-x+y,5/6+z
x-y,-y,-z
-x,-x+y,2/3-z
y,x,1/3-z
-y,-x,5/6-z
-x+y,y,1/2-z
x,x-y,1/6-z
loop_
_atom_site_type_symbol
_atom_site_label
_atom_site_fract_x
_atom_site_fract_y
_atom_site_fract_z
Si Si1 0.461880 0.380700 0.020565
Si Si2 0.776555 0.273418 0.016333
Si Si3 0.908217 0.681814 0.811698
Si Si4 0.222120 0.640434 0.851581
Si Si5 0.219983 0.454519 0.055914
Si Si6 0.538771 0.461230 0.416667
O O1 0.380463 0.313547 0.084239
O O2 0.547499 0.418259 0.091763
O O3 0.471391 0.329715 0.927184
O O4 0.446175 0.460248 0.988860
O O5 0.686367 0.277639 0.009937
O O6 0.770622 0.214725 0.107714
O O7 0.861227 0.372242 0.021660
O O8 0.776310 0.223691 0.916667
O O9 0.860510 0.721020 0.750000
O O10 0.847669 0.633949 0.903273
O O11 0.000000 0.768593 0.833334
O O12 0.271525 0.728476 0.916667
O O13 0.217353 0.681022 0.748455
#
# Coordination Sequence:
#
# PCOD8325991 Si02
#       6
#    12  12  12  12  12   6
#     4   9  19  35  56  74  94 131 174 224 271 307
#     4  12  23  32  43  68  99 135 173 217 260 302
#     4   9  17  32  55  81 104 129 161 203 262 315
#     4   9  18  33  52  70  90 126 171 218 267 316
#     4   9  19  36  54  71  97 135 178 217 262 313
#     4  12  22  34  50  74 102 134 176 226 268 304
#
# _framework density 17.900846000000001
#
# number of rings (size 3 to 8) (size 9 to 14) (size 15 to 20)
#    0.000    2.182    0.909    5.455    0.000    2.909 
#    0.000    6.364    0.000    0.000    0.000    0.000 
#    0.000   13.091    0.000    0.000    0.000    0.000 
#
# Total GULP energy -817732.341363 kJ/mol
# GULP energy per Si atom -12389.883960 kJ/mol
# Density = 1.786010 g / cm^3
# Si number density = 17.900846 Si / 1000 Ang^3
#
#
#
# Elastic Constant Matrix: (Units=GPa)
#
#
# Indices 1 2 3 4 5 6 
#
# 1 89.3495 38.1750 36.9716 0.0000 0.0000 0.0000
# 2 38.1750 89.3495 36.9716 0.0000 0.0000 0.0000
# 3 36.9716 36.9716 135.1128 0.0000 0.0000 0.0000
# 4 0.0000 0.0000 0.0000 14.4711 0.0000 0.0000
# 5 0.0000 0.0000 0.0000 0.0000 14.4711 0.0000
# 6 0.0000 0.0000 0.0000 0.0000 0.0000 25.5873
#
#
#
# Elastic Compliance Matrix: (Units=1/GPa)
#
#
# Indices 1 2 3 4 5 6 
#
# 1 0.014431 -0.005110 -0.002550 0.000000 0.000000 0.000000
# 2 -0.005110 0.014431 -0.002550 0.000000 0.000000 0.000000
# 3 -0.002550 -0.002550 0.008797 0.000000 0.000000 0.000000
# 4 0.000000 0.000000 0.000000 0.069103 0.000000 0.000000
# 5 0.000000 0.000000 0.000000 0.000000 0.069103 0.000000
# 6 0.000000 0.000000 0.000000 0.000000 0.000000 0.039082
#
#
# Mechanical properties :
#
#
# Convention : Reuss Voigt Hill
#
# Bulk Modulus (GPa) = 58.01718 59.78311 58.90014
# Shear Modulus (GPa) = 20.73706 24.35215 22.54460
#
# Velocity S-wave (km/s) = 3.40728 3.69235 3.55267
# Velocity P-wave (km/s) = 6.92532 7.18660 7.05717
#
# Compressibility (1/GPa) = 0.01723627
#
# Stress axis : x y z
#
# Youngs Moduli (GPa) = 69.29668 69.29668 113.67542
#
# Poissons Ratio (x) = 0.35412 0.28992
# Poissons Ratio (y) = 0.35412 0.28992
# Poissons Ratio (z) = 0.17673 0.17673
#
# Static dielectric constant tensor:
#      x y z
#    x 3.208960 0.000000 0.000000 
#    y 0.000000 3.208960 0.000000 
#    z 0.000000 0.000000 3.793800 
# 
# 
# High freq. dielectric constant tensor:
#      x y z
#    x 1.662290 0.000000 0.000000 
#    y 0.000000 1.662290 0.000000 
#    z 0.000000 0.000000 1.705730 
# 
# From -- ./inp_files/5912.got.cif
#   From: 2010.03.12/outbox.cif.g09.slc.cpg/sg178_3_cif.got.tgz:5912.got - 2010.04.02 07:02:38.
