data_PCOD8325209
_publ_section_title
;
Structure prediction by ZEFSAII (Michael W. Deem and Ramdas Pophale) SiO2 
 PCOD8325209
Probable space group: P 6/M
;
_chemical_formula_sum "Si O2"
_cell_formula_units_Z 60
_cell_length_a 21.858825
_cell_length_b 21.858825
_cell_length_c 7.658605
_cell_angle_alpha 90.000000
_cell_angle_beta 90.000000
_cell_angle_gamma 120.000000
_cell_volume 3169.085300
_symmetry_space_group_name_H-M "P 6/M"
_symmetry_group_IT_number 175
_symmetry_cell_setting 'hexagonal'
loop_
_space_group_symop_operation_xyz
x,y,z
x-y,x,z
-y,x-y,z
-x,-y,z
-x+y,-x,z
y,-x+y,z
-x,-y,-z
-x+y,-x,-z
y,-x+y,-z
x,y,-z
x-y,x,-z
-y,x-y,-z
loop_
_atom_site_type_symbol
_atom_site_label
_atom_site_fract_x
_atom_site_fract_y
_atom_site_fract_z
Si Si1 0.719417 0.136037 0.699012
Si Si2 0.274139 0.274320 0.295448
Si Si3 0.333614 0.810605 0.000000
Si Si4 0.332226 0.522318 0.000000
Si Si5 0.134891 0.999346 0.200449
Si Si6 0.721567 0.584085 0.699019
O O1 0.691002 0.127733 0.500000
O O2 0.720132 0.066975 0.765415
O O3 0.799036 0.199062 0.713620
O O4 0.668894 0.149351 0.825884
O O5 0.263943 0.263807 0.500000
O O6 0.208678 0.207532 0.210298
O O7 0.276862 0.345722 0.234587
O O8 0.406209 0.811370 0.000000
O O9 0.270642 0.730273 0.000000
O O10 0.329319 0.479594 0.825865
O O11 0.141500 0.070236 0.288764
O O12 0.116748 0.999411 0.000000
O O13 0.693049 0.564207 0.500000
#
# Coordination Sequence:
#
# PCOD8325209 Si02
#       6
#    12  12   6   6  12  12
#     4   9  19  35  54  79 111 143 178 224 271 314
#     4  10  20  35  55  78 104 139 185 228 268 319
#     4  10  21  37  59  83 108 138 174 215 263 323
#     4  10  21  37  59  83 108 138 174 215 263 323
#     4  10  21  34  50  74 107 145 185 230 277 321
#     4   9  19  35  54  79 111 143 178 224 271 314
#
# _framework density 18.932908000000001
#
# number of rings (size 3 to 8) (size 9 to 14) (size 15 to 20)
#    0.000    2.400    0.000    1.600    2.800    4.000 
#    0.000    2.000    0.000    7.200    0.000    0.000 
#    0.000    0.000    0.000    0.000    0.000    0.000 
#
# Total GULP energy -743966.093570 kJ/mol
# GULP energy per Si atom -12399.434893 kJ/mol
# Density = 1.888982 g / cm^3
# Si number density = 18.932908 Si / 1000 Ang^3
#
#
#
# Elastic Constant Matrix: (Units=GPa)
#
#
# Indices 1 2 3 4 5 6 
#
# 1 211.0223 148.8956 79.4635 0.0000 0.0000 0.0000
# 2 148.8956 211.0223 79.4635 0.0000 0.0000 0.0000
# 3 79.4635 79.4635 93.9211 0.0000 0.0000 0.0000
# 4 0.0000 0.0000 0.0000 10.6857 0.0000 0.0000
# 5 0.0000 0.0000 0.0000 0.0000 10.6857 0.0000
# 6 0.0000 0.0000 0.0000 0.0000 0.0000 31.0634
#
#
#
# Elastic Compliance Matrix: (Units=1/GPa)
#
#
# Indices 1 2 3 4 5 6 
#
# 1 0.010266 -0.005830 -0.003753 0.000000 0.000000 0.000000
# 2 -0.005830 0.010266 -0.003753 0.000000 0.000000 0.000000
# 3 -0.003753 -0.003753 0.016997 0.000000 0.000000 0.000000
# 4 0.000000 0.000000 0.000000 0.093583 0.000000 0.000000
# 5 0.000000 0.000000 0.000000 0.000000 0.093583 0.000000
# 6 0.000000 0.000000 0.000000 0.000000 0.000000 0.032192
#
#
# Mechanical properties :
#
#
# Convention : Reuss Voigt Hill
#
# Bulk Modulus (GPa) = 92.10277 125.73452 108.91865
# Shear Modulus (GPa) = 17.41078 24.36317 20.88698
#
# Velocity S-wave (km/s) = 3.03579 3.59111 3.32506
# Velocity P-wave (km/s) = 7.81284 9.15148 8.50853
#
# Compressibility (1/GPa) = 0.01085744
#
# Stress axis : x y z
#
# Youngs Moduli (GPa) = 97.41090 97.41090 58.83288
#
# Poissons Ratio (x) = 0.56794 0.22078
# Poissons Ratio (y) = 0.56794 0.22078
# Poissons Ratio (z) = 0.36555 0.36555
#
# Static dielectric constant tensor:
#      x y z
#    x 3.401680 0.000000 0.000000 
#    y 0.000000 3.401680 0.000000 
#    z 0.000000 0.000000 3.626220 
# 
# 
# High freq. dielectric constant tensor:
#      x y z
#    x 1.730150 0.000000 0.000000 
#    y 0.000000 1.730150 0.000000 
#    z 0.000000 0.000000 1.739260 
# 
# From -- ./inp_files/935.got.cif
#   From: 2010.03.12/outbox.cif.g09.slc.cpg/sg175_1_cif.got.tgz:935.got - 2010.04.02 06:55:29.
