data_PCOD8325170
_publ_section_title
;
Structure prediction by ZEFSAII (Michael W. Deem and Ramdas Pophale) SiO2 
 PCOD8325170
Probable space group: P 6/M
;
_chemical_formula_sum "Si O2"
_cell_formula_units_Z 60
_cell_length_a 23.547151
_cell_length_b 23.547151
_cell_length_c 7.390955
_cell_angle_alpha 90.000000
_cell_angle_beta 90.000000
_cell_angle_gamma 120.000000
_cell_volume 3549.015756
_symmetry_space_group_name_H-M "P 6/M"
_symmetry_group_IT_number 175
_symmetry_cell_setting 'hexagonal'
loop_
_space_group_symop_operation_xyz
x,y,z
x-y,x,z
-y,x-y,z
-x,-y,z
-x+y,-x,z
y,-x+y,z
-x,-y,-z
-x+y,-x,-z
y,-x+y,-z
x,y,-z
x-y,x,-z
-y,x-y,-z
loop_
_atom_site_type_symbol
_atom_site_label
_atom_site_fract_x
_atom_site_fract_y
_atom_site_fract_z
Si Si1 0.386566 0.129088 0.790638
Si Si2 0.796606 0.722344 0.500000
Si Si3 0.074261 0.277656 0.500000
Si Si4 0.870912 0.613434 0.790638
Si Si5 0.598498 0.073764 0.785757
Si Si6 0.598498 0.524734 0.785757
O O1 0.320922 0.084736 0.678233
O O2 0.411214 0.205607 0.761495
O O3 0.445585 0.118609 0.717640
O O4 0.369735 0.108042 0.000000
O O5 0.783236 0.783236 0.500000
O O6 0.874957 0.749914 0.500000
O O7 0.084736 0.320922 0.678233
O O8 0.881391 0.554415 0.717640
O O9 0.891958 0.630265 0.000000
O O10 0.549657 0.099315 0.713068
O O11 0.571960 0.000000 0.714905
O O12 0.597193 0.074078 0.000000
O O13 0.597193 0.523115 0.000000
#
# Coordination Sequence:
#
# PCOD8325170 Si02
#       6
#    12   6   6  12  12  12
#     4   9  17  29  45  64  87 116 147 179 217 258
#     4  10  20  32  47  68  91 113 139 173 213 259
#     4  10  20  32  47  68  91 113 139 173 213 259
#     4   9  17  29  45  64  87 116 147 179 217 258
#     4   8  13  22  38  59  82 109 139 171 208 247
#     4   8  13  22  38  59  82 109 139 171 208 247
#
# _framework density 16.906096000000002
#
# number of rings (size 3 to 8) (size 9 to 14) (size 15 to 20)
#    0.000    3.200    0.000    2.400    0.000    2.400 
#    0.000    1.000    0.000    4.600    0.000    5.600 
#    0.000    0.000    0.000   10.000    0.000    0.000 
#
# Total GULP energy -743413.928411 kJ/mol
# GULP energy per Si atom -12390.232140 kJ/mol
# Density = 1.686762 g / cm^3
# Si number density = 16.906096 Si / 1000 Ang^3
#
#
#
# Elastic Constant Matrix: (Units=GPa)
#
#
# Indices 1 2 3 4 5 6 
#
# 1 132.2374 73.4922 23.7954 0.0000 0.0000 0.0000
# 2 73.4922 132.2374 23.7954 0.0000 0.0000 0.0000
# 3 23.7954 23.7954 55.9299 0.0000 0.0000 0.0000
# 4 0.0000 0.0000 0.0000 8.4401 0.0000 0.0000
# 5 0.0000 0.0000 0.0000 0.0000 8.4401 0.0000
# 6 0.0000 0.0000 0.0000 0.0000 0.0000 29.3726
#
#
#
# Elastic Compliance Matrix: (Units=1/GPa)
#
#
# Indices 1 2 3 4 5 6 
#
# 1 0.011207 -0.005816 -0.002294 0.000000 0.000000 0.000000
# 2 -0.005816 0.011207 -0.002294 0.000000 0.000000 0.000000
# 3 -0.002294 -0.002294 0.019831 0.000000 0.000000 0.000000
# 4 0.000000 0.000000 0.000000 0.118482 0.000000 0.000000
# 5 0.000000 0.000000 0.000000 0.000000 0.118482 0.000000
# 6 0.000000 0.000000 0.000000 0.000000 0.000000 0.034045
#
#
# Mechanical properties :
#
#
# Convention : Reuss Voigt Hill
#
# Bulk Modulus (GPa) = 46.64405 62.50787 54.57596
# Shear Modulus (GPa) = 14.65388 22.53868 18.59628
#
# Velocity S-wave (km/s) = 2.94731 3.65522 3.32018
# Velocity P-wave (km/s) = 6.26356 7.40729 6.85931
#
# Compressibility (1/GPa) = 0.02143896
#
# Stress axis : x y z
#
# Youngs Moduli (GPa) = 89.22982 89.22982 50.42539
#
# Poissons Ratio (x) = 0.51893 0.11566
# Poissons Ratio (y) = 0.51893 0.11566
# Poissons Ratio (z) = 0.20467 0.20467
#
# Static dielectric constant tensor:
#      x y z
#    x 3.285270 0.000000 0.000000 
#    y 0.000000 3.285270 0.000000 
#    z 0.000000 0.000000 3.112180 
# 
# 
# High freq. dielectric constant tensor:
#      x y z
#    x 1.632000 0.000000 0.000000 
#    y 0.000000 1.632000 0.000000 
#    z 0.000000 0.000000 1.653690 
# 
# From -- ./inp_files/1128.got.cif
#   From: 2010.03.12/outbox.cif.g09.slc.cpg/sg175_1_cif.got.tgz:1128.got - 2010.04.02 06:55:29.
