data_PCOD8325242
_publ_section_title
;
Structure prediction by ZEFSAII (Michael W. Deem and Ramdas Pophale) SiO2 
 PCOD8325242
Probable space group: P 6/M
;
_chemical_formula_sum "Si O2"
_cell_formula_units_Z 84
_cell_length_a 18.189789
_cell_length_b 18.189789
_cell_length_c 13.785945
_cell_angle_alpha 90.000000
_cell_angle_beta 90.000000
_cell_angle_gamma 120.000000
_cell_volume 3950.231027
_symmetry_space_group_name_H-M "P 6/M"
_symmetry_group_IT_number 175
_symmetry_cell_setting 'hexagonal'
loop_
_space_group_symop_operation_xyz
x,y,z
x-y,x,z
-y,x-y,z
-x,-y,z
-x+y,-x,z
y,-x+y,z
-x,-y,-z
-x+y,-x,-z
y,-x+y,-z
x,y,-z
x-y,x,-z
-y,x-y,-z
loop_
_atom_site_type_symbol
_atom_site_label
_atom_site_fract_x
_atom_site_fract_y
_atom_site_fract_z
Si Si1 0.897992 0.241016 0.747857
Si Si2 0.462713 0.604652 0.610882
Si Si3 0.036280 0.848133 0.610441
Si Si4 0.114607 0.355956 0.112965
Si Si5 0.981273 0.829254 0.113689
Si Si6 0.518086 0.792433 0.610480
Si Si7 0.026836 0.433779 0.778878
O O1 0.957286 0.210246 0.695009
O O2 0.845315 0.190674 0.843057
O O3 0.825289 0.221202 0.669235
O O4 0.947120 0.340349 0.772429
O O5 0.480075 0.591172 0.500000
O O6 0.462473 0.691932 0.624198
O O7 0.370806 0.533722 0.648310
O O8 0.534477 0.599238 0.672177
O O9 0.042908 0.819294 0.500000
O O10 0.945114 0.838570 0.626987
O O11 0.028570 0.263651 0.132245
O O12 0.099213 0.429676 0.155684
O O13 0.134993 0.373756 0.000000
O O14 0.901658 0.833369 0.161136
O O15 0.979228 0.843836 0.000000
O O16 0.544054 0.817178 0.500000
O O17 0.000000 0.500000 0.824118
#
# Coordination Sequence:
#
# PCOD8325242 Si02
#       7
#    12  12  12  12  12  12  12
#     4  12  23  40  64  93 129 169 218 263 328 390
#     4  10  21  39  65 100 137 172 210 257 320 392
#     4  10  22  40  63  93 133 181 228 270 313 374
#     4  11  25  45  65  86 121 169 220 276 331 384
#     4   9  17  32  57  88 119 153 198 256 319 375
#     4  10  20  37  64  96 132 171 209 254 316 394
#     4  12  25  42  67  99 130 167 209 268 331 394
#
# _framework density 21.264579000000001
#
# number of rings (size 3 to 8) (size 9 to 14) (size 15 to 20)
#    0.000    1.429    2.857    2.714    0.000    5.714 
#    0.000    0.000    0.000    1.714    0.000    0.000 
#    0.000    0.000    0.000    0.000    0.000    0.000 
#
# Total GULP energy -1041456.961844 kJ/mol
# GULP energy per Si atom -12398.297165 kJ/mol
# Density = 2.121618 g / cm^3
# Si number density = 21.264579 Si / 1000 Ang^3
#
#
#
# Elastic Constant Matrix: (Units=GPa)
#
#
# Indices 1 2 3 4 5 6 
#
# 1 103.6756 35.8449 36.7190 0.0000 0.0000 0.0000
# 2 35.8449 103.6756 36.7190 0.0000 0.0000 0.0000
# 3 36.7190 36.7190 99.5191 0.0000 0.0000 0.0000
# 4 0.0000 0.0000 0.0000 29.9740 0.0000 0.0000
# 5 0.0000 0.0000 0.0000 0.0000 29.9740 0.0000
# 6 0.0000 0.0000 0.0000 0.0000 0.0000 33.9154
#
#
#
# Elastic Compliance Matrix: (Units=1/GPa)
#
#
# Indices 1 2 3 4 5 6 
#
# 1 0.011819 -0.002924 -0.003282 0.000000 0.000000 0.000000
# 2 -0.002924 0.011819 -0.003282 0.000000 0.000000 0.000000
# 3 -0.003282 -0.003282 0.012470 0.000000 0.000000 0.000000
# 4 0.000000 0.000000 0.000000 0.033362 0.000000 0.000000
# 5 0.000000 0.000000 0.000000 0.000000 0.033362 0.000000
# 6 0.000000 0.000000 0.000000 0.000000 0.000000 0.029485
#
#
# Mechanical properties :
#
#
# Convention : Reuss Voigt Hill
#
# Bulk Modulus (GPa) = 58.36927 58.38176 58.37551
# Shear Modulus (GPa) = 31.84647 31.94516 31.89582
#
# Velocity S-wave (km/s) = 3.87412 3.88012 3.87712
# Velocity P-wave (km/s) = 6.89350 6.89843 6.89597
#
# Compressibility (1/GPa) = 0.01713230
#
# Stress axis : x y z
#
# Youngs Moduli (GPa) = 84.61153 84.61153 80.19174
#
# Poissons Ratio (x) = 0.24739 0.26318
# Poissons Ratio (y) = 0.24739 0.26318
# Poissons Ratio (z) = 0.27769 0.27769
#
# Static dielectric constant tensor:
#      x y z
#    x 3.930950 0.000000 0.000000 
#    y 0.000000 3.930950 0.000000 
#    z 0.000000 0.000000 3.865260 
# 
# 
# High freq. dielectric constant tensor:
#      x y z
#    x 1.836650 0.000000 0.000000 
#    y 0.000000 1.836650 0.000000 
#    z 0.000000 0.000000 1.832620 
# 
# From -- ./inp_files/2611.got.cif
#   From: 2010.03.12/outbox.cif.g09.slc.cpg/sg175_2_cif.got.tgz:2611.got - 2010.04.02 06:55:29.
