data_PCOD8325309
_publ_section_title
;
Structure prediction by ZEFSAII (Michael W. Deem and Ramdas Pophale) SiO2 
 PCOD8325309
Probable space group: P 6/M
;
_chemical_formula_sum "Si O2"
_cell_formula_units_Z 46
_cell_length_a 18.273988
_cell_length_b 18.273988
_cell_length_c 7.302887
_cell_angle_alpha 90.000000
_cell_angle_beta 90.000000
_cell_angle_gamma 120.000000
_cell_volume 2111.990125
_symmetry_space_group_name_H-M "P 6/M"
_symmetry_group_IT_number 175
_symmetry_cell_setting 'hexagonal'
loop_
_space_group_symop_operation_xyz
x,y,z
x-y,x,z
-y,x-y,z
-x,-y,z
-x+y,-x,z
y,-x+y,z
-x,-y,-z
-x+y,-x,-z
y,-x+y,-z
x,y,-z
x-y,x,-z
-y,x-y,-z
loop_
_atom_site_type_symbol
_atom_site_label
_atom_site_fract_x
_atom_site_fract_y
_atom_site_fract_z
Si Si1 0.807154 0.855118 0.000000
Si Si2 0.592736 0.562001 0.717157
Si Si3 0.910971 0.664571 0.717152
Si Si4 0.333334 0.666668 0.718168
Si Si5 0.729929 0.518534 0.717346
O O1 0.886675 0.841083 0.000000
O O2 0.752388 0.813361 0.182320
O O3 0.500000 0.500000 0.799898
O O4 0.588397 0.556512 0.500000
O O5 0.628119 0.657568 0.780489
O O6 0.655199 0.531614 0.795140
O O7 0.915581 0.681320 0.500000
O O8 0.818044 0.595540 0.785714
O O9 0.333334 0.666668 0.500000
O O10 0.286134 0.715425 0.792662
O O11 0.729294 0.517243 0.500000
#
# Coordination Sequence:
#
# PCOD8325309 Si02
#       5
#     6  12  12   4  12
#     4  12  27  46  67  90 116 148 190 246 312 376
#     4   9  16  28  50  82 118 155 196 240 286 339
#     4  10  21  39  63  90 120 156 199 245 294 352
#     4   9  15  24  45  82 122 160 202 239 277 334
#     4   9  16  27  47  77 113 152 192 235 283 336
#
# _framework density 21.780404999999998
#
# number of rings (size 3 to 8) (size 9 to 14) (size 15 to 20)
#    0.000    2.348    0.000    3.261    0.000    9.391 
#    0.000    0.652    0.000    6.261    0.000    0.000 
#    0.000    0.000    0.000    0.000    0.000    0.000 
#
# Total GULP energy -570359.374423 kJ/mol
# GULP energy per Si atom -12399.116835 kJ/mol
# Density = 2.173083 g / cm^3
# Si number density = 21.780405 Si / 1000 Ang^3
#
#
#
# Elastic Constant Matrix: (Units=GPa)
#
#
# Indices 1 2 3 4 5 6 
#
# 1 194.3840 91.3436 29.7323 0.0000 0.0000 -0.0012
# 2 91.3436 194.3812 29.7323 0.0000 0.0000 -0.0008
# 3 29.7323 29.7323 66.4790 0.0000 0.0000 0.0001
# 4 0.0000 0.0000 0.0000 -4.7499 0.0006 0.0000
# 5 0.0000 0.0000 0.0000 0.0006 -4.7510 0.0000
# 6 -0.0012 -0.0008 0.0001 0.0000 0.0000 51.5204
#
#
#
# Elastic Compliance Matrix: (Units=1/GPa)
#
#
# Indices 1 2 3 4 5 6 
#
# 1 0.006782 -0.002923 -0.001726 0.000000 0.000000 0.000000
# 2 -0.002923 0.006782 -0.001726 0.000000 0.000000 0.000000
# 3 -0.001726 -0.001726 0.016586 0.000000 0.000000 0.000000
# 4 0.000000 0.000000 0.000000 -0.210529 -0.000025 0.000000
# 5 0.000000 0.000000 0.000000 -0.000025 -0.210480 0.000000
# 6 0.000000 0.000000 0.000000 0.000000 0.000000 0.019410
#
#
# Mechanical properties :
#
#
# Convention : Reuss Voigt Hill
#
# Bulk Modulus (GPa) = 57.46952 84.09561 70.78257
# Shear Modulus (GPa) = -14.16836 28.69961 7.26563
#
# Velocity S-wave (km/s) = -2.55328 3.63392 1.82841
# Velocity P-wave (km/s) = 4.21318 7.50345 6.08492
#
# Compressibility (1/GPa) = 0.01740053
#
# Stress axis : x y z
#
# Youngs Moduli (GPa) = 147.44904 147.44675 60.29121
#
# Poissons Ratio (x) = 0.43099 0.10406
# Poissons Ratio (y) = 0.43099 0.10406
# Poissons Ratio (z) = 0.25448 0.25449
#
# Static dielectric constant tensor:
#      x y z
#    x 4.117430 0.000000 0.000000 
#    y 0.000000 4.117450 0.000000 
#    z 0.000000 0.000000 3.503600 
# 
# 
# High freq. dielectric constant tensor:
#      x y z
#    x 1.863820 0.000000 0.000000 
#    y 0.000000 1.863820 0.000000 
#    z 0.000000 0.000000 1.835500 
# 
# From -- ./inp_files/545.got.cif
#   From: 2010.03.12/outbox.cif.g09.slc.cpg/sg175_1_cif.got.tgz:545.got - 2010.04.02 06:55:29.
