data_PCOD8325709
_publ_section_title
;
Structure prediction by ZEFSAII (Michael W. Deem and Ramdas Pophale) SiO2 
 PCOD8325709
Probable space group: P 63/M
;
_chemical_formula_sum "Si O2"
_cell_formula_units_Z 40
_cell_length_a 16.523668
_cell_length_b 16.523668
_cell_length_c 8.568563
_cell_angle_alpha 90.000000
_cell_angle_beta 90.000000
_cell_angle_gamma 120.000000
_cell_volume 2026.056474
_symmetry_space_group_name_H-M "P 63/M"
_symmetry_group_IT_number 176
_symmetry_cell_setting 'hexagonal'
loop_
_space_group_symop_operation_xyz
x,y,z
x-y,x,1/2+z
-y,x-y,z
-x,-y,1/2+z
-x+y,-x,z
y,-x+y,1/2+z
-x,-y,-z
-x+y,-x,1/2-z
y,-x+y,-z
x,y,1/2-z
x-y,x,-z
-y,x-y,1/2-z
loop_
_atom_site_type_symbol
_atom_site_label
_atom_site_fract_x
_atom_site_fract_y
_atom_site_fract_z
Si Si1 0.182470 0.179996 0.064114
Si Si2 0.358722 0.984838 0.934409
Si Si3 0.666668 0.333334 0.935162
Si Si4 0.129331 0.565632 0.434671
O O1 0.173397 0.180501 0.250000
O O2 0.277953 0.270736 0.002482
O O3 0.182682 0.087054 0.012566
O O4 0.354875 0.984241 0.750000
O O5 0.458156 0.067837 0.998253
O O6 0.358513 0.893062 0.996026
O O7 0.666667 0.333334 0.750000
O O8 0.593479 0.231477 0.996946
O O9 0.121324 0.554705 0.250000
#
# Coordination Sequence:
#
# PCOD8325709 Si02
#       4
#    12  12   4  12
#     4  11  24  41  62  86 114 146 186 234 287 344
#     4   9  20  37  56  82 113 147 188 231 276 329
#     4   9  18  30  55  86 112 147 187 224 268 327
#     4   9  18  34  56  82 114 151 190 228 270 326
#
# _framework density 19.742787
#
# number of rings (size 3 to 8) (size 9 to 14) (size 15 to 20)
#    0.000    2.400    0.000    1.200    4.200    2.400 
#    0.000    1.500    0.000    0.000    0.000    0.000 
#    0.000    0.000    0.000    0.000    0.000    0.000 
#
# Total GULP energy -495747.430912 kJ/mol
# GULP energy per Si atom -12393.685773 kJ/mol
# Density = 1.969785 g / cm^3
# Si number density = 19.742787 Si / 1000 Ang^3
#
#
#
# Elastic Constant Matrix: (Units=GPa)
#
#
# Indices 1 2 3 4 5 6 
#
# 1 123.9840 60.0077 9.5831 0.0000 0.0000 -0.0015
# 2 60.0077 123.9832 9.5833 0.0000 0.0000 -0.0027
# 3 9.5831 9.5833 19.0894 0.0000 0.0000 -0.0003
# 4 0.0000 0.0000 0.0000 27.7420 -0.0003 0.0000
# 5 0.0000 0.0000 0.0000 -0.0003 27.7419 0.0000
# 6 -0.0015 -0.0027 -0.0003 0.0000 0.0000 31.9890
#
#
#
# Elastic Compliance Matrix: (Units=1/GPa)
#
#
# Indices 1 2 3 4 5 6 
#
# 1 0.010683 -0.004948 -0.002879 0.000000 0.000000 0.000000
# 2 -0.004948 0.010683 -0.002879 0.000000 0.000000 0.000001
# 3 -0.002879 -0.002879 0.055276 0.000000 0.000000 0.000000
# 4 0.000000 0.000000 0.000000 0.036046 0.000000 0.000000
# 5 0.000000 0.000000 0.000000 0.000000 0.036047 0.000000
# 6 0.000000 0.000001 0.000000 0.000000 0.000000 0.031261
#
#
# Mechanical properties :
#
#
# Convention : Reuss Voigt Hill
#
# Bulk Modulus (GPa) = 18.10631 47.26721 32.68676
# Shear Modulus (GPa) = 22.74618 30.02008 26.38313
#
# Velocity S-wave (km/s) = 3.39798 3.90367 3.65957
# Velocity P-wave (km/s) = 4.95843 6.65670 5.86931
#
# Compressibility (1/GPa) = 0.05522936
#
# Stress axis : x y z
#
# Youngs Moduli (GPa) = 93.60785 93.60700 18.09115
#
# Poissons Ratio (x) = 0.46316 0.05208
# Poissons Ratio (y) = 0.46317 0.05209
# Poissons Ratio (z) = 0.26949 0.26951
#
# Static dielectric constant tensor:
#      x y z
#    x 3.922370 0.000000 0.000000 
#    y 0.000000 3.922380 0.000000 
#    z 0.000000 0.000000 3.356440 
# 
# 
# High freq. dielectric constant tensor:
#      x y z
#    x 1.779810 0.000000 0.000000 
#    y 0.000000 1.779810 0.000000 
#    z 0.000000 0.000000 1.749510 
# 
# From -- ./inp_files/468.got.cif
#   From: 2010.06.25/outbox.cif.g09.slc.cpg/sg176_1_cif.got.tgz:468.got - 2010.06.28 12:15:01.
