data_PCOD8325711
_publ_section_title
;
Structure prediction by ZEFSAII (Michael W. Deem and Ramdas Pophale) SiO2 
 PCOD8325711
Probable space group: P 63/M
;
_chemical_formula_sum "Si O2"
_cell_formula_units_Z 28
_cell_length_a 13.528191
_cell_length_b 13.528191
_cell_length_c 8.635046
_cell_angle_alpha 90.000000
_cell_angle_beta 90.000000
_cell_angle_gamma 120.000000
_cell_volume 1368.594340
_symmetry_space_group_name_H-M "P 63/M"
_symmetry_group_IT_number 176
_symmetry_cell_setting 'hexagonal'
loop_
_space_group_symop_operation_xyz
x,y,z
x-y,x,1/2+z
-y,x-y,z
-x,-y,1/2+z
-x+y,-x,z
y,-x+y,1/2+z
-x,-y,-z
-x+y,-x,1/2-z
y,-x+y,-z
x,y,1/2-z
x-y,x,-z
-y,x-y,1/2-z
loop_
_atom_site_type_symbol
_atom_site_label
_atom_site_fract_x
_atom_site_fract_y
_atom_site_fract_z
Si Si1 0.666666 0.333333 0.067295
Si Si2 0.180461 0.950117 0.071787
Si Si3 0.616859 0.097046 0.930636
O O1 0.666667 0.333334 0.250000
O O2 0.656770 0.217190 0.009460
O O3 0.142791 0.920437 0.250000
O O4 0.289176 0.938061 0.033536
O O5 0.078910 0.865993 0.960987
O O6 0.600392 0.108464 0.750000
O O7 0.500000 0.000000 0.000000
#
# Coordination Sequence:
#
# PCOD8325711 Si02
#       3
#     4  12  12
#     4  12  25  41  64  93 127 167 208 255 310 368
#     4  11  24  41  63  90 122 160 202 250 304 362
#     4  11  24  42  65  93 125 163 207 257 311 370
#
# _framework density 20.458949
#
# number of rings (size 3 to 8) (size 9 to 14) (size 15 to 20)
#    0.000    0.857    0.000    6.857    0.000   13.714 
#    0.000    0.000    0.000    0.000    0.000    0.000 
#    0.000    0.000    0.000    0.000    0.000    0.000 
#
# Total GULP energy -347432.663128 kJ/mol
# GULP energy per Si atom -12408.309397 kJ/mol
# Density = 2.041238 g / cm^3
# Si number density = 20.458949 Si / 1000 Ang^3
#
#
#
# Elastic Constant Matrix: (Units=GPa)
#
#
# Indices 1 2 3 4 5 6 
#
# 1 127.3696 54.6292 57.2233 0.0000 0.0000 0.0001
# 2 54.6292 127.3715 57.2246 0.0000 0.0000 -0.0005
# 3 57.2233 57.2246 103.2962 0.0000 0.0000 -0.0004
# 4 0.0000 0.0000 0.0000 39.4987 0.0000 0.0000
# 5 0.0000 0.0000 0.0000 0.0000 39.4988 0.0000
# 6 0.0001 -0.0005 -0.0004 0.0000 0.0000 36.3708
#
#
#
# Elastic Compliance Matrix: (Units=1/GPa)
#
#
# Indices 1 2 3 4 5 6 
#
# 1 0.011090 -0.002658 -0.004671 0.000000 0.000000 0.000000
# 2 -0.002658 0.011090 -0.004671 0.000000 0.000000 0.000000
# 3 -0.004671 -0.004671 0.014856 0.000000 0.000000 0.000000
# 4 0.000000 0.000000 0.000000 0.025317 0.000000 0.000000
# 5 0.000000 0.000000 0.000000 0.000000 0.025317 0.000000
# 6 0.000000 0.000000 0.000000 0.000000 0.000000 0.027495
#
#
# Mechanical properties :
#
#
# Convention : Reuss Voigt Hill
#
# Bulk Modulus (GPa) = 76.71259 77.35460 77.03360
# Shear Modulus (GPa) = 34.84092 35.67103 35.25597
#
# Velocity S-wave (km/s) = 4.13118 4.18010 4.15571
# Velocity P-wave (km/s) = 7.76742 7.82237 7.79494
#
# Compressibility (1/GPa) = 0.01303567
#
# Stress axis : x y z
#
# Youngs Moduli (GPa) = 90.17446 90.17490 67.31181
#
# Poissons Ratio (x) = 0.23966 0.31441
# Poissons Ratio (y) = 0.23966 0.31442
# Poissons Ratio (z) = 0.42120 0.42122
#
# Static dielectric constant tensor:
#      x y z
#    x 3.904830 0.000010 0.000000 
#    y 0.000010 3.904830 0.000000 
#    z 0.000000 0.000000 3.889390 
# 
# 
# High freq. dielectric constant tensor:
#      x y z
#    x 1.819620 0.000000 0.000000 
#    y 0.000000 1.819620 0.000000 
#    z 0.000000 0.000000 1.816650 
# 
# From -- ./inp_files/321.got.cif
#   From: 2010.06.25/outbox.cif.g09.slc.cpg/sg176_1_cif.got.tgz:321.got - 2010.06.28 12:15:01.
