data_PCOD8325270
_publ_section_title
;
Structure prediction by ZEFSAII (Michael W. Deem and Ramdas Pophale) SiO2 
 PCOD8325270
Probable space group: P 6/M
;
_chemical_formula_sum "Si O2"
_cell_formula_units_Z 72
_cell_length_a 23.374102
_cell_length_b 23.374102
_cell_length_c 8.913142
_cell_angle_alpha 90.000000
_cell_angle_beta 90.000000
_cell_angle_gamma 120.000000
_cell_volume 4217.269228
_symmetry_space_group_name_H-M "P 6/M"
_symmetry_group_IT_number 175
_symmetry_cell_setting 'hexagonal'
loop_
_space_group_symop_operation_xyz
x,y,z
x-y,x,z
-y,x-y,z
-x,-y,z
-x+y,-x,z
y,-x+y,z
-x,-y,-z
-x+y,-x,-z
y,-x+y,-z
x,y,-z
x-y,x,-z
-y,x-y,-z
loop_
_atom_site_type_symbol
_atom_site_label
_atom_site_fract_x
_atom_site_fract_y
_atom_site_fract_z
Si Si1 0.399364 0.914547 0.329810
Si Si2 0.048994 0.708079 0.677165
Si Si3 0.089235 0.936931 0.175703
Si Si4 0.282639 0.909160 0.822973
Si Si5 0.472163 0.071605 0.667710
Si Si6 0.142892 0.291399 0.324534
O O1 0.380756 0.887397 0.500000
O O2 0.332972 0.884446 0.231393
O O3 0.454950 0.898989 0.255561
O O4 0.432613 0.992810 0.330449
O O5 0.033608 0.693669 0.500000
O O6 0.090366 0.671754 0.733603
O O7 0.088291 0.785002 0.712193
O O8 0.981565 0.679530 0.767006
O O9 0.131464 0.911341 0.264655
O O10 0.012626 0.895970 0.222044
O O11 0.098354 0.929977 0.000000
O O12 0.210799 0.860098 0.757505
O O13 0.280525 0.907355 0.000000
O O14 0.490410 0.098686 0.500000
O O15 0.130934 0.294690 0.500000
#
# Coordination Sequence:
#
# PCOD8325270 Si02
#       6
#    12  12  12  12  12  12
#     4   8  13  25  45  66  90 118 147 175 210 257
#     4   9  18  33  50  67  90 121 158 195 233 278
#     4  10  21  37  55  72  91 118 156 204 259 316
#     4  11  21  31  45  66  95 126 154 187 229 280
#     4   7  11  23  45  68  88 114 145 178 215 254
#     4  11  22  34  49  68  92 123 159 199 244 293
#
# _framework density 17.072659000000002
#
# number of rings (size 3 to 8) (size 9 to 14) (size 15 to 20)
#    0.000    2.667    0.000    5.167    0.000    5.333 
#    0.000    6.667    0.000    1.000    0.000    0.000 
#    1.667    0.000    3.000    0.000    1.000    0.000 
#
# Total GULP energy -891944.153810 kJ/mol
# GULP energy per Si atom -12388.113247 kJ/mol
# Density = 1.703380 g / cm^3
# Si number density = 17.072659 Si / 1000 Ang^3
#
#
#
# Elastic Constant Matrix: (Units=GPa)
#
#
# Indices 1 2 3 4 5 6 
#
# 1 51.7776 3.0163 17.1507 0.0000 0.0000 0.0000
# 2 3.0163 51.7776 17.1507 0.0000 0.0000 0.0000
# 3 17.1507 17.1507 63.7430 0.0000 0.0000 0.0000
# 4 0.0000 0.0000 0.0000 15.0026 0.0000 0.0000
# 5 0.0000 0.0000 0.0000 0.0000 15.0026 0.0000
# 6 0.0000 0.0000 0.0000 0.0000 0.0000 24.3807
#
#
#
# Elastic Compliance Matrix: (Units=1/GPa)
#
#
# Indices 1 2 3 4 5 6 
#
# 1 0.021227 0.000719 -0.005905 0.000000 0.000000 0.000000
# 2 0.000719 0.021227 -0.005905 0.000000 0.000000 0.000000
# 3 -0.005905 -0.005905 0.018866 0.000000 0.000000 0.000000
# 4 0.000000 0.000000 0.000000 0.066655 0.000000 0.000000
# 5 0.000000 0.000000 0.000000 0.000000 0.066655 0.000000
# 6 0.000000 0.000000 0.000000 0.000000 0.000000 0.041016
#
#
# Mechanical properties :
#
#
# Convention : Reuss Voigt Hill
#
# Bulk Modulus (GPa) = 25.54985 26.88150 26.21567
# Shear Modulus (GPa) = 18.45874 19.54255 19.00065
#
# Velocity S-wave (km/s) = 3.29171 3.38697 3.33968
# Velocity P-wave (km/s) = 5.42632 5.57449 5.50090
#
# Compressibility (1/GPa) = 0.03913917
#
# Stress axis : x y z
#
# Youngs Moduli (GPa) = 47.10889 47.10889 53.00658
#
# Poissons Ratio (x) = -0.03389 0.31300
# Poissons Ratio (y) = -0.03389 0.31300
# Poissons Ratio (z) = 0.27818 0.27818
#
# Static dielectric constant tensor:
#      x y z
#    x 3.350710 0.000000 0.000000 
#    y 0.000000 3.350710 0.000000 
#    z 0.000000 0.000000 3.014210 
# 
# 
# High freq. dielectric constant tensor:
#      x y z
#    x 1.644880 0.000000 0.000000 
#    y 0.000000 1.644880 0.000000 
#    z 0.000000 0.000000 1.638330 
# 
# From -- ./inp_files/1172.got.cif
#   From: 2010.03.12/outbox.cif.g09.slc.cpg/sg175_1_cif.got.tgz:1172.got - 2010.04.02 06:55:29.
