data_PCOD8325640
_publ_section_title
;
Structure prediction by ZEFSAII (Michael W. Deem and Ramdas Pophale) SiO2 
 PCOD8325640
Probable space group: P 63/M
;
_chemical_formula_sum "Si O2"
_cell_formula_units_Z 60
_cell_length_a 14.453307
_cell_length_b 14.453307
_cell_length_c 17.410353
_cell_angle_alpha 90.000000
_cell_angle_beta 90.000000
_cell_angle_gamma 120.000000
_cell_volume 3149.725188
_symmetry_space_group_name_H-M "P 63/M"
_symmetry_group_IT_number 176
_symmetry_cell_setting 'hexagonal'
loop_
_space_group_symop_operation_xyz
x,y,z
x-y,x,1/2+z
-y,x-y,z
-x,-y,1/2+z
-x+y,-x,z
y,-x+y,1/2+z
-x,-y,-z
-x+y,-x,1/2-z
y,-x+y,-z
x,y,1/2-z
x-y,x,-z
-y,x-y,1/2-z
loop_
_atom_site_type_symbol
_atom_site_label
_atom_site_fract_x
_atom_site_fract_y
_atom_site_fract_z
Si Si1 0.793465 0.001611 0.519513
Si Si2 0.587474 0.676598 0.916824
Si Si3 0.438708 0.645230 0.449749
Si Si4 0.239318 0.345443 0.662344
Si Si5 0.516956 0.541056 0.336959
O O1 0.710682 0.022425 0.471997
O O2 0.908691 0.106611 0.524671
O O3 0.753500 0.966646 0.606552
O O4 0.602304 0.770339 0.860269
O O5 0.568484 0.575807 0.867031
O O6 0.482097 0.637165 0.967733
O O7 0.447654 0.761547 0.442986
O O8 0.507058 0.632133 0.382917
O O9 0.212899 0.302651 0.750000
O O10 0.362812 0.436963 0.654874
O O11 0.487823 0.549823 0.250000
#
# Coordination Sequence:
#
# PCOD8325640 Si02
#       5
#    12  12  12  12  12
#     4  10  22  38  63  87 116 154 202 254 303 370
#     4  11  21  38  63  86 118 160 208 249 305 371
#     4  10  23  36  60  87 124 160 207 248 301 374
#     4  10  22  40  60  88 121 157 201 256 311 364
#     4  11  23  38  58  87 128 160 199 258 308 366
#
# _framework density 19.049282000000002
#
# number of rings (size 3 to 8) (size 9 to 14) (size 15 to 20)
#    0.400    1.200    2.000    2.600    5.600    0.800 
#    1.200    7.000    0.000    0.000    0.000    0.000 
#    0.000    0.000    0.000    0.000    0.000    0.000 
#
# Total GULP energy -744042.415216 kJ/mol
# GULP energy per Si atom -12400.706920 kJ/mol
# Density = 1.900592 g / cm^3
# Si number density = 19.049282 Si / 1000 Ang^3
#
#
#
# Elastic Constant Matrix: (Units=GPa)
#
#
# Indices 1 2 3 4 5 6 
#
# 1 98.1634 39.4564 53.0547 0.0000 0.0000 0.0000
# 2 39.4564 98.1634 53.0547 0.0000 0.0000 0.0000
# 3 53.0547 53.0547 145.0779 0.0000 0.0000 0.0000
# 4 0.0000 0.0000 0.0000 26.2396 0.0000 0.0000
# 5 0.0000 0.0000 0.0000 0.0000 26.2396 0.0000
# 6 0.0000 0.0000 0.0000 0.0000 0.0000 29.3535
#
#
#
# Elastic Compliance Matrix: (Units=1/GPa)
#
#
# Indices 1 2 3 4 5 6 
#
# 1 0.013577 -0.003457 -0.003701 0.000000 0.000000 0.000000
# 2 -0.003457 0.013577 -0.003701 0.000000 0.000000 0.000000
# 3 -0.003701 -0.003701 0.009600 0.000000 0.000000 0.000000
# 4 0.000000 0.000000 0.000000 0.038110 0.000000 0.000000
# 5 0.000000 0.000000 0.000000 0.000000 0.038110 0.000000
# 6 0.000000 0.000000 0.000000 0.000000 0.000000 0.034068
#
#
# Mechanical properties :
#
#
# Convention : Reuss Voigt Hill
#
# Bulk Modulus (GPa) = 66.50677 70.28180 68.39428
# Shear Modulus (GPa) = 28.77359 29.42247 29.09803
#
# Velocity S-wave (km/s) = 3.89071 3.93433 3.91258
# Velocity P-wave (km/s) = 7.42780 7.59035 7.50952
#
# Compressibility (1/GPa) = 0.01503606
#
# Stress axis : x y z
#
# Youngs Moduli (GPa) = 73.65507 73.65507 104.17101
#
# Poissons Ratio (x) = 0.25462 0.38552
# Poissons Ratio (y) = 0.25462 0.38552
# Poissons Ratio (z) = 0.27258 0.27258
#
# Static dielectric constant tensor:
#      x y z
#    x 3.465200 0.000000 0.000000 
#    y 0.000000 3.465200 0.000000 
#    z 0.000000 0.000000 3.490630 
# 
# 
# High freq. dielectric constant tensor:
#      x y z
#    x 1.740670 0.000000 0.000000 
#    y 0.000000 1.740670 0.000000 
#    z 0.000000 0.000000 1.742510 
# 
# From -- ./inp_files/2623.got.cif
#   From: 2010.06.25/outbox.cif.g09.slc.cpg/sg176_2_cif.got.tgz:2623.got - 2010.06.28 12:15:01.
