data_PCOD8325097
_publ_section_title
;
Structure prediction by ZEFSAII (Michael W. Deem and Ramdas Pophale) SiO2 
 PCOD8325097
Probable space group: P 6/M
;
_chemical_formula_sum "Si O2"
_cell_formula_units_Z 96
_cell_length_a 14.649958
_cell_length_b 14.649958
_cell_length_c 28.093201
_cell_angle_alpha 90.000000
_cell_angle_beta 90.000000
_cell_angle_gamma 120.000000
_cell_volume 5221.612236
_symmetry_space_group_name_H-M "P 6/M"
_symmetry_group_IT_number 175
_symmetry_cell_setting 'hexagonal'
loop_
_space_group_symop_operation_xyz
x,y,z
x-y,x,z
-y,x-y,z
-x,-y,z
-x+y,-x,z
y,-x+y,z
-x,-y,-z
-x+y,-x,-z
y,-x+y,-z
x,y,-z
x-y,x,-z
-y,x-y,-z
loop_
_atom_site_type_symbol
_atom_site_label
_atom_site_fract_x
_atom_site_fract_y
_atom_site_fract_z
Si Si1 0.432420 0.556859 0.866720
Si Si2 0.229897 0.417968 0.264462
Si Si3 0.244673 0.100047 0.449799
Si Si4 0.159073 0.241690 0.188652
Si Si5 0.107298 0.746123 0.095700
Si Si6 0.110196 0.423693 0.946513
Si Si7 0.876687 0.455872 0.761859
Si Si8 0.147678 0.249895 0.346072
O O1 0.500000 0.500000 0.863242
O O2 0.310920 0.472210 0.876309
O O3 0.477841 0.639678 0.910234
O O4 0.440442 0.610765 0.815680
O O5 0.224412 0.347758 0.219086
O O6 0.146083 0.458806 0.263083
O O7 0.345124 0.521977 0.266158
O O8 0.207539 0.347972 0.311134
O O9 0.180106 0.159481 0.450243
O O10 0.312876 0.127924 0.500000
O O11 0.304676 0.124585 0.398994
O O12 0.192919 0.156170 0.201606
O O13 0.185566 0.268591 0.133093
O O14 0.187296 0.824143 0.056376
O O15 0.007971 0.659227 0.067506
O O16 0.113249 0.464861 0.000000
O O17 0.000000 0.500000 0.762056
O O18 0.188519 0.166937 0.337691
#
# Coordination Sequence:
#
# PCOD8325097 Si02
#       8
#    12  12  12  12  12  12  12  12
#     4   9  21  37  58  76  97 129 168 214 263 315
#     4  12  24  37  59  82 110 148 187 237 292 337
#     4   8  13  22  40  68 108 155 199 238 278 330
#     4  12  23  39  61  87 118 151 186 221 263 330
#     4  11  21  39  60  81 109 141 173 212 263 325
#     4  11  23  39  60  84 110 139 176 220 272 326
#     4  11  22  39  57  80 107 138 181 225 276 336
#     4  10  19  32  50  82 121 160 198 235 283 341
#
# _framework density 18.385124999999999
#
# number of rings (size 3 to 8) (size 9 to 14) (size 15 to 20)
#    0.000    1.500    2.500    4.000    1.750    4.250 
#    0.750    1.250    0.000    0.000    0.000    2.625 
#    0.000    5.000    0.000    0.000    0.000    0.000 
#
# Total GULP energy -1189645.965353 kJ/mol
# GULP energy per Si atom -12392.145472 kJ/mol
# Density = 1.834328 g / cm^3
# Si number density = 18.385125 Si / 1000 Ang^3
#
#
#
# Elastic Constant Matrix: (Units=GPa)
#
#
# Indices 1 2 3 4 5 6 
#
# 1 67.3292 9.8240 33.3280 0.0000 0.0000 0.0000
# 2 9.8240 67.3292 33.3280 0.0000 0.0000 0.0000
# 3 33.3280 33.3280 139.8098 0.0000 0.0000 0.0000
# 4 0.0000 0.0000 0.0000 18.4613 0.0000 0.0000
# 5 0.0000 0.0000 0.0000 0.0000 18.4613 0.0000
# 6 0.0000 0.0000 0.0000 0.0000 0.0000 28.7526
#
#
#
# Elastic Compliance Matrix: (Units=1/GPa)
#
#
# Indices 1 2 3 4 5 6 
#
# 1 0.016856 -0.000533 -0.003891 0.000000 0.000000 0.000000
# 2 -0.000533 0.016856 -0.003891 0.000000 0.000000 0.000000
# 3 -0.003891 -0.003891 0.009008 0.000000 0.000000 0.000000
# 4 0.000000 0.000000 0.000000 0.054167 0.000000 0.000000
# 5 0.000000 0.000000 0.000000 0.000000 0.054167 0.000000
# 6 0.000000 0.000000 0.000000 0.000000 0.000000 0.034779
#
#
# Mechanical properties :
#
#
# Convention : Reuss Voigt Hill
#
# Bulk Modulus (GPa) = 38.33005 47.49201 42.91103
# Shear Modulus (GPa) = 23.67849 26.33425 25.00637
#
# Velocity S-wave (km/s) = 3.59265 3.78877 3.69201
# Velocity P-wave (km/s) = 6.17278 6.71026 6.44712
#
# Compressibility (1/GPa) = 0.02608919
#
# Stress axis : x y z
#
# Youngs Moduli (GPa) = 59.32499 59.32499 111.01636
#
# Poissons Ratio (x) = 0.03165 0.43197
# Poissons Ratio (y) = 0.03165 0.43197
# Poissons Ratio (z) = 0.23084 0.23084
#
# Static dielectric constant tensor:
#      x y z
#    x 3.308410 0.000000 0.000000 
#    y 0.000000 3.308410 0.000000 
#    z 0.000000 0.000000 3.795380 
# 
# 
# High freq. dielectric constant tensor:
#      x y z
#    x 1.701530 0.000000 0.000000 
#    y 0.000000 1.701530 0.000000 
#    z 0.000000 0.000000 1.706950 
# 
# From -- ./inp_files/3333.got.cif
#   From: 2010.03.12/outbox.cif.g09.slc.cpg/sg175_2_cif.got.tgz:3333.got - 2010.04.02 06:55:29.
