data_PCOD8325955
_publ_section_title
;
Structure prediction by ZEFSAII (Michael W. Deem and Ramdas Pophale) SiO2 
 PCOD8325955
Probable space group: P 61 2 2
;
_chemical_formula_sum "Si O2"
_cell_formula_units_Z 72
_cell_length_a 15.000391
_cell_length_b 15.000391
_cell_length_c 19.292382
_cell_angle_alpha 90.000000
_cell_angle_beta 90.000000
_cell_angle_gamma 120.000000
_cell_volume 3759.426889
_symmetry_space_group_name_H-M "P 61 2 2"
_symmetry_group_IT_number 178
_symmetry_cell_setting 'hexagonal'
loop_
_space_group_symop_operation_xyz
x,y,z
x-y,x,1/6+z
-y,x-y,1/3+z
-x,-y,1/2+z
-x+y,-x,2/3+z
y,-x+y,5/6+z
x-y,-y,-z
-x,-x+y,2/3-z
y,x,1/3-z
-y,-x,5/6-z
-x+y,y,1/2-z
x,x-y,1/6-z
loop_
_atom_site_type_symbol
_atom_site_label
_atom_site_fract_x
_atom_site_fract_y
_atom_site_fract_z
Si Si1 0.373360 0.889046 0.695249
Si Si2 0.624430 0.452663 0.735177
Si Si3 0.477995 0.128312 0.711271
Si Si4 0.596896 0.393675 0.582054
Si Si5 0.695226 0.951309 0.573968
Si Si6 0.750290 0.147703 0.654344
O O1 0.421384 0.842767 0.750000
O O2 0.387202 0.857229 0.618833
O O3 0.251917 0.847235 0.708358
O O4 0.428883 0.008451 0.703446
O O5 0.711925 0.423850 0.750000
O O6 0.574443 0.415622 0.659483
O O7 0.669296 0.573319 0.746920
O O8 0.588310 0.176619 0.750000
O O9 0.495989 0.175325 0.633156
O O10 0.403871 0.150036 0.761329
O O11 0.658217 0.329109 0.583334
O O12 0.652319 0.503560 0.544919
O O13 0.725810 0.862905 0.583334
O O14 0.736357 0.000000 0.500000
O O15 0.750290 0.044268 0.630052
#
# Coordination Sequence:
#
# PCOD8325955 Si02
#       6
#    12  12  12  12  12  12
#     4  11  22  35  56  79 114 158 192 238 302 370
#     4  11  21  34  53  83 116 158 201 244 303 367
#     4   9  21  35  50  74 109 152 192 237 284 353
#     4  11  20  33  53  79 116 155 199 239 289 362
#     4  11  24  38  61  88 123 160 208 270 326 381
#     4  11  21  36  54  79 115 153 201 250 303 369
#
# _framework density 19.151857
#
# number of rings (size 3 to 8) (size 9 to 14) (size 15 to 20)
#    0.000    1.333    1.667    6.500    4.667    1.333 
#    0.000    0.000    0.000    0.000    0.000    1.167 
#    0.000    0.000    0.000    0.000    0.000    0.000 
#
# Total GULP energy -892092.777499 kJ/mol
# GULP energy per Si atom -12390.177465 kJ/mol
# Density = 1.910827 g / cm^3
# Si number density = 19.151857 Si / 1000 Ang^3
#
#
#
# Elastic Constant Matrix: (Units=GPa)
#
#
# Indices 1 2 3 4 5 6 
#
# 1 76.7663 28.6134 22.2085 0.0000 0.0000 0.0000
# 2 28.6134 76.7663 22.2085 0.0000 0.0000 0.0000
# 3 22.2085 22.2085 126.3390 0.0000 0.0000 0.0000
# 4 0.0000 0.0000 0.0000 21.7091 0.0000 0.0000
# 5 0.0000 0.0000 0.0000 0.0000 21.7091 0.0000
# 6 0.0000 0.0000 0.0000 0.0000 0.0000 24.0765
#
#
#
# Elastic Compliance Matrix: (Units=1/GPa)
#
#
# Indices 1 2 3 4 5 6 
#
# 1 0.015508 -0.005259 -0.001802 0.000000 0.000000 0.000000
# 2 -0.005259 0.015508 -0.001802 0.000000 0.000000 0.000000
# 3 -0.001802 -0.001802 0.008549 0.000000 0.000000 0.000000
# 4 0.000000 0.000000 0.000000 0.046064 0.000000 0.000000
# 5 0.000000 0.000000 0.000000 0.000000 0.046064 0.000000
# 6 0.000000 0.000000 0.000000 0.000000 0.000000 0.041534
#
#
# Mechanical properties :
#
#
# Convention : Reuss Voigt Hill
#
# Bulk Modulus (GPa) = 45.78766 47.32580 46.55673
# Shear Modulus (GPa) = 25.22313 27.28836 26.25574
#
# Velocity S-wave (km/s) = 3.63300 3.77880 3.70662
# Velocity P-wave (km/s) = 6.44653 6.61843 6.53305
#
# Compressibility (1/GPa) = 0.02183994
#
# Stress axis : x y z
#
# Youngs Moduli (GPa) = 64.48278 64.48278 116.97823
#
# Poissons Ratio (x) = 0.33912 0.21075
# Poissons Ratio (y) = 0.33912 0.21075
# Poissons Ratio (z) = 0.11617 0.11617
#
# Static dielectric constant tensor:
#      x y z
#    x 3.417420 0.000000 0.000000 
#    y 0.000000 3.417420 0.000000 
#    z 0.000000 0.000000 3.801730 
# 
# 
# High freq. dielectric constant tensor:
#      x y z
#    x 1.715570 0.000000 0.000000 
#    y 0.000000 1.715570 0.000000 
#    z 0.000000 0.000000 1.765960 
# 
# From -- ./inp_files/6782.got.cif
#   From: 2010.03.12/outbox.cif.g09.slc.cpg/sg178_4_cif.got.tgz:6782.got - 2010.04.02 07:02:38.
