data_PCOD8325149
_publ_section_title
;
Structure prediction by ZEFSAII (Michael W. Deem and Ramdas Pophale) SiO2 
 PCOD8325149
Probable space group: P 6/M
;
_chemical_formula_sum "Si O2"
_cell_formula_units_Z 60
_cell_length_a 18.981610
_cell_length_b 18.981610
_cell_length_c 9.670124
_cell_angle_alpha 90.000000
_cell_angle_beta 90.000000
_cell_angle_gamma 120.000000
_cell_volume 3017.371381
_symmetry_space_group_name_H-M "P 6/M"
_symmetry_group_IT_number 175
_symmetry_cell_setting 'hexagonal'
loop_
_space_group_symop_operation_xyz
x,y,z
x-y,x,z
-y,x-y,z
-x,-y,z
-x+y,-x,z
y,-x+y,z
-x,-y,-z
-x+y,-x,-z
y,-x+y,-z
x,y,-z
x-y,x,-z
-y,x-y,-z
loop_
_atom_site_type_symbol
_atom_site_label
_atom_site_fract_x
_atom_site_fract_y
_atom_site_fract_z
Si Si1 0.843658 0.694833 0.763842
Si Si2 0.559778 0.886271 0.842558
Si Si3 0.876772 0.812288 0.000000
Si Si4 0.673839 0.076735 0.153807
Si Si5 0.194137 0.093555 0.500000
Si Si6 0.096284 0.537304 0.342419
O O1 0.758807 0.610381 0.762845
O O2 0.836674 0.755262 0.869776
O O3 0.912839 0.673231 0.803597
O O4 0.866766 0.743034 0.623415
O O5 0.480559 0.860530 0.747943
O O6 0.610527 0.982435 0.851016
O O7 0.536243 0.851167 0.000000
O O8 0.855339 0.882472 0.000000
O O9 0.643709 0.118776 0.266397
O O10 0.679553 0.113850 0.000000
O O11 0.137901 0.134605 0.500000
O O12 0.130322 0.553419 0.500000
O O13 0.000000 0.500000 0.346365
#
# Coordination Sequence:
#
# PCOD8325149 Si02
#       6
#    12  12   6  12   6  12
#     4  12  24  38  61  89 121 162 214 273 326 382
#     4  10  19  35  57  85 118 152 193 246 305 366
#     4  12  23  40  60  86 120 166 222 280 336 390
#     4  10  19  35  57  85 118 152 193 246 305 366
#     4  12  27  44  60  82 120 174 230 288 350 406
#     4   9  19  33  55  84 114 145 177 220 281 355
#
# _framework density 19.884855999999999
#
# number of rings (size 3 to 8) (size 9 to 14) (size 15 to 20)
#    0.000    1.400    2.000    4.400    2.800    2.400 
#    0.000    2.000    0.000    0.800    0.000    2.800 
#    0.000    0.000    0.000    0.000    0.000    0.000 
#
# Total GULP energy -743872.632055 kJ/mol
# GULP energy per Si atom -12397.877201 kJ/mol
# Density = 1.983960 g / cm^3
# Si number density = 19.884856 Si / 1000 Ang^3
#
#
#
# Elastic Constant Matrix: (Units=GPa)
#
#
# Indices 1 2 3 4 5 6 
#
# 1 67.4341 10.7461 44.2107 0.0000 0.0000 0.0000
# 2 10.7461 67.4341 44.2107 0.0000 0.0000 0.0000
# 3 44.2107 44.2107 181.0257 0.0000 0.0000 0.0000
# 4 0.0000 0.0000 0.0000 30.2268 0.0000 0.0000
# 5 0.0000 0.0000 0.0000 0.0000 30.2268 0.0000
# 6 0.0000 0.0000 0.0000 0.0000 0.0000 28.3440
#
#
#
# Elastic Compliance Matrix: (Units=1/GPa)
#
#
# Indices 1 2 3 4 5 6 
#
# 1 0.017656 0.000016 -0.004316 0.000000 0.000000 0.000000
# 2 0.000016 0.017656 -0.004316 0.000000 0.000000 0.000000
# 3 -0.004316 -0.004316 0.007632 0.000000 0.000000 0.000000
# 4 0.000000 0.000000 0.000000 0.033083 0.000000 0.000000
# 5 0.000000 0.000000 0.000000 0.000000 0.033083 0.000000
# 6 0.000000 0.000000 0.000000 0.000000 0.000000 0.035281
#
#
# Mechanical properties :
#
#
# Convention : Reuss Voigt Hill
#
# Bulk Modulus (GPa) = 38.89104 57.13653 48.01379
# Shear Modulus (GPa) = 29.37803 32.20796 30.79299
#
# Velocity S-wave (km/s) = 3.84788 4.02894 3.93945
# Velocity P-wave (km/s) = 6.27233 7.10206 6.70005
#
# Compressibility (1/GPa) = 0.02571287
#
# Stress axis : x y z
#
# Youngs Moduli (GPa) = 56.63681 56.63681 131.02373
#
# Poissons Ratio (x) = -0.00090 0.56550
# Poissons Ratio (y) = -0.00090 0.56550
# Poissons Ratio (z) = 0.24444 0.24444
#
# Static dielectric constant tensor:
#      x y z
#    x 3.565120 0.000000 0.000000 
#    y 0.000000 3.565120 0.000000 
#    z 0.000000 0.000000 3.952710 
# 
# 
# High freq. dielectric constant tensor:
#      x y z
#    x 1.759490 0.000000 0.000000 
#    y 0.000000 1.759490 0.000000 
#    z 0.000000 0.000000 1.790090 
# 
# From -- ./inp_files/912.got.cif
#   From: 2010.03.12/outbox.cif.g09.slc.cpg/sg175_1_cif.got.tgz:912.got - 2010.04.02 06:55:29.
