data_PCOD8325056
_publ_section_title
;
Structure prediction by ZEFSAII (Michael W. Deem and Ramdas Pophale) SiO2 
 PCOD8325056
Probable space group: P 6/M
;
_chemical_formula_sum "Si O2"
_cell_formula_units_Z 72
_cell_length_a 16.834847
_cell_length_b 16.834847
_cell_length_c 21.289158
_cell_angle_alpha 90.000000
_cell_angle_beta 90.000000
_cell_angle_gamma 120.000000
_cell_volume 5225.254697
_symmetry_space_group_name_H-M "P 6/M"
_symmetry_group_IT_number 175
_symmetry_cell_setting 'hexagonal'
loop_
_space_group_symop_operation_xyz
x,y,z
x-y,x,z
-y,x-y,z
-x,-y,z
-x+y,-x,z
y,-x+y,z
-x,-y,-z
-x+y,-x,-z
y,-x+y,-z
x,y,-z
x-y,x,-z
-y,x-y,-z
loop_
_atom_site_type_symbol
_atom_site_label
_atom_site_fract_x
_atom_site_fract_y
_atom_site_fract_z
Si Si1 0.990230 0.809793 0.632706
Si Si2 0.019112 0.196429 0.000000
Si Si3 0.142645 0.495989 0.073075
Si Si4 0.009846 0.193031 0.769266
Si Si5 0.817777 0.009864 0.500000
Si Si6 0.314269 0.476914 0.072897
Si Si7 0.302403 0.300246 0.884053
O O1 0.907517 0.828588 0.632083
O O2 0.987849 0.763089 0.699844
O O3 0.987490 0.756418 0.566733
O O4 0.101322 0.175552 0.000000
O O5 0.029081 0.254856 0.938513
O O6 0.243820 0.512690 0.085320
O O7 0.141254 0.586134 0.095939
O O8 0.068419 0.411502 0.113426
O O9 0.115913 0.476168 0.000000
O O10 0.095786 0.177622 0.779668
O O11 0.014606 0.267539 0.817384
O O12 0.919374 0.094469 0.500000
O O13 0.280406 0.382646 0.110312
O O14 0.317304 0.454643 0.000000
#
# Coordination Sequence:
#
# PCOD8325056 Si02
#       7
#    12   6  12  12   6  12  12
#     4   8  13  20  31  47  67  92 124 159 195 228
#     4  12  23  34  43  54  72 100 136 172 201 226
#     4  10  19  32  48  65  80  96 120 156 201 246
#     4  10  19  29  39  52  73 104 138 170 199 231
#     4   8  11  16  28  46  66  88 117 156 194 228
#     4  10  19  32  48  65  80  96 120 156 201 246
#     4  12  21  31  45  58  78 102 131 163 196 231
#
# _framework density 13.779233
#
# number of rings (size 3 to 8) (size 9 to 14) (size 15 to 20)
#    0.000    2.000    1.667    4.333    0.000    5.333 
#    0.000    1.667    0.000    0.000    0.000    0.000 
#    0.000    0.000    0.000    3.000    0.000    6.333 
#
# Total GULP energy -891999.320643 kJ/mol
# GULP energy per Si atom -12388.879453 kJ/mol
# Density = 1.374787 g / cm^3
# Si number density = 13.779233 Si / 1000 Ang^3
#
#
#
# Elastic Constant Matrix: (Units=GPa)
#
#
# Indices 1 2 3 4 5 6 
#
# 1 44.7856 1.5018 20.3821 0.0000 0.0000 0.0000
# 2 1.5018 44.7856 20.3821 0.0000 0.0000 0.0000
# 3 20.3821 20.3821 110.8684 0.0000 0.0000 0.0000
# 4 0.0000 0.0000 0.0000 7.7395 0.0000 0.0000
# 5 0.0000 0.0000 0.0000 0.0000 7.7395 0.0000
# 6 0.0000 0.0000 0.0000 0.0000 0.0000 21.6419
#
#
#
# Elastic Compliance Matrix: (Units=1/GPa)
#
#
# Indices 1 2 3 4 5 6 
#
# 1 0.024440 0.001337 -0.004739 0.000000 0.000000 0.000000
# 2 0.001337 0.024440 -0.004739 0.000000 0.000000 0.000000
# 3 -0.004739 -0.004739 0.010762 0.000000 0.000000 0.000000
# 4 0.000000 0.000000 0.000000 0.129208 0.000000 0.000000
# 5 0.000000 0.000000 0.000000 0.000000 0.129208 0.000000
# 6 0.000000 0.000000 0.000000 0.000000 0.000000 0.046207
#
#
# Mechanical properties :
#
#
# Convention : Reuss Voigt Hill
#
# Bulk Modulus (GPa) = 23.06192 31.66350 27.36271
# Shear Modulus (GPa) = 12.65820 17.96908 15.31364
#
# Velocity S-wave (km/s) = 3.03420 3.61511 3.33732
# Velocity P-wave (km/s) = 5.38964 6.36037 5.89502
#
# Compressibility (1/GPa) = 0.04336152
#
# Stress axis : x y z
#
# Youngs Moduli (GPa) = 40.91573 40.91573 92.91846
#
# Poissons Ratio (x) = -0.05471 0.44034
# Poissons Ratio (y) = -0.05471 0.44034
# Poissons Ratio (z) = 0.19390 0.19390
#
# Static dielectric constant tensor:
#      x y z
#    x 2.626990 0.000000 0.000000 
#    y 0.000000 2.626990 0.000000 
#    z 0.000000 0.000000 3.217860 
# 
# 
# High freq. dielectric constant tensor:
#      x y z
#    x 1.509480 0.000000 0.000000 
#    y 0.000000 1.509480 0.000000 
#    z 0.000000 0.000000 1.510580 
# 
# From -- ./inp_files/3131.got.cif
#   From: 2010.03.12/outbox.cif.g09.slc.cpg/sg175_2_cif.got.tgz:3131.got - 2010.04.02 06:55:29.
