data_PCOD8325169
_publ_section_title
;
Structure prediction by ZEFSAII (Michael W. Deem and Ramdas Pophale) SiO2 
 PCOD8325169
Probable space group: P 6/M
;
_chemical_formula_sum "Si O2"
_cell_formula_units_Z 72
_cell_length_a 23.461934
_cell_length_b 23.461934
_cell_length_c 8.787320
_cell_angle_alpha 90.000000
_cell_angle_beta 90.000000
_cell_angle_gamma 120.000000
_cell_volume 4189.041774
_symmetry_space_group_name_H-M "P 6/M"
_symmetry_group_IT_number 175
_symmetry_cell_setting 'hexagonal'
loop_
_space_group_symop_operation_xyz
x,y,z
x-y,x,z
-y,x-y,z
-x,-y,z
-x+y,-x,z
y,-x+y,z
-x,-y,-z
-x+y,-x,-z
y,-x+y,-z
x,y,-z
x-y,x,-z
-y,x-y,-z
loop_
_atom_site_type_symbol
_atom_site_label
_atom_site_fract_x
_atom_site_fract_y
_atom_site_fract_z
Si Si1 0.720142 0.633151 0.825549
Si Si2 0.590266 0.070074 0.325418
Si Si3 0.947365 0.652574 0.322576
Si Si4 0.412513 0.482224 0.175097
Si Si5 0.083626 0.149182 0.819485
Si Si6 0.145102 0.290170 0.677221
O O1 0.687188 0.676603 0.783986
O O2 0.666530 0.555242 0.800968
O O3 0.782205 0.652322 0.719616
O O4 0.743313 0.647416 0.000000
O O5 0.579563 0.080805 0.500000
O O6 0.667138 0.093934 0.292250
O O7 0.559772 0.107576 0.225602
O O8 0.552096 0.992993 0.284751
O O9 0.968356 0.666022 0.500000
O O10 0.903302 0.683696 0.273934
O O11 0.428227 0.475645 0.000000
O O12 0.116280 0.107232 0.756925
O O13 0.127226 0.223511 0.763688
O O14 0.083620 0.149076 0.000000
O O15 0.141333 0.275289 0.500000
#
# Coordination Sequence:
#
# PCOD8325169 Si02
#       6
#    12  12  12  12  12  12
#     4  10  20  32  47  67  92 123 156 190 229 279
#     4   9  15  25  43  65  89 117 147 175 209 255
#     4   9  19  33  47  66  93 124 156 191 231 278
#     4   9  16  26  41  64  92 117 143 175 211 253
#     4  10  21  37  55  72  90 116 156 207 261 314
#     4  11  22  34  48  67  94 125 157 196 243 293
#
# _framework density 17.187702999999999
#
# number of rings (size 3 to 8) (size 9 to 14) (size 15 to 20)
#    0.000    2.333    0.000    4.167    0.000    8.000 
#    0.000    0.000    0.000    1.000    0.000    0.000 
#    1.667    0.000    1.000    0.000    1.333    0.000 
#
# Total GULP energy -892266.041783 kJ/mol
# GULP energy per Si atom -12392.583914 kJ/mol
# Density = 1.714858 g / cm^3
# Si number density = 17.187703 Si / 1000 Ang^3
#
#
#
# Elastic Constant Matrix: (Units=GPa)
#
#
# Indices 1 2 3 4 5 6 
#
# 1 53.0999 5.6887 16.7952 0.0000 0.0000 0.0000
# 2 5.6887 53.0999 16.7952 0.0000 0.0000 0.0000
# 3 16.7952 16.7952 29.6441 0.0000 0.0000 0.0000
# 4 0.0000 0.0000 0.0000 23.3473 0.0000 0.0000
# 5 0.0000 0.0000 0.0000 0.0000 23.3473 0.0000
# 6 0.0000 0.0000 0.0000 0.0000 0.0000 23.7056
#
#
#
# Elastic Compliance Matrix: (Units=1/GPa)
#
#
# Indices 1 2 3 4 5 6 
#
# 1 0.023122 0.002030 -0.014250 0.000000 0.000000 0.000000
# 2 0.002030 0.023122 -0.014250 0.000000 0.000000 0.000000
# 3 -0.014250 -0.014250 0.049881 0.000000 0.000000 0.000000
# 4 0.000000 0.000000 0.000000 0.042831 0.000000 0.000000
# 5 0.000000 0.000000 0.000000 0.000000 0.042831 0.000000
# 6 0.000000 0.000000 0.000000 0.000000 0.000000 0.042184
#
#
# Mechanical properties :
#
#
# Convention : Reuss Voigt Hill
#
# Bulk Modulus (GPa) = 23.15661 23.82247 23.48954
# Shear Modulus (GPa) = 17.16394 20.51772 18.84083
#
# Velocity S-wave (km/s) = 3.16352 3.45881 3.31445
# Velocity P-wave (km/s) = 5.18130 5.46273 5.32387
#
# Compressibility (1/GPa) = 0.04318422
#
# Stress axis : x y z
#
# Youngs Moduli (GPa) = 43.24841 43.24841 20.04773
#
# Poissons Ratio (x) = -0.08780 0.28569
# Poissons Ratio (y) = -0.08780 0.28569
# Poissons Ratio (z) = 0.61631 0.61631
#
# Static dielectric constant tensor:
#      x y z
#    x 3.393930 0.000000 0.000000 
#    y 0.000000 3.393930 0.000000 
#    z 0.000000 0.000000 3.193690 
# 
# 
# High freq. dielectric constant tensor:
#      x y z
#    x 1.643800 0.000000 0.000000 
#    y 0.000000 1.643800 0.000000 
#    z 0.000000 0.000000 1.671790 
# 
# From -- ./inp_files/1164.got.cif
#   From: 2010.03.12/outbox.cif.g09.slc.cpg/sg175_1_cif.got.tgz:1164.got - 2010.04.02 06:55:29.
