data_PCOD8325019
_publ_section_title
;
Structure prediction by ZEFSAII (Michael W. Deem and Ramdas Pophale) SiO2 
 PCOD8325019
Probable space group: P 6/M
;
_chemical_formula_sum "Si O2"
_cell_formula_units_Z 70
_cell_length_a 17.728301
_cell_length_b 17.728301
_cell_length_c 18.405106
_cell_angle_alpha 90.000000
_cell_angle_beta 90.000000
_cell_angle_gamma 120.000000
_cell_volume 5009.601592
_symmetry_space_group_name_H-M "P 6/M"
_symmetry_group_IT_number 175
_symmetry_cell_setting 'hexagonal'
loop_
_space_group_symop_operation_xyz
x,y,z
x-y,x,z
-y,x-y,z
-x,-y,z
-x+y,-x,z
y,-x+y,z
-x,-y,-z
-x+y,-x,-z
y,-x+y,-z
x,y,-z
x-y,x,-z
-y,x-y,-z
loop_
_atom_site_type_symbol
_atom_site_label
_atom_site_fract_x
_atom_site_fract_y
_atom_site_fract_z
Si Si1 0.429401 0.405447 0.583041
Si Si2 0.333334 0.666668 0.413373
Si Si3 0.526170 0.743046 0.416863
Si Si4 0.195132 0.047832 0.923363
Si Si5 0.198362 0.048642 0.765300
Si Si6 0.151441 0.196592 0.500000
Si Si7 0.677623 0.917462 0.365705
O O1 0.500000 0.500000 0.612819
O O2 0.403670 0.412199 0.500000
O O3 0.472557 0.345811 0.588919
O O4 0.343730 0.367037 0.631937
O O5 0.333334 0.666668 0.500000
O O6 0.432745 0.722999 0.385713
O O7 0.539164 0.776335 0.500000
O O8 0.603438 0.816710 0.369664
O O9 0.158438 0.112416 0.923952
O O10 0.242986 0.059568 0.845731
O O11 0.249421 0.061141 0.000000
O O12 0.164595 0.116797 0.752927
O O13 0.275188 0.067211 0.710664
O O14 0.163765 0.113701 0.500000
O O15 0.196176 0.252525 0.429162
#
# Coordination Sequence:
#
# PCOD8325019 Si02
#       7
#    12   4  12  12  12   6  12
#     4  10  19  31  46  61  77 100 134 174 215 254
#     4   9  18  30  48  66  78  93 124 170 223 270
#     4  10  18  30  44  59  78  99 131 171 212 253
#     4   8  13  22  37  56  77 103 136 174 211 244
#     4  10  19  29  41  58  83 114 148 179 207 236
#     4  12  23  34  43  54  76 112 152 182 198 220
#     4  12  21  31  44  59  81 110 141 173 208 244
#
# _framework density 13.973167
#
# number of rings (size 3 to 8) (size 9 to 14) (size 15 to 20)
#    0.000    1.886    1.714    4.543    0.000    4.800 
#    0.000    1.714    0.000    0.000    0.000    0.000 
#    0.000    0.686    0.000    5.829    0.000    4.114 
#
# Total GULP energy -867464.585078 kJ/mol
# GULP energy per Si atom -12392.351215 kJ/mol
# Density = 1.394136 g / cm^3
# Si number density = 13.973167 Si / 1000 Ang^3
#
#
#
# Elastic Constant Matrix: (Units=GPa)
#
#
# Indices 1 2 3 4 5 6 
#
# 1 84.5558 35.3529 41.9545 0.0000 0.0000 0.0006
# 2 35.3529 84.5564 41.9546 0.0000 0.0000 0.0002
# 3 41.9545 41.9546 110.7311 0.0000 0.0000 0.0000
# 4 0.0000 0.0000 0.0000 13.9782 0.0006 0.0000
# 5 0.0000 0.0000 0.0000 0.0006 13.9764 0.0000
# 6 0.0006 0.0002 0.0000 0.0000 0.0000 24.6021
#
#
#
# Elastic Compliance Matrix: (Units=1/GPa)
#
#
# Indices 1 2 3 4 5 6 
#
# 1 0.015836 -0.004488 -0.004300 0.000000 0.000000 0.000000
# 2 -0.004488 0.015836 -0.004300 0.000000 0.000000 0.000000
# 3 -0.004300 -0.004300 0.012289 0.000000 0.000000 0.000000
# 4 0.000000 0.000000 0.000000 0.071540 -0.000003 0.000000
# 5 0.000000 0.000000 0.000000 -0.000003 0.071549 0.000000
# 6 0.000000 0.000000 0.000000 0.000000 0.000000 0.040647
#
#
# Mechanical properties :
#
#
# Convention : Reuss Voigt Hill
#
# Bulk Modulus (GPa) = 56.22081 57.59637 56.90859
# Shear Modulus (GPa) = 19.24546 21.21674 20.23110
#
# Velocity S-wave (km/s) = 3.71525 3.90088 3.80920
# Velocity P-wave (km/s) = 7.66331 7.84843 7.75642
#
# Compressibility (1/GPa) = 0.01778701
#
# Stress axis : x y z
#
# Youngs Moduli (GPa) = 63.14611 63.14662 81.37241
#
# Poissons Ratio (x) = 0.28338 0.34989
# Poissons Ratio (y) = 0.28338 0.34988
# Poissons Ratio (z) = 0.27152 0.27152
#
# Static dielectric constant tensor:
#      x y z
#    x 2.741080 0.000000 0.000000 
#    y 0.000000 2.741090 0.000000 
#    z 0.000000 0.000000 3.011150 
# 
# 
# High freq. dielectric constant tensor:
#      x y z
#    x 1.528880 0.000000 0.000000 
#    y 0.000000 1.528880 0.000000 
#    z 0.000000 0.000000 1.502280 
# 
# From -- ./inp_files/2937.got.cif
#   From: 2010.03.12/outbox.cif.g09.slc.cpg/sg175_2_cif.got.tgz:2937.got - 2010.04.02 06:55:29.
