data_PCOD8325693
_publ_section_title
;
Structure prediction by ZEFSAII (Michael W. Deem and Ramdas Pophale) SiO2 
 PCOD8325693
Probable space group: P 63/M
;
_chemical_formula_sum "Si O2"
_cell_formula_units_Z 40
_cell_length_a 16.275740
_cell_length_b 16.275740
_cell_length_c 8.545248
_cell_angle_alpha 90.000000
_cell_angle_beta 90.000000
_cell_angle_gamma 120.000000
_cell_volume 1960.364323
_symmetry_space_group_name_H-M "P 63/M"
_symmetry_group_IT_number 176
_symmetry_cell_setting 'hexagonal'
loop_
_space_group_symop_operation_xyz
x,y,z
x-y,x,1/2+z
-y,x-y,z
-x,-y,1/2+z
-x+y,-x,z
y,-x+y,1/2+z
-x,-y,-z
-x+y,-x,1/2-z
y,-x+y,-z
x,y,1/2-z
x-y,x,-z
-y,x-y,1/2-z
loop_
_atom_site_type_symbol
_atom_site_label
_atom_site_fract_x
_atom_site_fract_y
_atom_site_fract_z
Si Si1 0.666668 0.333334 0.065290
Si Si2 0.635552 0.700818 0.432956
Si Si3 0.429629 0.872438 0.933357
Si Si4 0.611341 0.876125 0.066998
O O1 0.666667 0.333334 0.250000
O O2 0.650170 0.232409 0.007969
O O3 0.655543 0.706992 0.250000
O O4 0.539472 0.599443 0.472159
O O5 0.723951 0.702712 0.524518
O O6 0.627925 0.791224 0.491719
O O7 0.424605 0.889977 0.750000
O O8 0.528577 0.879335 0.971525
O O9 0.588621 0.865829 0.250000
#
# Coordination Sequence:
#
# PCOD8325693 Si02
#       4
#     4  12  12  12
#     4   9  18  30  52  83 115 156 193 227 274 321
#     4  11  24  40  59  85 115 150 191 236 286 338
#     4  11  20  36  59  85 118 156 196 233 277 331
#     4  11  24  40  59  85 115 150 191 236 286 338
#
# _framework density 20.404371000000001
#
# number of rings (size 3 to 8) (size 9 to 14) (size 15 to 20)
#    0.000    1.200    3.000    3.600    0.000    3.600 
#    0.000    0.000    0.000    0.600    0.000    0.000 
#    0.000    0.000    0.000    0.000    0.000    0.000 
#
# Total GULP energy -495832.619078 kJ/mol
# GULP energy per Si atom -12395.815477 kJ/mol
# Density = 2.035793 g / cm^3
# Si number density = 20.404371 Si / 1000 Ang^3
#
#
#
# Elastic Constant Matrix: (Units=GPa)
#
#
# Indices 1 2 3 4 5 6 
#
# 1 74.5888 35.4516 11.0631 0.0000 0.0000 -0.0001
# 2 35.4516 74.5895 11.0634 0.0000 0.0000 0.0007
# 3 11.0631 11.0634 55.7554 0.0000 0.0000 0.0000
# 4 0.0000 0.0000 0.0000 29.3693 0.0001 0.0000
# 5 0.0000 0.0000 0.0000 0.0001 29.3692 0.0000
# 6 -0.0001 0.0007 0.0000 0.0000 0.0000 19.5694
#
#
#
# Elastic Compliance Matrix: (Units=1/GPa)
#
#
# Indices 1 2 3 4 5 6 
#
# 1 0.017508 -0.008043 -0.001878 0.000000 0.000000 0.000000
# 2 -0.008043 0.017508 -0.001878 0.000000 0.000000 -0.000001
# 3 -0.001878 -0.001878 0.018681 0.000000 0.000000 0.000000
# 4 0.000000 0.000000 0.000000 0.034049 0.000000 0.000000
# 5 0.000000 0.000000 0.000000 0.000000 0.034049 0.000000
# 6 0.000000 -0.000001 0.000000 0.000000 0.000000 0.051100
#
#
# Mechanical properties :
#
#
# Convention : Reuss Voigt Hill
#
# Bulk Modulus (GPa) = 33.22402 35.56552 34.39477
# Shear Modulus (GPa) = 24.20997 25.48530 24.84763
#
# Velocity S-wave (km/s) = 3.44831 3.53797 3.49343
# Velocity P-wave (km/s) = 5.67209 5.84447 5.75893
#
# Compressibility (1/GPa) = 0.03009870
#
# Stress axis : x y z
#
# Youngs Moduli (GPa) = 57.11643 57.11685 53.53088
#
# Poissons Ratio (x) = 0.45938 0.10053
# Poissons Ratio (y) = 0.45938 0.10054
# Poissons Ratio (z) = 0.10727 0.10728
#
# Static dielectric constant tensor:
#      x y z
#    x 4.449490 0.000000 0.000000 
#    y 0.000000 4.449380 0.000000 
#    z 0.000000 0.000000 3.452890 
# 
# 
# High freq. dielectric constant tensor:
#      x y z
#    x 1.793980 0.000000 0.000000 
#    y 0.000000 1.793980 0.000000 
#    z 0.000000 0.000000 1.792030 
# 
# From -- ./inp_files/473.got.cif
#   From: 2010.06.25/outbox.cif.g09.slc.cpg/sg176_1_cif.got.tgz:473.got - 2010.06.28 12:15:01.
