data_PCOD8325696
_publ_section_title
;
Structure prediction by ZEFSAII (Michael W. Deem and Ramdas Pophale) SiO2 
 PCOD8325696
Probable space group: P 63/M
;
_chemical_formula_sum "Si O2"
_cell_formula_units_Z 72
_cell_length_a 23.451857
_cell_length_b 23.451857
_cell_length_c 8.835010
_cell_angle_alpha 90.000000
_cell_angle_beta 90.000000
_cell_angle_gamma 120.000000
_cell_volume 4208.159108
_symmetry_space_group_name_H-M "P 63/M"
_symmetry_group_IT_number 176
_symmetry_cell_setting 'hexagonal'
loop_
_space_group_symop_operation_xyz
x,y,z
x-y,x,1/2+z
-y,x-y,z
-x,-y,1/2+z
-x+y,-x,z
y,-x+y,1/2+z
-x,-y,-z
-x+y,-x,1/2-z
y,-x+y,-z
x,y,1/2-z
x-y,x,-z
-y,x-y,1/2-z
loop_
_atom_site_type_symbol
_atom_site_label
_atom_site_fract_x
_atom_site_fract_y
_atom_site_fract_z
Si Si1 0.347148 0.057341 0.070592
Si Si2 0.082756 0.491471 0.082815
Si Si3 0.855691 0.142004 0.429299
Si Si4 0.370742 0.279484 0.930204
Si Si5 0.937149 0.854931 0.931658
Si Si6 0.403179 0.477197 0.582422
O O1 0.354777 0.060387 0.250000
O O2 0.309049 0.093707 0.013944
O O3 0.422337 0.088497 0.005254
O O4 0.303041 0.982764 0.018060
O O5 0.110727 0.512176 0.250000
O O6 0.109870 0.444663 0.017692
O O7 0.004207 0.450066 0.083536
O O8 0.108927 0.560604 0.997346
O O9 0.860081 0.132744 0.250000
O O10 0.786138 0.134367 0.475052
O O11 0.871173 0.091911 0.519831
O O12 0.367696 0.267127 0.750000
O O13 0.935984 0.860313 0.750000
O O14 0.895555 0.883952 0.009797
O O15 0.389400 0.492560 0.750000
#
# Coordination Sequence:
#
# PCOD8325696 Si02
#       6
#    12  12  12  12  12  12
#     4   8  16  30  46  63  89 124 156 189 233 285
#     4   8  14  24  40  63  89 116 145 178 217 264
#     4  11  21  33  50  73  99 129 166 205 248 300
#     4   9  17  31  47  63  91 129 160 190 237 291
#     4  12  25  42  60  78  98 124 164 215 271 323
#     4   8  13  24  42  62  85 115 146 175 214 262
#
# _framework density 17.109618999999999
#
# number of rings (size 3 to 8) (size 9 to 14) (size 15 to 20)
#    0.000    2.667    0.000    5.167    0.000    2.000 
#    0.000    5.000    0.000    0.000    0.000    0.000 
#    1.667    0.000    1.000    0.000    1.333    0.000 
#
# Total GULP energy -892056.460965 kJ/mol
# GULP energy per Si atom -12389.673069 kJ/mol
# Density = 1.707068 g / cm^3
# Si number density = 17.109619 Si / 1000 Ang^3
#
#
#
# Elastic Constant Matrix: (Units=GPa)
#
#
# Indices 1 2 3 4 5 6 
#
# 1 54.1202 6.4565 17.6750 0.0000 0.0000 0.0000
# 2 6.4565 54.1202 17.6750 0.0000 0.0000 0.0000
# 3 17.6750 17.6750 61.8549 0.0000 0.0000 0.0000
# 4 0.0000 0.0000 0.0000 23.7114 0.0000 0.0000
# 5 0.0000 0.0000 0.0000 0.0000 23.7114 0.0000
# 6 0.0000 0.0000 0.0000 0.0000 0.0000 23.8318
#
#
#
# Elastic Compliance Matrix: (Units=1/GPa)
#
#
# Indices 1 2 3 4 5 6 
#
# 1 0.020396 -0.000584 -0.005661 0.000000 0.000000 0.000000
# 2 -0.000584 0.020396 -0.005661 0.000000 0.000000 0.000000
# 3 -0.005661 -0.005661 0.019402 0.000000 0.000000 0.000000
# 4 0.000000 0.000000 0.000000 0.042174 0.000000 0.000000
# 5 0.000000 0.000000 0.000000 0.000000 0.042174 0.000000
# 6 0.000000 0.000000 0.000000 0.000000 0.000000 0.041961
#
#
# Mechanical properties :
#
#
# Convention : Reuss Voigt Hill
#
# Bulk Modulus (GPa) = 27.48703 28.18982 27.83843
# Shear Modulus (GPa) = 22.47768 22.80350 22.64059
#
# Velocity S-wave (km/s) = 3.62849 3.65470 3.64162
# Velocity P-wave (km/s) = 5.80127 5.85840 5.82991
#
# Compressibility (1/GPa) = 0.03638079
#
# Stress axis : x y z
#
# Youngs Moduli (GPa) = 49.02925 49.02925 51.54054
#
# Poissons Ratio (x) = 0.02865 0.29178
# Poissons Ratio (y) = 0.02865 0.29178
# Poissons Ratio (z) = 0.27756 0.27756
#
# Static dielectric constant tensor:
#      x y z
#    x 3.287990 0.000000 0.000000 
#    y 0.000000 3.287990 0.000000 
#    z 0.000000 0.000000 3.147380 
# 
# 
# High freq. dielectric constant tensor:
#      x y z
#    x 1.644770 0.000000 0.000000 
#    y 0.000000 1.644770 0.000000 
#    z 0.000000 0.000000 1.647050 
# 
# From -- ./inp_files/1193.got.cif
#   From: 2010.06.25/outbox.cif.g09.slc.cpg/sg176_1_cif.got.tgz:1193.got - 2010.06.28 12:15:01.
