data_PCOD8325961
_publ_section_title
;
Structure prediction by ZEFSAII (Michael W. Deem and Ramdas Pophale) SiO2 
 PCOD8325961
Probable space group: P 61 2 2
;
_chemical_formula_sum "Si O2"
_cell_formula_units_Z 66
_cell_length_a 12.676785
_cell_length_b 12.676785
_cell_length_c 23.934059
_cell_angle_alpha 90.000000
_cell_angle_beta 90.000000
_cell_angle_gamma 120.000000
_cell_volume 3330.927947
_symmetry_space_group_name_H-M "P 61 2 2"
_symmetry_group_IT_number 178
_symmetry_cell_setting 'hexagonal'
loop_
_space_group_symop_operation_xyz
x,y,z
x-y,x,1/6+z
-y,x-y,1/3+z
-x,-y,1/2+z
-x+y,-x,2/3+z
y,-x+y,5/6+z
x-y,-y,-z
-x,-x+y,2/3-z
y,x,1/3-z
-y,-x,5/6-z
-x+y,y,1/2-z
x,x-y,1/6-z
loop_
_atom_site_type_symbol
_atom_site_label
_atom_site_fract_x
_atom_site_fract_y
_atom_site_fract_z
Si Si1 0.563938 0.000000 0.000000
Si Si2 0.475954 0.088784 0.697711
Si Si3 0.433160 0.820032 0.415166
Si Si4 0.898263 0.989020 0.216677
Si Si5 0.144278 0.769683 0.134171
Si Si6 0.216627 0.353518 0.591434
O O1 0.547647 0.108988 0.974071
O O2 0.619113 0.966033 0.946828
O O3 0.567173 0.134346 0.750000
O O4 0.537895 0.099983 0.638200
O O5 0.412236 0.171125 0.694915
O O6 0.370157 0.952843 0.711461
O O7 0.309319 0.690682 0.416667
O O8 0.550902 0.803977 0.409146
O O9 0.862017 0.091635 0.204840
O O10 0.026481 0.052962 0.250000
O O11 0.789707 0.877353 0.250459
O O12 0.919776 0.919776 0.166667
O O13 0.187944 0.773774 0.197848
#
# Coordination Sequence:
#
# PCOD8325961 Si02
#       6
#     6  12  12  12  12  12
#     4  12  24  40  66 104 132 170 226 288 338 402
#     4  11  22  39  66  91 124 169 221 271 327 403
#     4  12  25  43  67  96 137 179 224 284 338 408
#     4  11  22  38  64  96 131 165 214 278 338 392
#     4  11  24  41  63  95 134 176 217 271 342 410
#     4  11  21  36  66  99 126 158 221 282 341 389
#
# _framework density 19.814297
#
# number of rings (size 3 to 8) (size 9 to 14) (size 15 to 20)
#    0.000    0.727    8.182    0.545    0.000    0.727 
#    1.636    0.000    0.000    0.000    0.000    0.000 
#    0.000    0.000    0.000    0.000    0.000    0.000 
#
# Total GULP energy -817994.618862 kJ/mol
# GULP energy per Si atom -12393.857862 kJ/mol
# Density = 1.976920 g / cm^3
# Si number density = 19.814297 Si / 1000 Ang^3
#
#
#
# Elastic Constant Matrix: (Units=GPa)
#
#
# Indices 1 2 3 4 5 6 
#
# 1 105.7713 52.3656 30.8306 0.0000 0.0000 0.0000
# 2 52.3656 105.7713 30.8306 0.0000 0.0000 0.0000
# 3 30.8306 30.8306 81.4030 0.0000 0.0000 0.0000
# 4 0.0000 0.0000 0.0000 30.1971 0.0000 0.0000
# 5 0.0000 0.0000 0.0000 0.0000 30.1971 0.0000
# 6 0.0000 0.0000 0.0000 0.0000 0.0000 26.7029
#
#
#
# Elastic Compliance Matrix: (Units=1/GPa)
#
#
# Indices 1 2 3 4 5 6 
#
# 1 0.013072 -0.005653 -0.002810 0.000000 0.000000 0.000000
# 2 -0.005653 0.013072 -0.002810 0.000000 0.000000 0.000000
# 3 -0.002810 -0.002810 0.014413 0.000000 0.000000 0.000000
# 4 0.000000 0.000000 0.000000 0.033116 0.000000 0.000000
# 5 0.000000 0.000000 0.000000 0.000000 0.033116 0.000000
# 6 0.000000 0.000000 0.000000 0.000000 0.000000 0.037449
#
#
# Mechanical properties :
#
#
# Convention : Reuss Voigt Hill
#
# Bulk Modulus (GPa) = 55.51940 57.88883 56.70412
# Shear Modulus (GPa) = 28.93740 29.34735 29.14237
#
# Velocity S-wave (km/s) = 3.82570 3.85271 3.83923
# Velocity P-wave (km/s) = 6.89894 7.00502 6.95218
#
# Compressibility (1/GPa) = 0.01801172
#
# Stress axis : x y z
#
# Youngs Moduli (GPa) = 76.49967 76.49967 69.38139
#
# Poissons Ratio (x) = 0.43242 0.19496
# Poissons Ratio (y) = 0.43242 0.19496
# Poissons Ratio (z) = 0.21496 0.21496
#
# Static dielectric constant tensor:
#      x y z
#    x 3.569300 0.000000 0.000000 
#    y 0.000000 3.569300 0.000000 
#    z 0.000000 0.000000 3.524060 
# 
# 
# High freq. dielectric constant tensor:
#      x y z
#    x 1.768280 0.000000 0.000000 
#    y 0.000000 1.768280 0.000000 
#    z 0.000000 0.000000 1.772540 
# 
# From -- ./inp_files/9540.got.cif
#   From: 2010.03.12/outbox.cif.g09.slc.cpg/sg178_5_cif.got.tgz:9540.got - 2010.04.02 07:02:38.
