data_PCOD8325425
_publ_section_title
;
Structure prediction by ZEFSAII (Michael W. Deem and Ramdas Pophale) SiO2 
 PCOD8325425
Probable space group: P 63/M
;
_chemical_formula_sum "Si O2"
_cell_formula_units_Z 64
_cell_length_a 14.442274
_cell_length_b 14.442274
_cell_length_c 17.016365
_cell_angle_alpha 90.000000
_cell_angle_beta 90.000000
_cell_angle_gamma 120.000000
_cell_volume 3073.750304
_symmetry_space_group_name_H-M "P 63/M"
_symmetry_group_IT_number 176
_symmetry_cell_setting 'hexagonal'
loop_
_space_group_symop_operation_xyz
x,y,z
x-y,x,1/2+z
-y,x-y,z
-x,-y,1/2+z
-x+y,-x,z
y,-x+y,1/2+z
-x,-y,-z
-x+y,-x,1/2-z
y,-x+y,-z
x,y,1/2-z
x-y,x,-z
-y,x-y,1/2-z
loop_
_atom_site_type_symbol
_atom_site_label
_atom_site_fract_x
_atom_site_fract_y
_atom_site_fract_z
Si Si1 0.333335 0.666667 0.156114
Si Si2 0.744725 0.045537 0.661561
Si Si3 0.591662 0.120223 0.157685
Si Si4 0.759456 0.889523 0.478751
Si Si5 0.471267 0.575970 0.341621
Si Si6 0.416403 0.169396 0.101410
O O1 0.333334 0.666668 0.250000
O O2 0.214116 0.624417 0.122468
O O3 0.780108 0.084012 0.750000
O O4 0.852238 0.101676 0.611220
O O5 0.665798 0.082093 0.622718
O O6 0.677416 0.915745 0.658690
O O7 0.584627 0.146053 0.250000
O O8 0.522763 0.157877 0.105092
O O9 0.711270 0.168102 0.129428
O O10 0.542127 0.993391 0.143074
O O11 0.816407 0.833739 0.525280
O O12 0.641931 0.852885 0.516229
O O13 0.481162 0.601334 0.250000
#
# Coordination Sequence:
#
# PCOD8325425 Si02
#       6
#     4  12  12  12  12  12
#     4   9  15  27  42  63  99 144 180 216 265 317
#     4   9  18  37  59  83 114 153 199 249 295 352
#     4  10  18  32  55  87 118 148 186 236 290 351
#     4  10  22  41  62  85 118 160 201 249 307 358
#     4   8  16  28  46  71 105 143 184 228 275 329
#     4  10  20  35  59  87 119 156 192 238 304 363
#
# _framework density 20.821470999999999
#
# number of rings (size 3 to 8) (size 9 to 14) (size 15 to 20)
#    0.000    2.625    0.000    3.375    0.000    1.500 
#    0.000   17.812    0.000    0.000    0.000    0.000 
#    0.000    0.000    0.000    0.000    0.000    0.000 
#
# Total GULP energy -792891.863161 kJ/mol
# GULP energy per Si atom -12388.935362 kJ/mol
# Density = 2.077408 g / cm^3
# Si number density = 20.821471 Si / 1000 Ang^3
#
#
#
# Elastic Constant Matrix: (Units=GPa)
#
#
# Indices 1 2 3 4 5 6 
#
# 1 113.2851 55.0709 28.0972 0.0000 0.0000 -0.0002
# 2 55.0709 113.2865 28.0978 0.0000 0.0000 0.0002
# 3 28.0972 28.0978 61.2459 0.0000 0.0000 0.0003
# 4 0.0000 0.0000 0.0000 17.6367 0.0001 0.0000
# 5 0.0000 0.0000 0.0000 0.0001 17.6365 0.0000
# 6 -0.0002 0.0002 0.0003 0.0000 0.0000 29.1069
#
#
#
# Elastic Compliance Matrix: (Units=1/GPa)
#
#
# Indices 1 2 3 4 5 6 
#
# 1 0.012096 -0.005082 -0.003218 0.000000 0.000000 0.000000
# 2 -0.005082 0.012096 -0.003218 0.000000 0.000000 0.000000
# 3 -0.003218 -0.003218 0.019280 0.000000 0.000000 0.000000
# 4 0.000000 0.000000 0.000000 0.056700 0.000000 0.000000
# 5 0.000000 0.000000 0.000000 0.000000 0.056701 0.000000
# 6 0.000000 0.000000 0.000000 0.000000 0.000000 0.034356
#
#
# Mechanical properties :
#
#
# Convention : Reuss Voigt Hill
#
# Bulk Modulus (GPa) = 48.93134 56.70546 52.81840
# Shear Modulus (GPa) = 22.61674 24.64612 23.63143
#
# Velocity S-wave (km/s) = 3.29936 3.44421 3.37256
# Velocity P-wave (km/s) = 6.16975 6.56582 6.37087
#
# Compressibility (1/GPa) = 0.02043680
#
# Stress axis : x y z
#
# Youngs Moduli (GPa) = 82.67329 82.67393 51.86733
#
# Poissons Ratio (x) = 0.42015 0.16689
# Poissons Ratio (y) = 0.42014 0.16690
# Poissons Ratio (z) = 0.26601 0.26602
#
# Static dielectric constant tensor:
#      x y z
#    x 3.907580 0.000000 0.000000 
#    y 0.000000 3.907570 0.000000 
#    z 0.000000 0.000000 3.454610 
# 
# 
# High freq. dielectric constant tensor:
#      x y z
#    x 1.817740 0.000000 0.000000 
#    y 0.000000 1.817740 0.000000 
#    z 0.000000 0.000000 1.779260 
# 
# From -- ./inp_files/3321.got.cif
#   From: 2010.06.25/outbox.cif.g09.slc.cpg/sg176_2_cif.got.tgz:3321.got - 2010.06.28 12:15:01.
