data_PCOD8325740
_publ_section_title
;
Structure prediction by ZEFSAII (Michael W. Deem and Ramdas Pophale) SiO2 
 PCOD8325740
Probable space group: P 6 2 2
;
_chemical_formula_sum "Si O2"
_cell_formula_units_Z 72
_cell_length_a 24.000789
_cell_length_b 24.000789
_cell_length_c 8.930179
_cell_angle_alpha 90.000000
_cell_angle_beta 90.000000
_cell_angle_gamma 120.000000
_cell_volume 4454.939737
_symmetry_space_group_name_H-M "P 6 2 2"
_symmetry_group_IT_number 177
_symmetry_cell_setting 'hexagonal'
loop_
_space_group_symop_operation_xyz
x,y,z
x-y,x,z
-y,x-y,z
-x,-y,z
-x+y,-x,z
y,-x+y,z
x-y,-y,-z
-x,-x+y,-z
y,x,-z
-y,-x,-z
-x+y,y,-z
x,x-y,-z
loop_
_atom_site_type_symbol
_atom_site_label
_atom_site_fract_x
_atom_site_fract_y
_atom_site_fract_z
Si Si1 0.256923 0.743078 0.662678
Si Si2 0.495809 0.866746 0.678654
Si Si3 0.296498 0.370516 0.827534
Si Si4 0.819181 0.638362 0.665279
Si Si5 0.925983 0.629484 0.827534
Si Si6 0.370937 0.866746 0.678654
O O1 0.273676 0.726325 0.500000
O O2 0.206855 0.675511 0.742285
O O3 0.218724 0.781276 0.647771
O O4 0.324489 0.793145 0.742287
O O5 0.563761 0.915272 0.751958
O O6 0.444417 0.888833 0.720568
O O7 0.505516 0.866872 0.500000
O O8 0.226203 0.340963 0.753307
O O9 0.317052 0.317052 0.807658
O O10 0.291496 0.385649 0.000000
O O11 0.835258 0.670515 0.500000
O O12 0.885240 0.659037 0.753307
O O13 0.915272 0.563761 0.751958
#
# Coordination Sequence:
#
# PCOD8325740 Si02
#       6
#    12  12  12  12  12  12
#     4   7  12  25  41  57  77 103 139 182 229 274
#     4   9  17  29  44  62  85 115 154 198 240 281
#     4  10  20  32  47  68  93 122 153 184 227 281
#     4   9  17  31  51  69  87 113 146 184 223 264
#     4  10  20  32  47  68  93 122 153 184 227 281
#     4   9  17  29  44  62  85 115 154 198 240 281
#
# _framework density 16.161833999999999
#
# number of rings (size 3 to 8) (size 9 to 14) (size 15 to 20)
#    0.000    3.000    0.000    3.500    0.000    4.000 
#    1.000    3.333    0.000    0.000    0.000    0.000 
#    0.000    0.000    0.000    0.500    0.000    9.667 
#
# Total GULP energy -891952.061727 kJ/mol
# GULP energy per Si atom -12388.223080 kJ/mol
# Density = 1.612505 g / cm^3
# Si number density = 16.161834 Si / 1000 Ang^3
#
#
#
# Elastic Constant Matrix: (Units=GPa)
#
#
# Indices 1 2 3 4 5 6 
#
# 1 71.8661 37.7577 39.5948 0.0000 0.0000 0.0000
# 2 37.7577 71.8661 39.5948 0.0000 0.0000 0.0000
# 3 39.5948 39.5948 84.8905 0.0000 0.0000 0.0000
# 4 0.0000 0.0000 0.0000 21.2832 0.0000 0.0000
# 5 0.0000 0.0000 0.0000 0.0000 21.2832 0.0000
# 6 0.0000 0.0000 0.0000 0.0000 0.0000 17.0542
#
#
#
# Elastic Compliance Matrix: (Units=1/GPa)
#
#
# Indices 1 2 3 4 5 6 
#
# 1 0.021538 -0.007780 -0.006417 0.000000 0.000000 0.000000
# 2 -0.007780 0.021538 -0.006417 0.000000 0.000000 0.000000
# 3 -0.006417 -0.006417 0.017766 0.000000 0.000000 0.000000
# 4 0.000000 0.000000 0.000000 0.046986 0.000000 0.000000
# 5 0.000000 0.000000 0.000000 0.000000 0.046986 0.000000
# 6 0.000000 0.000000 0.000000 0.000000 0.000000 0.058637
#
#
# Mechanical properties :
#
#
# Convention : Reuss Voigt Hill
#
# Bulk Modulus (GPa) = 50.98527 51.39081 51.18804
# Shear Modulus (GPa) = 19.14134 19.36913 19.25523
#
# Velocity S-wave (km/s) = 3.44518 3.46562 3.45541
# Velocity P-wave (km/s) = 6.88773 6.91959 6.90368
#
# Compressibility (1/GPa) = 0.01961351
#
# Stress axis : x y z
#
# Youngs Moduli (GPa) = 46.42988 46.42988 56.28816
#
# Poissons Ratio (x) = 0.36124 0.36119
# Poissons Ratio (y) = 0.36124 0.36119
# Poissons Ratio (z) = 0.29793 0.29793
#
# Static dielectric constant tensor:
#      x y z
#    x 2.984840 0.000000 0.000000 
#    y 0.000000 2.984840 0.000000 
#    z 0.000000 0.000000 3.038760 
# 
# 
# High freq. dielectric constant tensor:
#      x y z
#    x 1.597470 0.000000 0.000000 
#    y 0.000000 1.597470 0.000000 
#    z 0.000000 0.000000 1.612400 
# 
# From -- ./inp_files/1526.got.cif
#   From: 2010.03.12/outbox.cif.g09.slc.cpg/sg177_1_cif.got.tgz:1526.got - 2010.04.02 07:00:27.
