data_PCOD8325300
_publ_section_title
;
Structure prediction by ZEFSAII (Michael W. Deem and Ramdas Pophale) SiO2 
 PCOD8325300
Probable space group: P 6/M
;
_chemical_formula_sum "Si O2"
_cell_formula_units_Z 48
_cell_length_a 17.468748
_cell_length_b 17.468748
_cell_length_c 8.747754
_cell_angle_alpha 90.000000
_cell_angle_beta 90.000000
_cell_angle_gamma 120.000000
_cell_volume 2311.802627
_symmetry_space_group_name_H-M "P 6/M"
_symmetry_group_IT_number 175
_symmetry_cell_setting 'hexagonal'
loop_
_space_group_symop_operation_xyz
x,y,z
x-y,x,z
-y,x-y,z
-x,-y,z
-x+y,-x,z
y,-x+y,z
-x,-y,-z
-x+y,-x,-z
y,-x+y,-z
x,y,-z
x-y,x,-z
-y,x-y,-z
loop_
_atom_site_type_symbol
_atom_site_label
_atom_site_fract_x
_atom_site_fract_y
_atom_site_fract_z
Si Si1 0.313155 0.823950 0.179798
Si Si2 0.839820 0.353183 0.322430
Si Si3 0.663412 0.671406 0.323904
Si Si4 0.978527 0.165179 0.822126
O O1 0.404708 0.839177 0.243751
O O2 0.232894 0.737232 0.249606
O O3 0.301076 0.906639 0.220584
O O4 0.311396 0.812246 0.000000
O O5 0.818091 0.352250 0.500000
O O6 0.936383 0.366632 0.295545
O O7 0.650645 0.688019 0.500000
O O8 0.765207 0.730686 0.276740
O O9 0.069153 0.169106 0.777465
O O10 0.975824 0.185640 0.000000
#
# Coordination Sequence:
#
# PCOD8325300 Si02
#       4
#    12  12  12  12
#     4  12  25  41  64  93 124 158 201 251 303 359
#     4  11  24  43  65  89 123 163 203 248 300 360
#     4  11  24  41  62  89 121 160 204 249 301 360
#     4  10  21  38  61  89 122 160 202 250 304 361
#
# _framework density 20.763017999999999
#
# number of rings (size 3 to 8) (size 9 to 14) (size 15 to 20)
#    0.000    1.000    0.000    6.750    0.000   13.000 
#    0.000    0.000    0.000    1.500    0.000    0.000 
#    0.000    0.000    0.000    0.000    0.000    0.000 
#
# Total GULP energy -595600.444838 kJ/mol
# GULP energy per Si atom -12408.342601 kJ/mol
# Density = 2.071576 g / cm^3
# Si number density = 20.763018 Si / 1000 Ang^3
#
#
#
# Elastic Constant Matrix: (Units=GPa)
#
#
# Indices 1 2 3 4 5 6 
#
# 1 79.0966 -2.6279 41.1149 0.0000 0.0000 0.0000
# 2 -2.6279 79.0966 41.1149 0.0000 0.0000 0.0000
# 3 41.1149 41.1149 115.0099 0.0000 0.0000 0.0000
# 4 0.0000 0.0000 0.0000 28.3363 0.0000 0.0000
# 5 0.0000 0.0000 0.0000 0.0000 28.3363 0.0000
# 6 0.0000 0.0000 0.0000 0.0000 0.0000 40.8622
#
#
#
# Elastic Compliance Matrix: (Units=1/GPa)
#
#
# Indices 1 2 3 4 5 6 
#
# 1 0.016740 0.004504 -0.007594 0.000000 0.000000 0.000000
# 2 0.004504 0.016740 -0.007594 0.000000 0.000000 0.000000
# 3 -0.007594 -0.007594 0.014125 0.000000 0.000000 0.000000
# 4 0.000000 0.000000 0.000000 0.035290 0.000000 0.000000
# 5 0.000000 0.000000 0.000000 0.000000 0.035290 0.000000
# 6 0.000000 0.000000 0.000000 0.000000 0.000000 0.024472
#
#
# Mechanical properties :
#
#
# Convention : Reuss Voigt Hill
#
# Bulk Modulus (GPa) = 38.11748 48.04521 43.08134
# Shear Modulus (GPa) = 28.93965 32.41372 30.67668
#
# Velocity S-wave (km/s) = 3.73742 3.95540 3.84795
# Velocity P-wave (km/s) = 6.08462 6.63704 6.36682
#
# Compressibility (1/GPa) = 0.02623468
#
# Stress axis : x y z
#
# Youngs Moduli (GPa) = 59.73688 59.73688 70.79738
#
# Poissons Ratio (x) = -0.26905 0.53767
# Poissons Ratio (y) = -0.26905 0.53767
# Poissons Ratio (z) = 0.45367 0.45367
#
# Static dielectric constant tensor:
#      x y z
#    x 3.924690 0.000000 0.000000 
#    y 0.000000 3.924690 0.000000 
#    z 0.000000 0.000000 3.849530 
# 
# 
# High freq. dielectric constant tensor:
#      x y z
#    x 1.829960 0.000000 0.000000 
#    y 0.000000 1.829960 0.000000 
#    z 0.000000 0.000000 1.819720 
# 
# From -- ./inp_files/512.got.cif
#   From: 2010.03.12/outbox.cif.g09.slc.cpg/sg175_1_cif.got.tgz:512.got - 2010.04.02 06:55:29.
