data_PCOD8325818
_publ_section_title
;
Structure prediction by ZEFSAII (Michael W. Deem and Ramdas Pophale) SiO2 
 PCOD8325818
Probable space group: P 61 2 2
;
_chemical_formula_sum "Si O2"
_cell_formula_units_Z 60
_cell_length_a 16.990797
_cell_length_b 16.990797
_cell_length_c 11.565814
_cell_angle_alpha 90.000000
_cell_angle_beta 90.000000
_cell_angle_gamma 120.000000
_cell_volume 2891.574177
_symmetry_space_group_name_H-M "P 61 2 2"
_symmetry_group_IT_number 178
_symmetry_cell_setting 'hexagonal'
loop_
_space_group_symop_operation_xyz
x,y,z
x-y,x,1/6+z
-y,x-y,1/3+z
-x,-y,1/2+z
-x+y,-x,2/3+z
y,-x+y,5/6+z
x-y,-y,-z
-x,-x+y,2/3-z
y,x,1/3-z
-y,-x,5/6-z
-x+y,y,1/2-z
x,x-y,1/6-z
loop_
_atom_site_type_symbol
_atom_site_label
_atom_site_fract_x
_atom_site_fract_y
_atom_site_fract_z
Si Si1 0.669721 0.509640 0.393505
Si Si2 0.100923 0.351949 0.069130
Si Si3 0.646525 0.457254 0.809424
Si Si4 0.139062 0.667649 0.302728
Si Si5 0.058509 0.329024 0.448358
O O1 0.588747 0.411254 0.416667
O O2 0.663417 0.551990 0.270100
O O3 0.757421 0.498778 0.392584
O O4 0.668763 0.569691 0.500437
O O5 0.132520 0.437163 0.156090
O O6 0.169821 0.312813 0.069613
O O7 0.008026 0.268882 0.119480
O O8 0.081555 0.381565 0.943202
O O9 0.718562 0.437123 0.750000
O O10 0.557831 0.430961 0.729583
O O11 0.610322 0.389679 0.916667
O O12 0.000000 0.314670 0.333334
#
# Coordination Sequence:
#
# PCOD8325818 Si02
#       5
#    12  12  12  12  12
#     4  10  22  36  55  86 120 165 204 255 283 338
#     4  10  23  41  60  85 116 154 195 256 302 377
#     4  10  20  31  54  79 113 161 205 250 288 335
#     4   9  21  36  56  85 120 158 212 245 294 333
#     4  11  23  41  60  85 119 151 202 244 313 369
#
# _framework density 20.749942999999998
#
# number of rings (size 3 to 8) (size 9 to 14) (size 15 to 20)
#    0.000    2.000    0.000    2.400   14.000    3.200 
#    0.000    0.000    0.000    0.000    0.000    0.000 
#   72.000    0.000    0.000    0.000    0.000    0.000 
#
# Total GULP energy -743558.771870 kJ/mol
# GULP energy per Si atom -12392.646198 kJ/mol
# Density = 2.070272 g / cm^3
# Si number density = 20.749943 Si / 1000 Ang^3
#
#
#
# Elastic Constant Matrix: (Units=GPa)
#
#
# Indices 1 2 3 4 5 6 
#
# 1 68.2876 57.3306 26.3176 0.0000 0.0000 0.0000
# 2 57.3306 68.2876 26.3176 0.0000 0.0000 0.0000
# 3 26.3176 26.3176 83.7773 0.0000 0.0000 0.0000
# 4 0.0000 0.0000 0.0000 26.9298 0.0000 0.0000
# 5 0.0000 0.0000 0.0000 0.0000 26.9298 0.0000
# 6 0.0000 0.0000 0.0000 0.0000 0.0000 5.4785
#
#
#
# Elastic Compliance Matrix: (Units=1/GPa)
#
#
# Indices 1 2 3 4 5 6 
#
# 1 0.050216 -0.041049 -0.002880 0.000000 0.000000 0.000000
# 2 -0.041049 0.050216 -0.002880 0.000000 0.000000 0.000000
# 3 -0.002880 -0.002880 0.013746 0.000000 0.000000 0.000000
# 4 0.000000 0.000000 0.000000 0.037134 0.000000 0.000000
# 5 0.000000 0.000000 0.000000 0.000000 0.037134 0.000000
# 6 0.000000 0.000000 0.000000 0.000000 0.000000 0.182531
#
#
# Mechanical properties :
#
#
# Convention : Reuss Voigt Hill
#
# Bulk Modulus (GPa) = 48.63547 48.92045 48.77796
# Shear Modulus (GPa) = 10.60565 19.22675 14.91620
#
# Velocity S-wave (km/s) = 2.26324 3.04730 2.68406
# Velocity P-wave (km/s) = 5.50631 6.00073 5.75883
#
# Compressibility (1/GPa) = 0.02056113
#
# Stress axis : x y z
#
# Youngs Moduli (GPa) = 19.91385 19.91385 72.75001
#
# Poissons Ratio (x) = 0.81744 0.20950
# Poissons Ratio (y) = 0.81744 0.20950
# Poissons Ratio (z) = 0.05735 0.05735
#
# Static dielectric constant tensor:
#      x y z
#    x 3.624270 0.000000 0.000000 
#    y 0.000000 3.624270 0.000000 
#    z 0.000000 0.000000 4.586650 
# 
# 
# High freq. dielectric constant tensor:
#      x y z
#    x 1.786480 0.000000 0.000000 
#    y 0.000000 1.786480 0.000000 
#    z 0.000000 0.000000 1.837400 
# 
# From -- ./inp_files/4537.got.cif
#   From: 2010.03.12/outbox.cif.g09.slc.cpg/sg178_3_cif.got.tgz:4537.got - 2010.04.02 07:02:38.
