data_PCOD8325604
_publ_section_title
;
Structure prediction by ZEFSAII (Michael W. Deem and Ramdas Pophale) SiO2 
 PCOD8325604
Probable space group: P 63/M
;
_chemical_formula_sum "Si O2"
_cell_formula_units_Z 96
_cell_length_a 13.785044
_cell_length_b 13.785044
_cell_length_c 26.931233
_cell_angle_alpha 90.000000
_cell_angle_beta 90.000000
_cell_angle_gamma 120.000000
_cell_volume 4432.035009
_symmetry_space_group_name_H-M "P 63/M"
_symmetry_group_IT_number 176
_symmetry_cell_setting 'hexagonal'
loop_
_space_group_symop_operation_xyz
x,y,z
x-y,x,1/2+z
-y,x-y,z
-x,-y,1/2+z
-x+y,-x,z
y,-x+y,1/2+z
-x,-y,-z
-x+y,-x,1/2-z
y,-x+y,-z
x,y,1/2-z
x-y,x,-z
-y,x-y,1/2-z
loop_
_atom_site_type_symbol
_atom_site_label
_atom_site_fract_x
_atom_site_fract_y
_atom_site_fract_z
Si Si1 0.125302 0.554564 0.401239
Si Si2 0.132054 0.260350 0.855041
Si Si3 0.871704 0.739650 0.855041
Si Si4 0.787136 0.200542 0.443317
Si Si5 0.429262 0.554564 0.598761
Si Si6 0.327461 0.867198 0.195610
Si Si7 0.413406 0.200542 0.556683
Si Si8 0.867198 0.327461 0.304390
O O1 0.173696 0.561788 0.344891
O O2 0.123258 0.661738 0.422432
O O3 0.191327 0.517289 0.438182
O O4 1.000000 0.451748 0.400166
O O5 0.167003 0.167003 0.843777
O O6 0.166769 0.302044 0.911798
O O7 0.199864 0.370745 0.820739
O O8 0.000000 0.206836 0.845090
O O9 0.829119 0.629255 0.820739
O O10 0.864725 0.697956 0.911798
O O11 0.661738 0.123258 0.422432
O O12 0.808673 0.325962 0.438182
O O13 0.812691 0.187309 0.500000
O O14 0.388092 0.561788 0.655109
O O15 0.324874 0.815271 0.250000
O O16 0.395041 1.000000 0.199331
O O17 0.815271 0.324874 0.250000
#
# Coordination Sequence:
#
# PCOD8325604 Si02
#       8
#    12  12  12  12  12  12  12  12
#     4  10  21  37  57  82 112 144 182 235 294 348
#     4  10  21  36  55  82 117 157 200 243 286 337
#     4  10  21  36  55  82 117 157 200 243 286 337
#     4  11  22  36  56  82 110 145 193 244 297 356
#     4  10  21  37  57  82 112 144 182 235 294 348
#     4   8  16  34  58  82 110 144 182 228 284 342
#     4  11  22  36  56  82 110 145 193 244 297 356
#     4   8  16  34  58  82 110 144 182 228 284 342
#
# _framework density 21.660477
#
# number of rings (size 3 to 8) (size 9 to 14) (size 15 to 20)
#    0.000    2.250    0.000    4.500    0.000    5.500 
#    0.000    5.000    0.000    9.000    0.000    0.000 
#    0.000    0.000    0.000    0.000    0.000    0.000 
#
# Total GULP energy -1189604.106421 kJ/mol
# GULP energy per Si atom -12391.709442 kJ/mol
# Density = 2.161118 g / cm^3
# Si number density = 21.660477 Si / 1000 Ang^3
#
#
#
# Elastic Constant Matrix: (Units=GPa)
#
#
# Indices 1 2 3 4 5 6 
#
# 1 58.0742 3.5486 10.0379 0.0000 0.0000 0.0000
# 2 3.5486 58.0742 10.0379 0.0000 0.0000 0.0000
# 3 10.0379 10.0379 145.1712 0.0000 0.0000 0.0000
# 4 0.0000 0.0000 0.0000 12.0437 0.0000 0.0000
# 5 0.0000 0.0000 0.0000 0.0000 12.0437 0.0000
# 6 0.0000 0.0000 0.0000 0.0000 0.0000 27.2628
#
#
#
# Elastic Compliance Matrix: (Units=1/GPa)
#
#
# Indices 1 2 3 4 5 6 
#
# 1 0.017471 -0.000869 -0.001148 0.000000 0.000000 0.000000
# 2 -0.000869 0.017471 -0.001148 0.000000 0.000000 0.000000
# 3 -0.001148 -0.001148 0.007047 0.000000 0.000000 0.000000
# 4 0.000000 0.000000 0.000000 0.083031 0.000000 0.000000
# 5 0.000000 0.000000 0.000000 0.000000 0.083031 0.000000
# 6 0.000000 0.000000 0.000000 0.000000 0.000000 0.036680
#
#
# Mechanical properties :
#
#
# Convention : Reuss Voigt Hill
#
# Bulk Modulus (GPa) = 28.04346 34.28538 31.16442
# Shear Modulus (GPa) = 19.01526 26.11639 22.56582
#
# Velocity S-wave (km/s) = 2.96612 3.47611 3.23119
# Velocity P-wave (km/s) = 4.97045 5.65456 5.32351
#
# Compressibility (1/GPa) = 0.03565893
#
# Stress axis : x y z
#
# Youngs Moduli (GPa) = 57.23807 57.23807 141.90097
#
# Poissons Ratio (x) = 0.04975 0.16289
# Poissons Ratio (y) = 0.04975 0.16289
# Poissons Ratio (z) = 0.06571 0.06571
#
# Static dielectric constant tensor:
#      x y z
#    x 3.660310 0.000000 0.000000 
#    y 0.000000 3.660310 0.000000 
#    z 0.000000 0.000000 4.138060 
# 
# 
# High freq. dielectric constant tensor:
#      x y z
#    x 1.838070 0.000000 0.000000 
#    y 0.000000 1.838070 0.000000 
#    z 0.000000 0.000000 1.849470 
# 
# From -- ./inp_files/4350.got.cif
#   From: 2010.06.25/outbox.cif.g09.slc.cpg/sg176_3_cif.got.tgz:4350.got - 2010.06.28 12:15:01.
