data_PCOD8325240
_publ_section_title
;
Structure prediction by ZEFSAII (Michael W. Deem and Ramdas Pophale) SiO2 
 PCOD8325240
Probable space group: P 6/M
;
_chemical_formula_sum "Si O2"
_cell_formula_units_Z 90
_cell_length_a 26.927783
_cell_length_b 26.927783
_cell_length_c 7.399305
_cell_angle_alpha 90.000000
_cell_angle_beta 90.000000
_cell_angle_gamma 120.000000
_cell_volume 4646.465948
_symmetry_space_group_name_H-M "P 6/M"
_symmetry_group_IT_number 175
_symmetry_cell_setting 'hexagonal'
loop_
_space_group_symop_operation_xyz
x,y,z
x-y,x,z
-y,x-y,z
-x,-y,z
-x+y,-x,z
y,-x+y,z
-x,-y,-z
-x+y,-x,-z
y,-x+y,-z
x,y,-z
x-y,x,-z
-y,x-y,-z
loop_
_atom_site_type_symbol
_atom_site_label
_atom_site_fract_x
_atom_site_fract_y
_atom_site_fract_z
Si Si1 0.665780 0.444071 0.214881
Si Si2 0.882397 0.764793 0.785879
Si Si3 0.312286 0.063425 0.214634
Si Si4 0.444071 0.665780 0.785119
Si Si5 0.063425 0.312286 0.214634
Si Si6 0.136591 0.068295 0.500000
Si Si7 0.430789 0.159587 0.785404
Si Si8 0.271202 0.840413 0.214596
O O1 0.605597 0.394403 0.296721
O O2 0.717277 0.434554 0.284282
O O3 0.677242 0.506834 0.279492
O O4 0.664000 0.441149 0.000000
O O5 0.816441 0.728094 0.724624
O O6 0.911653 0.728094 0.724624
O O7 0.912342 0.824683 0.680466
O O8 0.888966 0.777932 0.000000
O O9 0.377193 0.101351 0.291858
O O10 0.286718 0.000000 0.296225
O O11 0.313849 0.062484 0.000000
O O12 0.506834 0.677242 0.720508
O O13 0.441149 0.664000 0.000000
O O14 0.101351 0.377193 0.291858
O O15 0.062484 0.313849 0.000000
O O16 0.096531 0.096531 0.500000
O O17 0.423459 0.211730 0.713726
O O18 0.428631 0.158488 0.000000
O O19 0.270144 0.841512 0.000000
#
# Coordination Sequence:
#
# PCOD8325240 Si02
#       8
#    12  12  12  12  12   6  12  12
#     4   8  12  16  24  39  64 102 149 196 236 279
#     4  10  20  37  59  81 104 130 168 212 252 294
#     4   9  15  24  42  65  86 110 145 192 240 287
#     4   8  12  16  24  39  64 102 149 196 236 279
#     4   9  15  24  42  65  86 110 145 192 240 287
#     4  12  27  44  60  80 108 140 170 202 246 302
#     4   8  12  19  30  47  72 101 139 188 236 285
#     4   8  12  19  30  47  72 101 139 188 236 285
#
# _framework density 19.36956
#
# number of rings (size 3 to 8) (size 9 to 14) (size 15 to 20)
#    0.000    3.200    1.333    2.733    0.000    2.667 
#    0.000    0.000    0.000    1.600    0.000    5.600 
#    0.000    0.000    0.000    1.200    0.000    8.933 
#
# Total GULP energy -1114980.911747 kJ/mol
# GULP energy per Si atom -12388.676797 kJ/mol
# Density = 1.932547 g / cm^3
# Si number density = 19.369560 Si / 1000 Ang^3
#
#
#
# Elastic Constant Matrix: (Units=GPa)
#
#
# Indices 1 2 3 4 5 6 
#
# 1 189.5369 112.5645 10.8782 0.0000 0.0000 0.0000
# 2 112.5645 189.5369 10.8782 0.0000 0.0000 0.0000
# 3 10.8782 10.8782 39.3663 0.0000 0.0000 0.0000
# 4 0.0000 0.0000 0.0000 -6.5328 0.0000 0.0000
# 5 0.0000 0.0000 0.0000 0.0000 -6.5328 0.0000
# 6 0.0000 0.0000 0.0000 0.0000 0.0000 38.4862
#
#
#
# Elastic Compliance Matrix: (Units=1/GPa)
#
#
# Indices 1 2 3 4 5 6 
#
# 1 0.008185 -0.004807 -0.000933 0.000000 0.000000 0.000000
# 2 -0.004807 0.008185 -0.000933 0.000000 0.000000 0.000000
# 3 -0.000933 -0.000933 0.025918 0.000000 0.000000 0.000000
# 4 0.000000 0.000000 0.000000 -0.153074 0.000000 0.000000
# 5 0.000000 0.000000 0.000000 0.000000 -0.153074 0.000000
# 6 0.000000 0.000000 0.000000 0.000000 0.000000 0.025983
#
#
# Mechanical properties :
#
#
# Convention : Reuss Voigt Hill
#
# Bulk Modulus (GPa) = 34.55444 76.34243 55.44844
# Shear Modulus (GPa) = -23.26844 24.02539 0.37848
#
# Velocity S-wave (km/s) = -3.46972 3.52571 0.44252
# Velocity P-wave (km/s) = 1.35142 7.48821 5.38050
#
# Compressibility (1/GPa) = 0.02893984
#
# Stress axis : x y z
#
# Youngs Moduli (GPa) = 122.18195 122.18195 38.58287
#
# Poissons Ratio (x) = 0.58735 0.03601
# Poissons Ratio (y) = 0.58735 0.03601
# Poissons Ratio (z) = 0.11403 0.11403
#
# Static dielectric constant tensor:
#      x y z
#    x 3.902680 0.000000 0.000000 
#    y 0.000000 3.902680 0.000000 
#    z 0.000000 0.000000 2.998200 
# 
# 
# High freq. dielectric constant tensor:
#      x y z
#    x 1.743560 0.000000 0.000000 
#    y 0.000000 1.743560 0.000000 
#    z 0.000000 0.000000 1.724930 
# 
# From -- ./inp_files/1437.got.cif
#   From: 2010.03.12/outbox.cif.g09.slc.cpg/sg175_1_cif.got.tgz:1437.got - 2010.04.02 06:55:29.
