data_PCOD8325315
_publ_section_title
;
Structure prediction by ZEFSAII (Michael W. Deem and Ramdas Pophale) SiO2 
 PCOD8325315
Probable space group: P 6/M
;
_chemical_formula_sum "Si O2"
_cell_formula_units_Z 64
_cell_length_a 14.654556
_cell_length_b 14.654556
_cell_length_c 17.121848
_cell_angle_alpha 90.000000
_cell_angle_beta 90.000000
_cell_angle_gamma 120.000000
_cell_volume 3184.392546
_symmetry_space_group_name_H-M "P 6/M"
_symmetry_group_IT_number 175
_symmetry_cell_setting 'hexagonal'
loop_
_space_group_symop_operation_xyz
x,y,z
x-y,x,z
-y,x-y,z
-x,-y,z
-x+y,-x,z
y,-x+y,z
-x,-y,-z
-x+y,-x,-z
y,-x+y,-z
x,y,-z
x-y,x,-z
-y,x-y,-z
loop_
_atom_site_type_symbol
_atom_site_label
_atom_site_fract_x
_atom_site_fract_y
_atom_site_fract_z
Si Si1 0.001563 0.608244 0.907204
Si Si2 0.333335 0.666668 0.908338
Si Si3 0.070622 0.836725 0.407997
Si Si4 0.219637 0.783392 0.154746
Si Si5 0.576299 0.121011 0.590628
Si Si6 0.207526 0.760541 0.337422
O O1 0.099008 0.715026 0.872859
O O2 0.000000 0.500000 0.878992
O O3 0.901646 0.617378 0.878589
O O4 0.007495 0.612533 0.000000
O O5 0.448912 0.722815 0.878136
O O6 0.333334 0.666668 0.000000
O O7 0.074684 0.823416 0.500000
O O8 0.102434 0.759180 0.366018
O O9 0.955169 0.806627 0.380008
O O10 0.226789 0.788567 0.247430
O O11 0.569266 0.145159 0.500000
O O12 0.694381 0.151046 0.613091
O O13 0.546091 0.192133 0.644409
O O14 0.500000 0.000000 0.610613
#
# Coordination Sequence:
#
# PCOD8325315 Si02
#       6
#    12   4  12  12  12  12
#     4  11  24  44  70  97 133 171 214 264 330 413
#     4  12  21  42  69  96 127 158 211 261 324 396
#     4  10  21  39  64  89 116 154 205 262 318 366
#     4  12  26  39  67 102 133 172 212 269 335 384
#     4  11  24  41  63  88 125 175 219 257 313 383
#     4  12  25  39  61  88 130 165 209 264 300 377
#
# _framework density 20.098025
#
# number of rings (size 3 to 8) (size 9 to 14) (size 15 to 20)
#    0.000    0.750    1.875    6.188    5.250    3.750 
#    0.000    0.000    0.000    0.375    0.000    1.312 
#    0.000    0.000    0.000    0.000    0.000    0.000 
#
# Total GULP energy -793808.406042 kJ/mol
# GULP energy per Si atom -12403.256344 kJ/mol
# Density = 2.005228 g / cm^3
# Si number density = 20.098025 Si / 1000 Ang^3
#
#
#
# Elastic Constant Matrix: (Units=GPa)
#
#
# Indices 1 2 3 4 5 6 
#
# 1 111.6823 35.6212 29.1533 0.0000 0.0000 0.0001
# 2 35.6212 111.6818 29.1532 0.0000 0.0000 -0.0002
# 3 29.1533 29.1532 63.9718 0.0000 0.0000 -0.0001
# 4 0.0000 0.0000 0.0000 18.6977 -0.0001 0.0000
# 5 0.0000 0.0000 0.0000 -0.0001 18.6976 0.0000
# 6 0.0001 -0.0002 -0.0001 0.0000 0.0000 38.0302
#
#
#
# Elastic Compliance Matrix: (Units=1/GPa)
#
#
# Indices 1 2 3 4 5 6 
#
# 1 0.010715 -0.002432 -0.003775 0.000000 0.000000 0.000000
# 2 -0.002432 0.010715 -0.003775 0.000000 0.000000 0.000000
# 3 -0.003775 -0.003775 0.019072 0.000000 0.000000 0.000000
# 4 0.000000 0.000000 0.000000 0.053483 0.000000 0.000000
# 5 0.000000 0.000000 0.000000 0.000000 0.053483 0.000000
# 6 0.000000 0.000000 0.000000 0.000000 0.000000 0.026295
#
#
# Mechanical properties :
#
#
# Convention : Reuss Voigt Hill
#
# Bulk Modulus (GPa) = 48.68714 52.79903 50.74308
# Shear Modulus (GPa) = 24.92867 27.97899 26.45383
#
# Velocity S-wave (km/s) = 3.52569 3.73517 3.63194
# Velocity P-wave (km/s) = 6.39151 6.70297 6.54909
#
# Compressibility (1/GPa) = 0.02053931
#
# Stress axis : x y z
#
# Youngs Moduli (GPa) = 93.32651 93.32609 52.43217
#
# Poissons Ratio (x) = 0.22699 0.19791
# Poissons Ratio (y) = 0.22700 0.19791
# Poissons Ratio (z) = 0.35227 0.35227
#
# Static dielectric constant tensor:
#      x y z
#    x 3.862110 -0.000010 0.000000 
#    y -0.000010 3.862130 0.000000 
#    z 0.000000 0.000000 3.559480 
# 
# 
# High freq. dielectric constant tensor:
#      x y z
#    x 1.792910 0.000000 0.000000 
#    y 0.000000 1.792910 0.000000 
#    z 0.000000 0.000000 1.783830 
# 
# From -- ./inp_files/2843.got.cif
#   From: 2010.03.12/outbox.cif.g09.slc.cpg/sg175_2_cif.got.tgz:2843.got - 2010.04.02 06:55:29.
