data_PCOD8325613
_publ_section_title
;
Structure prediction by ZEFSAII (Michael W. Deem and Ramdas Pophale) SiO2 
 PCOD8325613
Probable space group: P 63/M
;
_chemical_formula_sum "Si O2"
_cell_formula_units_Z 34
_cell_length_a 14.737312
_cell_length_b 14.737312
_cell_length_c 9.553648
_cell_angle_alpha 90.000000
_cell_angle_beta 90.000000
_cell_angle_gamma 120.000000
_cell_volume 1796.951781
_symmetry_space_group_name_H-M "P 63/M"
_symmetry_group_IT_number 176
_symmetry_cell_setting 'hexagonal'
loop_
_space_group_symop_operation_xyz
x,y,z
x-y,x,1/2+z
-y,x-y,z
-x,-y,1/2+z
-x+y,-x,z
y,-x+y,1/2+z
-x,-y,-z
-x+y,-x,1/2-z
y,-x+y,-z
x,y,1/2-z
x-y,x,-z
-y,x-y,1/2-z
loop_
_atom_site_type_symbol
_atom_site_label
_atom_site_fract_x
_atom_site_fract_y
_atom_site_fract_z
Si Si1 0.333334 0.666668 0.415816
Si Si2 0.994127 0.287573 0.095424
Si Si3 0.799355 0.228902 0.584250
Si Si4 0.889602 0.878303 0.250000
O O1 0.333334 0.666668 0.250000
O O2 0.266043 0.717830 0.470720
O O3 0.977672 0.323746 0.250000
O O4 0.984880 0.172770 0.112049
O O5 0.108196 0.370882 0.036961
O O6 0.912148 0.288000 0.988007
O O7 0.817877 0.239082 0.750000
O O8 0.891959 0.990483 0.250000
#
# Coordination Sequence:
#
# PCOD8325613 Si02
#       4
#     4  12  12   6
#     4   9  21  42  61  77 103 153 196 239 280 333
#     4   9  21  33  56  83 115 145 186 226 273 330
#     4  10  21  38  59  81 112 148 192 227 281 336
#     4   8  18  34  54  78 122 160 178 202 276 352
#
# _framework density 18.920931
#
# number of rings (size 3 to 8) (size 9 to 14) (size 15 to 20)
#    1.412    1.412    0.000    0.000    4.941    2.824 
#    0.000    3.529    0.000    0.000    0.000    0.000 
#    0.000    0.000    0.000    0.000    0.000    0.000 
#
# Total GULP energy -421345.433300 kJ/mol
# GULP energy per Si atom -12392.512744 kJ/mol
# Density = 1.887787 g / cm^3
# Si number density = 18.920931 Si / 1000 Ang^3
#
#
#
# Elastic Constant Matrix: (Units=GPa)
#
#
# Indices 1 2 3 4 5 6 
#
# 1 92.8939 65.0465 27.2244 0.0000 0.0000 0.0022
# 2 65.0465 92.8993 27.2252 0.0000 0.0000 0.0014
# 3 27.2244 27.2252 35.7201 0.0000 0.0000 0.0005
# 4 0.0000 0.0000 0.0000 23.3315 -0.0003 0.0000
# 5 0.0000 0.0000 0.0000 -0.0003 23.3310 0.0000
# 6 0.0022 0.0014 0.0005 0.0000 0.0000 13.9258
#
#
#
# Elastic Compliance Matrix: (Units=1/GPa)
#
#
# Indices 1 2 3 4 5 6 
#
# 1 0.022248 -0.013659 -0.006546 0.000000 0.000000 -0.000002
# 2 -0.013659 0.022247 -0.006545 0.000000 0.000000 0.000000
# 3 -0.006546 -0.006545 0.037973 0.000000 0.000000 0.000000
# 4 0.000000 0.000000 0.000000 0.042860 0.000001 0.000000
# 5 0.000000 0.000000 0.000000 0.000001 0.042862 0.000000
# 6 -0.000002 0.000000 0.000000 0.000000 0.000000 0.071809
#
#
# Mechanical properties :
#
#
# Convention : Reuss Voigt Hill
#
# Bulk Modulus (GPa) = 34.52207 51.16728 42.84468
# Shear Modulus (GPa) = 16.49325 18.91881 17.70603
#
# Velocity S-wave (km/s) = 2.95565 3.16553 3.06239
# Velocity P-wave (km/s) = 5.47109 6.36099 5.93275
#
# Compressibility (1/GPa) = 0.02896697
#
# Stress axis : x y z
#
# Youngs Moduli (GPa) = 44.94829 44.95086 26.33452
#
# Poissons Ratio (x) = 0.61400 0.17237
# Poissons Ratio (y) = 0.61396 0.17237
# Poissons Ratio (z) = 0.29421 0.29422
#
# Static dielectric constant tensor:
#      x y z
#    x 3.421950 -0.000010 0.000000 
#    y -0.000010 3.421960 0.000000 
#    z 0.000000 0.000000 3.116840 
# 
# 
# High freq. dielectric constant tensor:
#      x y z
#    x 1.728780 0.000000 0.000000 
#    y 0.000000 1.728780 0.000000 
#    z 0.000000 0.000000 1.706750 
# 
# From -- ./inp_files/385.got.cif
#   From: 2010.06.25/outbox.cif.g09.slc.cpg/sg176_1_cif.got.tgz:385.got - 2010.06.28 12:15:01.
