data_PCOD8325545
_publ_section_title
;
Structure prediction by ZEFSAII (Michael W. Deem and Ramdas Pophale) SiO2 
 PCOD8325545
Probable space group: P 63/M
;
_chemical_formula_sum "Si O2"
_cell_formula_units_Z 72
_cell_length_a 23.337028
_cell_length_b 23.337028
_cell_length_c 8.724027
_cell_angle_alpha 90.000000
_cell_angle_beta 90.000000
_cell_angle_gamma 120.000000
_cell_volume 4114.705217
_symmetry_space_group_name_H-M "P 63/M"
_symmetry_group_IT_number 176
_symmetry_cell_setting 'hexagonal'
loop_
_space_group_symop_operation_xyz
x,y,z
x-y,x,1/2+z
-y,x-y,z
-x,-y,1/2+z
-x+y,-x,z
y,-x+y,1/2+z
-x,-y,-z
-x+y,-x,1/2-z
y,-x+y,-z
x,y,1/2-z
x-y,x,-z
-y,x-y,1/2-z
loop_
_atom_site_type_symbol
_atom_site_label
_atom_site_fract_x
_atom_site_fract_y
_atom_site_fract_z
Si Si1 0.514063 0.593135 0.080654
Si Si2 0.354257 0.290531 0.929671
Si Si3 0.597248 0.518688 0.419954
Si Si4 0.147340 0.298172 0.572059
Si Si5 0.144601 0.066920 0.070283
Si Si6 0.712411 0.635249 0.928370
O O1 0.487056 0.592541 0.250000
O O2 0.566885 0.668365 0.029801
O O3 0.554007 0.554032 0.078510
O O4 0.449421 0.557470 0.973259
O O5 0.344008 0.300707 0.750000
O O6 0.325210 0.214410 0.964986
O O7 0.316678 0.317131 0.034967
O O8 0.623202 0.517742 0.250000
O O9 0.660074 0.558897 0.530874
O O10 0.135482 0.306640 0.750000
O O11 0.120728 0.221929 0.530773
O O12 0.223978 0.341170 0.533496
O O13 0.131233 0.061437 0.250000
O O14 0.115287 0.109550 0.998986
O O15 0.730951 0.640740 0.750000
#
# Coordination Sequence:
#
# PCOD8325545 Si02
#       6
#    12  12  12  12  12  12
#     4   8  15  27  44  68  97 127 157 189 229 278
#     4  10  20  34  51  72 100 132 166 206 251 303
#     4   9  16  27  45  69  97 127 159 194 230 274
#     4  11  23  37  53  74 100 132 170 212 262 320
#     4  11  24  40  58  76  96 124 164 218 275 331
#     4  11  21  33  50  71  99 134 168 205 251 302
#
# _framework density 17.498214999999998
#
# number of rings (size 3 to 8) (size 9 to 14) (size 15 to 20)
#    0.000    2.000    0.000    5.667    0.000   10.000 
#    0.000    0.000    0.000    0.000    0.000    0.000 
#    1.667    0.000    3.000    0.000    3.000    0.000 
#
# Total GULP energy -892678.373554 kJ/mol
# GULP energy per Si atom -12398.310744 kJ/mol
# Density = 1.745839 g / cm^3
# Si number density = 17.498215 Si / 1000 Ang^3
#
#
#
# Elastic Constant Matrix: (Units=GPa)
#
#
# Indices 1 2 3 4 5 6 
#
# 1 341.7605 309.8270 14.8325 0.0000 0.0000 0.0000
# 2 309.8270 341.7605 14.8325 0.0000 0.0000 0.0000
# 3 14.8325 14.8325 81.0496 0.0000 0.0000 0.0000
# 4 0.0000 0.0000 0.0000 25.8199 0.0000 0.0000
# 5 0.0000 0.0000 0.0000 0.0000 25.8199 0.0000
# 6 0.0000 0.0000 0.0000 0.0000 0.0000 15.9667
#
#
#
# Elastic Compliance Matrix: (Units=1/GPa)
#
#
# Indices 1 2 3 4 5 6 
#
# 1 0.016431 -0.014884 -0.000283 0.000000 0.000000 0.000000
# 2 -0.014884 0.016431 -0.000283 0.000000 0.000000 0.000000
# 3 -0.000283 -0.000283 0.012442 0.000000 0.000000 0.000000
# 4 0.000000 0.000000 0.000000 0.038730 0.000000 0.000000
# 5 0.000000 0.000000 0.000000 0.000000 0.038730 0.000000
# 6 0.000000 0.000000 0.000000 0.000000 0.000000 0.062630
#
#
# Mechanical properties :
#
#
# Convention : Reuss Voigt Hill
#
# Bulk Modulus (GPa) = 69.42456 160.39495 114.90975
# Shear Modulus (GPa) = 22.61458 41.85985 32.23721
#
# Velocity S-wave (km/s) = 3.59889 4.89635 4.29688
# Velocity P-wave (km/s) = 7.55187 11.12782 9.50944
#
# Compressibility (1/GPa) = 0.01440413
#
# Stress axis : x y z
#
# Youngs Moduli (GPa) = 60.85920 60.85920 80.37428
#
# Poissons Ratio (x) = 0.90581 0.02276
# Poissons Ratio (y) = 0.90581 0.02276
# Poissons Ratio (z) = 0.01724 0.01724
#
# Static dielectric constant tensor:
#      x y z
#    x 3.238870 0.000000 0.000000 
#    y 0.000000 3.238870 0.000000 
#    z 0.000000 0.000000 3.388370 
# 
# 
# High freq. dielectric constant tensor:
#      x y z
#    x 1.656630 0.000000 0.000000 
#    y 0.000000 1.656630 0.000000 
#    z 0.000000 0.000000 1.690900 
# 
# From -- ./inp_files/1210.got.cif
#   From: 2010.06.25/outbox.cif.g09.slc.cpg/sg176_1_cif.got.tgz:1210.got - 2010.06.28 12:15:01.
