data_PCOD8325763
_publ_section_title
;
Structure prediction by ZEFSAII (Michael W. Deem and Ramdas Pophale) SiO2 
 PCOD8325763
Probable space group: P 61 2 2
;
_chemical_formula_sum "Si O2"
_cell_formula_units_Z 60
_cell_length_a 11.630697
_cell_length_b 11.630697
_cell_length_c 30.986357
_cell_angle_alpha 90.000000
_cell_angle_beta 90.000000
_cell_angle_gamma 120.000000
_cell_volume 3630.050237
_symmetry_space_group_name_H-M "P 61 2 2"
_symmetry_group_IT_number 178
_symmetry_cell_setting 'hexagonal'
loop_
_space_group_symop_operation_xyz
x,y,z
x-y,x,1/6+z
-y,x-y,1/3+z
-x,-y,1/2+z
-x+y,-x,2/3+z
y,-x+y,5/6+z
x-y,-y,-z
-x,-x+y,2/3-z
y,x,1/3-z
-y,-x,5/6-z
-x+y,y,1/2-z
x,x-y,1/6-z
loop_
_atom_site_type_symbol
_atom_site_label
_atom_site_fract_x
_atom_site_fract_y
_atom_site_fract_z
Si Si1 0.455701 0.927876 0.864534
Si Si2 0.986261 0.604315 0.554139
Si Si3 0.176952 0.704191 0.732497
Si Si4 0.667622 0.391986 0.651866
Si Si5 0.489601 0.722287 0.232011
O O1 0.569150 0.996976 0.828604
O O2 0.324327 0.801300 0.846353
O O3 0.523358 0.890362 0.903654
O O4 0.407085 0.027956 0.881276
O O5 0.954499 0.477250 0.583334
O O6 0.862850 0.630079 0.561812
O O7 0.125065 0.736487 0.565638
O O8 0.174529 0.660429 0.782037
O O9 0.268097 0.669155 0.703000
O O10 0.541279 0.339083 0.683729
O O11 0.363952 0.727904 0.250000
#
# Coordination Sequence:
#
# PCOD8325763 Si02
#       5
#    12  12  12  12  12
#     4  10  18  28  45  70  94 133 170 202 252 312
#     4  10  17  28  44  65  96 133 159 201 253 305
#     4  10  17  27  46  67  96 132 168 200 251 312
#     4   9  17  30  42  65  99 127 159 206 251 301
#     4   9  18  29  45  65  98 127 161 204 253 303
#
# _framework density 16.528697000000001
#
# number of rings (size 3 to 8) (size 9 to 14) (size 15 to 20)
#    0.000    2.400    6.000    0.000    2.800    0.800 
#    0.000    0.000    0.000    0.000    0.000    0.000 
#   18.000    9.600    0.000    0.000    0.000    0.000 
#
# Total GULP energy -743726.636748 kJ/mol
# GULP energy per Si atom -12395.443946 kJ/mol
# Density = 1.649108 g / cm^3
# Si number density = 16.528697 Si / 1000 Ang^3
#
#
#
# Elastic Constant Matrix: (Units=GPa)
#
#
# Indices 1 2 3 4 5 6 
#
# 1 72.9751 31.9562 36.7963 0.0000 0.0000 0.0000
# 2 31.9562 72.9751 36.7963 0.0000 0.0000 0.0000
# 3 36.7963 36.7963 116.7837 0.0000 0.0000 0.0000
# 4 0.0000 0.0000 0.0000 14.0327 0.0000 0.0000
# 5 0.0000 0.0000 0.0000 0.0000 14.0327 0.0000
# 6 0.0000 0.0000 0.0000 0.0000 0.0000 20.5094
#
#
#
# Elastic Compliance Matrix: (Units=1/GPa)
#
#
# Indices 1 2 3 4 5 6 
#
# 1 0.018306 -0.006073 -0.003854 0.000000 0.000000 0.000000
# 2 -0.006073 0.018306 -0.003854 0.000000 0.000000 0.000000
# 3 -0.003854 -0.003854 0.010992 0.000000 0.000000 0.000000
# 4 0.000000 0.000000 0.000000 0.071262 0.000000 0.000000
# 5 0.000000 0.000000 0.000000 0.000000 0.071262 0.000000
# 6 0.000000 0.000000 0.000000 0.000000 0.000000 0.048758
#
#
# Mechanical properties :
#
#
# Convention : Reuss Voigt Hill
#
# Bulk Modulus (GPa) = 49.89890 52.64795 51.27343
# Shear Modulus (GPa) = 18.30630 20.19398 19.25014
#
# Velocity S-wave (km/s) = 3.33159 3.49915 3.41640
# Velocity P-wave (km/s) = 6.71224 6.94601 6.83012
#
# Compressibility (1/GPa) = 0.02004052
#
# Stress axis : x y z
#
# Youngs Moduli (GPa) = 54.62632 54.62632 90.97693
#
# Poissons Ratio (x) = 0.33174 0.35067
# Poissons Ratio (y) = 0.33174 0.35067
# Poissons Ratio (z) = 0.21056 0.21056
#
# Static dielectric constant tensor:
#      x y z
#    x 2.852490 0.000000 0.000000 
#    y 0.000000 2.852490 0.000000 
#    z 0.000000 0.000000 3.506790 
# 
# 
# High freq. dielectric constant tensor:
#      x y z
#    x 1.594710 0.000000 0.000000 
#    y 0.000000 1.594710 0.000000 
#    z 0.000000 0.000000 1.663290 
# 
# From -- ./inp_files/9421.got.cif
#   From: 2010.03.12/outbox.cif.g09.slc.cpg/sg178_5_cif.got.tgz:9421.got - 2010.04.02 07:02:38.
