data_PCOD8325297
_publ_section_title
;
Structure prediction by ZEFSAII (Michael W. Deem and Ramdas Pophale) SiO2 
 PCOD8325297
Probable space group: P 6/M
;
_chemical_formula_sum "Si O2"
_cell_formula_units_Z 66
_cell_length_a 20.673327
_cell_length_b 20.673327
_cell_length_c 8.089405
_cell_angle_alpha 90.000000
_cell_angle_beta 90.000000
_cell_angle_gamma 120.000000
_cell_volume 2994.111429
_symmetry_space_group_name_H-M "P 6/M"
_symmetry_group_IT_number 175
_symmetry_cell_setting 'hexagonal'
loop_
_space_group_symop_operation_xyz
x,y,z
x-y,x,z
-y,x-y,z
-x,-y,z
-x+y,-x,z
y,-x+y,z
-x,-y,-z
-x+y,-x,-z
y,-x+y,-z
x,y,-z
x-y,x,-z
-y,x-y,-z
loop_
_atom_site_type_symbol
_atom_site_label
_atom_site_fract_x
_atom_site_fract_y
_atom_site_fract_z
Si Si1 0.661574 0.848452 0.194382
Si Si2 0.408728 0.056723 0.685057
Si Si3 0.830662 0.915761 0.803414
Si Si4 0.440217 0.845665 0.814405
Si Si5 0.896262 0.574383 0.190910
Si Si6 0.409165 0.753238 0.500000
O O1 0.634811 0.899060 0.283971
O O2 0.744724 0.872042 0.256695
O O3 0.603288 0.763131 0.242909
O O4 0.661598 0.861735 0.000000
O O5 0.440938 0.073151 0.500000
O O6 0.478864 0.079165 0.807876
O O7 0.350181 0.969951 0.702310
O O8 0.871990 0.872481 0.733950
O O9 0.833737 0.917029 0.000000
O O10 0.372724 0.859594 0.771839
O O11 0.446278 0.794139 0.672450
O O12 0.429484 0.810912 0.000000
O O13 0.918575 0.592217 0.000000
O O14 0.323110 0.735242 0.500000
#
# Coordination Sequence:
#
# PCOD8325297 Si02
#       6
#    12  12  12  12  12   6
#     4  10  21  38  61  87 123 164 212 265 317 383
#     4  12  25  40  63  93 127 167 211 270 329 386
#     4   9  16  28  51  84 122 160 201 253 311 373
#     4  11  24  43  69  95 129 172 218 265 322 390
#     4  10  23  41  64  93 122 166 217 263 321 386
#     4  10  26  44  65  98 140 168 208 272 316 390
#
# _framework density 22.043268000000001
#
# number of rings (size 3 to 8) (size 9 to 14) (size 15 to 20)
#    0.182    1.455    0.909    3.455    3.818    7.273 
#    0.000    0.000    0.000    0.000    0.000    0.000 
#    0.000    2.909    0.000    0.000    0.000    0.000 
#
# Total GULP energy -818380.714911 kJ/mol
# GULP energy per Si atom -12399.707802 kJ/mol
# Density = 2.199310 g / cm^3
# Si number density = 22.043268 Si / 1000 Ang^3
#
#
#
# Elastic Constant Matrix: (Units=GPa)
#
#
# Indices 1 2 3 4 5 6 
#
# 1 70.1464 -13.1253 15.4527 0.0000 0.0000 0.0000
# 2 -13.1253 70.1464 15.4527 0.0000 0.0000 0.0000
# 3 15.4527 15.4527 83.5620 0.0000 0.0000 0.0000
# 4 0.0000 0.0000 0.0000 20.3296 0.0000 0.0000
# 5 0.0000 0.0000 0.0000 0.0000 20.3296 0.0000
# 6 0.0000 0.0000 0.0000 0.0000 0.0000 41.6359
#
#
#
# Elastic Compliance Matrix: (Units=1/GPa)
#
#
# Indices 1 2 3 4 5 6 
#
# 1 0.015750 0.003741 -0.003604 0.000000 0.000000 0.000000
# 2 0.003741 0.015750 -0.003604 0.000000 0.000000 0.000000
# 3 -0.003604 -0.003604 0.013300 0.000000 0.000000 0.000000
# 4 0.000000 0.000000 0.000000 0.049189 0.000000 0.000000
# 5 0.000000 0.000000 0.000000 0.000000 0.049189 0.000000
# 6 0.000000 0.000000 0.000000 0.000000 0.000000 0.024018
#
#
# Mechanical properties :
#
#
# Convention : Reuss Voigt Hill
#
# Bulk Modulus (GPa) = 26.40984 28.82389 27.61686
# Shear Modulus (GPa) = 26.77323 30.19730 28.48527
#
# Velocity S-wave (km/s) = 3.48886 3.70525 3.59868
# Velocity P-wave (km/s) = 5.31380 5.60442 5.46104
#
# Compressibility (1/GPa) = 0.03786468
#
# Stress axis : x y z
#
# Youngs Moduli (GPa) = 63.49236 63.49236 75.18659
#
# Poissons Ratio (x) = -0.23753 0.27100
# Poissons Ratio (y) = -0.23753 0.27100
# Poissons Ratio (z) = 0.22885 0.22885
#
# Static dielectric constant tensor:
#      x y z
#    x 3.978680 0.000000 0.000000 
#    y 0.000000 3.978680 0.000000 
#    z 0.000000 0.000000 3.660550 
# 
# 
# High freq. dielectric constant tensor:
#      x y z
#    x 1.871880 0.000000 0.000000 
#    y 0.000000 1.871880 0.000000 
#    z 0.000000 0.000000 1.847660 
# 
# From -- ./inp_files/1051.got.cif
#   From: 2010.03.12/outbox.cif.g09.slc.cpg/sg175_1_cif.got.tgz:1051.got - 2010.04.02 06:55:29.
