data_PCOD8325528
_publ_section_title
;
Structure prediction by ZEFSAII (Michael W. Deem and Ramdas Pophale) SiO2 
 PCOD8325528
Probable space group: P 63/M
;
_chemical_formula_sum "Si O2"
_cell_formula_units_Z 72
_cell_length_a 12.951282
_cell_length_b 12.951282
_cell_length_c 30.048926
_cell_angle_alpha 90.000000
_cell_angle_beta 90.000000
_cell_angle_gamma 120.000000
_cell_volume 4365.008617
_symmetry_space_group_name_H-M "P 63/M"
_symmetry_group_IT_number 176
_symmetry_cell_setting 'hexagonal'
loop_
_space_group_symop_operation_xyz
x,y,z
x-y,x,1/2+z
-y,x-y,z
-x,-y,1/2+z
-x+y,-x,z
y,-x+y,1/2+z
-x,-y,-z
-x+y,-x,1/2-z
y,-x+y,-z
x,y,1/2-z
x-y,x,-z
-y,x-y,1/2-z
loop_
_atom_site_type_symbol
_atom_site_label
_atom_site_fract_x
_atom_site_fract_y
_atom_site_fract_z
Si Si1 1.000000 0.241907 0.500000
Si Si2 0.904265 0.333266 0.824194
Si Si3 0.241462 0.998829 0.250000
Si Si4 0.242634 0.001171 0.750000
Si Si5 0.903827 0.333305 0.573946
Si Si6 0.429479 0.333305 0.573946
Si Si7 0.333266 0.904265 0.175806
O O1 0.990189 0.308139 0.543575
O O2 0.113274 0.226548 0.506773
O O3 0.009811 0.317950 0.456425
O O4 0.990989 0.308535 0.793788
O O5 0.942562 0.334265 0.875152
O O6 0.767499 0.232501 0.816198
O O7 0.916809 0.458404 0.810419
O O8 0.249158 0.124579 0.250000
O O9 0.103900 0.896100 0.250000
O O10 0.308535 0.990989 0.206212
O O11 0.766627 0.233373 0.566538
O O12 0.917704 0.458852 0.560080
O O13 0.391704 0.334265 0.624848
#
# Coordination Sequence:
#
# PCOD8325528 Si02
#       7
#    12  12   6   6  12  12  12
#     4  10  20  32  46  66  94 128 162 192 222 262
#     4   9  17  30  50  74  95 115 144 188 239 282
#     4  10  20  32  46  66  94 128 162 192 222 262
#     4  10  20  32  46  66  94 128 162 192 222 262
#     4   9  17  30  49  72  95 118 147 187 235 281
#     4   9  17  30  49  72  95 118 147 187 235 281
#     4   9  17  30  50  74  95 115 144 188 239 282
#
# _framework density 16.494812
#
# number of rings (size 3 to 8) (size 9 to 14) (size 15 to 20)
#    0.000    2.667    0.000    2.000    0.000    4.000 
#    0.000    1.667    0.000    7.333    0.000    0.000 
#    0.000    0.000    0.000    0.000    0.000    0.000 
#
# Total GULP energy -892905.002906 kJ/mol
# GULP energy per Si atom -12401.458374 kJ/mol
# Density = 1.645727 g / cm^3
# Si number density = 16.494812 Si / 1000 Ang^3
#
#
#
# Elastic Constant Matrix: (Units=GPa)
#
#
# Indices 1 2 3 4 5 6 
#
# 1 121.3953 73.0965 72.1786 0.0000 0.0000 0.0000
# 2 73.0965 121.3953 72.1786 0.0000 0.0000 0.0000
# 3 72.1786 72.1786 109.7870 0.0000 0.0000 0.0000
# 4 0.0000 0.0000 0.0000 25.6435 0.0000 0.0000
# 5 0.0000 0.0000 0.0000 0.0000 25.6435 0.0000
# 6 0.0000 0.0000 0.0000 0.0000 0.0000 24.1494
#
#
#
# Elastic Compliance Matrix: (Units=1/GPa)
#
#
# Indices 1 2 3 4 5 6 
#
# 1 0.015373 -0.005331 -0.006602 0.000000 0.000000 0.000000
# 2 -0.005331 0.015373 -0.006602 0.000000 0.000000 0.000000
# 3 -0.006602 -0.006602 0.017789 0.000000 0.000000 0.000000
# 4 0.000000 0.000000 0.000000 0.038996 0.000000 0.000000
# 5 0.000000 0.000000 0.000000 0.000000 0.038996 0.000000
# 6 0.000000 0.000000 0.000000 0.000000 0.000000 0.041409
#
#
# Mechanical properties :
#
#
# Convention : Reuss Voigt Hill
#
# Bulk Modulus (GPa) = 87.22019 87.49835 87.35927
# Shear Modulus (GPa) = 23.94310 24.09553 24.01931
#
# Velocity S-wave (km/s) = 3.81406 3.82618 3.82012
# Velocity P-wave (km/s) = 8.50813 8.52530 8.51672
#
# Compressibility (1/GPa) = 0.01146524
#
# Stress axis : x y z
#
# Youngs Moduli (GPa) = 65.04893 65.04893 56.21408
#
# Poissons Ratio (x) = 0.34680 0.37111
# Poissons Ratio (y) = 0.34680 0.37111
# Poissons Ratio (z) = 0.42944 0.42944
#
# Static dielectric constant tensor:
#      x y z
#    x 2.974100 0.000000 0.000000 
#    y 0.000000 2.974100 0.000000 
#    z 0.000000 0.000000 3.352170 
# 
# 
# High freq. dielectric constant tensor:
#      x y z
#    x 1.625360 0.000000 0.000000 
#    y 0.000000 1.625360 0.000000 
#    z 0.000000 0.000000 1.647890 
# 
# From -- ./inp_files/4515.got.cif
#   From: 2010.06.25/outbox.cif.g09.slc.cpg/sg176_3_cif.got.tgz:4515.got - 2010.06.28 12:15:01.
