data_PCOD8325368
_publ_section_title
;
Structure prediction by ZEFSAII (Michael W. Deem and Ramdas Pophale) SiO2 
 PCOD8325368
Probable space group: P 6/M
;
_chemical_formula_sum "Si O2"
_cell_formula_units_Z 72
_cell_length_a 15.107509
_cell_length_b 15.107509
_cell_length_c 16.182545
_cell_angle_alpha 90.000000
_cell_angle_beta 90.000000
_cell_angle_gamma 120.000000
_cell_volume 3198.623903
_symmetry_space_group_name_H-M "P 6/M"
_symmetry_group_IT_number 175
_symmetry_cell_setting 'hexagonal'
loop_
_space_group_symop_operation_xyz
x,y,z
x-y,x,z
-y,x-y,z
-x,-y,z
-x+y,-x,z
y,-x+y,z
-x,-y,-z
-x+y,-x,-z
y,-x+y,-z
x,y,-z
x-y,x,-z
-y,x-y,-z
loop_
_atom_site_type_symbol
_atom_site_label
_atom_site_fract_x
_atom_site_fract_y
_atom_site_fract_z
Si Si1 0.865351 0.378322 0.089180
Si Si2 0.158352 0.230827 0.262262
Si Si3 0.789302 0.238630 0.325386
Si Si4 0.719313 0.991483 0.096938
Si Si5 0.116137 0.541495 0.597309
Si Si6 0.532868 0.712794 0.146988
O O1 0.946886 0.346244 0.115116
O O2 0.876639 0.466850 0.150582
O O3 0.754686 0.275225 0.084146
O O4 0.891583 0.431507 0.000000
O O5 0.189570 0.147901 0.287753
O O6 0.220299 0.333523 0.318415
O O7 0.178548 0.242423 0.161877
O O8 0.817474 0.347542 0.362177
O O9 0.691082 0.152020 0.375438
O O10 0.754587 0.234766 0.232827
O O11 0.762497 0.110092 0.121734
O O12 0.744100 0.979420 0.000000
O O13 0.129620 0.556369 0.500000
O O14 0.000000 0.500000 0.624754
#
# Coordination Sequence:
#
# PCOD8325368 Si02
#       6
#    12  12  12  12  12  12
#     4  11  22  36  55  83 123 175 233 290 354 425
#     4  12  25  46  69 101 135 190 251 320 373 417
#     4  12  24  44  73 105 147 183 233 285 349 431
#     4  11  23  42  63  90 133 187 249 312 375 429
#     4  11  26  47  75 110 148 185 219 269 348 444
#     4  12  23  38  60  92 131 180 232 294 359 427
#
# _framework density 22.509679999999999
#
# number of rings (size 3 to 8) (size 9 to 14) (size 15 to 20)
#    0.000    0.500    3.333    5.333    0.000    3.333 
#    0.000    0.000    0.000    1.000    0.000    0.000 
#    0.000    8.000    0.000    0.000    0.000    0.000 
#
# Total GULP energy -892052.849222 kJ/mol
# GULP energy per Si atom -12389.622906 kJ/mol
# Density = 2.245845 g / cm^3
# Si number density = 22.509680 Si / 1000 Ang^3
#
#
#
# Elastic Constant Matrix: (Units=GPa)
#
#
# Indices 1 2 3 4 5 6 
#
# 1 109.0696 29.9677 27.8462 0.0000 0.0000 0.0000
# 2 29.9677 109.0696 27.8462 0.0000 0.0000 0.0000
# 3 27.8462 27.8462 69.0047 0.0000 0.0000 0.0000
# 4 0.0000 0.0000 0.0000 24.3524 0.0000 0.0000
# 5 0.0000 0.0000 0.0000 0.0000 24.3524 0.0000
# 6 0.0000 0.0000 0.0000 0.0000 0.0000 39.5510
#
#
#
# Elastic Compliance Matrix: (Units=1/GPa)
#
#
# Indices 1 2 3 4 5 6 
#
# 1 0.010610 -0.002031 -0.003462 0.000000 0.000000 0.000000
# 2 -0.002031 0.010610 -0.003462 0.000000 0.000000 0.000000
# 3 -0.003462 -0.003462 0.017286 0.000000 0.000000 0.000000
# 4 0.000000 0.000000 0.000000 0.041064 0.000000 0.000000
# 5 0.000000 0.000000 0.000000 0.000000 0.041064 0.000000
# 6 0.000000 0.000000 0.000000 0.000000 0.000000 0.025284
#
#
# Mechanical properties :
#
#
# Convention : Reuss Voigt Hill
#
# Bulk Modulus (GPa) = 48.55314 50.94045 49.74679
# Shear Modulus (GPa) = 29.29212 31.08339 30.18776
#
# Velocity S-wave (km/s) = 3.61128 3.72006 3.66608
# Velocity P-wave (km/s) = 6.24542 6.41338 6.32995
#
# Compressibility (1/GPa) = 0.02059599
#
# Stress axis : x y z
#
# Youngs Moduli (GPa) = 94.24643 94.24643 57.85070
#
# Poissons Ratio (x) = 0.19146 0.20028
# Poissons Ratio (y) = 0.19146 0.20028
# Poissons Ratio (z) = 0.32628 0.32628
#
# Static dielectric constant tensor:
#      x y z
#    x 4.292270 0.000000 0.000000 
#    y 0.000000 4.292270 0.000000 
#    z 0.000000 0.000000 3.931060 
# 
# 
# High freq. dielectric constant tensor:
#      x y z
#    x 1.899430 0.000000 0.000000 
#    y 0.000000 1.899430 0.000000 
#    z 0.000000 0.000000 1.861420 
# 
# From -- ./inp_files/2888.got.cif
#   From: 2010.03.12/outbox.cif.g09.slc.cpg/sg175_2_cif.got.tgz:2888.got - 2010.04.02 06:55:29.
