data_PCOD8325041
_publ_section_title
;
Structure prediction by ZEFSAII (Michael W. Deem and Ramdas Pophale) SiO2 
 PCOD8325041
Probable space group: P 6/M
;
_chemical_formula_sum "Si O2"
_cell_formula_units_Z 78
_cell_length_a 24.154217
_cell_length_b 24.154217
_cell_length_c 7.856371
_cell_angle_alpha 90.000000
_cell_angle_beta 90.000000
_cell_angle_gamma 120.000000
_cell_volume 3969.525013
_symmetry_space_group_name_H-M "P 6/M"
_symmetry_group_IT_number 175
_symmetry_cell_setting 'hexagonal'
loop_
_space_group_symop_operation_xyz
x,y,z
x-y,x,z
-y,x-y,z
-x,-y,z
-x+y,-x,z
y,-x+y,z
-x,-y,-z
-x+y,-x,-z
y,-x+y,-z
x,y,-z
x-y,x,-z
-y,x-y,-z
loop_
_atom_site_type_symbol
_atom_site_label
_atom_site_fract_x
_atom_site_fract_y
_atom_site_fract_z
Si Si1 0.254479 0.164279 0.196953
Si Si2 0.428278 0.103242 0.307425
Si Si3 0.845601 0.906847 0.500000
Si Si4 0.897643 0.560951 0.190742
Si Si5 0.073367 0.541390 0.699800
Si Si6 0.993500 0.692135 0.308614
Si Si7 0.197964 0.395232 0.806621
O O1 0.198488 0.118616 0.328860
O O2 0.267415 0.236892 0.200196
O O3 0.321876 0.170497 0.256565
O O4 0.236006 0.139776 0.000000
O O5 0.424701 0.079207 0.500000
O O6 0.487746 0.100426 0.221293
O O7 0.435309 0.172482 0.300243
O O8 0.358408 0.057638 0.223042
O O9 0.897671 0.882521 0.500000
O O10 0.888152 0.491181 0.224332
O O11 0.946823 0.615535 0.316534
O O12 0.830800 0.558299 0.216223
O O13 0.923042 0.583647 0.000000
O O14 0.083105 0.544270 0.500000
O O15 0.000000 0.500000 0.754876
O O16 0.004210 0.719655 0.500000
O O17 0.215772 0.391529 0.000000
#
# Coordination Sequence:
#
# PCOD8325041 Si02
#       7
#    12  12   6  12  12  12  12
#     4  10  23  42  66  97 126 158 203 251 310 378
#     4  10  21  32  54  85 118 151 196 242 297 363
#     4  12  29  50  72  94 122 163 211 255 307 365
#     4  10  20  34  51  76 113 158 202 238 290 358
#     4  10  19  35  52  77 113 153 192 238 292 351
#     4  10  18  33  56  86 123 160 190 240 299 362
#     4   9  21  37  54  83 121 154 191 248 305 358
#
# _framework density 19.649705999999998
#
# number of rings (size 3 to 8) (size 9 to 14) (size 15 to 20)
#    0.000    2.000    2.308    1.923    3.231    4.000 
#    0.000    0.000    0.000    1.538    0.000    0.000 
#    0.000    0.000    0.000    0.000    0.000    0.000 
#
# Total GULP energy -966391.336544 kJ/mol
# GULP energy per Si atom -12389.632520 kJ/mol
# Density = 1.960498 g / cm^3
# Si number density = 19.649706 Si / 1000 Ang^3
#
#
#
# Elastic Constant Matrix: (Units=GPa)
#
#
# Indices 1 2 3 4 5 6 
#
# 1 115.4216 64.7564 36.3349 0.0000 0.0000 0.0000
# 2 64.7564 115.4216 36.3349 0.0000 0.0000 0.0000
# 3 36.3349 36.3349 60.1885 0.0000 0.0000 0.0000
# 4 0.0000 0.0000 0.0000 12.7180 0.0000 0.0000
# 5 0.0000 0.0000 0.0000 0.0000 12.7180 0.0000
# 6 0.0000 0.0000 0.0000 0.0000 0.0000 25.3326
#
#
#
# Elastic Compliance Matrix: (Units=1/GPa)
#
#
# Indices 1 2 3 4 5 6 
#
# 1 0.013537 -0.006201 -0.004429 0.000000 0.000000 0.000000
# 2 -0.006201 0.013537 -0.004429 0.000000 0.000000 0.000000
# 3 -0.004429 -0.004429 0.021962 0.000000 0.000000 0.000000
# 4 0.000000 0.000000 0.000000 0.078629 0.000000 0.000000
# 5 0.000000 0.000000 0.000000 0.000000 0.078629 0.000000
# 6 0.000000 0.000000 0.000000 0.000000 0.000000 0.039475
#
#
# Mechanical properties :
#
#
# Convention : Reuss Voigt Hill
#
# Bulk Modulus (GPa) = 52.85680 62.87599 57.86640
# Shear Modulus (GPa) = 17.71854 20.39410 19.05632
#
# Velocity S-wave (km/s) = 3.00612 3.22511 3.11754
# Velocity P-wave (km/s) = 6.24556 6.77764 6.51703
#
# Compressibility (1/GPa) = 0.01891904
#
# Stress axis : x y z
#
# Youngs Moduli (GPa) = 73.87242 73.87242 45.53386
#
# Poissons Ratio (x) = 0.45805 0.20166
# Poissons Ratio (y) = 0.45805 0.20166
# Poissons Ratio (z) = 0.32717 0.32717
#
# Static dielectric constant tensor:
#      x y z
#    x 3.615570 0.000000 0.000000 
#    y 0.000000 3.615570 0.000000 
#    z 0.000000 0.000000 3.474820 
# 
# 
# High freq. dielectric constant tensor:
#      x y z
#    x 1.751910 0.000000 0.000000 
#    y 0.000000 1.751910 0.000000 
#    z 0.000000 0.000000 1.761730 
# 
# From -- ./inp_files/1330.got.cif
#   From: 2010.03.12/outbox.cif.g09.slc.cpg/sg175_1_cif.got.tgz:1330.got - 2010.04.02 06:55:29.
