data_PCOD8325962
_publ_section_title
;
Structure prediction by ZEFSAII (Michael W. Deem and Ramdas Pophale) SiO2 
 PCOD8325962
Probable space group: P 61 2 2
;
_chemical_formula_sum "Si O2"
_cell_formula_units_Z 60
_cell_length_a 11.146467
_cell_length_b 11.146467
_cell_length_c 27.724014
_cell_angle_alpha 90.000000
_cell_angle_beta 90.000000
_cell_angle_gamma 120.000000
_cell_volume 2983.054654
_symmetry_space_group_name_H-M "P 61 2 2"
_symmetry_group_IT_number 178
_symmetry_cell_setting 'hexagonal'
loop_
_space_group_symop_operation_xyz
x,y,z
x-y,x,1/6+z
-y,x-y,1/3+z
-x,-y,1/2+z
-x+y,-x,2/3+z
y,-x+y,5/6+z
x-y,-y,-z
-x,-x+y,2/3-z
y,x,1/3-z
-y,-x,5/6-z
-x+y,y,1/2-z
x,x-y,1/6-z
loop_
_atom_site_type_symbol
_atom_site_label
_atom_site_fract_x
_atom_site_fract_y
_atom_site_fract_z
Si Si1 0.814530 0.943909 0.892190
Si Si2 0.544592 0.193198 0.894128
Si Si3 0.941399 0.713279 0.541981
Si Si4 0.037070 0.417714 0.888615
Si Si5 0.343415 0.517793 0.870843
O O1 0.809495 0.933555 0.833898
O O2 0.772305 0.791769 0.909766
O O3 0.716162 0.999271 0.913001
O O4 0.962658 0.037343 0.916667
O O5 0.671755 0.328246 0.916667
O O6 0.404142 0.198727 0.895095
O O7 0.580706 0.205729 0.838127
O O8 0.517460 0.052578 0.921929
O O9 0.043408 0.666491 0.518196
O O10 0.203317 0.518176 0.887706
O O11 0.000000 0.373910 0.833334
O O12 0.441239 0.558762 0.916667
#
# Coordination Sequence:
#
# PCOD8325962 Si02
#       5
#    12  12  12  12  12
#     4  11  21  42  68  96 123 169 223 279 324 391
#     4  12  23  40  64  94 134 173 212 271 336 397
#     4  11  24  40  65  95 133 166 220 275 330 399
#     4  11  21  39  63  96 123 167 224 269 324 396
#     4  11  23  41  64  94 130 173 222 272 331 395
#
# _framework density 20.113609
#
# number of rings (size 3 to 8) (size 9 to 14) (size 15 to 20)
#    0.000    0.800    4.000    6.600    0.000    0.000 
#    0.000    3.000    0.000    0.000    0.000    0.000 
#    0.000    0.000    0.000    0.000    0.000    0.000 
#
# Total GULP energy -743502.203271 kJ/mol
# GULP energy per Si atom -12391.703388 kJ/mol
# Density = 2.006783 g / cm^3
# Si number density = 20.113609 Si / 1000 Ang^3
#
#
#
# Elastic Constant Matrix: (Units=GPa)
#
#
# Indices 1 2 3 4 5 6 
#
# 1 92.6877 48.3552 25.3363 0.0000 0.0000 0.0000
# 2 48.3552 92.6877 25.3363 0.0000 0.0000 0.0000
# 3 25.3363 25.3363 112.8823 0.0000 0.0000 0.0000
# 4 0.0000 0.0000 0.0000 19.5343 0.0000 0.0000
# 5 0.0000 0.0000 0.0000 0.0000 19.5343 0.0000
# 6 0.0000 0.0000 0.0000 0.0000 0.0000 22.1663
#
#
#
# Elastic Compliance Matrix: (Units=1/GPa)
#
#
# Indices 1 2 3 4 5 6 
#
# 1 0.015134 -0.007422 -0.001731 0.000000 0.000000 0.000000
# 2 -0.007422 0.015134 -0.001731 0.000000 0.000000 0.000000
# 3 -0.001731 -0.001731 0.009636 0.000000 0.000000 0.000000
# 4 0.000000 0.000000 0.000000 0.051192 0.000000 0.000000
# 5 0.000000 0.000000 0.000000 0.000000 0.051192 0.000000
# 6 0.000000 0.000000 0.000000 0.000000 0.000000 0.045114
#
#
# Mechanical properties :
#
#
# Convention : Reuss Voigt Hill
#
# Bulk Modulus (GPa) = 55.13925 55.14593 55.14259
# Shear Modulus (GPa) = 23.23249 25.52899 24.38074
#
# Velocity S-wave (km/s) = 3.40231 3.56650 3.48537
# Velocity P-wave (km/s) = 6.55040 6.66608 6.60849
#
# Compressibility (1/GPa) = 0.01813590
#
# Stress axis : x y z
#
# Youngs Moduli (GPa) = 66.07485 66.07485 103.77975
#
# Poissons Ratio (x) = 0.49044 0.17964
# Poissons Ratio (y) = 0.49044 0.17964
# Poissons Ratio (z) = 0.11437 0.11437
#
# Static dielectric constant tensor:
#      x y z
#    x 3.704540 0.000000 0.000000 
#    y 0.000000 3.704540 0.000000 
#    z 0.000000 0.000000 3.702770 
# 
# 
# High freq. dielectric constant tensor:
#      x y z
#    x 1.775230 0.000000 0.000000 
#    y 0.000000 1.775230 0.000000 
#    z 0.000000 0.000000 1.804080 
# 
# From -- ./inp_files/8803.got.cif
#   From: 2010.03.12/outbox.cif.g09.slc.cpg/sg178_5_cif.got.tgz:8803.got - 2010.04.02 07:02:38.
