data_PCOD8325907
_publ_section_title
;
Structure prediction by ZEFSAII (Michael W. Deem and Ramdas Pophale) SiO2 
 PCOD8325907
Probable space group: P 61 2 2
;
_chemical_formula_sum "Si O2"
_cell_formula_units_Z 30
_cell_length_a 7.123458
_cell_length_b 7.123458
_cell_length_c 33.687569
_cell_angle_alpha 90.000000
_cell_angle_beta 90.000000
_cell_angle_gamma 120.000000
_cell_volume 1480.410102
_symmetry_space_group_name_H-M "P 61 2 2"
_symmetry_group_IT_number 178
_symmetry_cell_setting 'hexagonal'
loop_
_space_group_symop_operation_xyz
x,y,z
x-y,x,1/6+z
-y,x-y,1/3+z
-x,-y,1/2+z
-x+y,-x,2/3+z
y,-x+y,5/6+z
x-y,-y,-z
-x,-x+y,2/3-z
y,x,1/3-z
-y,-x,5/6-z
-x+y,y,1/2-z
x,x-y,1/6-z
loop_
_atom_site_type_symbol
_atom_site_label
_atom_site_fract_x
_atom_site_fract_y
_atom_site_fract_z
Si Si1 0.827078 0.763694 0.516166
Si Si2 0.520590 0.143338 0.708104
Si Si3 0.558111 0.779056 0.583334
O O1 0.679919 0.573841 0.486351
O O2 0.709397 0.712304 0.558970
O O3 0.049448 0.762431 0.521913
O O4 0.883340 0.000000 0.500000
O O5 0.513714 0.027427 0.750000
O O6 0.603841 0.398977 0.716883
#
# Coordination Sequence:
#
# PCOD8325907 Si02
#       3
#    12  12   6
#     4  12  23  43  66  94 129 169 218 264 327 390
#     4  10  22  44  61  94 130 166 216 263 324 386
#     4  10  24  42  66  96 128 172 210 274 318 384
#
# _framework density 20.264658000000001
#
# number of rings (size 3 to 8) (size 9 to 14) (size 15 to 20)
#    1.200    0.000    4.000    2.400    0.000    1.600 
#    7.200    0.000    0.000    0.000    0.000    0.000 
#    0.000    0.000    0.000    0.000    0.000    0.000 
#
# Total GULP energy -371665.814113 kJ/mol
# GULP energy per Si atom -12388.860470 kJ/mol
# Density = 2.021853 g / cm^3
# Si number density = 20.264658 Si / 1000 Ang^3
#
#
#
# Elastic Constant Matrix: (Units=GPa)
#
#
# Indices 1 2 3 4 5 6 
#
# 1 98.3797 48.8582 27.2218 0.0000 0.0000 0.0000
# 2 48.8582 98.3797 27.2218 0.0000 0.0000 0.0000
# 3 27.2218 27.2218 68.9314 0.0000 0.0000 0.0000
# 4 0.0000 0.0000 0.0000 31.5499 0.0000 0.0000
# 5 0.0000 0.0000 0.0000 0.0000 31.5499 0.0000
# 6 0.0000 0.0000 0.0000 0.0000 0.0000 24.7607
#
#
#
# Elastic Compliance Matrix: (Units=1/GPa)
#
#
# Indices 1 2 3 4 5 6 
#
# 1 0.014073 -0.006120 -0.003141 0.000000 0.000000 0.000000
# 2 -0.006120 0.014073 -0.003141 0.000000 0.000000 0.000000
# 3 -0.003141 -0.003141 0.016988 0.000000 0.000000 0.000000
# 4 0.000000 0.000000 0.000000 0.031696 0.000000 0.000000
# 5 0.000000 0.000000 0.000000 0.000000 0.031696 0.000000
# 6 0.000000 0.000000 0.000000 0.000000 0.000000 0.040387
#
#
# Mechanical properties :
#
#
# Convention : Reuss Voigt Hill
#
# Bulk Modulus (GPa) = 49.18615 52.47717 50.83166
# Shear Modulus (GPa) = 27.70198 28.39804 28.05001
#
# Velocity S-wave (km/s) = 3.70132 3.74753 3.72450
# Velocity P-wave (km/s) = 6.52617 6.68412 6.60562
#
# Compressibility (1/GPa) = 0.02033093
#
# Stress axis : x y z
#
# Youngs Moduli (GPa) = 71.05722 71.05722 58.86567
#
# Poissons Ratio (x) = 0.43488 0.18488
# Poissons Ratio (y) = 0.43488 0.18488
# Poissons Ratio (z) = 0.22317 0.22317
#
# Static dielectric constant tensor:
#      x y z
#    x 3.505820 0.000000 0.000000 
#    y 0.000000 3.505820 0.000000 
#    z 0.000000 0.000000 3.859840 
# 
# 
# High freq. dielectric constant tensor:
#      x y z
#    x 1.781020 0.000000 0.000000 
#    y 0.000000 1.781020 0.000000 
#    z 0.000000 0.000000 1.805870 
# 
# From -- ./inp_files/8449.got.cif
#   From: 2010.03.12/outbox.cif.g09.slc.cpg/sg178_5_cif.got.tgz:8449.got - 2010.04.02 07:02:38.
