data_PCOD8325831
_publ_section_title
;
Structure prediction by ZEFSAII (Michael W. Deem and Ramdas Pophale) SiO2 
 PCOD8325831
Probable space group: P 61 2 2
;
_chemical_formula_sum "Si O2"
_cell_formula_units_Z 36
_cell_length_a 20.928584
_cell_length_b 20.928584
_cell_length_c 4.987994
_cell_angle_alpha 90.000000
_cell_angle_beta 90.000000
_cell_angle_gamma 120.000000
_cell_volume 1892.065841
_symmetry_space_group_name_H-M "P 61 2 2"
_symmetry_group_IT_number 178
_symmetry_cell_setting 'hexagonal'
loop_
_space_group_symop_operation_xyz
x,y,z
x-y,x,1/6+z
-y,x-y,1/3+z
-x,-y,1/2+z
-x+y,-x,2/3+z
y,-x+y,5/6+z
x-y,-y,-z
-x,-x+y,2/3-z
y,x,1/3-z
-y,-x,5/6-z
-x+y,y,1/2-z
x,x-y,1/6-z
loop_
_atom_site_type_symbol
_atom_site_label
_atom_site_fract_x
_atom_site_fract_y
_atom_site_fract_z
Si Si1 0.047041 0.222629 0.588149
Si Si2 0.848609 0.612548 0.994579
Si Si3 0.598013 0.547491 0.418626
O O1 0.098279 0.196557 0.750000
O O2 0.089186 0.302389 0.446584
O O3 0.000000 0.169136 0.333334
O O4 0.000000 0.228489 0.833334
O O5 0.791377 0.582754 0.750000
O O6 0.804477 0.608954 0.250000
O O7 0.879359 0.557673 0.051386
O O8 0.587026 0.587026 0.666667
O O9 0.539812 0.460189 0.416667
O O10 0.589652 0.589652 0.166667
#
# Coordination Sequence:
#
# PCOD8325831 Si02
#       3
#    12  12  12
#     4  11  21  35  54  79 109 141 176 219 271 324
#     4  11  21  34  54  82 112 144 178 221 272 320
#     4  10  20  35  56  81 110 145 182 222 267 318
#
# _framework density 19.026820000000001
#
# number of rings (size 3 to 8) (size 9 to 14) (size 15 to 20)
#    0.000    1.333    0.000    9.000    0.000    0.000 
#    0.000    0.000    0.000    4.000    0.000    2.333 
#    0.000    0.000    0.000    0.000    0.000    0.000 
#
# Total GULP energy -446122.749476 kJ/mol
# GULP energy per Si atom -12392.298597 kJ/mol
# Density = 1.898351 g / cm^3
# Si number density = 19.026820 Si / 1000 Ang^3
#
#
#
# Elastic Constant Matrix: (Units=GPa)
#
#
# Indices 1 2 3 4 5 6 
#
# 1 77.2702 55.6436 25.2001 0.0000 0.0000 0.0000
# 2 55.6436 77.2702 25.2001 0.0000 0.0000 0.0000
# 3 25.2001 25.2001 125.5133 0.0000 0.0000 0.0000
# 4 0.0000 0.0000 0.0000 23.8980 0.0000 0.0000
# 5 0.0000 0.0000 0.0000 0.0000 23.8980 0.0000
# 6 0.0000 0.0000 0.0000 0.0000 0.0000 10.8133
#
#
#
# Elastic Compliance Matrix: (Units=1/GPa)
#
#
# Indices 1 2 3 4 5 6 
#
# 1 0.027192 -0.019048 -0.001635 0.000000 0.000000 0.000000
# 2 -0.019048 0.027192 -0.001635 0.000000 0.000000 0.000000
# 3 -0.001635 -0.001635 0.008624 0.000000 0.000000 0.000000
# 4 0.000000 0.000000 0.000000 0.041844 0.000000 0.000000
# 5 0.000000 0.000000 0.000000 0.000000 0.041844 0.000000
# 6 0.000000 0.000000 0.000000 0.000000 0.000000 0.092479
#
#
# Mechanical properties :
#
#
# Convention : Reuss Voigt Hill
#
# Bulk Modulus (GPa) = 54.43369 54.68235 54.55802
# Shear Modulus (GPa) = 17.24529 23.32251 20.28390
#
# Velocity S-wave (km/s) = 3.01386 3.50490 3.26861
# Velocity P-wave (km/s) = 6.38609 6.72169 6.55604
#
# Compressibility (1/GPa) = 0.01837098
#
# Stress axis : x y z
#
# Youngs Moduli (GPa) = 36.77615 36.77615 115.95752
#
# Poissons Ratio (x) = 0.70051 0.18960
# Poissons Ratio (y) = 0.70051 0.18960
# Poissons Ratio (z) = 0.06013 0.06013
#
# Static dielectric constant tensor:
#      x y z
#    x 3.554700 0.000000 0.000000 
#    y 0.000000 3.554700 0.000000 
#    z 0.000000 0.000000 3.803120 
# 
# 
# High freq. dielectric constant tensor:
#      x y z
#    x 1.720520 0.000000 0.000000 
#    y 0.000000 1.720520 0.000000 
#    z 0.000000 0.000000 1.774670 
# 
# From -- ./inp_files/597.got.cif
#   From: 2010.03.12/outbox.cif.g09.slc.cpg/sg178_1_cif.got.tgz:597.got - 2010.04.02 07:02:38.
