data_PCOD8325370
_publ_section_title
;
Structure prediction by ZEFSAII (Michael W. Deem and Ramdas Pophale) SiO2 
 PCOD8325370
Probable space group: P 6/M
;
_chemical_formula_sum "Si O2"
_cell_formula_units_Z 96
_cell_length_a 18.108252
_cell_length_b 18.108252
_cell_length_c 19.590131
_cell_angle_alpha 90.000000
_cell_angle_beta 90.000000
_cell_angle_gamma 120.000000
_cell_volume 5563.153344
_symmetry_space_group_name_H-M "P 6/M"
_symmetry_group_IT_number 175
_symmetry_cell_setting 'hexagonal'
loop_
_space_group_symop_operation_xyz
x,y,z
x-y,x,z
-y,x-y,z
-x,-y,z
-x+y,-x,z
y,-x+y,z
-x,-y,-z
-x+y,-x,-z
y,-x+y,-z
x,y,-z
x-y,x,-z
-y,x-y,-z
loop_
_atom_site_type_symbol
_atom_site_label
_atom_site_fract_x
_atom_site_fract_y
_atom_site_fract_z
Si Si1 0.000000 0.663044 0.580837
Si Si2 0.834559 0.503570 0.073607
Si Si3 0.836590 0.330746 0.354488
Si Si4 0.093498 0.459524 0.787865
Si Si5 0.330989 0.496430 0.926393
Si Si6 0.366026 0.459524 0.787865
Si Si7 0.831691 1.000000 0.418763
Si Si8 0.836591 0.505845 0.354488
O O1 0.000000 0.662750 0.500000
O O2 0.000000 0.747385 0.608330
O O3 0.916097 0.578799 0.605325
O O4 0.083903 0.662702 0.605325
O O5 0.879537 0.563338 0.139483
O O6 0.734227 0.468453 0.079073
O O7 0.849910 0.424955 0.075634
O O8 0.869801 0.551777 0.000000
O O9 0.843871 0.314563 0.274086
O O10 0.833937 0.416969 0.367083
O O11 0.749237 0.250763 0.381874
O O12 0.091652 0.545826 0.797074
O O13 0.156129 0.470692 0.725914
O O14 1.000000 0.382629 0.768619
O O15 0.316199 0.436662 0.860517
O O16 0.318024 0.448223 0.000000
O O17 0.832739 1.000000 0.500000
O O18 0.915703 0.084297 0.390933
#
# Coordination Sequence:
#
# PCOD8325370 Si02
#       8
#    12  12  12  12  12  12  12  12
#     4  11  23  39  57  77 104 137 167 203 261 323
#     4   9  16  25  39  61  90 123 159 201 247 293
#     4  11  22  37  56  77 101 133 174 218 259 304
#     4   9  17  30  46  65  91 123 160 203 251 299
#     4   9  16  25  39  61  90 123 159 201 247 293
#     4   9  17  30  46  65  91 123 160 203 251 299
#     4   9  17  31  53  81 109 134 161 195 238 294
#     4  11  22  37  56  77 101 133 174 218 259 304
#
# _framework density 17.256399999999999
#
# number of rings (size 3 to 8) (size 9 to 14) (size 15 to 20)
#    0.000    2.250    1.250    2.500    0.000    4.500 
#    0.000    5.000    0.000    1.500    0.000    0.000 
#    0.000    0.000    0.000    0.000    0.000    0.000 
#
# Total GULP energy -1189483.336200 kJ/mol
# GULP energy per Si atom -12390.451419 kJ/mol
# Density = 1.721712 g / cm^3
# Si number density = 17.256400 Si / 1000 Ang^3
#
#
#
# Elastic Constant Matrix: (Units=GPa)
#
#
# Indices 1 2 3 4 5 6 
#
# 1 103.0636 55.3338 33.0265 0.0000 0.0000 0.0000
# 2 55.3338 103.0636 33.0265 0.0000 0.0000 0.0000
# 3 33.0265 33.0265 76.1418 0.0000 0.0000 0.0000
# 4 0.0000 0.0000 0.0000 19.8455 0.0000 0.0000
# 5 0.0000 0.0000 0.0000 0.0000 19.8455 0.0000
# 6 0.0000 0.0000 0.0000 0.0000 0.0000 23.8649
#
#
#
# Elastic Compliance Matrix: (Units=1/GPa)
#
#
# Indices 1 2 3 4 5 6 
#
# 1 0.014329 -0.006622 -0.003343 0.000000 0.000000 0.000000
# 2 -0.006622 0.014329 -0.003343 0.000000 0.000000 0.000000
# 3 -0.003343 -0.003343 0.016033 0.000000 0.000000 0.000000
# 4 0.000000 0.000000 0.000000 0.050389 0.000000 0.000000
# 5 0.000000 0.000000 0.000000 0.000000 0.050389 0.000000
# 6 0.000000 0.000000 0.000000 0.000000 0.000000 0.041903
#
#
# Mechanical properties :
#
#
# Convention : Reuss Voigt Hill
#
# Bulk Modulus (GPa) = 55.32223 58.33808 56.83015
# Shear Modulus (GPa) = 22.72579 23.43668 23.08123
#
# Velocity S-wave (km/s) = 3.63292 3.68930 3.66122
# Velocity P-wave (km/s) = 7.05167 7.21304 7.13281
#
# Compressibility (1/GPa) = 0.01807592
#
# Stress axis : x y z
#
# Youngs Moduli (GPa) = 69.78714 69.78714 62.36950
#
# Poissons Ratio (x) = 0.46213 0.20850
# Poissons Ratio (y) = 0.46213 0.20850
# Poissons Ratio (z) = 0.23330 0.23330
#
# Static dielectric constant tensor:
#      x y z
#    x 3.152350 0.000000 0.000000 
#    y 0.000000 3.152350 0.000000 
#    z 0.000000 0.000000 3.532400 
# 
# 
# High freq. dielectric constant tensor:
#      x y z
#    x 1.645530 0.000000 0.000000 
#    y 0.000000 1.645530 0.000000 
#    z 0.000000 0.000000 1.669070 
# 
# From -- ./inp_files/3188.got.cif
#   From: 2010.03.12/outbox.cif.g09.slc.cpg/sg175_2_cif.got.tgz:3188.got - 2010.04.02 06:55:29.
