data_PCOD8325601
_publ_section_title
;
Structure prediction by ZEFSAII (Michael W. Deem and Ramdas Pophale) SiO2 
 PCOD8325601
Probable space group: P 63/M
;
_chemical_formula_sum "Si O2"
_cell_formula_units_Z 52
_cell_length_a 15.634750
_cell_length_b 15.634750
_cell_length_c 15.115705
_cell_angle_alpha 90.000000
_cell_angle_beta 90.000000
_cell_angle_gamma 120.000000
_cell_volume 3199.933270
_symmetry_space_group_name_H-M "P 63/M"
_symmetry_group_IT_number 176
_symmetry_cell_setting 'hexagonal'
loop_
_space_group_symop_operation_xyz
x,y,z
x-y,x,1/2+z
-y,x-y,z
-x,-y,1/2+z
-x+y,-x,z
y,-x+y,1/2+z
-x,-y,-z
-x+y,-x,1/2-z
y,-x+y,-z
x,y,1/2-z
x-y,x,-z
-y,x-y,1/2-z
loop_
_atom_site_type_symbol
_atom_site_label
_atom_site_fract_x
_atom_site_fract_y
_atom_site_fract_z
Si Si1 0.331652 0.868131 0.250000
Si Si2 0.228108 0.448422 0.851858
Si Si3 0.610538 0.589951 0.401293
Si Si4 0.026839 0.419267 0.604875
Si Si5 0.131899 0.662215 0.250000
Si Si6 0.333334 0.666668 0.855974
O O1 0.338547 0.930937 0.337233
O O2 0.227151 0.769263 0.250000
O O3 0.415612 0.837334 0.250000
O O4 0.255361 0.458843 0.750000
O O5 0.277626 0.388903 0.893686
O O6 0.111047 0.394540 0.866101
O O7 0.276413 0.556664 0.895595
O O8 0.598340 0.612127 0.501306
O O9 0.532729 0.476110 0.374099
O O10 0.929870 0.347389 0.661200
O O11 0.333334 0.666668 0.750000
#
# Coordination Sequence:
#
# PCOD8325601 Si02
#       6
#     6  12  12  12   6   4
#     4  10  21  37  52  70 104 144 178 209 247 300
#     4  11  18  32  52  76 104 135 172 213 259 297
#     4  10  21  34  50  75 105 136 172 213 252 302
#     4  10  21  34  50  75 105 136 172 213 252 302
#     4  10  21  37  52  70 104 144 178 209 247 300
#     4   9  18  24  51  75 102 136 164 211 264 300
#
# _framework density 16.250340000000001
#
# number of rings (size 3 to 8) (size 9 to 14) (size 15 to 20)
#    0.000    1.846    4.615    0.231    3.231    0.000 
#    0.000    0.000    0.000    0.000    0.000    0.000 
#    9.231    1.846    0.000    0.000    0.000    0.000 
#
# Total GULP energy -644728.257053 kJ/mol
# GULP energy per Si atom -12398.620328 kJ/mol
# Density = 1.621335 g / cm^3
# Si number density = 16.250340 Si / 1000 Ang^3
#
#
#
# Elastic Constant Matrix: (Units=GPa)
#
#
# Indices 1 2 3 4 5 6 
#
# 1 101.2246 46.0104 29.5143 0.0000 0.0000 0.0001
# 2 46.0104 101.2239 29.5142 0.0000 0.0000 -0.0001
# 3 29.5143 29.5142 91.8171 0.0000 0.0000 0.0000
# 4 0.0000 0.0000 0.0000 16.3435 0.0000 0.0000
# 5 0.0000 0.0000 0.0000 0.0000 16.3434 0.0000
# 6 0.0001 -0.0001 0.0000 0.0000 0.0000 27.6071
#
#
#
# Elastic Compliance Matrix: (Units=1/GPa)
#
#
# Indices 1 2 3 4 5 6 
#
# 1 0.012954 -0.005157 -0.002506 0.000000 0.000000 0.000000
# 2 -0.005157 0.012954 -0.002506 0.000000 0.000000 0.000000
# 3 -0.002506 -0.002506 0.012502 0.000000 0.000000 0.000000
# 4 0.000000 0.000000 0.000000 0.061187 0.000000 0.000000
# 5 0.000000 0.000000 0.000000 0.000000 0.061187 0.000000
# 6 0.000000 0.000000 0.000000 0.000000 0.000000 0.036223
#
#
# Mechanical properties :
#
#
# Convention : Reuss Voigt Hill
#
# Bulk Modulus (GPa) = 55.33751 56.03817 55.68784
# Shear Modulus (GPa) = 22.38443 24.67390 23.52917
#
# Velocity S-wave (km/s) = 3.71546 3.90084 3.80928
# Velocity P-wave (km/s) = 7.24798 7.40594 7.32739
#
# Compressibility (1/GPa) = 0.01807093
#
# Stress axis : x y z
#
# Youngs Moduli (GPa) = 77.19632 77.19579 79.98437
#
# Poissons Ratio (x) = 0.39813 0.20046
# Poissons Ratio (y) = 0.39813 0.20046
# Poissons Ratio (z) = 0.19347 0.19347
#
# Static dielectric constant tensor:
#      x y z
#    x 2.894280 0.000000 0.000000 
#    y 0.000000 2.894280 0.000000 
#    z 0.000000 0.000000 3.051760 
# 
# 
# High freq. dielectric constant tensor:
#      x y z
#    x 1.603480 0.000000 0.000000 
#    y 0.000000 1.603480 0.000000 
#    z 0.000000 0.000000 1.631180 
# 
# From -- ./inp_files/2593.got.cif
#   From: 2010.06.25/outbox.cif.g09.slc.cpg/sg176_2_cif.got.tgz:2593.got - 2010.06.28 12:15:01.
