data_PCOD8325453
_publ_section_title
;
Structure prediction by ZEFSAII (Michael W. Deem and Ramdas Pophale) SiO2 
 PCOD8325453
Probable space group: P 63/M
;
_chemical_formula_sum "Si O2"
_cell_formula_units_Z 72
_cell_length_a 23.964109
_cell_length_b 23.964109
_cell_length_c 9.058969
_cell_angle_alpha 90.000000
_cell_angle_beta 90.000000
_cell_angle_gamma 120.000000
_cell_volume 4505.385716
_symmetry_space_group_name_H-M "P 63/M"
_symmetry_group_IT_number 176
_symmetry_cell_setting 'hexagonal'
loop_
_space_group_symop_operation_xyz
x,y,z
x-y,x,1/2+z
-y,x-y,z
-x,-y,1/2+z
-x+y,-x,z
y,-x+y,1/2+z
-x,-y,-z
-x+y,-x,1/2-z
y,-x+y,-z
x,y,1/2-z
x-y,x,-z
-y,x-y,1/2-z
loop_
_atom_site_type_symbol
_atom_site_label
_atom_site_fract_x
_atom_site_fract_y
_atom_site_fract_z
Si Si1 0.257778 0.073543 0.077692
Si Si2 0.141667 0.737972 0.923298
Si Si3 0.396929 0.260936 0.423878
Si Si4 0.931579 0.403290 0.075950
Si Si5 0.405831 0.935026 0.577977
Si Si6 0.736706 0.810309 0.423825
O O1 0.255491 0.087570 0.250000
O O2 0.330090 0.091642 0.031577
O O3 0.209440 0.999555 0.037410
O O4 0.237245 0.118257 0.987684
O O5 0.143352 0.731332 0.750000
O O6 0.213191 0.790690 0.978925
O O7 0.118875 0.667159 0.991064
O O8 0.381986 0.252290 0.250000
O O9 0.451976 0.333243 0.464174
O O10 0.330479 0.242436 0.504500
O O11 0.938327 0.399668 0.250000
O O12 0.908637 0.454478 0.033910
O O13 0.000883 0.424372 0.009747
O O14 0.412230 0.952181 0.750000
O O15 0.726192 0.810240 0.250000
#
# Coordination Sequence:
#
# PCOD8325453 Si02
#       6
#    12  12  12  12  12  12
#     4   9  18  31  45  64  90 116 141 174 217 257
#     4   8  14  26  43  59  80 112 141 168 208 254
#     4   9  17  29  43  61  88 117 143 177 221 261
#     4   9  16  27  43  61  82 110 143 175 209 254
#     4   9  17  27  41  62  85 110 139 173 214 254
#     4  10  19  30  47  69  89 114 147 177 211 258
#
# _framework density 15.980873000000001
#
# number of rings (size 3 to 8) (size 9 to 14) (size 15 to 20)
#    0.000    3.000    0.000    2.500    0.000    3.333 
#    0.000    5.000    0.000    1.000    0.000    4.667 
#    0.000    0.000    0.000   10.667    0.000   13.333 
#
# Total GULP energy -892398.739278 kJ/mol
# GULP energy per Si atom -12394.426934 kJ/mol
# Density = 1.594450 g / cm^3
# Si number density = 15.980873 Si / 1000 Ang^3
#
#
#
# Elastic Constant Matrix: (Units=GPa)
#
#
# Indices 1 2 3 4 5 6 
#
# 1 132.0456 79.9948 36.2351 0.0000 0.0000 0.0000
# 2 79.9948 132.0456 36.2351 0.0000 0.0000 0.0000
# 3 36.2351 36.2351 34.5193 0.0000 0.0000 0.0000
# 4 0.0000 0.0000 0.0000 20.0283 0.0000 0.0000
# 5 0.0000 0.0000 0.0000 0.0000 20.0283 0.0000
# 6 0.0000 0.0000 0.0000 0.0000 0.0000 26.0254
#
#
#
# Elastic Compliance Matrix: (Units=1/GPa)
#
#
# Indices 1 2 3 4 5 6 
#
# 1 0.013283 -0.005929 -0.007720 0.000000 0.000000 0.000000
# 2 -0.005929 0.013283 -0.007720 0.000000 0.000000 0.000000
# 3 -0.007720 -0.007720 0.045177 0.000000 0.000000 0.000000
# 4 0.000000 0.000000 0.000000 0.049929 0.000000 0.000000
# 5 0.000000 0.000000 0.000000 0.000000 0.049929 0.000000
# 6 0.000000 0.000000 0.000000 0.000000 0.000000 0.038424
#
#
# Mechanical properties :
#
#
# Convention : Reuss Voigt Hill
#
# Bulk Modulus (GPa) = 34.47609 67.06005 50.76807
# Shear Modulus (GPa) = 19.05244 22.95941 21.00592
#
# Velocity S-wave (km/s) = 3.45657 3.79447 3.62946
# Velocity P-wave (km/s) = 6.12786 7.82631 7.02858
#
# Compressibility (1/GPa) = 0.02900561
#
# Stress axis : x y z
#
# Youngs Moduli (GPa) = 75.28223 75.28223 22.13508
#
# Poissons Ratio (x) = 0.44632 0.17089
# Poissons Ratio (y) = 0.44632 0.17089
# Poissons Ratio (z) = 0.58120 0.58120
#
# Static dielectric constant tensor:
#      x y z
#    x 3.208380 0.000000 0.000000 
#    y 0.000000 3.208380 0.000000 
#    z 0.000000 0.000000 2.900170 
# 
# 
# High freq. dielectric constant tensor:
#      x y z
#    x 1.606890 0.000000 0.000000 
#    y 0.000000 1.606890 0.000000 
#    z 0.000000 0.000000 1.600030 
# 
# From -- ./inp_files/1169.got.cif
#   From: 2010.06.25/outbox.cif.g09.slc.cpg/sg176_1_cif.got.tgz:1169.got - 2010.06.28 12:15:01.
