data_PCOD8325737
_publ_section_title
;
Structure prediction by ZEFSAII (Michael W. Deem and Ramdas Pophale) SiO2 
 PCOD8325737
Probable space group: P 6 2 2
;
_chemical_formula_sum "Si O2"
_cell_formula_units_Z 72
_cell_length_a 24.226152
_cell_length_b 24.226152
_cell_length_c 8.684388
_cell_angle_alpha 90.000000
_cell_angle_beta 90.000000
_cell_angle_gamma 120.000000
_cell_volume 4414.065016
_symmetry_space_group_name_H-M "P 6 2 2"
_symmetry_group_IT_number 177
_symmetry_cell_setting 'hexagonal'
loop_
_space_group_symop_operation_xyz
x,y,z
x-y,x,z
-y,x-y,z
-x,-y,z
-x+y,-x,z
y,-x+y,z
x-y,-y,-z
-x,-x+y,-z
y,x,-z
-y,-x,-z
-x+y,y,-z
x,x-y,-z
loop_
_atom_site_type_symbol
_atom_site_label
_atom_site_fract_x
_atom_site_fract_y
_atom_site_fract_z
Si Si1 0.071020 0.591856 0.555599
Si Si2 0.921833 0.615180 0.659863
Si Si3 0.932921 0.746240 0.577904
Si Si4 0.826578 0.066658 0.921560
Si Si5 0.389649 0.254188 0.961628
Si Si6 0.961206 0.369984 0.848658
O O1 0.107409 0.553705 0.500000
O O2 0.099313 0.659948 0.470156
O O3 0.070080 0.597194 0.742994
O O4 0.000000 0.550149 0.500000
O O5 0.920463 0.674340 0.581448
O O6 0.870844 0.582461 0.797953
O O7 0.992260 0.641147 0.734632
O O8 0.872676 0.745352 0.500000
O O9 0.940609 0.777357 0.743899
O O10 0.000000 0.793137 0.500000
O O11 0.789646 0.104725 0.941657
O O12 0.895754 0.104247 0.000000
O O13 0.784628 0.000000 0.000000
O O14 0.421096 0.210548 0.000000
O O15 0.401566 0.303319 0.098565
O O16 0.000000 0.411410 0.000000
#
# Coordination Sequence:
#
# PCOD8325737 Si02
#       6
#    12  12  12  12  12  12
#     4   9  17  29  43  62  90 122 156 187 220 270
#     4   9  18  29  44  64  92 125 156 192 236 284
#     4  11  21  32  48  71  96 125 163 204 247 296
#     4  10  19  31  46  63  86 115 149 193 241 292
#     4   9  17  28  43  64  89 119 155 191 232 282
#     4   9  16  29  45  62  88 123 158 191 226 276
#
# _framework density 16.311494
#
# number of rings (size 3 to 8) (size 9 to 14) (size 15 to 20)
#    0.000    2.500    0.000    5.000    0.000    6.667 
#    0.000   14.167    0.000    0.333    0.000    2.333 
#    0.000    0.000    0.000   22.500    0.000    3.333 
#
# Total GULP energy -892103.459474 kJ/mol
# GULP energy per Si atom -12390.325826 kJ/mol
# Density = 1.627437 g / cm^3
# Si number density = 16.311494 Si / 1000 Ang^3
#
#
#
# Elastic Constant Matrix: (Units=GPa)
#
#
# Indices 1 2 3 4 5 6 
#
# 1 56.9187 27.4556 46.1719 0.0000 0.0000 0.0000
# 2 27.4556 56.9187 46.1719 0.0000 0.0000 0.0000
# 3 46.1719 46.1719 134.1714 0.0000 0.0000 0.0000
# 4 0.0000 0.0000 0.0000 17.3374 0.0000 0.0000
# 5 0.0000 0.0000 0.0000 0.0000 17.3374 0.0000
# 6 0.0000 0.0000 0.0000 0.0000 0.0000 14.7315
#
#
#
# Elastic Compliance Matrix: (Units=1/GPa)
#
#
# Indices 1 2 3 4 5 6 
#
# 1 0.026477 -0.007464 -0.006543 0.000000 0.000000 0.000000
# 2 -0.007464 0.026477 -0.006543 0.000000 0.000000 0.000000
# 3 -0.006543 -0.006543 0.011956 0.000000 0.000000 0.000000
# 4 0.000000 0.000000 0.000000 0.057679 0.000000 0.000000
# 5 0.000000 0.000000 0.000000 0.000000 0.057679 0.000000
# 6 0.000000 0.000000 0.000000 0.000000 0.000000 0.067882
#
#
# Mechanical properties :
#
#
# Convention : Reuss Voigt Hill
#
# Bulk Modulus (GPa) = 41.99819 54.17865 48.08842
# Shear Modulus (GPa) = 16.82454 18.42855 17.62655
#
# Velocity S-wave (km/s) = 3.21511 3.36488 3.29085
# Velocity P-wave (km/s) = 6.29175 6.95584 6.63211
#
# Compressibility (1/GPa) = 0.02381055
#
# Stress axis : x y z
#
# Youngs Moduli (GPa) = 37.76900 37.76900 83.63841
#
# Poissons Ratio (x) = 0.28191 0.54723
# Poissons Ratio (y) = 0.28191 0.54723
# Poissons Ratio (z) = 0.24711 0.24711
#
# Static dielectric constant tensor:
#      x y z
#    x 3.291650 0.000000 0.000000 
#    y 0.000000 3.291650 0.000000 
#    z 0.000000 0.000000 3.578880 
# 
# 
# High freq. dielectric constant tensor:
#      x y z
#    x 1.592680 0.000000 0.000000 
#    y 0.000000 1.592680 0.000000 
#    z 0.000000 0.000000 1.651450 
# 
# From -- ./inp_files/1522.got.cif
#   From: 2010.03.12/outbox.cif.g09.slc.cpg/sg177_1_cif.got.tgz:1522.got - 2010.04.02 07:00:27.
