data_PCOD8325896
_publ_section_title
;
Structure prediction by ZEFSAII (Michael W. Deem and Ramdas Pophale) SiO2 
 PCOD8325896
Probable space group: P 61 2 2
;
_chemical_formula_sum "Si O2"
_cell_formula_units_Z 54
_cell_length_a 11.938067
_cell_length_b 11.938067
_cell_length_c 20.831108
_cell_angle_alpha 90.000000
_cell_angle_beta 90.000000
_cell_angle_gamma 120.000000
_cell_volume 2571.052981
_symmetry_space_group_name_H-M "P 61 2 2"
_symmetry_group_IT_number 178
_symmetry_cell_setting 'hexagonal'
loop_
_space_group_symop_operation_xyz
x,y,z
x-y,x,1/6+z
-y,x-y,1/3+z
-x,-y,1/2+z
-x+y,-x,2/3+z
y,-x+y,5/6+z
x-y,-y,-z
-x,-x+y,2/3-z
y,x,1/3-z
-y,-x,5/6-z
-x+y,y,1/2-z
x,x-y,1/6-z
loop_
_atom_site_type_symbol
_atom_site_label
_atom_site_fract_x
_atom_site_fract_y
_atom_site_fract_z
Si Si1 0.721294 0.058483 0.070308
Si Si2 0.378892 0.521579 0.280842
Si Si3 0.903592 0.451796 0.583334
Si Si4 0.991637 0.754832 0.907657
Si Si5 0.275523 0.271302 0.458299
O O1 0.616203 0.103488 0.078937
O O2 0.714064 0.970669 0.131131
O O3 0.869408 0.167908 0.077555
O O4 0.704891 0.000000 0.000000
O O5 0.272107 0.544214 0.250000
O O6 0.376691 0.559445 0.355177
O O7 0.340926 0.370585 0.278088
O O8 0.996212 0.399375 0.604980
O O9 0.854370 0.731175 0.933174
O O10 0.000000 0.725571 0.833334
O O11 0.094074 0.905927 0.916667
#
# Coordination Sequence:
#
# PCOD8325896 Si02
#       5
#    12  12   6  12  12
#     4  11  24  41  60  92 132 175 212 266 330 410
#     4  10  22  42  65  94 126 165 223 274 337 389
#     4  10  22  40  62  92 120 170 210 268 320 392
#     4  11  22  40  68  97 124 162 217 283 331 385
#     4  11  23  41  64  91 130 166 219 261 328 394
#
# _framework density 21.003066
#
# number of rings (size 3 to 8) (size 9 to 14) (size 15 to 20)
#    0.000    1.333    0.000    6.667    1.556    2.667 
#    8.000    0.000    0.000    0.000    0.000    0.000 
#    0.000    0.000    0.000    0.000    0.000    0.000 
#
# Total GULP energy -669127.094006 kJ/mol
# GULP energy per Si atom -12391.242482 kJ/mol
# Density = 2.095526 g / cm^3
# Si number density = 21.003066 Si / 1000 Ang^3
#
#
#
# Elastic Constant Matrix: (Units=GPa)
#
#
# Indices 1 2 3 4 5 6 
#
# 1 83.7245 51.5606 29.5620 0.0000 0.0000 0.0000
# 2 51.5606 83.7245 29.5620 0.0000 0.0000 0.0000
# 3 29.5620 29.5620 149.6506 0.0000 0.0000 0.0000
# 4 0.0000 0.0000 0.0000 33.8911 0.0000 0.0000
# 5 0.0000 0.0000 0.0000 0.0000 33.8911 0.0000
# 6 0.0000 0.0000 0.0000 0.0000 0.0000 16.0819
#
#
#
# Elastic Compliance Matrix: (Units=1/GPa)
#
#
# Indices 1 2 3 4 5 6 
#
# 1 0.019591 -0.011500 -0.001598 0.000000 0.000000 0.000000
# 2 -0.011500 0.019591 -0.001598 0.000000 0.000000 0.000000
# 3 -0.001598 -0.001598 0.007314 0.000000 0.000000 0.000000
# 4 0.000000 0.000000 0.000000 0.029506 0.000000 0.000000
# 5 0.000000 0.000000 0.000000 0.000000 0.029506 0.000000
# 6 0.000000 0.000000 0.000000 0.000000 0.000000 0.062182
#
#
# Mechanical properties :
#
#
# Convention : Reuss Voigt Hill
#
# Bulk Modulus (GPa) = 58.47432 59.82985 59.15208
# Shear Modulus (GPa) = 24.65697 30.53383 27.59540
#
# Velocity S-wave (km/s) = 3.43004 3.81698 3.62867
# Velocity P-wave (km/s) = 6.60214 6.92632 6.76617
#
# Compressibility (1/GPa) = 0.01710152
#
# Stress axis : x y z
#
# Youngs Moduli (GPa) = 51.04512 51.04512 136.73104
#
# Poissons Ratio (x) = 0.58703 0.21852
# Poissons Ratio (y) = 0.58703 0.21852
# Poissons Ratio (z) = 0.08158 0.08158
#
# Static dielectric constant tensor:
#      x y z
#    x 3.696480 0.000000 0.000000 
#    y 0.000000 3.696480 0.000000 
#    z 0.000000 0.000000 5.351730 
# 
# 
# High freq. dielectric constant tensor:
#      x y z
#    x 1.818210 0.000000 0.000000 
#    y 0.000000 1.818210 0.000000 
#    z 0.000000 0.000000 1.856840 
# 
# From -- ./inp_files/7396.got.cif
#   From: 2010.03.12/outbox.cif.g09.slc.cpg/sg178_4_cif.got.tgz:7396.got - 2010.04.02 07:02:38.
