data_PCOD8325943
_publ_section_title
;
Structure prediction by ZEFSAII (Michael W. Deem and Ramdas Pophale) SiO2 
 PCOD8325943
Probable space group: P 61 2 2
;
_chemical_formula_sum "Si O2"
_cell_formula_units_Z 84
_cell_length_a 16.523013
_cell_length_b 16.523013
_cell_length_c 15.840833
_cell_angle_alpha 90.000000
_cell_angle_beta 90.000000
_cell_angle_gamma 120.000000
_cell_volume 3745.304534
_symmetry_space_group_name_H-M "P 61 2 2"
_symmetry_group_IT_number 178
_symmetry_cell_setting 'hexagonal'
loop_
_space_group_symop_operation_xyz
x,y,z
x-y,x,1/6+z
-y,x-y,1/3+z
-x,-y,1/2+z
-x+y,-x,2/3+z
y,-x+y,5/6+z
x-y,-y,-z
-x,-x+y,2/3-z
y,x,1/3-z
-y,-x,5/6-z
-x+y,y,1/2-z
x,x-y,1/6-z
loop_
_atom_site_type_symbol
_atom_site_label
_atom_site_fract_x
_atom_site_fract_y
_atom_site_fract_z
Si Si1 0.602519 0.209761 0.584241
Si Si2 0.114285 0.382659 0.194942
Si Si3 0.448696 0.239655 0.859091
Si Si4 0.690821 0.748201 0.892885
Si Si5 0.877321 0.450957 0.425255
Si Si6 0.413369 0.951611 0.321805
Si Si7 0.877356 0.951904 0.221488
O O1 0.637298 0.318649 0.583334
O O2 0.688882 0.193980 0.599401
O O3 0.549943 0.162348 0.498929
O O4 0.527747 0.158001 0.658763
O O5 0.175801 0.351602 0.250000
O O6 0.139008 0.385137 0.097309
O O7 0.133610 0.483823 0.223530
O O8 0.005047 0.299023 0.192921
O O9 0.376213 0.167183 0.791574
O O10 0.522927 0.341159 0.822932
O O11 0.640051 0.667293 0.962507
O O12 0.786334 0.825394 0.934985
O O13 0.985614 0.531793 0.430220
O O14 0.492406 0.984811 0.250000
O O15 0.914950 0.948786 0.317205
O O16 0.859925 0.859925 0.166667
#
# Coordination Sequence:
#
# PCOD8325943 Si02
#       7
#    12  12  12  12  12  12  12
#     4  12  26  41  64 101 136 191 251 299 354 451
#     4  12  24  43  69 105 141 194 248 313 383 454
#     4  12  24  42  70  97 143 189 245 311 370 457
#     4  12  25  46  74 110 148 190 252 316 394 460
#     4  12  24  44  68  97 142 197 243 297 381 450
#     4  12  23  45  69  98 145 187 235 303 380 436
#     4  10  24  53  83 113 152 199 251 322 401 469
#
# _framework density 22.428084999999999
#
# number of rings (size 3 to 8) (size 9 to 14) (size 15 to 20)
#    0.000    0.286    5.714    3.429    0.000    0.571 
#   12.857    0.000    0.000    0.000    0.000    0.000 
#    0.000    0.000    0.000    0.000    0.000    0.000 
#
# Total GULP energy -1040829.360464 kJ/mol
# GULP energy per Si atom -12390.825720 kJ/mol
# Density = 2.237704 g / cm^3
# Si number density = 22.428085 Si / 1000 Ang^3
#
#
#
# Elastic Constant Matrix: (Units=GPa)
#
#
# Indices 1 2 3 4 5 6 
#
# 1 110.9129 34.4117 28.6039 0.0000 0.0000 0.0000
# 2 34.4117 110.9129 28.6039 0.0000 0.0000 0.0000
# 3 28.6039 28.6039 67.9059 0.0000 0.0000 0.0000
# 4 0.0000 0.0000 0.0000 34.6516 0.0000 0.0000
# 5 0.0000 0.0000 0.0000 0.0000 34.6516 0.0000
# 6 0.0000 0.0000 0.0000 0.0000 0.0000 38.2506
#
#
#
# Elastic Compliance Matrix: (Units=1/GPa)
#
#
# Indices 1 2 3 4 5 6 
#
# 1 0.010660 -0.002411 -0.003475 0.000000 0.000000 0.000000
# 2 -0.002411 0.010660 -0.003475 0.000000 0.000000 0.000000
# 3 -0.003475 -0.003475 0.017654 0.000000 0.000000 0.000000
# 4 0.000000 0.000000 0.000000 0.028859 0.000000 0.000000
# 5 0.000000 0.000000 0.000000 0.000000 0.028859 0.000000
# 6 0.000000 0.000000 0.000000 0.000000 0.000000 0.026143
#
#
# Mechanical properties :
#
#
# Convention : Reuss Voigt Hill
#
# Bulk Modulus (GPa) = 49.37615 52.55229 50.96422
# Shear Modulus (GPa) = 33.71376 34.71824 34.21600
#
# Velocity S-wave (km/s) = 3.88131 3.93871 3.91011
# Velocity P-wave (km/s) = 6.49224 6.64582 6.56948
#
# Compressibility (1/GPa) = 0.02025269
#
# Stress axis : x y z
#
# Youngs Moduli (GPa) = 93.80561 93.80561 56.64584
#
# Poissons Ratio (x) = 0.22620 0.19683
# Poissons Ratio (y) = 0.22620 0.19683
# Poissons Ratio (z) = 0.32595 0.32595
#
# Static dielectric constant tensor:
#      x y z
#    x 4.375080 0.000000 0.000000 
#    y 0.000000 4.375080 0.000000 
#    z 0.000000 0.000000 4.135730 
# 
# 
# High freq. dielectric constant tensor:
#      x y z
#    x 1.887120 0.000000 0.000000 
#    y 0.000000 1.887120 0.000000 
#    z 0.000000 0.000000 1.879080 
# 
# From -- ./inp_files/6030.got.cif
#   From: 2010.03.12/outbox.cif.g09.slc.cpg/sg178_4_cif.got.tgz:6030.got - 2010.04.02 07:02:38.
