data_PCOD8325913
_publ_section_title
;
Structure prediction by ZEFSAII (Michael W. Deem and Ramdas Pophale) SiO2 
 PCOD8325913
Probable space group: P 61 2 2
;
_chemical_formula_sum "Si O2"
_cell_formula_units_Z 42
_cell_length_a 10.845591
_cell_length_b 10.845591
_cell_length_c 14.908182
_cell_angle_alpha 90.000000
_cell_angle_beta 90.000000
_cell_angle_gamma 120.000000
_cell_volume 1518.664227
_symmetry_space_group_name_H-M "P 61 2 2"
_symmetry_group_IT_number 178
_symmetry_cell_setting 'hexagonal'
loop_
_space_group_symop_operation_xyz
x,y,z
x-y,x,1/6+z
-y,x-y,1/3+z
-x,-y,1/2+z
-x+y,-x,2/3+z
y,-x+y,5/6+z
x-y,-y,-z
-x,-x+y,2/3-z
y,x,1/3-z
-y,-x,5/6-z
-x+y,y,1/2-z
x,x-y,1/6-z
loop_
_atom_site_type_symbol
_atom_site_label
_atom_site_fract_x
_atom_site_fract_y
_atom_site_fract_z
Si Si1 0.380668 0.690334 0.583334
Si Si2 0.120635 0.449896 0.398051
Si Si3 0.948547 0.816180 0.548800
Si Si4 0.851631 0.297052 0.003531
O O1 0.473903 0.743645 0.674812
O O2 0.279764 0.763442 0.575260
O O3 0.075303 0.289341 0.423485
O O4 0.118999 0.542696 0.482779
O O5 0.000000 0.443484 0.333334
O O6 0.935154 0.893443 0.458157
O O7 0.015345 0.713867 0.537361
O O8 0.801123 0.198878 0.916667
#
# Coordination Sequence:
#
# PCOD8325913 Si02
#       4
#     6  12  12  12
#     4  10  22  46  74 118 162 210 272 358 430 522
#     4  11  25  47  84 120 173 214 285 360 449 521
#     4  12  29  55  83 127 173 235 296 366 447 545
#     4  10  25  47  78 119 159 222 286 355 429 523
#
# _framework density 27.655881999999998
#
# number of rings (size 3 to 8) (size 9 to 14) (size 15 to 20)
#    0.000    1.143    0.000    3.429   12.000    0.000 
#   23.143    0.000    0.000    0.000    0.000    0.000 
#    0.000    0.000    0.000    0.000    0.000    0.000 
#
# Total GULP energy -520322.368993 kJ/mol
# GULP energy per Si atom -12388.627833 kJ/mol
# Density = 2.759294 g / cm^3
# Si number density = 27.655882 Si / 1000 Ang^3
#
#
#
# Elastic Constant Matrix: (Units=GPa)
#
#
# Indices 1 2 3 4 5 6 
#
# 1 123.6695 44.0248 62.5495 0.0000 0.0000 0.0000
# 2 44.0248 123.6695 62.5495 0.0000 0.0000 0.0000
# 3 62.5495 62.5495 140.6415 0.0000 0.0000 0.0000
# 4 0.0000 0.0000 0.0000 51.0380 0.0000 0.0000
# 5 0.0000 0.0000 0.0000 0.0000 51.0380 0.0000
# 6 0.0000 0.0000 0.0000 0.0000 0.0000 39.8224
#
#
#
# Elastic Compliance Matrix: (Units=1/GPa)
#
#
# Indices 1 2 3 4 5 6 
#
# 1 0.010740 -0.001816 -0.003969 0.000000 0.000000 0.000000
# 2 -0.001816 0.010740 -0.003969 0.000000 0.000000 0.000000
# 3 -0.003969 -0.003969 0.010641 0.000000 0.000000 0.000000
# 4 0.000000 0.000000 0.000000 0.019593 0.000000 0.000000
# 5 0.000000 0.000000 0.000000 0.000000 0.019593 0.000000
# 6 0.000000 0.000000 0.000000 0.000000 0.000000 0.025112
#
#
# Mechanical properties :
#
#
# Convention : Reuss Voigt Hill
#
# Bulk Modulus (GPa) = 79.28340 80.69201 79.98771
# Shear Modulus (GPa) = 41.62158 42.97014 42.29586
#
# Velocity S-wave (km/s) = 3.88362 3.94603 3.91495
# Velocity P-wave (km/s) = 6.98856 7.07121 7.03001
#
# Compressibility (1/GPa) = 0.01261298
#
# Stress axis : x y z
#
# Youngs Moduli (GPa) = 93.11089 93.11089 93.97998
#
# Poissons Ratio (x) = 0.16908 0.37300
# Poissons Ratio (y) = 0.16908 0.37300
# Poissons Ratio (z) = 0.36955 0.36955
#
# Static dielectric constant tensor:
#      x y z
#    x 4.833840 0.000000 0.000000 
#    y 0.000000 4.833840 0.000000 
#    z 0.000000 0.000000 5.642440 
# 
# 
# High freq. dielectric constant tensor:
#      x y z
#    x 2.111820 0.000000 0.000000 
#    y 0.000000 2.111820 0.000000 
#    z 0.000000 0.000000 2.134700 
# 
# From -- ./inp_files/6396.got.cif
#   From: 2010.03.12/outbox.cif.g09.slc.cpg/sg178_4_cif.got.tgz:6396.got - 2010.04.02 07:02:38.
