data_PCOD8325435
_publ_section_title
;
Structure prediction by ZEFSAII (Michael W. Deem and Ramdas Pophale) SiO2 
 PCOD8325435
Probable space group: P 63/M
;
_chemical_formula_sum "Si O2"
_cell_formula_units_Z 76
_cell_length_a 17.333011
_cell_length_b 17.333011
_cell_length_c 14.219723
_cell_angle_alpha 90.000000
_cell_angle_beta 90.000000
_cell_angle_gamma 120.000000
_cell_volume 3699.727975
_symmetry_space_group_name_H-M "P 63/M"
_symmetry_group_IT_number 176
_symmetry_cell_setting 'hexagonal'
loop_
_space_group_symop_operation_xyz
x,y,z
x-y,x,1/2+z
-y,x-y,z
-x,-y,1/2+z
-x+y,-x,z
y,-x+y,1/2+z
-x,-y,-z
-x+y,-x,1/2-z
y,-x+y,-z
x,y,1/2-z
x-y,x,-z
-y,x-y,1/2-z
loop_
_atom_site_type_symbol
_atom_site_label
_atom_site_fract_x
_atom_site_fract_y
_atom_site_fract_z
Si Si1 0.471120 0.228328 0.931971
Si Si2 0.780223 0.377115 0.250000
Si Si3 0.292381 0.337782 0.140748
Si Si4 0.612792 0.495219 0.069573
Si Si5 0.333333 0.666667 0.359619
Si Si6 0.168002 0.020705 0.948698
Si Si7 0.910370 0.013488 0.250000
Si Si8 0.060479 0.429170 0.007488
O O1 0.420947 0.146087 0.859476
O O2 0.566990 0.300557 0.893497
O O3 0.484059 0.192142 0.031234
O O4 0.411077 0.274526 0.951023
O O5 0.728447 0.433684 0.250000
O O6 0.847003 0.405113 0.164448
O O7 0.283524 0.305016 0.250000
O O8 0.225232 0.269296 0.061357
O O9 0.388366 0.362459 0.097775
O O10 0.535491 0.432719 0.996849
O O11 0.611437 0.587952 0.079735
O O12 0.333334 0.666668 0.250000
O O13 0.133648 0.980070 0.845402
O O14 0.164074 0.109577 0.973903
O O15 0.905903 0.917817 0.250000
#
# Coordination Sequence:
#
# PCOD8325435 Si02
#       8
#    12   6  12  12   4  12   6  12
#     4  11  22  44  67  91 126 169 219 263 328 392
#     4  10  22  34  63 101 129 163 218 274 327 382
#     4  11  25  41  61  91 132 170 214 264 331 400
#     4  10  21  40  64  94 127 166 211 270 326 391
#     4  12  24  39  69  97 119 154 219 276 312 375
#     4  12  21  37  65  93 125 171 217 269 321 387
#     4  10  18  34  57  95 121 153 214 272 307 366
#     4  10  22  41  64  91 124 175 209 265 333 390
#
# _framework density 20.542048999999999
#
# number of rings (size 3 to 8) (size 9 to 14) (size 15 to 20)
#    0.316    0.947    3.947    2.526    1.105    0.000 
#    4.263    0.000    0.000    0.000    0.000    0.000 
#    0.000    0.000    0.000    0.000    0.000    0.000 
#
# Total GULP energy -941833.450124 kJ/mol
# GULP energy per Si atom -12392.545396 kJ/mol
# Density = 2.049529 g / cm^3
# Si number density = 20.542049 Si / 1000 Ang^3
#
#
#
# Elastic Constant Matrix: (Units=GPa)
#
#
# Indices 1 2 3 4 5 6 
#
# 1 100.9820 30.8882 29.5837 0.0000 0.0000 -0.0001
# 2 30.8882 100.9822 29.5835 0.0000 0.0000 -0.0001
# 3 29.5837 29.5835 80.5038 0.0000 0.0000 0.0000
# 4 0.0000 0.0000 0.0000 22.9639 0.0000 0.0000
# 5 0.0000 0.0000 0.0000 0.0000 22.9639 0.0000
# 6 -0.0001 -0.0001 0.0000 0.0000 0.0000 35.0470
#
#
#
# Elastic Compliance Matrix: (Units=1/GPa)
#
#
# Indices 1 2 3 4 5 6 
#
# 1 0.011674 -0.002593 -0.003337 0.000000 0.000000 0.000000
# 2 -0.002593 0.011673 -0.003337 0.000000 0.000000 0.000000
# 3 -0.003337 -0.003337 0.014874 0.000000 0.000000 0.000000
# 4 0.000000 0.000000 0.000000 0.043547 0.000000 0.000000
# 5 0.000000 0.000000 0.000000 0.000000 0.043547 0.000000
# 6 0.000000 0.000000 0.000000 0.000000 0.000000 0.028533
#
#
# Mechanical properties :
#
#
# Convention : Reuss Voigt Hill
#
# Bulk Modulus (GPa) = 50.79355 51.39766 51.09560
# Shear Modulus (GPa) = 27.94176 29.02248 28.48212
#
# Velocity S-wave (km/s) = 3.69212 3.76284 3.72765
# Velocity P-wave (km/s) = 6.55408 6.62976 6.59203
#
# Compressibility (1/GPa) = 0.01968754
#
# Stress axis : x y z
#
# Youngs Moduli (GPa) = 85.66410 85.66441 67.23035
#
# Poissons Ratio (x) = 0.22214 0.22434
# Poissons Ratio (y) = 0.22214 0.22434
# Poissons Ratio (z) = 0.28585 0.28585
#
# Static dielectric constant tensor:
#      x y z
#    x 3.711530 0.000000 0.000000 
#    y 0.000000 3.711520 0.000000 
#    z 0.000000 0.000000 3.441060 
# 
# 
# High freq. dielectric constant tensor:
#      x y z
#    x 1.805520 0.000000 0.000000 
#    y 0.000000 1.805520 0.000000 
#    z 0.000000 0.000000 1.784010 
# 
# From -- ./inp_files/2913.got.cif
#   From: 2010.06.25/outbox.cif.g09.slc.cpg/sg176_2_cif.got.tgz:2913.got - 2010.06.28 12:15:01.
