data_PCOD8325941
_publ_section_title
;
Structure prediction by ZEFSAII (Michael W. Deem and Ramdas Pophale) SiO2 
 PCOD8325941
Probable space group: P 61 2 2
;
_chemical_formula_sum "Si O2"
_cell_formula_units_Z 48
_cell_length_a 13.962743
_cell_length_b 13.962743
_cell_length_c 11.797975
_cell_angle_alpha 90.000000
_cell_angle_beta 90.000000
_cell_angle_gamma 120.000000
_cell_volume 1991.955316
_symmetry_space_group_name_H-M "P 61 2 2"
_symmetry_group_IT_number 178
_symmetry_cell_setting 'hexagonal'
loop_
_space_group_symop_operation_xyz
x,y,z
x-y,x,1/6+z
-y,x-y,1/3+z
-x,-y,1/2+z
-x+y,-x,2/3+z
y,-x+y,5/6+z
x-y,-y,-z
-x,-x+y,2/3-z
y,x,1/3-z
-y,-x,5/6-z
-x+y,y,1/2-z
x,x-y,1/6-z
loop_
_atom_site_type_symbol
_atom_site_label
_atom_site_fract_x
_atom_site_fract_y
_atom_site_fract_z
Si Si1 0.664083 0.602461 0.952697
Si Si2 0.161938 0.617786 0.918295
Si Si3 0.832835 0.367404 0.974737
Si Si4 0.159800 0.150881 0.832802
O O1 0.662208 0.571619 0.819527
O O2 0.777561 0.707685 0.991644
O O3 0.641800 0.494089 0.023186
O O4 0.572262 0.635439 0.975241
O O5 0.290490 0.709511 0.916667
O O6 0.124377 0.589569 0.786648
O O7 0.748035 0.251966 0.916667
O O8 0.774422 0.387211 0.083334
O O9 0.134741 0.031320 0.788469
O O10 0.100371 0.200741 0.750000
#
# Coordination Sequence:
#
# PCOD8325941 Si02
#       4
#    12  12  12  12
#     4  11  26  49  76 115 162 211 282 336 402 505
#     4  11  27  49  71 112 166 215 267 330 420 493
#     4  12  27  45  77 112 156 218 278 338 410 494
#     4  10  24  48  82 119 153 205 277 344 414 487
#
# _framework density 24.096924999999999
#
# number of rings (size 3 to 8) (size 9 to 14) (size 15 to 20)
#    0.000    1.000    2.500    2.250   21.000    0.000 
#    0.000    6.250    0.000    0.000    0.000    0.000 
#    0.000    0.000    0.000    0.000    0.000    0.000 
#
# Total GULP energy -594903.011023 kJ/mol
# GULP energy per Si atom -12393.812730 kJ/mol
# Density = 2.404208 g / cm^3
# Si number density = 24.096925 Si / 1000 Ang^3
#
#
#
# Elastic Constant Matrix: (Units=GPa)
#
#
# Indices 1 2 3 4 5 6 
#
# 1 143.0025 61.6016 56.8249 0.0000 0.0000 0.0000
# 2 61.6016 143.0025 56.8249 0.0000 0.0000 0.0000
# 3 56.8249 56.8249 166.1449 0.0000 0.0000 0.0000
# 4 0.0000 0.0000 0.0000 29.3350 0.0000 0.0000
# 5 0.0000 0.0000 0.0000 0.0000 29.3350 0.0000
# 6 0.0000 0.0000 0.0000 0.0000 0.0000 40.7005
#
#
#
# Elastic Compliance Matrix: (Units=1/GPa)
#
#
# Indices 1 2 3 4 5 6 
#
# 1 0.009159 -0.003126 -0.002064 0.000000 0.000000 0.000000
# 2 -0.003126 0.009159 -0.002064 0.000000 0.000000 0.000000
# 3 -0.002064 -0.002064 0.007430 0.000000 0.000000 0.000000
# 4 0.000000 0.000000 0.000000 0.034089 0.000000 0.000000
# 5 0.000000 0.000000 0.000000 0.000000 0.034089 0.000000
# 6 0.000000 0.000000 0.000000 0.000000 0.000000 0.024570
#
#
# Mechanical properties :
#
#
# Convention : Reuss Voigt Hill
#
# Bulk Modulus (GPa) = 88.94153 89.18363 89.06258
# Shear Modulus (GPa) = 36.56295 38.33399 37.44847
#
# Velocity S-wave (km/s) = 3.89952 3.99284 3.94645
# Velocity P-wave (km/s) = 7.56736 7.63857 7.60305
#
# Compressibility (1/GPa) = 0.01124334
#
# Stress axis : x y z
#
# Youngs Moduli (GPa) = 109.17835 109.17835 134.58078
#
# Poissons Ratio (x) = 0.34124 0.27773
# Poissons Ratio (y) = 0.34124 0.27773
# Poissons Ratio (z) = 0.22531 0.22531
#
# Static dielectric constant tensor:
#      x y z
#    x 4.330800 0.000000 0.000000 
#    y 0.000000 4.330800 0.000000 
#    z 0.000000 0.000000 5.127480 
# 
# 
# High freq. dielectric constant tensor:
#      x y z
#    x 1.946370 0.000000 0.000000 
#    y 0.000000 1.946370 0.000000 
#    z 0.000000 0.000000 1.966240 
# 
# From -- ./inp_files/4145.got.cif
#   From: 2010.03.12/outbox.cif.g09.slc.cpg/sg178_3_cif.got.tgz:4145.got - 2010.04.02 07:02:38.
