data_PCOD8325103
_publ_section_title
;
Structure prediction by ZEFSAII (Michael W. Deem and Ramdas Pophale) SiO2 
 PCOD8325103
Probable space group: P 6/M
;
_chemical_formula_sum "Si O2"
_cell_formula_units_Z 74
_cell_length_a 12.798863
_cell_length_b 12.798863
_cell_length_c 28.469553
_cell_angle_alpha 90.000000
_cell_angle_beta 90.000000
_cell_angle_gamma 120.000000
_cell_volume 4038.815932
_symmetry_space_group_name_H-M "P 6/M"
_symmetry_group_IT_number 175
_symmetry_cell_setting 'hexagonal'
loop_
_space_group_symop_operation_xyz
x,y,z
x-y,x,z
-y,x-y,z
-x,-y,z
-x+y,-x,z
y,-x+y,z
-x,-y,-z
-x+y,-x,-z
y,-x+y,-z
x,y,-z
x-y,x,-z
-y,x-y,-z
loop_
_atom_site_type_symbol
_atom_site_label
_atom_site_fract_x
_atom_site_fract_y
_atom_site_fract_z
Si Si1 0.333334 0.666668 0.443807
Si Si2 0.034332 0.771872 0.500000
Si Si3 0.962088 0.221112 0.230966
Si Si4 0.666667 0.333334 0.944151
Si Si5 0.046890 0.777549 0.666696
Si Si6 0.915696 0.357375 0.416429
Si Si7 0.771640 0.740917 0.130208
Si Si8 0.088222 0.640252 0.947641
O O1 0.333334 0.666668 0.500000
O O2 0.457279 0.777309 0.424794
O O3 0.040200 0.702732 0.454622
O O4 0.909035 0.769846 0.500000
O O5 0.948280 0.273737 0.280916
O O6 0.956474 0.282438 0.181355
O O7 0.083963 0.220080 0.230579
O O8 0.547619 0.215769 0.925716
O O9 0.666667 0.333334 0.000000
O O10 0.070310 0.690665 0.633625
O O11 0.916683 0.766512 0.658140
O O12 0.000000 0.500000 0.419358
O O13 0.771046 0.863942 0.125327
O O14 0.691635 0.661908 0.087602
O O15 0.000000 0.500000 0.951939
O O16 0.105037 0.697754 0.000000
#
# Coordination Sequence:
#
# PCOD8325103 Si02
#       8
#     4   6  12   4  12  12  12  12
#     4  12  24  42  63  82 110 154 192 225 262 317
#     4  12  24  40  60  86 115 142 174 218 270 318
#     4   8  15  28  50  77 107 140 175 214 261 320
#     4   9  18  33  51  70  95 130 174 222 264 310
#     4  10  19  35  58  86 114 142 177 222 274 323
#     4  12  25  40  60  84 111 146 188 227 265 314
#     4  10  19  32  51  78 109 141 175 215 266 325
#     4  10  20  34  52  73  99 135 180 227 273 321
#
# _framework density 18.322201
#
# number of rings (size 3 to 8) (size 9 to 14) (size 15 to 20)
#    0.000    1.784    0.811    4.703    0.000    4.541 
#    0.000    2.432    0.000    2.919    0.000    0.000 
#    0.000    0.000    0.000    0.000    0.000    0.000 
#
# Total GULP energy -916909.110421 kJ/mol
# GULP energy per Si atom -12390.663654 kJ/mol
# Density = 1.828050 g / cm^3
# Si number density = 18.322201 Si / 1000 Ang^3
#
#
#
# Elastic Constant Matrix: (Units=GPa)
#
#
# Indices 1 2 3 4 5 6 
#
# 1 93.4483 34.0506 56.7165 0.0000 0.0000 -0.0001
# 2 34.0506 93.4476 56.7165 0.0000 0.0000 0.0000
# 3 56.7165 56.7165 155.4672 0.0000 0.0000 0.0001
# 4 0.0000 0.0000 0.0000 24.4080 -0.0002 0.0000
# 5 0.0000 0.0000 0.0000 -0.0002 24.4078 0.0000
# 6 -0.0001 0.0000 0.0001 0.0000 0.0000 29.6991
#
#
#
# Elastic Compliance Matrix: (Units=1/GPa)
#
#
# Indices 1 2 3 4 5 6 
#
# 1 0.014224 -0.002612 -0.004236 0.000000 0.000000 0.000000
# 2 -0.002612 0.014224 -0.004236 0.000000 0.000000 0.000000
# 3 -0.004236 -0.004236 0.009523 0.000000 0.000000 0.000000
# 4 0.000000 0.000000 0.000000 0.040970 0.000000 0.000000
# 5 0.000000 0.000000 0.000000 0.000000 0.040971 0.000000
# 6 0.000000 0.000000 0.000000 0.000000 0.000000 0.033671
#
#
# Mechanical properties :
#
#
# Convention : Reuss Voigt Hill
#
# Bulk Modulus (GPa) = 63.28169 70.81446 67.04807
# Shear Modulus (GPa) = 27.62142 28.69494 28.15818
#
# Velocity S-wave (km/s) = 3.88692 3.96173 3.92450
# Velocity P-wave (km/s) = 7.39982 7.72402 7.56366
#
# Compressibility (1/GPa) = 0.01580236
#
# Stress axis : x y z
#
# Youngs Moduli (GPa) = 70.30423 70.30359 105.00763
#
# Poissons Ratio (x) = 0.18362 0.44484
# Poissons Ratio (y) = 0.18362 0.44484
# Poissons Ratio (z) = 0.29783 0.29783
#
# Static dielectric constant tensor:
#      x y z
#    x 3.376490 0.000000 0.000000 
#    y 0.000000 3.376480 0.000000 
#    z 0.000000 0.000000 4.121100 
# 
# 
# High freq. dielectric constant tensor:
#      x y z
#    x 1.703300 0.000000 0.000000 
#    y 0.000000 1.703300 0.000000 
#    z 0.000000 0.000000 1.727020 
# 
# From -- ./inp_files/3395.got.cif
#   From: 2010.03.12/outbox.cif.g09.slc.cpg/sg175_2_cif.got.tgz:3395.got - 2010.04.02 06:55:29.
