data_PCOD8325661
_publ_section_title
;
Structure prediction by ZEFSAII (Michael W. Deem and Ramdas Pophale) SiO2 
 PCOD8325661
Probable space group: P 63/M
;
_chemical_formula_sum "Si O2"
_cell_formula_units_Z 30
_cell_length_a 8.564020
_cell_length_b 8.564020
_cell_length_c 22.045630
_cell_angle_alpha 90.000000
_cell_angle_beta 90.000000
_cell_angle_gamma 120.000000
_cell_volume 1400.259383
_symmetry_space_group_name_H-M "P 63/M"
_symmetry_group_IT_number 176
_symmetry_cell_setting 'hexagonal'
loop_
_space_group_symop_operation_xyz
x,y,z
x-y,x,1/2+z
-y,x-y,z
-x,-y,1/2+z
-x+y,-x,z
y,-x+y,1/2+z
-x,-y,-z
-x+y,-x,1/2-z
y,-x+y,-z
x,y,1/2-z
x-y,x,-z
-y,x-y,1/2-z
loop_
_atom_site_type_symbol
_atom_site_label
_atom_site_fract_x
_atom_site_fract_y
_atom_site_fract_z
Si Si1 0.333335 0.666667 0.418358
Si Si2 0.666668 0.333334 0.062934
Si Si3 0.813264 0.785674 0.250000
Si Si4 0.000000 0.000000 0.429000
Si Si5 0.675220 0.664946 0.378955
O O1 0.333334 0.666667 0.490711
O O2 0.469454 0.605156 0.392815
O O3 0.727013 0.531679 0.087229
O O4 0.707418 0.663031 0.307297
O O5 0.812043 0.976013 0.250000
O O6 0.064421 0.198761 0.404326
O O7 0.000000 0.000000 0.500000
#
# Coordination Sequence:
#
# PCOD8325661 Si02
#       5
#     4   4   6   4  12
#     4  12  27  46  68 106 141 180 235 281 340 414
#     4  12  27  46  68 106 141 180 235 281 340 414
#     4  10  22  44  72  96 140 174 240 274 340 420
#     4  12  21  40  68  97 132 183 223 278 346 396
#     4  12  24  43  71  97 139 183 225 287 340 398
#
# _framework density 21.424602
#
# number of rings (size 3 to 8) (size 9 to 14) (size 15 to 20)
#    0.400    0.000    4.000    6.000    0.000    3.200 
#    0.000    0.000    0.000    0.000    0.000    0.000 
#    0.000    0.000    0.000    0.000    0.000    0.000 
#
# Total GULP energy -372220.575004 kJ/mol
# GULP energy per Si atom -12407.352500 kJ/mol
# Density = 2.137584 g / cm^3
# Si number density = 21.424602 Si / 1000 Ang^3
#
#
#
# Elastic Constant Matrix: (Units=GPa)
#
#
# Indices 1 2 3 4 5 6 
#
# 1 76.2694 14.2263 23.1998 0.0000 0.0000 0.0000
# 2 14.2263 76.2707 23.1980 0.0000 0.0000 -0.0007
# 3 23.1998 23.1980 157.3102 0.0000 0.0000 0.0003
# 4 0.0000 0.0000 0.0000 20.4207 -0.0010 0.0000
# 5 0.0000 0.0000 0.0000 -0.0010 20.4238 0.0000
# 6 0.0000 -0.0007 0.0003 0.0000 0.0000 31.0208
#
#
#
# Elastic Compliance Matrix: (Units=1/GPa)
#
#
# Indices 1 2 3 4 5 6 
#
# 1 0.014036 -0.002082 -0.001763 0.000000 0.000000 0.000000
# 2 -0.002082 0.014036 -0.001763 0.000000 0.000000 0.000000
# 3 -0.001763 -0.001763 0.006877 0.000000 0.000000 0.000000
# 4 0.000000 0.000000 0.000000 0.048970 0.000002 0.000000
# 5 0.000000 0.000000 0.000000 0.000002 0.048962 0.000000
# 6 0.000000 0.000000 0.000000 0.000000 0.000000 0.032236
#
#
# Mechanical properties :
#
#
# Convention : Reuss Voigt Hill
#
# Bulk Modulus (GPa) = 42.13493 47.89986 45.01739
# Shear Modulus (GPa) = 27.13798 30.98815 29.06306
#
# Velocity S-wave (km/s) = 3.56290 3.80726 3.68710
# Velocity P-wave (km/s) = 6.05268 6.46010 6.25971
#
# Compressibility (1/GPa) = 0.02373328
#
# Stress axis : x y z
#
# Youngs Moduli (GPa) = 71.24535 71.24712 145.41606
#
# Poissons Ratio (x) = 0.14832 0.25637
# Poissons Ratio (y) = 0.14832 0.25633
# Poissons Ratio (z) = 0.12561 0.12559
#
# Static dielectric constant tensor:
#      x y z
#    x 3.434900 -0.000080 0.000000 
#    y -0.000080 3.435000 0.000000 
#    z 0.000000 0.000000 3.954350 
# 
# 
# High freq. dielectric constant tensor:
#      x y z
#    x 1.837780 0.000000 0.000000 
#    y 0.000000 1.837780 0.000000 
#    z 0.000000 0.000000 1.858150 
# 
# From -- ./inp_files/3942.got.cif
#   From: 2010.06.25/outbox.cif.g09.slc.cpg/sg176_2_cif.got.tgz:3942.got - 2010.06.28 12:15:01.
