data_PCOD8325905
_publ_section_title
;
Structure prediction by ZEFSAII (Michael W. Deem and Ramdas Pophale) SiO2 
 PCOD8325905
Probable space group: P 61 2 2
;
_chemical_formula_sum "Si O2"
_cell_formula_units_Z 42
_cell_length_a 9.426837
_cell_length_b 9.426837
_cell_length_c 25.010145
_cell_angle_alpha 90.000000
_cell_angle_beta 90.000000
_cell_angle_gamma 120.000000
_cell_volume 1924.769981
_symmetry_space_group_name_H-M "P 61 2 2"
_symmetry_group_IT_number 178
_symmetry_cell_setting 'hexagonal'
loop_
_space_group_symop_operation_xyz
x,y,z
x-y,x,1/6+z
-y,x-y,1/3+z
-x,-y,1/2+z
-x+y,-x,2/3+z
y,-x+y,5/6+z
x-y,-y,-z
-x,-x+y,2/3-z
y,x,1/3-z
-y,-x,5/6-z
-x+y,y,1/2-z
x,x-y,1/6-z
loop_
_atom_site_type_symbol
_atom_site_label
_atom_site_fract_x
_atom_site_fract_y
_atom_site_fract_z
Si Si1 0.688262 0.555174 0.458537
Si Si2 0.506416 0.687758 0.525752
Si Si3 0.273720 0.259236 0.724882
Si Si4 0.461106 0.461106 0.166667
O O1 0.542413 0.457588 0.416667
O O2 0.620718 0.613496 0.508117
O O3 0.760262 0.444755 0.481465
O O4 0.835603 0.710865 0.427085
O O5 0.555970 0.777985 0.583334
O O6 0.549906 0.839708 0.485634
O O7 0.192007 0.192007 0.666667
O O8 0.458450 0.415611 0.718021
O O9 0.161917 0.323833 0.750000
#
# Coordination Sequence:
#
# PCOD8325905 Si02
#       4
#    12  12  12   6
#     4  11  24  44  71 104 141 193 241 296 363 439
#     4  11  24  45  69 106 145 185 243 294 362 437
#     4  10  22  43  70  94 133 186 236 281 349 426
#     4  10  22  42  68  98 136 182 224 288 346 420
#
# _framework density 21.820789999999999
#
# number of rings (size 3 to 8) (size 9 to 14) (size 15 to 20)
#    0.857    0.571    5.714    0.000    8.000    3.429 
#    2.571    0.000    0.000    0.000    0.000    0.000 
#    0.000    0.000    0.000    0.000    0.000    0.000 
#
# Total GULP energy -520445.962889 kJ/mol
# GULP energy per Si atom -12391.570545 kJ/mol
# Density = 2.177113 g / cm^3
# Si number density = 21.820790 Si / 1000 Ang^3
#
#
#
# Elastic Constant Matrix: (Units=GPa)
#
#
# Indices 1 2 3 4 5 6 
#
# 1 126.2452 53.8474 56.5667 0.0000 0.0000 0.0000
# 2 53.8474 126.2452 56.5667 0.0000 0.0000 0.0000
# 3 56.5667 56.5667 95.4396 0.0000 0.0000 0.0000
# 4 0.0000 0.0000 0.0000 37.2443 0.0000 0.0000
# 5 0.0000 0.0000 0.0000 0.0000 37.2443 0.0000
# 6 0.0000 0.0000 0.0000 0.0000 0.0000 36.1989
#
#
#
# Elastic Compliance Matrix: (Units=1/GPa)
#
#
# Indices 1 2 3 4 5 6 
#
# 1 0.011330 -0.002483 -0.005243 0.000000 0.000000 0.000000
# 2 -0.002483 0.011330 -0.005243 0.000000 0.000000 0.000000
# 3 -0.005243 -0.005243 0.016693 0.000000 0.000000 0.000000
# 4 0.000000 0.000000 0.000000 0.026850 0.000000 0.000000
# 5 0.000000 0.000000 0.000000 0.000000 0.026850 0.000000
# 6 0.000000 0.000000 0.000000 0.000000 0.000000 0.027625
#
#
# Mechanical properties :
#
#
# Convention : Reuss Voigt Hill
#
# Bulk Modulus (GPa) = 74.55433 75.76574 75.16004
# Shear Modulus (GPa) = 33.09349 34.20080 33.64714
#
# Velocity S-wave (km/s) = 3.89858 3.96327 3.93106
# Velocity P-wave (km/s) = 7.38282 7.46596 7.42451
#
# Compressibility (1/GPa) = 0.01341304
#
# Stress axis : x y z
#
# Youngs Moduli (GPa) = 88.26478 88.26478 59.90466
#
# Poissons Ratio (x) = 0.21916 0.31410
# Poissons Ratio (y) = 0.21916 0.31410
# Poissons Ratio (z) = 0.46280 0.46280
#
# Static dielectric constant tensor:
#      x y z
#    x 3.847770 0.000000 0.000000 
#    y 0.000000 3.847770 0.000000 
#    z 0.000000 0.000000 4.144460 
# 
# 
# High freq. dielectric constant tensor:
#      x y z
#    x 1.849160 0.000000 0.000000 
#    y 0.000000 1.849160 0.000000 
#    z 0.000000 0.000000 1.850280 
# 
# From -- ./inp_files/9266.got.cif
#   From: 2010.03.12/outbox.cif.g09.slc.cpg/sg178_5_cif.got.tgz:9266.got - 2010.04.02 07:02:38.
