data_PCOD8325026
_publ_section_title
;
Structure prediction by ZEFSAII (Michael W. Deem and Ramdas Pophale) SiO2 
 PCOD8325026
Probable space group: P 6/M
;
_chemical_formula_sum "Si O2"
_cell_formula_units_Z 64
_cell_length_a 14.624080
_cell_length_b 14.624080
_cell_length_c 18.125475
_cell_angle_alpha 90.000000
_cell_angle_beta 90.000000
_cell_angle_gamma 120.000000
_cell_volume 3357.044797
_symmetry_space_group_name_H-M "P 6/M"
_symmetry_group_IT_number 175
_symmetry_cell_setting 'hexagonal'
loop_
_space_group_symop_operation_xyz
x,y,z
x-y,x,z
-y,x-y,z
-x,-y,z
-x+y,-x,z
y,-x+y,z
-x,-y,-z
-x+y,-x,-z
y,-x+y,-z
x,y,-z
x-y,x,-z
-y,x-y,-z
loop_
_atom_site_type_symbol
_atom_site_label
_atom_site_fract_x
_atom_site_fract_y
_atom_site_fract_z
Si Si1 0.238444 0.127503 0.625897
Si Si2 0.551351 0.687155 0.415730
Si Si3 0.862398 0.754597 0.081087
Si Si4 0.666668 0.333334 0.412833
Si Si5 0.180298 0.348161 0.767749
Si Si6 0.607452 0.012512 0.276322
O O1 0.172573 0.181156 0.597161
O O2 0.356105 0.190547 0.591743
O O3 0.244977 0.132499 0.715914
O O4 0.539888 0.648114 0.500000
O O5 0.443267 0.678071 0.384869
O O6 0.582793 0.616063 0.364773
O O7 0.821210 0.835122 0.090678
O O8 0.813538 0.669552 0.145657
O O9 0.831228 0.699224 0.000000
O O10 0.666667 0.333334 0.500000
O O11 0.300025 0.399723 0.738344
O O12 0.118326 0.413688 0.760349
O O13 0.500000 0.000000 0.243795
#
# Coordination Sequence:
#
# PCOD8325026 Si02
#       6
#    12  12  12   4  12  12
#     4  11  21  37  56  83 114 158 196 242 295 364
#     4  10  23  40  61  85 117 152 199 255 312 365
#     4  10  18  30  56  92 130 162 192 236 294 360
#     4   9  21  39  60  87 114 147 190 257 325 372
#     4  11  20  40  60  87 125 153 200 254 298 359
#     4  11  25  41  62  91 117 162 208 252 309 367
#
# _framework density 19.064387
#
# number of rings (size 3 to 8) (size 9 to 14) (size 15 to 20)
#    0.000    1.500    5.625    0.375    5.250    1.875 
#    1.125    1.875    0.000    3.375    0.000    0.000 
#    0.000    0.000    0.000    0.000    0.000    0.000 
#
# Total GULP energy -792994.475713 kJ/mol
# GULP energy per Si atom -12390.538683 kJ/mol
# Density = 1.902100 g / cm^3
# Si number density = 19.064387 Si / 1000 Ang^3
#
#
#
# Elastic Constant Matrix: (Units=GPa)
#
#
# Indices 1 2 3 4 5 6 
#
# 1 128.8256 55.3923 32.4432 0.0000 0.0000 0.0002
# 2 55.3923 128.8259 32.4432 0.0000 0.0000 0.0007
# 3 32.4432 32.4432 116.4359 0.0000 0.0000 0.0000
# 4 0.0000 0.0000 0.0000 15.0167 0.0001 0.0000
# 5 0.0000 0.0000 0.0000 0.0001 15.0168 0.0000
# 6 0.0002 0.0007 0.0000 0.0000 0.0000 36.7167
#
#
#
# Elastic Compliance Matrix: (Units=1/GPa)
#
#
# Indices 1 2 3 4 5 6 
#
# 1 0.009818 -0.003799 -0.001677 0.000000 0.000000 0.000000
# 2 -0.003799 0.009818 -0.001677 0.000000 0.000000 0.000000
# 3 -0.001677 -0.001677 0.009523 0.000000 0.000000 0.000000
# 4 0.000000 0.000000 0.000000 0.066593 0.000000 0.000000
# 5 0.000000 0.000000 0.000000 0.000000 0.066592 0.000000
# 6 0.000000 0.000000 0.000000 0.000000 0.000000 0.027236
#
#
# Mechanical properties :
#
#
# Convention : Reuss Voigt Hill
#
# Bulk Modulus (GPa) = 67.32796 68.29387 67.81092
# Shear Modulus (GPa) = 23.94196 30.27061 27.10628
#
# Velocity S-wave (km/s) = 3.54764 3.98906 3.77480
# Velocity P-wave (km/s) = 7.22314 7.55760 7.39226
#
# Compressibility (1/GPa) = 0.01485267
#
# Stress axis : x y z
#
# Youngs Moduli (GPa) = 101.84918 101.84947 105.00857
#
# Poissons Ratio (x) = 0.38696 0.17611
# Poissons Ratio (y) = 0.38696 0.17611
# Poissons Ratio (z) = 0.17081 0.17081
#
# Static dielectric constant tensor:
#      x y z
#    x 3.515500 0.000000 0.000000 
#    y 0.000000 3.515490 0.000000 
#    z 0.000000 0.000000 3.624390 
# 
# 
# High freq. dielectric constant tensor:
#      x y z
#    x 1.732690 0.000000 0.000000 
#    y 0.000000 1.732690 0.000000 
#    z 0.000000 0.000000 1.724740 
# 
# From -- ./inp_files/2817.got.cif
#   From: 2010.03.12/outbox.cif.g09.slc.cpg/sg175_2_cif.got.tgz:2817.got - 2010.04.02 06:55:29.
