data_PCOD8325615
_publ_section_title
;
Structure prediction by ZEFSAII (Michael W. Deem and Ramdas Pophale) SiO2 
 PCOD8325615
Probable space group: P 63/M
;
_chemical_formula_sum "Si O2"
_cell_formula_units_Z 52
_cell_length_a 15.947668
_cell_length_b 15.947668
_cell_length_c 12.909907
_cell_angle_alpha 90.000000
_cell_angle_beta 90.000000
_cell_angle_gamma 120.000000
_cell_volume 2843.466508
_symmetry_space_group_name_H-M "P 63/M"
_symmetry_group_IT_number 176
_symmetry_cell_setting 'hexagonal'
loop_
_space_group_symop_operation_xyz
x,y,z
x-y,x,1/2+z
-y,x-y,z
-x,-y,1/2+z
-x+y,-x,z
y,-x+y,1/2+z
-x,-y,-z
-x+y,-x,1/2-z
y,-x+y,-z
x,y,1/2-z
x-y,x,-z
-y,x-y,1/2-z
loop_
_atom_site_type_symbol
_atom_site_label
_atom_site_fract_x
_atom_site_fract_y
_atom_site_fract_z
Si Si1 0.704437 0.703272 0.495096
Si Si2 0.219088 0.108484 0.872575
Si Si3 0.000000 0.000000 0.370546
Si Si4 0.353752 0.484205 0.630896
Si Si5 0.313674 0.848862 0.631154
O O1 0.748311 0.782204 0.404079
O O2 0.787943 0.713130 0.571741
O O3 0.652350 0.598785 0.442824
O O4 0.628296 0.718116 0.560987
O O5 0.230182 0.104125 0.750000
O O6 0.108706 0.038730 0.910279
O O7 0.000000 0.000000 0.250000
O O8 0.360197 0.457713 0.750000
O O9 0.263435 0.500521 0.614621
O O10 0.448910 0.582163 0.597140
O O11 0.314618 0.879595 0.750000
#
# Coordination Sequence:
#
# PCOD8325615 Si02
#       5
#    12  12   4  12  12
#     4  12  21  37  56  86 116 150 190 233 295 348
#     4  11  23  37  56  84 121 160 199 242 282 337
#     4   9  21  37  53  76 115 167 202 229 269 316
#     4  10  21  38  60  85 111 143 188 239 286 340
#     4  10  21  38  60  85 111 143 188 239 286 340
#
# _framework density 18.287538000000001
#
# number of rings (size 3 to 8) (size 9 to 14) (size 15 to 20)
#    0.000    1.385    2.308    3.923    0.000    2.769 
#    0.000    0.000    0.000    0.000    0.000    0.000 
#    0.000    0.000    0.000    0.000    0.000    0.000 
#
# Total GULP energy -644987.947237 kJ/mol
# GULP energy per Si atom -12403.614370 kJ/mol
# Density = 1.824591 g / cm^3
# Si number density = 18.287538 Si / 1000 Ang^3
#
#
#
# Elastic Constant Matrix: (Units=GPa)
#
#
# Indices 1 2 3 4 5 6 
#
# 1 76.0953 5.5746 23.9638 0.0000 0.0000 0.0000
# 2 5.5746 76.0953 23.9638 0.0000 0.0000 0.0000
# 3 23.9638 23.9638 81.6938 0.0000 0.0000 0.0000
# 4 0.0000 0.0000 0.0000 29.4419 0.0000 0.0000
# 5 0.0000 0.0000 0.0000 0.0000 29.4419 0.0000
# 6 0.0000 0.0000 0.0000 0.0000 0.0000 35.2604
#
#
#
# Elastic Compliance Matrix: (Units=1/GPa)
#
#
# Indices 1 2 3 4 5 6 
#
# 1 0.014485 0.000305 -0.004339 0.000000 0.000000 0.000000
# 2 0.000305 0.014485 -0.004339 0.000000 0.000000 0.000000
# 3 -0.004339 -0.004339 0.014786 0.000000 0.000000 0.000000
# 4 0.000000 0.000000 0.000000 0.033965 0.000000 0.000000
# 5 0.000000 0.000000 0.000000 0.000000 0.033965 0.000000
# 6 0.000000 0.000000 0.000000 0.000000 0.000000 0.028360
#
#
# Mechanical properties :
#
#
# Convention : Reuss Voigt Hill
#
# Bulk Modulus (GPa) = 37.01953 37.87655 37.44804
# Shear Modulus (GPa) = 30.15751 30.85431 30.50591
#
# Velocity S-wave (km/s) = 4.06529 4.11198 4.08870
# Velocity P-wave (km/s) = 6.50556 6.58036 6.54307
#
# Compressibility (1/GPa) = 0.02701277
#
# Stress axis : x y z
#
# Youngs Moduli (GPa) = 69.03519 69.03519 67.63078
#
# Poissons Ratio (x) = -0.02107 0.29342
# Poissons Ratio (y) = -0.02107 0.29342
# Poissons Ratio (z) = 0.29952 0.29952
#
# Static dielectric constant tensor:
#      x y z
#    x 3.447430 0.000000 0.000000 
#    y 0.000000 3.447430 0.000000 
#    z 0.000000 0.000000 3.393940 
# 
# 
# High freq. dielectric constant tensor:
#      x y z
#    x 1.713350 0.000000 0.000000 
#    y 0.000000 1.713350 0.000000 
#    z 0.000000 0.000000 1.714550 
# 
# From -- ./inp_files/2545.got.cif
#   From: 2010.06.25/outbox.cif.g09.slc.cpg/sg176_2_cif.got.tgz:2545.got - 2010.06.28 12:15:01.
