data_PCOD8325191
_publ_section_title
;
Structure prediction by ZEFSAII (Michael W. Deem and Ramdas Pophale) SiO2 
 PCOD8325191
Probable space group: P 6/M
;
_chemical_formula_sum "Si O2"
_cell_formula_units_Z 84
_cell_length_a 20.197736
_cell_length_b 20.197736
_cell_length_c 13.960037
_cell_angle_alpha 90.000000
_cell_angle_beta 90.000000
_cell_angle_gamma 120.000000
_cell_volume 4931.994501
_symmetry_space_group_name_H-M "P 6/M"
_symmetry_group_IT_number 175
_symmetry_cell_setting 'hexagonal'
loop_
_space_group_symop_operation_xyz
x,y,z
x-y,x,z
-y,x-y,z
-x,-y,z
-x+y,-x,z
y,-x+y,z
-x,-y,-z
-x+y,-x,-z
y,-x+y,-z
x,y,-z
x-y,x,-z
-y,x-y,-z
loop_
_atom_site_type_symbol
_atom_site_label
_atom_site_fract_x
_atom_site_fract_y
_atom_site_fract_z
Si Si1 0.873256 0.044756 0.609272
Si Si2 0.708256 0.933040 0.887762
Si Si3 0.828935 0.537266 0.229237
Si Si4 0.088695 0.285579 0.222307
Si Si5 0.325065 0.746640 0.391550
Si Si6 0.532748 0.832453 0.109707
Si Si7 0.440544 0.915773 0.888189
O O1 0.858937 0.961219 0.631055
O O2 0.851872 0.052284 0.500000
O O3 0.820397 0.061385 0.678226
O O4 0.736194 0.880421 0.835182
O O5 0.618521 0.899917 0.868979
O O6 0.752058 0.017917 0.846309
O O7 0.726636 0.935540 0.000000
O O8 0.867547 0.626241 0.252843
O O9 0.808640 0.488332 0.325815
O O10 0.750944 0.508115 0.171009
O O11 0.888451 0.525906 0.167072
O O12 0.254911 0.659261 0.374366
O O13 0.322311 0.771790 0.500000
O O14 0.473784 0.860479 0.135491
O O15 0.525553 0.807070 0.000000
O O16 0.500000 0.000000 0.851394
O O17 0.423830 0.917127 0.000000
#
# Coordination Sequence:
#
# PCOD8325191 Si02
#       7
#    12  12  12  12  12  12  12
#     4  10  20  37  60  81 104 132 166 214 270 317
#     4  10  20  35  52  73 105 144 181 216 257 308
#     4  11  20  31  53  79 104 136 177 217 265 309
#     4  11  21  33  53  78 106 139 177 217 257 314
#     4   8  17  34  55  76 100 132 170 216 269 317
#     4   9  19  33  49  74 105 136 178 221 260 307
#     4  10  20  34  51  73 105 144 179 214 261 314
#
# _framework density 17.031648000000001
#
# number of rings (size 3 to 8) (size 9 to 14) (size 15 to 20)
#    0.286    1.857    1.429    2.714    0.000    4.000 
#    0.857    0.000    0.000    0.429    0.000    2.000 
#    0.000    0.000    0.000    0.000    0.000    0.000 
#
# Total GULP energy -1041618.633577 kJ/mol
# GULP energy per Si atom -12400.221828 kJ/mol
# Density = 1.699288 g / cm^3
# Si number density = 17.031648 Si / 1000 Ang^3
#
#
#
# Elastic Constant Matrix: (Units=GPa)
#
#
# Indices 1 2 3 4 5 6 
#
# 1 68.0596 25.3080 37.7685 0.0000 0.0000 0.0000
# 2 25.3080 68.0596 37.7685 0.0000 0.0000 0.0000
# 3 37.7685 37.7685 83.7315 0.0000 0.0000 0.0000
# 4 0.0000 0.0000 0.0000 24.7359 0.0000 0.0000
# 5 0.0000 0.0000 0.0000 0.0000 24.7359 0.0000
# 6 0.0000 0.0000 0.0000 0.0000 0.0000 21.3758
#
#
#
# Elastic Compliance Matrix: (Units=1/GPa)
#
#
# Indices 1 2 3 4 5 6 
#
# 1 0.020128 -0.003263 -0.007607 0.000000 0.000000 0.000000
# 2 -0.003263 0.020128 -0.007607 0.000000 0.000000 0.000000
# 3 -0.007607 -0.007607 0.018806 0.000000 0.000000 0.000000
# 4 0.000000 0.000000 0.000000 0.040427 0.000000 0.000000
# 5 0.000000 0.000000 0.000000 0.000000 0.040427 0.000000
# 6 0.000000 0.000000 0.000000 0.000000 0.000000 0.046782
#
#
# Mechanical properties :
#
#
# Convention : Reuss Voigt Hill
#
# Bulk Modulus (GPa) = 45.23547 46.83787 46.03667
# Shear Modulus (GPa) = 21.64310 22.10325 21.87317
#
# Velocity S-wave (km/s) = 3.56864 3.60637 3.58755
# Velocity P-wave (km/s) = 6.60284 6.70085 6.65203
#
# Compressibility (1/GPa) = 0.02210655
#
# Stress axis : x y z
#
# Youngs Moduli (GPa) = 49.68251 49.68251 53.17578
#
# Poissons Ratio (x) = 0.16212 0.40451
# Poissons Ratio (y) = 0.16212 0.40451
# Poissons Ratio (z) = 0.37794 0.37794
#
# Static dielectric constant tensor:
#      x y z
#    x 3.142970 0.000000 0.000000 
#    y 0.000000 3.142970 0.000000 
#    z 0.000000 0.000000 3.104790 
# 
# 
# High freq. dielectric constant tensor:
#      x y z
#    x 1.657210 0.000000 0.000000 
#    y 0.000000 1.657210 0.000000 
#    z 0.000000 0.000000 1.653820 
# 
# From -- ./inp_files/2623.got.cif
#   From: 2010.03.12/outbox.cif.g09.slc.cpg/sg175_2_cif.got.tgz:2623.got - 2010.04.02 06:55:29.
