data_PCOD8325364
_publ_section_title
;
Structure prediction by ZEFSAII (Michael W. Deem and Ramdas Pophale) SiO2 
 PCOD8325364
Probable space group: P 6/M
;
_chemical_formula_sum "Si O2"
_cell_formula_units_Z 84
_cell_length_a 17.749085
_cell_length_b 17.749085
_cell_length_c 14.591057
_cell_angle_alpha 90.000000
_cell_angle_beta 90.000000
_cell_angle_gamma 120.000000
_cell_volume 3980.790518
_symmetry_space_group_name_H-M "P 6/M"
_symmetry_group_IT_number 175
_symmetry_cell_setting 'hexagonal'
loop_
_space_group_symop_operation_xyz
x,y,z
x-y,x,z
-y,x-y,z
-x,-y,z
-x+y,-x,z
y,-x+y,z
-x,-y,-z
-x+y,-x,-z
y,-x+y,-z
x,y,-z
x-y,x,-z
-y,x-y,-z
loop_
_atom_site_type_symbol
_atom_site_label
_atom_site_fract_x
_atom_site_fract_y
_atom_site_fract_z
Si Si1 0.674573 0.927583 0.204975
Si Si2 0.825975 0.341117 0.601126
Si Si3 0.167446 0.499474 0.864254
Si Si4 0.166472 0.487310 0.660182
Si Si5 0.161551 0.666455 0.101566
Si Si6 0.988949 0.332155 0.602443
Si Si7 0.095371 0.311910 0.100811
O O1 0.577308 0.904618 0.173642
O O2 0.694371 0.957804 0.312224
O O3 0.683474 0.844111 0.180706
O O4 0.748148 0.000588 0.141361
O O5 0.790972 0.305962 0.500000
O O6 0.772535 0.255593 0.664295
O O7 0.808362 0.419152 0.620429
O O8 0.928936 0.376649 0.609703
O O9 0.131596 0.480940 0.761498
O O10 0.145744 0.569823 0.904824
O O11 0.270226 0.532222 0.870002
O O12 0.112947 0.409158 0.917501
O O13 0.089982 0.406327 0.606078
O O14 0.145013 0.693033 0.000000
O O15 0.975008 0.287822 0.500000
O O16 0.103422 0.276362 0.000000
#
# Coordination Sequence:
#
# PCOD8325364 Si02
#       7
#    12  12  12  12  12  12  12
#     4  11  23  42  63  92 121 160 203 253 309 376
#     4  11  23  37  58  83 116 162 218 268 317 367
#     4  11  21  35  55  83 120 164 209 260 307 362
#     4  12  22  40  58  87 119 162 213 267 317 370
#     4  11  22  37  57  85 123 165 215 263 314 367
#     4  11  24  41  61  86 123 167 207 257 316 373
#     4  11  22  41  65  91 122 158 201 251 312 374
#
# _framework density 21.101336
#
# number of rings (size 3 to 8) (size 9 to 14) (size 15 to 20)
#    0.000    0.857    1.429    9.143    0.000    1.714 
#    0.000    1.429    0.000    0.286    0.000    1.000 
#    0.000    0.000    0.000    1.286    0.000    0.286 
#
# Total GULP energy -1041096.304811 kJ/mol
# GULP energy per Si atom -12394.003629 kJ/mol
# Density = 2.105331 g / cm^3
# Si number density = 21.101336 Si / 1000 Ang^3
#
#
#
# Elastic Constant Matrix: (Units=GPa)
#
#
# Indices 1 2 3 4 5 6 
#
# 1 68.1554 33.9050 18.4117 0.0000 0.0000 0.0000
# 2 33.9050 68.1554 18.4117 0.0000 0.0000 0.0000
# 3 18.4117 18.4117 156.1620 0.0000 0.0000 0.0000
# 4 0.0000 0.0000 0.0000 23.8231 0.0000 0.0000
# 5 0.0000 0.0000 0.0000 0.0000 23.8231 0.0000
# 6 0.0000 0.0000 0.0000 0.0000 0.0000 17.1252
#
#
#
# Elastic Compliance Matrix: (Units=1/GPa)
#
#
# Indices 1 2 3 4 5 6 
#
# 1 0.019715 -0.009482 -0.001207 0.000000 0.000000 0.000000
# 2 -0.009482 0.019715 -0.001207 0.000000 0.000000 0.000000
# 3 -0.001207 -0.001207 0.006688 0.000000 0.000000 0.000000
# 4 0.000000 0.000000 0.000000 0.041976 0.000000 0.000000
# 5 0.000000 0.000000 0.000000 0.000000 0.041976 0.000000
# 6 0.000000 0.000000 0.000000 0.000000 0.000000 0.058393
#
#
# Mechanical properties :
#
#
# Convention : Reuss Voigt Hill
#
# Bulk Modulus (GPa) = 44.78512 48.21441 46.49977
# Shear Modulus (GPa) = 22.75872 27.73727 25.24800
#
# Velocity S-wave (km/s) = 3.28768 3.62951 3.46282
# Velocity P-wave (km/s) = 5.97342 6.36106 6.17028
#
# Compressibility (1/GPa) = 0.02232884
#
# Stress axis : x y z
#
# Youngs Moduli (GPa) = 50.72262 50.72262 149.51906
#
# Poissons Ratio (x) = 0.48093 0.18040
# Poissons Ratio (y) = 0.48093 0.18040
# Poissons Ratio (z) = 0.06120 0.06120
#
# Static dielectric constant tensor:
#      x y z
#    x 3.577950 0.000000 0.000000 
#    y 0.000000 3.577950 0.000000 
#    z 0.000000 0.000000 4.201770 
# 
# 
# High freq. dielectric constant tensor:
#      x y z
#    x 1.798340 0.000000 0.000000 
#    y 0.000000 1.798340 0.000000 
#    z 0.000000 0.000000 1.855890 
# 
# From -- ./inp_files/2619.got.cif
#   From: 2010.03.12/outbox.cif.g09.slc.cpg/sg175_2_cif.got.tgz:2619.got - 2010.04.02 06:55:29.
