data_PCOD8325042
_publ_section_title
;
Structure prediction by ZEFSAII (Michael W. Deem and Ramdas Pophale) SiO2 
 PCOD8325042
Probable space group: P 6/M
;
_chemical_formula_sum "Si O2"
_cell_formula_units_Z 72
_cell_length_a 22.590996
_cell_length_b 22.590996
_cell_length_c 9.028293
_cell_angle_alpha 90.000000
_cell_angle_beta 90.000000
_cell_angle_gamma 120.000000
_cell_volume 3990.313652
_symmetry_space_group_name_H-M "P 6/M"
_symmetry_group_IT_number 175
_symmetry_cell_setting 'hexagonal'
loop_
_space_group_symop_operation_xyz
x,y,z
x-y,x,z
-y,x-y,z
-x,-y,z
-x+y,-x,z
y,-x+y,z
-x,-y,-z
-x+y,-x,-z
y,-x+y,-z
x,y,-z
x-y,x,-z
-y,x-y,-z
loop_
_atom_site_type_symbol
_atom_site_label
_atom_site_fract_x
_atom_site_fract_y
_atom_site_fract_z
Si Si1 0.140523 0.292642 0.824253
Si Si2 0.387647 0.389236 0.826007
Si Si3 0.743055 0.993406 0.823644
Si Si4 0.447608 0.213631 0.170439
Si Si5 0.871919 0.375830 0.674594
Si Si6 0.142875 0.513206 0.168974
O O1 0.181462 0.255082 0.765464
O O2 0.179116 0.371637 0.774687
O O3 0.062905 0.254871 0.760202
O O4 0.137114 0.289171 0.000000
O O5 0.315305 0.327426 0.769431
O O6 0.405407 0.458368 0.742333
O O7 0.445618 0.371652 0.783330
O O8 0.385546 0.401128 0.000000
O O9 0.744657 0.996172 0.000000
O O10 0.476519 0.177201 0.273053
O O11 0.498240 0.293825 0.188748
O O12 0.444764 0.190387 0.000000
O O13 0.876768 0.377535 0.500000
O O14 0.841775 0.423403 0.727331
O O15 0.137766 0.532776 0.000000
#
# Coordination Sequence:
#
# PCOD8325042 Si02
#       6
#    12  12  12  12  12  12
#     4   9  15  26  49  80 108 133 170 222 269 309
#     4  10  18  33  58  82 103 133 178 229 270 312
#     4   9  15  25  48  80 109 134 169 219 269 311
#     4  10  19  36  60  79  98 132 185 238 273 309
#     4  12  25  37  51  76 113 148 174 207 273 339
#     4  10  21  37  59  82 101 131 184 234 274 314
#
# _framework density 18.043693000000001
#
# number of rings (size 3 to 8) (size 9 to 14) (size 15 to 20)
#    0.000    2.000    3.333    2.000    0.000    3.333 
#    1.000    0.000    0.000    0.333    0.000    2.333 
#    0.000    0.000    0.000    0.000    0.000    1.667 
#
# Total GULP energy -892778.223964 kJ/mol
# GULP energy per Si atom -12399.697555 kJ/mol
# Density = 1.800263 g / cm^3
# Si number density = 18.043693 Si / 1000 Ang^3
#
#
#
# Elastic Constant Matrix: (Units=GPa)
#
#
# Indices 1 2 3 4 5 6 
#
# 1 93.1125 31.2984 26.7035 0.0000 0.0000 0.0000
# 2 31.2984 93.1125 26.7035 0.0000 0.0000 0.0000
# 3 26.7035 26.7035 50.3525 0.0000 0.0000 0.0000
# 4 0.0000 0.0000 0.0000 5.1152 0.0000 0.0000
# 5 0.0000 0.0000 0.0000 0.0000 5.1152 0.0000
# 6 0.0000 0.0000 0.0000 0.0000 0.0000 30.9070
#
#
#
# Elastic Compliance Matrix: (Units=1/GPa)
#
#
# Indices 1 2 3 4 5 6 
#
# 1 0.013292 -0.002885 -0.005519 0.000000 0.000000 0.000000
# 2 -0.002885 0.013292 -0.005519 0.000000 0.000000 0.000000
# 3 -0.005519 -0.005519 0.025714 0.000000 0.000000 0.000000
# 4 0.000000 0.000000 0.000000 0.195496 0.000000 0.000000
# 5 0.000000 0.000000 0.000000 0.000000 0.195496 0.000000
# 6 0.000000 0.000000 0.000000 0.000000 0.000000 0.032355
#
#
# Mechanical properties :
#
#
# Convention : Reuss Voigt Hill
#
# Bulk Modulus (GPa) = 40.89744 45.10979 43.00362
# Shear Modulus (GPa) = 9.77241 18.35229 14.06235
#
# Velocity S-wave (km/s) = 2.32975 3.19266 2.79471
# Velocity P-wave (km/s) = 5.47284 6.21654 5.85651
#
# Compressibility (1/GPa) = 0.02445141
#
# Stress axis : x y z
#
# Youngs Moduli (GPa) = 75.23118 75.23118 38.88929
#
# Poissons Ratio (x) = 0.21706 0.21464
# Poissons Ratio (y) = 0.21706 0.21464
# Poissons Ratio (z) = 0.41522 0.41522
#
# Static dielectric constant tensor:
#      x y z
#    x 3.527880 0.000000 0.000000 
#    y 0.000000 3.527880 0.000000 
#    z 0.000000 0.000000 2.887160 
# 
# 
# High freq. dielectric constant tensor:
#      x y z
#    x 1.701850 0.000000 0.000000 
#    y 0.000000 1.701850 0.000000 
#    z 0.000000 0.000000 1.648600 
# 
# From -- ./inp_files/1210.got.cif
#   From: 2010.03.12/outbox.cif.g09.slc.cpg/sg175_1_cif.got.tgz:1210.got - 2010.04.02 06:55:29.
