data_PCOD8325235
_publ_section_title
;
Structure prediction by ZEFSAII (Michael W. Deem and Ramdas Pophale) SiO2 
 PCOD8325235
Probable space group: P 6/M
;
_chemical_formula_sum "Si O2"
_cell_formula_units_Z 66
_cell_length_a 21.291637
_cell_length_b 21.291637
_cell_length_c 7.893385
_cell_angle_alpha 90.000000
_cell_angle_beta 90.000000
_cell_angle_gamma 120.000000
_cell_volume 3098.931841
_symmetry_space_group_name_H-M "P 6/M"
_symmetry_group_IT_number 175
_symmetry_cell_setting 'hexagonal'
loop_
_space_group_symop_operation_xyz
x,y,z
x-y,x,z
-y,x-y,z
-x,-y,z
-x+y,-x,z
y,-x+y,z
-x,-y,-z
-x+y,-x,-z
y,-x+y,-z
x,y,-z
x-y,x,-z
-y,x-y,-z
loop_
_atom_site_type_symbol
_atom_site_label
_atom_site_fract_x
_atom_site_fract_y
_atom_site_fract_z
Si Si1 0.397210 0.505853 0.809570
Si Si2 0.651986 0.993018 0.809618
Si Si3 0.810680 0.714673 0.695640
Si Si4 0.349892 0.878533 0.688393
Si Si5 0.450438 0.202631 0.693671
Si Si6 0.894140 0.824989 0.000000
O O1 0.381846 0.429362 0.730374
O O2 0.458616 0.571856 0.706005
O O3 0.319224 0.500479 0.803715
O O4 0.426796 0.516189 0.000000
O O5 0.673500 0.076345 0.810559
O O6 0.707829 0.976820 0.706824
O O7 0.650206 0.965284 0.000000
O O8 0.839091 0.736040 0.500000
O O9 0.797546 0.634925 0.747450
O O10 0.865712 0.775172 0.829231
O O11 0.343072 0.902458 0.500000
O O12 0.288601 0.796412 0.722714
O O13 0.453331 0.181684 0.500000
O O14 0.866552 0.884005 0.000000
#
# Coordination Sequence:
#
# PCOD8325235 Si02
#       6
#    12  12  12  12  12   6
#     4  10  21  37  54  81 118 163 204 257 320 379
#     4  10  20  36  60  92 130 162 207 263 322 381
#     4  10  22  43  71 102 134 170 215 271 331 386
#     4  11  22  35  57  87 120 163 213 263 317 382
#     4   9  21  39  59  85 121 164 216 272 322 382
#     4  12  29  50  74 104 137 179 215 259 317 399
#
# _framework density 21.297661000000002
#
# number of rings (size 3 to 8) (size 9 to 14) (size 15 to 20)
#    0.000    1.818    0.909    2.273    3.818    6.545 
#    1.091    0.000    0.000    1.091    0.000    0.000 
#    0.000    0.000    0.000    0.000    0.000    0.000 
#
# Total GULP energy -817785.243592 kJ/mol
# GULP energy per Si atom -12390.685509 kJ/mol
# Density = 2.124919 g / cm^3
# Si number density = 21.297661 Si / 1000 Ang^3
#
#
#
# Elastic Constant Matrix: (Units=GPa)
#
#
# Indices 1 2 3 4 5 6 
#
# 1 61.7301 19.5425 26.7826 0.0000 0.0000 0.0000
# 2 19.5425 61.7301 26.7826 0.0000 0.0000 0.0000
# 3 26.7826 26.7826 73.8669 0.0000 0.0000 0.0000
# 4 0.0000 0.0000 0.0000 27.5876 0.0000 0.0000
# 5 0.0000 0.0000 0.0000 0.0000 27.5876 0.0000
# 6 0.0000 0.0000 0.0000 0.0000 0.0000 21.0938
#
#
#
# Elastic Compliance Matrix: (Units=1/GPa)
#
#
# Indices 1 2 3 4 5 6 
#
# 1 0.019936 -0.003768 -0.005862 0.000000 0.000000 0.000000
# 2 -0.003768 0.019936 -0.005862 0.000000 0.000000 0.000000
# 3 -0.005862 -0.005862 0.017789 0.000000 0.000000 0.000000
# 4 0.000000 0.000000 0.000000 0.036248 0.000000 0.000000
# 5 0.000000 0.000000 0.000000 0.000000 0.036248 0.000000
# 6 0.000000 0.000000 0.000000 0.000000 0.000000 0.047407
#
#
# Mechanical properties :
#
#
# Convention : Reuss Voigt Hill
#
# Bulk Modulus (GPa) = 37.48677 38.17138 37.82908
# Shear Modulus (GPa) = 22.99481 23.53510 23.26496
#
# Velocity S-wave (km/s) = 3.28942 3.32784 3.30869
# Velocity P-wave (km/s) = 5.66274 5.72082 5.69186
#
# Compressibility (1/GPa) = 0.02667607
#
# Stress axis : x y z
#
# Youngs Moduli (GPa) = 50.16106 50.16106 56.21500
#
# Poissons Ratio (x) = 0.18900 0.32954
# Poissons Ratio (y) = 0.18900 0.32954
# Poissons Ratio (z) = 0.29405 0.29405
#
# Static dielectric constant tensor:
#      x y z
#    x 3.773590 0.000000 0.000000 
#    y 0.000000 3.773590 0.000000 
#    z 0.000000 0.000000 3.812800 
# 
# 
# High freq. dielectric constant tensor:
#      x y z
#    x 1.824580 0.000000 0.000000 
#    y 0.000000 1.824580 0.000000 
#    z 0.000000 0.000000 1.837620 
# 
# From -- ./inp_files/1005.got.cif
#   From: 2010.03.12/outbox.cif.g09.slc.cpg/sg175_1_cif.got.tgz:1005.got - 2010.04.02 06:55:29.
