data_PCOD8325643
_publ_section_title
;
Structure prediction by ZEFSAII (Michael W. Deem and Ramdas Pophale) SiO2 
 PCOD8325643
Probable space group: P 63/M
;
_chemical_formula_sum "Si O2"
_cell_formula_units_Z 72
_cell_length_a 15.696516
_cell_length_b 15.696516
_cell_length_c 17.948216
_cell_angle_alpha 90.000000
_cell_angle_beta 90.000000
_cell_angle_gamma 120.000000
_cell_volume 3829.644432
_symmetry_space_group_name_H-M "P 63/M"
_symmetry_group_IT_number 176
_symmetry_cell_setting 'hexagonal'
loop_
_space_group_symop_operation_xyz
x,y,z
x-y,x,1/2+z
-y,x-y,z
-x,-y,1/2+z
-x+y,-x,z
y,-x+y,1/2+z
-x,-y,-z
-x+y,-x,1/2-z
y,-x+y,-z
x,y,1/2-z
x-y,x,-z
-y,x-y,1/2-z
loop_
_atom_site_type_symbol
_atom_site_label
_atom_site_fract_x
_atom_site_fract_y
_atom_site_fract_z
Si Si1 0.192646 0.000033 0.416611
Si Si2 0.098152 0.707577 0.836176
Si Si3 0.098152 0.390575 0.836176
Si Si4 0.498800 0.501200 0.587747
Si Si5 0.603849 0.396151 0.664526
Si Si6 0.999967 0.807354 0.083389
O O1 0.232777 1.000000 0.500000
O O2 0.106328 0.893672 0.392913
O O3 0.276861 0.028937 0.356051
O O4 0.152081 0.076040 0.415727
O O5 0.083595 0.677592 0.750000
O O6 0.211992 0.788007 0.853469
O O7 0.064662 0.612442 0.885446
O O8 0.083595 0.406003 0.750000
O O9 0.064662 0.452220 0.885446
O O10 0.028937 0.276861 0.856051
O O11 0.500000 0.500000 0.500000
O O12 0.555348 0.444652 0.614594
O O13 0.555320 0.277660 0.649425
O O14 0.586210 0.413790 0.750000
#
# Coordination Sequence:
#
# PCOD8325643 Si02
#       6
#    12  12  12  12  12  12
#     4   9  17  31  53  82 116 151 186 226 273 327
#     4  10  22  39  55  77 112 149 191 239 279 333
#     4  10  22  39  55  77 112 149 191 239 279 333
#     4  12  24  38  62  88 114 150 188 238 299 352
#     4   8  18  38  62  88 118 148 186 244 300 350
#     4   9  17  31  53  82 116 151 186 226 273 327
#
# _framework density 18.800702000000001
#
# number of rings (size 3 to 8) (size 9 to 14) (size 15 to 20)
#    0.333    2.000    0.000    2.833    0.000    4.667 
#    1.000    0.000    0.000    2.000    0.000    0.000 
#    0.000    0.000    0.000    0.000    0.000    0.000 
#
# Total GULP energy -892550.128294 kJ/mol
# GULP energy per Si atom -12396.529560 kJ/mol
# Density = 1.875791 g / cm^3
# Si number density = 18.800702 Si / 1000 Ang^3
#
#
#
# Elastic Constant Matrix: (Units=GPa)
#
#
# Indices 1 2 3 4 5 6 
#
# 1 111.0244 60.9733 69.1715 0.0000 0.0000 0.0000
# 2 60.9733 111.0244 69.1715 0.0000 0.0000 0.0000
# 3 69.1715 69.1715 135.9017 0.0000 0.0000 0.0000
# 4 0.0000 0.0000 0.0000 28.1142 0.0000 0.0000
# 5 0.0000 0.0000 0.0000 0.0000 28.1142 0.0000
# 6 0.0000 0.0000 0.0000 0.0000 0.0000 25.0255
#
#
#
# Elastic Compliance Matrix: (Units=1/GPa)
#
#
# Indices 1 2 3 4 5 6 
#
# 1 0.014912 -0.005068 -0.005010 0.000000 0.000000 0.000000
# 2 -0.005068 0.014912 -0.005010 0.000000 0.000000 0.000000
# 3 -0.005010 -0.005010 0.012459 0.000000 0.000000 0.000000
# 4 0.000000 0.000000 0.000000 0.035569 0.000000 0.000000
# 5 0.000000 0.000000 0.000000 0.000000 0.035569 0.000000
# 6 0.000000 0.000000 0.000000 0.000000 0.000000 0.039959
#
#
# Mechanical properties :
#
#
# Convention : Reuss Voigt Hill
#
# Bulk Modulus (GPa) = 82.61007 84.06482 83.33745
# Shear Modulus (GPa) = 26.65353 26.82640 26.73996
#
# Velocity S-wave (km/s) = 3.76930 3.78151 3.77541
# Velocity P-wave (km/s) = 7.93592 7.99232 7.96417
#
# Compressibility (1/GPa) = 0.01210506
#
# Stress axis : x y z
#
# Youngs Moduli (GPa) = 67.06077 67.06077 80.26495
#
# Poissons Ratio (x) = 0.33985 0.40217
# Poissons Ratio (y) = 0.33985 0.40217
# Poissons Ratio (z) = 0.33601 0.33601
#
# Static dielectric constant tensor:
#      x y z
#    x 3.559350 0.000000 0.000000 
#    y 0.000000 3.559350 0.000000 
#    z 0.000000 0.000000 3.417390 
# 
# 
# High freq. dielectric constant tensor:
#      x y z
#    x 1.727610 0.000000 0.000000 
#    y 0.000000 1.727610 0.000000 
#    z 0.000000 0.000000 1.731760 
# 
# From -- ./inp_files/3371.got.cif
#   From: 2010.06.25/outbox.cif.g09.slc.cpg/sg176_2_cif.got.tgz:3371.got - 2010.06.28 12:15:01.
