data_PCOD8325967
_publ_section_title
;
Structure prediction by ZEFSAII (Michael W. Deem and Ramdas Pophale) SiO2 
 PCOD8325967
Probable space group: P 61 2 2
;
_chemical_formula_sum "Si O2"
_cell_formula_units_Z 48
_cell_length_a 14.025322
_cell_length_b 14.025322
_cell_length_c 13.545342
_cell_angle_alpha 90.000000
_cell_angle_beta 90.000000
_cell_angle_gamma 120.000000
_cell_volume 2307.524326
_symmetry_space_group_name_H-M "P 61 2 2"
_symmetry_group_IT_number 178
_symmetry_cell_setting 'hexagonal'
loop_
_space_group_symop_operation_xyz
x,y,z
x-y,x,1/6+z
-y,x-y,1/3+z
-x,-y,1/2+z
-x+y,-x,2/3+z
y,-x+y,5/6+z
x-y,-y,-z
-x,-x+y,2/3-z
y,x,1/3-z
-y,-x,5/6-z
-x+y,y,1/2-z
x,x-y,1/6-z
loop_
_atom_site_type_symbol
_atom_site_label
_atom_site_fract_x
_atom_site_fract_y
_atom_site_fract_z
Si Si1 0.641761 0.696012 0.268353
Si Si2 0.539502 0.967038 0.607658
Si Si3 0.586523 0.878344 0.236306
Si Si4 0.710577 0.421153 0.250000
Si Si5 0.542058 0.271029 0.083334
O O1 0.702441 0.702441 0.166667
O O2 0.527564 0.583602 0.280572
O O3 0.616720 0.793777 0.285762
O O4 0.722002 0.698024 0.354221
O O5 0.532943 0.850227 0.630716
O O6 0.590770 0.000000 0.500000
O O7 0.613881 0.066823 0.681357
O O8 0.496404 0.820173 0.148046
O O9 0.614141 0.349731 0.173227
#
# Coordination Sequence:
#
# PCOD8325967 Si02
#       5
#    12  12  12   6   6
#     4  11  22  43  66 103 135 185 235 295 359 434
#     4  11  27  42  66  99 146 188 234 296 369 441
#     4  12  25  44  69 104 143 183 247 298 359 447
#     4  12  26  44  75 104 151 190 248 306 364 472
#     4  12  28  44  67 108 141 200 244 304 386 440
#
# _framework density 20.801513
#
# number of rings (size 3 to 8) (size 9 to 14) (size 15 to 20)
#    0.000    0.500    5.000    2.250   14.000    0.000 
#    0.000    0.000    0.000    0.000   13.000    0.000 
#    0.000    0.000    0.000    0.000    0.000    0.000 
#
# Total GULP energy -595001.103306 kJ/mol
# GULP energy per Si atom -12395.856319 kJ/mol
# Density = 2.075417 g / cm^3
# Si number density = 20.801513 Si / 1000 Ang^3
#
#
#
# Elastic Constant Matrix: (Units=GPa)
#
#
# Indices 1 2 3 4 5 6 
#
# 1 119.4228 56.9181 55.0658 0.0000 0.0000 0.0000
# 2 56.9181 119.4228 55.0658 0.0000 0.0000 0.0000
# 3 55.0658 55.0658 133.9166 0.0000 0.0000 0.0000
# 4 0.0000 0.0000 0.0000 39.7533 0.0000 0.0000
# 5 0.0000 0.0000 0.0000 0.0000 39.7533 0.0000
# 6 0.0000 0.0000 0.0000 0.0000 0.0000 31.2523
#
#
#
# Elastic Compliance Matrix: (Units=1/GPa)
#
#
# Indices 1 2 3 4 5 6 
#
# 1 0.011815 -0.004184 -0.003138 0.000000 0.000000 0.000000
# 2 -0.004184 0.011815 -0.003138 0.000000 0.000000 0.000000
# 3 -0.003138 -0.003138 0.010048 0.000000 0.000000 0.000000
# 4 0.000000 0.000000 0.000000 0.025155 0.000000 0.000000
# 5 0.000000 0.000000 0.000000 0.000000 0.025155 0.000000
# 6 0.000000 0.000000 0.000000 0.000000 0.000000 0.031998
#
#
# Mechanical properties :
#
#
# Convention : Reuss Voigt Hill
#
# Bulk Modulus (GPa) = 78.38157 78.54017 78.46087
# Shear Modulus (GPa) = 35.42176 35.86593 35.64385
#
# Velocity S-wave (km/s) = 4.13103 4.15685 4.14396
# Velocity P-wave (km/s) = 7.77923 7.80244 7.79085
#
# Compressibility (1/GPa) = 0.01275810
#
# Stress axis : x y z
#
# Youngs Moduli (GPa) = 84.64114 84.64114 99.52598
#
# Poissons Ratio (x) = 0.35416 0.31227
# Poissons Ratio (y) = 0.35416 0.31227
# Poissons Ratio (z) = 0.26557 0.26557
#
# Static dielectric constant tensor:
#      x y z
#    x 3.921810 0.000000 0.000000 
#    y 0.000000 3.921810 0.000000 
#    z 0.000000 0.000000 4.177880 
# 
# 
# High freq. dielectric constant tensor:
#      x y z
#    x 1.798150 0.000000 0.000000 
#    y 0.000000 1.798150 0.000000 
#    z 0.000000 0.000000 1.833600 
# 
# From -- ./inp_files/5516.got.cif
#   From: 2010.03.12/outbox.cif.g09.slc.cpg/sg178_3_cif.got.tgz:5516.got - 2010.04.02 07:02:38.
