data_PCOD8325403
_publ_section_title
;
Structure prediction by ZEFSAII (Michael W. Deem and Ramdas Pophale) SiO2 
 PCOD8325403
Probable space group: P 63/M
;
_chemical_formula_sum "Si O2"
_cell_formula_units_Z 84
_cell_length_a 21.426982
_cell_length_b 21.426982
_cell_length_c 12.824398
_cell_angle_alpha 90.000000
_cell_angle_beta 90.000000
_cell_angle_gamma 120.000000
_cell_volume 5099.054208
_symmetry_space_group_name_H-M "P 63/M"
_symmetry_group_IT_number 176
_symmetry_cell_setting 'hexagonal'
loop_
_space_group_symop_operation_xyz
x,y,z
x-y,x,1/2+z
-y,x-y,z
-x,-y,1/2+z
-x+y,-x,z
y,-x+y,1/2+z
-x,-y,-z
-x+y,-x,1/2-z
y,-x+y,-z
x,y,1/2-z
x-y,x,-z
-y,x-y,1/2-z
loop_
_atom_site_type_symbol
_atom_site_label
_atom_site_fract_x
_atom_site_fract_y
_atom_site_fract_z
Si Si1 0.723355 0.111464 0.925744
Si Si2 0.953217 0.665490 0.134512
Si Si3 0.013863 0.450670 0.365379
Si Si4 0.816294 0.042296 0.632291
Si Si5 0.187740 0.247884 0.446728
Si Si6 0.402185 0.154268 0.629986
Si Si7 0.606025 0.547844 0.572928
O O1 0.640966 0.078781 0.894989
O O2 0.757810 0.068586 0.869514
O O3 0.760872 0.193499 0.885333
O O4 0.734997 0.109985 0.050333
O O5 0.919759 0.645299 0.250000
O O6 0.992139 0.752668 0.120968
O O7 0.008612 0.636612 0.117172
O O8 0.983628 0.420922 0.250000
O O9 0.044205 0.535931 0.365056
O O10 0.950321 0.410106 0.449183
O O11 0.821483 0.019137 0.750000
O O12 0.896416 0.106756 0.599485
O O13 0.787621 0.971309 0.559836
O O14 0.218559 0.333894 0.449142
O O15 0.377530 0.130644 0.750000
O O16 0.465692 0.138297 0.595629
#
# Coordination Sequence:
#
# PCOD8325403 Si02
#       7
#    12  12  12  12  12  12  12
#     4   9  18  27  43  65  87 115 149 174 213 263
#     4   9  15  27  43  64  89 115 142 179 215 254
#     4  10  17  28  43  65  90 113 140 183 221 251
#     4  10  18  31  45  64  90 114 137 175 213 252
#     4   9  17  28  46  65  84 111 147 170 206 260
#     4  10  17  30  45  61  86 118 146 177 211 256
#     4   9  18  27  43  65  86 114 151 175 211 266
#
# _framework density 16.473642999999999
#
# number of rings (size 3 to 8) (size 9 to 14) (size 15 to 20)
#    0.000    2.571    0.000    6.429    0.000    0.000 
#    0.000    8.571    0.000    0.857    0.000    2.000 
#    0.000    0.000    0.000    4.000    0.000    0.286 
#
# Total GULP energy -1040736.300177 kJ/mol
# GULP energy per Si atom -12389.717859 kJ/mol
# Density = 1.643615 g / cm^3
# Si number density = 16.473643 Si / 1000 Ang^3
#
#
#
# Elastic Constant Matrix: (Units=GPa)
#
#
# Indices 1 2 3 4 5 6 
#
# 1 56.6536 21.5128 33.0867 0.0000 0.0000 0.0000
# 2 21.5128 56.6536 33.0867 0.0000 0.0000 0.0000
# 3 33.0867 33.0867 145.7320 0.0000 0.0000 0.0000
# 4 0.0000 0.0000 0.0000 16.9812 0.0000 0.0000
# 5 0.0000 0.0000 0.0000 0.0000 16.9812 0.0000
# 6 0.0000 0.0000 0.0000 0.0000 0.0000 17.5704
#
#
#
# Elastic Compliance Matrix: (Units=1/GPa)
#
#
# Indices 1 2 3 4 5 6 
#
# 1 0.022147 -0.006310 -0.003596 0.000000 0.000000 0.000000
# 2 -0.006310 0.022147 -0.003596 0.000000 0.000000 0.000000
# 3 -0.003596 -0.003596 0.008495 0.000000 0.000000 0.000000
# 4 0.000000 0.000000 0.000000 0.058889 0.000000 0.000000
# 5 0.000000 0.000000 0.000000 0.000000 0.058889 0.000000
# 6 0.000000 0.000000 0.000000 0.000000 0.000000 0.056914
#
#
# Mechanical properties :
#
#
# Convention : Reuss Voigt Hill
#
# Bulk Modulus (GPa) = 38.78012 48.26796 43.52404
# Shear Modulus (GPa) = 19.00577 21.73008 20.36792
#
# Velocity S-wave (km/s) = 3.40031 3.63586 3.52005
# Velocity P-wave (km/s) = 6.24564 6.85490 6.55735
#
# Compressibility (1/GPa) = 0.02578641
#
# Stress axis : x y z
#
# Youngs Moduli (GPa) = 45.15268 45.15268 117.72175
#
# Poissons Ratio (x) = 0.28491 0.42329
# Poissons Ratio (y) = 0.28491 0.42329
# Poissons Ratio (z) = 0.16235 0.16235
#
# Static dielectric constant tensor:
#      x y z
#    x 3.057730 0.000000 0.000000 
#    y 0.000000 3.057730 0.000000 
#    z 0.000000 0.000000 3.259750 
# 
# 
# High freq. dielectric constant tensor:
#      x y z
#    x 1.604830 0.000000 0.000000 
#    y 0.000000 1.604830 0.000000 
#    z 0.000000 0.000000 1.645680 
# 
# From -- ./inp_files/2139.got.cif
#   From: 2010.06.25/outbox.cif.g09.slc.cpg/sg176_2_cif.got.tgz:2139.got - 2010.06.28 12:15:01.
