data_PCOD8325822
_publ_section_title
;
Structure prediction by ZEFSAII (Michael W. Deem and Ramdas Pophale) SiO2 
 PCOD8325822
Probable space group: P 61 2 2
;
_chemical_formula_sum "Si O2"
_cell_formula_units_Z 72
_cell_length_a 14.965795
_cell_length_b 14.965795
_cell_length_c 19.802990
_cell_angle_alpha 90.000000
_cell_angle_beta 90.000000
_cell_angle_gamma 120.000000
_cell_volume 3841.147495
_symmetry_space_group_name_H-M "P 61 2 2"
_symmetry_group_IT_number 178
_symmetry_cell_setting 'hexagonal'
loop_
_space_group_symop_operation_xyz
x,y,z
x-y,x,1/6+z
-y,x-y,1/3+z
-x,-y,1/2+z
-x+y,-x,2/3+z
y,-x+y,5/6+z
x-y,-y,-z
-x,-x+y,2/3-z
y,x,1/3-z
-y,-x,5/6-z
-x+y,y,1/2-z
x,x-y,1/6-z
loop_
_atom_site_type_symbol
_atom_site_label
_atom_site_fract_x
_atom_site_fract_y
_atom_site_fract_z
Si Si1 0.400884 0.424951 0.459498
Si Si2 0.532569 0.839684 0.538862
Si Si3 0.297002 0.798060 0.242287
Si Si4 0.391591 0.183477 0.893745
Si Si5 0.221587 0.973589 0.923663
Si Si6 0.463327 0.382695 0.720530
O O1 0.470520 0.529481 0.416667
O O2 0.432532 0.340228 0.444134
O O3 0.281335 0.375307 0.440065
O O4 0.415979 0.447400 0.538976
O O5 0.468021 0.734011 0.583334
O O6 0.563580 0.821164 0.465473
O O7 0.629226 0.907079 0.589825
O O8 0.469199 0.896508 0.526070
O O9 0.378907 0.757813 0.250000
O O10 0.279321 0.806281 0.162845
O O11 0.188081 0.724809 0.278500
O O12 0.278900 0.080025 0.880540
O O13 0.096868 0.903133 0.916667
O O14 0.240067 0.000000 0.000000
O O15 0.379126 0.379126 0.666667
#
# Coordination Sequence:
#
# PCOD8325822 Si02
#       6
#    12  12  12  12  12  12
#     4  10  23  39  60  82 119 159 195 244 297 358
#     4  10  20  33  58  87 120 144 181 236 292 352
#     4  10  24  39  59  84 114 156 202 238 292 354
#     4  10  21  37  57  86 115 153 191 238 299 354
#     4   9  19  31  54  86 113 144 180 230 292 347
#     4  11  23  39  57  87 117 155 201 241 289 348
#
# _framework density 18.744399000000001
#
# number of rings (size 3 to 8) (size 9 to 14) (size 15 to 20)
#    0.000    2.000    0.000    3.000   16.333    2.000 
#    0.000    0.000    0.000    1.000    0.000    0.000 
#    0.000    0.000    0.000    0.000    0.000    0.000 
#
# Total GULP energy -892240.719338 kJ/mol
# GULP energy per Si atom -12392.232213 kJ/mol
# Density = 1.870174 g / cm^3
# Si number density = 18.744399 Si / 1000 Ang^3
#
#
#
# Elastic Constant Matrix: (Units=GPa)
#
#
# Indices 1 2 3 4 5 6 
#
# 1 107.3794 62.4171 47.1951 0.0000 0.0000 0.0000
# 2 62.4171 107.3794 47.1951 0.0000 0.0000 0.0000
# 3 47.1951 47.1951 106.5192 0.0000 0.0000 0.0000
# 4 0.0000 0.0000 0.0000 26.3718 0.0000 0.0000
# 5 0.0000 0.0000 0.0000 0.0000 26.3718 0.0000
# 6 0.0000 0.0000 0.0000 0.0000 0.0000 22.4811
#
#
#
# Elastic Compliance Matrix: (Units=1/GPa)
#
#
# Indices 1 2 3 4 5 6 
#
# 1 0.015027 -0.007213 -0.003462 0.000000 0.000000 0.000000
# 2 -0.007213 0.015027 -0.003462 0.000000 0.000000 0.000000
# 3 -0.003462 -0.003462 0.012456 0.000000 0.000000 0.000000
# 4 0.000000 0.000000 0.000000 0.037919 0.000000 0.000000
# 5 0.000000 0.000000 0.000000 0.000000 0.037919 0.000000
# 6 0.000000 0.000000 0.000000 0.000000 0.000000 0.044482
#
#
# Mechanical properties :
#
#
# Convention : Reuss Voigt Hill
#
# Bulk Modulus (GPa) = 70.24742 70.54360 70.39551
# Shear Modulus (GPa) = 25.52953 26.00965 25.76959
#
# Velocity S-wave (km/s) = 3.69451 3.72909 3.71184
# Velocity P-wave (km/s) = 7.46706 7.50051 7.48380
#
# Compressibility (1/GPa) = 0.01423540
#
# Stress axis : x y z
#
# Youngs Moduli (GPa) = 66.54494 66.54494 80.28336
#
# Poissons Ratio (x) = 0.48002 0.27795
# Poissons Ratio (y) = 0.48002 0.27795
# Poissons Ratio (z) = 0.23039 0.23039
#
# Static dielectric constant tensor:
#      x y z
#    x 3.208780 0.000000 0.000000 
#    y 0.000000 3.208780 0.000000 
#    z 0.000000 0.000000 3.418390 
# 
# 
# High freq. dielectric constant tensor:
#      x y z
#    x 1.721650 0.000000 0.000000 
#    y 0.000000 1.721650 0.000000 
#    z 0.000000 0.000000 1.731830 
# 
# From -- ./inp_files/6763.got.cif
#   From: 2010.03.12/outbox.cif.g09.slc.cpg/sg178_4_cif.got.tgz:6763.got - 2010.04.02 07:02:38.
