data_PCOD8325180
_publ_section_title
;
Structure prediction by ZEFSAII (Michael W. Deem and Ramdas Pophale) SiO2 
 PCOD8325180
Probable space group: P 6/M
;
_chemical_formula_sum "Si O2"
_cell_formula_units_Z 60
_cell_length_a 22.396754
_cell_length_b 22.396754
_cell_length_c 7.687291
_cell_angle_alpha 90.000000
_cell_angle_beta 90.000000
_cell_angle_gamma 120.000000
_cell_volume 3339.443599
_symmetry_space_group_name_H-M "P 6/M"
_symmetry_group_IT_number 175
_symmetry_cell_setting 'hexagonal'
loop_
_space_group_symop_operation_xyz
x,y,z
x-y,x,z
-y,x-y,z
-x,-y,z
-x+y,-x,z
y,-x+y,z
-x,-y,-z
-x+y,-x,-z
y,-x+y,-z
x,y,-z
x-y,x,-z
-y,x-y,-z
loop_
_atom_site_type_symbol
_atom_site_label
_atom_site_fract_x
_atom_site_fract_y
_atom_site_fract_z
Si Si1 0.390560 0.467217 0.500000
Si Si2 0.090361 0.400101 0.806549
Si Si3 0.913171 0.518312 0.500000
Si Si4 0.068190 0.155245 0.292906
Si Si5 0.842774 0.153615 0.295199
Si Si6 0.377468 0.068542 0.198507
O O1 0.440174 0.435402 0.500000
O O2 0.436646 0.550323 0.500000
O O3 0.343212 0.443390 0.326887
O O4 0.115897 0.463040 0.671236
O O5 0.137037 0.364830 0.796284
O O6 0.012357 0.342242 0.764394
O O7 0.096838 0.430680 0.000000
O O8 0.112189 0.121510 0.219513
O O9 0.069057 0.153551 0.500000
O O10 0.101902 0.233780 0.227031
O O11 0.830801 0.146876 0.500000
O O12 0.900501 0.229472 0.241638
O O13 0.404457 0.083808 0.000000
#
# Coordination Sequence:
#
# PCOD8325180 Si02
#       6
#     6  12   6  12  12  12
#     4   9  18  33  52  74 101 130 159 194 240 302
#     4  10  20  33  50  74 105 139 174 213 259 311
#     4   9  18  33  52  74 101 130 159 194 240 302
#     4   9  17  27  42  65  95 136 190 250 304 346
#     4  11  19  30  49  71 102 142 183 229 276 325
#     4  10  20  33  50  74 105 139 174 213 259 311
#
# _framework density 17.967065999999999
#
# number of rings (size 3 to 8) (size 9 to 14) (size 15 to 20)
#    0.000    2.200    2.000    2.000    0.000    3.200 
#    0.000    4.000    0.000    0.000    0.000    0.000 
#    8.000    9.600    2.400    0.000    0.000    0.000 
#
# Total GULP energy -744040.645479 kJ/mol
# GULP energy per Si atom -12400.677425 kJ/mol
# Density = 1.792617 g / cm^3
# Si number density = 17.967066 Si / 1000 Ang^3
#
#
#
# Elastic Constant Matrix: (Units=GPa)
#
#
# Indices 1 2 3 4 5 6 
#
# 1 67.5539 12.6766 23.9949 0.0000 0.0000 0.0000
# 2 12.6766 67.5539 23.9949 0.0000 0.0000 0.0000
# 3 23.9949 23.9949 96.1524 0.0000 0.0000 0.0000
# 4 0.0000 0.0000 0.0000 11.8459 0.0000 0.0000
# 5 0.0000 0.0000 0.0000 0.0000 11.8459 0.0000
# 6 0.0000 0.0000 0.0000 0.0000 0.0000 27.4387
#
#
#
# Elastic Compliance Matrix: (Units=1/GPa)
#
#
# Indices 1 2 3 4 5 6 
#
# 1 0.016437 -0.001786 -0.003656 0.000000 0.000000 0.000000
# 2 -0.001786 0.016437 -0.003656 0.000000 0.000000 0.000000
# 3 -0.003656 -0.003656 0.012225 0.000000 0.000000 0.000000
# 4 0.000000 0.000000 0.000000 0.084417 0.000000 0.000000
# 5 0.000000 0.000000 0.000000 0.000000 0.084417 0.000000
# 6 0.000000 0.000000 0.000000 0.000000 0.000000 0.036445
#
#
# Mechanical properties :
#
#
# Convention : Reuss Voigt Hill
#
# Bulk Modulus (GPa) = 37.17153 39.17700 38.17426
# Shear Modulus (GPa) = 18.01530 21.59901 19.80716
#
# Velocity S-wave (km/s) = 3.16995 3.47096 3.32387
# Velocity P-wave (km/s) = 5.84224 6.15757 6.00197
#
# Compressibility (1/GPa) = 0.02690231
#
# Stress axis : x y z
#
# Youngs Moduli (GPa) = 60.83930 60.83929 81.79978
#
# Poissons Ratio (x) = 0.10864 0.29908
# Poissons Ratio (y) = 0.10864 0.29908
# Poissons Ratio (z) = 0.22244 0.22244
#
# Static dielectric constant tensor:
#      x y z
#    x 3.227720 0.000000 0.000000 
#    y 0.000000 3.227720 0.000000 
#    z 0.000000 0.000000 3.408980 
# 
# 
# High freq. dielectric constant tensor:
#      x y z
#    x 1.670910 0.000000 0.000000 
#    y 0.000000 1.670910 0.000000 
#    z 0.000000 0.000000 1.702320 
# 
# From -- ./inp_files/938.got.cif
#   From: 2010.03.12/outbox.cif.g09.slc.cpg/sg175_1_cif.got.tgz:938.got - 2010.04.02 06:55:29.
