data_PCOD8325719
_publ_section_title
;
Structure prediction by ZEFSAII (Michael W. Deem and Ramdas Pophale) SiO2 
 PCOD8325719
Probable space group: P 63/M
;
_chemical_formula_sum "Si O2"
_cell_formula_units_Z 48
_cell_length_a 11.870344
_cell_length_b 11.870344
_cell_length_c 18.717938
_cell_angle_alpha 90.000000
_cell_angle_beta 90.000000
_cell_angle_gamma 120.000000
_cell_volume 2284.100695
_symmetry_space_group_name_H-M "P 63/M"
_symmetry_group_IT_number 176
_symmetry_cell_setting 'hexagonal'
loop_
_space_group_symop_operation_xyz
x,y,z
x-y,x,1/2+z
-y,x-y,z
-x,-y,1/2+z
-x+y,-x,z
y,-x+y,1/2+z
-x,-y,-z
-x+y,-x,1/2-z
y,-x+y,-z
x,y,1/2-z
x-y,x,-z
-y,x-y,1/2-z
loop_
_atom_site_type_symbol
_atom_site_label
_atom_site_fract_x
_atom_site_fract_y
_atom_site_fract_z
Si Si1 0.616052 0.744112 0.928255
Si Si2 0.000000 0.000000 0.583204
Si Si3 0.666668 0.333334 0.033652
Si Si4 0.333334 0.666667 0.135379
Si Si5 0.123035 0.721094 0.169023
Si Si6 0.768485 0.035715 0.916155
O O1 0.461431 0.666295 0.938878
O O2 0.650790 0.663286 0.873232
O O3 0.657304 0.888194 0.898966
O O4 0.695331 0.760056 0.000746
O O5 0.907083 0.053498 0.608319
O O6 0.000000 0.000000 0.500000
O O7 0.666668 0.333334 0.949434
O O8 0.191972 0.633964 0.164985
O O9 0.092844 0.741747 0.250000
O O10 0.235212 0.856617 0.133577
#
# Coordination Sequence:
#
# PCOD8325719 Si02
#       6
#    12   4   4   4  12  12
#     4  12  24  43  70 102 138 178 232 289 346 410
#     4  12  15  33  61  98 127 168 220 284 355 381
#     4  12  27  43  74 106 132 184 245 292 330 421
#     4  12  25  49  72  97 139 184 236 280 340 412
#     4  12  27  44  68 102 141 182 228 285 351 418
#     4  12  20  39  69  98 137 177 227 291 343 402
#
# _framework density 21.014835999999999
#
# number of rings (size 3 to 8) (size 9 to 14) (size 15 to 20)
#    0.000    0.000   10.000    0.750    3.500    3.000 
#    0.000    1.250    0.000    0.000    0.000    0.000 
#    0.000    0.000    0.000    0.000    0.000    0.000 
#
# Total GULP energy -595118.710213 kJ/mol
# GULP energy per Si atom -12398.306463 kJ/mol
# Density = 2.096701 g / cm^3
# Si number density = 21.014836 Si / 1000 Ang^3
#
#
#
# Elastic Constant Matrix: (Units=GPa)
#
#
# Indices 1 2 3 4 5 6 
#
# 1 103.9045 31.4731 36.6139 0.0000 0.0000 0.0003
# 2 31.4731 103.9057 36.6141 0.0000 0.0000 0.0006
# 3 36.6139 36.6141 133.1910 0.0000 0.0000 0.0000
# 4 0.0000 0.0000 0.0000 15.3584 -0.0006 0.0000
# 5 0.0000 0.0000 0.0000 -0.0006 15.3597 0.0000
# 6 0.0003 0.0006 0.0000 0.0000 0.0000 36.2163
#
#
#
# Elastic Compliance Matrix: (Units=1/GPa)
#
#
# Indices 1 2 3 4 5 6 
#
# 1 0.011242 -0.002565 -0.002385 0.000000 0.000000 0.000000
# 2 -0.002565 0.011241 -0.002385 0.000000 0.000000 0.000000
# 3 -0.002385 -0.002385 0.008819 0.000000 0.000000 0.000000
# 4 0.000000 0.000000 0.000000 0.065111 0.000003 0.000000
# 5 0.000000 0.000000 0.000000 0.000003 0.065106 0.000000
# 6 0.000000 0.000000 0.000000 0.000000 0.000000 0.027612
#
#
# Mechanical properties :
#
#
# Convention : Reuss Voigt Hill
#
# Bulk Modulus (GPa) = 60.12431 61.15593 60.64012
# Shear Modulus (GPa) = 23.88402 29.14022 26.51212
#
# Velocity S-wave (km/s) = 3.37491 3.72781 3.55574
# Velocity P-wave (km/s) = 6.62263 6.90603 6.76581
#
# Compressibility (1/GPa) = 0.01663221
#
# Stress axis : x y z
#
# Youngs Moduli (GPa) = 88.95559 88.95655 113.38593
#
# Poissons Ratio (x) = 0.22813 0.27046
# Poissons Ratio (y) = 0.22813 0.27046
# Poissons Ratio (z) = 0.21218 0.21219
#
# Static dielectric constant tensor:
#      x y z
#    x 3.755340 0.000000 0.000000 
#    y 0.000000 3.755310 0.000000 
#    z 0.000000 0.000000 3.489940 
# 
# 
# High freq. dielectric constant tensor:
#      x y z
#    x 1.834910 0.000000 0.000000 
#    y 0.000000 1.834910 0.000000 
#    z 0.000000 0.000000 1.790390 
# 
# From -- ./inp_files/3684.got.cif
#   From: 2010.06.25/outbox.cif.g09.slc.cpg/sg176_2_cif.got.tgz:3684.got - 2010.06.28 12:15:01.
