data_PCOD8325525
_publ_section_title
;
Structure prediction by ZEFSAII (Michael W. Deem and Ramdas Pophale) SiO2 
 PCOD8325525
Probable space group: P 63/M
;
_chemical_formula_sum "Si O2"
_cell_formula_units_Z 46
_cell_length_a 13.496597
_cell_length_b 13.496597
_cell_length_c 14.311906
_cell_angle_alpha 90.000000
_cell_angle_beta 90.000000
_cell_angle_gamma 120.000000
_cell_volume 2257.754245
_symmetry_space_group_name_H-M "P 63/M"
_symmetry_group_IT_number 176
_symmetry_cell_setting 'hexagonal'
loop_
_space_group_symop_operation_xyz
x,y,z
x-y,x,1/2+z
-y,x-y,z
-x,-y,1/2+z
-x+y,-x,z
y,-x+y,1/2+z
-x,-y,-z
-x+y,-x,1/2-z
y,-x+y,-z
x,y,1/2-z
x-y,x,-z
-y,x-y,1/2-z
loop_
_atom_site_type_symbol
_atom_site_label
_atom_site_fract_x
_atom_site_fract_y
_atom_site_fract_z
Si Si1 0.091972 0.395896 0.591016
Si Si2 0.562030 0.370054 0.250000
Si Si3 0.857285 0.102650 0.250000
Si Si4 0.169411 0.746677 0.422001
Si Si5 0.849151 0.116359 0.750000
Si Si6 0.666668 0.333334 0.859034
O O1 0.119374 0.506581 0.655170
O O2 0.109081 0.310877 0.656388
O O3 0.178876 0.425570 0.507121
O O4 0.962979 0.338313 0.551168
O O5 0.540779 0.238900 0.250000
O O6 0.981658 0.211631 0.250000
O O7 0.842947 0.976758 0.250000
O O8 0.177335 0.830768 0.339955
O O9 0.219760 0.666123 0.392629
O O10 0.666667 0.333334 0.750000
#
# Coordination Sequence:
#
# PCOD8325525 Si02
#       6
#    12   6   6  12   6   4
#     4  10  22  42  63  94 124 167 208 263 311 374
#     4   9  22  42  62  84 126 162 211 258 305 367
#     4   9  19  36  62  90 126 157 212 248 312 375
#     4  11  24  42  65  91 132 160 214 256 320 375
#     4  10  19  38  60  92 124 167 197 262 309 376
#     4  12  27  45  60  91 128 169 210 261 312 382
#
# _framework density 20.374227000000001
#
# number of rings (size 3 to 8) (size 9 to 14) (size 15 to 20)
#    0.261    1.565    1.304    2.609    3.652    1.043 
#    9.391    0.000    0.000    8.348    0.000    0.000 
#    0.000    0.000    0.000    0.000    0.000    0.000 
#
# Total GULP energy -570219.051969 kJ/mol
# GULP energy per Si atom -12396.066347 kJ/mol
# Density = 2.032785 g / cm^3
# Si number density = 20.374227 Si / 1000 Ang^3
#
#
#
# Elastic Constant Matrix: (Units=GPa)
#
#
# Indices 1 2 3 4 5 6 
#
# 1 89.8331 25.2035 21.0372 0.0000 0.0000 -0.0001
# 2 25.2035 89.8316 21.0366 0.0000 0.0000 -0.0002
# 3 21.0372 21.0366 115.2693 0.0000 0.0000 -0.0003
# 4 0.0000 0.0000 0.0000 24.3167 -0.0001 0.0000
# 5 0.0000 0.0000 0.0000 -0.0001 24.3167 0.0000
# 6 -0.0001 -0.0002 -0.0003 0.0000 0.0000 32.3146
#
#
#
# Elastic Compliance Matrix: (Units=1/GPa)
#
#
# Indices 1 2 3 4 5 6 
#
# 1 0.012394 -0.003079 -0.001700 0.000000 0.000000 0.000000
# 2 -0.003079 0.012394 -0.001700 0.000000 0.000000 0.000000
# 3 -0.001700 -0.001700 0.009296 0.000000 0.000000 0.000000
# 4 0.000000 0.000000 0.000000 0.041124 0.000000 0.000000
# 5 0.000000 0.000000 0.000000 0.000000 0.041124 0.000000
# 6 0.000000 0.000000 0.000000 0.000000 0.000000 0.030946
#
#
# Mechanical properties :
#
#
# Convention : Reuss Voigt Hill
#
# Bulk Modulus (GPa) = 47.33638 47.72095 47.52867
# Shear Modulus (GPa) = 29.89052 31.36672 30.62862
#
# Velocity S-wave (km/s) = 3.83440 3.92794 3.88145
# Velocity P-wave (km/s) = 6.54884 6.63662 6.59288
#
# Compressibility (1/GPa) = 0.02112540
#
# Stress axis : x y z
#
# Youngs Moduli (GPa) = 80.68594 80.68466 107.57517
#
# Poissons Ratio (x) = 0.24844 0.18287
# Poissons Ratio (y) = 0.24844 0.18287
# Poissons Ratio (z) = 0.13716 0.13716
#
# Static dielectric constant tensor:
#      x y z
#    x 3.769490 -0.000020 0.000000 
#    y -0.000020 3.769500 0.000000 
#    z 0.000000 0.000000 3.643750 
# 
# 
# High freq. dielectric constant tensor:
#      x y z
#    x 1.797080 0.000000 0.000000 
#    y 0.000000 1.797080 0.000000 
#    z 0.000000 0.000000 1.804320 
# 
# From -- ./inp_files/2538.got.cif
#   From: 2010.06.25/outbox.cif.g09.slc.cpg/sg176_2_cif.got.tgz:2538.got - 2010.06.28 12:15:01.
