data_PCOD8325910
_publ_section_title
;
Structure prediction by ZEFSAII (Michael W. Deem and Ramdas Pophale) SiO2 
 PCOD8325910
Probable space group: P 61 2 2
;
_chemical_formula_sum "Si O2"
_cell_formula_units_Z 54
_cell_length_a 11.603497
_cell_length_b 11.603497
_cell_length_c 19.977834
_cell_angle_alpha 90.000000
_cell_angle_beta 90.000000
_cell_angle_gamma 120.000000
_cell_volume 2329.468384
_symmetry_space_group_name_H-M "P 61 2 2"
_symmetry_group_IT_number 178
_symmetry_cell_setting 'hexagonal'
loop_
_space_group_symop_operation_xyz
x,y,z
x-y,x,1/6+z
-y,x-y,1/3+z
-x,-y,1/2+z
-x+y,-x,2/3+z
y,-x+y,5/6+z
x-y,-y,-z
-x,-x+y,2/3-z
y,x,1/3-z
-y,-x,5/6-z
-x+y,y,1/2-z
x,x-y,1/6-z
loop_
_atom_site_type_symbol
_atom_site_label
_atom_site_fract_x
_atom_site_fract_y
_atom_site_fract_z
Si Si1 0.554751 0.109300 0.412718
Si Si2 0.269485 0.134743 0.583334
Si Si3 0.563262 0.373099 0.221859
Si Si4 0.916032 0.578297 0.612183
Si Si5 0.833079 0.671568 0.099964
O O1 0.642631 0.196277 0.474792
O O2 0.655369 0.117720 0.356084
O O3 0.453703 0.164119 0.395504
O O4 0.459946 0.953206 0.426836
O O5 0.356507 0.179194 0.514036
O O6 0.172555 0.196163 0.583917
O O7 0.707400 0.414799 0.250000
O O8 0.455601 0.227538 0.252427
O O9 0.970160 0.485080 0.583334
O O10 0.027127 0.728442 0.598018
#
# Coordination Sequence:
#
# PCOD8325910 Si02
#       5
#    12   6  12  12  12
#     4  11  25  41  71 104 143 196 242 312 387 459
#     4  10  22  44  70 102 134 196 250 320 370 430
#     4  10  24  44  69 102 143 188 248 311 381 461
#     4  11  26  42  68 104 146 190 243 310 385 459
#     4  11  25  42  73 105 148 187 262 314 376 461
#
# _framework density 23.181256000000001
#
# number of rings (size 3 to 8) (size 9 to 14) (size 15 to 20)
#    0.000    1.333    0.000    4.667   18.667    0.000 
#    0.000    4.444    0.000    0.000    0.000    0.000 
#    0.000    0.000    0.000    0.000    0.000    0.000 
#
# Total GULP energy -669243.317338 kJ/mol
# GULP energy per Si atom -12393.394766 kJ/mol
# Density = 2.312849 g / cm^3
# Si number density = 23.181256 Si / 1000 Ang^3
#
#
#
# Elastic Constant Matrix: (Units=GPa)
#
#
# Indices 1 2 3 4 5 6 
#
# 1 108.3420 50.1783 27.7268 0.0000 0.0000 0.0000
# 2 50.1783 108.3420 27.7268 0.0000 0.0000 0.0000
# 3 27.7268 27.7268 106.4727 0.0000 0.0000 0.0000
# 4 0.0000 0.0000 0.0000 33.3020 0.0000 0.0000
# 5 0.0000 0.0000 0.0000 0.0000 33.3020 0.0000
# 6 0.0000 0.0000 0.0000 0.0000 0.0000 29.0818
#
#
#
# Elastic Compliance Matrix: (Units=1/GPa)
#
#
# Indices 1 2 3 4 5 6 
#
# 1 0.012067 -0.005126 -0.001807 0.000000 0.000000 0.000000
# 2 -0.005126 0.012067 -0.001807 0.000000 0.000000 0.000000
# 3 -0.001807 -0.001807 0.010333 0.000000 0.000000 0.000000
# 4 0.000000 0.000000 0.000000 0.030028 0.000000 0.000000
# 5 0.000000 0.000000 0.000000 0.000000 0.030028 0.000000
# 6 0.000000 0.000000 0.000000 0.000000 0.000000 0.034386
#
#
# Mechanical properties :
#
#
# Convention : Reuss Voigt Hill
#
# Bulk Modulus (GPa) = 58.87559 59.38006 59.12783
# Shear Modulus (GPa) = 32.88334 33.63881 33.26107
#
# Velocity S-wave (km/s) = 3.77043 3.81349 3.79202
# Velocity P-wave (km/s) = 6.66392 6.71278 6.68840
#
# Compressibility (1/GPa) = 0.01698497
#
# Stress axis : x y z
#
# Youngs Moduli (GPa) = 82.87245 82.87245 96.77335
#
# Poissons Ratio (x) = 0.42481 0.17491
# Poissons Ratio (y) = 0.42481 0.17491
# Poissons Ratio (z) = 0.14979 0.14979
#
# Static dielectric constant tensor:
#      x y z
#    x 4.125210 0.000000 0.000000 
#    y 0.000000 4.125210 0.000000 
#    z 0.000000 0.000000 3.320950 
# 
# 
# High freq. dielectric constant tensor:
#      x y z
#    x 1.914260 0.000000 0.000000 
#    y 0.000000 1.914260 0.000000 
#    z 0.000000 0.000000 1.925300 
# 
# From -- ./inp_files/7397.got.cif
#   From: 2010.03.12/outbox.cif.g09.slc.cpg/sg178_4_cif.got.tgz:7397.got - 2010.04.02 07:02:38.
