data_PCOD8325102
_publ_section_title
;
Structure prediction by ZEFSAII (Michael W. Deem and Ramdas Pophale) SiO2 
 PCOD8325102
Probable space group: P 6/M
;
_chemical_formula_sum "Si O2"
_cell_formula_units_Z 96
_cell_length_a 24.112239
_cell_length_b 24.112239
_cell_length_c 10.600989
_cell_angle_alpha 90.000000
_cell_angle_beta 90.000000
_cell_angle_gamma 120.000000
_cell_volume 5337.674607
_symmetry_space_group_name_H-M "P 6/M"
_symmetry_group_IT_number 175
_symmetry_cell_setting 'hexagonal'
loop_
_space_group_symop_operation_xyz
x,y,z
x-y,x,z
-y,x-y,z
-x,-y,z
-x+y,-x,z
y,-x+y,z
-x,-y,-z
-x+y,-x,-z
y,-x+y,-z
x,y,-z
x-y,x,-z
-y,x-y,-z
loop_
_atom_site_type_symbol
_atom_site_label
_atom_site_fract_x
_atom_site_fract_y
_atom_site_fract_z
Si Si1 0.883606 0.874879 0.645328
Si Si2 0.644651 0.952853 0.356865
Si Si3 0.812619 0.194464 0.643441
Si Si4 0.579263 0.190416 0.650858
Si Si5 0.283144 0.154439 0.137593
Si Si6 0.012846 0.781053 0.783678
Si Si7 0.278213 0.753324 0.350936
Si Si8 0.949398 0.430566 0.650116
O O1 0.944089 0.874580 0.709971
O O2 0.897670 0.889341 0.500000
O O3 0.820093 0.806479 0.660007
O O4 0.666059 0.977821 0.500000
O O5 0.613299 0.876442 0.352452
O O6 0.704451 0.987037 0.262098
O O7 0.590931 0.969190 0.308316
O O8 0.803043 0.166340 0.500000
O O9 0.815712 0.146316 0.743593
O O10 0.753893 0.204152 0.684899
O O11 0.578712 0.190027 0.500000
O O12 0.650075 0.212773 0.703786
O O13 0.556235 0.238043 0.705178
O O14 0.531819 0.119897 0.704884
O O15 0.246985 0.076913 0.139862
O O16 0.236728 0.185149 0.139348
O O17 0.317835 0.173581 0.000000
O O18 0.279402 0.747297 0.500000
O O19 0.947442 0.432060 0.500000
O O20 0.000000 0.500000 0.705186
#
# Coordination Sequence:
#
# PCOD8325102 Si02
#       8
#    12  12  12  12  12  12  12  12
#     4  10  19  32  51  78 109 139 171 212 261 313
#     4   9  17  30  47  71 103 138 173 215 262 310
#     4   9  18  33  54  76 105 140 176 219 268 315
#     4   9  15  23  38  64 101 140 172 205 255 315
#     4  11  24  40  57  78 104 136 177 222 272 322
#     4  11  21  36  56  74 100 134 177 219 264 316
#     4   9  15  25  43  71 107 143 174 212 261 315
#     4   9  16  26  40  60  96 141 175 206 254 311
#
# _framework density 17.985361000000001
#
# number of rings (size 3 to 8) (size 9 to 14) (size 15 to 20)
#    0.000    2.375    2.500    1.125    0.000    4.000 
#    0.000    2.500    0.000    0.000    0.000    2.625 
#    0.000    4.000    0.000    0.000    0.000    0.000 
#
# Total GULP energy -1189667.591628 kJ/mol
# GULP energy per Si atom -12392.370746 kJ/mol
# Density = 1.794443 g / cm^3
# Si number density = 17.985361 Si / 1000 Ang^3
#
#
#
# Elastic Constant Matrix: (Units=GPa)
#
#
# Indices 1 2 3 4 5 6 
#
# 1 119.2817 59.4789 30.8613 0.0000 0.0000 0.0000
# 2 59.4789 119.2817 30.8613 0.0000 0.0000 0.0000
# 3 30.8613 30.8613 57.4316 0.0000 0.0000 0.0000
# 4 0.0000 0.0000 0.0000 4.5252 0.0000 0.0000
# 5 0.0000 0.0000 0.0000 0.0000 4.5252 0.0000
# 6 0.0000 0.0000 0.0000 0.0000 0.0000 29.9014
#
#
#
# Elastic Compliance Matrix: (Units=1/GPa)
#
#
# Indices 1 2 3 4 5 6 
#
# 1 0.011795 -0.004927 -0.003691 0.000000 0.000000 0.000000
# 2 -0.004927 0.011795 -0.003691 0.000000 0.000000 0.000000
# 3 -0.003691 -0.003691 0.021379 0.000000 0.000000 0.000000
# 4 0.000000 0.000000 0.000000 0.220986 0.000000 0.000000
# 5 0.000000 0.000000 0.000000 0.000000 0.220986 0.000000
# 6 0.000000 0.000000 0.000000 0.000000 0.000000 0.033443
#
#
# Mechanical properties :
#
#
# Convention : Reuss Voigt Hill
#
# Bulk Modulus (GPa) = 49.13468 59.82203 54.47835
# Shear Modulus (GPa) = 9.06151 19.44324 14.25237
#
# Velocity S-wave (km/s) = 2.24704 3.29151 2.81809
# Velocity P-wave (km/s) = 5.84045 6.91225 6.39883
#
# Compressibility (1/GPa) = 0.02035223
#
# Stress axis : x y z
#
# Youngs Moduli (GPa) = 84.78143 84.78143 46.77577
#
# Poissons Ratio (x) = 0.41768 0.17264
# Poissons Ratio (y) = 0.41768 0.17264
# Poissons Ratio (z) = 0.31291 0.31291
#
# Static dielectric constant tensor:
#      x y z
#    x 3.470600 0.000000 0.000000 
#    y 0.000000 3.470600 0.000000 
#    z 0.000000 0.000000 2.713780 
# 
# 
# High freq. dielectric constant tensor:
#      x y z
#    x 1.704550 0.000000 0.000000 
#    y 0.000000 1.704550 0.000000 
#    z 0.000000 0.000000 1.622140 
# 
# From -- ./inp_files/2159.got.cif
#   From: 2010.03.12/outbox.cif.g09.slc.cpg/sg175_2_cif.got.tgz:2159.got - 2010.04.02 06:55:29.
