data_PCOD8325776
_publ_section_title
;
Structure prediction by ZEFSAII (Michael W. Deem and Ramdas Pophale) SiO2 
 PCOD8325776
Probable space group: P 61 2 2
;
_chemical_formula_sum "Si O2"
_cell_formula_units_Z 54
_cell_length_a 27.025905
_cell_length_b 27.025905
_cell_length_c 5.147067
_cell_angle_alpha 90.000000
_cell_angle_beta 90.000000
_cell_angle_gamma 120.000000
_cell_volume 3255.749218
_symmetry_space_group_name_H-M "P 61 2 2"
_symmetry_group_IT_number 178
_symmetry_cell_setting 'hexagonal'
loop_
_space_group_symop_operation_xyz
x,y,z
x-y,x,1/6+z
-y,x-y,1/3+z
-x,-y,1/2+z
-x+y,-x,2/3+z
y,-x+y,5/6+z
x-y,-y,-z
-x,-x+y,2/3-z
y,x,1/3-z
-y,-x,5/6-z
-x+y,y,1/2-z
x,x-y,1/6-z
loop_
_atom_site_type_symbol
_atom_site_label
_atom_site_fract_x
_atom_site_fract_y
_atom_site_fract_z
Si Si1 0.653192 0.716245 0.078648
Si Si2 0.771213 0.118018 0.405940
Si Si3 0.702063 0.516766 0.763496
Si Si4 0.645420 0.126979 0.896883
Si Si5 0.518591 0.481409 0.416667
O O1 0.670217 0.670217 0.166667
O O2 0.677291 0.763885 0.301182
O O3 0.585747 0.684408 0.066664
O O4 0.677486 0.748433 0.804298
O O5 0.838545 0.161455 0.416667
O O6 0.736712 0.151779 0.409392
O O7 0.746764 0.493527 0.750000
O O8 0.661033 0.491970 0.514514
O O9 0.659881 0.493646 0.012627
O O10 0.580710 0.076229 0.873756
O O11 0.519154 0.519154 0.666667
#
# Coordination Sequence:
#
# PCOD8325776 Si02
#       5
#    12  12  12  12   6
#     4  10  18  28  43  62  84 113 150 185 219 262
#     4   9  17  28  42  60  83 110 138 180 227 260
#     4   9  17  31  50  69  87 107 143 194 241 275
#     4  10  20  32  47  67  93 122 156 188 225 281
#     4  12  24  36  48  66 102 144 168 184 216 278
#
# _framework density 16.586044000000001
#
# number of rings (size 3 to 8) (size 9 to 14) (size 15 to 20)
#    0.000    2.222    0.000    4.000    0.000    8.889 
#    0.000    0.000    0.000    0.000    0.000    0.000 
#   16.667    0.000    0.000    0.000    0.000    0.000 
#
# Total GULP energy -669187.117732 kJ/mol
# GULP energy per Si atom -12392.354032 kJ/mol
# Density = 1.654829 g / cm^3
# Si number density = 16.586044 Si / 1000 Ang^3
#
#
#
# Elastic Constant Matrix: (Units=GPa)
#
#
# Indices 1 2 3 4 5 6 
#
# 1 44.5165 10.9153 42.2257 0.0000 0.0000 0.0000
# 2 10.9153 44.5165 42.2257 0.0000 0.0000 0.0000
# 3 42.2257 42.2257 151.3441 0.0000 0.0000 0.0000
# 4 0.0000 0.0000 0.0000 23.8979 0.0000 0.0000
# 5 0.0000 0.0000 0.0000 0.0000 23.8979 0.0000
# 6 0.0000 0.0000 0.0000 0.0000 0.0000 16.8006
#
#
#
# Elastic Compliance Matrix: (Units=1/GPa)
#
#
# Indices 1 2 3 4 5 6 
#
# 1 0.030569 0.000809 -0.008755 0.000000 0.000000 0.000000
# 2 0.000809 0.030569 -0.008755 0.000000 0.000000 0.000000
# 3 -0.008755 -0.008755 0.011493 0.000000 0.000000 0.000000
# 4 0.000000 0.000000 0.000000 0.041845 0.000000 0.000000
# 5 0.000000 0.000000 0.000000 0.000000 0.041845 0.000000
# 6 0.000000 0.000000 0.000000 0.000000 0.000000 0.059522
#
#
# Mechanical properties :
#
#
# Convention : Reuss Voigt Hill
#
# Bulk Modulus (GPa) = 25.49059 47.90115 36.69587
# Shear Modulus (GPa) = 19.06067 22.58665 20.82366
#
# Velocity S-wave (km/s) = 3.39366 3.69424 3.54714
# Velocity P-wave (km/s) = 5.54599 6.86583 6.24090
#
# Compressibility (1/GPa) = 0.03923016
#
# Stress axis : x y z
#
# Youngs Moduli (GPa) = 32.71248 32.71248 87.01256
#
# Poissons Ratio (x) = -0.02645 0.76176
# Poissons Ratio (y) = -0.02645 0.76176
# Poissons Ratio (z) = 0.28638 0.28638
#
# Static dielectric constant tensor:
#      x y z
#    x 2.918270 0.000000 0.000000 
#    y 0.000000 2.918270 0.000000 
#    z 0.000000 0.000000 3.678260 
# 
# 
# High freq. dielectric constant tensor:
#      x y z
#    x 1.599260 0.000000 0.000000 
#    y 0.000000 1.599260 0.000000 
#    z 0.000000 0.000000 1.669670 
# 
# From -- ./inp_files/1175.got.cif
#   From: 2010.03.12/outbox.cif.g09.slc.cpg/sg178_1_cif.got.tgz:1175.got - 2010.04.02 07:02:38.
