data_PCOD8325326
_publ_section_title
;
Structure prediction by ZEFSAII (Michael W. Deem and Ramdas Pophale) SiO2 
 PCOD8325326
Probable space group: P 6/M
;
_chemical_formula_sum "Si O2"
_cell_formula_units_Z 90
_cell_length_a 17.735243
_cell_length_b 17.735243
_cell_length_c 18.650439
_cell_angle_alpha 90.000000
_cell_angle_beta 90.000000
_cell_angle_gamma 120.000000
_cell_volume 5080.354025
_symmetry_space_group_name_H-M "P 6/M"
_symmetry_group_IT_number 175
_symmetry_cell_setting 'hexagonal'
loop_
_space_group_symop_operation_xyz
x,y,z
x-y,x,z
-y,x-y,z
-x,-y,z
-x+y,-x,z
y,-x+y,z
-x,-y,-z
-x+y,-x,-z
y,-x+y,-z
x,y,-z
x-y,x,-z
-y,x-y,-z
loop_
_atom_site_type_symbol
_atom_site_label
_atom_site_fract_x
_atom_site_fract_y
_atom_site_fract_z
Si Si1 0.499994 0.849315 0.916789
Si Si2 0.905240 0.792699 0.000000
Si Si3 0.414663 0.003448 0.680086
Si Si4 0.313490 0.201569 0.139346
Si Si5 0.498638 0.164067 0.418656
Si Si6 0.494064 0.321179 0.082811
Si Si7 0.283069 0.341848 0.187096
Si Si8 0.330633 0.839649 0.582994
O O1 0.476291 0.750003 0.905490
O O2 0.415513 0.850841 0.886132
O O3 0.586548 0.918143 0.875226
O O4 0.517259 0.875982 0.000000
O O5 0.857706 0.849352 0.000000
O O6 0.873158 0.729769 0.068891
O O7 0.437190 0.078734 0.624335
O O8 0.369716 0.024327 0.744908
O O9 0.500000 0.000000 0.705858
O O10 0.348049 0.915613 0.638639
O O11 0.403902 0.289480 0.122877
O O12 0.256903 0.242328 0.168655
O O13 0.331239 0.144075 0.197674
O O14 0.468952 0.141447 0.500000
O O15 0.598660 0.190923 0.408955
O O16 0.483171 0.240881 0.391819
O O17 0.480690 0.332202 0.000000
O O18 0.328692 0.867381 0.500000
#
# Coordination Sequence:
#
# PCOD8325326 Si02
#       8
#    12   6  12  12  12  12  12  12
#     4   9  19  33  52  76 104 140 187 223 269 314
#     4  12  23  42  64  83  99 119 167 229 299 357
#     4  10  22  36  52  76 112 148 184 216 256 311
#     4  11  23  37  57  76 104 136 173 223 283 328
#     4   9  17  32  55  82 110 142 182 222 262 306
#     4   9  17  31  52  75 101 136 175 226 263 308
#     4  11  25  38  54  76 107 145 176 221 273 327
#     4   9  17  32  57  84 111 143 179 222 262 303
#
# _framework density 17.715299999999999
#
# number of rings (size 3 to 8) (size 9 to 14) (size 15 to 20)
#    0.000    2.133    2.000    1.000    5.600    3.733 
#    0.000    1.333    0.000    0.000    0.000    0.000 
#    0.000    0.000    0.000    0.000    0.000   10.000 
#
# Total GULP energy -1115536.445741 kJ/mol
# GULP energy per Si atom -12394.849397 kJ/mol
# Density = 1.767498 g / cm^3
# Si number density = 17.715300 Si / 1000 Ang^3
#
#
#
# Elastic Constant Matrix: (Units=GPa)
#
#
# Indices 1 2 3 4 5 6 
#
# 1 103.8175 47.9514 43.3100 0.0000 0.0000 0.0000
# 2 47.9514 103.8175 43.3100 0.0000 0.0000 0.0000
# 3 43.3100 43.3100 64.9378 0.0000 0.0000 0.0000
# 4 0.0000 0.0000 0.0000 59.3653 0.0000 0.0000
# 5 0.0000 0.0000 0.0000 0.0000 59.3653 0.0000
# 6 0.0000 0.0000 0.0000 0.0000 0.0000 27.9330
#
#
#
# Elastic Compliance Matrix: (Units=1/GPa)
#
#
# Indices 1 2 3 4 5 6 
#
# 1 0.014269 -0.003631 -0.007095 0.000000 0.000000 0.000000
# 2 -0.003631 0.014269 -0.007095 0.000000 0.000000 0.000000
# 3 -0.007095 -0.007095 0.024864 0.000000 0.000000 0.000000
# 4 0.000000 0.000000 0.000000 0.016845 0.000000 0.000000
# 5 0.000000 0.000000 0.000000 0.000000 0.016845 0.000000
# 6 0.000000 0.000000 0.000000 0.000000 0.000000 0.035800
#
#
# Mechanical properties :
#
#
# Convention : Reuss Voigt Hill
#
# Bulk Modulus (GPa) = 56.30787 60.19061 58.24924
# Shear Modulus (GPa) = 30.40357 38.53280 34.46819
#
# Velocity S-wave (km/s) = 4.14724 4.66887 4.41576
# Velocity P-wave (km/s) = 7.40180 7.94449 7.67794
#
# Compressibility (1/GPa) = 0.01775951
#
# Stress axis : x y z
#
# Youngs Moduli (GPa) = 70.08084 70.08084 40.21926
#
# Poissons Ratio (x) = 0.25444 0.28537
# Poissons Ratio (y) = 0.25444 0.28537
# Poissons Ratio (z) = 0.49725 0.49725
#
# Static dielectric constant tensor:
#      x y z
#    x 3.372000 0.000000 0.000000 
#    y 0.000000 3.372000 0.000000 
#    z 0.000000 0.000000 3.240320 
# 
# 
# High freq. dielectric constant tensor:
#      x y z
#    x 1.687860 0.000000 0.000000 
#    y 0.000000 1.687860 0.000000 
#    z 0.000000 0.000000 1.660950 
# 
# From -- ./inp_files/2993.got.cif
#   From: 2010.03.12/outbox.cif.g09.slc.cpg/sg175_2_cif.got.tgz:2993.got - 2010.04.02 06:55:29.
