data_PCOD8325093
_publ_section_title
;
Structure prediction by ZEFSAII (Michael W. Deem and Ramdas Pophale) SiO2 
 PCOD8325093
Probable space group: P 6/M
;
_chemical_formula_sum "Si O2"
_cell_formula_units_Z 48
_cell_length_a 16.711664
_cell_length_b 16.711664
_cell_length_c 12.086714
_cell_angle_alpha 90.000000
_cell_angle_beta 90.000000
_cell_angle_gamma 120.000000
_cell_volume 2923.332858
_symmetry_space_group_name_H-M "P 6/M"
_symmetry_group_IT_number 175
_symmetry_cell_setting 'hexagonal'
loop_
_space_group_symop_operation_xyz
x,y,z
x-y,x,z
-y,x-y,z
-x,-y,z
-x+y,-x,z
y,-x+y,z
-x,-y,-z
-x+y,-x,-z
y,-x+y,-z
x,y,-z
x-y,x,-z
-y,x-y,-z
loop_
_atom_site_type_symbol
_atom_site_label
_atom_site_fract_x
_atom_site_fract_y
_atom_site_fract_z
Si Si1 0.443486 0.350432 0.000000
Si Si2 0.792886 0.207429 0.176779
Si Si3 0.123631 0.212148 0.130200
Si Si4 0.639938 0.517441 0.000000
Si Si5 0.731709 0.451107 0.624762
O O1 0.412811 0.289400 0.889616
O O2 0.553557 0.414985 0.000000
O O3 0.389801 0.406053 0.000000
O O4 0.873018 0.181752 0.195072
O O5 0.829559 0.301928 0.109358
O O6 0.757124 0.219019 0.294851
O O7 0.162083 0.145290 0.164779
O O8 0.136270 0.234609 0.000000
O O9 0.619911 0.390953 0.642954
O O10 0.753363 0.490450 0.500000
#
# Coordination Sequence:
#
# PCOD8325093 Si02
#       5
#     6  12  12   6  12
#     4  10  20  30  41  67 105 135 156 196 252 305
#     4  11  18  29  51  72  96 133 172 207 245 308
#     4  10  19  32  50  73 101 132 167 208 254 303
#     4  10  20  30  41  67 105 135 156 196 252 305
#     4   8  17  33  51  73 100 131 175 219 248 283
#
# _framework density 16.419616000000001
#
# number of rings (size 3 to 8) (size 9 to 14) (size 15 to 20)
#    0.500    1.750    2.500    3.250    0.000    1.000 
#    6.000    0.000    0.000    6.000    0.000   17.500 
#    0.000    2.000    0.000    0.000    0.000    0.000 
#
# Total GULP energy -595108.663808 kJ/mol
# GULP energy per Si atom -12398.097163 kJ/mol
# Density = 1.638224 g / cm^3
# Si number density = 16.419616 Si / 1000 Ang^3
#
#
#
# Elastic Constant Matrix: (Units=GPa)
#
#
# Indices 1 2 3 4 5 6 
#
# 1 52.2741 3.3057 23.9104 0.0000 0.0000 0.0000
# 2 3.3057 52.2741 23.9104 0.0000 0.0000 0.0000
# 3 23.9104 23.9104 90.1383 0.0000 0.0000 0.0000
# 4 0.0000 0.0000 0.0000 11.9213 0.0000 0.0000
# 5 0.0000 0.0000 0.0000 0.0000 11.9213 0.0000
# 6 0.0000 0.0000 0.0000 0.0000 0.0000 24.4842
#
#
#
# Elastic Compliance Matrix: (Units=1/GPa)
#
#
# Indices 1 2 3 4 5 6 
#
# 1 0.021867 0.001446 -0.006184 0.000000 0.000000 0.000000
# 2 0.001446 0.021867 -0.006184 0.000000 0.000000 0.000000
# 3 -0.006184 -0.006184 0.014375 0.000000 0.000000 0.000000
# 4 0.000000 0.000000 0.000000 0.083883 0.000000 0.000000
# 5 0.000000 0.000000 0.000000 0.000000 0.083883 0.000000
# 6 0.000000 0.000000 0.000000 0.000000 0.000000 0.040843
#
#
# Mechanical properties :
#
#
# Convention : Reuss Voigt Hill
#
# Bulk Modulus (GPa) = 27.57524 32.99327 30.28426
# Shear Modulus (GPa) = 16.63057 19.23605 17.93331
#
# Velocity S-wave (km/s) = 3.18598 3.42647 3.30841
# Velocity P-wave (km/s) = 5.51040 5.98262 5.75136
#
# Compressibility (1/GPa) = 0.03626442
#
# Stress axis : x y z
#
# Youngs Moduli (GPa) = 45.73081 45.73081 69.56585
#
# Poissons Ratio (x) = -0.06612 0.43020
# Poissons Ratio (y) = -0.06612 0.43020
# Poissons Ratio (z) = 0.28280 0.28280
#
# Static dielectric constant tensor:
#      x y z
#    x 3.102890 0.000000 0.000000 
#    y 0.000000 3.102890 0.000000 
#    z 0.000000 0.000000 2.717120 
# 
# 
# High freq. dielectric constant tensor:
#      x y z
#    x 1.634340 0.000000 0.000000 
#    y 0.000000 1.634340 0.000000 
#    z 0.000000 0.000000 1.592480 
# 
# From -- ./inp_files/1702.got.cif
#   From: 2010.03.12/outbox.cif.g09.slc.cpg/sg175_1_cif.got.tgz:1702.got - 2010.04.02 06:55:29.
