data_PCOD8325786
_publ_section_title
;
Structure prediction by ZEFSAII (Michael W. Deem and Ramdas Pophale) SiO2 
 PCOD8325786
Probable space group: P 61 2 2
;
_chemical_formula_sum "Si O2"
_cell_formula_units_Z 78
_cell_length_a 17.943290
_cell_length_b 17.943290
_cell_length_c 16.130596
_cell_angle_alpha 90.000000
_cell_angle_beta 90.000000
_cell_angle_gamma 120.000000
_cell_volume 4497.645258
_symmetry_space_group_name_H-M "P 61 2 2"
_symmetry_group_IT_number 178
_symmetry_cell_setting 'hexagonal'
loop_
_space_group_symop_operation_xyz
x,y,z
x-y,x,1/6+z
-y,x-y,1/3+z
-x,-y,1/2+z
-x+y,-x,2/3+z
y,-x+y,5/6+z
x-y,-y,-z
-x,-x+y,2/3-z
y,x,1/3-z
-y,-x,5/6-z
-x+y,y,1/2-z
x,x-y,1/6-z
loop_
_atom_site_type_symbol
_atom_site_label
_atom_site_fract_x
_atom_site_fract_y
_atom_site_fract_z
Si Si1 0.431068 0.666891 0.654633
Si Si2 0.395661 0.962178 0.751196
Si Si3 0.541584 0.270792 0.583334
Si Si4 0.842634 0.509674 0.096695
Si Si5 0.936489 0.556431 0.769024
Si Si6 0.797098 0.222356 0.607245
Si Si7 0.905244 0.704537 0.825513
O O1 0.383707 0.691854 0.583334
O O2 0.367975 0.603323 0.722318
O O3 0.464861 0.614101 0.600632
O O4 0.506308 0.751902 0.699294
O O5 0.466545 0.933090 0.750000
O O6 0.383591 0.977212 0.847273
O O7 0.309881 0.887740 0.706272
O O8 0.429130 0.056699 0.712163
O O9 0.484666 0.273863 0.507984
O O10 0.823669 0.411835 0.083334
O O11 0.813753 0.545816 0.018374
O O12 0.912837 0.622187 0.808652
O O13 0.000000 0.546378 0.833334
O O14 0.826436 0.153846 0.575880
O O15 0.863760 0.727519 0.750000
O O16 0.000000 0.788694 0.833334
#
# Coordination Sequence:
#
# PCOD8325786 Si02
#       7
#    12  12   6  12  12  12  12
#     4  11  21  34  53  77 100 136 178 223 270 322
#     4  11  23  35  54  81 107 141 188 226 269 332
#     4  12  26  38  52  70 112 142 190 234 276 318
#     4  11  24  41  54  77 109 148 185 241 281 319
#     4  10  19  33  52  73 105 138 170 215 274 325
#     4  11  21  37  57  80 110 144 183 224 281 335
#     4  10  18  32  56  85 118 143 170 219 281 344
#
# _framework density 17.342409
#
# number of rings (size 3 to 8) (size 9 to 14) (size 15 to 20)
#    0.000    1.231    4.615    4.154    5.385    0.000 
#    0.000    0.769    0.000    0.000    0.000    0.000 
#    2.308    0.000    0.000    0.000    0.000    0.000 
#
# Total GULP energy -966342.433561 kJ/mol
# GULP energy per Si atom -12389.005558 kJ/mol
# Density = 1.730294 g / cm^3
# Si number density = 17.342409 Si / 1000 Ang^3
#
#
#
# Elastic Constant Matrix: (Units=GPa)
#
#
# Indices 1 2 3 4 5 6 
#
# 1 89.2276 39.0557 30.6091 0.0000 0.0000 0.0000
# 2 39.0557 89.2276 30.6091 0.0000 0.0000 0.0000
# 3 30.6091 30.6091 79.6886 0.0000 0.0000 0.0000
# 4 0.0000 0.0000 0.0000 16.5221 0.0000 0.0000
# 5 0.0000 0.0000 0.0000 0.0000 16.5221 0.0000
# 6 0.0000 0.0000 0.0000 0.0000 0.0000 25.0859
#
#
#
# Elastic Compliance Matrix: (Units=1/GPa)
#
#
# Indices 1 2 3 4 5 6 
#
# 1 0.014738 -0.005193 -0.003666 0.000000 0.000000 0.000000
# 2 -0.005193 0.014738 -0.003666 0.000000 0.000000 0.000000
# 3 -0.003666 -0.003666 0.015365 0.000000 0.000000 0.000000
# 4 0.000000 0.000000 0.000000 0.060525 0.000000 0.000000
# 5 0.000000 0.000000 0.000000 0.000000 0.060525 0.000000
# 6 0.000000 0.000000 0.000000 0.000000 0.000000 0.039863
#
#
# Mechanical properties :
#
#
# Convention : Reuss Voigt Hill
#
# Bulk Modulus (GPa) = 50.53068 50.96575 50.74822
# Shear Modulus (GPa) = 21.06127 22.15071 21.60599
#
# Velocity S-wave (km/s) = 3.48866 3.57775 3.53348
# Velocity P-wave (km/s) = 6.74003 6.82047 6.78037
#
# Compressibility (1/GPa) = 0.01978996
#
# Stress axis : x y z
#
# Youngs Moduli (GPa) = 67.85111 67.85111 65.08165
#
# Poissons Ratio (x) = 0.35237 0.23861
# Poissons Ratio (y) = 0.35237 0.23861
# Poissons Ratio (z) = 0.24876 0.24876
#
# Static dielectric constant tensor:
#      x y z
#    x 4.472430 0.000000 0.000000 
#    y 0.000000 4.472430 0.000000 
#    z 0.000000 0.000000 3.043390 
# 
# 
# High freq. dielectric constant tensor:
#      x y z
#    x 1.651090 0.000000 0.000000 
#    y 0.000000 1.651090 0.000000 
#    z 0.000000 0.000000 1.668290 
# 
# From -- ./inp_files/6973.got.cif
#   From: 2010.03.12/outbox.cif.g09.slc.cpg/sg178_4_cif.got.tgz:6973.got - 2010.04.02 07:02:38.
