data_PCOD8325156
_publ_section_title
;
Structure prediction by ZEFSAII (Michael W. Deem and Ramdas Pophale) SiO2 
 PCOD8325156
Probable space group: P 6/M
;
_chemical_formula_sum "Si O2"
_cell_formula_units_Z 42
_cell_length_a 17.199615
_cell_length_b 17.199615
_cell_length_c 8.556344
_cell_angle_alpha 90.000000
_cell_angle_beta 90.000000
_cell_angle_gamma 120.000000
_cell_volume 2192.079596
_symmetry_space_group_name_H-M "P 6/M"
_symmetry_group_IT_number 175
_symmetry_cell_setting 'hexagonal'
loop_
_space_group_symop_operation_xyz
x,y,z
x-y,x,z
-y,x-y,z
-x,-y,z
-x+y,-x,z
y,-x+y,z
-x,-y,-z
-x+y,-x,-z
y,-x+y,-z
x,y,-z
x-y,x,-z
-y,x-y,-z
loop_
_atom_site_type_symbol
_atom_site_label
_atom_site_fract_x
_atom_site_fract_y
_atom_site_fract_z
Si Si1 0.326605 0.988675 0.172762
Si Si2 0.002796 0.184452 0.000000
Si Si3 0.500372 0.165295 0.817396
Si Si4 0.501769 0.333106 0.680359
O O1 0.407476 0.080847 0.241715
O O2 0.236780 0.996622 0.154428
O O3 0.305243 0.906136 0.285312
O O4 0.354995 0.971322 0.000000
O O5 0.088014 0.172019 0.000000
O O6 0.518439 0.252103 0.721069
O O7 0.580443 0.145689 0.784030
O O8 0.495076 0.183629 0.000000
O O9 0.523967 0.357881 0.500000
#
# Coordination Sequence:
#
# PCOD8325156 Si02
#       4
#    12   6  12  12
#     4   9  21  38  61  82 113 154 198 247 294 359
#     4  10  19  36  63  94 120 144 188 242 295 348
#     4  11  22  39  60  83 114 164 208 251 296 353
#     4  12  24  37  56  86 124 158 203 253 304 356
#
# _framework density 19.159889
#
# number of rings (size 3 to 8) (size 9 to 14) (size 15 to 20)
#    0.857    0.571    0.000    6.714    0.000    5.714 
#    0.000    0.000    0.000    0.000    0.000    0.000 
#    0.000    4.571    0.000    0.000    0.000    0.000 
#
# Total GULP energy -520855.967133 kJ/mol
# GULP energy per Si atom -12401.332551 kJ/mol
# Density = 1.911628 g / cm^3
# Si number density = 19.159889 Si / 1000 Ang^3
#
#
#
# Elastic Constant Matrix: (Units=GPa)
#
#
# Indices 1 2 3 4 5 6 
#
# 1 137.4622 55.3359 16.7308 0.0000 0.0000 0.0000
# 2 55.3359 137.4622 16.7308 0.0000 0.0000 0.0000
# 3 16.7308 16.7308 49.5102 0.0000 0.0000 0.0000
# 4 0.0000 0.0000 0.0000 10.9614 0.0000 0.0000
# 5 0.0000 0.0000 0.0000 0.0000 10.9614 0.0000
# 6 0.0000 0.0000 0.0000 0.0000 0.0000 41.0631
#
#
#
# Elastic Compliance Matrix: (Units=1/GPa)
#
#
# Indices 1 2 3 4 5 6 
#
# 1 0.008843 -0.003333 -0.001862 0.000000 0.000000 0.000000
# 2 -0.003333 0.008843 -0.001862 0.000000 0.000000 0.000000
# 3 -0.001862 -0.001862 0.021456 0.000000 0.000000 0.000000
# 4 0.000000 0.000000 0.000000 0.091229 0.000000 0.000000
# 5 0.000000 0.000000 0.000000 0.000000 0.091229 0.000000
# 6 0.000000 0.000000 0.000000 0.000000 0.000000 0.024353
#
#
# Mechanical properties :
#
#
# Convention : Reuss Voigt Hill
#
# Bulk Modulus (GPa) = 39.95474 55.78106 47.86790
# Shear Modulus (GPa) = 18.62813 28.30630 23.46721
#
# Velocity S-wave (km/s) = 3.12147 3.84783 3.50352
# Velocity P-wave (km/s) = 5.82151 6.99412 6.43458
#
# Compressibility (1/GPa) = 0.02502832
#
# Stress axis : x y z
#
# Youngs Moduli (GPa) = 113.08182 113.08182 46.60644
#
# Poissons Ratio (x) = 0.37693 0.08678
# Poissons Ratio (y) = 0.37693 0.08678
# Poissons Ratio (z) = 0.21055 0.21055
#
# Static dielectric constant tensor:
#      x y z
#    x 3.440110 0.000000 0.000000 
#    y 0.000000 3.440110 0.000000 
#    z 0.000000 0.000000 3.190160 
# 
# 
# High freq. dielectric constant tensor:
#      x y z
#    x 1.750650 0.000000 0.000000 
#    y 0.000000 1.750650 0.000000 
#    z 0.000000 0.000000 1.717100 
# 
# From -- ./inp_files/453.got.cif
#   From: 2010.03.12/outbox.cif.g09.slc.cpg/sg175_1_cif.got.tgz:453.got - 2010.04.02 06:55:29.
