data_PCOD8325782
_publ_section_title
;
Structure prediction by ZEFSAII (Michael W. Deem and Ramdas Pophale) SiO2 
 PCOD8325782
Probable space group: P 61 2 2
;
_chemical_formula_sum "Si O2"
_cell_formula_units_Z 96
_cell_length_a 13.982083
_cell_length_b 13.982083
_cell_length_c 28.658451
_cell_angle_alpha 90.000000
_cell_angle_beta 90.000000
_cell_angle_gamma 120.000000
_cell_volume 4852.070431
_symmetry_space_group_name_H-M "P 61 2 2"
_symmetry_group_IT_number 178
_symmetry_cell_setting 'hexagonal'
loop_
_space_group_symop_operation_xyz
x,y,z
x-y,x,1/6+z
-y,x-y,1/3+z
-x,-y,1/2+z
-x+y,-x,2/3+z
y,-x+y,5/6+z
x-y,-y,-z
-x,-x+y,2/3-z
y,x,1/3-z
-y,-x,5/6-z
-x+y,y,1/2-z
x,x-y,1/6-z
loop_
_atom_site_type_symbol
_atom_site_label
_atom_site_fract_x
_atom_site_fract_y
_atom_site_fract_z
Si Si1 0.275500 0.841088 0.461113
Si Si2 0.208487 0.999825 0.583537
Si Si3 0.770195 0.625770 0.386496
Si Si4 0.482527 0.102457 0.970178
Si Si5 0.475579 0.775486 0.635640
Si Si6 0.027446 0.469991 0.465062
Si Si7 0.275880 0.766397 0.189440
Si Si8 0.038701 0.363381 0.996309
O O1 0.241778 0.758223 0.416667
O O2 0.259294 0.944018 0.449564
O O3 0.199087 0.773870 0.503884
O O4 0.398432 0.884114 0.477791
O O5 0.148656 0.074328 0.583334
O O6 0.132048 0.876800 0.564457
O O7 0.243744 0.994163 0.636397
O O8 0.747495 0.533989 0.424403
O O9 0.666745 0.646271 0.380298
O O10 0.452131 0.078541 0.915627
O O11 0.479170 0.208174 0.990275
O O12 0.393781 0.000000 0.000000
O O13 0.498942 0.749471 0.583334
O O14 0.544595 0.908176 0.643138
O O15 0.342710 0.713176 0.643764
O O16 0.000961 0.569647 0.462417
O O17 0.121256 0.501431 0.504452
O O18 0.168155 0.737450 0.158829
#
# Coordination Sequence:
#
# PCOD8325782 Si02
#       8
#    12  12  12  12  12  12  12  12
#     4  11  20  31  54  89 124 154 200 243 299 372
#     4  10  18  30  51  87 114 148 195 251 291 356
#     4  11  20  35  56  79 123 166 191 242 316 361
#     4  12  23  37  64  88 121 160 199 265 312 344
#     4  11  24  42  65  96 122 162 216 255 305 374
#     4  11  24  44  58  91 124 156 214 254 300 378
#     4  10  26  39  59  87 127 164 200 252 303 377
#     4  10  21  38  55  85 120 157 202 240 299 374
#
# _framework density 19.78537
#
# number of rings (size 3 to 8) (size 9 to 14) (size 15 to 20)
#    0.000    1.250    5.000    1.875    7.000    1.000 
#    0.000    2.500    0.000    0.750    3.250    0.000 
#    0.000    0.000    0.000    0.000    0.000    0.000 
#
# Total GULP energy -1189819.458080 kJ/mol
# GULP energy per Si atom -12393.952688 kJ/mol
# Density = 1.974034 g / cm^3
# Si number density = 19.785370 Si / 1000 Ang^3
#
#
#
# Elastic Constant Matrix: (Units=GPa)
#
#
# Indices 1 2 3 4 5 6 
#
# 1 80.7637 31.2747 35.1809 0.0000 0.0000 0.0000
# 2 31.2747 80.7637 35.1809 0.0000 0.0000 0.0000
# 3 35.1809 35.1809 67.8868 0.0000 0.0000 0.0000
# 4 0.0000 0.0000 0.0000 25.7983 0.0000 0.0000
# 5 0.0000 0.0000 0.0000 0.0000 25.7983 0.0000
# 6 0.0000 0.0000 0.0000 0.0000 0.0000 24.7445
#
#
#
# Elastic Compliance Matrix: (Units=1/GPa)
#
#
# Indices 1 2 3 4 5 6 
#
# 1 0.016719 -0.003487 -0.006857 0.000000 0.000000 0.000000
# 2 -0.003487 0.016719 -0.006857 0.000000 0.000000 0.000000
# 3 -0.006857 -0.006857 0.021838 0.000000 0.000000 0.000000
# 4 0.000000 0.000000 0.000000 0.038762 0.000000 0.000000
# 5 0.000000 0.000000 0.000000 0.000000 0.038762 0.000000
# 6 0.000000 0.000000 0.000000 0.000000 0.000000 0.040413
#
#
# Mechanical properties :
#
#
# Convention : Reuss Voigt Hill
#
# Bulk Modulus (GPa) = 47.90938 48.07638 47.99288
# Shear Modulus (GPa) = 23.30196 23.78674 23.54435
#
# Velocity S-wave (km/s) = 3.43554 3.47109 3.45336
# Velocity P-wave (km/s) = 6.32490 6.35739 6.34116
#
# Compressibility (1/GPa) = 0.02087274
#
# Stress axis : x y z
#
# Youngs Moduli (GPa) = 59.81145 59.81145 45.79264
#
# Poissons Ratio (x) = 0.20858 0.31401
# Poissons Ratio (y) = 0.20858 0.31401
# Poissons Ratio (z) = 0.41014 0.41014
#
# Static dielectric constant tensor:
#      x y z
#    x 3.604430 0.000000 0.000000 
#    y 0.000000 3.604430 0.000000 
#    z 0.000000 0.000000 3.529250 
# 
# 
# High freq. dielectric constant tensor:
#      x y z
#    x 1.756570 0.000000 0.000000 
#    y 0.000000 1.756570 0.000000 
#    z 0.000000 0.000000 1.768980 
# 
# From -- ./inp_files/9033.got.cif
#   From: 2010.03.12/outbox.cif.g09.slc.cpg/sg178_5_cif.got.tgz:9033.got - 2010.04.02 07:02:38.
