data_PCOD8325741
_publ_section_title
;
Structure prediction by ZEFSAII (Michael W. Deem and Ramdas Pophale) SiO2 
 PCOD8325741
Probable space group: P 6 2 2
;
_chemical_formula_sum "Si O2"
_cell_formula_units_Z 78
_cell_length_a 23.677129
_cell_length_b 23.677129
_cell_length_c 7.913848
_cell_angle_alpha 90.000000
_cell_angle_beta 90.000000
_cell_angle_gamma 120.000000
_cell_volume 3842.168587
_symmetry_space_group_name_H-M "P 6 2 2"
_symmetry_group_IT_number 177
_symmetry_cell_setting 'hexagonal'
loop_
_space_group_symop_operation_xyz
x,y,z
x-y,x,z
-y,x-y,z
-x,-y,z
-x+y,-x,z
y,-x+y,z
x-y,-y,-z
-x,-x+y,-z
y,x,-z
-y,-x,-z
-x+y,y,-z
x,x-y,-z
loop_
_atom_site_type_symbol
_atom_site_label
_atom_site_fract_x
_atom_site_fract_y
_atom_site_fract_z
Si Si1 0.741762 0.740815 0.700009
Si Si2 0.870728 0.870891 0.701012
Si Si3 0.399892 0.103596 0.194192
Si Si4 0.997392 0.436631 0.199617
Si Si5 0.582868 0.291434 0.000000
Si Si6 0.514245 0.755814 0.314031
Si Si7 0.101520 0.399194 0.199319
O O1 0.739424 0.739424 0.500000
O O2 0.805714 0.806142 0.766474
O O3 0.677382 0.738981 0.772225
O O4 0.745117 0.677999 0.764336
O O5 0.935230 0.870695 0.769092
O O6 0.871345 0.871345 0.500000
O O7 0.438962 0.067590 0.253451
O O8 0.432933 0.168603 0.300521
O O9 0.410893 0.120239 0.996741
O O10 0.000000 0.500000 0.284542
O O11 0.056965 0.428503 0.261082
O O12 0.000000 0.443526 0.000000
O O13 0.629455 0.258910 0.000000
O O14 0.540172 0.270980 0.830830
O O15 0.480674 0.740337 0.500000
O O16 0.558538 0.723045 0.308831
#
# Coordination Sequence:
#
# PCOD8325741 Si02
#       7
#    12  12  12  12   6  12  12
#     4  10  20  33  55  90 130 167 212 272 333 398
#     4   9  18  32  51  78 115 166 223 276 335 399
#     4  10  20  37  59  90 128 167 211 263 328 397
#     4   8  16  32  57  88 117 156 200 251 313 387
#     4  10  26  50  70  92 136 179 218 273 326 394
#     4  12  24  42  70 100 130 175 226 277 328 385
#     4  10  20  37  59  90 128 167 211 263 328 397
#
# _framework density 20.301034999999999
#
# number of rings (size 3 to 8) (size 9 to 14) (size 15 to 20)
#    0.154    2.000    1.538    2.462    2.154    2.462 
#    0.000    0.000    0.000   15.692    0.000    0.000 
#    0.000    4.923    0.000    0.000    0.000    0.000 
#
# Total GULP energy -966868.538553 kJ/mol
# GULP energy per Si atom -12395.750494 kJ/mol
# Density = 2.025483 g / cm^3
# Si number density = 20.301035 Si / 1000 Ang^3
#
#
#
# Elastic Constant Matrix: (Units=GPa)
#
#
# Indices 1 2 3 4 5 6 
#
# 1 110.7025 61.3854 26.4235 0.0000 0.0000 0.0000
# 2 61.3854 110.7025 26.4235 0.0000 0.0000 0.0000
# 3 26.4235 26.4235 95.1382 0.0000 0.0000 0.0000
# 4 0.0000 0.0000 0.0000 21.4278 0.0000 0.0000
# 5 0.0000 0.0000 0.0000 0.0000 21.4278 0.0000
# 6 0.0000 0.0000 0.0000 0.0000 0.0000 24.6585
#
#
#
# Elastic Compliance Matrix: (Units=1/GPa)
#
#
# Indices 1 2 3 4 5 6 
#
# 1 0.013315 -0.006962 -0.001764 0.000000 0.000000 0.000000
# 2 -0.006962 0.013315 -0.001764 0.000000 0.000000 0.000000
# 3 -0.001764 -0.001764 0.011491 0.000000 0.000000 0.000000
# 4 0.000000 0.000000 0.000000 0.046668 0.000000 0.000000
# 5 0.000000 0.000000 0.000000 0.000000 0.046668 0.000000
# 6 0.000000 0.000000 0.000000 0.000000 0.000000 0.040554
#
#
# Mechanical properties :
#
#
# Convention : Reuss Voigt Hill
#
# Bulk Modulus (GPa) = 58.34620 60.55646 59.45133
# Shear Modulus (GPa) = 25.16278 26.99022 26.07650
#
# Velocity S-wave (km/s) = 3.52445 3.65019 3.58787
# Velocity P-wave (km/s) = 6.73537 6.90356 6.81998
#
# Compressibility (1/GPa) = 0.01713908
#
# Stress axis : x y z
#
# Youngs Moduli (GPa) = 75.10384 75.10384 87.02374
#
# Poissons Ratio (x) = 0.52288 0.15355
# Poissons Ratio (y) = 0.52288 0.15355
# Poissons Ratio (z) = 0.13251 0.13251
#
# Static dielectric constant tensor:
#      x y z
#    x 3.977270 0.000000 0.000000 
#    y 0.000000 3.977270 0.000000 
#    z 0.000000 0.000000 3.486510 
# 
# 
# High freq. dielectric constant tensor:
#      x y z
#    x 1.796640 0.000000 0.000000 
#    y 0.000000 1.796640 0.000000 
#    z 0.000000 0.000000 1.778340 
# 
# From -- ./inp_files/1607.got.cif
#   From: 2010.03.12/outbox.cif.g09.slc.cpg/sg177_1_cif.got.tgz:1607.got - 2010.04.02 07:00:27.
