data_PCOD8325892
_publ_section_title
;
Structure prediction by ZEFSAII (Michael W. Deem and Ramdas Pophale) SiO2 
 PCOD8325892
Probable space group: P 61 2 2
;
_chemical_formula_sum "Si O2"
_cell_formula_units_Z 84
_cell_length_a 21.519095
_cell_length_b 21.519095
_cell_length_c 10.395946
_cell_angle_alpha 90.000000
_cell_angle_beta 90.000000
_cell_angle_gamma 120.000000
_cell_volume 4169.103265
_symmetry_space_group_name_H-M "P 61 2 2"
_symmetry_group_IT_number 178
_symmetry_cell_setting 'hexagonal'
loop_
_space_group_symop_operation_xyz
x,y,z
x-y,x,1/6+z
-y,x-y,1/3+z
-x,-y,1/2+z
-x+y,-x,2/3+z
y,-x+y,5/6+z
x-y,-y,-z
-x,-x+y,2/3-z
y,x,1/3-z
-y,-x,5/6-z
-x+y,y,1/2-z
x,x-y,1/6-z
loop_
_atom_site_type_symbol
_atom_site_label
_atom_site_fract_x
_atom_site_fract_y
_atom_site_fract_z
Si Si1 0.000000 0.436060 0.833334
Si Si2 0.601592 0.203183 0.750000
Si Si3 0.855177 0.422882 0.817694
Si Si4 0.186102 0.839996 0.565949
Si Si5 0.731187 0.487169 0.102694
Si Si6 0.250988 0.307985 0.066196
Si Si7 0.707272 0.144550 0.419612
Si Si8 0.640975 0.957879 0.805865
O O1 0.061726 0.514973 0.867507
O O2 0.004541 0.393377 0.709222
O O3 0.554889 0.154615 0.633304
O O4 0.682835 0.248763 0.693744
O O5 0.813214 0.350726 0.731569
O O6 0.832549 0.481115 0.783140
O O7 0.162930 0.837071 0.416667
O O8 0.213026 0.783111 0.593867
O O9 0.121999 0.822643 0.670425
O O10 0.251820 0.920123 0.590726
O O11 0.734555 0.469110 0.250000
O O12 0.245586 0.245586 0.166667
O O13 0.293933 0.383312 0.141260
O O14 0.292634 0.307136 0.941521
O O15 0.785023 0.214978 0.416667
O O16 0.687870 0.106213 0.281477
#
# Coordination Sequence:
#
# PCOD8325892 Si02
#       8
#     6   6  12  12  12  12  12  12
#     4  12  26  40  56  90 124 158 212 276 336 408
#     4  10  22  38  62  76 110 148 202 264 328 392
#     4  11  25  38  57  86 112 154 206 271 340 404
#     4  11  20  39  65  88 125 164 211 263 327 401
#     4   9  20  38  53  80 106 150 199 261 328 392
#     4  10  23  39  63  90 120 160 215 262 325 395
#     4  11  24  43  63  86 119 166 214 274 345 414
#     4  11  24  41  63  89 120 166 212 263 331 403
#
# _framework density 20.148216999999999
#
# number of rings (size 3 to 8) (size 9 to 14) (size 15 to 20)
#    0.000    1.429    2.857    1.714   10.000    0.571 
#    0.000    0.000    0.000    0.000    0.000    0.000 
#    0.000    0.000    0.000    0.000   29.857    2.143 
#
# Total GULP energy -1040843.209631 kJ/mol
# GULP energy per Si atom -12390.990591 kJ/mol
# Density = 2.010236 g / cm^3
# Si number density = 20.148217 Si / 1000 Ang^3
#
#
#
# Elastic Constant Matrix: (Units=GPa)
#
#
# Indices 1 2 3 4 5 6 
#
# 1 57.9667 19.9601 7.2632 0.0000 0.0000 0.0000
# 2 19.9601 57.9667 7.2632 0.0000 0.0000 0.0000
# 3 7.2632 7.2632 74.1974 0.0000 0.0000 0.0000
# 4 0.0000 0.0000 0.0000 30.3968 0.0000 0.0000
# 5 0.0000 0.0000 0.0000 0.0000 30.3968 0.0000
# 6 0.0000 0.0000 0.0000 0.0000 0.0000 19.0033
#
#
#
# Elastic Compliance Matrix: (Units=1/GPa)
#
#
# Indices 1 2 3 4 5 6 
#
# 1 0.019691 -0.006620 -0.001280 0.000000 0.000000 0.000000
# 2 -0.006620 0.019691 -0.001280 0.000000 0.000000 0.000000
# 3 -0.001280 -0.001280 0.013728 0.000000 0.000000 0.000000
# 4 0.000000 0.000000 0.000000 0.032898 0.000000 0.000000
# 5 0.000000 0.000000 0.000000 0.000000 0.032898 0.000000
# 6 0.000000 0.000000 0.000000 0.000000 0.000000 0.052622
#
#
# Mechanical properties :
#
#
# Convention : Reuss Voigt Hill
#
# Bulk Modulus (GPa) = 28.77526 28.78933 28.78230
# Shear Modulus (GPa) = 24.81741 26.33565 25.57653
#
# Velocity S-wave (km/s) = 3.51343 3.61930 3.56676
# Velocity P-wave (km/s) = 5.54722 5.63787 5.59273
#
# Compressibility (1/GPa) = 0.03475207
#
# Stress axis : x y z
#
# Youngs Moduli (GPa) = 50.78429 50.78429 72.84346
#
# Poissons Ratio (x) = 0.33619 0.09321
# Poissons Ratio (y) = 0.33619 0.09321
# Poissons Ratio (z) = 0.06498 0.06498
#
# Static dielectric constant tensor:
#      x y z
#    x 3.627580 0.000000 0.000000 
#    y 0.000000 3.627580 0.000000 
#    z 0.000000 0.000000 3.922920 
# 
# 
# High freq. dielectric constant tensor:
#      x y z
#    x 1.764730 0.000000 0.000000 
#    y 0.000000 1.764730 0.000000 
#    z 0.000000 0.000000 1.803190 
# 
# From -- ./inp_files/4832.got.cif
#   From: 2010.03.12/outbox.cif.g09.slc.cpg/sg178_3_cif.got.tgz:4832.got - 2010.04.02 07:02:38.
