data_PCOD8325622
_publ_section_title
;
Structure prediction by ZEFSAII (Michael W. Deem and Ramdas Pophale) SiO2 
 PCOD8325622
Probable space group: P 63/M
;
_chemical_formula_sum "Si O2"
_cell_formula_units_Z 60
_cell_length_a 15.934870
_cell_length_b 15.934870
_cell_length_c 12.759645
_cell_angle_alpha 90.000000
_cell_angle_beta 90.000000
_cell_angle_gamma 120.000000
_cell_volume 2805.861776
_symmetry_space_group_name_H-M "P 63/M"
_symmetry_group_IT_number 176
_symmetry_cell_setting 'hexagonal'
loop_
_space_group_symop_operation_xyz
x,y,z
x-y,x,1/2+z
-y,x-y,z
-x,-y,1/2+z
-x+y,-x,z
y,-x+y,1/2+z
-x,-y,-z
-x+y,-x,1/2-z
y,-x+y,-z
x,y,1/2-z
x-y,x,-z
-y,x-y,1/2-z
loop_
_atom_site_type_symbol
_atom_site_label
_atom_site_fract_x
_atom_site_fract_y
_atom_site_fract_z
Si Si1 0.854113 0.507666 0.434360
Si Si2 0.834763 0.038630 0.991903
Si Si3 0.320567 0.364908 0.065972
Si Si4 0.608251 0.767094 0.366370
Si Si5 0.528625 0.847660 0.630767
O O1 0.852049 0.534283 0.556563
O O2 0.820999 0.396115 0.418703
O O3 0.784595 0.534234 0.369019
O O4 0.967028 0.570833 0.395910
O O5 0.751847 0.012413 0.078985
O O6 0.812891 0.091596 0.896592
O O7 0.939067 0.109140 0.044806
O O8 0.271200 0.415208 0.130967
O O9 0.317417 0.387607 0.941220
O O10 0.589753 0.723717 0.250000
O O11 0.540195 0.885701 0.750000
#
# Coordination Sequence:
#
# PCOD8325622 Si02
#       5
#    12  12  12  12  12
#     4  10  21  39  58  85 117 143 180 235 283 326
#     4   9  17  33  55  79 112 151 187 233 283 321
#     4   9  20  37  55  81 116 150 188 229 271 328
#     4   9  19  36  58  82 112 151 188 225 276 337
#     4  11  22  37  61  87 111 145 186 230 281 332
#
# _framework density 21.383804999999999
#
# number of rings (size 3 to 8) (size 9 to 14) (size 15 to 20)
#    0.000    2.400    0.000    3.000    0.000    4.800 
#    0.000    8.000    0.000    0.000    0.000    0.000 
#    0.000    0.000    0.000    0.000    0.000    0.000 
#
# Total GULP energy -743478.821910 kJ/mol
# GULP energy per Si atom -12391.313698 kJ/mol
# Density = 2.133513 g / cm^3
# Si number density = 21.383805 Si / 1000 Ang^3
#
#
#
# Elastic Constant Matrix: (Units=GPa)
#
#
# Indices 1 2 3 4 5 6 
#
# 1 83.4699 11.9190 18.0491 0.0000 0.0000 0.0000
# 2 11.9190 83.4699 18.0491 0.0000 0.0000 0.0000
# 3 18.0491 18.0491 105.9458 0.0000 0.0000 0.0000
# 4 0.0000 0.0000 0.0000 12.3869 0.0000 0.0000
# 5 0.0000 0.0000 0.0000 0.0000 12.3869 0.0000
# 6 0.0000 0.0000 0.0000 0.0000 0.0000 35.7755
#
#
#
# Elastic Compliance Matrix: (Units=1/GPa)
#
#
# Indices 1 2 3 4 5 6 
#
# 1 0.012591 -0.001385 -0.001909 0.000000 0.000000 0.000000
# 2 -0.001385 0.012591 -0.001909 0.000000 0.000000 0.000000
# 3 -0.001909 -0.001909 0.010089 0.000000 0.000000 0.000000
# 4 0.000000 0.000000 0.000000 0.080731 0.000000 0.000000
# 5 0.000000 0.000000 0.000000 0.000000 0.080731 0.000000
# 6 0.000000 0.000000 0.000000 0.000000 0.000000 0.027952
#
#
# Mechanical properties :
#
#
# Convention : Reuss Voigt Hill
#
# Bulk Modulus (GPa) = 40.21759 40.99112 40.60436
# Shear Modulus (GPa) = 20.54409 27.10107 23.82258
#
# Velocity S-wave (km/s) = 3.10293 3.56387 3.34136
# Velocity P-wave (km/s) = 5.62902 6.01213 5.82373
#
# Compressibility (1/GPa) = 0.02486474
#
# Stress axis : x y z
#
# Youngs Moduli (GPa) = 79.42210 79.42210 99.11545
#
# Poissons Ratio (x) = 0.11001 0.18922
# Poissons Ratio (y) = 0.11001 0.18922
# Poissons Ratio (z) = 0.15162 0.15162
#
# Static dielectric constant tensor:
#      x y z
#    x 4.018450 0.000000 0.000000 
#    y 0.000000 4.018450 0.000000 
#    z 0.000000 0.000000 3.392370 
# 
# 
# High freq. dielectric constant tensor:
#      x y z
#    x 1.844810 0.000000 0.000000 
#    y 0.000000 1.844810 0.000000 
#    z 0.000000 0.000000 1.791580 
# 
# From -- ./inp_files/1858.got.cif
#   From: 2010.06.25/outbox.cif.g09.slc.cpg/sg176_1_cif.got.tgz:1858.got - 2010.06.28 12:15:01.
