data_PCOD8325140
_publ_section_title
;
Structure prediction by ZEFSAII (Michael W. Deem and Ramdas Pophale) SiO2 
 PCOD8325140
Probable space group: P 6/M
;
_chemical_formula_sum "Si O2"
_cell_formula_units_Z 72
_cell_length_a 22.809427
_cell_length_b 22.809427
_cell_length_c 8.896331
_cell_angle_alpha 90.000000
_cell_angle_beta 90.000000
_cell_angle_gamma 120.000000
_cell_volume 4008.393190
_symmetry_space_group_name_H-M "P 6/M"
_symmetry_group_IT_number 175
_symmetry_cell_setting 'hexagonal'
loop_
_space_group_symop_operation_xyz
x,y,z
x-y,x,z
-y,x-y,z
-x,-y,z
-x+y,-x,z
y,-x+y,z
-x,-y,-z
-x+y,-x,-z
y,-x+y,-z
x,y,-z
x-y,x,-z
-y,x-y,-z
loop_
_atom_site_type_symbol
_atom_site_label
_atom_site_fract_x
_atom_site_fract_y
_atom_site_fract_z
Si Si1 0.000275 0.256602 0.176059
Si Si2 0.250552 0.872032 0.675145
Si Si3 0.528472 0.596590 0.323690
Si Si4 0.132769 0.743068 0.174191
Si Si5 0.130999 0.140636 0.328110
Si Si6 0.075287 0.592192 0.175313
O O1 0.069517 0.310112 0.253782
O O2 0.984252 0.181941 0.215677
O O3 0.937101 0.263580 0.233768
O O4 0.010492 0.269593 0.000000
O O5 0.238668 0.873870 0.500000
O O6 0.324544 0.883052 0.711776
O O7 0.196381 0.798959 0.735831
O O8 0.527490 0.582478 0.500000
O O9 0.452233 0.555220 0.257988
O O10 0.574987 0.571849 0.242599
O O11 0.128731 0.671168 0.201185
O O12 0.142933 0.763804 0.000000
O O13 0.057592 0.128870 0.292955
O O14 0.152820 0.163856 0.500000
O O15 0.065333 0.574136 0.000000
#
# Coordination Sequence:
#
# PCOD8325140 Si02
#       6
#    12  12  12  12  12  12
#     4  11  22  37  54  76 108 142 178 227 279 328
#     4  11  23  36  55  82 113 149 185 223 272 326
#     4  10  20  34  54  83 113 142 177 222 270 321
#     4  10  22  37  55  81 113 148 186 227 272 322
#     4  10  21  37  55  74  97 131 177 227 278 333
#     4  10  19  34  57  83 109 143 180 220 270 321
#
# _framework density 17.962311
#
# number of rings (size 3 to 8) (size 9 to 14) (size 15 to 20)
#    0.000    1.667    1.667    4.167    0.000    8.667 
#    0.000    0.000    0.000    1.667    0.000    0.000 
#    0.000    0.000    0.000    0.000    0.000    0.000 
#
# Total GULP energy -893012.241314 kJ/mol
# GULP energy per Si atom -12402.947796 kJ/mol
# Density = 1.792143 g / cm^3
# Si number density = 17.962311 Si / 1000 Ang^3
#
#
#
# Elastic Constant Matrix: (Units=GPa)
#
#
# Indices 1 2 3 4 5 6 
#
# 1 90.5827 38.0279 36.9694 0.0000 0.0000 0.0000
# 2 38.0279 90.5827 36.9694 0.0000 0.0000 0.0000
# 3 36.9694 36.9694 73.2377 0.0000 0.0000 0.0000
# 4 0.0000 0.0000 0.0000 31.2643 0.0000 0.0000
# 5 0.0000 0.0000 0.0000 0.0000 31.2643 0.0000
# 6 0.0000 0.0000 0.0000 0.0000 0.0000 26.2774
#
#
#
# Elastic Compliance Matrix: (Units=1/GPa)
#
#
# Indices 1 2 3 4 5 6 
#
# 1 0.014991 -0.004037 -0.005530 0.000000 0.000000 0.000000
# 2 -0.004037 0.014991 -0.005530 0.000000 0.000000 0.000000
# 3 -0.005530 -0.005530 0.019237 0.000000 0.000000 0.000000
# 4 0.000000 0.000000 0.000000 0.031985 0.000000 0.000000
# 5 0.000000 0.000000 0.000000 0.000000 0.031985 0.000000
# 6 0.000000 0.000000 0.000000 0.000000 0.000000 0.038056
#
#
# Mechanical properties :
#
#
# Convention : Reuss Voigt Hill
#
# Bulk Modulus (GPa) = 52.55683 53.14849 52.85266
# Shear Modulus (GPa) = 26.62697 27.25694 26.94195
#
# Velocity S-wave (km/s) = 3.85435 3.89967 3.87708
# Velocity P-wave (km/s) = 7.00935 7.06610 7.03778
#
# Compressibility (1/GPa) = 0.01902702
#
# Stress axis : x y z
#
# Youngs Moduli (GPa) = 66.70624 66.70624 51.98388
#
# Poissons Ratio (x) = 0.26927 0.28745
# Poissons Ratio (y) = 0.26927 0.28745
# Poissons Ratio (z) = 0.36886 0.36886
#
# Static dielectric constant tensor:
#      x y z
#    x 3.350610 0.000000 0.000000 
#    y 0.000000 3.350610 0.000000 
#    z 0.000000 0.000000 3.394070 
# 
# 
# High freq. dielectric constant tensor:
#      x y z
#    x 1.691190 0.000000 0.000000 
#    y 0.000000 1.691190 0.000000 
#    z 0.000000 0.000000 1.705490 
# 
# From -- ./inp_files/1166.got.cif
#   From: 2010.03.12/outbox.cif.g09.slc.cpg/sg175_1_cif.got.tgz:1166.got - 2010.04.02 06:55:29.
