data_PCOD8325812
_publ_section_title
;
Structure prediction by ZEFSAII (Michael W. Deem and Ramdas Pophale) SiO2 
 PCOD8325812
Probable space group: P 61 2 2
;
_chemical_formula_sum "Si O2"
_cell_formula_units_Z 84
_cell_length_a 17.899012
_cell_length_b 17.899012
_cell_length_c 14.734843
_cell_angle_alpha 90.000000
_cell_angle_beta 90.000000
_cell_angle_gamma 120.000000
_cell_volume 4088.220041
_symmetry_space_group_name_H-M "P 61 2 2"
_symmetry_group_IT_number 178
_symmetry_cell_setting 'hexagonal'
loop_
_space_group_symop_operation_xyz
x,y,z
x-y,x,1/6+z
-y,x-y,1/3+z
-x,-y,1/2+z
-x+y,-x,2/3+z
y,-x+y,5/6+z
x-y,-y,-z
-x,-x+y,2/3-z
y,x,1/3-z
-y,-x,5/6-z
-x+y,y,1/2-z
x,x-y,1/6-z
loop_
_atom_site_type_symbol
_atom_site_label
_atom_site_fract_x
_atom_site_fract_y
_atom_site_fract_z
Si Si1 0.356915 0.378383 0.860904
Si Si2 0.929756 0.222957 0.767566
Si Si3 0.394034 0.776303 0.895248
Si Si4 0.726562 0.783806 0.848086
Si Si5 0.861622 0.165556 0.520443
Si Si6 0.476393 0.322751 0.922365
Si Si7 0.529880 0.685268 0.122336
O O1 0.302484 0.284029 0.815566
O O2 0.299173 0.364291 0.951440
O O3 0.451489 0.394897 0.889001
O O4 0.365404 0.453734 0.793515
O O5 0.867283 0.125616 0.737254
O O6 0.879010 0.264582 0.816775
O O7 0.000000 0.220442 0.833334
O O8 0.322825 0.677176 0.916667
O O9 0.348229 0.826950 0.854133
O O10 0.459625 0.777184 0.818532
O O11 0.447740 0.828911 0.984222
O O12 0.724619 0.801363 0.740339
O O13 0.807203 0.768879 0.861637
O O14 0.836841 0.163160 0.416667
O O15 0.840775 0.231705 0.572844
O O16 0.504519 0.752260 0.083334
#
# Coordination Sequence:
#
# PCOD8325812 Si02
#       7
#    12  12  12  12  12  12  12
#     4  10  20  38  69  94 126 170 202 283 321 369
#     4  10  19  35  61 100 131 162 202 268 332 386
#     4  11  24  41  66  88 125 176 207 260 334 399
#     4  11  19  37  62  97 122 162 215 269 319 375
#     4  11  23  40  66  89 123 172 224 273 305 384
#     4  10  22  43  68  83 128 166 220 263 325 375
#     4  11  21  35  68  99 131 156 216 262 334 401
#
# _framework density 20.54684
#
# number of rings (size 3 to 8) (size 9 to 14) (size 15 to 20)
#    0.000    1.429    5.714    0.857    2.000    0.000 
#    0.000    0.000   47.143    3.429    0.000    0.000 
#    0.000    0.000    0.000    0.000    0.000    0.000 
#
# Total GULP energy -1041005.215145 kJ/mol
# GULP energy per Si atom -12392.919228 kJ/mol
# Density = 2.050007 g / cm^3
# Si number density = 20.546840 Si / 1000 Ang^3
#
#
#
# Elastic Constant Matrix: (Units=GPa)
#
#
# Indices 1 2 3 4 5 6 
#
# 1 88.4845 47.2589 45.6621 0.0000 0.0000 0.0000
# 2 47.2589 88.4845 45.6621 0.0000 0.0000 0.0000
# 3 45.6621 45.6621 120.8394 0.0000 0.0000 0.0000
# 4 0.0000 0.0000 0.0000 42.0468 0.0000 0.0000
# 5 0.0000 0.0000 0.0000 0.0000 42.0468 0.0000
# 6 0.0000 0.0000 0.0000 0.0000 0.0000 20.6128
#
#
#
# Elastic Compliance Matrix: (Units=1/GPa)
#
#
# Indices 1 2 3 4 5 6 
#
# 1 0.017067 -0.007189 -0.003733 0.000000 0.000000 0.000000
# 2 -0.007189 0.017067 -0.003733 0.000000 0.000000 0.000000
# 3 -0.003733 -0.003733 0.011096 0.000000 0.000000 0.000000
# 4 0.000000 0.000000 0.000000 0.023783 0.000000 0.000000
# 5 0.000000 0.000000 0.000000 0.000000 0.023783 0.000000
# 6 0.000000 0.000000 0.000000 0.000000 0.000000 0.048514
#
#
# Mechanical properties :
#
#
# Convention : Reuss Voigt Hill
#
# Bulk Modulus (GPa) = 62.80670 63.88609 63.34640
# Shear Modulus (GPa) = 28.42076 31.55627 29.98851
#
# Velocity S-wave (km/s) = 3.72320 3.92321 3.82451
# Velocity P-wave (km/s) = 7.00834 7.18905 7.09927
#
# Compressibility (1/GPa) = 0.01592187
#
# Stress axis : x y z
#
# Youngs Moduli (GPa) = 58.59107 58.59107 90.11926
#
# Poissons Ratio (x) = 0.42123 0.33639
# Poissons Ratio (y) = 0.42123 0.33639
# Poissons Ratio (z) = 0.21870 0.21870
#
# Static dielectric constant tensor:
#      x y z
#    x 3.687460 0.000000 0.000000 
#    y 0.000000 3.687460 0.000000 
#    z 0.000000 0.000000 4.219780 
# 
# 
# High freq. dielectric constant tensor:
#      x y z
#    x 1.783080 0.000000 0.000000 
#    y 0.000000 1.783080 0.000000 
#    z 0.000000 0.000000 1.823570 
# 
# From -- ./inp_files/6020.got.cif
#   From: 2010.03.12/outbox.cif.g09.slc.cpg/sg178_4_cif.got.tgz:6020.got - 2010.04.02 07:02:38.
