data_PCOD8325045
_publ_section_title
;
Structure prediction by ZEFSAII (Michael W. Deem and Ramdas Pophale) SiO2 
 PCOD8325045
Probable space group: P 6/M
;
_chemical_formula_sum "Si O2"
_cell_formula_units_Z 42
_cell_length_a 15.002817
_cell_length_b 15.002817
_cell_length_c 10.972373
_cell_angle_alpha 90.000000
_cell_angle_beta 90.000000
_cell_angle_gamma 120.000000
_cell_volume 2138.832715
_symmetry_space_group_name_H-M "P 6/M"
_symmetry_group_IT_number 175
_symmetry_cell_setting 'hexagonal'
loop_
_space_group_symop_operation_xyz
x,y,z
x-y,x,z
-y,x-y,z
-x,-y,z
-x+y,-x,z
y,-x+y,z
-x,-y,-z
-x+y,-x,-z
y,-x+y,-z
x,y,-z
x-y,x,-z
-y,x-y,-z
loop_
_atom_site_type_symbol
_atom_site_label
_atom_site_fract_x
_atom_site_fract_y
_atom_site_fract_z
Si Si1 0.762344 0.457923 0.500000
Si Si2 0.760109 0.895394 0.359969
Si Si3 0.770456 0.222599 0.748569
Si Si4 0.560173 0.117119 0.139803
O O1 0.639897 0.419590 0.500000
O O2 0.812406 0.523627 0.619996
O O3 0.821913 0.836417 0.334218
O O4 0.719435 0.878694 0.500000
O O5 0.667604 0.857079 0.261285
O O6 0.682454 0.160140 0.848765
O O7 0.819517 0.343129 0.776173
O O8 0.500000 0.000000 0.183933
O O9 0.533949 0.126739 0.000000
#
# Coordination Sequence:
#
# PCOD8325045 Si02
#       4
#     6  12  12  12
#     4  10  18  34  52  84 114 152 186 218 278 346
#     4  10  21  36  56  83 116 153 193 237 287 338
#     4  12  20  38  58  84 117 152 190 233 280 347
#     4  11  24  39  58  84 113 151 194 234 285 340
#
# _framework density 19.636879
#
# number of rings (size 3 to 8) (size 9 to 14) (size 15 to 20)
#    0.286    0.857    4.286    3.429    0.000    1.143 
#    0.000    1.429    0.000    0.000    0.000    0.000 
#    0.000   13.714    0.000    0.000    0.000    0.000 
#
# Total GULP energy -520762.337627 kJ/mol
# GULP energy per Si atom -12399.103277 kJ/mol
# Density = 1.959219 g / cm^3
# Si number density = 19.636879 Si / 1000 Ang^3
#
#
#
# Elastic Constant Matrix: (Units=GPa)
#
#
# Indices 1 2 3 4 5 6 
#
# 1 96.4460 24.1560 22.2267 0.0000 0.0000 0.0000
# 2 24.1560 96.4460 22.2267 0.0000 0.0000 0.0000
# 3 22.2267 22.2267 51.4375 0.0000 0.0000 0.0000
# 4 0.0000 0.0000 0.0000 20.3749 0.0000 0.0000
# 5 0.0000 0.0000 0.0000 0.0000 20.3749 0.0000
# 6 0.0000 0.0000 0.0000 0.0000 0.0000 36.1450
#
#
#
# Elastic Compliance Matrix: (Units=1/GPa)
#
#
# Indices 1 2 3 4 5 6 
#
# 1 0.011848 -0.001985 -0.004262 0.000000 0.000000 0.000000
# 2 -0.001985 0.011848 -0.004262 0.000000 0.000000 0.000000
# 3 -0.004262 -0.004262 0.023124 0.000000 0.000000 0.000000
# 4 0.000000 0.000000 0.000000 0.049080 0.000000 0.000000
# 5 0.000000 0.000000 0.000000 0.000000 0.049080 0.000000
# 6 0.000000 0.000000 0.000000 0.000000 0.000000 0.027666
#
#
# Mechanical properties :
#
#
# Convention : Reuss Voigt Hill
#
# Bulk Modulus (GPa) = 38.75607 42.39425 40.57516
# Shear Modulus (GPa) = 24.72008 27.09362 25.90685
#
# Velocity S-wave (km/s) = 3.55189 3.71850 3.63615
# Velocity P-wave (km/s) = 6.04983 6.33027 6.19164
#
# Compressibility (1/GPa) = 0.02580241
#
# Stress axis : x y z
#
# Youngs Moduli (GPa) = 84.40325 84.40325 43.24476
#
# Poissons Ratio (x) = 0.16756 0.18430
# Poissons Ratio (y) = 0.16756 0.18430
# Poissons Ratio (z) = 0.35971 0.35971
#
# Static dielectric constant tensor:
#      x y z
#    x 3.508710 0.000000 0.000000 
#    y 0.000000 3.508710 0.000000 
#    z 0.000000 0.000000 3.367440 
# 
# 
# High freq. dielectric constant tensor:
#      x y z
#    x 1.763890 0.000000 0.000000 
#    y 0.000000 1.763890 0.000000 
#    z 0.000000 0.000000 1.750020 
# 
# From -- ./inp_files/1582.got.cif
#   From: 2010.03.12/outbox.cif.g09.slc.cpg/sg175_1_cif.got.tgz:1582.got - 2010.04.02 06:55:29.
