data_PCOD8325898
_publ_section_title
;
Structure prediction by ZEFSAII (Michael W. Deem and Ramdas Pophale) SiO2 
 PCOD8325898
Probable space group: P 61 2 2
;
_chemical_formula_sum "Si O2"
_cell_formula_units_Z 60
_cell_length_a 14.685760
_cell_length_b 14.685760
_cell_length_c 15.230188
_cell_angle_alpha 90.000000
_cell_angle_beta 90.000000
_cell_angle_gamma 120.000000
_cell_volume 2844.649409
_symmetry_space_group_name_H-M "P 61 2 2"
_symmetry_group_IT_number 178
_symmetry_cell_setting 'hexagonal'
loop_
_space_group_symop_operation_xyz
x,y,z
x-y,x,1/6+z
-y,x-y,1/3+z
-x,-y,1/2+z
-x+y,-x,2/3+z
y,-x+y,5/6+z
x-y,-y,-z
-x,-x+y,2/3-z
y,x,1/3-z
-y,-x,5/6-z
-x+y,y,1/2-z
x,x-y,1/6-z
loop_
_atom_site_type_symbol
_atom_site_label
_atom_site_fract_x
_atom_site_fract_y
_atom_site_fract_z
Si Si1 0.298301 0.701700 0.416667
Si Si2 0.714880 0.637759 0.747695
Si Si3 0.056193 0.727873 0.239087
Si Si4 0.460345 0.572133 0.204463
Si Si5 0.921474 0.275370 0.090028
Si Si6 0.795354 0.397677 0.083334
O O1 0.347115 0.816126 0.461415
O O2 0.376295 0.718332 0.334856
O O3 0.694692 0.694692 0.666667
O O4 0.838793 0.677585 0.750000
O O5 0.655061 0.508803 0.742630
O O6 0.677374 0.669357 0.835361
O O7 0.097967 0.645025 0.224494
O O8 0.154881 0.841782 0.220253
O O9 0.000000 0.712476 0.333334
O O10 0.971842 0.707351 0.165725
O O11 0.489192 0.489192 0.166667
O O12 0.864550 0.342905 0.070635
#
# Coordination Sequence:
#
# PCOD8325898 Si02
#       6
#     6  12  12  12  12   6
#     4  12  24  42  63  96 138 186 224 285 322 394
#     4  11  24  44  65  94 134 174 222 276 338 409
#     4  11  23  41  70 101 135 175 229 289 338 404
#     4  10  22  40  64  92 134 173 217 274 327 387
#     4  12  24  43  70 100 133 183 227 280 350 410
#     4  12  24  42  67  98 142 180 236 273 336 402
#
# _framework density 21.092229
#
# number of rings (size 3 to 8) (size 9 to 14) (size 15 to 20)
#    0.000    0.800    2.000    7.800    1.400    0.000 
#    0.000    1.000    0.000   12.000    0.000    0.000 
#    0.000    0.000    0.000    0.000    0.000    0.000 
#
# Total GULP energy -743372.586400 kJ/mol
# GULP energy per Si atom -12389.543107 kJ/mol
# Density = 2.104422 g / cm^3
# Si number density = 21.092229 Si / 1000 Ang^3
#
#
#
# Elastic Constant Matrix: (Units=GPa)
#
#
# Indices 1 2 3 4 5 6 
#
# 1 105.4911 64.0506 42.3704 0.0000 0.0000 0.0000
# 2 64.0506 105.4911 42.3704 0.0000 0.0000 0.0000
# 3 42.3704 42.3704 132.0928 0.0000 0.0000 0.0000
# 4 0.0000 0.0000 0.0000 33.0468 0.0000 0.0000
# 5 0.0000 0.0000 0.0000 0.0000 33.0468 0.0000
# 6 0.0000 0.0000 0.0000 0.0000 0.0000 20.7203
#
#
#
# Elastic Compliance Matrix: (Units=1/GPa)
#
#
# Indices 1 2 3 4 5 6 
#
# 1 0.015578 -0.008553 -0.002253 0.000000 0.000000 0.000000
# 2 -0.008553 0.015578 -0.002253 0.000000 0.000000 0.000000
# 3 -0.002253 -0.002253 0.009016 0.000000 0.000000 0.000000
# 4 0.000000 0.000000 0.000000 0.030260 0.000000 0.000000
# 5 0.000000 0.000000 0.000000 0.000000 0.030260 0.000000
# 6 0.000000 0.000000 0.000000 0.000000 0.000000 0.048262
#
#
# Mechanical properties :
#
#
# Convention : Reuss Voigt Hill
#
# Bulk Modulus (GPa) = 71.16384 71.18421 71.17402
# Shear Modulus (GPa) = 27.81538 30.31502 29.06520
#
# Velocity S-wave (km/s) = 3.63540 3.79523 3.71618
# Velocity P-wave (km/s) = 7.17176 7.28199 7.22708
#
# Compressibility (1/GPa) = 0.01405208
#
# Stress axis : x y z
#
# Youngs Moduli (GPa) = 64.19436 64.19436 110.91512
#
# Poissons Ratio (x) = 0.54907 0.24991
# Poissons Ratio (y) = 0.54907 0.24991
# Poissons Ratio (z) = 0.14464 0.14464
#
# Static dielectric constant tensor:
#      x y z
#    x 3.870300 0.000000 0.000000 
#    y 0.000000 3.870300 0.000000 
#    z 0.000000 0.000000 4.048390 
# 
# 
# High freq. dielectric constant tensor:
#      x y z
#    x 1.823360 0.000000 0.000000 
#    y 0.000000 1.823360 0.000000 
#    z 0.000000 0.000000 1.832380 
# 
# From -- ./inp_files/5771.got.cif
#   From: 2010.03.12/outbox.cif.g09.slc.cpg/sg178_3_cif.got.tgz:5771.got - 2010.04.02 07:02:38.
