data_PCOD8325285
_publ_section_title
;
Structure prediction by ZEFSAII (Michael W. Deem and Ramdas Pophale) SiO2 
 PCOD8325285
Probable space group: P 6/M
;
_chemical_formula_sum "Si O2"
_cell_formula_units_Z 46
_cell_length_a 17.968287
_cell_length_b 17.968287
_cell_length_c 7.624340
_cell_angle_alpha 90.000000
_cell_angle_beta 90.000000
_cell_angle_gamma 120.000000
_cell_volume 2131.798922
_symmetry_space_group_name_H-M "P 6/M"
_symmetry_group_IT_number 175
_symmetry_cell_setting 'hexagonal'
loop_
_space_group_symop_operation_xyz
x,y,z
x-y,x,z
-y,x-y,z
-x,-y,z
-x+y,-x,z
y,-x+y,z
-x,-y,-z
-x+y,-x,-z
y,-x+y,-z
x,y,-z
x-y,x,-z
-y,x-y,-z
loop_
_atom_site_type_symbol
_atom_site_label
_atom_site_fract_x
_atom_site_fract_y
_atom_site_fract_z
Si Si1 0.151048 0.957202 0.000000
Si Si2 0.333333 0.666667 0.292456
Si Si3 0.759454 0.088260 0.302381
Si Si4 0.020545 0.591358 0.801648
Si Si5 0.273066 0.478573 0.707492
O O1 0.195905 0.948123 0.825654
O O2 0.051088 0.888534 0.000000
O O3 0.333334 0.666668 0.500000
O O4 0.284604 0.716032 0.224566
O O5 0.795047 0.093826 0.500000
O O6 0.657271 0.025674 0.311090
O O7 0.779019 0.180771 0.233408
O O8 0.000000 0.500000 0.719978
O O9 0.121750 0.654588 0.801956
O O10 0.985460 0.578243 0.000000
O O11 0.285015 0.479061 0.500000
#
# Coordination Sequence:
#
# PCOD8325285 Si02
#       5
#     6   4  12  12  12
#     4  12  27  48  73 100 132 166 210 272 340 414
#     4   9  18  36  58  89 130 177 226 269 316 376
#     4  11  24  43  70 100 131 174 222 272 329 390
#     4  11  23  38  60  93 133 175 220 268 321 383
#     4  10  21  37  61  90 125 170 220 267 318 380
#
# _framework density 21.578019999999999
#
# number of rings (size 3 to 8) (size 9 to 14) (size 15 to 20)
#    0.000    1.304    1.304    4.043    1.826    7.304 
#    0.000    1.304    0.000    1.565    0.000    0.000 
#    0.000    0.000    0.000    0.000    0.000    0.000 
#
# Total GULP energy -570620.042639 kJ/mol
# GULP energy per Si atom -12404.783536 kJ/mol
# Density = 2.152891 g / cm^3
# Si number density = 21.578020 Si / 1000 Ang^3
#
#
#
# Elastic Constant Matrix: (Units=GPa)
#
#
# Indices 1 2 3 4 5 6 
#
# 1 154.2335 58.8492 32.3412 0.0000 0.0000 -0.0007
# 2 58.8492 154.2334 32.3411 0.0000 0.0000 -0.0003
# 3 32.3412 32.3411 79.3299 0.0000 0.0000 -0.0001
# 4 0.0000 0.0000 0.0000 138.0219 0.0129 0.0000
# 5 0.0000 0.0000 0.0000 0.0129 137.9824 0.0000
# 6 -0.0007 -0.0003 -0.0001 0.0000 0.0000 47.6923
#
#
#
# Elastic Compliance Matrix: (Units=1/GPa)
#
#
# Indices 1 2 3 4 5 6 
#
# 1 0.007920 -0.002564 -0.002183 0.000000 0.000000 0.000000
# 2 -0.002564 0.007920 -0.002183 0.000000 0.000000 0.000000
# 3 -0.002183 -0.002183 0.014386 0.000000 0.000000 0.000000
# 4 0.000000 0.000000 0.000000 0.007245 -0.000001 0.000000
# 5 0.000000 0.000000 0.000000 -0.000001 0.007247 0.000000
# 6 0.000000 0.000000 0.000000 0.000000 0.000000 0.020968
#
#
# Mechanical properties :
#
#
# Convention : Reuss Voigt Hill
#
# Bulk Modulus (GPa) = 61.11086 70.53995 65.82541
# Shear Modulus (GPa) = 58.82191 82.35703 70.58947
#
# Velocity S-wave (km/s) = 5.22679 6.18465 5.72579
# Velocity P-wave (km/s) = 8.05035 9.15213 8.61886
#
# Compressibility (1/GPa) = 0.01636370
#
# Stress axis : x y z
#
# Youngs Moduli (GPa) = 126.26484 126.26484 69.51257
#
# Poissons Ratio (x) = 0.32375 0.15178
# Poissons Ratio (y) = 0.32375 0.15178
# Poissons Ratio (z) = 0.27569 0.27569
#
# Static dielectric constant tensor:
#      x y z
#    x 3.954240 0.000010 0.000000 
#    y 0.000010 3.954240 0.000000 
#    z 0.000000 0.000000 3.680790 
# 
# 
# High freq. dielectric constant tensor:
#      x y z
#    x 1.852150 0.000000 0.000000 
#    y 0.000000 1.852150 0.000000 
#    z 0.000000 0.000000 1.844610 
# 
# From -- ./inp_files/544.got.cif
#   From: 2010.03.12/outbox.cif.g09.slc.cpg/sg175_1_cif.got.tgz:544.got - 2010.04.02 06:55:29.
