data_PCOD8325747
_publ_section_title
;
Structure prediction by ZEFSAII (Michael W. Deem and Ramdas Pophale) SiO2 
 PCOD8325747
Probable space group: P 6 2 2
;
_chemical_formula_sum "Si O2"
_cell_formula_units_Z 84
_cell_length_a 15.337910
_cell_length_b 15.337910
_cell_length_c 22.488004
_cell_angle_alpha 90.000000
_cell_angle_beta 90.000000
_cell_angle_gamma 120.000000
_cell_volume 4581.565626
_symmetry_space_group_name_H-M "P 6 2 2"
_symmetry_group_IT_number 177
_symmetry_cell_setting 'hexagonal'
loop_
_space_group_symop_operation_xyz
x,y,z
x-y,x,z
-y,x-y,z
-x,-y,z
-x+y,-x,z
y,-x+y,z
x-y,-y,-z
-x,-x+y,-z
y,x,-z
-y,-x,-z
-x+y,y,-z
x,x-y,-z
loop_
_atom_site_type_symbol
_atom_site_label
_atom_site_fract_x
_atom_site_fract_y
_atom_site_fract_z
Si Si1 0.885221 0.433546 0.688026
Si Si2 0.224216 0.135325 0.879936
Si Si3 0.602338 0.204147 0.565402
Si Si4 0.135303 0.911059 0.738733
Si Si5 0.566809 0.451367 0.930055
Si Si6 0.782442 0.549132 0.878930
Si Si7 0.766683 0.217629 0.739026
O O1 0.879431 0.441136 0.616620
O O2 0.845602 0.319764 0.706877
O O3 0.816370 0.470147 0.720453
O O4 0.000000 0.500000 0.708741
O O5 0.158636 0.181916 0.906278
O O6 0.215996 0.129267 0.809335
O O7 0.339553 0.206696 0.899445
O O8 0.723807 0.276622 0.571671
O O9 0.576049 0.152097 0.500000
O O10 0.206712 0.867236 0.719034
O O11 0.023233 0.841414 0.712442
O O12 0.500000 0.500000 0.909726
O O13 0.680617 0.526300 0.911360
O O14 0.529410 0.346305 0.897189
O O15 0.563986 0.436015 0.000000
O O16 0.763133 0.542575 0.808993
#
# Coordination Sequence:
#
# PCOD8325747 Si02
#       7
#    12  12  12  12  12  12  12
#     4  12  22  34  54  78 110 149 184 219 275 325
#     4   9  17  30  51  77 103 131 164 202 247 301
#     4   8  15  33  57  74 103 143 183 234 275 309
#     4   9  17  30  47  69  99 135 173 210 247 292
#     4  11  24  41  60  82 104 131 177 229 272 322
#     4  11  22  37  57  76 108 142 176 211 266 323
#     4  11  22  35  49  78 111 143 177 217 257 319
#
# _framework density 18.334344999999999
#
# number of rings (size 3 to 8) (size 9 to 14) (size 15 to 20)
#    0.286    1.571    1.429    3.857    0.000    6.000 
#    0.000    0.000    0.000    0.000    0.000    0.000 
#    0.000    6.857    0.000    0.000    0.000   10.143 
#
# Total GULP energy -1041626.902688 kJ/mol
# GULP energy per Si atom -12400.320270 kJ/mol
# Density = 1.829261 g / cm^3
# Si number density = 18.334345 Si / 1000 Ang^3
#
#
#
# Elastic Constant Matrix: (Units=GPa)
#
#
# Indices 1 2 3 4 5 6 
#
# 1 76.0785 6.3596 13.1590 0.0000 0.0000 0.0000
# 2 6.3596 76.0785 13.1590 0.0000 0.0000 0.0000
# 3 13.1590 13.1590 64.4661 0.0000 0.0000 0.0000
# 4 0.0000 0.0000 0.0000 12.8993 0.0000 0.0000
# 5 0.0000 0.0000 0.0000 0.0000 12.8993 0.0000
# 6 0.0000 0.0000 0.0000 0.0000 0.0000 34.8595
#
#
#
# Elastic Compliance Matrix: (Units=1/GPa)
#
#
# Indices 1 2 3 4 5 6 
#
# 1 0.013660 -0.000684 -0.002649 0.000000 0.000000 0.000000
# 2 -0.000684 0.013660 -0.002649 0.000000 0.000000 0.000000
# 3 -0.002649 -0.002649 0.016593 0.000000 0.000000 0.000000
# 4 0.000000 0.000000 0.000000 0.077524 0.000000 0.000000
# 5 0.000000 0.000000 0.000000 0.000000 0.077524 0.000000
# 6 0.000000 0.000000 0.000000 0.000000 0.000000 0.028687
#
#
# Mechanical properties :
#
#
# Convention : Reuss Voigt Hill
#
# Bulk Modulus (GPa) = 31.29848 31.33091 31.31470
# Shear Modulus (GPa) = 19.97933 24.39466 22.18700
#
# Velocity S-wave (km/s) = 3.30467 3.65162 3.48247
# Velocity P-wave (km/s) = 5.62754 5.90803 5.76949
#
# Compressibility (1/GPa) = 0.03195043
#
# Stress axis : x y z
#
# Youngs Moduli (GPa) = 73.20864 73.20864 60.26519
#
# Poissons Ratio (x) = 0.05005 0.15962
# Poissons Ratio (y) = 0.05005 0.15962
# Poissons Ratio (z) = 0.19391 0.19391
#
# Static dielectric constant tensor:
#      x y z
#    x 3.416370 0.000000 0.000000 
#    y 0.000000 3.416370 0.000000 
#    z 0.000000 0.000000 3.112170 
# 
# 
# High freq. dielectric constant tensor:
#      x y z
#    x 1.714170 0.000000 0.000000 
#    y 0.000000 1.714170 0.000000 
#    z 0.000000 0.000000 1.679700 
# 
# From -- ./inp_files/3183.got.cif
#   From: 2010.03.12/outbox.cif.g09.slc.cpg/sg177_2_cif.got.tgz:3183.got - 2010.04.02 07:00:27.
