data_PCOD8325618
_publ_section_title
;
Structure prediction by ZEFSAII (Michael W. Deem and Ramdas Pophale) SiO2 
 PCOD8325618
Probable space group: P 63/M
;
_chemical_formula_sum "Si O2"
_cell_formula_units_Z 40
_cell_length_a 15.999216
_cell_length_b 15.999216
_cell_length_c 8.472870
_cell_angle_alpha 90.000000
_cell_angle_beta 90.000000
_cell_angle_gamma 120.000000
_cell_volume 1878.272405
_symmetry_space_group_name_H-M "P 63/M"
_symmetry_group_IT_number 176
_symmetry_cell_setting 'hexagonal'
loop_
_space_group_symop_operation_xyz
x,y,z
x-y,x,1/2+z
-y,x-y,z
-x,-y,1/2+z
-x+y,-x,z
y,-x+y,1/2+z
-x,-y,-z
-x+y,-x,1/2-z
y,-x+y,-z
x,y,1/2-z
x-y,x,-z
-y,x-y,1/2-z
loop_
_atom_site_type_symbol
_atom_site_label
_atom_site_fract_x
_atom_site_fract_y
_atom_site_fract_z
Si Si1 0.333333 0.666667 0.563326
Si Si2 0.471663 0.872514 0.563609
Si Si3 0.966555 0.800879 0.933532
Si Si4 0.621139 0.654776 0.933122
O O1 0.333334 0.666668 0.750000
O O2 0.427465 0.762961 0.506567
O O3 0.491868 0.889116 0.750000
O O4 0.572339 0.924500 0.471010
O O5 0.393310 0.903210 0.511650
O O6 0.990524 0.820023 0.750000
O O7 0.938364 0.691212 0.974319
O O8 0.876548 0.815629 0.971146
O O9 0.633814 0.681414 0.750000
#
# Coordination Sequence:
#
# PCOD8325618 Si02
#       4
#     4  12  12  12
#     4   9  18  33  58  89 118 162 211 254 307 360
#     4   9  19  36  59  87 124 168 212 257 305 361
#     4  12  26  45  68  94 124 158 200 251 309 371
#     4  10  21  38  60  91 125 163 209 255 308 365
#
# _framework density 21.296165999999999
#
# number of rings (size 3 to 8) (size 9 to 14) (size 15 to 20)
#    0.000    1.800    0.000    3.900    4.200    1.200 
#    0.000    1.500    0.000    0.000    0.000    0.000 
#    0.000    0.000    0.000    0.000    0.000    0.000 
#
# Total GULP energy -495927.636637 kJ/mol
# GULP energy per Si atom -12398.190916 kJ/mol
# Density = 2.124770 g / cm^3
# Si number density = 21.296166 Si / 1000 Ang^3
#
#
#
# Elastic Constant Matrix: (Units=GPa)
#
#
# Indices 1 2 3 4 5 6 
#
# 1 53.8905 0.3228 8.3572 0.0000 0.0000 -0.0003
# 2 0.3228 53.8865 8.3572 0.0000 0.0000 0.0000
# 3 8.3572 8.3572 57.1073 0.0000 0.0000 -0.0002
# 4 0.0000 0.0000 0.0000 33.5700 0.0000 0.0000
# 5 0.0000 0.0000 0.0000 0.0000 33.5702 0.0000
# 6 -0.0003 0.0000 -0.0002 0.0000 0.0000 26.7824
#
#
#
# Elastic Compliance Matrix: (Units=1/GPa)
#
#
# Indices 1 2 3 4 5 6 
#
# 1 0.018993 0.000325 -0.002827 0.000000 0.000000 0.000000
# 2 0.000325 0.018994 -0.002827 0.000000 0.000000 0.000000
# 3 -0.002827 -0.002827 0.018338 0.000000 0.000000 0.000000
# 4 0.000000 0.000000 0.000000 0.029789 0.000000 0.000000
# 5 0.000000 0.000000 0.000000 0.000000 0.029788 0.000000
# 6 0.000000 0.000000 0.000000 0.000000 0.000000 0.037338
#
#
# Mechanical properties :
#
#
# Convention : Reuss Voigt Hill
#
# Bulk Modulus (GPa) = 21.89806 22.10651 22.00229
# Shear Modulus (GPa) = 27.91413 28.64096 28.27754
#
# Velocity S-wave (km/s) = 3.62437 3.67125 3.64788
# Velocity P-wave (km/s) = 5.27444 5.32671 5.30064
#
# Compressibility (1/GPa) = 0.04566615
#
# Stress axis : x y z
#
# Youngs Moduli (GPa) = 52.65205 52.64807 54.53057
#
# Poissons Ratio (x) = -0.01709 0.15415
# Poissons Ratio (y) = -0.01709 0.15417
# Poissons Ratio (z) = 0.14884 0.14884
#
# Static dielectric constant tensor:
#      x y z
#    x 4.101820 0.000000 0.000000 
#    y 0.000000 4.101840 0.000000 
#    z 0.000000 0.000000 3.695500 
# 
# 
# High freq. dielectric constant tensor:
#      x y z
#    x 1.841390 0.000000 0.000000 
#    y 0.000000 1.841390 0.000000 
#    z 0.000000 0.000000 1.821300 
# 
# From -- ./inp_files/469.got.cif
#   From: 2010.06.25/outbox.cif.g09.slc.cpg/sg176_1_cif.got.tgz:469.got - 2010.06.28 12:15:01.
