data_PCOD8325015
_publ_section_title
;
Structure prediction by ZEFSAII (Michael W. Deem and Ramdas Pophale) SiO2 
 PCOD8325015
Probable space group: P 6/M
;
_chemical_formula_sum "Si O2"
_cell_formula_units_Z 66
_cell_length_a 19.848426
_cell_length_b 19.848426
_cell_length_c 12.366454
_cell_angle_alpha 90.000000
_cell_angle_beta 90.000000
_cell_angle_gamma 120.000000
_cell_volume 4219.179118
_symmetry_space_group_name_H-M "P 6/M"
_symmetry_group_IT_number 175
_symmetry_cell_setting 'hexagonal'
loop_
_space_group_symop_operation_xyz
x,y,z
x-y,x,z
-y,x-y,z
-x,-y,z
-x+y,-x,z
y,-x+y,z
-x,-y,-z
-x+y,-x,-z
y,-x+y,-z
x,y,-z
x-y,x,-z
-y,x-y,-z
loop_
_atom_site_type_symbol
_atom_site_label
_atom_site_fract_x
_atom_site_fract_y
_atom_site_fract_z
Si Si1 0.573608 0.707250 0.874007
Si Si2 0.153651 0.995992 0.373885
Si Si3 0.163756 0.155508 0.000000
Si Si4 0.002525 0.263400 0.803842
Si Si5 0.715871 0.580509 0.126268
Si Si6 0.539496 0.086964 0.128140
O O1 0.647985 0.719533 0.807989
O O2 0.556534 0.776327 0.851392
O O3 0.496523 0.629232 0.833926
O O4 0.590517 0.701033 0.000000
O O5 0.149651 0.071941 0.340338
O O6 0.170646 0.995445 0.500000
O O7 0.223618 0.994269 0.312048
O O8 0.150553 0.069398 0.000000
O O9 0.212269 0.199702 0.895047
O O10 0.920519 0.260419 0.812370
O O11 0.635586 0.508998 0.172233
O O12 0.709024 0.595558 0.000000
O O13 0.500000 0.000000 0.174611
O O14 0.535466 0.085861 0.000000
#
# Coordination Sequence:
#
# PCOD8325015 Si02
#       6
#    12  12   6  12  12  12
#     4  10  18  29  45  66  94 124 156 194 233 277
#     4  10  21  36  51  66  88 121 160 199 236 274
#     4  12  23  32  42  63  94 124 150 184 226 273
#     4  12  20  31  48  70  92 121 158 190 230 279
#     4  10  18  29  45  66  94 124 156 194 233 277
#     4   9  16  28  42  62  88 124 162 188 222 274
#
# _framework density 15.642854
#
# number of rings (size 3 to 8) (size 9 to 14) (size 15 to 20)
#    0.000    1.636    3.636    3.545    0.000    0.727 
#    1.091    1.818    0.000    0.000    0.000    2.545 
#    0.000    0.000    0.000    0.000    0.364    0.000 
#
# Total GULP energy -818487.381676 kJ/mol
# GULP energy per Si atom -12401.323965 kJ/mol
# Density = 1.560725 g / cm^3
# Si number density = 15.642854 Si / 1000 Ang^3
#
#
#
# Elastic Constant Matrix: (Units=GPa)
#
#
# Indices 1 2 3 4 5 6 
#
# 1 85.9689 28.4104 19.9294 0.0000 0.0000 0.0000
# 2 28.4104 85.9689 19.9294 0.0000 0.0000 0.0000
# 3 19.9294 19.9294 35.0279 0.0000 0.0000 0.0000
# 4 0.0000 0.0000 0.0000 14.9738 0.0000 0.0000
# 5 0.0000 0.0000 0.0000 0.0000 14.9738 0.0000
# 6 0.0000 0.0000 0.0000 0.0000 0.0000 28.7792
#
#
#
# Elastic Compliance Matrix: (Units=1/GPa)
#
#
# Indices 1 2 3 4 5 6 
#
# 1 0.014139 -0.003234 -0.006204 0.000000 0.000000 0.000000
# 2 -0.003234 0.014139 -0.006204 0.000000 0.000000 0.000000
# 3 -0.006204 -0.006204 0.035609 0.000000 0.000000 0.000000
# 4 0.000000 0.000000 0.000000 0.066783 0.000000 0.000000
# 5 0.000000 0.000000 0.000000 0.000000 0.066783 0.000000
# 6 0.000000 0.000000 0.000000 0.000000 0.000000 0.034747
#
#
# Mechanical properties :
#
#
# Convention : Reuss Voigt Hill
#
# Bulk Modulus (GPa) = 30.67403 38.16715 34.42059
# Shear Modulus (GPa) = 18.22460 20.99181 19.60820
#
# Velocity S-wave (km/s) = 3.41698 3.66723 3.54431
# Velocity P-wave (km/s) = 5.93457 6.51026 6.22907
#
# Compressibility (1/GPa) = 0.03260086
#
# Stress axis : x y z
#
# Youngs Moduli (GPa) = 70.72482 70.72482 28.08293
#
# Poissons Ratio (x) = 0.22875 0.17424
# Poissons Ratio (y) = 0.22875 0.17424
# Poissons Ratio (z) = 0.43881 0.43881
#
# Static dielectric constant tensor:
#      x y z
#    x 3.175440 0.000000 0.000000 
#    y 0.000000 3.175440 0.000000 
#    z 0.000000 0.000000 2.576610 
# 
# 
# High freq. dielectric constant tensor:
#      x y z
#    x 1.612100 0.000000 0.000000 
#    y 0.000000 1.612100 0.000000 
#    z 0.000000 0.000000 1.539310 
# 
# From -- ./inp_files/2491.got.cif
#   From: 2010.03.12/outbox.cif.g09.slc.cpg/sg175_2_cif.got.tgz:2491.got - 2010.04.02 06:55:29.
