data_PCOD8325078
_publ_section_title
;
Structure prediction by ZEFSAII (Michael W. Deem and Ramdas Pophale) SiO2 
 PCOD8325078
Probable space group: P 6/M
;
_chemical_formula_sum "Si O2"
_cell_formula_units_Z 72
_cell_length_a 23.795120
_cell_length_b 23.795120
_cell_length_c 8.641051
_cell_angle_alpha 90.000000
_cell_angle_beta 90.000000
_cell_angle_gamma 120.000000
_cell_volume 4237.141804
_symmetry_space_group_name_H-M "P 6/M"
_symmetry_group_IT_number 175
_symmetry_cell_setting 'hexagonal'
loop_
_space_group_symop_operation_xyz
x,y,z
x-y,x,z
-y,x-y,z
-x,-y,z
-x+y,-x,z
y,-x+y,z
-x,-y,-z
-x+y,-x,-z
y,-x+y,-z
x,y,-z
x-y,x,-z
-y,x-y,-z
loop_
_atom_site_type_symbol
_atom_site_label
_atom_site_fract_x
_atom_site_fract_y
_atom_site_fract_z
Si Si1 0.145611 0.405041 0.180716
Si Si2 0.257101 0.066824 0.682238
Si Si3 0.926987 0.743023 0.818679
Si Si4 0.738639 0.595933 0.317605
Si Si5 0.406342 0.932499 0.182616
Si Si6 0.072885 0.592704 0.683061
O O1 0.095366 0.330964 0.228716
O O2 0.215150 0.431145 0.260843
O O3 0.116929 0.450149 0.235738
O O4 0.158263 0.411056 0.000000
O O5 0.251040 0.053740 0.500000
O O6 0.233219 0.117245 0.725798
O O7 0.330898 0.095893 0.743386
O O8 0.212100 0.000846 0.771619
O O9 0.918208 0.749275 0.000000
O O10 0.739201 0.597189 0.500000
O O11 0.666070 0.548938 0.256125
O O12 0.451260 0.902311 0.230791
O O13 0.429752 0.999032 0.273577
O O14 0.411319 0.946302 0.000000
O O15 0.078375 0.586940 0.500000
#
# Coordination Sequence:
#
# PCOD8325078 Si02
#       6
#    12  12  12  12  12  12
#     4   9  19  32  48  70  96 124 157 193 234 279
#     4  10  19  32  49  71  97 126 157 193 233 277
#     4  10  19  32  49  71  97 126 157 193 233 277
#     4   9  19  32  48  70  96 124 157 193 234 279
#     4  10  19  31  47  70  96 125 157 192 233 279
#     4  10  19  31  47  70  96 125 157 192 233 279
#
# _framework density 16.992588000000001
#
# number of rings (size 3 to 8) (size 9 to 14) (size 15 to 20)
#    0.000    2.333    0.000    4.000    0.000    4.000 
#    0.000    0.000    0.000    1.000    0.000    2.333 
#    0.000    0.000    0.000    0.000    0.000    0.000 
#
# Total GULP energy -892918.084931 kJ/mol
# GULP energy per Si atom -12401.640068 kJ/mol
# Density = 1.695391 g / cm^3
# Si number density = 16.992588 Si / 1000 Ang^3
#
#
#
# Elastic Constant Matrix: (Units=GPa)
#
#
# Indices 1 2 3 4 5 6 
#
# 1 110.8476 55.7838 9.9463 0.0000 0.0000 0.0000
# 2 55.7838 110.8476 9.9463 0.0000 0.0000 0.0000
# 3 9.9463 9.9463 26.7096 0.0000 0.0000 0.0000
# 4 0.0000 0.0000 0.0000 28.1911 0.0000 0.0000
# 5 0.0000 0.0000 0.0000 0.0000 28.1911 0.0000
# 6 0.0000 0.0000 0.0000 0.0000 0.0000 27.5319
#
#
#
# Elastic Compliance Matrix: (Units=1/GPa)
#
#
# Indices 1 2 3 4 5 6 
#
# 1 0.012221 -0.005940 -0.002339 0.000000 0.000000 0.000000
# 2 -0.005940 0.012221 -0.002339 0.000000 0.000000 0.000000
# 3 -0.002339 -0.002339 0.039182 0.000000 0.000000 0.000000
# 4 0.000000 0.000000 0.000000 0.035472 0.000000 0.000000
# 5 0.000000 0.000000 0.000000 0.000000 0.035472 0.000000
# 6 0.000000 0.000000 0.000000 0.000000 0.000000 0.036322
#
#
# Mechanical properties :
#
#
# Convention : Reuss Voigt Hill
#
# Bulk Modulus (GPa) = 23.59185 44.41748 34.00467
# Shear Modulus (GPa) = 24.24203 28.29802 26.27002
#
# Velocity S-wave (km/s) = 3.78116 4.08525 3.93615
# Velocity P-wave (km/s) = 5.74253 6.96049 6.38064
#
# Compressibility (1/GPa) = 0.04238752
#
# Stress axis : x y z
#
# Youngs Moduli (GPa) = 81.82889 81.82889 25.52219
#
# Poissons Ratio (x) = 0.48608 0.05969
# Poissons Ratio (y) = 0.48608 0.05969
# Poissons Ratio (z) = 0.19138 0.19138
#
# Static dielectric constant tensor:
#      x y z
#    x 3.230340 0.000000 0.000000 
#    y 0.000000 3.230340 0.000000 
#    z 0.000000 0.000000 3.165190 
# 
# 
# High freq. dielectric constant tensor:
#      x y z
#    x 1.645550 0.000000 0.000000 
#    y 0.000000 1.645550 0.000000 
#    z 0.000000 0.000000 1.663030 
# 
# From -- ./inp_files/1214.got.cif
#   From: 2010.03.12/outbox.cif.g09.slc.cpg/sg175_1_cif.got.tgz:1214.got - 2010.04.02 06:55:29.
