data_PCOD8325948
_publ_section_title
;
Structure prediction by ZEFSAII (Michael W. Deem and Ramdas Pophale) SiO2 
 PCOD8325948
Probable space group: P 61 2 2
;
_chemical_formula_sum "Si O2"
_cell_formula_units_Z 48
_cell_length_a 15.184731
_cell_length_b 15.184731
_cell_length_c 10.566690
_cell_angle_alpha 90.000000
_cell_angle_beta 90.000000
_cell_angle_gamma 120.000000
_cell_volume 2110.006551
_symmetry_space_group_name_H-M "P 61 2 2"
_symmetry_group_IT_number 178
_symmetry_cell_setting 'hexagonal'
loop_
_space_group_symop_operation_xyz
x,y,z
x-y,x,1/6+z
-y,x-y,1/3+z
-x,-y,1/2+z
-x+y,-x,2/3+z
y,-x+y,5/6+z
x-y,-y,-z
-x,-x+y,2/3-z
y,x,1/3-z
-y,-x,5/6-z
-x+y,y,1/2-z
x,x-y,1/6-z
loop_
_atom_site_type_symbol
_atom_site_label
_atom_site_fract_x
_atom_site_fract_y
_atom_site_fract_z
Si Si1 0.481730 0.963460 0.750000
Si Si2 0.177850 0.540778 0.314227
Si Si3 0.491276 0.245638 0.583334
Si Si4 0.846394 0.002703 0.316370
Si Si5 0.096886 0.706433 0.627758
O O1 0.429314 0.900011 0.873785
O O2 0.430730 0.031506 0.720995
O O3 0.281780 0.563560 0.250000
O O4 0.197193 0.634037 0.402164
O O5 0.132239 0.439816 0.400011
O O6 0.420596 0.195669 0.707042
O O7 0.905079 0.094922 0.416667
O O8 0.903702 0.047915 0.183414
O O9 0.729873 0.972888 0.309205
#
# Coordination Sequence:
#
# PCOD8325948 Si02
#       5
#     6  12   6  12  12
#     4  12  27  44  74 112 162 198 251 322 366 464
#     4  12  26  46  77 109 157 208 254 308 385 473
#     4  12  25  50  68 118 156 204 251 310 392 470
#     4  10  26  51  78 106 143 194 267 328 394 467
#     4  12  27  47  75 114 157 202 258 320 390 475
#
# _framework density 22.748746000000001
#
# number of rings (size 3 to 8) (size 9 to 14) (size 15 to 20)
#    0.000    0.500    2.500    4.500   14.000    0.000 
#   11.250    0.000    0.000    0.000    0.000    0.000 
#    0.000    0.000    0.000    0.000    0.000    0.000 
#
# Total GULP energy -595377.335808 kJ/mol
# GULP energy per Si atom -12403.694496 kJ/mol
# Density = 2.269697 g / cm^3
# Si number density = 22.748746 Si / 1000 Ang^3
#
#
#
# Elastic Constant Matrix: (Units=GPa)
#
#
# Indices 1 2 3 4 5 6 
#
# 1 172.1743 39.2686 51.1531 0.0000 0.0000 0.0000
# 2 39.2686 172.1743 51.1531 0.0000 0.0000 0.0000
# 3 51.1531 51.1531 123.0678 0.0000 0.0000 0.0000
# 4 0.0000 0.0000 0.0000 40.7554 0.0000 0.0000
# 5 0.0000 0.0000 0.0000 0.0000 40.7554 0.0000
# 6 0.0000 0.0000 0.0000 0.0000 0.0000 66.4528
#
#
#
# Elastic Compliance Matrix: (Units=1/GPa)
#
#
# Indices 1 2 3 4 5 6 
#
# 1 0.006722 -0.000802 -0.002461 0.000000 0.000000 0.000000
# 2 -0.000802 0.006722 -0.002461 0.000000 0.000000 0.000000
# 3 -0.002461 -0.002461 0.010171 0.000000 0.000000 0.000000
# 4 0.000000 0.000000 0.000000 0.024537 0.000000 0.000000
# 5 0.000000 0.000000 0.000000 0.000000 0.024537 0.000000
# 6 0.000000 0.000000 0.000000 0.000000 0.000000 0.015048
#
#
# Mechanical properties :
#
#
# Convention : Reuss Voigt Hill
#
# Bulk Modulus (GPa) = 82.17913 83.39623 82.78768
# Shear Modulus (GPa) = 48.43102 51.31551 49.87326
#
# Velocity S-wave (km/s) = 4.61906 4.75463 4.68734
# Velocity P-wave (km/s) = 8.04057 8.17810 8.10963
#
# Compressibility (1/GPa) = 0.01216854
#
# Stress axis : x y z
#
# Youngs Moduli (GPa) = 148.76391 148.76391 98.31742
#
# Poissons Ratio (x) = 0.11932 0.24192
# Poissons Ratio (y) = 0.11932 0.24192
# Poissons Ratio (z) = 0.36605 0.36605
#
# Static dielectric constant tensor:
#      x y z
#    x 4.541610 0.000000 0.000000 
#    y 0.000000 4.541610 0.000000 
#    z 0.000000 0.000000 4.102630 
# 
# 
# High freq. dielectric constant tensor:
#      x y z
#    x 1.906460 0.000000 0.000000 
#    y 0.000000 1.906460 0.000000 
#    z 0.000000 0.000000 1.898990 
# 
# From -- ./inp_files/4197.got.cif
#   From: 2010.03.12/outbox.cif.g09.slc.cpg/sg178_3_cif.got.tgz:4197.got - 2010.04.02 07:02:38.
