data_PCOD8325366
_publ_section_title
;
Structure prediction by ZEFSAII (Michael W. Deem and Ramdas Pophale) SiO2 
 PCOD8325366
Probable space group: P 6/M
;
_chemical_formula_sum "Si O2"
_cell_formula_units_Z 40
_cell_length_a 13.946005
_cell_length_b 13.946005
_cell_length_c 10.604708
_cell_angle_alpha 90.000000
_cell_angle_beta 90.000000
_cell_angle_gamma 120.000000
_cell_volume 1786.195453
_symmetry_space_group_name_H-M "P 6/M"
_symmetry_group_IT_number 175
_symmetry_cell_setting 'hexagonal'
loop_
_space_group_symop_operation_xyz
x,y,z
x-y,x,z
-y,x-y,z
-x,-y,z
-x+y,-x,z
y,-x+y,z
-x,-y,-z
-x+y,-x,-z
y,-x+y,-z
x,y,-z
x-y,x,-z
-y,x-y,-z
loop_
_atom_site_type_symbol
_atom_site_label
_atom_site_fract_x
_atom_site_fract_y
_atom_site_fract_z
Si Si1 0.641438 0.442337 0.000000
Si Si2 0.561127 0.703386 0.649464
Si Si3 0.666668 0.333334 0.646955
Si Si4 0.774011 0.989513 0.000000
Si Si5 0.391394 0.079880 0.785191
O O1 0.547839 0.311847 0.000000
O O2 0.629581 0.498945 0.873214
O O3 0.575287 0.719558 0.500000
O O4 0.431689 0.645743 0.692745
O O5 0.621200 0.826109 0.710545
O O6 0.604029 0.619635 0.689881
O O7 0.666667 0.333334 0.500000
O O8 0.889131 0.095525 0.000000
O O9 0.712032 0.989165 0.874621
#
# Coordination Sequence:
#
# PCOD8325366 Si02
#       5
#     6  12   4   6  12
#     4   9  24  46  69 101 135 187 230 284 350 398
#     4  11  24  45  71 104 143 187 231 282 347 420
#     4   9  24  45  66  97 137 184 234 276 334 413
#     4  11  21  42  67 100 133 181 238 295 359 404
#     4  11  23  42  74 100 142 181 230 290 346 417
#
# _framework density 22.393965000000001
#
# number of rings (size 3 to 8) (size 9 to 14) (size 15 to 20)
#    0.300    1.200    3.000    1.050    4.200    1.200 
#    0.000    6.000    0.000    0.000    0.000    4.200 
#    0.000    0.000    0.000    0.000    0.000    0.000 
#
# Total GULP energy -495722.149587 kJ/mol
# GULP energy per Si atom -12393.053740 kJ/mol
# Density = 2.234300 g / cm^3
# Si number density = 22.393965 Si / 1000 Ang^3
#
#
#
# Elastic Constant Matrix: (Units=GPa)
#
#
# Indices 1 2 3 4 5 6 
#
# 1 114.4124 27.1657 34.8134 0.0000 0.0000 0.0002
# 2 27.1657 114.4131 34.8134 0.0000 0.0000 0.0004
# 3 34.8134 34.8134 122.3024 0.0000 0.0000 0.0000
# 4 0.0000 0.0000 0.0000 60.0387 0.0001 0.0000
# 5 0.0000 0.0000 0.0000 0.0001 60.0393 0.0000
# 6 0.0002 0.0004 0.0000 0.0000 0.0000 43.6229
#
#
#
# Elastic Compliance Matrix: (Units=1/GPa)
#
#
# Indices 1 2 3 4 5 6 
#
# 1 0.009837 -0.001624 -0.002338 0.000000 0.000000 0.000000
# 2 -0.001624 0.009837 -0.002338 0.000000 0.000000 0.000000
# 3 -0.002338 -0.002338 0.009507 0.000000 0.000000 0.000000
# 4 0.000000 0.000000 0.000000 0.016656 0.000000 0.000000
# 5 0.000000 0.000000 0.000000 0.000000 0.016656 0.000000
# 6 0.000000 0.000000 0.000000 0.000000 0.000000 0.022924
#
#
# Mechanical properties :
#
#
# Convention : Reuss Voigt Hill
#
# Bulk Modulus (GPa) = 60.30642 60.52367 60.41505
# Shear Modulus (GPa) = 48.28828 49.69586 48.99207
#
# Velocity S-wave (km/s) = 4.64864 4.71591 4.68240
# Velocity P-wave (km/s) = 7.47003 7.53250 7.50133
#
# Compressibility (1/GPa) = 0.01658198
#
# Stress axis : x y z
#
# Youngs Moduli (GPa) = 101.65333 101.65405 105.18149
#
# Poissons Ratio (x) = 0.16513 0.24590
# Poissons Ratio (y) = 0.16512 0.24589
# Poissons Ratio (z) = 0.23765 0.23765
#
# Static dielectric constant tensor:
#      x y z
#    x 4.073840 0.000000 0.000000 
#    y 0.000000 4.073840 0.000000 
#    z 0.000000 0.000000 3.841250 
# 
# 
# High freq. dielectric constant tensor:
#      x y z
#    x 1.880250 0.000000 0.000000 
#    y 0.000000 1.880250 0.000000 
#    z 0.000000 0.000000 1.903720 
# 
# From -- ./inp_files/1613.got.cif
#   From: 2010.03.12/outbox.cif.g09.slc.cpg/sg175_1_cif.got.tgz:1613.got - 2010.04.02 06:55:29.
