data_PCOD8325980
_publ_section_title
;
Structure prediction by ZEFSAII (Michael W. Deem and Ramdas Pophale) SiO2 
 PCOD8325980
Probable space group: P 61 2 2
;
_chemical_formula_sum "Si O2"
_cell_formula_units_Z 48
_cell_length_a 16.330997
_cell_length_b 16.330997
_cell_length_c 9.325653
_cell_angle_alpha 90.000000
_cell_angle_beta 90.000000
_cell_angle_gamma 120.000000
_cell_volume 2153.948332
_symmetry_space_group_name_H-M "P 61 2 2"
_symmetry_group_IT_number 178
_symmetry_cell_setting 'hexagonal'
loop_
_space_group_symop_operation_xyz
x,y,z
x-y,x,1/6+z
-y,x-y,1/3+z
-x,-y,1/2+z
-x+y,-x,2/3+z
y,-x+y,5/6+z
x-y,-y,-z
-x,-x+y,2/3-z
y,x,1/3-z
-y,-x,5/6-z
-x+y,y,1/2-z
x,x-y,1/6-z
loop_
_atom_site_type_symbol
_atom_site_label
_atom_site_fract_x
_atom_site_fract_y
_atom_site_fract_z
Si Si1 0.905060 0.676650 0.641603
Si Si2 0.172127 0.530366 0.222316
Si Si3 0.488168 0.409841 0.551592
Si Si4 0.214351 0.883010 0.283402
O O1 0.860766 0.721531 0.750000
O O2 0.899933 0.582756 0.708064
O O3 0.841607 0.644233 0.499976
O O4 0.012902 0.754682 0.609353
O O5 0.276982 0.553963 0.250000
O O6 0.151483 0.569097 0.367352
O O7 0.163999 0.582000 0.083334
O O8 0.422408 0.422408 0.666667
O O9 0.517515 0.482486 0.416667
O O10 0.431062 0.303143 0.495741
O O11 0.142315 0.857686 0.416667
#
# Coordination Sequence:
#
# PCOD8325980 Si02
#       4
#    12  12  12  12
#     4  11  24  44  68  95 129 172 220 270 329 396
#     4  11  24  40  60  92 133 177 222 267 322 385
#     4  12  24  40  64  93 130 173 219 271 324 389
#     4  12  24  42  68  98 129 168 219 274 331 390
#
# _framework density 22.284655000000001
#
# number of rings (size 3 to 8) (size 9 to 14) (size 15 to 20)
#    0.000    0.500    0.000   11.250    0.000    4.000 
#    0.000    0.000    0.000    7.500    0.000    0.000 
#    0.000    0.000    0.000    0.000    0.000    0.000 
#
# Total GULP energy -595326.305156 kJ/mol
# GULP energy per Si atom -12402.631357 kJ/mol
# Density = 2.223393 g / cm^3
# Si number density = 22.284655 Si / 1000 Ang^3
#
#
#
# Elastic Constant Matrix: (Units=GPa)
#
#
# Indices 1 2 3 4 5 6 
#
# 1 92.3293 49.5166 27.2536 0.0000 0.0000 0.0000
# 2 49.5166 92.3293 27.2536 0.0000 0.0000 0.0000
# 3 27.2536 27.2536 118.5238 0.0000 0.0000 0.0000
# 4 0.0000 0.0000 0.0000 47.9576 0.0000 0.0000
# 5 0.0000 0.0000 0.0000 0.0000 47.9576 0.0000
# 6 0.0000 0.0000 0.0000 0.0000 0.0000 21.4064
#
#
#
# Elastic Compliance Matrix: (Units=1/GPa)
#
#
# Indices 1 2 3 4 5 6 
#
# 1 0.015545 -0.007812 -0.001778 0.000000 0.000000 0.000000
# 2 -0.007812 0.015545 -0.001778 0.000000 0.000000 0.000000
# 3 -0.001778 -0.001778 0.009255 0.000000 0.000000 0.000000
# 4 0.000000 0.000000 0.000000 0.020852 0.000000 0.000000
# 5 0.000000 0.000000 0.000000 0.000000 0.020852 0.000000
# 6 0.000000 0.000000 0.000000 0.000000 0.000000 0.046715
#
#
# Mechanical properties :
#
#
# Convention : Reuss Voigt Hill
#
# Bulk Modulus (GPa) = 56.79062 56.80334 56.79698
# Shear Modulus (GPa) = 31.77209 36.74154 34.25681
#
# Velocity S-wave (km/s) = 3.77999 4.06487 3.92502
# Velocity P-wave (km/s) = 6.67762 6.89754 6.78847
#
# Compressibility (1/GPa) = 0.01760854
#
# Stress axis : x y z
#
# Youngs Moduli (GPa) = 64.32783 64.32783 108.05101
#
# Poissons Ratio (x) = 0.50254 0.19214
# Poissons Ratio (y) = 0.50254 0.19214
# Poissons Ratio (z) = 0.11439 0.11439
#
# Static dielectric constant tensor:
#      x y z
#    x 4.000320 0.000000 0.000000 
#    y 0.000000 4.000320 0.000000 
#    z 0.000000 0.000000 5.237550 
# 
# 
# High freq. dielectric constant tensor:
#      x y z
#    x 1.869020 0.000000 0.000000 
#    y 0.000000 1.869020 0.000000 
#    z 0.000000 0.000000 1.908840 
# 
# From -- ./inp_files/2597.got.cif
#   From: 2010.03.12/outbox.cif.g09.slc.cpg/sg178_2_cif.got.tgz:2597.got - 2010.04.02 07:02:38.
