data_PCOD8325707
_publ_section_title
;
Structure prediction by ZEFSAII (Michael W. Deem and Ramdas Pophale) SiO2 
 PCOD8325707
Probable space group: P 63/M
;
_chemical_formula_sum "Si O2"
_cell_formula_units_Z 48
_cell_length_a 12.253950
_cell_length_b 12.253950
_cell_length_c 18.006609
_cell_angle_alpha 90.000000
_cell_angle_beta 90.000000
_cell_angle_gamma 120.000000
_cell_volume 2341.611131
_symmetry_space_group_name_H-M "P 63/M"
_symmetry_group_IT_number 176
_symmetry_cell_setting 'hexagonal'
loop_
_space_group_symop_operation_xyz
x,y,z
x-y,x,1/2+z
-y,x-y,z
-x,-y,1/2+z
-x+y,-x,z
y,-x+y,1/2+z
-x,-y,-z
-x+y,-x,1/2-z
y,-x+y,-z
x,y,1/2-z
x-y,x,-z
-y,x-y,1/2-z
loop_
_atom_site_type_symbol
_atom_site_label
_atom_site_fract_x
_atom_site_fract_y
_atom_site_fract_z
Si Si1 0.396662 0.251360 0.422514
Si Si2 0.613438 0.845476 0.411293
Si Si3 0.000000 0.000000 0.587629
Si Si4 0.333335 0.666668 0.924260
Si Si5 0.666667 0.333333 0.597703
Si Si6 0.772143 0.975437 0.663050
O O1 0.326330 0.330952 0.410142
O O2 0.377877 0.200801 0.506649
O O3 0.543399 0.340737 0.400726
O O4 0.360940 0.134614 0.366423
O O5 0.472265 0.776089 0.376939
O O6 0.689698 0.804974 0.356458
O O7 0.066344 0.925972 0.618415
O O8 0.000000 0.000000 0.500000
O O9 0.333334 0.666667 0.011229
O O10 0.786667 0.964417 0.750000
#
# Coordination Sequence:
#
# PCOD8325707 Si02
#       6
#    12  12   4   4   4  12
#     4  11  22  39  66  95 127 166 214 265 319 374
#     4  11  22  39  66  95 127 166 214 265 319 374
#     4  12  22  38  61  96 127 164 211 261 328 371
#     4   9  24  39  64  98 124 165 220 269 307 372
#     4   9  24  39  64  98 124 165 220 269 307 372
#     4  12  24  38  60  94 134 166 206 260 318 383
#
# _framework density 20.498707
#
# number of rings (size 3 to 8) (size 9 to 14) (size 15 to 20)
#    0.000    1.000    5.000    2.250    3.500    3.000 
#    0.000    2.500    0.000    0.000    0.000    0.000 
#    0.000    0.000    0.000    0.000    0.000    0.000 
#
# Total GULP energy -594874.856898 kJ/mol
# GULP energy per Si atom -12393.226185 kJ/mol
# Density = 2.045205 g / cm^3
# Si number density = 20.498707 Si / 1000 Ang^3
#
#
#
# Elastic Constant Matrix: (Units=GPa)
#
#
# Indices 1 2 3 4 5 6 
#
# 1 111.6830 69.7188 19.9040 0.0000 0.0000 0.0007
# 2 69.7188 111.6819 19.9050 0.0000 0.0000 -0.0030
# 3 19.9040 19.9050 116.9506 0.0000 0.0000 -0.0009
# 4 0.0000 0.0000 0.0000 4.1758 -0.0010 0.0000
# 5 0.0000 0.0000 0.0000 -0.0010 4.1731 0.0000
# 6 0.0007 -0.0030 -0.0009 0.0000 0.0000 20.9818
#
#
#
# Elastic Compliance Matrix: (Units=1/GPa)
#
#
# Indices 1 2 3 4 5 6 
#
# 1 0.014778 -0.009052 -0.000975 0.000000 0.000000 -0.000002
# 2 -0.009052 0.014778 -0.000975 0.000000 0.000000 0.000002
# 3 -0.000975 -0.000975 0.008882 0.000000 0.000000 0.000000
# 4 0.000000 0.000000 0.000000 0.239477 0.000059 0.000000
# 5 0.000000 0.000000 0.000000 0.000059 0.239628 0.000000
# 6 -0.000002 0.000002 0.000000 0.000000 0.000000 0.047660
#
#
# Mechanical properties :
#
#
# Convention : Reuss Voigt Hill
#
# Bulk Modulus (GPa) = 60.83870 62.15235 61.49552
# Shear Modulus (GPa) = 8.43617 21.25198 14.84407
#
# Velocity S-wave (km/s) = 2.03086 3.22335 2.69392
# Velocity P-wave (km/s) = 5.93657 6.65126 6.30405
#
# Compressibility (1/GPa) = 0.01643691
#
# Stress axis : x y z
#
# Youngs Moduli (GPa) = 67.66701 67.66613 112.58251
#
# Poissons Ratio (x) = 0.61250 0.10971
# Poissons Ratio (y) = 0.61251 0.10974
# Poissons Ratio (z) = 0.06594 0.06596
#
# Static dielectric constant tensor:
#      x y z
#    x 3.054930 -0.000180 0.000000 
#    y -0.000180 3.055890 0.000000 
#    z 0.000000 0.000000 3.382540 
# 
# 
# High freq. dielectric constant tensor:
#      x y z
#    x 1.813290 0.000000 0.000000 
#    y 0.000000 1.813290 0.000000 
#    z 0.000000 0.000000 1.770560 
# 
# From -- ./inp_files/3687.got.cif
#   From: 2010.06.25/outbox.cif.g09.slc.cpg/sg176_2_cif.got.tgz:3687.got - 2010.06.28 12:15:01.
