data_PCOD8325490
_publ_section_title
;
Structure prediction by ZEFSAII (Michael W. Deem and Ramdas Pophale) SiO2 
 PCOD8325490
Probable space group: P 63/M
;
_chemical_formula_sum "Si O2"
_cell_formula_units_Z 52
_cell_length_a 12.351314
_cell_length_b 12.351314
_cell_length_c 22.003158
_cell_angle_alpha 90.000000
_cell_angle_beta 90.000000
_cell_angle_gamma 120.000000
_cell_volume 2906.979535
_symmetry_space_group_name_H-M "P 63/M"
_symmetry_group_IT_number 176
_symmetry_cell_setting 'hexagonal'
loop_
_space_group_symop_operation_xyz
x,y,z
x-y,x,1/2+z
-y,x-y,z
-x,-y,1/2+z
-x+y,-x,z
y,-x+y,1/2+z
-x,-y,-z
-x+y,-x,1/2-z
y,-x+y,-z
x,y,1/2-z
x-y,x,-z
-y,x-y,1/2-z
loop_
_atom_site_type_symbol
_atom_site_label
_atom_site_fract_x
_atom_site_fract_y
_atom_site_fract_z
Si Si1 0.000000 0.000000 0.569480
Si Si2 0.739781 0.992333 0.683293
Si Si3 0.580918 0.923463 0.934447
Si Si4 0.014620 0.801789 0.141124
Si Si5 0.586978 0.672650 0.947011
O O1 0.904841 0.859919 0.589500
O O2 0.000000 0.000000 0.500000
O O3 0.677464 0.977099 0.750000
O O4 0.644496 0.979654 0.630487
O O5 0.776179 0.883847 0.678451
O O6 0.861952 0.132095 0.682950
O O7 0.585909 0.800700 0.950761
O O8 0.438110 0.888763 0.929782
O O9 0.652745 0.023415 0.987130
O O10 0.998963 0.678939 0.107286
#
# Coordination Sequence:
#
# PCOD8325490 Si02
#       5
#     4  12  12  12  12
#     4   9  18  24  46  83 109 126 153 211 254 316
#     4  10  19  33  50  76 105 133 165 205 258 317
#     4  10  21  34  53  75 102 136 171 220 257 310
#     4   9  19  30  51  76 104 133 161 207 262 310
#     4  10  20  35  53  77 102 133 177 214 266 304
#
# _framework density 17.887983999999999
#
# number of rings (size 3 to 8) (size 9 to 14) (size 15 to 20)
#    0.000    2.308    0.000    3.000    9.692    0.000 
#    0.000    5.769    0.000    0.923    0.000    0.000 
#    0.000    0.000    0.000    0.000    0.000    0.000 
#
# Total GULP energy -644627.097599 kJ/mol
# GULP energy per Si atom -12396.674954 kJ/mol
# Density = 1.784727 g / cm^3
# Si number density = 17.887984 Si / 1000 Ang^3
#
#
#
# Elastic Constant Matrix: (Units=GPa)
#
#
# Indices 1 2 3 4 5 6 
#
# 1 75.8514 24.5360 39.3945 0.0000 0.0000 0.0000
# 2 24.5360 75.8514 39.3945 0.0000 0.0000 0.0000
# 3 39.3945 39.3945 133.7324 0.0000 0.0000 0.0000
# 4 0.0000 0.0000 0.0000 18.6970 0.0000 0.0000
# 5 0.0000 0.0000 0.0000 0.0000 18.6970 0.0000
# 6 0.0000 0.0000 0.0000 0.0000 0.0000 25.6577
#
#
#
# Elastic Compliance Matrix: (Units=1/GPa)
#
#
# Indices 1 2 3 4 5 6 
#
# 1 0.016222 -0.003265 -0.003817 0.000000 0.000000 0.000000
# 2 -0.003265 0.016222 -0.003817 0.000000 0.000000 0.000000
# 3 -0.003817 -0.003817 0.009726 0.000000 0.000000 0.000000
# 4 0.000000 0.000000 0.000000 0.053485 0.000000 0.000000
# 5 0.000000 0.000000 0.000000 0.000000 0.053485 0.000000
# 6 0.000000 0.000000 0.000000 0.000000 0.000000 0.038975
#
#
# Mechanical properties :
#
#
# Convention : Reuss Voigt Hill
#
# Bulk Modulus (GPa) = 49.08442 54.67611 51.88026
# Shear Modulus (GPa) = 23.07303 24.75101 23.91202
#
# Velocity S-wave (km/s) = 3.59536 3.72380 3.66015
# Velocity P-wave (km/s) = 6.68842 7.00865 6.85040
#
# Compressibility (1/GPa) = 0.02037306
#
# Stress axis : x y z
#
# Youngs Moduli (GPa) = 61.64391 61.64391 102.81368
#
# Poissons Ratio (x) = 0.20128 0.39242
# Poissons Ratio (y) = 0.20128 0.39242
# Poissons Ratio (z) = 0.23529 0.23529
#
# Static dielectric constant tensor:
#      x y z
#    x 3.250480 0.000000 0.000000 
#    y 0.000000 3.250480 0.000000 
#    z 0.000000 0.000000 3.277020 
# 
# 
# High freq. dielectric constant tensor:
#      x y z
#    x 1.681080 0.000000 0.000000 
#    y 0.000000 1.681080 0.000000 
#    z 0.000000 0.000000 1.694380 
# 
# From -- ./inp_files/3702.got.cif
#   From: 2010.06.25/outbox.cif.g09.slc.cpg/sg176_2_cif.got.tgz:3702.got - 2010.06.28 12:15:01.
