data_PCOD8325454
_publ_section_title
;
Structure prediction by ZEFSAII (Michael W. Deem and Ramdas Pophale) SiO2 
 PCOD8325454
Probable space group: P 63/M
;
_chemical_formula_sum "Si O2"
_cell_formula_units_Z 72
_cell_length_a 23.508477
_cell_length_b 23.508477
_cell_length_c 9.225857
_cell_angle_alpha 90.000000
_cell_angle_beta 90.000000
_cell_angle_gamma 120.000000
_cell_volume 4415.565576
_symmetry_space_group_name_H-M "P 63/M"
_symmetry_group_IT_number 176
_symmetry_cell_setting 'hexagonal'
loop_
_space_group_symop_operation_xyz
x,y,z
x-y,x,1/2+z
-y,x-y,z
-x,-y,1/2+z
-x+y,-x,z
y,-x+y,1/2+z
-x,-y,-z
-x+y,-x,1/2-z
y,-x+y,-z
x,y,1/2-z
x-y,x,-z
-y,x-y,1/2-z
loop_
_atom_site_type_symbol
_atom_site_label
_atom_site_fract_x
_atom_site_fract_y
_atom_site_fract_z
Si Si1 0.814427 0.075801 0.418349
Si Si2 0.412531 0.257547 0.083670
Si Si3 0.532133 0.594931 0.584299
Si Si4 0.586010 0.853378 0.420267
Si Si5 0.532795 0.931775 0.917822
Si Si6 0.073323 0.810633 0.420030
O O1 0.831519 0.080039 0.250000
O O2 0.763007 0.100453 0.449771
O O3 0.882427 0.119803 0.502204
O O4 0.781464 0.001183 0.474677
O O5 0.420047 0.241618 0.250000
O O6 0.458404 0.334188 0.048454
O O7 0.436341 0.219016 0.979794
O O8 0.553176 0.592149 0.750000
O O9 0.578889 0.582422 0.479843
O O10 0.456188 0.542054 0.558164
O O11 0.573480 0.849471 0.250000
O O12 0.540975 0.877468 0.496742
O O13 0.661960 0.902337 0.461172
O O14 0.549526 0.930805 0.750000
O O15 0.079500 0.823801 0.250000
#
# Coordination Sequence:
#
# PCOD8325454 Si02
#       6
#    12  12  12  12  12  12
#     4   9  17  29  46  67  90 117 147 181 222 266
#     4   9  17  31  49  68  92 121 153 188 229 277
#     4   9  18  32  49  69  95 125 154 190 234 276
#     4  10  19  31  47  68  95 124 153 189 233 275
#     4  10  19  30  47  71  96 124 158 191 227 275
#     4   9  18  31  46  66  92 120 149 182 223 268
#
# _framework density 16.305951
#
# number of rings (size 3 to 8) (size 9 to 14) (size 15 to 20)
#    0.000    2.667    0.000    2.000    0.000    5.333 
#    0.000    3.333    0.000    1.000    0.000    2.333 
#    0.000    0.000    0.000    0.000    0.000    0.000 
#
# Total GULP energy -892983.277981 kJ/mol
# GULP energy per Si atom -12402.545528 kJ/mol
# Density = 1.626884 g / cm^3
# Si number density = 16.305951 Si / 1000 Ang^3
#
#
#
# Elastic Constant Matrix: (Units=GPa)
#
#
# Indices 1 2 3 4 5 6 
#
# 1 105.5626 56.3525 54.0241 0.0000 0.0000 0.0000
# 2 56.3525 105.5626 54.0241 0.0000 0.0000 0.0000
# 3 54.0241 54.0241 79.3376 0.0000 0.0000 0.0000
# 4 0.0000 0.0000 0.0000 28.9633 0.0000 0.0000
# 5 0.0000 0.0000 0.0000 0.0000 28.9633 0.0000
# 6 0.0000 0.0000 0.0000 0.0000 0.0000 24.6050
#
#
#
# Elastic Compliance Matrix: (Units=1/GPa)
#
#
# Indices 1 2 3 4 5 6 
#
# 1 0.015820 -0.004501 -0.007708 0.000000 0.000000 0.000000
# 2 -0.004501 0.015820 -0.007708 0.000000 0.000000 0.000000
# 3 -0.007708 -0.007708 0.023102 0.000000 0.000000 0.000000
# 4 0.000000 0.000000 0.000000 0.034526 0.000000 0.000000
# 5 0.000000 0.000000 0.000000 0.000000 0.034526 0.000000
# 6 0.000000 0.000000 0.000000 0.000000 0.000000 0.040642
#
#
# Mechanical properties :
#
#
# Convention : Reuss Voigt Hill
#
# Bulk Modulus (GPa) = 67.07328 68.80713 67.94020
# Shear Modulus (GPa) = 23.89587 24.91045 24.40316
#
# Velocity S-wave (km/s) = 3.83230 3.91281 3.87276
# Velocity P-wave (km/s) = 7.79779 7.91850 7.85838
#
# Compressibility (1/GPa) = 0.01490907
#
# Stress axis : x y z
#
# Youngs Moduli (GPa) = 63.20941 63.20941 43.28654
#
# Poissons Ratio (x) = 0.28448 0.33366
# Poissons Ratio (y) = 0.28448 0.33366
# Poissons Ratio (z) = 0.48722 0.48722
#
# Static dielectric constant tensor:
#      x y z
#    x 3.024040 0.000000 0.000000 
#    y 0.000000 3.024040 0.000000 
#    z 0.000000 0.000000 3.122260 
# 
# 
# High freq. dielectric constant tensor:
#      x y z
#    x 1.616090 0.000000 0.000000 
#    y 0.000000 1.616090 0.000000 
#    z 0.000000 0.000000 1.632980 
# 
# From -- ./inp_files/1165.got.cif
#   From: 2010.06.25/outbox.cif.g09.slc.cpg/sg176_1_cif.got.tgz:1165.got - 2010.06.28 12:15:01.
