data_PCOD8325246
_publ_section_title
;
Structure prediction by ZEFSAII (Michael W. Deem and Ramdas Pophale) SiO2 
 PCOD8325246
Probable space group: P 6/M
;
_chemical_formula_sum "Si O2"
_cell_formula_units_Z 66
_cell_length_a 21.402318
_cell_length_b 21.402318
_cell_length_c 7.902876
_cell_angle_alpha 90.000000
_cell_angle_beta 90.000000
_cell_angle_gamma 120.000000
_cell_volume 3134.999130
_symmetry_space_group_name_H-M "P 6/M"
_symmetry_group_IT_number 175
_symmetry_cell_setting 'hexagonal'
loop_
_space_group_symop_operation_xyz
x,y,z
x-y,x,z
-y,x-y,z
-x,-y,z
-x+y,-x,z
y,-x+y,z
-x,-y,-z
-x+y,-x,-z
y,-x+y,-z
x,y,-z
x-y,x,-z
-y,x-y,-z
loop_
_atom_site_type_symbol
_atom_site_label
_atom_site_fract_x
_atom_site_fract_y
_atom_site_fract_z
Si Si1 0.645357 0.191015 0.187846
Si Si2 0.830843 0.896734 0.000000
Si Si3 0.391561 0.313167 0.696308
Si Si4 0.721960 0.851085 0.303769
Si Si5 0.079855 0.707744 0.300934
Si Si6 0.520281 0.206540 0.308501
O O1 0.654676 0.122068 0.211623
O O2 0.584291 0.187829 0.310987
O O3 0.720275 0.264688 0.209147
O O4 0.617035 0.189401 0.000000
O O5 0.889446 0.871890 0.000000
O O6 0.784855 0.866281 0.172386
O O7 0.407069 0.331074 0.500000
O O8 0.345247 0.228020 0.726358
O O9 0.349048 0.351063 0.775770
O O10 0.749391 0.859539 0.500000
O O11 0.693529 0.906096 0.260742
O O12 0.077595 0.696046 0.500000
O O13 0.141501 0.693555 0.223678
O O14 0.502978 0.218604 0.500000
#
# Coordination Sequence:
#
# PCOD8325246 Si02
#       6
#    12   6  12  12  12  12
#     4  12  25  40  58  88 126 162 205 257 312 374
#     4  12  27  44  66  98 136 180 224 270 328 398
#     4  10  20  38  64  92 123 159 204 258 315 378
#     4  10  21  42  69  98 130 167 218 273 327 390
#     4   9  19  37  64  94 121 155 206 265 315 371
#     4  11  22  41  64  85 115 162 212 254 307 372
#
# _framework density 21.052638000000002
#
# number of rings (size 3 to 8) (size 9 to 14) (size 15 to 20)
#    0.000    1.455    1.818    3.727    1.273    2.909 
#    3.273    3.636    0.000    1.091    0.000    0.000 
#    0.000    0.000    0.000    0.000    0.000    0.000 
#
# Total GULP energy -818520.347539 kJ/mol
# GULP energy per Si atom -12401.823448 kJ/mol
# Density = 2.100472 g / cm^3
# Si number density = 21.052638 Si / 1000 Ang^3
#
#
#
# Elastic Constant Matrix: (Units=GPa)
#
#
# Indices 1 2 3 4 5 6 
#
# 1 86.6661 16.6588 20.0164 0.0000 0.0000 0.0000
# 2 16.6588 86.6661 20.0164 0.0000 0.0000 0.0000
# 3 20.0164 20.0164 69.2059 0.0000 0.0000 0.0000
# 4 0.0000 0.0000 0.0000 15.2047 0.0000 0.0000
# 5 0.0000 0.0000 0.0000 0.0000 15.2047 0.0000
# 6 0.0000 0.0000 0.0000 0.0000 0.0000 35.0036
#
#
#
# Elastic Compliance Matrix: (Units=1/GPa)
#
#
# Indices 1 2 3 4 5 6 
#
# 1 0.012592 -0.001692 -0.003152 0.000000 0.000000 0.000000
# 2 -0.001692 0.012592 -0.003152 0.000000 0.000000 0.000000
# 3 -0.003152 -0.003152 0.016273 0.000000 0.000000 0.000000
# 4 0.000000 0.000000 0.000000 0.065769 0.000000 0.000000
# 5 0.000000 0.000000 0.000000 0.000000 0.065769 0.000000
# 6 0.000000 0.000000 0.000000 0.000000 0.000000 0.028568
#
#
# Mechanical properties :
#
#
# Convention : Reuss Voigt Hill
#
# Bulk Modulus (GPa) = 39.27345 39.54682 39.41013
# Shear Modulus (GPa) = 22.11944 25.47240 23.79592
#
# Velocity S-wave (km/s) = 3.24493 3.48219 3.36565
# Velocity P-wave (km/s) = 5.72143 5.91549 5.81927
#
# Compressibility (1/GPa) = 0.02546250
#
# Stress axis : x y z
#
# Youngs Moduli (GPa) = 79.41598 79.41598 61.45067
#
# Poissons Ratio (x) = 0.13440 0.19372
# Poissons Ratio (y) = 0.13440 0.19372
# Poissons Ratio (z) = 0.25036 0.25036
#
# Static dielectric constant tensor:
#      x y z
#    x 3.879170 0.000000 0.000000 
#    y 0.000000 3.879170 0.000000 
#    z 0.000000 0.000000 3.616190 
# 
# 
# High freq. dielectric constant tensor:
#      x y z
#    x 1.829730 0.000000 0.000000 
#    y 0.000000 1.829730 0.000000 
#    z 0.000000 0.000000 1.811910 
# 
# From -- ./inp_files/1010.got.cif
#   From: 2010.03.12/outbox.cif.g09.slc.cpg/sg175_1_cif.got.tgz:1010.got - 2010.04.02 06:55:29.
