data_PCOD8325712
_publ_section_title
;
Structure prediction by ZEFSAII (Michael W. Deem and Ramdas Pophale) SiO2 
 PCOD8325712
Probable space group: P 63/M
;
_chemical_formula_sum "Si O2"
_cell_formula_units_Z 48
_cell_length_a 17.477532
_cell_length_b 17.477532
_cell_length_c 8.341421
_cell_angle_alpha 90.000000
_cell_angle_beta 90.000000
_cell_angle_gamma 120.000000
_cell_volume 2206.636942
_symmetry_space_group_name_H-M "P 63/M"
_symmetry_group_IT_number 176
_symmetry_cell_setting 'hexagonal'
loop_
_space_group_symop_operation_xyz
x,y,z
x-y,x,1/2+z
-y,x-y,z
-x,-y,1/2+z
-x+y,-x,z
y,-x+y,1/2+z
-x,-y,-z
-x+y,-x,1/2-z
y,-x+y,-z
x,y,1/2-z
x-y,x,-z
-y,x-y,1/2-z
loop_
_atom_site_type_symbol
_atom_site_label
_atom_site_fract_x
_atom_site_fract_y
_atom_site_fract_z
Si Si1 0.504830 0.829167 0.565119
Si Si2 0.839936 0.008695 0.066915
Si Si3 0.660105 0.662036 0.562355
Si Si4 0.340767 0.834100 0.066407
O O1 0.491881 0.844808 0.750000
O O2 0.599310 0.903824 0.502105
O O3 0.501348 0.736208 0.548161
O O4 0.428672 0.829448 0.460582
O O5 0.830629 0.976723 0.250000
O O6 0.762146 0.028342 0.021494
O O7 0.834662 0.932382 0.954410
O O8 0.640244 0.647044 0.750000
O O9 0.570614 0.638109 0.471065
O O10 0.311046 0.810288 0.250000
#
# Coordination Sequence:
#
# PCOD8325712 Si02
#       4
#    12  12  12  12
#     4  12  25  43  66  94 128 167 210 260 314 374
#     4  11  24  41  64  91 125 163 206 255 308 367
#     4  11  24  43  66  95 127 165 210 259 314 375
#     4  12  25  43  66  94 128 167 210 260 314 374
#
# _framework density 21.752558000000001
#
# number of rings (size 3 to 8) (size 9 to 14) (size 15 to 20)
#    0.000    0.500    0.000    9.000    0.000    8.000 
#    0.000    0.000    0.000    0.000    0.000    0.000 
#    0.000    0.000    0.000    0.000    0.000    0.000 
#
# Total GULP energy -595757.413089 kJ/mol
# GULP energy per Si atom -12411.612773 kJ/mol
# Density = 2.170305 g / cm^3
# Si number density = 21.752558 Si / 1000 Ang^3
#
#
#
# Elastic Constant Matrix: (Units=GPa)
#
#
# Indices 1 2 3 4 5 6 
#
# 1 78.6267 29.6175 25.4343 0.0000 0.0000 0.0000
# 2 29.6175 78.6267 25.4343 0.0000 0.0000 0.0000
# 3 25.4343 25.4343 92.1661 0.0000 0.0000 0.0000
# 4 0.0000 0.0000 0.0000 25.3983 0.0000 0.0000
# 5 0.0000 0.0000 0.0000 0.0000 25.3983 0.0000
# 6 0.0000 0.0000 0.0000 0.0000 0.0000 24.5046
#
#
#
# Elastic Compliance Matrix: (Units=1/GPa)
#
#
# Indices 1 2 3 4 5 6 
#
# 1 0.015510 -0.004895 -0.002929 0.000000 0.000000 0.000000
# 2 -0.004895 0.015510 -0.002929 0.000000 0.000000 0.000000
# 3 -0.002929 -0.002929 0.012467 0.000000 0.000000 0.000000
# 4 0.000000 0.000000 0.000000 0.039373 0.000000 0.000000
# 5 0.000000 0.000000 0.000000 0.000000 0.039373 0.000000
# 6 0.000000 0.000000 0.000000 0.000000 0.000000 0.040809
#
#
# Mechanical properties :
#
#
# Convention : Reuss Voigt Hill
#
# Bulk Modulus (GPa) = 45.49717 45.59910 45.54813
# Shear Modulus (GPa) = 26.05889 26.32249 26.19069
#
# Velocity S-wave (km/s) = 3.46492 3.48240 3.47367
# Velocity P-wave (km/s) = 6.08020 6.09735 6.08878
#
# Compressibility (1/GPa) = 0.02197939
#
# Stress axis : x y z
#
# Youngs Moduli (GPa) = 64.47600 64.47600 80.21336
#
# Poissons Ratio (x) = 0.31559 0.23497
# Poissons Ratio (y) = 0.31559 0.23497
# Poissons Ratio (z) = 0.18887 0.18887
#
# Static dielectric constant tensor:
#      x y z
#    x 3.882460 0.000000 0.000000 
#    y 0.000000 3.882460 0.000000 
#    z 0.000000 0.000000 3.898890 
# 
# 
# High freq. dielectric constant tensor:
#      x y z
#    x 1.865980 0.000000 0.000000 
#    y 0.000000 1.865980 0.000000 
#    z 0.000000 0.000000 1.866070 
# 
# From -- ./inp_files/584.got.cif
#   From: 2010.06.25/outbox.cif.g09.slc.cpg/sg176_1_cif.got.tgz:584.got - 2010.06.28 12:15:01.
