data_PCOD8325567
_publ_section_title
;
Structure prediction by ZEFSAII (Michael W. Deem and Ramdas Pophale) SiO2 
 PCOD8325567
Probable space group: P 63/M
;
_chemical_formula_sum "Si O2"
_cell_formula_units_Z 52
_cell_length_a 18.635478
_cell_length_b 18.635478
_cell_length_c 8.754046
_cell_angle_alpha 90.000000
_cell_angle_beta 90.000000
_cell_angle_gamma 120.000000
_cell_volume 2632.816129
_symmetry_space_group_name_H-M "P 63/M"
_symmetry_group_IT_number 176
_symmetry_cell_setting 'hexagonal'
loop_
_space_group_symop_operation_xyz
x,y,z
x-y,x,1/2+z
-y,x-y,z
-x,-y,1/2+z
-x+y,-x,z
y,-x+y,1/2+z
-x,-y,-z
-x+y,-x,1/2-z
y,-x+y,-z
x,y,1/2-z
x-y,x,-z
-y,x-y,1/2-z
loop_
_atom_site_type_symbol
_atom_site_label
_atom_site_fract_x
_atom_site_fract_y
_atom_site_fract_z
Si Si1 0.438227 0.026194 0.569230
Si Si2 0.871890 0.042499 0.428518
Si Si3 0.793811 0.278447 0.930969
Si Si4 0.745654 0.105062 0.428465
Si Si5 0.666667 0.333334 0.932190
O O1 0.446007 0.027767 0.750000
O O2 0.345412 0.962621 0.515267
O O3 0.500000 0.000000 0.500000
O O4 0.462493 0.116511 0.505207
O O5 0.867413 0.020161 0.250000
O O6 0.807449 0.072176 0.471511
O O7 0.963203 0.114322 0.469268
O O8 0.793969 0.280314 0.750000
O O9 0.725921 0.300171 0.996017
O O10 0.773281 0.188690 0.982126
O O11 0.747294 0.123000 0.250000
O O12 0.666667 0.333334 0.750000
#
# Coordination Sequence:
#
# PCOD8325567 Si02
#       5
#    12  12  12  12   4
#     4  10  21  37  57  83 113 146 185 230 278 330
#     4  11  23  40  61  85 114 148 186 229 276 329
#     4  10  20  36  58  81 109 146 188 230 275 330
#     4  10  22  38  56  82 115 147 184 230 279 329
#     4   9  18  33  55  83 109 141 187 233 277 330
#
# _framework density 19.750713000000001
#
# number of rings (size 3 to 8) (size 9 to 14) (size 15 to 20)
#    0.000    1.846    0.000    3.692    0.000    7.385 
#    0.000    1.154    0.000    0.000    0.000    0.000 
#    0.000    0.000    0.000    0.000    0.000    0.000 
#
# Total GULP energy -645036.736022 kJ/mol
# GULP energy per Si atom -12404.552616 kJ/mol
# Density = 1.970576 g / cm^3
# Si number density = 19.750713 Si / 1000 Ang^3
#
#
#
# Elastic Constant Matrix: (Units=GPa)
#
#
# Indices 1 2 3 4 5 6 
#
# 1 163.2647 77.3582 23.2900 0.0000 0.0000 0.0000
# 2 77.3582 163.2669 23.2901 0.0000 0.0000 -0.0002
# 3 23.2900 23.2901 16.9958 0.0000 0.0000 0.0000
# 4 0.0000 0.0000 0.0000 30.6932 0.0000 0.0000
# 5 0.0000 0.0000 0.0000 0.0000 30.6933 0.0000
# 6 0.0000 -0.0002 0.0000 0.0000 0.0000 42.9534
#
#
#
# Elastic Compliance Matrix: (Units=1/GPa)
#
#
# Indices 1 2 3 4 5 6 
#
# 1 0.008648 -0.002992 -0.007751 0.000000 0.000000 0.000000
# 2 -0.002992 0.008648 -0.007751 0.000000 0.000000 0.000000
# 3 -0.007751 -0.007751 0.080081 0.000000 0.000000 0.000000
# 4 0.000000 0.000000 0.000000 0.032580 0.000000 0.000000
# 5 0.000000 0.000000 0.000000 0.000000 0.032580 0.000000
# 6 0.000000 0.000000 0.000000 0.000000 0.000000 0.023281
#
#
# Mechanical properties :
#
#
# Convention : Reuss Voigt Hill
#
# Bulk Modulus (GPa) = 16.55915 65.71155 41.13535
# Shear Modulus (GPa) = 20.58137 35.50726 28.04431
#
# Velocity S-wave (km/s) = 3.23159 4.24461 3.77226
# Velocity P-wave (km/s) = 4.72510 7.57397 6.31235
#
# Compressibility (1/GPa) = 0.06038957
#
# Stress axis : x y z
#
# Youngs Moduli (GPa) = 115.62791 115.62962 12.48731
#
# Poissons Ratio (x) = 0.34597 0.09679
# Poissons Ratio (y) = 0.34596 0.09679
# Poissons Ratio (z) = 0.89625 0.89625
#
# Static dielectric constant tensor:
#      x y z
#    x 3.752640 0.000000 0.000000 
#    y 0.000000 3.752640 0.000000 
#    z 0.000000 0.000000 3.359810 
# 
# 
# High freq. dielectric constant tensor:
#      x y z
#    x 1.790270 0.000000 0.000000 
#    y 0.000000 1.790270 0.000000 
#    z 0.000000 0.000000 1.749870 
# 
# From -- ./inp_files/679.got.cif
#   From: 2010.06.25/outbox.cif.g09.slc.cpg/sg176_1_cif.got.tgz:679.got - 2010.06.28 12:15:01.
