data_PCOD8325420
_publ_section_title
;
Structure prediction by ZEFSAII (Michael W. Deem and Ramdas Pophale) SiO2 
 PCOD8325420
Probable space group: P 63/M
;
_chemical_formula_sum "Si O2"
_cell_formula_units_Z 72
_cell_length_a 17.273286
_cell_length_b 17.273286
_cell_length_c 19.253430
_cell_angle_alpha 90.000000
_cell_angle_beta 90.000000
_cell_angle_gamma 120.000000
_cell_volume 4974.949421
_symmetry_space_group_name_H-M "P 63/M"
_symmetry_group_IT_number 176
_symmetry_cell_setting 'hexagonal'
loop_
_space_group_symop_operation_xyz
x,y,z
x-y,x,1/2+z
-y,x-y,z
-x,-y,1/2+z
-x+y,-x,z
y,-x+y,1/2+z
-x,-y,-z
-x+y,-x,1/2-z
y,-x+y,-z
x,y,1/2-z
x-y,x,-z
-y,x-y,1/2-z
loop_
_atom_site_type_symbol
_atom_site_label
_atom_site_fract_x
_atom_site_fract_y
_atom_site_fract_z
Si Si1 0.972241 0.536449 0.671254
Si Si2 0.500524 0.158245 0.137353
Si Si3 0.168874 0.683912 0.476197
Si Si4 0.321324 0.837929 0.827244
Si Si5 0.395713 0.981352 0.925499
Si Si6 0.646375 0.146979 0.946448
O O1 0.941884 0.501098 0.750000
O O2 0.891643 0.538264 0.630446
O O3 0.063414 0.632030 0.673001
O O4 0.997834 0.476681 0.623449
O O5 0.603541 0.183354 0.144147
O O6 0.483784 0.229648 0.176567
O O7 0.477196 0.155726 0.057555
O O8 0.251341 0.780310 0.458795
O O9 0.189793 0.607853 0.448450
O O10 0.077199 0.673041 0.441801
O O11 0.347524 0.879190 0.750000
O O12 0.312621 0.909572 0.878015
O O13 0.394159 0.933682 0.997743
#
# Coordination Sequence:
#
# PCOD8325420 Si02
#       6
#    12  12  12  12  12  12
#     4  10  19  32  45  61  86 120 150 183 227 269
#     4  11  17  28  43  62  91 115 143 183 223 272
#     4  11  18  30  47  65  82 114 154 185 218 255
#     4  11  20  27  40  67  93 116 141 179 230 279
#     4  10  18  31  46  61  86 115 147 182 223 268
#     4  11  19  32  46  65  87 115 155 190 219 262
#
# _framework density 14.472509000000001
#
# number of rings (size 3 to 8) (size 9 to 14) (size 15 to 20)
#    0.000    1.333    6.667    4.667    0.000    0.000 
#    0.000    4.167    0.000    0.000    0.000    0.000 
#    0.000    0.000    0.000    9.000    0.000    5.667 
#
# Total GULP energy -891977.150640 kJ/mol
# GULP energy per Si atom -12388.571537 kJ/mol
# Density = 1.443957 g / cm^3
# Si number density = 14.472509 Si / 1000 Ang^3
#
#
#
# Elastic Constant Matrix: (Units=GPa)
#
#
# Indices 1 2 3 4 5 6 
#
# 1 56.3468 25.7844 32.7952 0.0000 0.0000 0.0000
# 2 25.7844 56.3468 32.7952 0.0000 0.0000 0.0000
# 3 32.7952 32.7952 117.7381 0.0000 0.0000 0.0000
# 4 0.0000 0.0000 0.0000 16.6701 0.0000 0.0000
# 5 0.0000 0.0000 0.0000 0.0000 16.6701 0.0000
# 6 0.0000 0.0000 0.0000 0.0000 0.0000 15.2812
#
#
#
# Elastic Compliance Matrix: (Units=1/GPa)
#
#
# Indices 1 2 3 4 5 6 
#
# 1 0.024189 -0.008531 -0.004362 0.000000 0.000000 0.000000
# 2 -0.008531 0.024189 -0.004362 0.000000 0.000000 0.000000
# 3 -0.004362 -0.004362 0.010923 0.000000 0.000000 0.000000
# 4 0.000000 0.000000 0.000000 0.059988 0.000000 0.000000
# 5 0.000000 0.000000 0.000000 0.000000 0.059988 0.000000
# 6 0.000000 0.000000 0.000000 0.000000 0.000000 0.065440
#
#
# Mechanical properties :
#
#
# Convention : Reuss Voigt Hill
#
# Bulk Modulus (GPa) = 40.33181 45.90905 43.12043
# Shear Modulus (GPa) = 17.39190 18.99472 18.19331
#
# Velocity S-wave (km/s) = 3.47034 3.62673 3.54940
# Velocity P-wave (km/s) = 6.63220 7.02339 6.83060
#
# Compressibility (1/GPa) = 0.02479432
#
# Stress axis : x y z
#
# Youngs Moduli (GPa) = 41.34032 41.34032 91.54757
#
# Poissons Ratio (x) = 0.35266 0.39930
# Poissons Ratio (y) = 0.35266 0.39930
# Poissons Ratio (z) = 0.18031 0.18031
#
# Static dielectric constant tensor:
#      x y z
#    x 2.947720 0.000000 0.000000 
#    y 0.000000 2.947720 0.000000 
#    z 0.000000 0.000000 3.131490 
# 
# 
# High freq. dielectric constant tensor:
#      x y z
#    x 1.520920 0.000000 0.000000 
#    y 0.000000 1.520920 0.000000 
#    z 0.000000 0.000000 1.574860 
# 
# From -- ./inp_files/3473.got.cif
#   From: 2010.06.25/outbox.cif.g09.slc.cpg/sg176_2_cif.got.tgz:3473.got - 2010.06.28 12:15:01.
