data_PCOD8325396
_publ_section_title
;
Structure prediction by ZEFSAII (Michael W. Deem and Ramdas Pophale) SiO2 
 PCOD8325396
Probable space group: P 6/M
;
_chemical_formula_sum "Si O2"
_cell_formula_units_Z 64
_cell_length_a 21.420133
_cell_length_b 21.420133
_cell_length_c 9.538046
_cell_angle_alpha 90.000000
_cell_angle_beta 90.000000
_cell_angle_gamma 120.000000
_cell_volume 3789.957767
_symmetry_space_group_name_H-M "P 6/M"
_symmetry_group_IT_number 175
_symmetry_cell_setting 'hexagonal'
loop_
_space_group_symop_operation_xyz
x,y,z
x-y,x,z
-y,x-y,z
-x,-y,z
-x+y,-x,z
y,-x+y,z
-x,-y,-z
-x+y,-x,-z
y,-x+y,-z
x,y,-z
x-y,x,-z
-y,x-y,-z
loop_
_atom_site_type_symbol
_atom_site_label
_atom_site_fract_x
_atom_site_fract_y
_atom_site_fract_z
Si Si1 0.699005 0.919183 0.661846
Si Si2 0.666668 0.333334 0.832888
Si Si3 0.585233 0.414765 0.166800
Si Si4 0.083356 0.422707 0.837894
Si Si5 0.699005 0.779821 0.338155
Si Si6 0.339350 0.422709 0.162106
O O1 0.677278 0.915915 0.500000
O O2 0.728345 0.864172 0.693081
O O3 0.627610 0.895004 0.751935
O O4 0.761602 0.999999 0.702971
O O5 0.748145 0.374075 0.775418
O O6 0.666667 0.333334 0.000000
O O7 0.503375 0.373264 0.222216
O O8 0.626738 0.496623 0.222215
O O9 0.583952 0.416047 0.000000
O O10 0.104995 0.372389 0.751936
O O11 0.999999 0.398518 0.816721
O O12 0.101070 0.418208 0.000000
O O13 0.677278 0.761362 0.500000
O O14 0.317136 0.418209 0.000000
#
# Coordination Sequence:
#
# PCOD8325396 Si02
#       6
#    12   4  12  12  12  12
#     4   9  18  32  49  69  93 120 148 179 220 268
#     4   9  18  27  36  60  88 122 160 186 223 269
#     4   9  17  28  42  62  92 122 152 190 230 271
#     4   9  17  29  47  70  92 116 149 190 231 267
#     4   9  18  32  49  69  93 120 148 179 220 268
#     4   9  17  29  47  70  92 116 149 190 231 267
#
# _framework density 16.886733
#
# number of rings (size 3 to 8) (size 9 to 14) (size 15 to 20)
#    0.000    3.000    0.000    0.562    2.625    3.000 
#    0.000    0.938    0.000    4.875    0.000    2.625 
#    0.000    0.000    0.000    9.375    0.000    9.750 
#
# Total GULP energy -793515.221864 kJ/mol
# GULP energy per Si atom -12398.675342 kJ/mol
# Density = 1.684830 g / cm^3
# Si number density = 16.886733 Si / 1000 Ang^3
#
#
#
# Elastic Constant Matrix: (Units=GPa)
#
#
# Indices 1 2 3 4 5 6 
#
# 1 131.3400 79.0769 34.8933 0.0000 0.0000 0.0004
# 2 79.0769 131.3392 34.8933 0.0000 0.0000 0.0000
# 3 34.8933 34.8933 34.9998 0.0000 0.0000 0.0000
# 4 0.0000 0.0000 0.0000 19.6414 0.0000 0.0000
# 5 0.0000 0.0000 0.0000 0.0000 19.6414 0.0000
# 6 0.0004 0.0000 0.0000 0.0000 0.0000 26.1317
#
#
#
# Elastic Compliance Matrix: (Units=1/GPa)
#
#
# Indices 1 2 3 4 5 6 
#
# 1 0.013117 -0.006017 -0.007078 0.000000 0.000000 0.000000
# 2 -0.006017 0.013117 -0.007079 0.000000 0.000000 0.000000
# 3 -0.007078 -0.007079 0.042686 0.000000 0.000000 0.000000
# 4 0.000000 0.000000 0.000000 0.050913 0.000000 0.000000
# 5 0.000000 0.000000 0.000000 0.000000 0.050913 0.000000
# 6 0.000000 0.000000 0.000000 0.000000 0.000000 0.038268
#
#
# Mechanical properties :
#
#
# Convention : Reuss Voigt Hill
#
# Bulk Modulus (GPa) = 34.99967 66.15624 50.57795
# Shear Modulus (GPa) = 19.31358 23.00393 21.15876
#
# Velocity S-wave (km/s) = 3.38555 3.69487 3.54359
# Velocity P-wave (km/s) = 6.00448 7.58052 6.83806
#
# Compressibility (1/GPa) = 0.02857170
#
# Stress axis : x y z
#
# Youngs Moduli (GPa) = 76.23647 76.23593 23.42713
#
# Poissons Ratio (x) = 0.45871 0.16583
# Poissons Ratio (y) = 0.45871 0.16583
# Poissons Ratio (z) = 0.53964 0.53964
#
# Static dielectric constant tensor:
#      x y z
#    x 3.252660 0.000000 0.000000 
#    y 0.000000 3.252660 0.000000 
#    z 0.000000 0.000000 2.933610 
# 
# 
# High freq. dielectric constant tensor:
#      x y z
#    x 1.650440 0.000000 0.000000 
#    y 0.000000 1.650440 0.000000 
#    z 0.000000 0.000000 1.620520 
# 
# From -- ./inp_files/1918.got.cif
#   From: 2010.03.12/outbox.cif.g09.slc.cpg/sg175_1_cif.got.tgz:1918.got - 2010.04.02 06:55:29.
