data_PCOD8325931
_publ_section_title
;
Structure prediction by ZEFSAII (Michael W. Deem and Ramdas Pophale) SiO2 
 PCOD8325931
Probable space group: P 61 2 2
;
_chemical_formula_sum "Si O2"
_cell_formula_units_Z 60
_cell_length_a 15.336089
_cell_length_b 15.336089
_cell_length_c 13.359674
_cell_angle_alpha 90.000000
_cell_angle_beta 90.000000
_cell_angle_gamma 120.000000
_cell_volume 2721.170366
_symmetry_space_group_name_H-M "P 61 2 2"
_symmetry_group_IT_number 178
_symmetry_cell_setting 'hexagonal'
loop_
_space_group_symop_operation_xyz
x,y,z
x-y,x,1/6+z
-y,x-y,1/3+z
-x,-y,1/2+z
-x+y,-x,2/3+z
y,-x+y,5/6+z
x-y,-y,-z
-x,-x+y,2/3-z
y,x,1/3-z
-y,-x,5/6-z
-x+y,y,1/2-z
x,x-y,1/6-z
loop_
_atom_site_type_symbol
_atom_site_label
_atom_site_fract_x
_atom_site_fract_y
_atom_site_fract_z
Si Si1 0.401649 0.868095 0.144520
Si Si2 0.802226 0.197865 0.707890
Si Si3 0.073405 0.926596 0.416667
Si Si4 0.639992 0.000000 0.500000
Si Si5 0.859567 0.719134 0.750000
Si Si6 0.760009 0.520017 0.250000
Si Si7 0.231485 0.985060 0.737960
O O1 0.457095 0.914189 0.250000
O O2 0.284271 0.782895 0.163856
O O3 0.451516 0.810652 0.091943
O O4 0.406761 0.958523 0.081544
O O5 0.819567 0.226384 0.824287
O O6 0.903345 0.258352 0.641737
O O7 0.755736 0.076057 0.700759
O O8 0.000000 0.924985 0.333334
O O9 0.028525 0.819964 0.471466
O O10 0.743734 0.091885 0.454215
O O11 0.926560 0.784823 0.654142
#
# Coordination Sequence:
#
# PCOD8325931 Si02
#       7
#    12  12   6   6   6   6  12
#     4  10  23  47  71 104 143 185 243 308 373 445
#     4  11  23  43  72 100 144 188 241 297 367 443
#     4  12  27  43  60 104 142 182 246 288 346 432
#     4  12  24  48  76 112 146 198 252 306 388 466
#     4  12  24  45  76 103 150 199 242 306 367 462
#     4  10  25  44  72  99 142 185 238 322 373 434
#     4  12  23  42  70 103 144 194 239 296 360 441
#
# _framework density 22.049336
#
# number of rings (size 3 to 8) (size 9 to 14) (size 15 to 20)
#    0.000    0.800    6.000    0.600    0.000    4.000 
#    5.400    0.000    6.600    0.000    0.000    0.000 
#    0.000    0.000    0.000    0.000    0.000    0.000 
#
# Total GULP energy -743348.295050 kJ/mol
# GULP energy per Si atom -12389.138251 kJ/mol
# Density = 2.199915 g / cm^3
# Si number density = 22.049336 Si / 1000 Ang^3
#
#
#
# Elastic Constant Matrix: (Units=GPa)
#
#
# Indices 1 2 3 4 5 6 
#
# 1 91.7417 39.6939 39.9357 0.0000 0.0000 0.0000
# 2 39.6939 91.7417 39.9357 0.0000 0.0000 0.0000
# 3 39.9357 39.9357 121.2951 0.0000 0.0000 0.0000
# 4 0.0000 0.0000 0.0000 42.4617 0.0000 0.0000
# 5 0.0000 0.0000 0.0000 0.0000 42.4617 0.0000
# 6 0.0000 0.0000 0.0000 0.0000 0.0000 26.0239
#
#
#
# Elastic Compliance Matrix: (Units=1/GPa)
#
#
# Indices 1 2 3 4 5 6 
#
# 1 0.014362 -0.004851 -0.003132 0.000000 0.000000 0.000000
# 2 -0.004851 0.014362 -0.003132 0.000000 0.000000 0.000000
# 3 -0.003132 -0.003132 0.010306 0.000000 0.000000 0.000000
# 4 0.000000 0.000000 0.000000 0.023551 0.000000 0.000000
# 5 0.000000 0.000000 0.000000 0.000000 0.023551 0.000000
# 6 0.000000 0.000000 0.000000 0.000000 0.000000 0.038426
#
#
# Mechanical properties :
#
#
# Convention : Reuss Voigt Hill
#
# Bulk Modulus (GPa) = 59.51370 60.43434 59.97402
# Shear Modulus (GPa) = 32.81114 34.53699 33.67406
#
# Velocity S-wave (km/s) = 3.86175 3.96201 3.91220
# Velocity P-wave (km/s) = 6.85083 6.95688 6.90406
#
# Compressibility (1/GPa) = 0.01680285
#
# Stress axis : x y z
#
# Youngs Moduli (GPa) = 69.62724 69.62724 97.02672
#
# Poissons Ratio (x) = 0.33776 0.30384
# Poissons Ratio (y) = 0.33776 0.30384
# Poissons Ratio (z) = 0.21804 0.21804
#
# Static dielectric constant tensor:
#      x y z
#    x 3.957320 0.000000 0.000000 
#    y 0.000000 3.957320 0.000000 
#    z 0.000000 0.000000 4.560130 
# 
# 
# High freq. dielectric constant tensor:
#      x y z
#    x 1.849390 0.000000 0.000000 
#    y 0.000000 1.849390 0.000000 
#    z 0.000000 0.000000 1.902020 
# 
# From -- ./inp_files/5777.got.cif
#   From: 2010.03.12/outbox.cif.g09.slc.cpg/sg178_3_cif.got.tgz:5777.got - 2010.04.02 07:02:38.
